Infrared Spectrum: N-HYDROXYLSUCCINIMIDE
Formula: C4 H5 N O3
CAS: 6066-82-6
State: SOLID (NUJOL MULL)
Class: COBLENTZ III
Instrument: PERKIN-ELMER 21 (GRATING)
Instrument parameters: FILTER AT ABOUT 10 MICRONS
Resolution: 2
Origin: ABBOTT LABORATORIES
1/CM	TRANSMITTANCE
667	0.2815
676	0.3385
685	0.3893
694	0.4271
703	0.4796
712	0.3889
721	0.435
730	0.5296
739	0.6157
748	0.6437
757	0.6518
766	0.6799
775	0.7027
784	0.7068
793	0.6799
802	0.5858
811	0.293
820	0.6214
829	0.7148
838	0.7314
847	0.7337
856	0.7331
865	0.7298
874	0.732
883	0.7204
892	0.7141
901	0.7157
910	0.7056
919	0.7029
928	0.6933
937	0.6796
946	0.6757
955	0.6651
964	0.649
973	0.6246
982	0.5925
991	0.4474
1000	0.4699
1009	0.636
1018	0.6115
1027	0.584
1036	0.5088
1045	0.3228
1054	0.5397
1063	0.477
1072	0.3481
1081	0.2246
1090	0.4382
1099	0.504
1108	0.5485
1117	0.5494
1126	0.522
1135	0.4753
1144	0.4096
1153	0.4084
1162	0.3767
1171	0.3184
1180	0.2474
1189	0.171
1198	0.1073
1207	0.1115
1216	0.1306
1225	0.1559
1234	0.2143
1243	0.3794
1252	0.4648
1261	0.5462
1270	0.5764
1279	0.5718
1288	0.5256
1297	0.5108
1306	0.4355
1315	0.5022
1324	0.6009
1333	0.5982
1342	0.575
1351	0.5369
1360	0.469
1369	0.3536
1378	0.3892
1387	0.4974
1396	0.5009
1405	0.4773
1414	0.3009
1423	0.5068
1432	0.4622
1441	0.3323
1450	0.2351
1459	0.1881
1468	0.265
1477	0.3936
1486	0.3805
1495	0.3137
1504	0.2495
1513	0.2857
1522	0.4254
1531	0.4975
1540	0.513
1549	0.521
1558	0.5159
1567	0.5099
1576	0.4961
1585	0.469
1594	0.4233
1603	0.3696
1612	0.307
1621	0.2646
1630	0.2134
1639	0.1711
1648	0.1507
1657	0.1382
1666	0.1157
1675	0.107
1684	0.1089
1693	0.1085
1702	0.1145
1711	0.1228
1720	0.1377
1729	0.1575
1738	0.2152
1747	0.3068
1756	0.397
1765	0.4098
1774	0.3508
1783	0.2607
1792	0.3499
1801	0.4853
1810	0.5104
1819	0.5622
1828	0.6489
1837	0.6832
1846	0.704
1855	0.7189
1864	0.7294
1873	0.7376
1882	0.7444
1891	0.749
1900	0.7496
1909	0.7466
1918	0.7394
1927	0.7359
1936	0.7453
1945	0.76
1954	0.7744
1963	0.7838
1972	0.7882
1981	0.7901
1990	0.7909
1999	0.7913
2008	0.7908
2017	0.7889
2026	0.7845
2035	0.7812
2044	0.7787
2053	0.7794
2062	0.7826
2071	0.7828
2080	0.7825
2089	0.7822
2098	0.7814
2107	0.7792
2116	0.7757
2125	0.775
2134	0.7765
2143	0.7792
2152	0.781
2161	0.7804
2170	0.7795
2179	0.7779
2188	0.7758
2197	0.7731
2206	0.7702
2215	0.7675
2224	0.7647
2233	0.7619
2242	0.7591
2251	0.7563
2260	0.7536
2269	0.7508
2278	0.7512
2287	0.7536
2296	0.7582
2305	0.7595
2314	0.7545
2323	0.7445
2332	0.74
2341	0.7373
2350	0.7354
2359	0.734
2368	0.731
2377	0.7258
2386	0.7206
2395	0.7178
2404	0.7169
2413	0.7167
2422	0.7164
2431	0.7161
2440	0.715
2449	0.713
2458	0.711
2467	0.7084
2476	0.7058
2485	0.7029
2494	0.7
2503	0.6959
2512	0.6918
2521	0.6849
2530	0.6768
2539	0.6674
2548	0.6586
2557	0.6497
2566	0.6403
2575	0.6309
2584	0.6171
2593	0.6105
2602	0.6057
2611	0.6029
2620	0.601
2629	0.5973
2638	0.5849
2647	0.5681
2656	0.5546
2665	0.5416
2674	0.5288
2683	0.5175
2692	0.507
2701	0.4964
2710	0.4852
2719	0.4742
2728	0.4613
2737	0.4474
2746	0.4332
2755	0.419
2764	0.4028
2773	0.3854
2782	0.3619
2791	0.3417
2800	0.3199
2809	0.2774
2818	0.2344
2827	0.1606
2836	0.1148
2845	0.0609
2854	0.045
2863	0.0436
2872	0.043
2881	0.0427
2890	0.0427
2899	0.0431
2908	0.0434
2917	0.0442
2926	0.0451
2935	0.0473
2944	0.0588
2953	0.0951
2962	0.1316
2971	0.1678
2980	0.2051
2989	0.2506
2998	0.2634
3007	0.272
3016	0.2773
3025	0.2789
3034	0.278
3043	0.2711
3052	0.262
3061	0.2522
3070	0.2469
3079	0.2452
3088	0.2449
3097	0.246
3106	0.2497
3115	0.258
3124	0.2732
3133	0.2889
3142	0.3046
3151	0.3202
3160	0.3356
3169	0.351
3178	0.3663
3187	0.3815
3196	0.3967
3205	0.4123
3214	0.4426
3223	0.4649
3232	0.4793
3241	0.5
3250	0.5154
3259	0.5283
3268	0.5417
3277	0.5555
3286	0.5691
3295	0.5818
3304	0.5944
3313	0.6044
3322	0.6129
3331	0.6213
3340	0.6312
3349	0.6475
3358	0.6532
3367	0.6558
3376	0.6585
3385	0.6611
3394	0.664
3403	0.6675
3412	0.6689
3421	0.6696
3430	0.6689
3439	0.6677
3448	0.6663
3457	0.6668
3466	0.6704
3475	0.6754
3484	0.6813
3493	0.6867
3502	0.691
3511	0.6948
3520	0.6986
3529	0.7021
3538	0.7048
3547	0.7075
3556	0.7101
3565	0.7118
3574	0.7128
3583	0.7137
3592	0.7136
3601	0.7132
3610	0.7127
3619	0.7123
3628	0.7118
3637	0.7113
3646	0.7109
3655	0.7103
3664	0.7099
3673	0.7091
3682	0.7083
3691	0.7075
3700	0.7067
3709	0.706
3718	0.705
3727	0.704
3736	0.7029
3745	0.7018
3754	0.7007
3763	0.6997
3772	0.6986
3781	0.6976
3790	0.6967
3799	0.6959
3808	0.6951
3817	0.6942
3826	0.6935
3835	0.6927
3844	0.6919
3853	0.6911
3862	0.6903
3871	0.6893
3880	0.6883
3889	0.6871
3898	0.686
3907	0.685
3916	0.6838
3925	0.6828
3934	0.6816
3943	0.6805
3952	0.6793
3961	0.6783
3970	0.6771
3979	0.676
3988	0.6749
3997	0.674
