Infrared Spectrum: cis-1-Methyl-4-isopropylcyclohexane
Formula: C 10 H 20
CAS: 6069-98-3
State: gas
Instrument: HP-GC/MS/IRD
Origin: NIST Mass Spectrometry Data Center
1/CM	ABSORBANCE
550	0.0001488
562	0.0001296
574	5.76e-05
586	0.0001008
598	0.0001344
610	0.0002496
622	0.0004128
634	0.0005376
646	0.000168
658	0.0001632
670	0.0001392
682	0.0001728
694	0.0001104
706	0.0001296
718	0.0001344
730	0.0001248
742	0.0001632
754	0.0001872
766	0.0002544
778	0.0002352
790	0.00024
802	0.0001344
814	0.0001344
826	0.0001008
838	0.000192
850	0.000288
862	0.0002784
874	0.0003216
886	0.0003168
898	0.0001824
910	0.0002112
922	0.0003408
934	0.0004464
946	0.0004512
958	0.0005664
970	0.0007152
982	0.0006336
994	0.0004512
1006	0.0004944
1018	0.0006576
1030	0.0005088
1042	0.0003648
1054	0.0003792
1066	0.0004896
1078	0.0006672
1090	0.0006864
1102	0.000432
1114	0.0003024
1126	0.0002688
1138	0.0003168
1150	0.0005952
1162	0.000936
1174	0.000984
1186	0.0006
1198	0.0004272
1210	0.0002544
1222	0.0003408
1234	0.0004224
1246	0.0003456
1258	0.0005328
1270	0.0007152
1282	0.0006528
1294	0.0006432
1306	0.0006432
1318	0.0007104
1330	0.000768
1342	0.0009936
1354	0.0015216
1366	0.0030432
1378	0.0048768
1390	0.0043872
1402	0.0017856
1414	0.000888
1426	0.0009984
1438	0.0022464
1450	0.0048144
1462	0.006
1474	0.0042864
1486	0.0018912
1498	0.0007632
1510	0.0003744
1522	0.0002544
1534	0.000216
1546	0.0001392
1558	0.0001008
1570	0.0001344
1582	0.0001392
1594	0.000168
1606	0.0001392
1618	0.0001152
1630	0.000144
1642	0.0001104
1654	8.16e-05
1666	0.0001104
1678	0.0001008
1690	0.0001008
1702	5.28e-05
1714	6.72e-05
1726	9.12e-05
1738	5.28e-05
1750	6.72e-05
1762	7.2e-05
1774	3.84e-05
1786	4.8e-05
1798	3.84e-05
1810	6.24e-05
1822	5.28e-05
1834	4.8e-05
1846	4.8e-05
1858	4.32e-05
1870	5.28e-05
1882	5.28e-05
1894	3.84e-05
1906	4.8e-05
1918	4.32e-05
1930	2.88e-05
1942	4.8e-06
1954	2.88e-05
1966	1.44e-05
1978	2.88e-05
1990	2.4e-05
2002	1.44e-05
2014	1.92e-05
2026	1.44e-05
2038	0
2050	0
2062	1.92e-05
2074	4.32e-05
2086	4.32e-05
2098	4.32e-05
2110	2.88e-05
2122	3.84e-05
2134	2.88e-05
2146	2.88e-05
2158	4.32e-05
2170	6.24e-05
2182	5.28e-05
2194	3.84e-05
2206	5.28e-05
2218	6.24e-05
2230	7.2e-05
2242	6.24e-05
2254	6.24e-05
2266	8.16e-05
2278	8.64e-05
2290	6.72e-05
2302	7.2e-05
2314	9.12e-05
2326	8.16e-05
2338	6.72e-05
2350	6.72e-05
2362	5.76e-05
2374	0.0001056
2386	0.000144
2398	0.000144
2410	0.0001584
2422	0.0001872
2434	0.0001728
2446	0.000168
2458	0.000168
2470	0.0001632
2482	0.0001584
2494	0.000168
2506	0.0001968
2518	0.0002112
2530	0.0002544
2542	0.0002352
2554	0.0002592
2566	0.0003168
2578	0.0003792
2590	0.0004752
2602	0.0005952
2614	0.0006576
2626	0.00072
2638	0.0007056
2650	0.0007056
2662	0.0007824
2674	0.00084
2686	0.0008256
2698	0.0007344
2710	0.0007584
2722	0.0008832
2734	0.0009312
2746	0.000888
2758	0.0009072
2770	0.0009936
2782	0.0011088
2794	0.0012912
2806	0.0015504
2818	0.0019824
2830	0.0029232
2842	0.0060672
2854	0.0140352
2866	0.0206736
2878	0.0223248
2890	0.0213024
2902	0.0248592
2914	0.0361488
2926	0.048
2938	0.0421056
2950	0.035328
2962	0.0368592
2974	0.0261696
2986	0.0105264
2998	0.0038688
3010	0.0021168
3022	0.0015408
3034	0.0012576
3046	0.0010848
3058	0.0010032
3070	0.0009216
3082	0.0008976
3094	0.0008256
3106	0.000768
3118	0.0007344
3130	0.0007392
3142	0.0006912
3154	0.000624
3166	0.000552
3178	0.0005184
3190	0.0004272
3202	0.00036
3214	0.0003072
3226	0.0002688
3238	0.0002448
3250	0.000192
3262	0.0002112
3274	0.0002064
3286	0.0002304
3298	0.0002688
3310	0.0002256
3322	0.0002112
3334	0.0001968
3346	0.0001776
3358	0.0001824
3370	0.0001584
3382	0.0001632
3394	0.0001584
3406	0.000168
3418	0.0001104
3430	0.0001344
3442	0.0001008
3454	8.64e-05
3466	7.2e-05
3478	9.12e-05
3490	8.64e-05
3502	8.64e-05
3514	9.6e-05
3526	0.0001104
3538	0.0001248
3550	9.12e-05
3562	0.0001056
3574	7.68e-05
3586	9.12e-05
3598	7.2e-05
3610	6.24e-05
3622	0.0001008
3634	0.0001152
3646	8.16e-05
3658	0.0001248
3670	9.12e-05
3682	0.0001296
3694	0.0001296
3706	0.0001728
3718	0.0001248
3730	9.6e-05
3742	8.16e-05
3754	9.6e-05
3766	0.0001392
3778	0.0001824
3790	0.0001632
3802	0.0001728
3814	0.0001872
3826	0.0001728
3838	0.000168
