Infrared Spectrum: 8-NITRO QUINOLINE
Formula: C9 H6 N2 O2
CAS: 607-35-2
State: SOLID (1.0% IN KBr PELLET)
Class: COBLENTZ
Instrument: Not specified, most likely a prism, grating, or hybrid spectrometer.
Sampling: TRANSMISSION
Path length: 0.0355 CM
Resolution: 4
Origin: ANDERSON PHYSICAL LABORATORY
1/CM	TRANSMITTANCE
674.049	0.71
682.471	0.71
690.892	0.71
699.314	0.71
707.736	0.706
716.158	0.671
724.579	0.556
733.001	0.649
741.423	0.685
749.845	0.67
758.266	0.607
766.688	0.3521
775.11	0.4539
783.532	0.59
791.953	0.2801
800.375	0.299
808.797	0.6139
817.218	0.647
825.64	0.7
834.062	0.356
842.484	0.464
850.905	0.61
859.327	0.646
867.749	0.655
876.171	0.617
884.592	0.361
893.014	0.665
901.436	0.758
909.858	0.77
918.279	0.766
926.701	0.757
935.123	0.761
943.544	0.761
951.966	0.755
960.388	0.751
968.81	0.749
977.231	0.743
985.653	0.733
994.075	0.665
1002.5	0.685
1010.92	0.707
1019.34	0.707
1027.76	0.679
1036.18	0.686
1044.61	0.683
1053.03	0.685
1061.45	0.676
1069.87	0.674
1078.29	0.64
1086.71	0.638
1095.14	0.694
1103.56	0.698
1111.98	0.697
1120.4	0.691
1128.82	0.688
1137.24	0.679
1145.67	0.649
1154.09	0.662
1162.51	0.664
1170.93	0.661
1179.35	0.631
1187.77	0.638
1196.2	0.641
1204.62	0.637
1213.04	0.628
1221.46	0.547
1229.88	0.55
1238.31	0.631
1246.73	0.629
1255.15	0.625
1263.57	0.632
1271.99	0.629
1280.41	0.614
1288.84	0.598
1297.26	0.584
1305.68	0.569
1314.1	0.55
1322.52	0.508
1330.94	0.443
1339.37	0.469
1347.79	0.409
1356.21	0.293
1364.63	0.158
1373.05	0.196
1381.47	0.226
1389.9	0.373
1398.32	0.521
1406.74	0.602
1415.16	0.658
1423.58	0.671
1432.01	0.6169
1440.43	0.508
1448.85	0.586
1457.27	0.596
1465.69	0.596
1474.11	0.56
1482.54	0.53
1490.96	0.509
1499.38	0.412
1507.8	0.302
1516.22	0.326
1524.64	0.292
1533.07	0.211
1541.49	0.13
1549.91	0.175
1558.33	0.385
1566.75	0.425
1575.17	0.409
1583.6	0.496
1592.02	0.559
1600.44	0.4809
1608.86	0.5059
1617.28	0.605
1625.7	0.601
1634.13	0.574
1642.55	0.623
1650.97	0.655
1659.39	0.661
1667.81	0.665
1676.24	0.668
1684.66	0.67
1693.08	0.671
1701.5	0.679
1709.92	0.683
1718.34	0.685
1726.77	0.685
1735.19	0.68
1743.61	0.673
1752.03	0.661
1760.45	0.662
1768.87	0.665
1777.3	0.667
1785.72	0.668
1794.14	0.67
1802.56	0.668
1810.98	0.662
1819.4	0.658
1827.83	0.641
1836.25	0.646
1844.67	0.658
1853.09	0.658
1861.51	0.655
1869.94	0.65
1878.36	0.643
1886.78	0.638
1895.2	0.628
1903.62	0.629
1912.04	0.629
1920.47	0.632
1928.89	0.634
1937.31	0.625
1945.73	0.619
1954.15	0.619
1962.57	0.607
1971	0.599
1979.42	0.614
1987.84	0.625
1996.26	0.629
2004.68	0.631
2013.1	0.631
2021.53	0.629
2029.95	0.628
2038.37	0.6252
2046.79	0.6225
2055.21	0.6204
2063.64	0.619
2072.06	0.617
2080.48	0.6164
2088.9	0.6144
2097.32	0.6139
2105.74	0.6124
2114.17	0.6104
2122.59	0.6083
2131.01	0.607
2139.43	0.605
2147.85	0.6028
2156.27	0.6011
2164.7	0.599
2173.12	0.598
2181.54	0.596
2189.96	0.595
2198.38	0.5928
2206.8	0.59
2215.23	0.59
2223.65	0.59
2232.07	0.589
2240.49	0.587
2248.91	0.5863
2257.33	0.586
2265.76	0.5826
2274.18	0.58
2282.6	0.5785
2291.02	0.578
2299.44	0.5747
2307.87	0.573
2316.29	0.572
2324.71	0.572
2333.13	0.572
2341.55	0.572
2349.97	0.572
2358.4	0.569
2366.82	0.568
2375.24	0.5669
2383.66	0.566
2392.08	0.5649
2400.5	0.561
2408.93	0.5564
2417.35	0.5532
2425.77	0.5528
2434.19	0.551
2442.61	0.5504
2451.03	0.55
2459.46	0.548
2467.88	0.5476
2476.3	0.547
2484.72	0.547
2493.14	0.545
2501.57	0.545
2509.99	0.545
2518.41	0.544
2526.83	0.542
2535.25	0.541
2543.67	0.5396
2552.1	0.539
2560.52	0.5376
2568.94	0.536
2577.36	0.535
2585.78	0.532
2594.2	0.53
2602.63	0.53
2611.05	0.53
2619.47	0.529
2627.89	0.5237
2636.31	0.523
2644.73	0.521
2653.16	0.521
2661.58	0.52
2670	0.52
2678.42	0.52
2686.84	0.52
2695.27	0.52
2703.69	0.518
2712.11	0.5172
2720.53	0.5107
2728.95	0.5057
2737.37	0.503
2745.8	0.503
2754.22	0.5017
2762.64	0.5
2771.06	0.499
2779.48	0.499
2787.9	0.497
2796.33	0.496
2804.75	0.494
2813.17	0.4912
2821.59	0.4894
2830.01	0.487
2838.43	0.4829
2846.86	0.4762
2855.28	0.4714
2863.7	0.4665
2872.12	0.4633
2880.54	0.4611
2888.96	0.458
2897.39	0.458
2905.81	0.458
2914.23	0.458
2922.65	0.458
2931.07	0.458
2939.5	0.458
2947.92	0.46
2956.34	0.461
2964.76	0.461
2973.18	0.461
2981.6	0.461
2990.03	0.461
2998.45	0.4589
3006.87	0.4572
3015.29	0.4549
3023.71	0.452
3032.13	0.4498
3040.56	0.4481
3048.98	0.4429
3057.4	0.4379
3065.82	0.4317
3074.24	0.4282
3082.66	0.428
3091.09	0.428
3099.51	0.43
3107.93	0.43
3116.35	0.431
3124.77	0.431
3133.2	0.431
3141.62	0.431
3150.04	0.431
3158.46	0.431
3166.88	0.431
3175.3	0.431
3183.73	0.431
3192.15	0.431
3200.57	0.431
3208.99	0.43
3217.41	0.4295
3225.83	0.4275
3234.26	0.425
3242.68	0.4239
3251.1	0.422
3259.52	0.421
3267.94	0.4194
3276.36	0.4189
3284.79	0.418
3293.21	0.416
3301.63	0.416
3310.05	0.415
3318.47	0.413
3326.9	0.4124
3335.32	0.412
3343.74	0.407
3352.16	0.406
3360.58	0.404
3369	0.4004
3377.43	0.397
3385.85	0.3946
3394.27	0.3927
3402.69	0.3892
3411.11	0.388
3419.53	0.386
3427.96	0.385
3436.38	0.383
3444.8	0.382
3453.22	0.38
3461.64	0.38
3470.06	0.379
3478.49	0.3768
3486.91	0.375
3495.33	0.3733
3503.75	0.373
3512.17	0.373
3520.59	0.373
3529.02	0.3738
3537.44	0.376
3545.86	0.379
3554.28	0.379
3562.7	0.379
3571.13	0.377
3579.55	0.377
3587.97	0.377
3596.39	0.379
3604.81	0.379
3613.23	0.379
3621.66	0.3796
3630.08	0.38
3638.5	0.38
3646.92	0.38
3655.34	0.38
3663.76	0.379
3672.19	0.379
3680.61	0.379
3689.03	0.379
3697.45	0.379
3705.87	0.38
3714.29	0.38
3722.72	0.38
3731.14	0.379
3739.56	0.3786
3747.98	0.377
3756.4	0.376
3764.83	0.376
3773.25	0.374
3781.67	0.374
3790.09	0.371
3798.51	0.371
3806.93	0.371
3815.36	0.371
3823.78	0.371
3832.2	0.371
3840.62	0.37
3849.04	0.37
3857.46	0.37
3865.89	0.368
3874.31	0.368
3882.73	0.3674
3891.15	0.367
3899.57	0.3669
3907.99	0.365
3916.42	0.3644
3924.84	0.3623
3933.26	0.361
3941.68	0.359
3950.1	0.358
3958.53	0.356
3966.95	0.355
3975.37	0.3538
