Infrared Spectrum: N-FORMYLDIPHENYLAMINE
Formula: C13 H11 N O
CAS: 607-00-1
State: SOLUTION (5% IN CHCl3)
Class: COBLENTZ
Instrument: PERKIN-ELMER
Sampling: TRANSMISSION
Path length: 0.010 CM
Resolution: 4
Origin: ABBOTT LABORATORIES - WASHBURN
MICROMETERS	TRANSMITTANCE
2.019	0.987
2.05334	0.984
2.08768	0.9886
2.12202	0.9842
2.15636	0.9722
2.1907	0.972
2.22504	0.982
2.25938	0.97
2.29372	0.979
2.32806	0.9739
2.3624	0.979
2.39674	0.9722
2.43108	0.963
2.46542	0.974
2.49976	0.974
2.5341	0.963
2.56844	0.962
2.60278	0.9652
2.63712	0.969
2.67146	0.967
2.7058	0.9669
2.74014	0.975
2.77448	0.9534
2.80882	0.9276
2.84316	0.922
2.8775	0.922
2.91184	0.9309
2.94618	0.927
2.98052	0.9319
3.01486	0.9458
3.0492	0.946
3.08354	0.95
3.11788	0.953
3.15222	0.95
3.18656	0.9245
3.2209	0.8625
3.25524	0.8359
3.28958	0.802
3.32392	0.8819
3.35826	0.9219
3.3926	0.9221
3.42694	0.859
3.46128	0.89
3.49562	0.9352
3.52996	0.946
3.5643	0.9311
3.59864	0.9427
3.63298	0.953
3.66732	0.9559
3.70165	0.9514
3.73599	0.955
3.77033	0.953
3.80467	0.948
3.83901	0.9499
3.87335	0.9546
3.90769	0.9501
3.94203	0.946
3.97637	0.941
4.01071	0.9341
4.04505	0.929
4.07939	0.931
4.11373	0.9453
4.14807	0.965
4.18241	0.96
4.21675	0.9561
4.25109	0.95
4.28543	0.948
4.31977	0.9613
4.35411	0.9439
4.38845	0.939
4.42279	0.9411
4.45713	0.938
4.49147	0.9409
4.52581	0.9431
4.56015	0.9411
4.59449	0.948
4.62883	0.944
4.66317	0.939
4.69751	0.943
4.73185	0.9393
4.76619	0.938
4.80053	0.941
4.83487	0.939
4.86921	0.938
4.90355	0.934
4.93789	0.929
4.97223	0.929
5.00657	0.931
5.04091	0.9173
5.07525	0.908
5.10959	0.8916
5.14393	0.9147
5.17827	0.919
5.21261	0.9247
5.24695	0.9194
5.28129	0.9077
5.31563	0.9
5.34997	0.9126
5.38431	0.92
5.41865	0.9269
5.45299	0.9195
5.48733	0.9156
5.52167	0.9021
5.55601	0.901
5.59035	0.912
5.62469	0.919
5.65903	0.9024
5.69337	0.8836
5.72771	0.8614
5.76205	0.8386
5.79639	0.6601
5.83073	0.6125
5.86507	0.1741
5.89941	0.064
5.93375	0.0768
5.96809	0.3656
6.00243	0.6395
6.03677	0.7524
6.07111	0.8026
6.10545	0.8245
6.13979	0.8225
6.17413	0.7282
6.20847	0.4758
6.24281	0.2831
6.27715	0.6233
6.31149	0.764
6.34583	0.8531
6.38017	0.8784
6.41451	0.9015
6.44885	0.9039
6.48319	0.9069
6.51753	0.901
6.55187	0.905
6.58621	0.8683
6.62055	0.7211
6.65489	0.2952
6.68923	0.2229
6.72357	0.6551
6.75791	0.8126
6.79225	0.8715
6.82659	0.8441
6.86093	0.6901
6.89527	0.8256
6.92961	0.9
6.96395	0.9
6.99829	0.8989
7.03263	0.8788
7.06696	0.8213
7.1013	0.769
7.13564	0.7972
7.16998	0.8456
7.20432	0.8709
7.23866	0.877
7.273	0.86
7.30734	0.8283
7.34168	0.7524
7.37602	0.5683
7.41036	0.3113
7.4447	0.3206
7.47904	0.5275
7.51338	0.5247
7.54772	0.4726
7.58206	0.5838
7.6164	0.5485
7.65074	0.3978
7.68508	0.4528
7.71942	0.543
7.75376	0.479
7.7881	0.3776
7.82244	0.3037
7.85678	0.2663
7.89112	0.3036
7.92546	0.4758
7.9598	0.5995
7.99414	0.6676
8.02848	0.7094
8.06282	0.7044
8.09716	0.7152
8.1315	0.7287
8.16584	0.7472
8.20018	0.772
8.23452	0.7832
8.26886	0.7951
8.3032	0.8135
8.33754	0.8735
8.37188	0.8822
8.40622	0.884
8.44056	0.8674
8.4749	0.8384
8.50924	0.8331
8.54358	0.8517
8.57792	0.86
8.61226	0.8517
8.6466	0.845
8.68094	0.8454
8.71528	0.8236
8.74962	0.725
8.78396	0.5881
8.8183	0.6814
8.85264	0.7561
8.88698	0.772
8.92132	0.7763
8.95566	0.7865
8.99	0.7844
9.02434	0.7914
9.05868	0.8003
9.09302	0.8211
9.12736	0.8512
9.1617	0.853
9.19604	0.857
9.23038	0.8482
9.26472	0.784
9.29906	0.7658
9.3334	0.839
9.36774	0.8815
9.40208	0.9046
9.43642	0.927
9.47076	0.932
9.5051	0.9352
9.53944	0.943
9.57378	0.9435
9.60812	0.935
9.64246	0.9254
9.6768	0.8599
9.71114	0.8098
9.74548	0.8479
9.77982	0.8935
9.81416	0.8914
9.8485	0.8605
9.88284	0.8315
9.91718	0.862
9.95152	0.869
9.98586	0.8794
10.0202	0.8912
10.0545	0.9028
10.0889	0.908
10.1232	0.9127
10.1576	0.9105
10.1919	0.9128
10.2262	0.9174
10.2606	0.913
10.2949	0.915
10.3293	0.913
10.3636	0.907
10.3979	0.8987
10.4323	0.8583
10.4666	0.8355
10.501	0.8562
10.5353	0.886
10.5696	0.9109
10.604	0.9207
10.6383	0.9325
10.6727	0.9394
10.707	0.9502
10.7413	0.9603
10.7757	0.9513
10.81	0.9518
10.8444	0.9358
10.8787	0.9269
10.913	0.9222
10.9474	0.9104
10.9817	0.9013
11.0161	0.8779
11.0504	0.8803
11.0847	0.8975
11.1191	0.9078
11.1534	0.9193
11.1878	0.9196
11.2221	0.9281
11.2564	0.9315
11.2908	0.931
11.3251	0.932
11.3595	0.939
11.3938	0.9489
11.4281	0.95
11.4625	0.946
11.4968	0.943
11.5312	0.9376
11.5655	0.932
11.5998	0.932
11.6342	0.9342
11.6685	0.938
11.7029	0.9411
11.7372	0.9441
11.7715	0.948
11.8059	0.946
11.8402	0.9413
11.8746	0.938
11.9089	0.9344
11.9432	0.927
11.9776	0.922
12.0119	0.925
12.0463	0.929
12.0806	0.9351
12.1149	0.944
12.1493	0.9495
12.1836	0.953
12.2179	0.9592
12.2523	0.969
12.2866	0.9592
12.321	0.9607
12.3553	0.9704
12.3896	0.986
12.424	1.0033
12.4583	1.0153
12.4927	1.018
12.527	1.018
12.5613	1.018
12.5957	1.018
12.63	1.018
12.6644	1.018
12.6987	1.018
12.733	1.018
12.7674	1.018
12.8017	1.018
12.8361	1.018
12.8704	1.018
12.9047	1.018
12.9391	1.018
12.9734	1.018
13.0078	1.018
13.0421	1.018
13.0764	1.018
13.1108	1.018
13.1451	1.018
13.1795	1.018
13.2138	1.018
13.2481	1.018
13.2825	1.018
13.3168	1.018
13.3512	1.018
13.3855	1.018
13.4198	1.018
13.4542	1.018
13.4885	1.018
13.5229	1.018
13.5572	1.018
13.5915	1.018
13.6259	1.018
13.6602	1.018
13.6946	1.018
13.7289	1.018
13.7632	1.018
13.7976	1.018
13.8319	1.018
13.8663	1.018
13.9006	1.0174
13.9349	1.018
13.9693	1.015
14.0036	1.0142
14.038	0.994
14.0723	0.993
14.1066	0.9804
14.141	0.9316
14.1753	0.9
14.2097	0.8361
14.244	0.6947
14.2783	0.5226
14.3127	0.3018
14.347	0.2241
14.3814	0.1729
14.4157	0.1777
14.45	0.2594
14.4844	0.3966
14.5187	0.5848
14.5531	0.6861
14.5874	0.774
14.6217	0.8166
14.6561	0.8315
14.6904	0.8335
14.7248	0.8164
14.7591	0.7831
14.7934	0.7658
14.8278	0.7817
14.8621	0.8007
14.8965	0.8078
14.9308	0.819
14.9651	0.8331
14.9995	0.8392
15.0338	0.8408
15.0682	0.829
15.1025	0.8239
15.1368	0.8331
15.1712	0.8718
15.2055	0.8888
15.2399	0.9216
15.2742	0.9496
15.3085	0.9615
15.3429	0.967
15.3772	0.974
15.4116	0.9734
15.4459	0.9713
