Infrared Spectrum: FLUORENE, 2-NITRO-
Formula: C13 H9 N O2
CAS: 607-57-8
State: SOLUTION, LESS THAN 10% (CCl4 FOR 3800-1335, CS2 FOR 1335-450 CM^-^1)
Melting point: 158 C
Class: COBLENTZ III
Instrument: DOW KBr FOREPRISM-GRATING
Instrument parameters: BLAZED AT 3.5, 12.0, 20.0 MICRON AND CHANGED AT 5.0, 7.5, 14.9 MICRON
Sampling: TRANSMISSION
Path length: 0.011 CM, 0.012 CM
Resolution: 2
Origin: DOW CHEMICAL COMPANY
1/CM	TRANSMITTANCE
450	0.8589
459	0.8613
468	0.867
477	0.867
486	0.866
495	0.8691
504	0.8823
513	0.8946
522	0.8971
531	0.9028
540	0.9015
549	0.8978
558	0.9025
567	0.9015
576	0.9002
585	0.899
594	0.8975
603	0.8951
612	0.8914
621	0.8836
630	0.8667
639	0.843
648	0.8278
657	0.8346
666	0.844
675	0.8509
684	0.8396
693	0.8452
702	0.8535
711	0.8505
720	0.8249
729	0.819
738	0.4737
747	0.624
756	0.8387
765	0.8471
774	0.6511
783	0.849
792	0.8452
801	0.8095
810	0.8485
819	0.8518
828	0.8056
837	0.6064
846	0.7315
855	0.6812
864	0.7068
873	0.7401
882	0.6883
891	0.8246
900	0.8517
909	0.8281
918	0.8325
927	0.834
936	0.8641
945	0.8534
954	0.8259
963	0.8642
972	0.8675
981	0.8668
990	0.8646
999	0.8561
1008	0.8548
1017	0.8595
1026	0.8573
1035	0.8604
1044	0.8583
1053	0.8542
1062	0.8358
1071	0.7965
1080	0.8204
1089	0.8557
1098	0.8607
1107	0.8664
1116	0.865
1125	0.8586
1134	0.8739
1143	0.8644
1152	0.8353
1161	0.8641
1170	0.8501
1179	0.8441
1188	0.8237
1197	0.8203
1206	0.8527
1215	0.8607
1224	0.8651
1233	0.8601
1242	0.8547
1251	0.8487
1260	0.8441
1269	0.8473
1278	0.8188
1287	0.8192
1296	0.7776
1305	0.7497
1314	0.6831
1323	0.7168
1332	0.4523
1341	0.1587
1350	0.6451
1359	0.8281
1368	0.8441
1377	0.8433
1386	0.8597
1395	0.8373
1404	0.7465
1413	0.8528
1422	0.855
1431	0.8628
1440	0.856
1449	0.8164
1458	0.8294
1467	0.8078
1476	0.7798
1485	0.7731
1494	0.744
1503	0.7221
1512	0.6668
1521	0.5865
1530	0.1754
1539	0.4383
1548	0.3909
1557	0.4257
1566	0.5209
1575	0.5846
1584	0.6008
1593	0.6127
1602	0.6982
1611	0.764
1620	0.7848
1629	0.864
1638	0.8915
1647	0.9046
1656	0.8913
1665	0.8787
1674	0.879
1683	0.8788
1692	0.8782
1701	0.8775
1710	0.8774
1719	0.8698
1728	0.8409
1737	0.8578
1746	0.877
1755	0.8796
1764	0.8805
1773	0.8806
1782	0.8787
1791	0.8774
1800	0.8795
1809	0.8709
1818	0.8693
1827	0.8709
1836	0.8696
1845	0.8703
1854	0.8709
1863	0.8706
1872	0.873
1881	0.8749
1890	0.877
1899	0.8749
1908	0.8699
1917	0.8794
1926	0.8811
1935	0.881
1944	0.8805
1953	0.8757
1962	0.8955
1971	0.8777
1980	0.8771
1989	0.8747
1998	0.8898
2007	0.8836
2016	0.88
2025	0.8888
2034	0.8993
2043	0.8928
2052	0.8868
2061	0.8882
2070	0.8878
2079	0.8877
2088	0.8868
2097	0.887
2106	0.8902
2115	0.8911
2124	0.8908
2133	0.8903
2142	0.89
2151	0.89
2160	0.8899
2169	0.8895
2178	0.8891
2187	0.8887
2196	0.8885
2205	0.8882
2214	0.8875
2223	0.8863
2232	0.8825
2241	0.8784
2250	0.8746
2259	0.8704
2268	0.8662
2277	0.863
2286	0.8613
2295	0.8614
2304	0.8646
2313	0.8695
2322	0.8693
2331	0.8714
2340	0.8744
2349	0.8737
2358	0.8841
2367	0.885
2376	0.8778
2385	0.8782
2394	0.8789
2403	0.8789
2412	0.8795
2421	0.8802
2430	0.8818
2439	0.8818
2448	0.8809
2457	0.88
2466	0.8795
2475	0.879
2484	0.8786
2493	0.8781
2502	0.8777
2511	0.8771
2520	0.8771
2529	0.8771
2538	0.8775
2547	0.8784
2556	0.8775
2565	0.8739
2574	0.8751
2583	0.8757
2592	0.8761
2601	0.8765
2610	0.8767
2619	0.876
2628	0.8777
2637	0.8785
2646	0.8784
2655	0.8777
2664	0.8767
2673	0.8758
2682	0.8753
2691	0.8748
2700	0.8736
2709	0.872
2718	0.8708
2727	0.8694
2736	0.8677
2745	0.8661
2754	0.8646
2763	0.8631
2772	0.8621
2781	0.8631
2790	0.8656
2799	0.8692
2808	0.8692
2817	0.8665
2826	0.8615
2835	0.8528
2844	0.8433
2853	0.8512
2862	0.8563
2871	0.8585
2880	0.858
2889	0.8547
2898	0.8506
2907	0.8443
2916	0.8416
2925	0.8531
2934	0.8582
2943	0.8599
2952	0.8601
2961	0.86
2970	0.8651
2979	0.868
2988	0.8677
2997	0.8664
3006	0.8647
3015	0.8598
3024	0.8587
3033	0.8611
3042	0.8593
3051	0.8571
3060	0.8541
3069	0.8521
3078	0.8596
3087	0.8666
3096	0.8717
3105	0.875
3114	0.8781
3123	0.8801
3132	0.8809
3141	0.8812
3150	0.8814
3159	0.8815
3168	0.8817
3177	0.8821
3186	0.8825
3195	0.8828
3204	0.8835
3213	0.8845
3222	0.8855
3231	0.8864
3240	0.8874
3249	0.8883
3258	0.8891
3267	0.8904
3276	0.8918
3285	0.8932
3294	0.8944
3303	0.8951
3312	0.8948
3321	0.8943
3330	0.8935
3339	0.893
3348	0.8932
3357	0.8933
3366	0.8938
3375	0.8942
3384	0.8951
3393	0.8962
3402	0.8971
3411	0.8975
3420	0.8938
3429	0.893
3438	0.8918
3447	0.8902
3456	0.8886
3465	0.8881
3474	0.8875
3483	0.8867
3492	0.8855
3501	0.8841
3510	0.8825
3519	0.8816
3528	0.8812
3537	0.8809
3546	0.8809
3555	0.8816
3564	0.8818
3573	0.879
3582	0.8494
3591	0.881
3600	0.8808
3609	0.8811
3618	0.8817
3627	0.8825
3636	0.8837
3645	0.8856
3654	0.883
3663	0.8823
3672	0.8837
3681	0.8866
3690	0.8867
3699	0.8855
3708	0.8838
3717	0.8821
3726	0.8809
3735	0.8811
3744	0.8816
3753	0.8825
3762	0.8827
3771	0.8827
3780	0.8827
3789	0.8827
3798	0.8827
