Infrared Spectrum: N,N-DIMETHYL-p-1-NAPHTHYLAZOANILINE
Formula: C18 H17 N3
CAS: 607-59-0
State: SOLID (MINERAL OIL MULL)
Melting point: 192-194 C
Class: COBLENTZ
Instrument: Not specified, most likely a prism, grating, or hybrid spectrometer.
Sampling: TRANSMISSION
Resolution: 4
Origin: WYANDOTTE CHEMICALS CORP., WYANDOTTE, MICHIGAN, USA
MICROMETERS	TRANSMITTANCE
2.019	0.244
2.05623	0.246
2.09346	0.251
2.1307	0.254
2.16793	0.258
2.20516	0.263
2.24239	0.265
2.27962	0.266
2.31686	0.266
2.35409	0.277
2.39132	0.283
2.42855	0.285
2.46578	0.288
2.50302	0.293
2.54025	0.293
2.57748	0.293
2.61471	0.294
2.65194	0.307
2.68918	0.324
2.72641	0.329
2.76364	0.33
2.80087	0.329
2.8381	0.327
2.87534	0.324
2.91257	0.324
2.9498	0.327
2.98703	0.327
3.02426	0.326
3.0615	0.327
3.09873	0.327
3.13596	0.324
3.17319	0.318
3.21042	0.302
3.24766	0.302
3.28489	0.258
3.32212	0.232
3.35935	0.141
3.39658	0.045
3.43381	0.029
3.47105	0.035
3.50828	0.04
3.54551	0.138
3.58274	0.283
3.61997	0.358
3.65721	0.38
3.69444	0.382
3.73167	0.391
3.7689	0.394
3.80613	0.407
3.84337	0.418
3.8806	0.43
3.91783	0.443
3.95506	0.453
3.99229	0.463
4.02953	0.458
4.06676	0.458
4.10399	0.468
4.14122	0.474
4.17845	0.482
4.21569	0.489
4.25292	0.482
4.29015	0.474
4.32738	0.492
4.36461	0.513
4.40185	0.533
4.43908	0.527
4.47631	0.524
4.51354	0.53
4.55077	0.53
4.58801	0.531
4.62524	0.542
4.66247	0.553
4.6997	0.564
4.73693	0.569
4.77417	0.58
4.8114	0.585
4.84863	0.592
4.88586	0.588
4.92309	0.594
4.96033	0.605
4.99756	0.614
5.03479	0.613
5.07202	0.614
5.10925	0.62
5.14649	0.641
5.18372	0.628
5.22095	0.636
5.25818	0.639
5.29541	0.638
5.33265	0.653
5.36988	0.656
5.40711	0.677
5.44434	0.687
5.48157	0.687
5.51881	0.695
5.55604	0.689
5.59327	0.717
5.6305	0.73
5.66773	0.741
5.70497	0.751
5.7422	0.756
5.77943	0.784
5.81666	0.783
5.85389	0.778
5.89113	0.808
5.92836	0.829
5.96559	0.867
6.00282	0.923
6.04005	0.948
6.07728	0.967
6.11452	0.981
6.15175	0.829
6.18898	0.386
6.22621	0.159
6.26344	0.291
6.30068	0.4
6.33791	0.48
6.37514	0.502
6.41237	0.51
6.4496	0.538
6.48684	0.647
6.52407	0.614
6.5613	0.411
6.59853	0.351
6.63576	0.41
6.673	0.536
6.71023	0.564
6.74746	0.453
6.78469	0.294
6.82192	0.235
6.85916	0.312
6.89639	0.369
6.93362	0.402
6.97085	0.619
7.00808	0.794
7.04532	0.798
7.08255	0.736
7.11978	0.51
7.15701	0.461
7.19424	0.55
7.23148	0.358
7.26871	0.19
7.30594	0.137
7.34317	0.199
7.3804	0.332
7.41764	0.396
7.45487	0.344
7.4921	0.338
7.52933	0.399
7.56656	0.468
7.6038	0.514
7.64103	0.361
7.67826	0.391
7.71549	0.461
7.75272	0.508
7.78996	0.539
7.82719	0.575
7.86442	0.6
7.90165	0.644
7.93888	0.627
7.97612	0.452
8.01335	0.336
8.05058	0.365
8.08781	0.318
8.12504	0.427
8.16228	0.536
8.19951	0.57
8.23674	0.617
8.27397	0.638
8.3112	0.656
8.34844	0.677
8.38567	0.712
8.4229	0.858
8.46013	0.918
8.49736	0.726
8.5346	0.613
8.57183	0.594
8.60906	0.361
8.64629	0.293
8.68352	0.507
8.72075	0.357
8.75799	0.184
8.79522	0.202
8.83245	0.24
8.86968	0.287
8.90691	0.305
8.94415	0.351
8.98138	0.388
9.01861	0.402
9.05584	0.427
9.09307	0.449
9.13031	0.466
9.16754	0.5
9.20477	0.438
9.242	0.352
9.27923	0.391
9.31647	0.419
9.3537	0.385
9.39093	0.352
9.42816	0.436
9.46539	0.489
9.50263	0.521
9.53986	0.542
9.57709	0.566
9.61432	0.57
9.65155	0.514
9.68879	0.511
9.72602	0.549
9.76325	0.574
9.80048	0.561
9.83771	0.441
9.87495	0.466
9.91218	0.536
9.94941	0.589
9.98664	0.62
10.0239	0.62
10.0611	0.608
10.0983	0.633
10.1356	0.653
10.1728	0.656
10.21	0.653
10.2473	0.636
10.2845	0.653
10.3217	0.672
10.359	0.689
10.3962	0.702
10.4334	0.72
10.4707	0.726
10.5079	0.689
10.5451	0.658
10.5824	0.577
10.6196	0.486
10.6568	0.513
10.694	0.57
10.7313	0.605
10.7685	0.631
10.8057	0.652
10.843	0.664
10.8802	0.678
10.9174	0.691
10.9547	0.705
10.9919	0.702
11.0291	0.694
11.0664	0.712
11.1036	0.73
11.1408	0.739
11.1781	0.737
11.2153	0.742
11.2525	0.755
11.2898	0.762
11.327	0.772
11.3642	0.786
11.4015	0.778
11.4387	0.772
11.4759	0.742
11.5132	0.723
11.5504	0.706
11.5876	0.653
11.6248	0.68
11.6621	0.711
11.6993	0.733
11.7365	0.739
11.7738	0.748
11.811	0.756
11.8482	0.761
11.8855	0.762
11.9227	0.765
11.9599	0.762
11.9972	0.759
12.0344	0.745
12.0716	0.711
12.1089	0.658
12.1461	0.531
12.1833	0.326
12.2206	0.179
12.2578	0.296
12.295	0.533
12.3323	0.655
12.3695	0.664
12.4067	0.578
12.444	0.39
12.4812	0.273
12.5184	0.335
12.5556	0.477
12.5929	0.58
12.6301	0.728
12.6673	0.769
12.7046	0.753
12.7418	0.778
12.779	0.775
12.8163	0.719
12.8535	0.606
12.8907	0.397
12.928	0.185
12.9652	0.121
13.0024	0.229
13.0397	0.421
13.0769	0.552
13.1141	0.642
13.1514	0.711
13.1886	0.741
13.2258	0.776
13.2631	0.79
13.3003	0.806
13.3375	0.809
13.3748	0.811
13.412	0.82
13.4492	0.812
13.4864	0.8
13.5237	0.783
13.5609	0.819
13.5981	0.839
13.6354	0.825
13.6726	0.831
13.7098	0.837
13.7471	0.85
13.7843	0.834
13.8215	0.804
13.8588	0.803
13.896	0.825
13.9332	0.848
13.9705	0.864
14.0077	0.882
14.0449	0.9
14.0822	0.903
14.1194	0.901
14.1566	0.906
14.1939	0.909
14.2311	0.917
14.2683	0.921
14.3056	0.926
14.3428	0.928
14.38	0.929
14.4172	0.925
14.4545	0.925
14.4917	0.923
14.5289	0.915
14.5662	0.912
14.6034	0.901
14.6406	0.897
14.6779	0.897
14.7151	0.89
14.7523	0.879
14.7896	0.862
14.8268	0.856
14.864	0.848
14.9013	0.842
14.9385	0.839
14.9757	0.819
15.013	0.764
15.0502	0.722
15.0874	0.697
15.1247	0.722
15.1619	0.747
15.1991	0.765
15.2363	0.759
15.2736	0.75
15.3108	0.755
15.348	0.741
15.3853	0.726
15.4225	0.711
15.4597	0.697
15.497	0.684
15.5342	0.672
15.5714	0.663
15.6087	0.652
15.6459	0.627
15.6831	0.614
15.7204	0.599
15.7576	0.572
15.7948	0.561
15.8321	0.558
15.8693	0.541
15.9065	0.514
15.9438	0.491
15.981	0.468
