Infrared Spectrum: 2',6'-Dimethylformanilide
Formula: C 9 H 11 N O
CAS: 607-92-1
State: gas
Origin: EPA-IR VAPOR PHASE LIBRARY
1/CM	ABSORBANCE
549.8	0.00598
559.445	0.00532
569.09	0.00456
578.734	0.00346
588.379	0.00292
598.024	0.0026
607.669	0.00225
617.313	0.00189
626.958	0.00193
636.603	0.00224
646.248	0.00215
655.893	0.00177
665.537	0.0015
675.182	0.00175
684.827	0.00164
694.472	0.00221
704.116	0.00257
713.761	0.00238
723.406	0.00167
733.051	0.00162
742.695	0.00198
752.34	0.00502
761.985	0.00995
771.63	0.01063
781.275	0.00525
790.919	0.00225
800.564	0.00145
810.209	0.0010571
819.854	0.0009201
829.498	0.0006733
839.143	0.0011189
848.788	0.0010129
858.433	0.0007805
868.078	0.00128
877.722	0.00123
887.367	0.000902
897.012	0.0009785
906.657	0.0009748
916.301	0.00139
925.946	0.0013
935.591	0.00135
945.236	0.00144
954.88	0.0013
964.525	0.00156
974.17	0.00157
983.815	0.00163
993.46	0.00176
1003.1	0.00152
1012.75	0.00149
1022.39	0.00167
1032.04	0.0021
1041.68	0.00246
1051.33	0.00191
1060.97	0.00207
1070.62	0.00266
1080.26	0.00313
1089.91	0.00325
1099.55	0.00367
1109.2	0.00635
1118.84	0.00817
1128.49	0.00591
1138.13	0.00327
1147.78	0.00295
1157.42	0.00316
1167.07	0.00372
1176.71	0.00359
1186.36	0.00388
1196	0.00584
1205.64	0.01018
1215.29	0.01406
1224.93	0.01682
1234.58	0.01983
1244.22	0.01769
1253.87	0.01519
1263.51	0.0147
1273.16	0.00851
1282.8	0.00422
1292.45	0.0033
1302.09	0.00287
1311.74	0.0026
1321.38	0.00242
1331.03	0.00258
1340.67	0.0032
1350.32	0.00286
1359.96	0.00197
1369.61	0.00203
1379.25	0.00262
1388.9	0.00308
1398.54	0.00292
1408.18	0.00327
1417.83	0.00446
1427.47	0.0064
1437.12	0.00966
1446.76	0.01424
1456.41	0.0185
1466.05	0.02148
1475.7	0.02114
1485.34	0.01549
1494.99	0.00831
1504.63	0.0046
1514.28	0.00311
1523.92	0.00271
1533.57	0.0025
1543.21	0.00218
1552.86	0.0019
1562.5	0.00173
1572.15	0.00178
1581.79	0.00207
1591.44	0.00248
1601.08	0.00232
1610.73	0.00168
1620.37	0.00135
1630.01	0.00131
1639.66	0.00165
1649.3	0.00196
1658.95	0.00203
1668.59	0.00215
1678.24	0.003
1687.88	0.00455
1697.53	0.00657
1707.17	0.01156
1716.82	0.0374
1726.46	0.09726
1736.11	0.10713
1745.75	0.03642
1755.4	0.01228
1765.04	0.00672
1774.69	0.00485
1784.33	0.00325
1793.98	0.00212
1803.62	0.00177
1813.27	0.00166
1822.91	0.00152
1832.55	0.0013
1842.2	0.00126
1851.84	0.00122
1861.49	0.0009298
1871.13	0.0006387
1880.78	0.0006099
1890.42	0.0005703
1900.07	0.0006347
1909.71	0.0007067
1919.36	0.0008963
1929	0.0010498
1938.65	0.0007837
1948.29	0.0005357
1957.94	0.0004504
1967.58	0.0003731
1977.23	0.0003465
1986.87	0.0003815
1996.52	0.0005026
2006.16	0.0003623
2015.81	0.0003877
2025.45	0.0003164
2035.1	0.0003281
2044.74	0.0003021
2054.38	0.0003427
2064.03	0.000431
2073.67	0.0004062
2083.32	0.0003974
2092.96	0.0003718
2102.61	0.0003139
2112.25	0.000257
2121.9	0.00023571
2131.54	0.0002405
2141.19	0.0002616
2150.83	0.0003134
2160.48	0.0002597
2170.12	0.000146741
2179.77	0.00019696
2189.41	0.000338
2199.06	0.0002892
2208.7	0.00023205
2218.35	0.0002578
2227.99	0.0003143
2237.64	0.00020308
2247.28	0.00020444
2256.92	0.00017776
2266.57	0.0002565
2276.21	0.00023293
2285.86	0.000353
2295.5	0.0003361
2305.15	0.000305
2314.79	0.0002935
2324.44	0.000368
2334.08	0.0004115
2343.73	0.0003934
2353.37	0.0003432
2363.02	0.0002623
2372.66	0.0002994
2382.31	0.00023389
2391.95	0.000352
2401.6	0.0003211
2411.24	0.000318
2420.89	0.0004213
2430.53	0.0003334
2440.18	0.0003947
2449.82	0.0004104
2459.47	0.0004599
2469.11	0.0004183
2478.75	0.0003922
2488.4	0.0004363
2498.04	0.0002865
2507.69	0.0003787
2517.33	0.00021783
2526.98	0.0003115
2536.62	0.0003871
2546.27	0.0003378
2555.91	0.0003375
2565.56	0.0002892
2575.2	0.0003449
2584.85	0.0003768
2594.49	0.0003095
2604.14	0.00022546
2613.78	0.0003232
2623.43	0.0003242
2633.07	0.0002483
2642.72	0.0005389
2652.36	0.0005538
2662.01	0.0005004
2671.65	0.0004425
2681.29	0.0006118
2690.94	0.0004546
2700.58	0.0004621
2710.23	0.0005839
2719.87	0.0007925
2729.52	0.00157
2739.16	0.00291
2748.81	0.00332
2758.45	0.00233
2768.1	0.00156
2777.74	0.00131
2787.39	0.001099
2797.03	0.00131
2806.68	0.00192
2816.32	0.00288
2825.97	0.00482
2835.61	0.00872
2845.26	0.01258
2854.9	0.01118
2864.55	0.00713
2874.19	0.00526
2883.84	0.00418
2893.48	0.00357
2903.12	0.00358
2912.77	0.00413
2922.41	0.00586
2932.06	0.00805
2941.7	0.00755
2951.35	0.00615
2960.99	0.0055
2970.64	0.00539
2980.28	0.00542
2989.93	0.00469
2999.57	0.00344
3009.22	0.00299
3018.86	0.00367
3028.51	0.00451
3038.15	0.00525
3047.8	0.0059
3057.44	0.00625
3067.09	0.00621
3076.73	0.00503
3086.38	0.0031
3096.02	0.00181
3105.67	0.001075
3115.31	0.0008238
3124.95	0.0008707
3134.6	0.0006701
3144.24	0.0006948
3153.89	0.0003659
3163.53	0.0004582
3173.18	0.0004043
3182.82	0.0002897
3192.47	0.0003537
3202.11	0.00017572
3211.76	0.00022267
3221.4	0.00022426
3231.05	0.0003081
3240.69	0.000308
3250.34	0.0003716
3259.98	0.0003009
3269.63	0.0003098
3279.27	0.000308
3288.92	0.0002713
3298.56	0.0004669
3308.21	0.0004435
3317.85	0.0003198
3327.49	0.0003307
3337.14	0.0003441
3346.78	0.0004165
3356.43	0.0004623
3366.07	0.0002813
3375.72	0.0004504
3385.36	0.0006487
3395.01	0.00115
3404.65	0.00213
3414.3	0.00338
3423.94	0.00304
3433.59	0.00285
3443.23	0.00329
3452.88	0.0026
3462.52	0.00141
3472.17	0.0008317
3481.81	0.0004154
3491.46	0.0004754
3501.1	0.0003766
3510.75	0.0005324
3520.39	0.0003914
3530.04	0.0004104
3539.68	0.000432
3549.32	0.000462
3558.97	0.00015511
3568.61	0.0004162
3578.26	0.0002507
3587.9	0.0004089
3597.55	0.0002738
3607.19	0.0002682
3616.84	0.0003425
3626.48	0.0003497
3636.13	0.0003533
3645.77	0.00014617
3655.42	0.0003652
3665.06	0.0001199
3674.71	0.0005513
3684.35	0.0003971
3694	0.00021668
3703.64	0.0003374
3713.29	0.0003611
3722.93	0.00018104
3732.58	0.0002353
3742.22	0.000366
3751.86	0.00021699
3761.51	0.0003819
3771.15	0.0002471
3780.8	3.9e-05
3790.44	0.0003521
3800.09	0
3809.73	0.0004479
3819.38	0.0003524
3829.02	0.0003225
3838.67	0.0002662
3848.31	0.0004465
3857.96	0.0004387
3867.6	0.0003331
3877.25	0.0002472
3886.89	0.00016389
3896.54	0.0002673
3906.18	0.00021648
3915.83	0.0003394
3925.47	0.0002901
3935.12	0.0003409
3944.76	0.0006135
3954.41	0.0004906
3964.05	0.0003385
3973.69	0.0003269
3983.34	6.69e-05
3992.98	4.91e-05
