Infrared Spectrum: SALICYLIC ACID, n-PROPYL ESTER
Formula: C10 H12 O3
CAS: 607-90-9
State: SOLUTION (10% CCl4 FOR 3800-1330, 10% CS2 FOR 1330-400 CM^-^1)
Class: COBLENTZ III
Instrument: DOW KBr FOREPRISM-GRATING
Instrument parameters: BLAZED AT 3.5, 12.0, 20.0 MICRON AND CHANGED AT 5.0, 7.5, 14.9 MICRON
Sampling: TRANSMISSION
Path length: 0.011 CM, 0.011 CM
Resolution: 2
Origin: DOW CHEMICAL COMPANY
1/CM	TRANSMITTANCE
383	0.2942
392	0.3259
401	0.4375
410	0.6604
419	0.7588
428	0.7505
437	0.7771
446	0.8736
455	0.8517
464	0.8659
473	0.7222
482	0.8801
491	0.8937
500	0.8921
509	0.88
518	0.8375
527	0.4456
536	0.7504
545	0.7951
554	0.8686
563	0.7155
572	0.9021
581	0.9043
590	0.9025
599	0.8928
608	0.8702
617	0.8732
626	0.8821
635	0.8556
644	0.8058
653	0.7443
662	0.3666
671	0.6925
680	0.6622
689	0.4975
698	0.082
707	0.2553
716	0.1759
725	0.197
734	0.355
743	0.4744
752	0.1954
761	0.0425
770	0.5919
779	0.7608
788	0.7739
797	0.4406
806	0.655
815	0.7062
824	0.8043
833	0.7856
842	0.5881
851	0.5868
860	0.3974
869	0.6138
878	0.7325
887	0.6988
896	0.746
905	0.7404
914	0.6885
923	0.7696
932	0.5589
941	0.4722
950	0.6424
959	0.6515
968	0.6026
977	0.8062
986	0.8565
995	0.8635
1004	0.8618
1013	0.8447
1022	0.7961
1031	0.2651
1040	0.7332
1049	0.7114
1058	0.7342
1067	0.7583
1076	0.5759
1085	0.0446
1094	0.2051
1103	0.6689
1112	0.6548
1121	0.5612
1130	0.2938
1139	0.1943
1148	0.4517
1157	0.0031
1166	0.4064
1175	0.2522
1184	0.1581
1193	0.2793
1202	0.0916
1211	0.003
1220	0.1461
1229	0.1407
1238	0.2034
1247	0.0129
1256	0.2018
1265	0.4131
1274	0.403
1283	0.1317
1292	0.0576
1301	0.002
1310	0.0859
1319	0.2021
1328	0.1131
1337	0.1361
1346	0.2761
1355	0.2387
1364	0.4687
1373	0.495
1382	0.3238
1391	0.3245
1400	0.143
1409	0.1915
1418	0.2374
1427	0.3127
1436	0.4282
1445	0.475
1454	0.4279
1463	0.2401
1472	0.0868
1481	0.1571
1490	0.0395
1499	0.3948
1508	0.4273
1517	0.5239
1526	0.5378
1535	0.5045
1544	0.4359
1553	0.4182
1562	0.4415
1571	0.4521
1580	0.3216
1589	0.1425
1598	0.3924
1607	0.3078
1616	0.0518
1625	0.4074
1634	0.6365
1643	0.5472
1652	0.3829
1661	0.2001
1670	0.0133
1679	0.002
1688	0.0674
1697	0.2907
1706	0.5468
1715	0.6775
1724	0.6865
1733	0.7406
1742	0.8018
1751	0.8124
1760	0.8397
1769	0.849
1778	0.8583
1787	0.8704
1796	0.8709
1805	0.8498
1814	0.8268
1823	0.8763
1832	0.8691
1841	0.8704
1850	0.8771
1859	0.879
1868	0.8821
1877	0.8866
1886	0.8862
1895	0.8768
1904	0.88
1913	0.8837
1922	0.854
1931	0.8509
1940	0.8848
1949	0.8577
1958	0.877
1967	0.8924
1976	0.8897
1985	0.8847
1994	0.8602
2003	0.8789
2012	0.8809
2021	0.8812
2030	0.8805
2039	0.8793
2048	0.8778
2057	0.8745
2066	0.874
2075	0.8792
2084	0.8825
2093	0.8812
2102	0.8778
2111	0.8766
2120	0.8802
2129	0.8802
2138	0.8789
2147	0.8764
2156	0.8745
2165	0.875
2174	0.8767
2183	0.8764
2192	0.8751
2201	0.875
2210	0.8762
2219	0.8747
2228	0.8712
2237	0.8677
2246	0.8645
2255	0.8613
2264	0.858
2273	0.8546
2282	0.8517
2291	0.8495
2300	0.8503
2309	0.8515
2318	0.8523
2327	0.8525
2336	0.8531
2345	0.8534
2354	0.8535
2363	0.8535
2372	0.8538
2381	0.8544
2390	0.8551
2399	0.8571
2408	0.8588
2417	0.8556
2426	0.8521
2435	0.8521
2444	0.8521
2453	0.852
2462	0.8515
2471	0.8503
2480	0.8492
2489	0.8471
2498	0.845
2507	0.8471
2516	0.8498
2525	0.8471
2534	0.8418
2543	0.8358
2552	0.8339
2561	0.8362
2570	0.8371
2579	0.8347
2588	0.8318
2597	0.8286
2606	0.8249
2615	0.8213
2624	0.8188
2633	0.8195
2642	0.8216
2651	0.8236
2660	0.8257
2669	0.8274
2678	0.825
2687	0.8175
2696	0.8141
2705	0.8151
2714	0.8136
2723	0.8098
2732	0.8049
2741	0.7994
2750	0.7941
2759	0.7888
2768	0.7838
2777	0.7808
2786	0.7785
2795	0.7761
2804	0.7734
2813	0.7705
2822	0.7651
2831	0.7558
2840	0.7376
2849	0.6965
2858	0.6681
2867	0.6654
2876	0.5246
2885	0.4571
2894	0.5395
2903	0.5378
2912	0.5885
2921	0.5498
2930	0.4455
2939	0.3662
2948	0.3996
2957	0.3668
2966	0.2389
2975	0.1396
2984	0.2565
2993	0.3929
3002	0.4917
3011	0.6055
3020	0.6188
3029	0.6171
3038	0.6157
3047	0.5677
3056	0.5491
3065	0.5417
3074	0.5226
3083	0.5403
3092	0.5285
3101	0.5292
3110	0.5165
3119	0.4907
3128	0.4547
3137	0.4212
3146	0.3882
3155	0.342
3164	0.3277
3173	0.3295
3182	0.3094
3191	0.2914
3200	0.2895
3209	0.2966
3218	0.3125
3227	0.3362
3236	0.3952
3245	0.4685
3254	0.5117
3263	0.5328
3272	0.5535
3281	0.5702
3290	0.5976
3299	0.6227
3308	0.6457
3317	0.6678
3326	0.6893
3335	0.705
3344	0.7137
3353	0.7236
3362	0.7408
3371	0.7525
3380	0.7626
3389	0.7724
3398	0.7758
3407	0.775
3416	0.776
3425	0.7768
3434	0.7786
3443	0.7825
3452	0.7921
3461	0.8037
3470	0.814
3479	0.8228
3488	0.8288
3497	0.8327
3506	0.8359
3515	0.8388
3524	0.8416
3533	0.8443
3542	0.847
3551	0.8498
3560	0.8523
3569	0.853
3578	0.8489
3587	0.8556
3596	0.8639
3605	0.8656
3614	0.8668
3623	0.868
3632	0.869
3641	0.87
3650	0.8706
3659	0.8707
3668	0.8709
3677	0.8707
3686	0.8705
3695	0.8703
3704	0.8702
3713	0.8703
3722	0.8704
3731	0.8705
3740	0.8707
3749	0.871
3758	0.8716
3767	0.8721
3776	0.8728
3785	0.8728
3794	0.8725
