Infrared Spectrum: 2,3,5,6-Tetramethylbenzenesulphonyl chloride
Formula: C 10 H 13 Cl O 2 S
CAS: 60706-63-0
State: gas
Origin: EPA-IR VAPOR PHASE LIBRARY
1/CM	ABSORBANCE
549.9	0.0021194
559.547	0.0016575
569.193	0.00245
578.84	0.00313
588.486	0.00391
598.133	0.00297
607.779	0.00124863
617.426	0.0011026
627.072	0.000859
636.719	0.000824
646.365	0.00082
656.012	0.000757
665.658	0.0011377
675.305	0.0013094
684.951	0.0011349
694.598	0.0011595
704.245	0.001135
713.891	0.00121278
723.538	0.001079
733.184	0.000962
742.831	0.000979
752.477	0.000981
762.124	0.001077
771.77	0.001027
781.417	0.0011314
791.063	0.0017628
800.71	0.00243
810.356	0.0021623
820.003	0.00257
829.649	0.00251
839.296	0.002004
848.943	0.0020752
858.589	0.0029
868.236	0.00336
877.882	0.0021618
887.529	0.0014691
897.175	0.00123881
906.822	0.0013239
916.468	0.00125706
926.115	0.00123422
935.761	0.00126745
945.408	0.0013036
955.054	0.0014956
964.701	0.0019698
974.347	0.00277
983.994	0.00362
993.64	0.00424
1003.29	0.00422
1012.93	0.00359
1022.58	0.00279
1032.23	0.00233
1041.87	0.0020555
1051.52	0.0017806
1061.17	0.0016038
1070.81	0.0015408
1080.46	0.0015711
1090.11	0.0016348
1099.75	0.001824
1109.4	0.0019088
1119.05	0.0018956
1128.69	0.0016458
1138.34	0.0014193
1147.99	0.0016945
1157.63	0.00301
1167.28	0.00409
1176.92	0.00366
1186.57	0.00315
1196.22	0.00333
1205.86	0.00379
1215.51	0.00253
1225.16	0.0015934
1234.8	0.0014684
1244.45	0.0016783
1254.1	0.0018851
1263.74	0.0021857
1273.39	0.0021278
1283.04	0.0016618
1292.68	0.0017754
1302.33	0.00255
1311.98	0.00465
1321.62	0.00876
1331.27	0.01411
1340.92	0.01756
1350.56	0.01587
1360.21	0.01739
1369.86	0.01845
1379.5	0.02215
1389.15	0.01346
1398.79	0.00566
1408.44	0.00308
1418.09	0.00275
1427.73	0.00315
1437.38	0.00434
1447.03	0.00569
1456.67	0.00688
1466.32	0.00705
1475.97	0.00601
1485.61	0.00438
1495.26	0.00405
1504.91	0.00446
1514.55	0.00374
1524.2	0.00261
1533.85	0.00262
1543.49	0.00273
1553.14	0.00273
1562.79	0.00248
1572.43	0.0021367
1582.08	0.0018733
1591.73	0.0018355
1601.37	0.001978
1611.02	0.0017832
1620.67	0.00149
1630.31	0.0014379
1639.96	0.0013047
1649.6	0.0013323
1659.25	0.0013324
1668.9	0.00122835
1678.54	0.00122615
1688.19	0.00123006
1697.84	0.00128312
1707.48	0.0013253
1717.13	0.0015869
1726.78	0.0014991
1736.42	0.0014355
1746.07	0.001018
1755.72	0.000285
1765.36	8e-05
1775.01	0.000731
1784.66	0.000959
1794.3	0.001024
1803.95	0.000962
1813.6	0.001032
1823.24	0.0011365
1832.89	0.0011673
1842.54	0.00119094
1852.18	0.0011201
1861.83	0.00123693
1871.47	0.0011544
1881.12	0.00123204
1890.77	0.00128028
1900.41	0.00126926
1910.06	0.00123376
1919.71	0.00121346
1929.35	0.00126241
1939	0.00118145
1948.65	0.00119761
1958.29	0.0011545
1967.94	0.00120371
1977.59	0.0011466
1987.23	0.0011629
1996.88	0.00118345
2006.53	0.0012074
2016.17	0.00119624
2025.82	0.00123164
2035.47	0.00118786
2045.11	0.00126008
2054.76	0.00125201
2064.41	0.00121864
2074.05	0.00121091
2083.7	0.00124287
2093.35	0.00118018
2102.99	0.0011649
2112.64	0.00121792
2122.28	0.00123122
2131.93	0.0011774
2141.58	0.00119623
2151.22	0.0011491
2160.87	0.0011579
2170.52	0.0011515
2180.16	0.00120016
2189.81	0.00119685
2199.46	0.00120709
2209.1	0.00120204
2218.75	0.00122698
2228.4	0.00125166
2238.04	0.00122665
2247.69	0.0011998
2257.34	0.00124424
2266.98	0.00125762
2276.63	0.00123692
2286.28	0.0012686
2295.92	0.0012514
2305.57	0.0013679
2315.22	0.0014757
2324.86	0.0014339
2334.51	0.0014369
2344.16	0.0014153
2353.8	0.0014559
2363.45	0.001499
2373.09	0.0014307
2382.74	0.0013368
2392.39	0.00126076
2402.03	0.00127614
2411.68	0.0013182
2421.33	0.00124938
2430.97	0.0012902
2440.62	0.0013721
2450.27	0.0013997
2459.91	0.001441
2469.56	0.0015099
2479.21	0.001581
2488.85	0.00161
2498.5	0.0015159
2508.15	0.0015661
2517.79	0.0015899
2527.44	0.0013218
2537.09	0.00121557
2546.73	0.00126339
2556.38	0.00121018
2566.03	0.00120721
2575.67	0.00121836
2585.32	0.00121637
2594.96	0.0011666
2604.61	0.00124734
2614.26	0.00121372
2623.9	0.0012214
2633.55	0.00128649
2643.2	0.00122702
2652.84	0.00126477
2662.49	0.0013348
2672.14	0.0012208
2681.78	0.00120148
2691.43	0.00128289
2701.08	0.0013304
2710.72	0.0013354
2720.37	0.0014765
2730.02	0.0016034
2739.66	0.0016661
2749.31	0.0016823
2758.96	0.0016788
2768.6	0.0016713
2778.25	0.0017026
2787.9	0.0016422
2797.54	0.0017036
2807.19	0.001707
2816.84	0.0018988
2826.48	0.0021109
2836.13	0.00251
2845.77	0.00299
2855.42	0.00399
2865.07	0.00598
2874.71	0.00784
2884.36	0.00803
2894.01	0.007
2903.65	0.00679
2913.3	0.00792
2922.95	0.01177
2932.59	0.01542
2942.24	0.01449
2951.89	0.01104
2961.53	0.0092
2971.18	0.00848
2980.83	0.00799
2990.47	0.0068
3000.12	0.00745
3009.77	0.00833
3019.41	0.00699
3029.06	0.00474
3038.71	0.00386
3048.35	0.00361
3058	0.00329
3067.64	0.00297
3077.29	0.00243
3086.94	0.0021882
3096.58	0.0018109
3106.23	0.001615
3115.88	0.0014492
3125.52	0.0013688
3135.17	0.00124815
3144.82	0.001012
3154.46	0.000961
3164.11	0.000998
3173.76	0.000854
3183.4	0.000802
3193.05	0.000728
3202.7	0.000857
3212.34	0.000764
3221.99	0.000816
3231.64	0.000739
3241.28	0.000694
3250.93	0.000627
3260.58	0.000606
3270.22	0.000624
3279.87	0.000668
3289.52	0.000844
3299.16	0.000551
3308.81	0.000705
3318.45	0.000648
3328.1	0.000633
3337.75	0.000533
3347.39	0.000578
3357.04	0.000455
3366.69	0.000536
3376.33	0.000473
3385.98	0.00062
3395.63	0.000649
3405.27	0.000582
3414.92	0.000612
3424.57	0.000522
3434.21	0.000539
3443.86	0.000536
3453.51	0.000644
3463.15	0.000455
3472.8	0.000592
3482.45	0.000601
3492.09	0.000647
3501.74	0.00049
3511.39	0.000592
3521.03	0.000532
3530.68	0.00066
3540.33	0.000542
3549.97	0.000226
3559.62	0.000336
3569.26	0.000501
3578.91	0.000604
3588.56	0.000706
3598.2	0.000599
3607.85	0.00066
3617.5	0.000535
3627.14	0.000695
3636.79	0.000707
3646.44	0.000744
3656.08	0.00069
3665.73	0.00055
3675.38	0.000796
3685.02	0.00071
3694.67	0.000667
3704.32	0.000945
3713.96	0.000725
3723.61	0.000659
3733.26	0.000846
3742.9	0.000861
3752.55	0.000681
3762.2	0.000769
3771.84	0.000693
3781.49	0.000789
3791.13	0.000843
3800.78	0.000781
3810.43	0.000791
3820.07	0.000914
3829.72	0.000867
3839.37	0.00089
3849.01	0.000919
3858.66	0.000827
3868.31	0.000931
3877.95	0.000922
3887.6	0.000975
3897.25	0.000947
3906.89	0.000803
3916.54	0.000874
3926.19	0.000941
3935.83	0.000887
3945.48	0.000901
3955.13	0.000803
3964.77	0.000859
3974.42	0.000957
3984.07	0.000919
3993.71	0.000888
