Infrared Spectrum: 2-Chloro-4-fluorobenzonitrile
Formula: C 7 H 3 Cl F N
CAS: 60702-69-4
State: gas
Origin: EPA-IR VAPOR PHASE LIBRARY
1/CM	ABSORBANCE
549.8	0.0012888
559.445	0.0012036
569.09	0.00203
578.734	0.00673
588.379	0.01027
598.024	0.00977
607.669	0.00598
617.313	0.0023
626.958	0.0009089
636.603	0.0011006
646.248	0.0011865
655.893	0.00174
665.537	0.00546
675.182	0.01766
684.827	0.02208
694.472	0.0243
704.116	0.02872
713.761	0.01299
723.406	0.00415
733.051	0.00191
742.695	0.0013993
752.34	0.0006715
761.985	0.0010569
771.63	0.0010575
781.275	0.00177
790.919	0.00344
800.564	0.01122
810.209	0.02851
819.854	0.05917
829.498	0.02728
839.143	0.01077
848.788	0.01628
858.433	0.04168
868.078	0.0757
877.722	0.03296
887.367	0.0128
897.012	0.01762
906.657	0.07005
916.301	0.1058
925.946	0.05116
935.591	0.00662
945.236	0.00449
954.88	0.00212
964.525	0.002
974.17	0.00248
983.815	0.00184
993.46	0.00147
1003.1	0.00191
1012.75	0.00397
1022.39	0.00618
1032.04	0.01161
1041.68	0.03489
1051.33	0.04337
1060.97	0.01827
1070.62	0.00529
1080.26	0.00579
1089.91	0.00507
1099.55	0.00199
1109.2	0.00198
1118.84	0.00626
1128.49	0.00684
1138.13	0.00407
1147.78	0.00362
1157.42	0.00435
1167.07	0.01108
1176.71	0.0164
1186.36	0.01251
1196	0.01124
1205.64	0.01458
1215.29	0.0175
1224.93	0.05628
1234.58	0.07986
1244.22	0.05119
1253.87	0.03762
1263.51	0.06165
1273.16	0.08286
1282.8	0.04548
1292.45	0.01199
1302.09	0.00822
1311.74	0.00572
1321.38	0.0027
1331.03	0.00233
1340.67	0.00261
1350.32	0.00539
1359.96	0.00765
1369.61	0.00848
1379.25	0.01183
1388.9	0.02333
1398.54	0.02429
1408.18	0.01346
1417.83	0.00445
1427.47	0.00425
1437.12	0.00572
1446.76	0.01485
1456.41	0.03078
1466.05	0.03112
1475.7	0.0649
1485.34	0.19682
1494.99	0.17886
1504.63	0.03655
1514.28	0.01085
1523.92	0.00846
1533.57	0.01145
1543.21	0.01076
1552.86	0.01241
1562.5	0.03121
1572.15	0.05962
1581.79	0.0843
1591.44	0.14442
1601.08	0.18708
1610.73	0.09622
1620.37	0.02292
1630.01	0.0126
1639.66	0.01065
1649.3	0.00811
1658.95	0.00514
1668.59	0.00483
1678.24	0.00493
1687.88	0.00363
1697.53	0.00288
1707.17	0.00218
1716.82	0.00334
1726.46	0.00564
1736.11	0.00511
1745.75	0.00301
1755.4	0.00314
1765.04	0.00307
1774.69	0.00178
1784.33	0.00145
1793.98	0.00154
1803.62	0.00161
1813.27	0.00154
1822.91	0.00162
1832.55	0.0013877
1842.2	0.0012604
1851.84	0.0014092
1861.49	0.001347
1871.13	0.00187
1880.78	0.00366
1890.42	0.00501
1900.07	0.00407
1909.71	0.00217
1919.36	0.00152
1929	0.0013169
1938.65	0.00145
1948.29	0.00176
1957.94	0.00198
1967.58	0.00187
1977.23	0.0014088
1986.87	0.001065
1996.52	0.0010069
2006.16	0.0010509
2015.81	0.0009444
2025.45	0.0010202
2035.1	0.0011094
2044.74	0.0011337
2054.38	0.0011393
2064.03	0.0009453
2073.67	0.0011086
2083.32	0.0012922
2092.96	0.0015
2102.61	0.0016
2112.25	0.0013701
2121.9	0.0012922
2131.54	0.0012458
2141.19	0.00186
2150.83	0.00192
2160.48	0.00145
2170.12	0.00162
2179.77	0.00197
2189.41	0.00202
2199.06	0.0014161
2208.7	0.0012499
2218.35	0.00208
2227.99	0.005
2237.64	0.00806
2247.28	0.00625
2256.92	0.00186
2266.57	0.00148
2276.21	0.00172
2285.86	0.00177
2295.5	0.00161
2305.15	0.0012249
2314.79	0.0013774
2324.44	0.0011993
2334.08	0.0010832
2343.73	0.0013177
2353.37	0.0011504
2363.02	0.0013623
2372.66	0.0013434
2382.31	0.0012275
2391.95	0.00146
2401.6	0.00181
2411.24	0.00153
2420.89	0.0010317
2430.53	0.0009615
2440.18	0.0011826
2449.82	0.0014069
2459.47	0.00183
2469.11	0.00188
2478.75	0.00195
2488.4	0.00198
2498.04	0.00241
2507.69	0.00311
2517.33	0.00265
2526.98	0.00289
2536.62	0.0031
2546.27	0.00297
2555.91	0.0018
2565.56	0.00149
2575.2	0.001071
2584.85	0.0008622
2594.49	0.0007691
2604.14	0.0009235
2613.78	0.0011736
2623.43	0.0010956
2633.07	0.0013949
2642.72	0.00171
2652.36	0.00168
2662.01	0.00145
2671.65	0.00149
2681.29	0.0012961
2690.94	0.0012128
2700.58	0.0011302
2710.23	0.0011289
2719.87	0.0014106
2729.52	0.0012615
2739.16	0.0012275
2748.81	0.0013614
2758.45	0.0012222
2768.1	0.0011452
2777.74	0.000947
2787.39	0.0008824
2797.03	0.0010561
2806.68	0.0010716
2816.32	0.0010835
2825.97	0.0013875
2835.61	0.0016
2845.26	0.00144
2854.9	0.000875
2864.55	0.0008952
2874.19	0.0007669
2883.84	0.0009638
2893.48	0.0007405
2903.12	0.0006456
2912.77	0.000553
2922.41	0.0008751
2932.06	0.0009859
2941.7	0.0007861
2951.35	0.0007588
2960.99	0.0008623
2970.64	0.000646
2980.28	0.00050527
2989.93	0.0007424
2999.57	0.00051309
3009.22	0.0006749
3018.86	0.0008712
3028.51	0.0005686
3038.15	0.0006931
3047.8	0.0005609
3057.44	0.0010666
3067.09	0.0011875
3076.73	0.00262
3086.38	0.00367
3096.02	0.00344
3105.67	0.00211
3115.31	0.001252
3124.95	0.0011333
3134.6	0.0010601
3144.24	0.0010143
3153.89	0.0007624
3163.53	0.0011586
3173.18	0.0009128
3182.82	0.0008721
3192.47	0.0010375
3202.11	0.0007771
3211.76	0.0008249
3221.4	0.0004669
3231.05	0.0007207
3240.69	0.000774
3250.34	0.0008732
3259.98	0.00046487
3269.63	0.00049853
3279.27	0.00076
3288.92	0.000711
3298.56	0.0006417
3308.21	0.0007284
3317.85	0.0007198
3327.49	0.00049126
3337.14	0.0007206
3346.78	0.0004869
3356.43	0.00034
3366.07	0.0006053
3375.72	0.0009717
3385.36	0.0009842
3395.01	0.0005886
3404.65	0.0008812
3414.3	0.0009586
3423.94	0.0005767
3433.59	0.0006888
3443.23	0.0009951
3452.88	0.0008126
3462.52	0.0010947
3472.17	0.0012376
3481.81	0.0006396
3491.46	0.0007601
3501.1	0.0003853
3510.75	0.0004041
3520.39	0.0008182
3530.04	0.0008283
3539.68	0.0004162
3549.32	0.0006417
3558.97	0.0008122
3568.61	0.0007328
3578.26	0.0007075
3587.9	0.0007086
3597.55	0.00045115
3607.19	0.00052784
3616.84	0.00063
3626.48	0.000682
3636.13	0.0010069
3645.77	0.0005581
3655.42	0.001109
3665.06	0.0004009
3674.71	0.0003896
3684.35	0.0006689
3694	0.0007211
3703.64	0.0008217
3713.29	0.0009894
3722.93	0.0013331
3732.58	0.0008589
3742.22	0.0008343
3751.86	0.0007735
3761.51	0.0011014
3771.15	0.000804
3780.8	0.000854
3790.44	0.000832
3800.09	0.0010612
3809.73	0.00144
3819.38	0.0008842
3829.02	0.0011474
3838.67	0.0007279
3848.31	0.0012591
3857.96	0.0007091
3867.6	0.0006423
3877.25	0.0007627
3886.89	0.0008118
3896.54	0.0006671
3906.18	0.001021
3915.83	0.00050847
3925.47	0.0010598
3935.12	0.0003635
3944.76	0.0007257
3954.41	0.0006706
3964.05	0.0007071
3973.69	0.0007019
3983.34	0.00049847
3992.98	0.0009787
