Infrared Spectrum: 4-Methoxy-3-methylbenzyl chloride
Formula: C 9 H 11 Cl O
CAS: 60736-71-2
State: gas
Origin: EPA-IR VAPOR PHASE LIBRARY
1/CM	ABSORBANCE
549.8	0.002013
559.445	0.002183
569.09	0.003063
578.734	0.006073
588.379	0.011023
598.024	0.007933
607.669	0.003443
617.313	0.002373
626.958	0.001703
636.603	0.001973
646.248	0.001993
655.893	0.002783
665.537	0.004563
675.182	0.011503
684.827	0.023523
694.472	0.023993
704.116	0.013953
713.761	0.011163
723.406	0.018883
733.051	0.028283
742.695	0.023983
752.34	0.014713
761.985	0.008803
771.63	0.006263
781.275	0.005483
790.919	0.006903
800.564	0.012183
810.209	0.015313
819.854	0.010493
829.498	0.005113
839.143	0.002703
848.788	0.002023
858.433	0.001923
868.078	0.002883
877.722	0.004233
887.367	0.004603
897.012	0.004073
906.657	0.003113
916.301	0.002603
925.946	0.002863
935.591	0.004143
945.236	0.005013
954.88	0.003313
964.525	0.002713
974.17	0.003083
983.815	0.004413
993.46	0.006343
1003.1	0.008003
1012.75	0.011553
1022.39	0.020653
1032.04	0.031363
1041.68	0.028703
1051.33	0.015953
1060.97	0.007173
1070.62	0.005153
1080.26	0.004523
1089.91	0.004523
1099.55	0.005603
1109.2	0.010453
1118.84	0.026913
1128.49	0.056143
1138.13	0.052163
1147.78	0.025823
1157.42	0.014173
1167.07	0.009063
1176.71	0.010693
1186.36	0.011453
1196	0.010543
1205.64	0.014983
1215.29	0.030423
1224.93	0.046143
1234.58	0.044633
1244.22	0.079273
1253.87	0.155533
1263.51	0.133183
1273.16	0.057113
1282.8	0.032293
1292.45	0.024333
1302.09	0.022903
1311.74	0.022743
1321.38	0.014033
1331.03	0.007683
1340.67	0.005003
1350.32	0.003773
1359.96	0.003363
1369.61	0.003653
1379.25	0.004623
1388.9	0.004873
1398.54	0.004943
1408.18	0.006493
1417.83	0.008293
1427.47	0.009193
1437.12	0.013713
1446.76	0.020603
1456.41	0.020783
1466.05	0.026063
1475.7	0.026983
1485.34	0.031563
1494.99	0.063443
1504.63	0.096863
1514.28	0.059803
1523.92	0.020263
1533.57	0.010673
1543.21	0.007153
1552.86	0.005383
1562.5	0.004653
1572.15	0.004743
1581.79	0.005953
1591.44	0.008453
1601.08	0.014823
1610.73	0.022183
1620.37	0.015383
1630.01	0.006173
1639.66	0.003403
1649.3	0.002333
1658.95	0.001923
1668.59	0.001473
1678.24	0.001333
1687.88	0.001183
1697.53	0.001263
1707.17	0.001253
1716.82	0.001513
1726.46	0.001813
1736.11	0.001943
1745.75	0.001873
1755.4	0.001883
1765.04	0.001963
1774.69	0.001763
1784.33	0.001473
1793.98	0.001203
1803.62	0.0009824
1813.27	0.0010283
1822.91	0.0009646
1832.55	0.00115
1842.2	0.001563
1851.84	0.001733
1861.49	0.001653
1871.13	0.001483
1880.78	0.001148
1890.42	0.0009441
1900.07	0.0007043
1909.71	0.0006809
1919.36	0.0006805
1929	0.0007594
1938.65	0.0007957
1948.29	0.0009951
1957.94	0.0010977
1967.58	0.001253
1977.23	0.001363
1986.87	0.001673
1996.52	0.002193
2006.16	0.002603
2015.81	0.002213
2025.45	0.001813
2035.1	0.001783
2044.74	0.001783
2054.38	0.001823
2064.03	0.001923
2073.67	0.001883
2083.32	0.001393
2092.96	0.0009013
2102.61	0.000733
2112.25	0.0004807
2121.9	0.0005464
2131.54	0.0006515
2141.19	0.0005469
2150.83	0.0006677
2160.48	0.0007396
2170.12	0.0008649
2179.77	0.0008033
2189.41	0.0009067
2199.06	0.0010231
2208.7	0.0009303
2218.35	0.0007513
2227.99	0.0008121
2237.64	0.0009967
2247.28	0.001213
2256.92	0.001263
2266.57	0.000931
2276.21	0.0008209
2285.86	0.0006824
2295.5	0.0007131
2305.15	0.000756
2314.79	0.0007414
2324.44	0.0007286
2334.08	0.0007324
2343.73	0.0006645
2353.37	0.0007347
2363.02	0.0008066
2372.66	0.0007942
2382.31	0.0007268
2391.95	0.0007983
2401.6	0.0006474
2411.24	0.0007284
2420.89	0.0008424
2430.53	0.0008294
2440.18	0.0007813
2449.82	0.0007224
2459.47	0.0007177
2469.11	0.0008235
2478.75	0.0010069
2488.4	0.0010411
2498.04	0.001253
2507.69	0.001493
2517.33	0.001473
2526.98	0.001343
2536.62	0.001243
2546.27	0.001393
2555.91	0.001303
2565.56	0.001173
2575.2	0.0010523
2584.85	0.0009387
2594.49	0.0009987
2604.14	0.0009892
2613.78	0.0009821
2623.43	0.000801
2633.07	0.0008232
2642.72	0.0008703
2652.36	0.0007158
2662.01	0.0006551
2671.65	0.0008114
2681.29	0.0007197
2690.94	0.0008614
2700.58	0.0010985
2710.23	0.001263
2719.87	0.001173
2729.52	0.001283
2739.16	0.001603
2748.81	0.001563
2758.45	0.001283
2768.1	0.001233
2777.74	0.001313
2787.39	0.001873
2797.03	0.002453
2806.68	0.003203
2816.32	0.004623
2825.97	0.007093
2835.61	0.013683
2845.26	0.019093
2854.9	0.015473
2864.55	0.012593
2874.19	0.012203
2883.84	0.011963
2893.48	0.012733
2903.12	0.015843
2912.77	0.021043
2922.41	0.025343
2932.06	0.030963
2941.7	0.038063
2951.35	0.040123
2960.99	0.038123
2970.64	0.030543
2980.28	0.022893
2989.93	0.020523
2999.57	0.026923
3009.22	0.029783
3018.86	0.021593
3028.51	0.016883
3038.15	0.012433
3047.8	0.011023
3057.44	0.009253
3067.09	0.007703
3076.73	0.006993
3086.38	0.005763
3096.02	0.004663
3105.67	0.003753
3115.31	0.003163
3124.95	0.002643
3134.6	0.002213
3144.24	0.001173
3153.89	0.001223
3163.53	0.0010865
3173.18	0.0009321
3182.82	0.0008724
3192.47	0.0007844
3202.11	0.000803
3211.76	0.0007524
3221.4	0.0006259
3231.05	0.0004847
3240.69	0.0002854
3250.34	0.0005812
3259.98	0.00020049
3269.63	0.0005
3279.27	0.0003892
3288.92	0.0002769
3298.56	0.0003968
3308.21	0.0002578
3317.85	0.0003027
3327.49	0.00020696
3337.14	0.00014655
3346.78	0.0002684
3356.43	0.0002659
3366.07	0.0002682
3375.72	0.00022309
3385.36	0.0002875
3395.01	0.00018929
3404.65	0.0005309
3414.3	0.00019852
3423.94	0.0004377
3433.59	0.0002636
3443.23	0.00020722
3452.88	0.0003197
3462.52	0.0002952
3472.17	0.000159164
3481.81	0.0003419
3491.46	0.0002874
3501.1	0.0002945
3510.75	0.00018127
3520.39	0.0003074
3530.04	0.00017954
3539.68	0.000137
3549.32	0.0003337
3558.97	8.9e-05
3568.61	0.0001754
3578.26	0.00019521
3587.9	0.0003185
3597.55	0.0002654
3607.19	0.0002787
3616.84	0.00019877
3626.48	5.31e-05
3636.13	0.00016687
3645.77	0.00024595
3655.42	0.000153124
3665.06	0.000254
3674.71	0.00020875
3684.35	0.0003207
3694	0.00014753
3703.64	0.0001043
3713.29	0.0003936
3722.93	0.00022831
3732.58	0.0003718
3742.22	8.92e-05
3751.86	0.0004132
3761.51	0.0001081
3771.15	0.0002706
3780.8	0.000158874
3790.44	0.0005086
3800.09	0.000376
3809.73	0.00022773
3819.38	0.0004089
3829.02	0.0004039
3838.67	0.0004372
3848.31	0.0003103
3857.96	0.0005052
3867.6	0.0004172
3877.25	0.000463
3886.89	0.0005213
3896.54	0.0005021
3906.18	0.0002649
3915.83	0.0003611
3925.47	0.0005679
3935.12	0.0004543
3944.76	0.0004267
3954.41	0.0003508
3964.05	0.0006472
3973.69	0.0006099
3983.34	0.000283
3992.98	0.0006839
