Infrared Spectrum: 2-METHYL-6-t-BUTYLANISOLE
Formula: C12 H18 O
CAS: 60772-80-7
State: LIQUID (NEAT)
Class: COBLENTZ III
Instrument: PERKIN-ELMER 21 (GRATING)
Instrument parameters: FILTER AT ABOUT 10 MICRONS
Path length: CAPILLARY
Resolution: 2
Origin: ABBOTT LABORATORIES
1/CM	TRANSMITTANCE
647	0.657
656	0.6701
665	0.6981
674	0.7183
683	0.7377
692	0.7521
701	0.7653
710	0.7754
719	0.7844
728	0.7834
737	0.7697
746	0.7017
755	0.3513
764	0.4592
773	0.425
782	0.5563
791	0.7074
800	0.8039
809	0.8062
818	0.7451
827	0.7691
836	0.8342
845	0.8528
854	0.8551
863	0.8552
872	0.8511
881	0.8318
890	0.7613
899	0.6684
908	0.8363
917	0.8251
926	0.7716
935	0.8414
944	0.8401
953	0.8302
962	0.8262
971	0.8222
980	0.7953
989	0.7051
998	0.5057
1007	0.1529
1016	0.277
1025	0.6657
1034	0.7771
1043	0.8088
1052	0.8089
1061	0.805
1070	0.8282
1079	0.7239
1088	0.5523
1097	0.3737
1106	0.7544
1115	0.7947
1124	0.7778
1133	0.6447
1142	0.6937
1151	0.6985
1160	0.5026
1169	0.5757
1178	0.6257
1187	0.5882
1196	0.5096
1205	0.5562
1214	0.2979
1223	0.0877
1232	0.4989
1241	0.697
1250	0.5022
1259	0.4244
1268	0.4774
1277	0.7334
1286	0.8124
1295	0.8274
1304	0.8261
1313	0.8275
1322	0.8296
1331	0.8205
1340	0.7787
1349	0.6401
1358	0.5752
1367	0.7008
1376	0.7211
1385	0.5693
1394	0.6386
1403	0.3359
1412	0.363
1421	0.5973
1430	0.5403
1439	0.4044
1448	0.2753
1457	0.2656
1466	0.2974
1475	0.334
1484	0.482
1493	0.7426
1502	0.7807
1511	0.8097
1520	0.8165
1529	0.8236
1538	0.8297
1547	0.8335
1556	0.8469
1565	0.8381
1574	0.8284
1583	0.787
1592	0.8025
1601	0.8456
1610	0.8547
1619	0.8573
1628	0.8552
1637	0.8521
1646	0.85
1655	0.8465
1664	0.8469
1673	0.8517
1682	0.858
1691	0.868
1700	0.875
1709	0.8732
1718	0.8739
1727	0.8761
1736	0.8762
1745	0.8767
1754	0.8774
1763	0.8757
1772	0.8678
1781	0.8657
1790	0.8675
1799	0.8751
1808	0.8781
1817	0.8764
1826	0.8725
1835	0.8655
1844	0.8531
1853	0.8463
1862	0.8606
1871	0.8768
1880	0.8777
1889	0.8774
1898	0.8749
1907	0.8651
1916	0.8591
1925	0.8661
1934	0.8744
1943	0.881
1952	0.8819
1961	0.88
1970	0.8765
1979	0.8711
1988	0.8646
1997	0.8556
2006	0.8523
2015	0.8574
2024	0.8674
2033	0.8741
2042	0.8778
2051	0.8805
2060	0.8842
2069	0.8896
2078	0.8909
2087	0.8913
2096	0.8913
2105	0.8909
2114	0.8904
2123	0.89
2132	0.8897
2141	0.8894
2150	0.8892
2159	0.8889
2168	0.8887
2177	0.8891
2186	0.8894
2195	0.8897
2204	0.89
2213	0.8903
2222	0.8906
2231	0.891
2240	0.8917
2249	0.8925
2258	0.8932
2267	0.8939
2276	0.8945
2285	0.895
2294	0.8978
2303	0.905
2312	0.9155
2321	0.9204
2330	0.9192
2339	0.917
2348	0.9129
2357	0.9076
2366	0.9005
2375	0.8964
2384	0.896
2393	0.8963
2402	0.8967
2411	0.8971
2420	0.8974
2429	0.8984
2438	0.8994
2447	0.9003
2456	0.9014
2465	0.9026
2474	0.9038
2483	0.905
2492	0.9059
2501	0.9068
2510	0.9076
2519	0.9081
2528	0.9085
2537	0.9089
2546	0.9089
2555	0.9087
2564	0.9085
2573	0.9082
2582	0.9078
2591	0.907
2600	0.9064
2609	0.9057
2618	0.905
2627	0.9035
2636	0.902
2645	0.9005
2654	0.899
2663	0.8967
2672	0.8942
2681	0.8924
2690	0.8914
2699	0.8908
2708	0.8903
2717	0.8899
2726	0.8894
2735	0.8889
2744	0.8881
2753	0.8874
2762	0.8861
2771	0.881
2780	0.8685
2789	0.8432
2798	0.8181
2807	0.7909
2816	0.7705
2825	0.7495
2834	0.7227
2843	0.6532
2852	0.5829
2861	0.513
2870	0.4437
2879	0.4105
2888	0.3935
2897	0.3734
2906	0.3442
2915	0.3069
2924	0.2698
2933	0.2329
2942	0.1962
2951	0.1631
2960	0.1612
2969	0.1677
2978	0.2391
2987	0.3109
2996	0.3822
3005	0.4532
3014	0.5236
3023	0.5936
3032	0.6634
3041	0.7116
3050	0.7335
3059	0.7441
3068	0.752
3077	0.7599
3086	0.7748
3095	0.8019
3104	0.8585
3113	0.8683
3122	0.8721
3131	0.8739
3140	0.8752
3149	0.8763
3158	0.8774
3167	0.8786
3176	0.8794
3185	0.88
3194	0.8805
3203	0.8811
3212	0.8816
3221	0.882
3230	0.8825
3239	0.8828
3248	0.8829
3257	0.883
3266	0.8831
3275	0.8831
3284	0.8832
3293	0.8832
3302	0.8831
3311	0.8831
3320	0.883
3329	0.883
3338	0.8829
3347	0.8829
3356	0.8829
3365	0.8828
3374	0.8828
3383	0.8827
3392	0.8826
3401	0.8824
3410	0.8823
3419	0.8821
3428	0.8819
3437	0.8817
3446	0.8816
3455	0.8814
3464	0.8813
3473	0.8812
3482	0.8811
3491	0.881
3500	0.8809
3509	0.8809
3518	0.881
3527	0.8812
3536	0.8814
3545	0.8816
3554	0.8819
3563	0.8821
3572	0.8824
3581	0.8837
3590	0.8853
3599	0.8869
3608	0.8885
3617	0.8902
3626	0.8918
3635	0.8934
3644	0.8951
3653	0.8964
3662	0.8971
3671	0.8976
3680	0.8983
3689	0.899
3698	0.8996
3707	0.9001
3716	0.9004
3725	0.9007
3734	0.9009
3743	0.9013
3752	0.9011
3761	0.9009
3770	0.9006
3779	0.9004
3788	0.9
3797	0.8997
3806	0.8993
3815	0.8988
3824	0.8984
3833	0.898
3842	0.8976
3851	0.897
3860	0.8964
3869	0.8958
3878	0.8953
3887	0.8947
3896	0.8938
3905	0.8925
3914	0.8913
3923	0.8903
3932	0.8894
3941	0.8886
3950	0.8877
3959	0.8868
3968	0.8864
3977	0.8858
3986	0.8853
3995	0.8849
