Infrared Spectrum: BENZOIC ACID, O-(2-HYDROXYBENZOYL)-
Formula: C14 H10 O4
CAS: 6079-73-8
State: SOLID (KBr PELLET)
Class: COBLENTZ
Instrument: Not specified, most likely a prism, grating, or hybrid spectrometer.
Sampling: TRANSMISSION
Resolution: 4
Origin: TENNESSEE EASTMAN COMPANY, RESEARCH LABORATORIES
MICROMETERS	TRANSMITTANCE
2.021	0.605
2.06205	0.61
2.1031	0.617
2.14415	0.631
2.1852	0.644
2.22625	0.656
2.2673	0.667
2.30835	0.679
2.3494	0.682
2.39045	0.692
2.4315	0.701
2.47255	0.71
2.5136	0.716
2.55465	0.723
2.5957	0.728
2.63675	0.732
2.6778	0.737
2.71885	0.734
2.7599	0.706
2.80095	0.677
2.842	0.643
2.88305	0.56
2.9241	0.3
2.96515	0.499
3.0062	0.59
3.04725	0.626
3.0883	0.643
3.12935	0.644
3.1704	0.62
3.21145	0.602
3.2525	0.579
3.29355	0.55
3.3346	0.55
3.37565	0.542
3.4167	0.555
3.45775	0.6
3.4988	0.643
3.53985	0.643
3.5809	0.679
3.62195	0.728
3.663	0.74
3.70405	0.749
3.7451	0.723
3.78615	0.68
3.8272	0.692
3.86825	0.742
3.9093	0.761
3.95035	0.771
3.9914	0.778
4.03245	0.801
4.0735	0.838
4.11455	0.855
4.1556	0.871
4.19665	0.891
4.2377	0.9
4.27875	0.902
4.3198	0.903
4.36085	0.922
4.4019	0.929
4.44295	0.934
4.484	0.941
4.52505	0.945
4.5661	0.951
4.60715	0.953
4.6482	0.953
4.68925	0.953
4.7303	0.953
4.77135	0.953
4.8124	0.953
4.85344	0.953
4.89449	0.958
4.93554	0.958
4.97659	0.96
5.01764	0.962
5.05869	0.96
5.09974	0.958
5.14079	0.96
5.18184	0.96
5.22289	0.958
5.26394	0.958
5.30499	0.96
5.34604	0.958
5.38709	0.958
5.42814	0.958
5.46919	0.957
5.51024	0.953
5.55129	0.946
5.59234	0.931
5.63339	0.922
5.67444	0.91
5.71549	0.886
5.75654	0.785
5.79759	0.629
5.83864	0.259
5.87969	0.367
5.92074	0.672
5.96179	0.756
6.00284	0.778
6.04389	0.725
6.08494	0.524
6.12599	0.121
6.16704	0.382
6.20809	0.499
6.24914	0.168
6.29019	0.545
6.33124	0.535
6.37229	0.387
6.41334	0.708
6.45439	0.754
6.49544	0.782
6.53649	0.663
6.57754	0.691
6.61859	0.698
6.65964	0.646
6.70069	0.782
6.74174	0.811
6.78279	0.819
6.82384	0.761
6.86489	0.564
6.90594	0.42
6.94699	0.576
6.98804	0.636
7.02909	0.543
7.07014	0.658
7.11119	0.725
7.15224	0.722
7.19329	0.636
7.23434	0.493
7.27539	0.42
7.31644	0.454
7.35749	0.475
7.39854	0.521
7.43959	0.554
7.48064	0.622
7.52169	0.706
7.56274	0.723
7.60379	0.722
7.64484	0.65
7.68589	0.5
7.72694	0.38
7.76799	0.415
7.80904	0.392
7.85009	0.31
7.89114	0.327
7.93219	0.271
7.97324	0.308
8.01429	0.334
8.05534	0.259
8.09639	0.176
8.13744	0.185
8.17849	0.301
8.21954	0.459
8.26059	0.638
8.30164	0.687
8.34269	0.68
8.38374	0.723
8.42479	0.794
8.46584	0.826
8.50689	0.835
8.54794	0.825
8.58899	0.806
8.63004	0.662
8.67109	0.765
8.71214	0.845
8.75319	0.869
8.79424	0.874
8.83529	0.785
8.87634	0.548
8.91739	0.763
8.95844	0.854
8.99949	0.89
9.04054	0.909
9.08159	0.917
9.12264	0.917
9.16369	0.869
9.20474	0.66
9.24579	0.816
9.28684	0.893
9.32789	0.926
9.36894	0.943
9.40999	0.951
9.45104	0.951
9.49209	0.958
9.53314	0.958
9.57419	0.96
9.61524	0.962
9.65629	0.963
9.69734	0.963
9.73839	0.965
9.77944	0.965
9.82049	0.967
9.86154	0.967
9.90259	0.967
9.94364	0.967
9.98469	0.967
10.0257	0.969
10.0668	0.967
10.1078	0.958
10.1489	0.816
10.1899	0.85
10.231	0.922
10.272	0.927
10.3131	0.898
10.3541	0.922
10.3952	0.931
10.4362	0.936
10.4773	0.95
10.5183	0.953
10.5594	0.953
10.6004	0.953
10.6415	0.95
10.6825	0.898
10.7236	0.742
10.7646	0.674
10.8057	0.811
10.8467	0.861
10.8878	0.878
10.9288	0.883
10.9699	0.883
11.0109	0.885
11.052	0.888
11.093	0.89
11.1341	0.898
11.1751	0.907
11.2162	0.914
11.2572	0.915
11.2983	0.893
11.3393	0.871
11.3804	0.891
11.4214	0.915
11.4625	0.927
11.5035	0.936
11.5446	0.941
11.5856	0.943
11.6267	0.943
11.6677	0.929
11.7088	0.801
11.7498	0.56
11.7909	0.698
11.8319	0.873
11.873	0.921
11.914	0.948
11.9551	0.958
11.9961	0.962
12.0372	0.96
12.0782	0.953
12.1193	0.941
12.1603	0.946
12.2014	0.946
12.2424	0.941
12.2835	0.89
12.3245	0.831
12.3656	0.797
12.4066	0.783
12.4477	0.792
12.4887	0.821
12.5298	0.852
12.5708	0.874
12.6119	0.879
12.6529	0.867
12.694	0.792
12.735	0.699
12.7761	0.694
12.8171	0.746
12.8582	0.794
12.8992	0.797
12.9403	0.753
12.9813	0.718
13.0224	0.777
13.0634	0.84
13.1045	0.895
13.1455	0.919
13.1866	0.936
13.2276	0.948
13.2687	0.957
13.3097	0.958
13.3508	0.96
13.3918	0.963
13.4329	0.963
13.4739	0.963
13.515	0.962
13.556	0.96
13.5971	0.939
13.6381	0.914
13.6792	0.888
13.7202	0.869
13.7613	0.861
13.8023	0.861
13.8434	0.866
13.8844	0.873
13.9255	0.871
13.9665	0.826
14.0076	0.792
14.0486	0.823
14.0897	0.879
14.1307	0.909
14.1718	0.921
14.2128	0.919
14.2539	0.886
14.2949	0.85
14.336	0.84
14.377	0.842
14.4181	0.861
14.4591	0.897
14.5002	0.931
14.5412	0.955
14.5823	0.974
14.6233	0.984
14.6644	0.991
14.7054	0.991
14.7465	0.993
14.7875	0.993
14.8286	0.993
14.8696	0.993
14.9107	0.993
14.9517	0.982
14.9928	0.962
15.0338	0.933
15.0749	0.922
15.1159	0.915
15.157	0.903
15.198	0.893
15.2391	0.886
15.2801	0.883
15.3212	0.864
15.3622	0.835
15.4033	0.809
15.4443	0.782
15.4854	0.763
15.5264	0.744
15.5675	0.725
15.6085	0.716
15.6496	0.71
15.6906	0.701
15.7317	0.684
15.7727	0.665
15.8138	0.648
15.8548	0.626
15.8959	0.608
15.9369	0.6
15.978	0.596
