Infrared Spectrum: 5-Methyl-1-phenyl-1-hexen-3-one, trans
Formula: C13 H16 O
CAS: 60796-12-5
State: SOLUTION (10% CCl4 FOR 3800-1340, 10% CS2 FOR 1340-465 CM^-^1) VS SOLVENT
Class: COBLENTZ II
Instrument: DOW KBr FOREPRISM-GRATING
Instrument parameters: BLAZED AT 3.5, 12.0, 20.0 MICRON AND CHANGED AT 5.0, 7.5, 14.9 MICRON
Sampling: TRANSMISSION
Path length: 0.011 CM, 0.011 CM
Resolution: 2
Origin: DOW CHEMICAL COMPANY
1/CM	TRANSMITTANCE
3800	0.8764
3791	0.876
3782	0.8762
3773	0.8766
3764	0.8771
3755	0.8782
3746	0.8789
3737	0.8784
3728	0.8778
3719	0.8766
3710	0.8747
3701	0.869
3692	0.8636
3683	0.8594
3674	0.86
3665	0.8681
3656	0.8695
3647	0.8703
3638	0.8709
3629	0.871
3620	0.871
3611	0.8704
3602	0.8696
3593	0.8678
3584	0.8656
3575	0.8627
3566	0.8599
3557	0.8571
3548	0.8548
3539	0.8528
3530	0.8513
3521	0.8503
3512	0.8493
3503	0.8485
3494	0.8478
3485	0.8471
3476	0.8465
3467	0.8458
3458	0.8451
3449	0.8442
3440	0.8431
3431	0.8417
3422	0.8402
3413	0.8386
3404	0.8368
3395	0.8325
3386	0.8256
3377	0.8221
3368	0.8245
3359	0.8258
3350	0.8255
3341	0.8241
3332	0.8213
3323	0.8175
3314	0.8143
3305	0.8111
3296	0.8078
3287	0.8076
3278	0.8097
3269	0.8117
3260	0.8125
3251	0.8108
3242	0.8068
3233	0.8031
3224	0.7987
3215	0.7961
3206	0.7948
3197	0.7928
3188	0.7903
3179	0.7875
3170	0.7906
3161	0.7883
3152	0.7886
3143	0.7911
3134	0.7925
3125	0.7856
3116	0.7658
3107	0.7357
3098	0.7332
3089	0.6187
3080	0.6651
3071	0.6104
3062	0.609
3053	0.6317
3044	0.5721
3035	0.5408
3026	0.6433
3017	0.6896
3008	0.6871
2999	0.6332
2990	0.4979
2981	0.3135
2972	0.1292
2963	0.0746
2954	0.1973
2945	0.3334
2936	0.3114
2927	0.3718
2918	0.4289
2909	0.4509
2900	0.4498
2891	0.4752
2882	0.4237
2873	0.3477
2864	0.6121
2855	0.6819
2846	0.7283
2837	0.7643
2828	0.7658
2819	0.7675
2810	0.775
2801	0.7911
2792	0.8037
2783	0.8111
2774	0.8169
2765	0.8211
2756	0.8271
2747	0.8254
2738	0.8145
2729	0.8156
2720	0.8267
2711	0.8331
2702	0.8347
2693	0.8351
2684	0.8353
2675	0.8354
2666	0.835
2657	0.8341
2648	0.833
2639	0.833
2630	0.8346
2621	0.8377
2612	0.8412
2603	0.8425
2594	0.8435
2585	0.8444
2576	0.8454
2567	0.8465
2558	0.8477
2549	0.8481
2540	0.8482
2531	0.8482
2522	0.8485
2513	0.8489
2504	0.8494
2495	0.8504
2486	0.852
2477	0.8536
2468	0.8552
2459	0.8568
2450	0.8581
2441	0.8593
2432	0.8611
2423	0.8632
2414	0.864
2405	0.8627
2396	0.8587
2387	0.8581
2378	0.8588
2369	0.859
2360	0.859
2351	0.8592
2342	0.8602
2333	0.8585
2324	0.8528
2315	0.8582
2306	0.8612
2297	0.8614
2288	0.862
2279	0.8625
2270	0.8641
2261	0.8655
2252	0.867
2243	0.8683
2234	0.8693
2225	0.8703
2216	0.8713
2207	0.8721
2198	0.8733
2189	0.8746
2180	0.8759
2171	0.8774
2162	0.8791
2153	0.8808
2144	0.8825
2135	0.8837
2126	0.8845
2117	0.8854
2108	0.8864
2099	0.8874
2090	0.8884
2081	0.8893
2072	0.8902
2063	0.8906
2054	0.8909
2045	0.8905
2036	0.8896
2027	0.8899
2018	0.8909
2009	0.8933
2000	0.8928
1991	0.8867
1982	0.8778
1973	0.8686
1964	0.8617
1955	0.8444
1946	0.8564
1937	0.8811
1928	0.8859
1919	0.8865
1910	0.8807
1901	0.8693
1892	0.86
1883	0.8468
1874	0.8659
1865	0.8805
1856	0.8817
1847	0.8768
1838	0.8696
1829	0.8621
1820	0.8531
1811	0.8383
1802	0.8258
1793	0.8401
1784	0.8442
1775	0.8297
1766	0.8096
1757	0.7739
1748	0.7242
1739	0.6653
1730	0.5623
1721	0.4823
1712	0.345
1703	0.2305
1694	0.0843
1685	0.2062
1676	0.1977
1667	0.139
1658	0.1701
1649	0.395
1640	0.538
1631	0.3462
1622	0.1633
1613	0.0228
1604	0.1902
1595	0.5884
1586	0.643
1577	0.5153
1568	0.7718
1559	0.8288
1550	0.8486
1541	0.8542
1532	0.8444
1523	0.846
1514	0.8468
1505	0.7901
1496	0.5035
1487	0.7778
1478	0.7571
1469	0.3639
1460	0.5164
1451	0.2085
1442	0.6818
1433	0.7308
1424	0.7432
1415	0.6597
1406	0.603
1397	0.6821
1388	0.5534
1379	0.6301
1370	0.2397
1361	0.3796
1352	0.5807
1343	0.4522
1334	0.3739
1325	0.3626
1316	0.4233
1307	0.486
1298	0.3872
1289	0.4525
1280	0.501
1271	0.6476
1262	0.6734
1253	0.6456
1244	0.6668
1235	0.6725
1226	0.6467
1217	0.6212
1208	0.6107
1199	0.3774
1190	0.3037
1181	0.27
1172	0.2684
1163	0.3874
1154	0.4685
1145	0.4116
1136	0.5676
1127	0.6715
1118	0.6418
1109	0.5264
1100	0.6133
1091	0.6062
1082	0.6147
1073	0.4929
1064	0.3832
1055	0.245
1046	0.4815
1037	0.6428
1028	0.6734
1019	0.7301
1010	0.7515
1001	0.7222
992	0.6227
983	0.2874
974	0.2037
965	0.5102
956	0.648
947	0.7243
938	0.7499
929	0.7476
920	0.7141
911	0.7347
902	0.7311
893	0.683
884	0.6912
875	0.724
866	0.7395
857	0.7254
848	0.7295
839	0.7208
830	0.7176
821	0.7203
812	0.7519
803	0.7762
794	0.7797
785	0.7801
776	0.7747
767	0.7447
758	0.5902
749	0.1743
740	0.2998
731	0.6728
722	0.7069
713	0.6607
704	0.6026
695	0.3121
686	0.1289
677	0.6534
668	0.7411
659	0.7819
650	0.7754
641	0.8151
632	0.8365
623	0.8183
614	0.7968
605	0.8095
596	0.8058
587	0.756
578	0.7641
569	0.6889
560	0.6336
551	0.5926
542	0.7719
533	0.808
524	0.8158
515	0.8097
506	0.7831
497	0.7467
488	0.7271
479	0.7221
470	0.7251
