Infrared Spectrum: 2-Methylresorcinol
Formula: C 7 H 8 O 2
CAS: 608-25-3
State: gas
Instrument: HP-GC/MS/IRD
Origin: NIST Mass Spectrometry Data Center
1/CM	ABSORBANCE
550	0.0014154
562	0.0009128
574	0.000644
586	0.000371
598	0.0002436
610	0.0002296
622	0.0001316
634	9.1e-05
646	3.5e-05
658	0.0001106
670	0.000693
682	0.0018018
694	0.0033782
706	0.0026012
718	0.0011634
730	0.0003626
742	0.0010024
754	0.0030464
766	0.006377
778	0.0042686
790	0.0017066
802	0.000609
814	0.0005306
826	0.0004858
838	0.0003066
850	0.0002856
862	0.0001946
874	0.0002646
886	0.0004928
898	0.0012992
910	0.0026852
922	0.0026166
934	0.0011676
946	0.000539
958	0.0004116
970	0.000462
982	0.0007462
994	0.0011732
1006	0.0020986
1018	0.003878
1030	0.0050862
1042	0.0058128
1054	0.0096684
1066	0.013825
1078	0.012124
1090	0.0068544
1102	0.003654
1114	0.0022526
1126	0.0022428
1138	0.0048888
1150	0.0087948
1162	0.0097426
1174	0.0074564
1186	0.0068026
1198	0.0063798
1210	0.004291
1222	0.0048174
1234	0.008477
1246	0.0086142
1258	0.006265
1270	0.0087066
1282	0.0111118
1294	0.0092708
1306	0.0065562
1318	0.0063434
1330	0.0048496
1342	0.0018396
1354	0.000749
1366	0.0005642
1378	0.0005166
1390	0.0004984
1402	0.0004298
1414	0.0004788
1426	0.0008512
1438	0.0021238
1450	0.0060942
1462	0.012124
1474	0.0121072
1486	0.006335
1498	0.0038094
1510	0.0030016
1522	0.0018494
1534	0.0016688
1546	0.0018998
1558	0.0024836
1570	0.0039914
1582	0.0065716
1594	0.0088746
1606	0.0093492
1618	0.0073178
1630	0.0042616
1642	0.0019684
1654	0.0010052
1666	0.0006468
1678	0.0004886
1690	0.0003766
1702	0.0003304
1714	0.0002926
1726	0.0002464
1738	0.000259
1750	0.0002408
1762	0.0002128
1774	0.000175
1786	0.0001904
1798	0.0001582
1810	0.0001218
1822	7.42e-05
1834	5.6e-05
1846	7.7e-05
1858	0.000133
1870	0.0002226
1882	0.000301
1894	0.0002674
1906	0.0001484
1918	4.9e-05
1930	1.54e-05
1942	3.92e-05
1954	7.42e-05
1966	0.0001008
1978	5.46e-05
1990	3.22e-05
2002	3.64e-05
2014	1.4e-06
2026	8.4e-06
2038	4.2e-06
2050	4.2e-06
2062	1.96e-05
2074	1.68e-05
2086	2.1e-05
2098	3.5e-05
2110	1.82e-05
2122	3.22e-05
2134	4.76e-05
2146	6.58e-05
2158	4.76e-05
2170	3.22e-05
2182	6.16e-05
2194	8.82e-05
2206	0.000112
2218	9.8e-05
2230	6.3e-05
2242	4.9e-05
2254	3.5e-05
2266	5.46e-05
2278	7.42e-05
2290	0.000119
2302	0.0001764
2314	0.0001918
2326	0.0001512
2338	0.0001624
2350	0.0001806
2362	0.0001918
2374	0.0001848
2386	0.0001638
2398	0.0001358
2410	0.0001316
2422	0.0001484
2434	0.0001974
2446	0.0001974
2458	0.0001932
2470	0.0001694
2482	0.0001918
2494	0.000161
2506	0.00014
2518	9.8e-05
2530	0.0001134
2542	0.0001078
2554	0.0001106
2566	9.38e-05
2578	5.6e-05
2590	2.52e-05
2602	3.92e-05
2614	5.18e-05
2626	5.88e-05
2638	5.46e-05
2650	5.74e-05
2662	4.76e-05
2674	1.54e-05
2686	2.38e-05
2698	1.82e-05
2710	1.96e-05
2722	6.58e-05
2734	0.000119
2746	0.000168
2758	0.0001302
2770	9.8e-05
2782	6.86e-05
2794	5.74e-05
2806	0.000105
2818	0.0001694
2830	0.000224
2842	0.0003514
2854	0.0006006
2866	0.0010556
2878	0.0013356
2890	0.0013244
2902	0.0013636
2914	0.001631
2926	0.0020328
2938	0.0022036
2950	0.0016884
2962	0.0010458
2974	0.0006636
2986	0.0005334
2998	0.0005614
3010	0.000819
3022	0.0014686
3034	0.0022624
3046	0.0025354
3058	0.0021378
3070	0.0018088
3082	0.0013874
3094	0.0008484
3106	0.0004214
3118	0.0001904
3130	0.0001134
3142	7.7e-05
3154	6.02e-05
3166	3.92e-05
3178	2.1e-05
3190	1.4e-05
3202	4.76e-05
3214	5.04e-05
3226	3.92e-05
3238	2.66e-05
3250	2.52e-05
3262	3.78e-05
3274	4.34e-05
3286	1.54e-05
3298	5.6e-05
3310	9.94e-05
3322	0.000154
3334	0.0001778
3346	0.0001708
3358	0.0002226
3370	0.0001988
3382	0.000182
3394	0.0001904
3406	0.0001722
3418	0.000175
3430	0.0001666
3442	0.00014
3454	0.0001064
3466	0.0001134
3478	8.12e-05
3490	9.66e-05
3502	7.84e-05
3514	0.0001162
3526	8.4e-05
3538	8.4e-05
3550	9.38e-05
3562	0.0001456
3574	0.0001554
3586	0.0001988
3598	0.0002982
3610	0.0005376
3622	0.001274
3634	0.0046396
3646	0.0124978
3658	0.0123046
3670	0.004242
3682	0.0007854
3694	0.0003514
3706	0.000224
3718	0.0001722
3730	0.0001624
3742	0.0001372
3754	8.54e-05
3766	8.54e-05
3778	0.000112
3790	0.0001274
3802	0.0001526
3814	0.0001582
3826	0.0001974
3838	0.000238
