Infrared Spectrum: 5-METHYL-2,3-INDOLINEDIONE
Formula: C9 H7 N O2
CAS: 608-05-9
State: SOLID (1.0% IN KBr PELLET)
Class: COBLENTZ
Instrument: Not specified, most likely a prism, grating, or hybrid spectrometer.
Sampling: TRANSMISSION
Path length: 0.0355 CM THICK
Resolution: 4
Origin: ANDERSON PHYSICAL LABORATORY
1/CM	TRANSMITTANCE
664.794	0.402
673.221	0.641
681.648	0.701
690.075	0.718
698.502	0.721
706.929	0.724
715.356	0.711
723.783	0.687
732.21	0.517
740.637	0.573
749.064	0.786
757.491	0.789
765.918	0.78
774.345	0.6991
782.772	0.578
791.199	0.796
799.626	0.783
808.053	0.69
816.48	0.669
824.907	0.584
833.334	0.319
841.761	0.7449
850.188	0.786
858.615	0.786
867.042	0.786
875.469	0.783
883.896	0.772
892.323	0.759
900.75	0.739
909.177	0.789
917.603	0.795
926.03	0.79
934.457	0.79
942.884	0.775
951.311	0.759
959.738	0.733
968.165	0.674
976.592	0.656
985.019	0.666
993.446	0.723
1001.87	0.717
1010.3	0.695
1018.73	0.653
1027.15	0.638
1035.58	0.635
1044.01	0.6
1052.44	0.563
1060.86	0.572
1069.29	0.615
1077.72	0.626
1086.14	0.623
1094.57	0.602
1103	0.572
1111.42	0.535
1119.85	0.502
1128.28	0.313
1136.71	0.3759
1145.13	0.594
1153.56	0.585
1161.99	0.539
1170.41	0.478
1178.84	0.414
1187.27	0.294
1195.69	0.17
1204.12	0.239
1212.55	0.372
1220.97	0.427
1229.4	0.412
1237.83	0.523
1246.26	0.524
1254.68	0.511
1263.11	0.509
1271.54	0.556
1279.96	0.476
1288.39	0.361
1296.82	0.346
1305.24	0.212
1313.67	0.246
1322.1	0.55
1330.53	0.666
1338.95	0.68
1347.38	0.666
1355.81	0.654
1364.23	0.645
1372.66	0.626
1381.09	0.612
1389.51	0.581
1397.94	0.563
1406.37	0.559
1414.8	0.544
1423.22	0.517
1431.65	0.481
1440.08	0.442
1448.5	0.448
1456.93	0.46
1465.36	0.455
1473.78	0.434
1482.21	0.354
1490.64	0.215
1499.07	0.142
1507.49	0.4371
1515.92	0.662
1524.35	0.683
1532.77	0.681
1541.2	0.642
1549.63	0.617
1558.05	0.6
1566.48	0.562
1574.91	0.53
1583.34	0.502
1591.76	0.442
1600.19	0.3151
1608.62	0.183
1617.04	0.158
1625.47	0.07
1633.9	0.08
1642.32	0.337
1650.75	0.562
1659.18	0.554
1667.6	0.508
1676.03	0.484
1684.46	0.436
1692.89	0.373
1701.31	0.2
1709.74	0.109
1718.17	0.058
1726.59	0.064
1735.02	0.064
1743.45	0.059
1751.87	0.061
1760.3	0.101
1768.73	0.173
1777.16	0.397
1785.58	0.551
1794.01	0.705
1802.44	0.792
1810.86	0.852
1819.29	0.883
1827.72	0.916
1836.14	0.922
1844.57	0.929
1853	0.926
1861.43	0.902
1869.85	0.908
1878.28	0.925
1886.71	0.935
1895.13	0.94
1903.56	0.94
1911.99	0.934
1920.41	0.917
1928.84	0.892
1937.27	0.896
1945.7	0.913
1954.12	0.913
1962.55	0.913
1970.98	0.913
1979.4	0.913
1987.83	0.913
1996.26	0.911
2004.68	0.91
2013.11	0.909
2021.54	0.9072
2029.97	0.901
2038.39	0.899
2046.82	0.8964
2055.25	0.893
2063.67	0.893
2072.1	0.8995
2080.53	0.901
2088.95	0.8966
2097.38	0.8889
2105.81	0.8837
2114.24	0.881
2122.66	0.8802
2131.09	0.8779
2139.52	0.8741
2147.94	0.8714
2156.37	0.8655
2164.8	0.8618
2173.22	0.8583
2181.65	0.8554
2190.08	0.853
2198.5	0.8499
2206.93	0.844
2215.36	0.843
2223.79	0.841
2232.21	0.8287
2240.64	0.8209
2249.07	0.8115
2257.49	0.8083
2265.92	0.807
2274.35	0.807
2282.77	0.8057
2291.2	0.8041
2299.63	0.8015
2308.06	0.7972
2316.48	0.795
2324.91	0.7834
2333.34	0.7808
2341.76	0.78
2350.19	0.78
2358.62	0.781
2367.04	0.781
2375.47	0.7791
2383.9	0.7729
2392.33	0.7662
2400.75	0.7614
2409.18	0.7566
2417.61	0.753
2426.03	0.753
2434.46	0.7508
2442.89	0.7475
2451.31	0.7455
2459.74	0.744
2468.17	0.7418
2476.6	0.738
2485.02	0.736
2493.45	0.735
2501.88	0.7343
2510.3	0.731
2518.73	0.7278
2527.16	0.724
2535.58	0.7217
2544.01	0.7149
2552.44	0.711
2560.87	0.711
2569.29	0.7077
2577.72	0.7054
2586.15	0.7024
2594.57	0.699
2603	0.6974
2611.43	0.695
2619.85	0.6934
2628.28	0.692
2636.71	0.69
2645.14	0.69
2653.56	0.6892
2661.99	0.6869
2670.42	0.6784
2678.84	0.672
2687.27	0.6693
2695.7	0.6678
2704.12	0.6613
2712.55	0.6594
2720.98	0.6544
2729.4	0.6468
2737.83	0.6433
2746.26	0.6398
2754.69	0.636
2763.11	0.6347
2771.54	0.633
2779.97	0.6294
2788.39	0.6206
2796.82	0.6016
2805.25	0.5898
2813.67	0.5767
2822.1	0.575
2830.53	0.573
2838.96	0.573
2847.38	0.572
2855.81	0.572
2864.24	0.5688
2872.66	0.568
2881.09	0.564
2889.52	0.5573
2897.94	0.5406
2906.37	0.5336
2914.8	0.532
2923.23	0.5406
2931.65	0.547
2940.08	0.5456
2948.51	0.5377
2956.93	0.535
2965.36	0.532
2973.79	0.53
2982.21	0.53
2990.64	0.527
2999.07	0.5255
3007.5	0.524
3015.92	0.5215
3024.35	0.517
3032.78	0.5117
3041.2	0.511
3049.63	0.509
3058.06	0.506
3066.48	0.5014
3074.91	0.497
3083.34	0.4913
3091.77	0.4757
3100.19	0.4622
3108.62	0.4477
3117.05	0.4422
3125.47	0.4326
3133.9	0.4177
3142.33	0.4046
3150.75	0.3865
3159.18	0.3683
3167.61	0.353
3176.03	0.3403
3184.46	0.3313
3192.89	0.3198
3201.32	0.3002
3209.74	0.2812
3218.17	0.2597
3226.6	0.2424
3235.02	0.2299
3243.45	0.2184
3251.88	0.1991
3260.3	0.171
3268.73	0.1349
3277.16	0.133
3285.59	0.1393
3294.01	0.1598
3302.44	0.1971
3310.87	0.2468
3319.29	0.295
3327.72	0.332
3336.15	0.3611
3344.57	0.3797
3353	0.3935
3361.43	0.4044
3369.86	0.4213
3378.28	0.4337
3386.71	0.4398
3395.14	0.4464
3403.56	0.4528
3411.99	0.4564
3420.42	0.458
3428.84	0.4566
3437.27	0.451
3445.7	0.449
3454.13	0.4509
3462.55	0.4527
3470.98	0.4624
3479.41	0.4707
3487.83	0.478
3496.26	0.4813
3504.69	0.488
3513.11	0.4983
3521.54	0.503
3529.97	0.506
3538.4	0.507
3546.82	0.5088
3555.25	0.5201
3563.68	0.5336
3572.1	0.5466
3580.53	0.5549
3588.96	0.5631
3597.38	0.5731
3605.81	0.5843
3614.24	0.595
3622.67	0.6093
3631.09	0.6159
3639.52	0.6227
3647.95	0.6334
3656.37	0.6421
3664.8	0.646
3673.23	0.6517
3681.65	0.654
3690.08	0.653
3698.51	0.649
3706.93	0.6452
3715.36	0.6412
3723.79	0.6422
3732.22	0.6457
3740.64	0.6498
3749.07	0.6557
3757.5	0.6557
3765.92	0.6457
3774.35	0.6391
3782.78	0.6334
3791.2	0.6299
3799.63	0.6258
3808.06	0.6181
3816.49	0.617
3824.91	0.6236
3833.34	0.627
3841.77	0.6263
3850.19	0.6231
3858.62	0.6208
3867.05	0.62
3875.47	0.62
3883.9	0.62
3892.33	0.62
3900.76	0.62
3909.18	0.62
3917.61	0.618
3926.04	0.6166
3934.46	0.612
3942.89	0.611
3951.32	0.611
3959.74	0.611
3968.17	0.611
3976.6	0.6096
