Infrared Spectrum: 2,3-Dimethylhydroquinone
Formula: C 8 H 10 O 2
CAS: 608-43-5
State: gas
Instrument: HP-GC/MS/IRD
Origin: NIST Mass Spectrometry Data Center
1/CM	ABSORBANCE
550	0.0010051
562	0.0017204
574	0.0015134
586	0.0013639
598	0.000598
610	0.0002806
622	0.0002024
634	0.0002346
646	0.0004301
658	0.0003059
670	5.75e-05
682	4.6e-05
694	9.43e-05
706	0.0001771
718	0.0004025
730	0.0021413
742	0.0066447
754	0.0054579
766	0.0018032
778	0.0035121
790	0.0057385
802	0.0053958
814	0.0030659
826	0.0013248
838	0.0011063
850	0.0018952
862	0.0013248
874	0.0003289
886	0.0002116
898	0.0002277
910	0.0002668
922	0.0003473
934	0.0005635
946	0.0007912
958	0.0007521
970	0.0007291
982	0.0009338
994	0.0014651
1006	0.0021781
1018	0.0031142
1030	0.0039905
1042	0.0044689
1054	0.0047587
1066	0.0067643
1078	0.0130364
1090	0.015893
1102	0.0094415
1114	0.0041768
1126	0.0035719
1138	0.0054602
1150	0.0084893
1162	0.0126155
1174	0.0164381
1186	0.0156699
1198	0.0111182
1210	0.0095266
1222	0.0111849
1234	0.013708
1246	0.0157435
1258	0.0212037
1270	0.0218937
1282	0.0120796
1294	0.007268
1306	0.0050922
1318	0.0035535
1330	0.0020171
1342	0.001058
1354	0.0008602
1366	0.0009476
1378	0.0012788
1390	0.0014904
1402	0.0014099
1414	0.001472
1426	0.0020976
1438	0.0041814
1450	0.0087883
1462	0.0149339
1474	0.0198467
1486	0.0183379
1498	0.0112378
1510	0.0062997
1522	0.003818
1534	0.0024127
1546	0.0018469
1558	0.0016307
1570	0.0014927
1582	0.0014536
1594	0.0014421
1606	0.0012374
1618	0.0009407
1630	0.0006716
1642	0.0004853
1654	0.0008487
1666	0.0015364
1678	0.0012006
1690	0.0004347
1702	0.0003174
1714	0.0002829
1726	0.0003059
1738	0.000322
1750	0.0002875
1762	0.0002714
1774	0.000299
1786	0.0002852
1798	0.0002967
1810	0.0003565
1822	0.0003335
1834	0.000207
1846	0.0001403
1858	0.0001058
1870	6.21e-05
1882	5.98e-05
1894	8.05e-05
1906	9.43e-05
1918	0.0001127
1930	8.28e-05
1942	4.37e-05
1954	2.53e-05
1966	9.2e-06
1978	2.53e-05
1990	3.68e-05
2002	5.52e-05
2014	0.0001679
2026	0.0001863
2038	0.0001472
2050	9.66e-05
2062	5.29e-05
2074	2.99e-05
2086	3.68e-05
2098	7.59e-05
2110	0.0001058
2122	0.0001357
2134	0.0001449
2146	9.66e-05
2158	5.98e-05
2170	3.22e-05
2182	5.06e-05
2194	3.22e-05
2206	5.75e-05
2218	4.83e-05
2230	5.29e-05
2242	6.9e-05
2254	9.2e-05
2266	0.0001173
2278	0.0001265
2290	0.0001564
2302	0.0001725
2314	0.0001679
2326	0.0001794
2338	0.0002116
2350	0.000207
2362	0.000184
2374	0.000184
2386	0.0001771
2398	0.0002047
2410	0.0001978
2422	0.0001978
2434	0.0002024
2446	0.0002392
2458	0.0002461
2470	0.0002323
2482	0.0002346
2494	0.0002208
2506	0.0002438
2518	0.000253
2530	0.0002346
2542	0.0001886
2554	0.0001426
2566	7.59e-05
2578	6.44e-05
2590	4.37e-05
2602	2.99e-05
2614	5.06e-05
2626	6.9e-05
2638	7.59e-05
2650	2.76e-05
2662	5.52e-05
2674	7.13e-05
2686	6.67e-05
2698	9.2e-05
2710	0.0001035
2722	0.0001426
2734	0.0002829
2746	0.0003404
2758	0.0002852
2770	0.0002507
2782	0.0002484
2794	0.0002622
2806	0.0003059
2818	0.0003611
2830	0.0005543
2842	0.0009177
2854	0.0015801
2866	0.0026634
2878	0.0035328
2890	0.0035397
2902	0.003542
2914	0.0041814
2926	0.0057178
2938	0.006601
2950	0.0052394
2962	0.0032039
2974	0.0021252
2986	0.0018791
2998	0.0021574
3010	0.003059
3022	0.00414
3034	0.0040503
3046	0.0031786
3058	0.0025185
3070	0.0019688
3082	0.0013731
3094	0.0008487
3106	0.0005566
3118	0.0003289
3130	0.0002415
3142	0.0001725
3154	0.0001495
3166	9.89e-05
3178	0.0001587
3190	8.74e-05
3202	6.67e-05
3214	7.82e-05
3226	7.82e-05
3238	3.45e-05
3250	6.67e-05
3262	5.06e-05
3274	5.06e-05
3286	9.66e-05
3298	0.0001265
3310	0.0001357
3322	0.000138
3334	0.0001449
3346	0.0001633
3358	0.0001863
3370	0.0002231
3382	0.0003036
3394	0.0003266
3406	0.0003749
3418	0.0003657
3430	0.0003358
3442	0.000368
3454	0.0003956
3466	0.0003749
3478	0.0003151
3490	0.0003197
3502	0.0002691
3514	0.0002369
3526	0.0002783
3538	0.0002576
3550	0.0002415
3562	0.00023
3574	0.0002507
3586	0.0003174
3598	0.0003887
3610	0.0006854
3622	0.0012075
3634	0.0031832
3646	0.0108859
3658	0.0166428
3670	0.0087308
3682	0.0016468
3694	0.0006187
3706	0.0003634
3718	0.0003036
3730	0.0002622
3742	0.0002139
3754	0.0002645
3766	0.0003243
3778	0.0003289
3790	0.0003105
3802	0.0003611
3814	0.0003726
3826	0.0003565
3838	0.0004163
