Infrared Spectrum: 2,6-DICHLOROANILINE
Formula: C6 H5 Cl2 N
CAS: 608-31-1
State: SOLUTION (7% IN CHCl3)
Class: COBLENTZ
Instrument: PERKIN-ELMER
Sampling: TRANSMISSION
Path length: 0.010 CM
Resolution: 4
Origin: ABBOTT LABORATORIES - WASHBURN
MICROMETERS	TRANSMITTANCE
2.019	0.901
2.05317	0.899
2.08734	0.9069
2.1215	0.909
2.15567	0.9181
2.18984	0.921
2.22401	0.919
2.25817	0.9296
2.29234	0.9325
2.32651	0.936
2.36068	0.938
2.39485	0.933
2.42901	0.9373
2.46318	0.9424
2.49735	0.9462
2.53152	0.948
2.56569	0.947
2.59985	0.949
2.63402	0.9525
2.66819	0.953
2.70236	0.955
2.73652	0.955
2.77069	0.9594
2.80486	0.9597
2.83903	0.8812
2.8732	0.7098
2.90736	0.8044
2.94153	0.6501
2.9757	0.8034
3.00987	0.9245
3.04404	0.9579
3.0782	0.969
3.11237	0.97
3.14654	0.9687
3.18071	0.965
3.21487	0.9619
3.24904	0.9469
3.28321	0.935
3.31738	0.9059
3.35155	0.921
3.38571	0.9498
3.41988	0.9718
3.45405	0.977
3.48822	0.982
3.52239	0.988
3.55655	0.9977
3.59072	1
3.62489	0.9955
3.65906	0.996
3.69322	0.996
3.72739	1
3.76156	1.0016
3.79573	0.9994
3.8299	0.9921
3.86406	0.984
3.89823	0.985
3.9324	0.9815
3.96657	0.979
4.00074	0.9831
4.0349	0.988
4.06907	0.9884
4.10324	0.9852
4.13741	0.9803
4.17157	0.9723
4.20574	0.969
4.23991	0.97
4.27408	0.9776
4.30825	0.9887
4.34241	0.9868
4.37658	0.977
4.41075	0.979
4.44492	0.979
4.47909	0.979
4.51325	0.979
4.54742	0.977
4.58159	0.977
4.61576	0.9738
4.64992	0.972
4.68409	0.969
4.71826	0.9699
4.75243	0.97
4.7866	0.97
4.82076	0.97
4.85493	0.9691
4.8891	0.97
4.92327	0.972
4.95744	0.972
4.9916	0.97
5.02577	0.97
5.05994	0.97
5.09411	0.9654
5.12827	0.967
5.16244	0.9684
5.19661	0.969
5.23078	0.9647
5.26495	0.9392
5.29911	0.935
5.33328	0.9524
5.36745	0.9592
5.40162	0.952
5.43579	0.9335
5.46995	0.9495
5.50412	0.9598
5.53829	0.9616
5.57246	0.9578
5.60662	0.9444
5.64079	0.9593
5.67496	0.964
5.70913	0.9636
5.7433	0.964
5.77746	0.965
5.81163	0.96
5.8458	0.9555
5.87997	0.95
5.91414	0.9504
5.9483	0.9421
5.98247	0.933
6.01664	0.9041
6.05081	0.8807
6.08497	0.808
6.11914	0.7427
6.15331	0.4859
6.18748	0.1058
6.22165	0.2868
6.25581	0.568
6.28998	0.7635
6.32415	0.8146
6.35832	0.4264
6.39249	0.4755
6.42665	0.7566
6.46082	0.8575
6.49499	0.8769
6.52916	0.892
6.56332	0.894
6.59749	0.892
6.63166	0.892
6.66583	0.8791
6.7	0.8
6.73416	0.7293
6.76833	0.4557
6.8025	0.1414
6.83667	0.2299
6.87084	0.3198
6.905	0.3954
6.93917	0.5432
6.97334	0.7351
7.00751	0.833
7.04167	0.8686
7.07584	0.9025
7.11001	0.9233
7.14418	0.928
7.17835	0.928
7.21251	0.9345
7.24668	0.9357
7.28085	0.941
7.31502	0.945
7.34919	0.945
7.38335	0.943
7.41752	0.943
7.45169	0.945
7.48586	0.945
7.52002	0.943
7.55419	0.9383
7.58836	0.935
7.62253	0.8809
7.6567	0.5228
7.69086	0.7014
7.72503	0.8364
7.7592	0.866
7.79337	0.8382
7.82754	0.7958
7.8617	0.8247
7.89587	0.8631
7.93004	0.8877
7.96421	0.892
7.99837	0.8903
8.03254	0.8805
8.06671	0.8559
8.10088	0.8002
8.13505	0.7844
8.16921	0.779
8.20338	0.7787
8.23755	0.783
8.27172	0.7855
8.30589	0.793
8.34005	0.7958
8.37422	0.8184
8.40839	0.8614
8.44256	0.8837
8.47672	0.894
8.51089	0.901
8.54506	0.902
8.57923	0.899
8.6134	0.8976
8.64756	0.895
8.68173	0.8863
8.7159	0.877
8.75007	0.8889
8.78424	0.894
8.8184	0.8876
8.85257	0.8785
8.88674	0.8723
8.92091	0.8584
8.95507	0.8389
8.98924	0.8205
9.02341	0.7922
9.05758	0.7631
9.09175	0.7132
9.12591	0.5915
9.16008	0.4344
9.19425	0.3976
9.22842	0.4159
9.26259	0.4984
9.29675	0.4919
9.33092	0.4226
9.36509	0.3617
9.39926	0.4391
9.43342	0.589
9.46759	0.7016
9.50176	0.7594
9.53593	0.7915
9.5701	0.8109
9.60426	0.8292
9.63843	0.8481
9.6726	0.863
9.70677	0.8742
9.74094	0.8862
9.7751	0.8916
9.80927	0.8947
9.84344	0.8984
9.87761	0.901
9.91177	0.8995
9.94594	0.901
9.98011	0.9068
10.0143	0.912
10.0484	0.9104
10.0826	0.912
10.1168	0.912
10.1509	0.9074
10.1851	0.906
10.2193	0.9046
10.2535	0.9046
10.2876	0.906
10.3218	0.912
10.356	0.912
10.3901	0.9094
10.4243	0.9084
10.4585	0.9046
10.4926	0.8898
10.5268	0.8653
10.561	0.8766
10.5951	0.8906
10.6293	0.8998
10.6635	0.901
10.6976	0.894
10.7318	0.89
10.766	0.8834
10.8001	0.878
10.8343	0.8827
10.8685	0.8947
10.9026	0.9035
10.9368	0.9025
10.971	0.904
11.0051	0.907
11.0393	0.906
11.0735	0.902
11.1076	0.902
11.1418	0.9013
11.176	0.901
11.2102	0.8974
11.2443	0.8984
11.2785	0.901
11.3127	0.897
11.3468	0.895
11.381	0.894
11.4152	0.8948
11.4493	0.899
11.4835	0.901
11.5177	0.899
11.5518	0.897
11.586	0.895
11.6202	0.8924
11.6543	0.892
11.6885	0.892
11.7227	0.89
11.7568	0.889
11.791	0.887
11.8252	0.885
11.8593	0.8729
11.8935	0.8411
11.9277	0.831
11.9618	0.8368
11.996	0.8472
12.0302	0.849
12.0643	0.8454
12.0985	0.846
12.1327	0.843
12.1669	0.843
12.201	0.8394
12.2352	0.8312
12.2694	0.8226
12.3035	0.8179
12.3377	0.8085
12.3719	0.8007
12.406	0.7936
12.4402	0.7782
12.4744	0.7682
12.5085	0.7626
12.5427	0.7542
12.5769	0.75
12.611	0.7442
12.6452	0.742
12.6794	0.745
12.7135	0.75
12.7477	0.752
12.7819	0.75
12.816	0.7582
12.8502	0.764
12.8844	0.773
12.9185	0.778
12.9527	0.7833
12.9869	0.788
13.021	0.788
13.0552	0.786
13.0894	0.784
13.1236	0.779
13.1577	0.781
13.1919	0.784
13.2261	0.784
13.2602	0.7896
13.2944	0.795
13.3286	0.796
13.3627	0.798
13.3969	0.8
13.4311	0.802
13.4652	0.805
13.4994	0.808
13.5336	0.8127
13.5677	0.8198
13.6019	0.8285
13.6361	0.832
13.6702	0.8356
13.7044	0.8384
13.7386	0.843
13.7727	0.843
13.8069	0.8405
13.8411	0.839
13.8752	0.8274
13.9094	0.8008
13.9436	0.7619
13.9777	0.674
14.0119	0.5922
14.0461	0.521
14.0803	0.4733
14.1144	0.4749
14.1486	0.5016
14.1828	0.5492
14.2169	0.5999
14.2511	0.6324
14.2853	0.6543
14.3194	0.68
14.3536	0.6954
14.3878	0.7071
14.4219	0.7158
14.4561	0.718
14.4903	0.72
14.5244	0.723
14.5586	0.7257
14.5928	0.728
14.6269	0.7305
14.6611	0.7287
14.6953	0.726
14.7294	0.726
14.7636	0.7289
14.7978	0.7328
14.8319	0.735
14.8661	0.735
14.9003	0.744
14.9344	0.75
14.9686	0.754
15.0028	0.761
15.037	0.7612
15.0711	0.757
15.1053	0.755
15.1395	0.7476
15.1736	0.7406
15.2078	0.7395
15.242	0.7465
15.2761	0.75
15.3103	0.7563
15.3445	0.761
15.3786	0.761
15.4128	0.7635
