Infrared Spectrum: PHENOL, PENTABROMO-
Formula: C6 H Br5 O
CAS: 608-71-9
State: SOLID (KBr PELLET)
Class: COBLENTZ
Instrument: Not specified, most likely a prism, grating, or hybrid spectrometer.
Sampling: TRANSMISSION
Resolution: 4
Origin: TENNESSEE EASTMAN COMPANY, RESEARCH LABORATORIES
MICROMETERS	TRANSMITTANCE
2.021	0.423
2.06214	0.425
2.10328	0.432
2.14442	0.437
2.18556	0.451
2.22671	0.468
2.26785	0.481
2.30899	0.49
2.35013	0.502
2.39127	0.509
2.43241	0.518
2.47355	0.53
2.51469	0.538
2.55583	0.542
2.59698	0.545
2.63812	0.552
2.67926	0.569
2.7204	0.567
2.76154	0.504
2.80268	0.452
2.84382	0.404
2.88496	0.284
2.9261	0.08
2.96725	0.18
3.00839	0.319
3.04953	0.397
3.09067	0.452
3.13181	0.5
3.17295	0.55
3.21409	0.581
3.25523	0.605
3.29638	0.636
3.33752	0.67
3.37866	0.674
3.4198	0.675
3.46094	0.701
3.50208	0.706
3.54322	0.734
3.58436	0.74
3.6255	0.749
3.66665	0.758
3.70779	0.766
3.74893	0.773
3.79007	0.778
3.83121	0.792
3.87235	0.795
3.91349	0.799
3.95463	0.806
3.99577	0.814
4.03692	0.823
4.07806	0.823
4.1192	0.825
4.16034	0.833
4.20148	0.84
4.24262	0.843
4.28376	0.843
4.3249	0.845
4.36604	0.857
4.40719	0.867
4.44833	0.876
4.48947	0.881
4.53061	0.885
4.57175	0.891
4.61289	0.895
4.65403	0.902
4.69517	0.905
4.73631	0.909
4.77746	0.912
4.8186	0.917
4.85974	0.921
4.90088	0.921
4.94202	0.922
4.98316	0.933
5.0243	0.943
5.06544	0.943
5.10659	0.946
5.14773	0.948
5.18887	0.95
5.23001	0.951
5.27115	0.955
5.31229	0.958
5.35343	0.962
5.39457	0.969
5.43571	0.97
5.47686	0.97
5.518	0.974
5.55914	0.975
5.60028	0.975
5.64142	0.977
5.68256	0.977
5.7237	0.965
5.76484	0.957
5.80598	0.951
5.84713	0.951
5.88827	0.951
5.92941	0.951
5.97055	0.946
6.01169	0.922
6.05283	0.893
6.09397	0.843
6.13511	0.831
6.17625	0.83
6.2174	0.866
6.25854	0.91
6.29968	0.926
6.34082	0.924
6.38196	0.922
6.4231	0.847
6.46424	0.758
6.50538	0.727
6.54652	0.439
6.58767	0.543
6.62881	0.873
6.66995	0.919
6.71109	0.96
6.75223	0.981
6.79337	0.974
6.83451	0.958
6.87565	0.946
6.9168	0.854
6.95794	0.574
6.99908	0.584
7.04022	0.722
7.08136	0.668
7.1225	0.42
7.16364	0.337
7.20478	0.53
7.24592	0.662
7.28707	0.578
7.32821	0.468
7.36935	0.217
7.41049	0.025
7.45163	0.068
7.49277	0.392
7.53391	0.703
7.57505	0.782
7.61619	0.732
7.65734	0.689
7.69848	0.56
7.73962	0.439
7.78076	0.207
7.8219	0.051
7.86304	0.063
7.90418	0.25
7.94532	0.373
7.98646	0.536
8.02761	0.655
8.06875	0.704
8.10989	0.605
8.15103	0.509
8.19217	0.603
8.23331	0.427
8.27445	0.37
8.31559	0.181
8.35673	0.082
8.39788	0.109
8.43902	0.195
8.48016	0.327
8.5213	0.464
8.56244	0.531
8.60358	0.586
8.64472	0.596
8.68586	0.578
8.72701	0.662
8.76815	0.722
8.80929	0.771
8.85043	0.802
8.89157	0.811
8.93271	0.828
8.97385	0.85
9.01499	0.857
9.05613	0.869
9.09728	0.881
9.13842	0.888
9.17956	0.878
9.2207	0.831
9.26184	0.816
9.30298	0.861
9.34412	0.861
9.38526	0.873
9.4264	0.903
9.46755	0.91
9.50869	0.915
9.54983	0.933
9.59097	0.943
9.63211	0.945
9.67325	0.945
9.71439	0.95
9.75553	0.95
9.79667	0.95
9.83782	0.95
9.87896	0.953
9.9201	0.96
9.96124	0.96
10.0024	0.96
10.0435	0.96
10.0847	0.963
10.1258	0.965
10.1669	0.965
10.2081	0.972
10.2492	0.979
10.2904	0.979
10.3315	0.981
10.3727	0.979
10.4138	0.979
10.4549	0.965
10.4961	0.95
10.5372	0.95
10.5784	0.951
10.6195	0.945
10.6606	0.819
10.7018	0.634
10.7429	0.626
10.7841	0.734
10.8252	0.79
10.8663	0.74
10.9075	0.826
10.9486	0.903
10.9898	0.953
11.0309	0.97
11.072	0.97
11.1132	0.958
11.1543	0.938
11.1955	0.962
11.2366	0.984
11.2778	0.991
11.3189	0.996
11.36	0.994
11.4012	0.993
11.4423	0.982
11.4835	0.957
11.5246	0.912
11.5657	0.873
11.6069	0.948
11.648	0.974
11.6892	0.982
11.7303	0.986
11.7714	0.984
11.8126	0.986
11.8537	0.984
11.8949	0.962
11.936	0.948
11.9772	0.975
12.0183	0.993
12.0594	0.998
12.1006	1
12.1417	1.001
12.1829	1.001
12.224	0.998
12.2651	0.996
12.3063	0.996
12.3474	0.996
12.3886	0.994
12.4297	0.994
12.4708	0.994
12.512	0.994
12.5531	0.993
12.5943	0.993
12.6354	0.996
12.6766	0.996
12.7177	0.996
12.7588	0.996
12.8	0.996
12.8411	0.996
12.8823	0.996
12.9234	0.994
12.9645	0.986
13.0057	0.984
13.0468	0.984
13.088	0.977
13.1291	0.951
13.1702	0.905
13.2114	0.871
13.2525	0.914
13.2937	0.962
13.3348	0.981
13.376	0.987
13.4171	0.993
13.4582	0.994
13.4994	0.994
13.5405	0.994
13.5817	0.996
13.6228	0.996
13.6639	0.998
13.7051	1
13.7462	1
13.7874	0.998
13.8285	0.998
13.8696	0.998
13.9108	1
13.9519	1
13.9931	1.001
14.0342	1.001
14.0754	0.987
14.1165	0.958
14.1576	0.878
14.1988	0.835
14.2399	0.835
14.2811	0.859
14.3222	0.861
14.3633	0.85
14.4045	0.833
14.4456	0.813
14.4868	0.794
14.5279	0.766
14.569	0.723
14.6102	0.658
14.6513	0.598
14.6925	0.54
14.7336	0.54
14.7748	0.581
14.8159	0.68
14.857	0.765
14.8982	0.831
14.9393	0.859
14.9805	0.883
15.0216	0.897
15.0627	0.912
15.1039	0.919
15.145	0.924
15.1862	0.924
15.2273	0.921
15.2684	0.909
15.3096	0.89
15.3507	0.874
15.3919	0.857
15.433	0.842
15.4742	0.831
15.5153	0.823
15.5564	0.813
15.5976	0.801
15.6387	0.794
15.6799	0.778
15.721	0.759
15.7621	0.746
15.8033	0.728
15.8444	0.715
15.8856	0.704
15.9267	0.696
15.9678	0.687
16.009	0.686
