Infrared Spectrum: (4'-Nitrobenzo)-15-crown-5
Formula: C 14 H 19 N O 7
CAS: 60835-69-0
State: gas
Origin: EPA-IR VAPOR PHASE LIBRARY
1/CM	ABSORBANCE
549.8	0.0009315
559.445	0.0007451
569.09	0.0009357
578.734	0.0007504
588.379	0.00050877
598.024	0.00053568
607.669	0.0006713
617.313	0.00053116
626.958	0.0005564
636.603	0.0008343
646.248	0.0008063
655.893	0.0007708
665.537	0.0005997
675.182	0.000458
684.827	0.000197
694.472	0.000646
704.116	0.0006352
713.761	0.0005624
723.406	0.0010268
733.051	0.0013412
742.695	0.001826
752.34	0.0010859
761.985	0.0010969
771.63	0.0012555
781.275	0.0012567
790.919	0.0013983
800.564	0.002606
810.209	0.003436
819.854	0.001846
829.498	0.001946
839.143	0.001441
848.788	0.001496
858.433	0.001796
868.078	0.002246
877.722	0.002066
887.367	0.001866
897.012	0.001966
906.657	0.001996
916.301	0.002216
925.946	0.003576
935.591	0.003656
945.236	0.003496
954.88	0.002916
964.525	0.002986
974.17	0.002306
983.815	0.002846
993.46	0.002826
1003.1	0.002186
1012.75	0.002676
1022.39	0.002996
1032.04	0.002946
1041.68	0.004526
1051.33	0.005266
1060.97	0.004116
1070.62	0.003316
1080.26	0.004036
1089.91	0.004896
1099.55	0.005796
1109.2	0.006706
1118.84	0.009366
1128.49	0.012486
1138.13	0.014776
1147.78	0.012576
1157.42	0.008326
1167.07	0.004896
1176.71	0.003246
1186.36	0.003016
1196	0.003536
1205.64	0.005506
1215.29	0.006416
1224.93	0.006726
1234.58	0.006576
1244.22	0.007606
1253.87	0.009696
1263.51	0.014126
1273.16	0.018576
1282.8	0.012186
1292.45	0.008396
1302.09	0.006006
1311.74	0.005126
1321.38	0.004746
1331.03	0.005936
1340.67	0.010266
1350.32	0.017496
1359.96	0.010116
1369.61	0.004736
1379.25	0.002876
1388.9	0.002066
1398.54	0.001786
1408.18	0.001836
1417.83	0.002346
1427.47	0.002336
1437.12	0.002146
1446.76	0.003386
1456.41	0.005326
1466.05	0.003966
1475.7	0.003996
1485.34	0.005766
1494.99	0.010196
1504.63	0.010706
1514.28	0.006906
1523.92	0.007576
1533.57	0.015356
1543.21	0.012196
1552.86	0.004546
1562.5	0.003106
1572.15	0.003026
1581.79	0.004026
1591.44	0.004026
1601.08	0.002036
1610.73	0.0013267
1620.37	0.0009413
1630.01	0.000781
1639.66	0.0007681
1649.3	0.0007917
1658.95	0.000792
1668.59	0.0006137
1678.24	0.0006495
1687.88	0.0007108
1697.53	0.0007116
1707.17	0.0006846
1716.82	0.0007283
1726.46	0.000622
1736.11	0.0005973
1745.75	0.0006797
1755.4	0.0006339
1765.04	0.00055584
1774.69	0.00054668
1784.33	0.00056327
1793.98	0.00054621
1803.62	0.0005662
1813.27	0.000457
1822.91	0.000505236
1832.55	0.0006319
1842.2	0.00056505
1851.84	0.0006658
1861.49	0.0005564
1871.13	0.00052922
1880.78	0.00056571
1890.42	0.00055406
1900.07	0.00054994
1909.71	0.00059547
1919.36	0.00055951
1929	0.0006281
1938.65	0.00058879
1948.29	0.0007029
1957.94	0.00058803
1967.58	0.0007019
1977.23	0.0006866
1986.87	0.0006885
1996.52	0.0006783
2006.16	0.0006084
2015.81	0.00057509
2025.45	0.0006934
2035.1	0.00055401
2044.74	0.0006
2054.38	0.0006969
2064.03	0.0007651
2073.67	0.00054314
2083.32	0.00054772
2092.96	0.000661
2102.61	0.00057887
2112.25	0.00055427
2121.9	0.00056348
2131.54	0.00052184
2141.19	0.0004804
2150.83	0.00052701
2160.48	0.0004735
2170.12	0.00052693
2179.77	0.0006004
2189.41	0.0005712
2199.06	0.0004778
2208.7	0.00049087
2218.35	0.0006809
2227.99	0.00051019
2237.64	0.00056293
2247.28	0.00057638
2256.92	0.00052991
2266.57	0.00051732
2276.21	0.0006273
2285.86	0.00058444
2295.5	0.0004596
2305.15	0.00057047
2314.79	0.00052014
2324.44	0.0004655
2334.08	0.00056622
2343.73	0.00052723
2353.37	0.00057758
2363.02	0.00056277
2372.66	0.00053564
2382.31	0.00054399
2391.95	0.0004709
2401.6	0.00055828
2411.24	0.0004404
2420.89	0.0004857
2430.53	0.0005663
2440.18	0.00055266
2449.82	0.0004785
2459.47	0.0005307
2469.11	0.00043
2478.75	0.0005357
2488.4	0.00056685
2498.04	0.0006363
2507.69	0.000673
2517.33	0.00059118
2526.98	0.000676
2536.62	0.000497593
2546.27	0.000627
2555.91	0.0006704
2565.56	0.0006423
2575.2	0.0007188
2584.85	0.0006727
2594.49	0.0008669
2604.14	0.0006804
2613.78	0.00051254
2623.43	0.0006108
2633.07	0.0006644
2642.72	0.0006654
2652.36	0.0006815
2662.01	0.000598
2671.65	0.00055507
2681.29	0.0007794
2690.94	0.0006849
2700.58	0.0007891
2710.23	0.0009063
2719.87	0.0010123
2729.52	0.0008371
2739.16	0.0010671
2748.81	0.0009531
2758.45	0.000937
2768.1	0.0011217
2777.74	0.001078
2787.39	0.0013201
2797.03	0.001606
2806.68	0.001706
2816.32	0.001696
2825.97	0.001986
2835.61	0.002466
2845.26	0.003556
2854.9	0.006236
2864.55	0.008256
2874.19	0.007996
2883.84	0.007266
2893.48	0.007096
2903.12	0.006516
2912.77	0.006256
2922.41	0.006646
2932.06	0.007126
2941.7	0.006926
2951.35	0.006126
2960.99	0.004576
2970.64	0.003446
2980.28	0.002456
2989.93	0.001616
2999.57	0.001257
3009.22	0.0007801
3018.86	0.0010101
3028.51	0.0006816
3038.15	0.0007237
3047.8	0.00049214
3057.44	0.0008002
3067.09	0.0007709
3076.73	0.0006874
3086.38	0.0008525
3096.02	0.0008825
3105.67	0.00056272
3115.31	0.0006614
3124.95	0.00052564
3134.6	0.0006675
3144.24	0.000369
3153.89	0.0004645
3163.53	0.0006307
3173.18	0.000344
3182.82	0.000368
3192.47	0.000325
3202.11	0.0004807
3211.76	0.0005069
3221.4	0.00057687
3231.05	0.00059427
3240.69	0.0005981
3250.34	0.000368
3259.98	0.00056476
3269.63	0.00035
3279.27	0.000359
3288.92	0.00049321
3298.56	0.000194
3308.21	0.000348
3317.85	0.000329
3327.49	0.000226
3337.14	0.000302
3346.78	0.00051496
3356.43	0.0004126
3366.07	0.00055279
3375.72	0.000378
3385.36	0.0004711
3395.01	0.000379
3404.65	0.000666
3414.3	0.000343
3423.94	0.00059053
3433.59	0.000371
3443.23	0.0004601
3452.88	0.000256
3462.52	0.0006252
3472.17	0.000233
3481.81	0.0004407
3491.46	0.000314
3501.1	0.000294
3510.75	0.0006781
3520.39	0.000394
3530.04	0.000204
3539.68	0.00051318
3549.32	0.000267
3558.97	0.000394
3568.61	0.000312
3578.26	0.000263
3587.9	0.00054359
3597.55	0.0003961
3607.19	0.00052091
3616.84	0.000294
3626.48	0.0004753
3636.13	0.0004981
3645.77	0.000197
3655.42	0.00058234
3665.06	0.000357
3674.71	0.000396
3684.35	0.000375
3694	0.000106
3703.64	0.00055291
3713.29	0.0004489
3722.93	0.00048703
3732.58	0.00049295
3742.22	0.0004837
3751.86	0.0006671
3761.51	0.000248
3771.15	0.000171
3780.8	0.000332
3790.44	0.0003
3800.09	0.000364
3809.73	0.000299
3819.38	0.000343
3829.02	0.000364
3838.67	0.00052535
3848.31	0.000227
3857.96	0.00036
3867.6	0.0007004
3877.25	0.000384
3886.89	0.0005343
3896.54	0.000174
3906.18	0.00055013
3915.83	0.0004134
3925.47	0.00058816
3935.12	0.000341
3944.76	0.0006817
3954.41	0.000438
3964.05	0.00051005
3973.69	0.00053234
3983.34	0.00054628
3992.98	0.0006498
