Infrared Spectrum: 2,4,6-Trimethyl-4-heptanol
Formula: C 10 H 22 O
CAS: 60836-07-9
State: gas
Instrument: HP-GC/MS/IRD
Origin: NIST Mass Spectrometry Data Center
1/CM	ABSORBANCE
550	0.0006612
562	0.000304
574	0.0003648
586	0.0004104
598	0.0003648
610	0.0002812
622	0.0001786
634	0.0001824
646	0.000114
658	0.0001178
670	0.0001368
682	6.46e-05
694	8.36e-05
706	9.88e-05
718	1.9e-05
730	0.0001026
742	0.00019
754	0.0004484
766	0.0005396
778	0.0002698
790	9.5e-05
802	0.0002014
814	0.0003268
826	0.0004522
838	0.0005966
850	0.0009196
862	0.0013718
874	0.0010982
886	0.0006422
898	0.0007904
910	0.0014934
922	0.002356
934	0.0024244
946	0.0016416
958	0.0010602
970	0.0010906
982	0.0009006
994	0.000589
1006	0.0006688
1018	0.001292
1030	0.0018468
1042	0.0014402
1054	0.0013452
1066	0.001767
1078	0.0019836
1090	0.001881
1102	0.0018506
1114	0.0020406
1126	0.0026752
1138	0.0037658
1150	0.005225
1162	0.0069958
1174	0.0059318
1186	0.0034162
1198	0.0022344
1210	0.0018734
1222	0.001938
1234	0.0021736
1246	0.0022154
1258	0.0022648
1270	0.0023674
1282	0.0024434
1294	0.0025042
1306	0.0024016
1318	0.0022154
1330	0.002223
1342	0.0028044
1354	0.0042788
1366	0.006042
1378	0.006802
1390	0.0051186
1402	0.0025308
1414	0.0015048
1426	0.0015542
1438	0.0022116
1450	0.0033478
1462	0.004788
1474	0.0045828
1486	0.0023066
1498	0.0010336
1510	0.0005814
1522	0.0003724
1534	0.0002812
1546	0.0002242
1558	0.0002014
1570	0.0001824
1582	0.000171
1594	0.0001558
1606	0.0001596
1618	0.0001672
1630	0.0001596
1642	0.0001634
1654	0.0001824
1666	0.0001558
1678	0.0001368
1690	0.0001444
1702	0.0001444
1714	0.0001178
1726	7.98e-05
1738	7.22e-05
1750	6.84e-05
1762	5.7e-05
1774	5.32e-05
1786	5.32e-05
1798	4.94e-05
1810	4.56e-05
1822	4.18e-05
1834	3.8e-05
1846	1.9e-05
1858	7.6e-06
1870	1.9e-05
1882	2.28e-05
1894	2.66e-05
1906	1.52e-05
1918	1.9e-05
1930	2.28e-05
1942	1.52e-05
1954	0
1966	2.28e-05
1978	7.6e-06
1990	2.66e-05
2002	2.66e-05
2014	1.14e-05
2026	1.14e-05
2038	0
2050	2.66e-05
2062	1.52e-05
2074	1.14e-05
2086	1.52e-05
2098	1.9e-05
2110	4.18e-05
2122	4.18e-05
2134	3.8e-05
2146	3.8e-05
2158	2.66e-05
2170	2.66e-05
2182	4.18e-05
2194	6.08e-05
2206	4.56e-05
2218	6.08e-05
2230	3.8e-05
2242	3.42e-05
2254	2.66e-05
2266	5.7e-05
2278	5.32e-05
2290	4.94e-05
2302	4.56e-05
2314	2.28e-05
2326	3.04e-05
2338	2.28e-05
2350	1.52e-05
2362	0
2374	4.94e-05
2386	6.46e-05
2398	7.22e-05
2410	7.6e-05
2422	3.04e-05
2434	2.66e-05
2446	3.04e-05
2458	5.32e-05
2470	3.04e-05
2482	3.8e-05
2494	4.94e-05
2506	2.28e-05
2518	1.52e-05
2530	4.94e-05
2542	6.08e-05
2554	5.7e-05
2566	0.0001064
2578	0.0001064
2590	0.0001482
2602	0.0001558
2614	0.0001824
2626	0.00019
2638	0.0002242
2650	0.0002052
2662	0.0001862
2674	0.0002204
2686	0.0002584
2698	0.0002964
2710	0.000418
2722	0.0005928
2734	0.0006954
2746	0.0006042
2758	0.0005586
2770	0.0006422
2782	0.0007182
2794	0.0008398
2806	0.0011058
2818	0.0015352
2830	0.0021964
2842	0.0033478
2854	0.0047652
2866	0.0076798
2878	0.0131746
2890	0.0130074
2902	0.0140942
2914	0.0191824
2926	0.0220742
2938	0.0228494
2950	0.025821
2962	0.0379924
2974	0.028937
2986	0.014953
2998	0.0070414
3010	0.0031882
3022	0.0017062
3034	0.0011438
3046	0.0008398
3058	0.000722
3070	0.0006726
3082	0.0006384
3094	0.00057
3106	0.0005054
3118	0.0004598
3130	0.000418
3142	0.000437
3154	0.0004256
3166	0.0004142
3178	0.0004028
3190	0.0004256
3202	0.0003344
3214	0.0002622
3226	0.000171
3238	0.0001368
3250	0.0001178
3262	7.98e-05
3274	7.6e-05
3286	7.6e-05
3298	6.46e-05
3310	9.12e-05
3322	6.46e-05
3334	6.08e-05
3346	0.0001064
3358	0.0001064
3370	0.0001064
3382	0.0001444
3394	0.0001444
3406	0.0001406
3418	8.74e-05
3430	9.88e-05
3442	7.98e-05
3454	4.94e-05
3466	9.12e-05
3478	6.84e-05
3490	8.36e-05
3502	6.08e-05
3514	7.22e-05
3526	7.22e-05
3538	4.94e-05
3550	3.04e-05
3562	5.7e-05
3574	5.7e-05
3586	6.08e-05
3598	7.22e-05
3610	0.0001672
3622	0.0004598
3634	0.0011324
3646	0.001159
3658	0.0005852
3670	0.0003002
3682	0.0001634
3694	0.0001178
3706	4.18e-05
3718	6.08e-05
3730	6.84e-05
3742	9.12e-05
3754	0.0001064
3766	4.56e-05
3778	0.0001216
3790	0.0001064
3802	0.000114
3814	0.0001596
3826	0.000171
3838	0.0001254
