Infrared Spectrum: 3,5-DINITROSALICYLIC ACID
Formula: C7 H4 N2 O7
CAS: 609-99-4
State: SOLID (MINERAL OIL MULL)
Melting point: 172-174 C
Class: COBLENTZ
Instrument: Not specified, most likely a prism, grating, or hybrid spectrometer.
Sampling: TRANSMISSION
Resolution: 4
Origin: WYANDOTTE CHEMICALS CORP., WYANDOTTE, MICHIGAN, USA
MICROMETERS	TRANSMITTANCE
2.02	0.351
2.061	0.351
2.10199	0.351
2.14299	0.351
2.18399	0.353
2.22499	0.356
2.26598	0.361
2.30698	0.372
2.34798	0.383
2.38897	0.397
2.42997	0.407
2.47097	0.414
2.51196	0.421
2.55296	0.441
2.59396	0.452
2.63496	0.467
2.67595	0.481
2.71695	0.489
2.75795	0.489
2.79894	0.489
2.83994	0.493
2.88094	0.5
2.92194	0.505
2.96293	0.505
3.00393	0.488
3.04493	0.414
3.08592	0.302
3.12692	0.235
3.16792	0.187
3.20891	0.179
3.24991	0.156
3.29091	0.163
3.33191	0.11
3.3729	0.034
3.4139	0.027
3.4549	0.044
3.49589	0.04
3.53689	0.206
3.57789	0.327
3.61889	0.368
3.65988	0.383
3.70088	0.389
3.74188	0.423
3.78287	0.435
3.82387	0.44
3.86487	0.447
3.90586	0.472
3.94686	0.498
3.98786	0.505
4.02886	0.508
4.06985	0.534
4.11085	0.535
4.15185	0.535
4.19284	0.571
4.23384	0.564
4.27484	0.568
4.31584	0.604
4.35683	0.643
4.39783	0.655
4.43883	0.648
4.47982	0.653
4.52082	0.663
4.56182	0.677
4.60281	0.692
4.64381	0.708
4.68481	0.715
4.72581	0.723
4.7668	0.733
4.8078	0.744
4.8488	0.754
4.88979	0.773
4.93079	0.786
4.97179	0.791
5.01279	0.798
5.05378	0.815
5.09478	0.822
5.13578	0.825
5.17677	0.829
5.21777	0.851
5.25877	0.822
5.29977	0.856
5.34076	0.885
5.38176	0.918
5.42276	0.88
5.46375	0.912
5.50475	0.923
5.54575	0.919
5.58674	0.933
5.62774	0.938
5.66874	0.904
5.70974	0.813
5.75073	0.82
5.79173	0.687
5.83273	0.402
5.87372	0.245
5.91472	0.131
5.95572	0.255
5.99672	0.418
6.03771	0.539
6.07871	0.54
6.11971	0.392
6.1607	0.226
6.2017	0.186
6.2427	0.237
6.28369	0.37
6.32469	0.513
6.36569	0.5
6.40669	0.366
6.44768	0.218
6.48868	0.121
6.52968	0.148
6.57067	0.213
6.61167	0.302
6.65267	0.375
6.69367	0.459
6.73466	0.419
6.77566	0.209
6.81666	0.126
6.85765	0.191
6.89865	0.168
6.93965	0.165
6.98064	0.204
7.02164	0.298
7.06264	0.433
7.10364	0.547
7.14463	0.595
7.18563	0.506
7.22663	0.252
7.26762	0.155
7.30862	0.168
7.34962	0.15
7.39062	0.076
7.43161	0.064
7.47261	0.081
7.51361	0.145
7.5546	0.208
7.5956	0.23
7.6366	0.187
7.67759	0.211
7.71859	0.175
7.75959	0.184
7.80059	0.284
7.84158	0.337
7.88258	0.37
7.92358	0.401
7.96457	0.418
8.00557	0.385
8.04657	0.298
8.08757	0.209
8.12856	0.156
8.16956	0.143
8.21056	0.163
8.25155	0.216
8.29255	0.303
8.33355	0.378
8.37454	0.457
8.41554	0.447
8.45654	0.235
8.49754	0.337
8.53853	0.336
8.57953	0.158
8.62053	0.131
8.66152	0.179
8.70252	0.22
8.74352	0.269
8.78452	0.302
8.82551	0.334
8.86651	0.351
8.90751	0.377
8.9485	0.406
8.9895	0.43
9.0305	0.436
9.07149	0.209
9.11249	0.139
9.15349	0.238
9.19449	0.303
9.23548	0.302
9.27648	0.334
9.31748	0.401
9.35847	0.443
9.39947	0.467
9.44047	0.496
9.48147	0.515
9.52246	0.532
9.56346	0.534
9.60446	0.539
9.64545	0.552
9.68645	0.564
9.72745	0.587
9.76844	0.593
9.80944	0.6
9.85044	0.61
9.89144	0.624
9.93243	0.639
9.97343	0.651
10.0144	0.653
10.0554	0.667
10.0964	0.682
10.1374	0.689
10.1784	0.699
10.2194	0.704
10.2604	0.706
10.3014	0.706
10.3424	0.704
10.3834	0.68
10.4244	0.542
10.4654	0.65
10.5064	0.732
10.5474	0.745
10.5884	0.745
10.6294	0.616
10.6704	0.549
10.7114	0.691
10.7524	0.728
10.7934	0.674
10.8344	0.385
10.8754	0.626
10.9164	0.68
10.9574	0.645
10.9984	0.506
11.0394	0.336
11.0804	0.423
11.1213	0.529
11.1623	0.593
11.2033	0.624
11.2443	0.653
11.2853	0.668
11.3263	0.684
11.3673	0.687
11.4083	0.696
11.4493	0.697
11.4903	0.699
11.5313	0.699
11.5723	0.686
11.6133	0.679
11.6543	0.674
11.6953	0.658
11.7363	0.653
11.7773	0.634
11.8183	0.616
11.8593	0.59
11.9003	0.566
11.9413	0.527
11.9823	0.477
12.0233	0.441
12.0643	0.407
12.1053	0.382
12.1463	0.372
12.1873	0.375
12.2283	0.38
12.2693	0.366
12.3103	0.334
12.3513	0.267
12.3923	0.201
12.4333	0.337
12.4743	0.592
12.5152	0.616
12.5562	0.552
12.5972	0.522
12.6382	0.547
12.6792	0.578
12.7202	0.575
12.7612	0.559
12.8022	0.527
12.8432	0.503
12.8842	0.486
12.9252	0.476
12.9662	0.477
13.0072	0.494
13.0482	0.539
13.0892	0.597
13.1302	0.643
13.1712	0.638
13.2122	0.566
13.2532	0.482
13.2942	0.428
13.3352	0.37
13.3762	0.276
13.4172	0.247
13.4582	0.271
13.4992	0.3
13.5402	0.332
13.5812	0.353
13.6222	0.387
13.6632	0.419
13.7042	0.431
13.7452	0.447
13.7862	0.453
13.8272	0.452
13.8682	0.428
13.9091	0.406
13.9501	0.353
13.9911	0.279
14.0321	0.226
14.0731	0.204
14.1141	0.213
14.1551	0.269
14.1961	0.331
14.2371	0.401
14.2781	0.453
14.3191	0.491
14.3601	0.505
14.4011	0.506
14.4421	0.503
14.4831	0.503
14.5241	0.5
14.5651	0.479
14.6061	0.441
14.6471	0.411
14.6881	0.37
14.7291	0.343
14.7701	0.312
14.8111	0.296
14.8521	0.3
14.8931	0.315
14.9341	0.343
14.9751	0.366
15.0161	0.378
15.0571	0.394
15.0981	0.407
15.1391	0.428
15.1801	0.464
15.2211	0.488
15.2621	0.498
15.303	0.501
15.344	0.479
15.385	0.45
15.426	0.43
15.467	0.419
15.508	0.419
15.549	0.44
15.59	0.464
15.631	0.476
15.672	0.481
15.713	0.489
15.754	0.486
15.795	0.482
15.836	0.484
15.877	0.484
15.918	0.481
15.959	0.469
