Infrared Spectrum: N,N-DIMETHYL-O-TOLUIDINE
Formula: C9 H13 N
CAS: 609-72-3
State: LIQUID
Boiling point: 70 C AT 10 mmHg
Class: COBLENTZ
Instrument: Not specified, most likely a prism, grating, or hybrid spectrometer.
Sampling: TRANSMISSION
Path length: 0.003 CM
Resolution: 4
Origin: WYANDOTTE CHEMICALS CORP., WYANDOTTE, MICHIGAN, USA
MICROMETERS	TRANSMITTANCE
2.048	0.976
2.08887	0.971
2.12975	0.95
2.17062	0.925
2.21149	0.928
2.25237	0.926
2.29324	0.935
2.33411	0.945
2.37499	0.936
2.41586	0.935
2.45674	0.943
2.49761	0.948
2.53848	0.955
2.57936	0.96
2.62023	0.967
2.6611	0.971
2.70198	0.964
2.74285	0.935
2.78372	0.931
2.8246	0.908
2.86547	0.894
2.90634	0.885
2.94722	0.88
2.98809	0.86
3.02896	0.821
3.06984	0.768
3.11071	0.732
3.15159	0.676
3.19246	0.562
3.23333	0.32
3.27421	0.25
3.31508	0.129
3.35595	0.063
3.39683	0.165
3.4377	0.131
3.47857	0.151
3.51945	0.272
3.56032	0.086
3.60119	0.386
3.64207	0.678
3.68294	0.747
3.72381	0.763
3.76469	0.734
3.80556	0.725
3.84644	0.725
3.88731	0.744
3.92818	0.764
3.96906	0.778
4.00993	0.776
4.0508	0.771
4.09168	0.798
4.13255	0.817
4.17342	0.817
4.2143	0.831
4.25517	0.86
4.29604	0.872
4.33692	0.868
4.37779	0.848
4.41867	0.868
4.45954	0.867
4.50041	0.86
4.54129	0.863
4.58216	0.868
4.62303	0.872
4.66391	0.872
4.70478	0.867
4.74565	0.85
4.78653	0.85
4.8274	0.865
4.86827	0.868
4.90915	0.863
4.95002	0.833
4.99089	0.827
5.03177	0.824
5.07264	0.833
5.11352	0.836
5.15439	0.819
5.19526	0.783
5.23614	0.79
5.27701	0.735
5.31788	0.792
5.35876	0.788
5.39963	0.795
5.4405	0.817
5.48138	0.8
5.52225	0.795
5.56312	0.761
5.604	0.683
5.64487	0.586
5.68574	0.522
5.72662	0.558
5.76749	0.385
5.80837	0.335
5.84924	0.584
5.89011	0.579
5.93099	0.623
5.97186	0.618
6.01273	0.657
6.05361	0.64
6.09448	0.604
6.13535	0.507
6.17623	0.1
6.2171	0.453
6.25797	0.362
6.29885	0.613
6.33972	0.691
6.38059	0.696
6.42147	0.666
6.46234	0.567
6.50322	0.516
6.54409	0.41
6.58496	0.204
6.62584	0.039
6.66671	0.122
6.70758	0.17
6.74846	0.173
6.78933	0.088
6.8302	0.052
6.87108	0.132
6.91195	0.231
6.95282	0.25
6.9937	0.361
7.03457	0.495
7.07544	0.555
7.11632	0.586
7.15719	0.565
7.19807	0.512
7.23894	0.398
7.27981	0.545
7.32069	0.587
7.36156	0.616
7.40243	0.597
7.44331	0.5
7.48418	0.386
7.52505	0.229
7.56593	0.083
7.6068	0.109
7.64767	0.221
7.68855	0.299
7.72942	0.34
7.77029	0.41
7.81117	0.483
7.85204	0.488
7.89292	0.444
7.93379	0.4
7.97466	0.39
8.01554	0.42
8.05641	0.456
8.09728	0.488
8.13816	0.499
8.17903	0.483
8.2199	0.361
8.26078	0.182
8.30165	0.32
8.34252	0.257
8.3834	0.119
8.42427	0.245
8.46515	0.419
8.50602	0.449
8.54689	0.32
8.58777	0.16
8.62864	0.09
8.66951	0.204
8.71039	0.335
8.75126	0.528
8.79213	0.586
8.83301	0.586
8.87388	0.522
8.91475	0.393
8.95563	0.107
8.9965	0.066
9.03737	0.24
9.07825	0.32
9.11912	0.497
9.16	0.601
9.20087	0.613
9.24174	0.626
9.28262	0.632
9.32349	0.604
9.36436	0.528
9.40524	0.366
9.44611	0.085
9.48698	0.083
9.52786	0.243
9.56873	0.393
9.6096	0.41
9.65048	0.504
9.69135	0.577
9.73222	0.594
9.7731	0.591
9.81397	0.582
9.85485	0.604
9.89572	0.616
9.93659	0.64
9.97747	0.659
10.0183	0.66
10.0592	0.623
10.1001	0.577
10.141	0.529
10.1818	0.572
10.2227	0.608
10.2636	0.632
10.3045	0.632
10.3453	0.614
10.3862	0.575
10.4271	0.5
10.4679	0.335
10.5088	0.17
10.5497	0.04
10.5906	0.074
10.6314	0.24
10.6723	0.373
10.7132	0.429
10.7541	0.451
10.7949	0.516
10.8358	0.628
10.8767	0.671
10.9176	0.691
10.9584	0.7
10.9993	0.72
11.0402	0.734
11.0811	0.742
11.1219	0.749
11.1628	0.751
11.2037	0.754
11.2445	0.758
11.2854	0.761
11.3263	0.759
11.3672	0.747
11.408	0.727
11.4489	0.737
11.4898	0.741
11.5307	0.746
11.5715	0.742
11.6124	0.729
11.6533	0.72
11.6942	0.701
11.735	0.703
11.7759	0.729
11.8168	0.751
11.8576	0.756
11.8985	0.763
11.9394	0.763
11.9803	0.763
12.0211	0.759
12.062	0.756
12.1029	0.754
12.1438	0.758
12.1846	0.754
12.2255	0.744
12.2664	0.729
12.3073	0.7
12.3481	0.584
12.389	0.591
12.4299	0.672
12.4708	0.708
12.5116	0.71
12.5525	0.686
12.5934	0.654
12.6342	0.618
12.6751	0.592
12.716	0.579
12.7569	0.577
12.7977	0.551
12.8386	0.509
12.8795	0.424
12.9204	0.281
12.9612	0.136
13.0021	0.059
13.043	0.04
13.0839	0.037
13.1247	0.047
13.1656	0.093
13.2065	0.226
13.2473	0.337
13.2882	0.459
13.3291	0.54
13.37	0.579
13.4108	0.603
13.4517	0.613
13.4926	0.609
13.5335	0.586
13.5743	0.541
13.6152	0.465
13.6561	0.379
13.697	0.207
13.7378	0.088
13.7787	0.059
13.8196	0.061
13.8605	0.124
13.9013	0.241
13.9422	0.347
13.9831	0.425
14.0239	0.441
14.0648	0.439
14.1057	0.461
14.1466	0.522
14.1874	0.584
14.2283	0.633
14.2692	0.667
14.3101	0.686
14.3509	0.715
14.3918	0.724
14.4327	0.741
14.4736	0.749
14.5144	0.746
14.5553	0.749
14.5962	0.752
14.637	0.756
14.6779	0.758
14.7188	0.758
14.7597	0.752
14.8005	0.749
14.8414	0.751
14.8823	0.749
14.9232	0.746
14.964	0.735
15.0049	0.705
15.0458	0.7
15.0867	0.717
15.1275	0.732
15.1684	0.72
15.2093	0.718
15.2502	0.717
15.291	0.708
15.3319	0.705
15.3728	0.698
15.4136	0.695
15.4545	0.693
15.4954	0.686
15.5363	0.683
15.5771	0.678
15.618	0.672
15.6589	0.664
15.6998	0.66
15.7406	0.649
15.7815	0.642
15.8224	0.64
15.8633	0.625
15.9041	0.62
15.945	0.618
15.9859	0.616
