Infrared Spectrum: 2,4,6-TRIIODOPHENOL
Formula: C6 H3 I3 O
CAS: 609-23-4
State: SOLID (MINERAL OIL MULL)
Melting point: 156-158 C
Class: COBLENTZ
Instrument: Not specified, most likely a prism, grating, or hybrid spectrometer.
Sampling: TRANSMISSION
Resolution: 4
Origin: WYANDOTTE CHEMICALS CORP., WYANDOTTE, MICHIGAN, USA
MICROMETERS	TRANSMITTANCE
2.019	0.082
2.05617	0.082
2.09334	0.086
2.1305	0.09
2.16767	0.09
2.20484	0.093
2.24201	0.097
2.27918	0.108
2.31634	0.108
2.35351	0.11
2.39068	0.116
2.42785	0.114
2.46502	0.116
2.50219	0.122
2.53935	0.125
2.57652	0.125
2.61369	0.131
2.65086	0.135
2.68803	0.139
2.72519	0.141
2.76236	0.142
2.79953	0.142
2.8367	0.142
2.87387	0.141
2.91103	0.104
2.9482	0.071
2.98537	0.091
3.02254	0.127
3.05971	0.142
3.09688	0.145
3.13404	0.153
3.17121	0.155
3.20838	0.158
3.24555	0.153
3.28272	0.128
3.31988	0.121
3.35705	0.055
3.39422	0.027
3.43139	0.021
3.46856	0.035
3.50572	0.035
3.54289	0.13
3.58006	0.228
3.61723	0.265
3.6544	0.268
3.69157	0.26
3.72873	0.274
3.7659	0.271
3.80307	0.288
3.84024	0.298
3.87741	0.301
3.91457	0.309
3.95174	0.324
3.98891	0.327
4.02608	0.336
4.06325	0.344
4.10041	0.349
4.13758	0.355
4.17475	0.357
4.21192	0.368
4.24909	0.375
4.28625	0.378
4.32342	0.385
4.36059	0.388
4.39776	0.399
4.43493	0.416
4.4721	0.414
4.50926	0.42
4.54643	0.422
4.5836	0.436
4.62077	0.445
4.65794	0.448
4.6951	0.451
4.73227	0.453
4.76944	0.476
4.80661	0.481
4.84378	0.486
4.88094	0.484
4.91811	0.492
4.95528	0.493
4.99245	0.507
5.02962	0.517
5.06679	0.526
5.10395	0.531
5.14112	0.534
5.17829	0.534
5.21546	0.538
5.25263	0.554
5.28979	0.565
5.32696	0.566
5.36413	0.571
5.4013	0.583
5.43847	0.585
5.47563	0.591
5.5128	0.594
5.54997	0.6
5.58714	0.602
5.62431	0.611
5.66148	0.61
5.69864	0.611
5.73581	0.607
5.77298	0.562
5.81015	0.602
5.84732	0.594
5.88448	0.6
5.92165	0.586
5.95882	0.585
5.99599	0.602
6.03316	0.602
6.07032	0.604
6.10749	0.605
6.14466	0.605
6.18183	0.608
6.219	0.618
6.25616	0.638
6.29333	0.641
6.3305	0.655
6.36767	0.647
6.40484	0.607
6.44201	0.537
6.47917	0.548
6.51634	0.583
6.55351	0.588
6.59068	0.619
6.62785	0.641
6.66501	0.636
6.70218	0.597
6.73935	0.51
6.77652	0.281
6.81369	0.173
6.85085	0.225
6.88802	0.257
6.92519	0.111
6.96236	0.043
6.99953	0.223
7.0367	0.431
7.07386	0.529
7.11103	0.498
7.1482	0.461
7.18537	0.51
7.22254	0.399
7.2597	0.267
7.29687	0.152
7.33404	0.416
7.37121	0.562
7.40838	0.593
7.44554	0.621
7.48271	0.659
7.51988	0.562
7.55705	0.593
7.59422	0.63
7.63139	0.408
7.66855	0.217
7.70572	0.142
7.74289	0.222
7.78006	0.476
7.81723	0.554
7.85439	0.406
7.89156	0.319
7.92873	0.333
7.9659	0.403
8.00307	0.569
8.04023	0.614
8.0774	0.492
8.11457	0.173
8.15174	0.363
8.18891	0.554
8.22607	0.604
8.26324	0.6
8.30041	0.585
8.33758	0.614
8.37475	0.664
8.41192	0.669
8.44908	0.616
8.48625	0.414
8.52342	0.262
8.56059	0.444
8.59776	0.546
8.63492	0.571
8.67209	0.399
8.70926	0.178
8.74643	0.102
8.7836	0.099
8.82076	0.127
8.85793	0.225
8.8951	0.31
8.93227	0.38
8.96944	0.42
9.00661	0.453
9.04377	0.47
9.08094	0.498
9.11811	0.518
9.15528	0.532
9.19245	0.529
9.22961	0.538
9.26678	0.545
9.30395	0.571
9.34112	0.588
9.37829	0.599
9.41545	0.621
9.45262	0.639
9.48979	0.65
9.52696	0.661
9.56413	0.656
9.6013	0.65
9.63846	0.664
9.67563	0.673
9.7128	0.683
9.74997	0.69
9.78714	0.698
9.8243	0.715
9.86147	0.729
9.89864	0.737
9.93581	0.746
9.97298	0.757
10.0101	0.77
10.0473	0.773
10.0845	0.779
10.1216	0.779
10.1588	0.782
10.196	0.788
10.2332	0.791
10.2703	0.79
10.3075	0.79
10.3447	0.798
10.3818	0.801
10.419	0.798
10.4562	0.802
10.4933	0.804
10.5305	0.813
10.5677	0.816
10.6048	0.813
10.642	0.819
10.6792	0.821
10.7163	0.819
10.7535	0.826
10.7907	0.827
10.8278	0.83
10.865	0.833
10.9022	0.833
10.9393	0.85
10.9765	0.861
11.0137	0.872
11.0509	0.872
11.088	0.88
11.1252	0.88
11.1624	0.883
11.1995	0.88
11.2367	0.877
11.2739	0.871
11.311	0.878
11.3482	0.85
11.3854	0.835
11.4225	0.86
11.4597	0.881
11.4969	0.895
11.534	0.866
11.5712	0.746
11.6084	0.503
11.6455	0.167
11.6827	0.149
11.7199	0.437
11.757	0.677
11.7942	0.782
11.8314	0.824
11.8686	0.84
11.9057	0.861
11.9429	0.868
11.9801	0.874
12.0172	0.877
12.0544	0.863
12.0916	0.864
12.1287	0.878
12.1659	0.894
12.2031	0.909
12.2402	0.914
12.2774	0.909
12.3146	0.908
12.3517	0.909
12.3889	0.908
12.4261	0.914
12.4632	0.913
12.5004	0.919
12.5376	0.922
12.5747	0.92
12.6119	0.919
12.6491	0.917
12.6862	0.919
12.7234	0.914
12.7606	0.914
12.7978	0.914
12.8349	0.909
12.8721	0.909
12.9093	0.908
12.9464	0.909
12.9836	0.909
13.0208	0.908
13.0579	0.911
13.0951	0.911
13.1323	0.913
13.1694	0.909
13.2066	0.914
13.2438	0.911
13.2809	0.911
13.3181	0.914
13.3553	0.914
13.3924	0.911
13.4296	0.911
13.4668	0.909
13.5039	0.899
13.5411	0.891
13.5783	0.894
13.6155	0.878
13.6526	0.883
13.6898	0.878
13.727	0.875
13.7641	0.874
13.8013	0.875
13.8385	0.869
13.8756	0.852
13.9128	0.849
13.95	0.861
13.9871	0.881
14.0243	0.895
14.0615	0.892
14.0986	0.886
14.1358	0.85
14.173	0.801
14.2101	0.701
14.2473	0.577
14.2845	0.437
14.3216	0.378
14.3588	0.405
14.396	0.496
14.4331	0.58
14.4703	0.653
14.5075	0.715
14.5447	0.754
14.5818	0.785
14.619	0.805
14.6562	0.83
14.6933	0.838
14.7305	0.835
14.7677	0.833
14.8048	0.832
14.842	0.826
14.8792	0.822
14.9163	0.821
14.9535	0.819
14.9907	0.763
15.0278	0.692
15.065	0.628
15.1022	0.614
15.1393	0.647
15.1765	0.672
15.2137	0.689
15.2508	0.68
15.288	0.672
15.3252	0.669
15.3624	0.664
15.3995	0.636
15.4367	0.618
15.4739	0.591
15.511	0.569
15.5482	0.554
15.5854	0.534
15.6225	0.503
15.6597	0.5
15.6969	0.468
15.734	0.468
15.7712	0.448
15.8084	0.409
15.8455	0.378
15.8827	0.361
15.9199	0.347
15.957	0.341
15.9942	0.347
