Infrared Spectrum: 3-Ethyl-2-methylpentane
Formula: C 8 H 18
CAS: 609-26-7
State: gas
Instrument: HP-GC/MS/IRD
Origin: NIST Mass Spectrometry Data Center
1/CM	ABSORBANCE
550	0.0002786
562	8.4e-05
574	0.0001736
586	5.11e-05
598	0.0001498
610	0.0001386
622	0.0001295
634	0.000119
646	0.0001274
658	9.03e-05
670	4.69e-05
682	9.1e-05
694	1.4e-06
706	0.0001512
718	0.0001267
730	8.82e-05
742	0.0001057
754	0.0001232
766	0.0001617
778	0.0001659
790	0.0001589
802	0.0001526
814	0.0001218
826	9.03e-05
838	0.0002198
850	0.0001862
862	0.0001267
874	0.0001239
886	0.0001869
898	0.0001687
910	0.0001939
922	0.0002149
934	0.0002086
946	0.0001694
958	0.0001421
970	8.82e-05
982	0.0001211
994	0.0001113
1006	0.000182
1018	0.0001491
1030	0.0002037
1042	0.0001519
1054	0.0001148
1066	0.0001078
1078	0.0001078
1090	0.00014
1102	0.0001736
1114	0.0002303
1126	0.0002961
1138	0.0002758
1150	0.000238
1162	0.0002247
1174	0.0002282
1186	0.0002527
1198	0.0002261
1210	0.0001953
1222	0.0002345
1234	0.0001988
1246	0.0001848
1258	0.000231
1270	0.0002338
1282	0.000231
1294	0.000273
1306	0.0002289
1318	0.0002877
1330	0.0002779
1342	0.0002289
1354	0.0003255
1366	0.0005131
1378	0.0007623
1390	0.0007966
1402	0.0004711
1414	0.0002555
1426	0.0002576
1438	0.0003192
1450	0.0005915
1462	0.0008925
1474	0.0008554
1486	0.000539
1498	0.0003178
1510	0.0002261
1522	0.0001855
1534	0.0001701
1546	0.0001575
1558	0.0001659
1570	0.000126
1582	0.0001323
1594	0.0001638
1606	0.0001218
1618	0.0001267
1630	0.0001288
1642	0.0001274
1654	0.0001582
1666	0.0001414
1678	0.0001267
1690	0.0001533
1702	0.0001358
1714	0.0001484
1726	0.000119
1738	0.000133
1750	0.0001169
1762	0.0001043
1774	0.0001351
1786	0.0001001
1798	0.0001106
1810	0.0001071
1822	0.0001232
1834	0.000105
1846	0.0001029
1858	0.0001001
1870	9.45e-05
1882	9.31e-05
1894	8.33e-05
1906	8.33e-05
1918	7e-05
1930	7.28e-05
1942	7.77e-05
1954	7.21e-05
1966	7.21e-05
1978	6.23e-05
1990	8.19e-05
2002	6.44e-05
2014	8.33e-05
2026	7.14e-05
2038	7.28e-05
2050	5.39e-05
2062	7.42e-05
2074	7.07e-05
2086	6.51e-05
2098	8.19e-05
2110	8.82e-05
2122	5.39e-05
2134	3.64e-05
2146	3.92e-05
2158	5.39e-05
2170	4.34e-05
2182	6.3e-05
2194	4.83e-05
2206	3.29e-05
2218	6.16e-05
2230	4.13e-05
2242	5.32e-05
2254	3.99e-05
2266	3.36e-05
2278	5.46e-05
2290	3.85e-05
2302	2.87e-05
2314	2.24e-05
2326	2.1e-05
2338	2.45e-05
2350	3.43e-05
2362	3.57e-05
2374	4.06e-05
2386	3.92e-05
2398	4.48e-05
2410	3.5e-05
2422	2.73e-05
2434	2.73e-05
2446	2.31e-05
2458	5.18e-05
2470	3.08e-05
2482	5.6e-06
2494	2.52e-05
2506	2.1e-05
2518	1.68e-05
2530	3.85e-05
2542	2.38e-05
2554	9.8e-06
2566	3.78e-05
2578	4.13e-05
2590	7.14e-05
2602	8.4e-05
2614	5.53e-05
2626	6.86e-05
2638	6.58e-05
2650	6.86e-05
2662	5.81e-05
2674	3.29e-05
2686	4.27e-05
2698	6.16e-05
2710	7.42e-05
2722	0.0001071
2734	0.0001148
2746	0.0001015
2758	0.0001155
2770	0.0001162
2782	0.0001225
2794	0.0001295
2806	0.0001778
2818	0.0002387
2830	0.0003248
2842	0.0005173
2854	0.0010059
2866	0.0018452
2878	0.00287
2890	0.0030072
2902	0.0025312
2914	0.0026348
2926	0.0035294
2938	0.0042812
2950	0.0049042
2962	0.0066759
2974	0.006132
2986	0.0029946
2998	0.0011529
3010	0.0006055
3022	0.0004333
3034	0.0003339
3046	0.0002625
3058	0.0001876
3070	0.0001792
3082	0.0001764
3094	0.0001421
3106	0.000119
3118	0.0001232
3130	0.0001267
3142	8.89e-05
3154	0.0001043
3166	0.0001022
3178	6.58e-05
3190	8.19e-05
3202	5.32e-05
3214	4.83e-05
3226	4.76e-05
3238	2.03e-05
3250	3.5e-06
3262	5.04e-05
3274	1.33e-05
3286	4.48e-05
3298	8.4e-06
3310	8.4e-06
3322	4.69e-05
3334	5.11e-05
3346	4.13e-05
3358	4.48e-05
3370	3.78e-05
3382	6.09e-05
3394	4.97e-05
3406	4.62e-05
3418	3.5e-05
3430	6.58e-05
3442	3.15e-05
3454	2.87e-05
3466	4.83e-05
3478	7e-05
3490	4.76e-05
3502	6.02e-05
3514	6.65e-05
3526	4.83e-05
3538	3.78e-05
3550	0.0001176
3562	4.06e-05
3574	9.17e-05
3586	7.14e-05
3598	6.58e-05
3610	9.38e-05
3622	6.72e-05
3634	0.0001001
3646	7.84e-05
3658	6.86e-05
3670	9.31e-05
3682	3.43e-05
3694	7e-05
3706	7.7e-05
3718	5.88e-05
3730	9.31e-05
3742	5.67e-05
3754	8.4e-05
3766	9.59e-05
3778	7.35e-05
3790	7.42e-05
3802	6.51e-05
3814	2.17e-05
3826	7.84e-05
3838	7e-05
