Infrared Spectrum: 2-NITROTHIOPHENE
Formula: C4 H3 N O2 S
CAS: 609-40-5
State: SOLID (OIL MULL)
Melting point: 42-44 C
Class: COBLENTZ
Instrument: Not specified, most likely a prism, grating, or hybrid spectrometer.
Sampling: TRANSMISSION
Resolution: 4
Origin: WYANDOTTE CHEMICALS CORP., WYANDOTTE, MICHIGAN, USA
MICROMETERS	TRANSMITTANCE
2.028	0.339
2.06795	0.341
2.10789	0.346
2.14784	0.351
2.18778	0.347
2.22773	0.347
2.26768	0.349
2.30762	0.346
2.34757	0.351
2.38751	0.352
2.42746	0.357
2.4674	0.356
2.50735	0.359
2.5473	0.362
2.58724	0.364
2.62719	0.371
2.66713	0.376
2.70708	0.376
2.74703	0.382
2.78697	0.377
2.82692	0.381
2.86686	0.377
2.90681	0.377
2.94675	0.377
2.9867	0.379
3.02665	0.379
3.06659	0.379
3.10654	0.379
3.14648	0.376
3.18643	0.352
3.22638	0.207
3.26632	0.301
3.30627	0.282
3.34621	0.133
3.38616	0.076
3.4261	0.079
3.46605	0.119
3.506	0.141
3.54594	0.357
3.58589	0.469
3.62583	0.49
3.66578	0.462
3.70573	0.465
3.74567	0.469
3.78562	0.472
3.82556	0.487
3.86551	0.505
3.90545	0.504
3.9454	0.515
3.98535	0.534
4.02529	0.535
4.06524	0.534
4.10518	0.505
4.14513	0.53
4.18508	0.532
4.22502	0.555
4.26497	0.549
4.30491	0.549
4.34486	0.562
4.3848	0.574
4.42475	0.58
4.4647	0.59
4.50464	0.6
4.54459	0.608
4.58453	0.615
4.62448	0.622
4.66443	0.63
4.70437	0.633
4.74432	0.645
4.78426	0.655
4.82421	0.663
4.86415	0.668
4.9041	0.663
4.94405	0.667
4.98399	0.685
5.02394	0.7
5.06388	0.702
5.10383	0.72
5.14378	0.733
5.18372	0.74
5.22367	0.75
5.26361	0.757
5.30356	0.768
5.3435	0.772
5.38345	0.792
5.4234	0.78
5.46334	0.76
5.50329	0.798
5.54323	0.83
5.58318	0.823
5.62313	0.748
5.66307	0.818
5.70302	0.841
5.74296	0.843
5.78291	0.778
5.82285	0.833
5.8628	0.861
5.90275	0.881
5.94269	0.916
5.98264	0.935
6.02258	0.906
6.06253	0.951
6.10248	0.95
6.14242	0.881
6.18237	0.816
6.22231	0.865
6.26226	0.936
6.3022	0.918
6.34215	0.826
6.3821	0.608
6.42204	0.574
6.46199	0.359
6.50193	0.144
6.54188	0.174
6.58183	0.339
6.62177	0.159
6.66172	0.076
6.70166	0.109
6.74161	0.154
6.78155	0.188
6.8215	0.244
6.86145	0.376
6.90139	0.497
6.94134	0.497
6.98128	0.595
7.02123	0.66
7.06118	0.718
7.10112	0.424
7.14107	0.111
7.18101	0.113
7.22096	0.143
7.2609	0.139
7.30085	0.123
7.3408	0.104
7.38074	0.101
7.42069	0.058
7.46063	0.083
7.50058	0.091
7.54053	0.098
7.58047	0.101
7.62042	0.103
7.66036	0.113
7.70031	0.114
7.74025	0.133
7.7802	0.159
7.82015	0.169
7.86009	0.196
7.90004	0.221
7.93998	0.244
7.97993	0.277
8.01988	0.242
8.05982	0.244
8.09977	0.183
8.13971	0.281
8.17966	0.337
8.2196	0.367
8.25955	0.339
8.2995	0.366
8.33944	0.402
8.37939	0.419
8.41933	0.42
8.45928	0.422
8.49923	0.444
8.53917	0.464
8.57912	0.487
8.61906	0.505
8.65901	0.524
8.69895	0.534
8.7389	0.547
8.77885	0.552
8.81879	0.4
8.85874	0.475
8.89868	0.579
8.93863	0.457
8.97858	0.482
9.01852	0.542
9.05847	0.613
9.09841	0.642
9.13836	0.665
9.1783	0.612
9.21825	0.4
9.2582	0.567
9.29814	0.638
9.33809	0.623
9.37803	0.597
9.41798	0.697
9.45793	0.757
9.49787	0.795
9.53782	0.856
9.57776	0.918
9.61771	0.605
9.65765	0.144
9.6976	0.129
9.73755	0.261
9.77749	0.387
9.81744	0.465
9.85738	0.51
9.89733	0.549
9.93728	0.577
9.97722	0.597
10.0172	0.618
10.0571	0.633
10.0971	0.648
10.137	0.665
10.177	0.663
10.2169	0.675
10.2568	0.678
10.2968	0.677
10.3367	0.688
10.3767	0.695
10.4166	0.702
10.4566	0.712
10.4965	0.725
10.5365	0.73
10.5764	0.735
10.6164	0.743
10.6563	0.74
10.6962	0.738
10.7362	0.738
10.7761	0.738
10.8161	0.712
10.856	0.728
10.896	0.768
10.9359	0.793
10.9759	0.81
11.0158	0.818
11.0558	0.826
11.0957	0.833
11.1357	0.835
11.1756	0.826
11.2155	0.83
11.2555	0.738
11.2954	0.585
11.3354	0.627
11.3753	0.71
11.4153	0.762
11.4552	0.762
11.4952	0.71
11.5351	0.602
11.5751	0.522
11.615	0.314
11.6549	0.194
11.6949	0.339
11.7348	0.615
11.7748	0.783
11.8147	0.835
11.8547	0.88
11.8946	0.905
11.9346	0.913
11.9745	0.69
12.0145	0.48
12.0544	0.643
12.0944	0.732
12.1343	0.692
12.1742	0.657
12.2142	0.552
12.2541	0.222
12.2941	0.108
12.334	0.193
12.374	0.422
12.4139	0.529
12.4539	0.582
12.4938	0.615
12.5338	0.642
12.5737	0.658
12.6136	0.67
12.6536	0.682
12.6935	0.695
12.7335	0.703
12.7734	0.717
12.8134	0.675
12.8533	0.499
12.8933	0.469
12.9332	0.544
12.9732	0.587
13.0131	0.594
13.0531	0.587
13.093	0.577
13.1329	0.555
13.1729	0.514
13.2128	0.399
13.2528	0.237
13.2927	0.184
13.3327	0.169
13.3726	0.144
13.4126	0.119
13.4525	0.103
13.4925	0.096
13.5324	0.091
13.5723	0.094
13.6123	0.118
13.6522	0.198
13.6922	0.291
13.7321	0.272
13.7721	0.224
13.812	0.326
13.852	0.459
13.8919	0.542
13.9319	0.608
13.9718	0.642
14.0118	0.642
14.0517	0.638
14.0916	0.66
14.1316	0.725
14.1715	0.777
14.2115	0.816
14.2514	0.825
14.2914	0.853
14.3313	0.87
14.3713	0.881
14.4112	0.903
14.4512	0.911
14.4911	0.921
14.531	0.926
14.571	0.936
14.6109	0.94
14.6509	0.941
14.6908	0.941
14.7308	0.941
14.7707	0.941
14.8107	0.941
14.8506	0.941
14.8906	0.943
14.9305	0.948
14.9705	0.938
15.0104	0.876
15.0503	0.82
15.0903	0.793
15.1302	0.8
15.1702	0.763
15.2101	0.693
15.2501	0.599
15.29	0.564
15.33	0.57
15.3699	0.608
15.4099	0.638
15.4498	0.665
15.4897	0.687
15.5297	0.697
15.5696	0.713
15.6096	0.707
15.6495	0.712
15.6895	0.712
15.7294	0.708
15.7694	0.703
15.8093	0.695
15.8493	0.688
15.8892	0.675
15.9292	0.655
15.9691	0.642
16.009	0.64
