Infrared Spectrum: ETHYL-2,3-DIBROMO BUTYRATE
Formula: C6 H10 Br2 O2
CAS: 609-11-0
State: SOLUTION (10% CCl4 FOR 2.5-7.5, 10% CS2 FOR 7.5-15 MICRON)
Class: COBLENTZ
Instrument: Not specified, most likely a prism, grating, or hybrid spectrometer.
Sampling: TRANSMISSION
Path length: 0.01 CM, 0.01 CM
Resolution: 4
Origin: DOW CHEMICAL COMPANY
MICROMETERS	TRANSMITTANCE
2.11	0.903
2.15016	0.901
2.19032	0.896
2.23048	0.891
2.27064	0.886
2.3108	0.883
2.35096	0.884
2.39112	0.884
2.43127	0.888
2.47143	0.894
2.51159	0.898
2.55175	0.903
2.59191	0.908
2.63207	0.908
2.67223	0.908
2.71239	0.906
2.75255	0.899
2.79271	0.894
2.83287	0.883
2.87303	0.876
2.91319	0.884
2.95335	0.888
2.99351	0.883
3.03367	0.879
3.07382	0.879
3.11398	0.879
3.15414	0.879
3.1943	0.881
3.23446	0.878
3.27462	0.871
3.31478	0.754
3.35494	0.564
3.3951	0.746
3.43526	0.809
3.47542	0.848
3.51558	0.888
3.55574	0.896
3.5959	0.898
3.63606	0.901
3.67622	0.903
3.71637	0.904
3.75653	0.906
3.79669	0.906
3.83685	0.906
3.87701	0.906
3.91717	0.906
3.95733	0.908
3.99749	0.908
4.03765	0.908
4.07781	0.908
4.11797	0.904
4.15813	0.899
4.19829	0.891
4.23845	0.901
4.27861	0.906
4.31876	0.906
4.35892	0.896
4.39908	0.903
4.43924	0.908
4.4794	0.913
4.51956	0.918
4.55972	0.918
4.59988	0.918
4.64004	0.916
4.6802	0.916
4.72036	0.916
4.76052	0.914
4.80068	0.916
4.84084	0.918
4.881	0.918
4.92116	0.914
4.96131	0.908
5.00147	0.913
5.04163	0.919
5.08179	0.921
5.12195	0.918
5.16211	0.916
5.20227	0.916
5.24243	0.908
5.28259	0.896
5.32275	0.894
5.36291	0.898
5.40307	0.898
5.44323	0.893
5.48339	0.879
5.52355	0.861
5.56371	0.841
5.60386	0.766
5.64402	0.584
5.68418	0.245
5.72434	0.091
5.7645	0.383
5.80466	0.634
5.84482	0.769
5.88498	0.824
5.92514	0.868
5.9653	0.883
6.00546	0.886
6.04562	0.889
6.08578	0.894
6.12594	0.879
6.1661	0.856
6.20625	0.803
6.24641	0.716
6.28657	0.652
6.32673	0.631
6.36689	0.577
6.40705	0.51
6.44721	0.49
6.48737	0.559
6.52753	0.639
6.56769	0.689
6.60785	0.746
6.64801	0.799
6.68817	0.809
6.72833	0.756
6.76849	0.699
6.80865	0.669
6.8488	0.565
6.88896	0.539
6.92912	0.759
6.96928	0.809
7.00944	0.814
7.0496	0.808
7.08976	0.769
7.12992	0.699
7.17008	0.602
7.21024	0.452
7.2504	0.393
7.29056	0.621
7.33072	0.706
7.37088	0.691
7.41104	0.797
7.4512	0.803
7.49135	0.779
7.53151	0.712
7.57167	0.639
7.61183	0.56
7.65199	0.419
7.69215	0.295
7.73231	0.223
7.77247	0.268
7.81263	0.405
7.85279	0.362
7.89295	0.283
7.93311	0.243
7.97327	0.322
8.01343	0.529
8.05359	0.554
8.09374	0.43
8.1339	0.238
8.17406	0.26
8.21422	0.55
8.25438	0.614
8.29454	0.634
8.3347	0.621
8.37486	0.626
8.41502	0.617
8.45518	0.559
8.49534	0.49
8.5355	0.427
8.57566	0.3
8.61582	0.215
8.65598	0.18
8.69614	0.176
8.73629	0.28
8.77645	0.499
8.81661	0.559
8.85677	0.537
8.89693	0.54
8.93709	0.601
8.97725	0.622
9.01741	0.651
9.05757	0.652
9.09773	0.599
9.13789	0.584
9.17805	0.634
9.21821	0.649
9.25837	0.599
9.29853	0.601
9.33869	0.681
9.37884	0.732
9.419	0.729
9.45916	0.717
9.49932	0.682
9.53948	0.644
9.57964	0.597
9.6198	0.479
9.65996	0.358
9.70012	0.327
9.74028	0.388
9.78044	0.542
9.8206	0.617
9.86076	0.621
9.90092	0.549
9.94108	0.529
9.98123	0.641
10.0214	0.739
10.0616	0.782
10.1017	0.801
10.1419	0.813
10.182	0.818
10.2222	0.821
10.2624	0.821
10.3025	0.818
10.3427	0.808
10.3828	0.787
10.423	0.752
10.4631	0.744
10.5033	0.752
10.5435	0.759
10.5836	0.767
10.6238	0.799
10.6639	0.813
10.7041	0.821
10.7443	0.824
10.7844	0.826
10.8246	0.828
10.8647	0.829
10.9049	0.824
10.9451	0.811
10.9852	0.794
11.0254	0.782
11.0655	0.782
11.1057	0.797
11.1459	0.814
11.186	0.816
11.2262	0.811
11.2663	0.801
11.3065	0.787
11.3467	0.779
11.3868	0.764
11.427	0.752
11.4671	0.737
11.5073	0.716
11.5474	0.682
11.5876	0.649
11.6278	0.607
11.6679	0.597
11.7081	0.611
11.7482	0.651
11.7884	0.696
11.8286	0.756
11.8687	0.794
11.9089	0.813
11.949	0.823
11.9892	0.833
12.0294	0.841
12.0695	0.846
12.1097	0.848
12.1498	0.849
12.19	0.848
12.2302	0.844
12.2703	0.831
12.3105	0.823
12.3506	0.818
12.3908	0.813
12.431	0.819
12.4711	0.819
12.5113	0.819
12.5514	0.816
12.5916	0.811
12.6318	0.808
12.6719	0.808
12.7121	0.808
12.7522	0.806
12.7924	0.803
12.8325	0.794
12.8727	0.794
12.9129	0.794
12.953	0.796
12.9932	0.799
13.0333	0.799
13.0735	0.799
13.1137	0.796
13.1538	0.791
13.194	0.791
13.2341	0.791
13.2743	0.787
13.3145	0.781
13.3546	0.774
13.3948	0.766
13.4349	0.759
13.4751	0.746
13.5153	0.737
13.5554	0.722
13.5956	0.714
13.6357	0.711
13.6759	0.704
13.7161	0.699
13.7562	0.696
13.7964	0.689
13.8365	0.682
13.8767	0.671
13.9169	0.661
13.957	0.646
13.9972	0.649
14.0373	0.647
14.0775	0.651
14.1176	0.657
14.1578	0.659
14.198	0.657
14.2381	0.649
14.2783	0.644
14.3184	0.636
14.3586	0.627
14.3988	0.614
14.4389	0.602
14.4791	0.601
14.5192	0.594
14.5594	0.59
14.5996	0.589
14.6397	0.59
14.6799	0.585
14.72	0.579
14.7602	0.572
14.8004	0.565
14.8405	0.559
14.8807	0.549
14.9208	0.544
14.961	0.539
15.0012	0.53
15.0413	0.519
15.0815	0.509
15.1216	0.497
15.1618	0.485
15.202	0.477
15.2421	0.47
15.2823	0.465
15.3224	0.459
15.3626	0.454
15.4027	0.449
15.4429	0.444
15.4831	0.439
15.5232	0.43
15.5634	0.424
15.6035	0.422
15.6437	0.424
15.6839	0.424
15.724	0.42
15.7642	0.42
15.8043	0.42
15.8445	0.422
15.8847	0.425
15.9248	0.425
