Infrared Spectrum: o-Chlorobenzoyl chloride
Formula: C 7 H 4 Cl 2 O
CAS: 609-65-4
State: gas
Instrument: HP-GC/MS/IRD
Origin: NIST Mass Spectrometry Data Center
1/CM	ABSORBANCE
550	0.0011534
562	0.0003476
574	4.74e-05
586	0.0001422
598	0.0009796
610	0.0029072
622	0.0077262
634	0.0297672
646	0.0613672
658	0.0389786
670	0.0152628
682	0.0119448
694	0.0248218
706	0.0519188
718	0.059882
730	0.0650802
742	0.0349496
754	0.0388048
766	0.029625
778	0.0077104
790	0.003871
802	0.0045504
814	0.007268
826	0.0130508
838	0.02449
850	0.0584916
862	0.115356
874	0.144491
886	0.0905656
898	0.0456146
910	0.0249798
922	0.014694
934	0.0094484
946	0.0066992
958	0.00553
970	0.0036814
982	0.0021488
994	0.0015958
1006	0.0018802
1018	0.0033338
1030	0.0077104
1042	0.0127348
1054	0.0206348
1066	0.032311
1078	0.0194656
1090	0.0057986
1102	0.0036814
1114	0.004898
1126	0.0118816
1138	0.0169218
1150	0.0136354
1162	0.0182964
1174	0.0279818
1186	0.0612882
1198	0.0647642
1210	0.0289614
1222	0.0124346
1234	0.006478
1246	0.0056406
1258	0.0153102
1270	0.0211562
1282	0.0098434
1294	0.0035708
1306	0.001896
1318	0.0014852
1330	0.0014062
1342	0.0013588
1354	0.0012008
1366	0.001106
1378	0.0010112
1390	0.0013272
1402	0.0027018
1414	0.0064464
1426	0.0169534
1438	0.0278554
1450	0.0194498
1462	0.0225466
1474	0.022752
1486	0.006873
1498	0.0027334
1510	0.002291
1522	0.0022594
1534	0.002133
1546	0.003081
1558	0.006241
1570	0.0125926
1582	0.019276
1594	0.0162898
1606	0.0055932
1618	0.0036498
1630	0.0026544
1642	0.0015168
1654	0.0012482
1666	0.001501
1678	0.0023858
1690	0.0037762
1702	0.0065728
1714	0.009717
1726	0.0138882
1738	0.0190548
1750	0.0239212
1762	0.0296882
1774	0.0427074
1786	0.075682
1798	0.144854
1810	0.141015
1822	0.0622204
1834	0.0264018
1846	0.0107914
1858	0.0044714
1870	0.002528
1882	0.0020698
1894	0.0023226
1906	0.0024648
1918	0.0029072
1930	0.0027966
1942	0.0018328
1954	0.0020698
1966	0.0016116
1978	0.0007268
1990	0.0004582
2002	0.0003634
2014	0.000316
2026	0.000316
2038	0.0004266
2050	0.0005372
2062	0.0005372
2074	0.0004108
2086	0.0002844
2098	0.0001106
2110	4.74e-05
2122	0.0001106
2134	0.0001106
2146	0.0001264
2158	0.0001264
2170	0.0001264
2182	7.9e-05
2194	1.58e-05
2206	6.32e-05
2218	7.9e-05
2230	0.0002054
2242	0.0002844
2254	0.0003476
2266	0.0003476
2278	0.0002528
2290	0.0003318
2302	0.0003792
2314	0.0003792
2326	0.0005214
2338	0.0003792
2350	0.0002054
2362	0.0001896
2374	0.0001896
2386	0.0002212
2398	0.0002212
2410	0.0002054
2422	0.0001896
2434	0.0002528
2446	0.000237
2458	0.0002528
2470	0.0001738
2482	7.9e-05
2494	1.58e-05
2506	7.9e-05
2518	9.48e-05
2530	0.000158
2542	0.0003002
2554	0.0003476
2566	0.0002212
2578	0.0001896
2590	0.0001106
2602	0.0001896
2614	0.0002212
2626	0.0003476
2638	0.0004266
2650	0.0005846
2662	0.0005372
2674	0.0003476
2686	0.0003002
2698	0.0003002
2710	0.0002686
2722	0.0002054
2734	0.0002054
2746	0.0001264
2758	0.000158
2770	0.0001738
2782	0.0001738
2794	7.9e-05
2806	7.9e-05
2818	0.0001106
2830	0.0001738
2842	0.0003002
2854	0.0003002
2866	0.0001422
2878	6.32e-05
2890	7.9e-05
2902	0.0001106
2914	3.16e-05
2926	3.16e-05
2938	1.58e-05
2950	7.9e-05
2962	0.0002054
2974	0.000395
2986	0.0006794
2998	0.0008532
3010	0.0008058
3022	0.0009006
3034	0.0009164
3046	0.001264
3058	0.0036972
3070	0.0095116
3082	0.0108546
3094	0.0052772
3106	0.0017538
3118	0.000948
3130	0.0010902
3142	0.0010902
3154	0.0006636
3166	0.0003002
3178	0.0002054
3190	9.48e-05
3202	7.9e-05
3214	1.58e-05
3226	3.16e-05
3238	4.74e-05
3250	7.9e-05
3262	9.48e-05
3274	7.9e-05
3286	9.48e-05
3298	4.74e-05
3310	0.0001264
3322	7.9e-05
3334	9.48e-05
3346	9.48e-05
3358	6.32e-05
3370	0.0001264
3382	0.0001896
3394	0.0001264
3406	0.0001106
3418	0.0001106
3430	9.48e-05
3442	0.0001422
3454	0.0001738
3466	0.0002054
3478	0.000316
3490	0.0004108
3502	0.0005372
3514	0.0006952
3526	0.0008848
3538	0.0011376
3550	0.0014852
3562	0.0015484
3574	0.001738
3586	0.0018644
3598	0.0017696
3610	0.001343
3622	0.0009164
3634	0.0006004
3646	0.0003634
3658	0.0003002
3670	0.0002686
3682	0.0002528
3694	0.0002054
3706	0.0001738
3718	0.0002528
3730	0.0003002
3742	0.0003634
3754	0.000316
3766	0.0002686
3778	0.0002844
3790	0.0003002
3802	0.0003318
3814	0.000158
3826	0.0001738
3838	0.0002054
