Infrared Spectrum: 4-AMINO-2,6-DIBROMOPHENOL
Formula: C6 H5 Br2 N O
CAS: 609-21-2
State: SOLID (MINERAL OIL MULL)
Melting point: 192-194 C
Class: COBLENTZ
Instrument: Not specified, most likely a prism, grating, or hybrid spectrometer.
Sampling: TRANSMISSION
Resolution: 4
Origin: WYANDOTTE CHEMICALS CORP., WYANDOTTE, MICHIGAN, USA
MICROMETERS	TRANSMITTANCE
2.019	0.284
2.05615	0.281
2.0933	0.281
2.13045	0.282
2.1676	0.284
2.20475	0.282
2.2419	0.285
2.27904	0.291
2.31619	0.293
2.35334	0.295
2.39049	0.298
2.42764	0.312
2.46479	0.324
2.50194	0.332
2.53909	0.346
2.57624	0.36
2.61339	0.366
2.65054	0.383
2.68769	0.395
2.72484	0.4
2.76198	0.408
2.79913	0.416
2.83628	0.413
2.87343	0.414
2.91058	0.419
2.94773	0.43
2.98488	0.374
3.02203	0.335
3.05918	0.19
3.09633	0.156
3.13348	0.163
3.17063	0.158
3.20778	0.18
3.24493	0.172
3.28207	0.144
3.31922	0.091
3.35637	0.041
3.39352	0.031
3.43067	0.035
3.46782	0.032
3.50497	0.045
3.54212	0.127
3.57927	0.173
3.61642	0.195
3.65357	0.2
3.69072	0.192
3.72787	0.187
3.76501	0.181
3.80216	0.19
3.83931	0.184
3.87646	0.18
3.91361	0.183
3.95076	0.189
3.98791	0.186
4.02506	0.184
4.06221	0.19
4.09936	0.201
4.13651	0.215
4.17366	0.218
4.21081	0.229
4.24795	0.22
4.2851	0.256
4.32225	0.279
4.3594	0.315
4.39655	0.322
4.4337	0.322
4.47085	0.327
4.508	0.33
4.54515	0.35
4.5823	0.368
4.61945	0.372
4.6566	0.386
4.69375	0.411
4.7309	0.42
4.76804	0.43
4.80519	0.44
4.84234	0.453
4.87949	0.459
4.91664	0.461
4.95379	0.468
4.99094	0.489
5.02809	0.507
5.06524	0.512
5.10239	0.515
5.13954	0.527
5.17669	0.534
5.21384	0.545
5.25098	0.568
5.28813	0.588
5.32528	0.613
5.36243	0.622
5.39958	0.641
5.43673	0.638
5.47388	0.649
5.51103	0.656
5.54818	0.652
5.58533	0.669
5.62248	0.686
5.65963	0.695
5.69678	0.686
5.73392	0.683
5.77107	0.692
5.80822	0.675
5.84537	0.659
5.88252	0.69
5.91967	0.664
5.95682	0.65
5.99397	0.664
6.03112	0.684
6.06827	0.672
6.10542	0.628
6.14257	0.492
6.17972	0.242
6.21686	0.371
6.25401	0.444
6.29116	0.411
6.32831	0.243
6.36546	0.257
6.40261	0.489
6.43976	0.58
6.47691	0.704
6.51406	0.725
6.55121	0.767
6.58836	0.748
6.62551	0.574
6.66266	0.343
6.69981	0.116
6.73695	0.097
6.7741	0.09
6.81125	0.086
6.8484	0.102
6.88555	0.096
6.9227	0.105
6.95985	0.111
6.997	0.082
7.03415	0.204
7.0713	0.343
7.10845	0.315
7.1456	0.263
7.18275	0.195
7.21989	0.094
7.25704	0.083
7.29419	0.082
7.33134	0.111
7.36849	0.141
7.40564	0.175
7.44279	0.211
7.47994	0.27
7.51709	0.305
7.55424	0.349
7.59139	0.403
7.62854	0.454
7.66569	0.391
7.70283	0.309
7.73998	0.226
7.77713	0.26
7.81428	0.299
7.85143	0.192
7.88858	0.274
7.92573	0.417
7.96288	0.565
8.00003	0.666
8.03718	0.695
8.07433	0.652
8.11148	0.509
8.14863	0.265
8.18578	0.142
8.22292	0.225
8.26007	0.35
8.29722	0.295
8.33437	0.299
8.37152	0.378
8.40867	0.383
8.44582	0.242
8.48297	0.307
8.52012	0.419
8.55727	0.498
8.59442	0.566
8.63157	0.607
8.66872	0.641
8.70586	0.663
8.74301	0.684
8.78016	0.666
8.81731	0.591
8.85446	0.501
8.89161	0.54
8.92876	0.6
8.96591	0.641
9.00306	0.669
9.04021	0.695
9.07736	0.709
9.11451	0.717
9.15166	0.715
9.1888	0.709
9.22595	0.728
9.2631	0.739
9.30025	0.765
9.3374	0.779
9.37455	0.77
9.4117	0.74
9.44885	0.748
9.486	0.773
9.52315	0.782
9.5603	0.781
9.59745	0.768
9.6346	0.757
9.67174	0.756
9.70889	0.751
9.74604	0.754
9.78319	0.754
9.82034	0.751
9.85749	0.728
9.89464	0.711
9.93179	0.69
9.96894	0.667
10.0061	0.647
10.0432	0.628
10.0804	0.607
10.1175	0.597
10.1547	0.583
10.1918	0.576
10.229	0.552
10.2661	0.537
10.3033	0.51
10.3404	0.489
10.3776	0.465
10.4147	0.437
10.4519	0.413
10.489	0.388
10.5262	0.371
10.5633	0.346
10.6005	0.329
10.6376	0.299
10.6748	0.288
10.7119	0.298
10.7491	0.333
10.7862	0.439
10.8234	0.591
10.8605	0.616
10.8977	0.523
10.9348	0.431
10.972	0.34
11.0091	0.236
11.0463	0.184
11.0834	0.147
11.1206	0.128
11.1577	0.114
11.1949	0.111
11.232	0.11
11.2692	0.113
11.3063	0.121
11.3435	0.125
11.3806	0.136
11.4178	0.142
11.4549	0.156
11.4921	0.173
11.5292	0.201
11.5664	0.22
11.6035	0.25
11.6407	0.267
11.6778	0.273
11.715	0.284
11.7521	0.299
11.7893	0.282
11.8264	0.25
11.8636	0.186
11.9007	0.127
11.9378	0.125
11.975	0.194
12.0121	0.268
12.0493	0.313
12.0864	0.343
12.1236	0.358
12.1607	0.378
12.1979	0.395
12.235	0.413
12.2722	0.433
12.3093	0.442
12.3465	0.462
12.3836	0.478
12.4208	0.496
12.4579	0.515
12.4951	0.529
12.5322	0.543
12.5694	0.554
12.6065	0.548
12.6437	0.518
12.6808	0.478
12.718	0.409
12.7551	0.355
12.7923	0.326
12.8294	0.284
12.8666	0.262
12.9037	0.271
12.9409	0.295
12.978	0.33
13.0152	0.388
13.0523	0.439
13.0895	0.475
13.1266	0.527
13.1638	0.554
13.2009	0.582
13.2381	0.599
13.2752	0.605
13.3124	0.571
13.3495	0.489
13.3867	0.304
13.4238	0.136
13.461	0.1
13.4981	0.096
13.5353	0.131
13.5724	0.234
13.6096	0.371
13.6467	0.462
13.6839	0.555
13.721	0.628
13.7582	0.669
13.7953	0.7
13.8325	0.722
13.8696	0.75
13.9068	0.777
13.9439	0.818
13.9811	0.849
14.0182	0.892
14.0554	0.92
14.0925	0.934
14.1297	0.953
14.1668	0.948
14.204	0.897
14.2411	0.774
14.2783	0.6
14.3154	0.479
14.3526	0.423
14.3897	0.445
14.4268	0.52
14.464	0.614
14.5011	0.667
14.5383	0.712
14.5754	0.742
14.6126	0.756
14.6497	0.781
14.6869	0.791
14.724	0.798
14.7612	0.802
14.7983	0.812
14.8355	0.818
14.8726	0.818
14.9098	0.821
14.9469	0.818
14.9841	0.779
15.0212	0.72
15.0584	0.675
15.0955	0.678
15.1327	0.723
15.1698	0.754
15.207	0.762
15.2441	0.76
15.2813	0.76
15.3184	0.742
15.3556	0.736
15.3927	0.723
15.4299	0.711
15.467	0.689
15.5042	0.678
15.5413	0.664
15.5785	0.652
15.6156	0.636
15.6528	0.619
15.6899	0.602
15.7271	0.577
15.7642	0.559
15.8014	0.543
15.8385	0.527
15.8757	0.51
15.9128	0.507
15.95	0.492
15.9871	0.478
