Infrared Spectrum: 2,6-Dinitro-p-cresol
Formula: C 7 H 6 N 2 O 5
CAS: 609-93-8
State: gas
Origin: EPA-IR VAPOR PHASE LIBRARY
1/CM	ABSORBANCE
501.5	0.00015684
513.074	0.0003065
524.648	0.0006107
536.222	0.001258
547.796	0.002338
559.37	0.002378
570.944	0.001918
582.518	0.001378
594.092	0.001348
605.666	0.001488
617.24	0.001938
628.814	0.002388
640.388	0.002738
651.962	0.003628
663.536	0.004478
675.11	0.005088
686.684	0.004778
698.258	0.003688
709.832	0.003758
721.406	0.011358
732.98	0.012028
744.554	0.004198
756.128	0.003348
767.702	0.006558
779.276	0.006328
790.85	0.007528
802.423	0.004188
813.997	0.001268
825.571	0.0008755
837.145	0.0007781
848.719	0.0007566
860.293	0.001318
871.867	0.003668
883.441	0.004678
895.015	0.004148
906.589	0.010228
918.163	0.011408
929.737	0.002598
941.311	0.0010342
952.885	0.0009095
964.459	0.000551
976.033	0.0004192
987.607	0.0005734
999.181	0.0006439
1010.76	0.0007575
1022.33	0.0006374
1033.9	0.0005853
1045.48	0.0009945
1057.05	0.001208
1068.63	0.001228
1080.2	0.001208
1091.77	0.002078
1103.35	0.003938
1114.92	0.004268
1126.49	0.002928
1138.07	0.002558
1149.64	0.003498
1161.22	0.006358
1172.79	0.008398
1184.36	0.005638
1195.94	0.003288
1207.51	0.003208
1219.09	0.006328
1230.66	0.010678
1242.23	0.012668
1253.81	0.025248
1265.38	0.032048
1276.96	0.017728
1288.53	0.011438
1300.1	0.017208
1311.68	0.029518
1323.25	0.034158
1334.83	0.031998
1346.4	0.032138
1357.97	0.028398
1369.55	0.016098
1381.12	0.010148
1392.7	0.009308
1404.27	0.010558
1415.84	0.014828
1427.42	0.016798
1438.99	0.012538
1450.57	0.008568
1462.14	0.009248
1473.71	0.012118
1485.29	0.011208
1496.86	0.008368
1508.44	0.009528
1520.01	0.015188
1531.58	0.025078
1543.16	0.047188
1554.73	0.077918
1566.31	0.051648
1577.88	0.024638
1589.45	0.018728
1601.03	0.010708
1612.6	0.007108
1624.18	0.007838
1635.75	0.011598
1647.32	0.011158
1658.9	0.005368
1670.47	0.002048
1682.05	0.001278
1693.62	0.0010542
1705.19	0.000808
1716.77	0.0005593
1728.34	0.0005032
1739.92	0.0004782
1751.49	0.0003507
1763.06	0.0003857
1774.64	0.000498
1786.21	0.0008726
1797.79	0.0010469
1809.36	0.0006005
1820.93	0.000324
1832.51	0.0003004
1844.08	0.00026
1855.66	0.00016987
1867.23	0.00015908
1878.8	0.00013394
1890.38	0.0001031
1901.95	0.000126972
1913.53	9.11e-05
1925.1	9.24e-05
1936.67	9.32e-05
1948.25	0.0001018
1959.82	9.58e-05
1971.4	9.04e-05
1982.97	7.56e-05
1994.54	5.34e-05
2006.12	4.25e-05
2017.69	5.4e-05
2029.27	9.45e-05
2040.84	4.88e-05
2052.41	7.78e-05
2063.99	8.62e-05
2075.56	0.0001003
2087.14	8.46e-05
2098.71	0.00011123
2110.28	0.0001
2121.86	9.31e-05
2133.43	0.0001053
2145.01	5.9e-05
2156.58	3.45e-05
2168.15	2.41e-05
2179.73	1.6e-05
2191.3	0
2202.88	2.72e-05
2214.45	8.8e-05
2226.02	5.86e-05
2237.6	7.03e-05
2249.17	9.49e-05
2260.74	0.000121579
2272.32	0.00017689
2283.89	0.00019949
2295.47	0.00014398
2307.04	0.0001046
2318.61	5.81e-05
2330.19	0.00013192
2341.76	0.00016163
2353.34	0.00020556
2364.91	0.0002323
2376.48	0.0002669
2388.06	0.0002495
2399.63	0.00018612
2411.21	0.00020059
2422.78	0.000267
2434.35	0.0003012
2445.93	0.0003353
2457.5	0.0003542
2469.08	0.0003837
2480.65	0.000308
2492.22	0.0002911
2503.8	0.0002799
2515.37	0.0002948
2526.95	0.0003302
2538.52	0.0003312
2550.09	0.0003669
2561.67	0.0003796
2573.24	0.0004291
2584.82	0.0003768
2596.39	0.0004152
2607.96	0.000384
2619.54	0.0004416
2631.11	0.0005116
2642.69	0.0004911
2654.26	0.0004534
2665.83	0.0004433
2677.41	0.000484
2688.98	0.0005098
2700.56	0.0005898
2712.13	0.0006587
2723.7	0.0006292
2735.28	0.0007565
2746.85	0.0007274
2758.43	0.0007397
2770	0.0007091
2781.57	0.0007386
2793.15	0.000798
2804.72	0.0008585
2816.3	0.0009142
2827.87	0.0010221
2839.44	0.001138
2851.02	0.001398
2862.59	0.001828
2874.17	0.002388
2885.74	0.002548
2897.31	0.002458
2908.89	0.002538
2920.46	0.002838
2932.04	0.003708
2943.61	0.003968
2955.18	0.002508
2966.76	0.001798
2978.33	0.001518
2989.91	0.001428
3001.48	0.001488
3013.05	0.001588
3024.63	0.001698
3036.2	0.001508
3047.78	0.001358
3059.35	0.001398
3070.92	0.001618
3082.5	0.001688
3094.07	0.001478
3105.65	0.001408
3117.22	0.001508
3128.79	0.001678
3140.37	0.001918
3151.94	0.002358
3163.52	0.002728
3175.09	0.003258
3186.66	0.003838
3198.24	0.004558
3209.81	0.005298
3221.39	0.005818
3232.96	0.006128
3244.53	0.006248
3256.11	0.006228
3267.68	0.005958
3279.26	0.005598
3290.83	0.005248
3302.4	0.004928
3313.98	0.004668
3325.55	0.004358
3337.13	0.004098
3348.7	0.003768
3360.27	0.003468
3371.85	0.003178
3383.42	0.002858
3395	0.002588
3406.57	0.002398
3418.14	0.002208
3429.72	0.001968
3441.29	0.001838
3452.86	0.001718
3464.44	0.001628
3476.01	0.001508
3487.59	0.001418
3499.16	0.001248
3510.73	0.001168
3522.31	0.001128
3533.88	0.0011024
3545.46	0.0010505
3557.03	0.0009079
3568.6	0.000749
3580.18	0.0006239
3591.75	0.0005353
3603.33	0.0005291
3614.9	0.0004107
3626.47	0.000394
3638.05	0.0003176
3649.62	0.0002747
3661.2	0.00017854
3672.77	0.00018291
3684.34	0.00015048
3695.92	0.0002127
3707.49	0.00016868
3719.07	0.0001923
3730.64	0.0001023
3742.21	9.75e-05
3753.79	9.5e-05
3765.36	6.85e-05
3776.94	8.97e-05
3788.51	5.17e-05
3800.08	0.00015451
3811.66	8.71e-05
3823.23	6.48e-05
3834.81	6.36e-05
3846.38	0.00016145
3857.95	0.0001043
3869.53	0.000125103
3881.1	4.62e-05
3892.68	0.00013114
3904.25	6.69e-05
3915.82	9.73e-05
3927.4	8.88e-05
3938.97	3.87e-05
3950.55	6.45e-05
3962.12	0.00010868
3973.69	0.000126769
3985.27	0.00014909
3996.84	4.39e-05
