Infrared Spectrum: O-IODOBENZOYL CHLORIDE
Formula: C7 H4 Cl I O
CAS: 609-67-6
State: SOLUTION (2% IN CS2)
Melting point: 27-29 C (CORR.)
Class: COBLENTZ
Instrument: Not specified, most likely a prism, grating, or hybrid spectrometer.
Sampling: TRANSMISSION
Path length: 0.1 CM
Resolution: 4
Origin: DEPARTMENT OF PHARMACOLOGY, THE STATE UNIVERSITY OF IOWA, IOWA
MICROMETERS	TRANSMITTANCE
2.088	0.767
2.12435	0.767
2.1607	0.768
2.19705	0.768
2.2334	0.768
2.26975	0.768
2.30609	0.768
2.34244	0.766
2.37879	0.758
2.41514	0.758
2.45149	0.761
2.48784	0.761
2.52419	0.761
2.56054	0.764
2.59689	0.764
2.63324	0.764
2.66959	0.763
2.70594	0.76
2.74228	0.741
2.77863	0.704
2.81498	0.697
2.85133	0.733
2.88768	0.741
2.92403	0.746
2.96038	0.746
2.99673	0.746
3.03308	0.743
3.06943	0.738
3.10578	0.731
3.14212	0.71
3.17847	0.679
3.21482	0.527
3.25117	0.596
3.28752	0.641
3.32387	0.646
3.36022	0.651
3.39657	0.661
3.43292	0.677
3.46927	0.684
3.50562	0.691
3.54197	0.713
3.57831	0.72
3.61466	0.728
3.65101	0.731
3.68736	0.731
3.72371	0.728
3.76006	0.724
3.79641	0.723
3.83276	0.723
3.86911	0.723
3.90546	0.726
3.94181	0.733
3.97816	0.741
4.0145	0.743
4.05085	0.746
4.0872	0.746
4.12355	0.747
4.1599	0.747
4.19625	0.748
4.2326	0.75
4.26895	0.751
4.3053	0.757
4.34165	0.76
4.378	0.767
4.41434	0.774
4.45069	0.778
4.48704	0.783
4.52339	0.786
4.55974	0.791
4.59609	0.791
4.63244	0.793
4.66879	0.794
4.70514	0.794
4.74149	0.791
4.77784	0.768
4.81419	0.753
4.85053	0.74
4.88688	0.736
4.92323	0.746
4.95958	0.748
4.99593	0.74
5.03228	0.679
5.06863	0.681
5.10498	0.683
5.14133	0.654
5.17768	0.68
5.21403	0.693
5.25037	0.696
5.28672	0.687
5.32307	0.644
5.35942	0.594
5.39577	0.51
5.43212	0.332
5.46847	0.188
5.50482	0.095
5.54117	0.042
5.57752	0.031
5.61387	0.052
5.65022	0.128
5.68656	0.131
5.72291	0.132
5.75926	0.135
5.79561	0.156
5.83196	0.256
5.86831	0.473
5.90466	0.577
5.94101	0.609
5.97736	0.643
6.01371	0.659
6.05006	0.661
6.0864	0.663
6.12275	0.666
6.1591	0.666
6.19545	0.667
6.2318	0.667
6.26815	0.667
6.3045	0.669
6.34085	0.669
6.3772	0.67
6.41355	0.67
6.4499	0.673
6.48625	0.673
6.52259	0.674
6.55894	0.674
6.59529	0.674
6.63164	0.676
6.66799	0.676
6.70434	0.677
6.74069	0.677
6.77704	0.679
6.81339	0.68
6.84974	0.683
6.88609	0.684
6.92244	0.684
6.95878	0.686
6.99513	0.684
7.03148	0.684
7.06783	0.686
7.10418	0.686
7.14053	0.687
7.17688	0.689
7.21323	0.694
7.24958	0.697
7.28593	0.699
7.32228	0.699
7.35862	0.699
7.39497	0.697
7.43132	0.693
7.46767	0.681
7.50402	0.67
7.54037	0.661
7.57672	0.646
7.61307	0.626
7.64942	0.539
7.68577	0.48
7.72212	0.42
7.75847	0.265
7.79481	0.182
7.83116	0.232
7.86751	0.192
7.90386	0.152
7.94021	0.259
7.97656	0.249
8.01291	0.273
8.04926	0.36
8.08561	0.412
8.12196	0.413
8.15831	0.342
8.19465	0.225
8.231	0.132
8.26735	0.069
8.3037	0.035
8.34005	0.025
8.3764	0.022
8.41275	0.024
8.4491	0.027
8.48545	0.032
8.5218	0.101
8.55815	0.119
8.5945	0.338
8.63084	0.407
8.66719	0.45
8.70354	0.476
8.73989	0.493
8.77624	0.497
8.81259	0.432
8.84894	0.336
8.88529	0.132
8.92164	0.308
8.95799	0.422
8.99434	0.503
9.03068	0.564
9.06703	0.587
9.10338	0.599
9.13973	0.604
9.17608	0.609
9.21243	0.61
9.24878	0.61
9.28513	0.604
9.32148	0.589
9.35783	0.56
9.39418	0.547
9.43053	0.52
9.46687	0.396
9.50322	0.31
9.53957	0.295
9.57592	0.319
9.61227	0.328
9.64862	0.328
9.68497	0.306
9.72132	0.253
9.75767	0.091
9.79402	0.089
9.83037	0.298
9.86672	0.383
9.90306	0.426
9.93941	0.45
9.97576	0.466
10.0121	0.469
10.0485	0.443
10.0848	0.396
10.1212	0.343
10.1575	0.326
10.1939	0.325
10.2302	0.33
10.2666	0.342
10.3029	0.376
10.3393	0.4
10.3756	0.422
10.412	0.429
10.4483	0.417
10.4847	0.422
10.521	0.447
10.5573	0.469
10.5937	0.479
10.63	0.48
10.6664	0.472
10.7027	0.443
10.7391	0.413
10.7754	0.386
10.8118	0.388
10.8481	0.405
10.8845	0.427
10.9208	0.432
10.9572	0.427
10.9935	0.413
11.0299	0.39
11.0662	0.363
11.1026	0.338
11.1389	0.31
11.1753	0.278
11.2116	0.233
11.248	0.199
11.2843	0.168
11.3207	0.136
11.357	0.124
11.3934	0.112
11.4297	0.102
11.4661	0.095
11.5024	0.094
11.5388	0.095
11.5751	0.095
11.6115	0.095
11.6478	0.095
11.6842	0.094
11.7205	0.092
11.7569	0.091
11.7932	0.091
11.8296	0.091
11.8659	0.098
11.9023	0.128
11.9386	0.198
11.975	0.235
12.0113	0.272
12.0477	0.319
12.084	0.378
12.1204	0.432
12.1567	0.452
12.1931	0.462
12.2294	0.469
12.2658	0.483
12.3021	0.526
12.3385	0.542
12.3748	0.55
12.4112	0.564
12.4475	0.592
12.4839	0.599
12.5202	0.6
12.5566	0.604
12.5929	0.607
12.6292	0.609
12.6656	0.611
12.7019	0.611
12.7383	0.609
12.7746	0.599
12.811	0.566
12.8473	0.509
12.8837	0.386
12.92	0.292
12.9564	0.165
12.9927	0.092
13.0291	0.068
13.0654	0.051
13.1018	0.047
13.1381	0.055
13.1745	0.158
13.2108	0.312
13.2472	0.432
13.2835	0.472
13.3199	0.509
13.3562	0.519
13.3926	0.517
13.4289	0.482
13.4653	0.446
13.5016	0.44
13.538	0.429
13.5743	0.398
13.6107	0.383
13.647	0.376
13.6834	0.372
13.7197	0.359
13.7561	0.315
13.7924	0.225
13.8288	0.141
13.8651	0.097
13.9015	0.081
13.9378	0.069
13.9742	0.064
14.0105	0.158
14.0469	0.246
14.0832	0.37
14.1196	0.412
14.1559	0.433
14.1923	0.436
14.2286	0.436
14.265	0.429
14.3013	0.412
14.3377	0.392
14.374	0.356
14.4104	0.31
14.4467	0.243
14.4831	0.202
14.5194	0.145
14.5558	0.106
14.5921	0.092
14.6285	0.085
14.6648	0.079
14.7012	0.077
14.7375	0.075
14.7738	0.077
14.8102	0.081
14.8465	0.089
14.8829	0.111
14.9192	0.156
14.9556	0.171
14.9919	0.194
15.0283	0.199
15.0646	0.203
15.101	0.211
