Infrared Spectrum: 4,6-DIBROMO-O-CRESOL
Formula: C7 H6 Br2 O
CAS: 609-22-3
State: SOLID (MINERAL OIL MULL)
Melting point: 57 C
Class: COBLENTZ
Instrument: Not specified, most likely a prism, grating, or hybrid spectrometer.
Sampling: TRANSMISSION
Resolution: 4
Origin: WYANDOTTE CHEMICALS CORP., WYANDOTTE, MICHIGAN, USA
MICROMETERS	TRANSMITTANCE
2.034	0.394
2.0749	0.396
2.11579	0.413
2.15669	0.411
2.19759	0.397
2.23848	0.397
2.27938	0.403
2.32028	0.418
2.36117	0.425
2.40207	0.426
2.44297	0.428
2.48386	0.421
2.52476	0.431
2.56565	0.447
2.60655	0.454
2.64745	0.462
2.68834	0.471
2.72924	0.469
2.77014	0.447
2.81103	0.38
2.85193	0.26
2.89283	0.258
2.93372	0.204
2.97462	0.192
3.01552	0.277
3.05641	0.355
3.09731	0.384
3.13821	0.399
3.1791	0.397
3.22	0.346
3.2609	0.355
3.30179	0.277
3.34269	0.071
3.38359	0.039
3.42448	0.051
3.46538	0.083
3.50628	0.119
3.54717	0.508
3.58807	0.551
3.62896	0.579
3.66986	0.562
3.71076	0.578
3.75165	0.583
3.79255	0.591
3.83345	0.603
3.87434	0.615
3.91524	0.619
3.95614	0.625
3.99703	0.632
4.03793	0.642
4.07883	0.639
4.11972	0.646
4.16062	0.647
4.20152	0.653
4.24241	0.632
4.28331	0.664
4.32421	0.683
4.3651	0.722
4.406	0.721
4.4469	0.702
4.48779	0.707
4.52869	0.726
4.56959	0.732
4.61048	0.739
4.65138	0.744
4.69227	0.755
4.73317	0.765
4.77407	0.77
4.81496	0.77
4.85586	0.789
4.89676	0.782
4.93765	0.792
4.97855	0.799
5.01945	0.806
5.06034	0.816
5.10124	0.818
5.14214	0.812
5.18303	0.826
5.22393	0.828
5.26483	0.824
5.30572	0.843
5.34662	0.858
5.38752	0.87
5.42841	0.874
5.46931	0.88
5.51021	0.891
5.5511	0.887
5.592	0.897
5.6329	0.892
5.67379	0.909
5.71469	0.853
5.75558	0.804
5.79648	0.828
5.83738	0.816
5.87827	0.904
5.91917	0.918
5.96007	0.918
6.00096	0.92
6.04186	0.933
6.08276	0.928
6.12365	0.928
6.16455	0.926
6.20545	0.78
6.24634	0.671
6.28724	0.714
6.32814	0.639
6.36903	0.828
6.40993	0.863
6.45083	0.913
6.49172	0.913
6.53262	0.923
6.57352	0.903
6.61441	0.821
6.65531	0.709
6.69621	0.585
6.7371	0.209
6.778	0.035
6.81889	0.079
6.85979	0.124
6.90069	0.188
6.94158	0.382
6.98248	0.568
7.02338	0.675
7.06427	0.607
7.10517	0.214
7.14607	0.307
7.18696	0.404
7.22786	0.222
7.26876	0.522
7.30965	0.639
7.35055	0.685
7.39145	0.615
7.43234	0.7
7.47324	0.615
7.51414	0.336
7.55503	0.153
7.59593	0.294
7.63683	0.459
7.67772	0.653
7.71862	0.751
7.75952	0.576
7.80041	0.355
7.84131	0.568
7.8822	0.68
7.9231	0.772
7.964	0.763
8.00489	0.544
8.04579	0.224
8.08669	0.159
8.12758	0.149
8.16848	0.166
8.20938	0.285
8.25027	0.414
8.29117	0.452
8.33207	0.535
8.37296	0.659
8.41386	0.751
8.45476	0.828
8.49565	0.843
8.53655	0.812
8.57745	0.697
8.61834	0.513
8.65924	0.19
8.70014	0.071
8.74103	0.103
8.78193	0.105
8.82283	0.151
8.86372	0.238
8.90462	0.273
8.94551	0.243
8.98641	0.343
9.02731	0.454
9.0682	0.491
9.1091	0.394
9.15	0.454
9.19089	0.518
9.23179	0.573
9.27269	0.613
9.31358	0.637
9.35448	0.673
9.39538	0.692
9.43627	0.707
9.47717	0.724
9.51807	0.717
9.55896	0.704
9.59986	0.625
9.64076	0.561
9.68165	0.668
9.72255	0.731
9.76345	0.768
9.80434	0.794
9.84524	0.794
9.88614	0.777
9.92703	0.656
9.96793	0.45
10.0088	0.571
10.0497	0.692
10.0906	0.746
10.1315	0.773
10.1724	0.792
10.2133	0.807
10.2542	0.819
10.2951	0.826
10.336	0.838
10.3769	0.843
10.4178	0.862
10.4587	0.872
10.4996	0.872
10.5405	0.88
10.5814	0.886
10.6223	0.891
10.6632	0.894
10.7041	0.903
10.745	0.911
10.7859	0.914
10.8268	0.92
10.8677	0.921
10.9085	0.928
10.9494	0.938
10.9903	0.938
11.0312	0.938
11.0721	0.935
11.113	0.92
11.1539	0.906
11.1948	0.897
11.2357	0.869
11.2766	0.821
11.3175	0.772
11.3584	0.736
11.3993	0.666
11.4402	0.571
11.4811	0.54
11.522	0.586
11.5629	0.426
11.6038	0.209
11.6447	0.158
11.6856	0.226
11.7265	0.13
11.7674	0.503
11.8083	0.59
11.8492	0.77
11.8901	0.829
11.931	0.879
11.9719	0.908
12.0128	0.908
12.0537	0.896
12.0945	0.855
12.1354	0.795
12.1763	0.632
12.2172	0.481
12.2581	0.539
12.299	0.695
12.3399	0.799
12.3808	0.88
12.4217	0.925
12.4626	0.933
12.5035	0.945
12.5444	0.971
12.5853	0.972
12.6262	0.972
12.6671	0.974
12.708	0.971
12.7489	0.962
12.7898	0.967
12.8307	0.962
12.8716	0.959
12.9125	0.952
12.9534	0.947
12.9943	0.95
13.0352	0.947
13.0761	0.952
13.117	0.952
13.1579	0.955
13.1988	0.96
13.2397	0.957
13.2805	0.96
13.3214	0.96
13.3623	0.96
13.4032	0.948
13.4441	0.942
13.485	0.937
13.5259	0.925
13.5668	0.92
13.6077	0.913
13.6486	0.911
13.6895	0.906
13.7304	0.899
13.7713	0.887
13.8122	0.874
13.8531	0.865
13.894	0.858
13.9349	0.829
13.9758	0.741
14.0167	0.479
14.0576	0.397
14.0985	0.545
14.1394	0.715
14.1803	0.792
14.2212	0.811
14.2621	0.795
14.303	0.763
14.3439	0.715
14.3848	0.632
14.4257	0.561
14.4665	0.503
14.5074	0.459
14.5483	0.448
14.5892	0.452
14.6301	0.425
14.671	0.396
14.7119	0.358
14.7528	0.336
14.7937	0.328
14.8346	0.343
14.8755	0.384
14.9164	0.45
14.9573	0.476
14.9982	0.486
15.0391	0.479
15.08	0.482
15.1209	0.515
15.1618	0.585
15.2027	0.629
15.2436	0.654
15.2845	0.661
15.3254	0.668
15.3663	0.68
15.4072	0.678
15.4481	0.673
15.489	0.671
15.5299	0.671
15.5708	0.661
15.6117	0.653
15.6525	0.646
15.6934	0.637
15.7343	0.62
15.7752	0.613
15.8161	0.6
15.857	0.593
15.8979	0.585
15.9388	0.569
15.9797	0.557
