Infrared Spectrum: Ethyl 2-bromobenzoate
Formula: C 9 H 9 Br O 2
CAS: 6091-64-1
State: gas
Origin: EPA-IR VAPOR PHASE LIBRARY
1/CM	ABSORBANCE
549.8	0.0012725
559.445	0.001434
569.09	0.001665
578.734	0.0009569
588.379	0.0016532
598.024	0.000474
607.669	0.0014803
617.313	0.0016181
626.958	0.001065
636.603	0.003745
646.248	0.007725
655.893	0.003985
665.537	0.001955
675.182	0.002595
684.827	0.006385
694.472	0.012305
704.116	0.010375
713.761	0.004925
723.406	0.008065
733.051	0.029855
742.695	0.059105
752.34	0.027405
761.985	0.008945
771.63	0.006355
781.275	0.005725
790.919	0.004585
800.564	0.003815
810.209	0.003305
819.854	0.000468
829.498	0.003685
839.143	0.004995
848.788	0.006615
858.433	0.007485
868.078	0.006115
877.722	0.005345
887.367	0.002745
897.012	0.002625
906.657	0.002205
916.301	0.002295
925.946	0.002415
935.591	0.002975
945.236	0.002945
954.88	0.003945
964.525	0.003095
974.17	0.003265
983.815	0.004355
993.46	0.006535
1003.1	0.012245
1012.75	0.017845
1022.39	0.027985
1032.04	0.041435
1041.68	0.055195
1051.33	0.038405
1060.97	0.012455
1070.62	0.007655
1080.26	0.012255
1089.91	0.026795
1099.55	0.059015
1109.2	0.090085
1118.84	0.093665
1128.49	0.086775
1138.13	0.057455
1147.78	0.024955
1157.42	0.017575
1167.07	0.016275
1176.71	0.012525
1186.36	0.008995
1196	0.007635
1205.64	0.008915
1215.29	0.012475
1224.93	0.027495
1234.58	0.061955
1244.22	0.112635
1253.87	0.086865
1263.51	0.052395
1273.16	0.086865
1282.8	0.140085
1292.45	0.125035
1302.09	0.057595
1311.74	0.025995
1321.38	0.013765
1331.03	0.008235
1340.67	0.006155
1350.32	0.006335
1359.96	0.010415
1369.61	0.017145
1379.25	0.011065
1388.9	0.007925
1398.54	0.008435
1408.18	0.009285
1417.83	0.012485
1427.47	0.020685
1437.12	0.024765
1446.76	0.016735
1456.41	0.013755
1466.05	0.019735
1475.7	0.017145
1485.34	0.008875
1494.99	0.005615
1504.63	0.004345
1514.28	0.003735
1523.92	0.003615
1533.57	0.003765
1543.21	0.003425
1552.86	0.004555
1562.5	0.007785
1572.15	0.009365
1581.79	0.011705
1591.44	0.015665
1601.08	0.008775
1610.73	0.004685
1620.37	0.003845
1630.01	0.002995
1639.66	0.003285
1649.3	0.003075
1658.95	0.003355
1668.59	0.004245
1678.24	0.005515
1687.88	0.007075
1697.53	0.010365
1707.17	0.016375
1716.82	0.027825
1726.46	0.049815
1736.11	0.082115
1745.75	0.103745
1755.4	0.091975
1765.04	0.054225
1774.69	0.022835
1784.33	0.010465
1793.98	0.006515
1803.62	0.005375
1813.27	0.004775
1822.91	0.003605
1832.55	0.003055
1842.2	0.002815
1851.84	0.002205
1861.49	0.002005
1871.13	0.001995
1880.78	0.002325
1890.42	0.002385
1900.07	0.002485
1909.71	0.002635
1919.36	0.003105
1929	0.003105
1938.65	0.002325
1948.29	0.002865
1957.94	0.002905
1967.58	0.002285
1977.23	0.001845
1986.87	0.001935
1996.52	0.0015788
2006.16	0.0015891
2015.81	0.0015757
2025.45	0.001521
2035.1	0.0011956
2044.74	0.0012444
2054.38	0.0012651
2064.03	0.0014347
2073.67	0.0014961
2083.32	0.001715
2092.96	0.001569
2102.61	0.001705
2112.25	0.0015456
2121.9	0.001845
2131.54	0.001885
2141.19	0.001695
2150.83	0.0015374
2160.48	0.0012033
2170.12	0.0012318
2179.77	0.0012462
2189.41	0.0012312
2199.06	0.0009694
2208.7	0.0012037
2218.35	0.0012037
2227.99	0.0011738
2237.64	0.0015321
2247.28	0.0015189
2256.92	0.001568
2266.57	0.0014133
2276.21	0.0012155
2285.86	0.0014304
2295.5	0.0012529
2305.15	0.0015261
2314.79	0.0013427
2324.44	0.0016444
2334.08	0.0013528
2343.73	0.001295
2353.37	0.0013254
2363.02	0.0014032
2372.66	0.001835
2382.31	0.001498
2391.95	0.0014471
2401.6	0.0016336
2411.24	0.001474
2420.89	0.0011212
2430.53	0.0011659
2440.18	0.0011918
2449.82	0.0012327
2459.47	0.0013252
2469.11	0.0012422
2478.75	0.0011421
2488.4	0.0013583
2498.04	0.0012198
2507.69	0.0012792
2517.33	0.0015362
2526.98	0.0013427
2536.62	0.001551
2546.27	0.001517
2555.91	0.0015876
2565.56	0.0016115
2575.2	0.0012812
2584.85	0.0012171
2594.49	0.001675
2604.14	0.0012872
2613.78	0.0015186
2623.43	0.0010959
2633.07	0.0013006
2642.72	0.001135
2652.36	0.000958
2662.01	0.00113
2671.65	0.0010719
2681.29	0.0009811
2690.94	0.0012993
2700.58	0.0012737
2710.23	0.0011709
2719.87	0.0011472
2729.52	0.0013513
2739.16	0.0012299
2748.81	0.001725
2758.45	0.001665
2768.1	0.0015828
2777.74	0.0016018
2787.39	0.0015506
2797.03	0.0013695
2806.68	0.0014349
2816.32	0.001705
2825.97	0.002525
2835.61	0.001925
2845.26	0.002375
2854.9	0.002105
2864.55	0.003495
2874.19	0.004345
2883.84	0.006045
2893.48	0.006505
2903.12	0.006695
2912.77	0.007565
2922.41	0.008025
2932.06	0.009615
2941.7	0.014365
2951.35	0.013925
2960.99	0.011765
2970.64	0.016165
2980.28	0.024895
2989.93	0.027705
2999.57	0.017915
3009.22	0.011875
3018.86	0.008465
3028.51	0.005645
3038.15	0.004315
3047.8	0.004585
3057.44	0.007695
3067.09	0.011755
3076.73	0.013315
3086.38	0.008545
3096.02	0.004275
3105.67	0.002515
3115.31	0.002645
3124.95	0.002635
3134.6	0.002415
3144.24	0.002175
3153.89	0.0012369
3163.53	0.001543
3173.18	0.0011237
3182.82	0.001685
3192.47	0.0014316
3202.11	0.001563
3211.76	0.0010343
3221.4	0.0012983
3231.05	0.0009373
3240.69	0.0011115
3250.34	0.00066374
3259.98	0.0010902
3269.63	0.001765
3279.27	0.0012204
3288.92	0.0009385
3298.56	0.001146
3308.21	0.0012144
3317.85	0.0009654
3327.49	0.0009993
3337.14	0.0010283
3346.78	0.0016422
3356.43	0.0010727
3366.07	0.0015204
3375.72	0.001003
3385.36	0.0010013
3395.01	0.0011321
3404.65	0.0011928
3414.3	0.0010994
3423.94	0.000543
3433.59	0.001895
3443.23	0.0011926
3452.88	0.001825
3462.52	0.001675
3472.17	0.0015847
3481.81	0.001274
3491.46	0.002035
3501.1	0.0011231
3510.75	0.0011903
3520.39	0.0011979
3530.04	0.000383
3539.68	0.0009158
3549.32	0.00072263
3558.97	0.00085
3568.61	0.0009171
3578.26	0.0006333
3587.9	0.000482
3597.55	0.000581
3607.19	0.0008137
3616.84	0.00068692
3626.48	0.0013343
3636.13	0.00064577
3645.77	0.0006146
3655.42	0.000552
3665.06	0.00055
3674.71	0.0011529
3684.35	0.0010889
3694	0.0010413
3703.64	7.4e-05
3713.29	0.001515
3722.93	0.0008064
3732.58	0.0011661
3742.22	0.0014697
3751.86	0.0010294
3761.51	0.000538
3771.15	0.0012976
3780.8	0.001685
3790.44	0.001178
3800.09	0.0007557
3809.73	0.0012363
3819.38	0.0010676
3829.02	0.0003
3838.67	0.000659631
3848.31	0.0010662
3857.96	0.0010696
3867.6	0.0010358
3877.25	0.000661589
3886.89	0.0013664
3896.54	0.0005986
3906.18	0.000132
3915.83	0.0013208
3925.47	0.001027
3935.12	0.00073647
3944.76	0.001504
3954.41	0.0015898
3964.05	0.001235
3973.69	0.0013623
3983.34	0.0014338
3992.98	0.0011117
