Infrared Spectrum: Coumarin, 5-hydroxy-
Formula: C9 H6 O3
CAS: 6093-67-0
State: SOLID (0.8 mg / 230 mg KBr DISC) VS SCREEN
Class: COBLENTZ III
Instrument: CARY 90 (GRATING)
Instrument parameters: GRATING CHANGES: 3000, 2000, 1200 CM^-^1
Sampling: TRANSMISSION
Resolution: 2
Origin: WESTERN REGIONAL RES. USDA
1/CM	TRANSMITTANCE
451	0.5195
460	0.5927
469	0.6201
478	0.4029
487	0.4763
496	0.5349
505	0.6244
514	0.6393
523	0.6501
532	0.6452
541	0.6455
550	0.6663
559	0.6726
568	0.6741
577	0.6707
586	0.4977
595	0.5777
604	0.6643
613	0.6646
622	0.668
631	0.6604
640	0.6537
649	0.6581
658	0.6491
667	0.6586
676	0.6486
685	0.6396
694	0.5444
703	0.5564
712	0.5863
721	0.5732
730	0.5551
739	0.4936
748	0.5483
757	0.5001
766	0.6618
775	0.674
784	0.2968
793	0.1812
802	0.6489
811	0.7345
820	0.736
829	0.4861
838	0.2252
847	0.625
856	0.6902
865	0.729
874	0.7694
883	0.7726
892	0.7546
901	0.72
910	0.5176
919	0.3001
928	0.7315
937	0.8048
946	0.8085
955	0.7847
964	0.7428
973	0.7906
982	0.7891
991	0.7806
1000	0.7834
1009	0.7791
1018	0.764
1027	0.7374
1036	0.6762
1045	0.2545
1054	0.361
1063	0.5471
1072	0.7575
1081	0.7684
1090	0.7542
1099	0.7045
1108	0.4599
1117	0.0902
1126	0.4443
1135	0.6828
1144	0.6956
1153	0.7344
1162	0.7148
1171	0.6661
1180	0.5696
1189	0.3367
1198	0.2775
1207	0.6212
1216	0.6441
1225	0.5574
1234	0.4582
1243	0.5621
1252	0.5591
1261	0.6093
1270	0.4615
1279	0.2924
1288	0.1453
1297	0.2114
1306	0.3586
1315	0.6174
1324	0.5533
1333	0.4017
1342	0.2394
1351	0.1747
1360	0.2211
1369	0.3576
1378	0.5295
1387	0.6057
1396	0.6012
1405	0.3795
1414	0.3376
1423	0.5041
1432	0.5434
1441	0.5089
1450	0.3837
1459	0.1501
1468	0.2316
1477	0.6074
1486	0.6236
1495	0.5274
1504	0.5861
1513	0.8018
1522	0.7895
1531	0.7686
1540	0.7583
1549	0.7336
1558	0.7129
1567	0.577
1576	0.5523
1585	0.541
1594	0.4586
1603	0.1754
1612	0.0168
1621	0.0697
1630	0.52
1639	0.5059
1648	0.5166
1657	0.3059
1666	0.1731
1675	0.059
1684	0.0057
1693	0.0048
1702	0.0162
1711	0.1278
1720	0.309
1729	0.3111
1738	0.4926
1747	0.7248
1756	0.8373
1765	0.8648
1774	0.8672
1783	0.863
1792	0.8705
1801	0.8853
1810	0.8855
1819	0.8463
1828	0.8081
1837	0.8633
1846	0.9175
1855	0.937
1864	0.9412
1873	0.9417
1882	0.9411
1891	0.9385
1900	0.9344
1909	0.9317
1918	0.9185
1927	0.9134
1936	0.9193
1945	0.9238
1954	0.9276
1963	0.9279
1972	0.9239
1981	0.9242
1990	0.9345
1999	0.9215
2008	0.9119
2017	0.9115
2026	0.914
2035	0.9158
2044	0.9175
2053	0.9192
2062	0.9209
2071	0.9225
2080	0.9235
2089	0.9243
2098	0.9248
2107	0.9253
2116	0.9259
2125	0.9263
2134	0.9269
2143	0.9274
2152	0.9278
2161	0.9275
2170	0.9272
2179	0.9264
2188	0.9255
2197	0.9247
2206	0.9239
2215	0.923
2224	0.9222
2233	0.9213
2242	0.9205
2251	0.9194
2260	0.9155
2269	0.9113
2278	0.9073
2287	0.9031
2296	0.8989
2305	0.8967
2314	0.8989
2323	0.899
2332	0.8962
2341	0.8867
2350	0.8801
2359	0.8811
2368	0.8888
2377	0.8937
2386	0.8965
2395	0.8928
2404	0.8869
2413	0.8772
2422	0.8689
2431	0.8628
2440	0.8622
2449	0.8625
2458	0.8636
2467	0.8647
2476	0.8653
2485	0.8648
2494	0.8613
2503	0.8546
2512	0.8459
2521	0.8375
2530	0.8313
2539	0.8268
2548	0.8288
2557	0.835
2566	0.8344
2575	0.8206
2584	0.8042
2593	0.7906
2602	0.795
2611	0.8038
2620	0.8154
2629	0.8165
2638	0.8127
2647	0.805
2656	0.7973
2665	0.7968
2674	0.7994
2683	0.7963
2692	0.7814
2701	0.7703
2710	0.7636
2719	0.7632
2728	0.7703
2737	0.7784
2746	0.7839
2755	0.7877
2764	0.7723
2773	0.7541
2782	0.745
2791	0.7439
2800	0.7446
2809	0.7456
2818	0.7399
2827	0.7272
2836	0.7157
2845	0.7046
2854	0.6951
2863	0.6928
2872	0.7094
2881	0.723
2890	0.7199
2899	0.7024
2908	0.6667
2917	0.6383
2926	0.6388
2935	0.6506
2944	0.6482
2953	0.6307
2962	0.5918
2971	0.5669
2980	0.5725
2989	0.5841
2998	0.5762
3007	0.5449
3016	0.5242
3025	0.5055
3034	0.4865
3043	0.4451
3052	0.4106
3061	0.3829
3070	0.3391
3079	0.2986
3088	0.2731
3097	0.2564
3106	0.2414
3115	0.22
3124	0.2066
3133	0.1972
3142	0.176
3151	0.1501
3160	0.1308
3169	0.1158
3178	0.1086
3187	0.1057
3196	0.1072
3205	0.11
3214	0.1137
3223	0.124
3232	0.1347
3241	0.1473
3250	0.1622
3259	0.1768
3268	0.1932
3277	0.2147
3286	0.2412
3295	0.2658
3304	0.2911
3313	0.3277
3322	0.3584
3331	0.3839
3340	0.4085
3349	0.4326
3358	0.4544
3367	0.4834
3376	0.5251
3385	0.5484
3394	0.5653
3403	0.5825
3412	0.6
3421	0.6178
3430	0.6354
3439	0.6528
3448	0.6696
3457	0.6852
3466	0.7
3475	0.7131
3484	0.7252
3493	0.7351
3502	0.7443
3511	0.7545
3520	0.765
3529	0.7779
3538	0.7887
3547	0.7994
3556	0.8101
3565	0.8227
3574	0.8358
3583	0.8476
3592	0.8585
3601	0.8683
3610	0.8774
3619	0.8881
3628	0.8952
3637	0.9004
3646	0.9031
3655	0.9058
3664	0.9078
3673	0.9091
3682	0.9105
3691	0.9118
3700	0.9127
3709	0.9135
3718	0.9135
3727	0.9133
3736	0.9132
3745	0.913
3754	0.9128
3763	0.9124
3772	0.9119
3781	0.9113
3790	0.9108
3799	0.9102
3808	0.9096
3817	0.9086
3826	0.9076
3835	0.9066
3844	0.9056
3853	0.9045
3862	0.9026
3871	0.9007
3880	0.8988
3889	0.8968
3898	0.8952
3907	0.8939
3916	0.8927
3925	0.8914
3934	0.8906
3943	0.8902
3952	0.8899
3961	0.8888
3970	0.8878
3979	0.8868
3988	0.8859
3997	0.885
