Infrared Spectrum: R-(-)-S-Methyl-S-phenylsulphoxime
Formula: C 7 H 9 N O S
CAS: 60933-65-5
State: gas
Origin: EPA-IR VAPOR PHASE LIBRARY
1/CM	ABSORBANCE
549.8	0.009287
559.445	0.006657
569.09	0.005007
578.734	0.004797
588.379	0.003877
598.024	0.003147
607.669	0.003527
617.313	0.003737
626.958	0.002877
636.603	0.003587
646.248	0.004677
655.893	0.005837
665.537	0.007837
675.182	0.015237
684.827	0.027267
694.472	0.027787
704.116	0.022377
713.761	0.029577
723.406	0.051557
733.051	0.058967
742.695	0.039657
752.34	0.024577
761.985	0.016597
771.63	0.009137
781.275	0.005787
790.919	0.005107
800.564	0.004837
810.209	0.004637
819.854	0.004067
829.498	0.004847
839.143	0.005467
848.788	0.006377
858.433	0.007337
868.078	0.008497
877.722	0.010107
887.367	0.012307
897.012	0.016137
906.657	0.021507
916.301	0.030727
925.946	0.042137
935.591	0.052257
945.236	0.055127
954.88	0.052837
964.525	0.050057
974.17	0.049747
983.815	0.061517
993.46	0.063547
1003.1	0.046427
1012.75	0.029177
1022.39	0.019607
1032.04	0.015387
1041.68	0.012897
1051.33	0.012787
1060.97	0.015177
1070.62	0.024507
1080.26	0.035307
1089.91	0.033927
1099.55	0.024307
1109.2	0.034337
1118.84	0.060907
1128.49	0.061967
1138.13	0.036317
1147.78	0.017447
1157.42	0.007017
1167.07	0.004917
1176.71	0.004427
1186.36	0.003417
1196	0.003107
1205.64	0.005107
1215.29	0.008057
1224.93	0.015887
1234.58	0.045557
1244.22	0.105527
1253.87	0.140757
1263.51	0.103297
1273.16	0.035167
1282.8	0.012467
1292.45	0.008987
1302.09	0.010997
1311.74	0.013567
1321.38	0.011337
1331.03	0.005587
1340.67	0.002617
1350.32	0.002167
1359.96	0.002277
1369.61	0.002937
1379.25	0.003077
1388.9	0.003357
1398.54	0.004357
1408.18	0.006817
1417.83	0.007747
1427.47	0.008297
1437.12	0.012647
1446.76	0.013877
1456.41	0.009527
1466.05	0.005377
1475.7	0.006137
1485.34	0.005047
1494.99	0.002157
1504.63	0.001437
1514.28	0.001397
1523.92	0.001202
1533.57	0.0011592
1543.21	0.0009047
1552.86	0.0009455
1562.5	0.0010865
1572.15	0.001427
1581.79	0.001357
1591.44	0.001507
1601.08	0.0011864
1610.73	0.001237
1620.37	0.0008822
1630.01	0.0006415
1639.66	0.000838
1649.3	0.0007196
1658.95	0.0009033
1668.59	0.0010223
1678.24	0.001387
1687.88	0.001257
1697.53	0.0008951
1707.17	0.0005192
1716.82	0.0004717
1726.46	0.0005579
1736.11	0.0007412
1745.75	0.0008369
1755.4	0.0011465
1765.04	0.001477
1774.69	0.001417
1784.33	0.0009237
1793.98	0.001667
1803.62	0.002367
1813.27	0.002647
1822.91	0.001607
1832.55	0.0011131
1842.2	0.0012016
1851.84	0.0009618
1861.49	0.0009417
1871.13	0.0012064
1880.78	0.001517
1890.42	0.002057
1900.07	0.002267
1909.71	0.002357
1919.36	0.001857
1929	0.0011408
1938.65	0.001267
1948.29	0.001877
1957.94	0.002327
1967.58	0.002347
1977.23	0.001797
1986.87	0.001327
1996.52	0.0011461
2006.16	0.0010821
2015.81	0.0009731
2025.45	0.001194
2035.1	0.0011761
2044.74	0.001357
2054.38	0.0011769
2064.03	0.0011742
2073.67	0.0009621
2083.32	0.000886
2092.96	0.0008977
2102.61	0.0007519
2112.25	0.0008381
2121.9	0.0006816
2131.54	0.0007213
2141.19	0.0005366
2150.83	0.0006265
2160.48	0.0009143
2170.12	0.0009411
2179.77	0.0010463
2189.41	0.0009867
2199.06	0.0011656
2208.7	0.0010758
2218.35	0.0010321
2227.99	0.0009287
2237.64	0.0007561
2247.28	0.0009111
2256.92	0.0009284
2266.57	0.0010435
2276.21	0.0008641
2285.86	0.0008982
2295.5	0.0007347
2305.15	0.0008681
2314.79	0.0009496
2324.44	0.0011086
2334.08	0.0010673
2343.73	0.0007661
2353.37	0.0007287
2363.02	0.0007702
2372.66	0.0008128
2382.31	0.000727
2391.95	0.0007601
2401.6	0.000446
2411.24	0.0006125
2420.89	0.0005426
2430.53	0.0003479
2440.18	0.00022445
2449.82	0.0003608
2459.47	0.0004513
2469.11	0.0005579
2478.75	0.0006694
2488.4	0.0005959
2498.04	0.0008484
2507.69	0.0006034
2517.33	0.0006174
2526.98	0.0006096
2536.62	0.0004252
2546.27	0.0005793
2555.91	0.0005525
2565.56	0.0003948
2575.2	0.0007422
2584.85	0.0006244
2594.49	0.0008156
2604.14	0.0008263
2613.78	0.000702
2623.43	0.0004887
2633.07	0.000519
2642.72	0.0004374
2652.36	0.0006017
2662.01	0.00078
2671.65	0.0007426
2681.29	0.0005475
2690.94	0.0005377
2700.58	0.0005431
2710.23	0.0004775
2719.87	0.0004077
2729.52	0.0006424
2739.16	0.0005732
2748.81	0.0005702
2758.45	0.0006311
2768.1	0.0005059
2777.74	0.0006625
2787.39	0.0006287
2797.03	0.0006099
2806.68	0.0007402
2816.32	0.0006504
2825.97	0.0004361
2835.61	0.0007721
2845.26	0.0006703
2854.9	0.0007907
2864.55	0.0007934
2874.19	0.0008503
2883.84	0.0007596
2893.48	0.0007433
2903.12	0.0007209
2912.77	0.0009634
2922.41	0.0010958
2932.06	0.001567
2941.7	0.001757
2951.35	0.001657
2960.99	0.0008038
2970.64	0.0010755
2980.28	0.0011399
2989.93	0.001397
2999.57	0.002187
3009.22	0.003007
3018.86	0.004127
3028.51	0.003887
3038.15	0.003737
3047.8	0.004897
3057.44	0.009797
3067.09	0.020537
3076.73	0.022317
3086.38	0.012557
3096.02	0.005987
3105.67	0.002947
3115.31	0.001987
3124.95	0.001277
3134.6	0.001237
3144.24	0.0011641
3153.89	0.001377
3163.53	0.001367
3173.18	0.001287
3182.82	0.0011497
3192.47	0.000646
3202.11	0.0006026
3211.76	0.0003361
3221.4	0.000561
3231.05	0.0004979
3240.69	0.0006351
3250.34	0.0007477
3259.98	0.0006671
3269.63	0.000771
3279.27	0.0005971
3288.92	0.0006067
3298.56	0.0006158
3308.21	0.0007837
3317.85	0.000993
3327.49	0.0009723
3337.14	0.002077
3346.78	0.005247
3356.43	0.015637
3366.07	0.024957
3375.72	0.017277
3385.36	0.005847
3395.01	0.001897
3404.65	0.001307
3414.3	0.0007745
3423.94	0.0007863
3433.59	0.0006522
3443.23	0.0004752
3452.88	0.0005176
3462.52	0.0006427
3472.17	0.0004763
3481.81	0.0006402
3491.46	0.0004266
3501.1	9.4e-05
3510.75	0.0004406
3520.39	0.0001672
3530.04	0.0005021
3539.68	0.0004208
3549.32	0.0004258
3558.97	0.0007871
3568.61	0.00027426
3578.26	0.0006374
3587.9	0.00029911
3597.55	0.00019735
3607.19	0.0006123
3616.84	0.0006326
3626.48	0.0006588
3636.13	0.0004022
3645.77	0.0006032
3655.42	0.0006357
3665.06	0.0005452
3674.71	0.0004299
3684.35	0.0008183
3694	0.0008402
3703.64	0.0009227
3713.29	0.0005048
3722.93	0.0007304
3732.58	0.0005057
3742.22	0.0004925
3751.86	0.0009405
3761.51	0.0007782
3771.15	0.0007708
3780.8	0.0005778
3790.44	0.0003517
3800.09	0.0004204
3809.73	0.0003917
3819.38	0.0005301
3829.02	0.0005339
3838.67	0.00028613
3848.31	0.000339
3857.96	0.0006457
3867.6	0.0005384
3877.25	0.0006099
3886.89	0.0007321
3896.54	0.0008632
3906.18	0.0006983
3915.83	0.0005365
3925.47	0.0006926
3935.12	0.0003882
3944.76	0.0007681
3954.41	0.0005876
3964.05	0.0003615
3973.69	0.0005847
3983.34	0.0008399
3992.98	0.0004311
