Infrared Spectrum: 2-Methyl-1-hexene
Formula: C 7 H 14
CAS: 6094-02-6
State: gas
Instrument: HP-GC/MS/IRD
Origin: NIST Mass Spectrometry Data Center
1/CM	ABSORBANCE
550	0.0007144
562	0.000665
574	0.0002698
586	0.000171
598	0.0001368
610	0.0001254
622	2.66e-05
634	0.0001102
646	9.88e-05
658	0.000133
670	0.0001292
682	0.0002736
694	0.0001786
706	0.0003838
718	0.0005928
730	0.0007752
742	0.0007296
754	0.0005814
766	0.0005244
778	0.0004788
790	0.0004978
802	0.0004978
814	0.0005434
826	0.000665
838	0.00076
850	0.001197
862	0.0025954
874	0.0062434
886	0.0112024
898	0.009595
910	0.0043776
922	0.0017024
934	0.0010298
946	0.0008322
958	0.000608
970	0.000532
982	0.0005434
994	0.0006194
1006	0.0005776
1018	0.000494
1030	0.000323
1042	0.0002432
1054	0.0002508
1066	0.0003382
1078	0.0004028
1090	0.0006194
1102	0.0007752
1114	0.00057
1126	0.0003534
1138	0.0003154
1150	0.0003268
1162	0.0003344
1174	0.0003876
1186	0.0005776
1198	0.0006764
1210	0.0008018
1222	0.000931
1234	0.0010108
1246	0.0010754
1258	0.0012084
1270	0.0013604
1282	0.0013528
1294	0.0011476
1306	0.0010754
1318	0.001007
1330	0.0012426
1342	0.0015048
1354	0.0018316
1366	0.0027892
1378	0.0041344
1390	0.0037886
1402	0.0023484
1414	0.0022952
1426	0.0031236
1438	0.0045828
1450	0.00627
1462	0.00646
1474	0.0046474
1486	0.0025764
1498	0.0014554
1510	0.0009538
1522	0.0007638
1534	0.0006308
1546	0.000665
1558	0.0007334
1570	0.0007296
1582	0.0008246
1594	0.000874
1606	0.0011172
1618	0.001786
1630	0.0031274
1642	0.0046436
1654	0.0044612
1666	0.0025726
1678	0.0010944
1690	0.0005434
1702	0.0004028
1714	0.0003572
1726	0.0002812
1738	0.000266
1750	0.0002812
1762	0.0004522
1774	0.0007524
1786	0.0008816
1798	0.000684
1810	0.00038
1822	0.0002356
1834	0.0001748
1846	0.000133
1858	0.0001102
1870	0.0001064
1882	0.0001026
1894	8.36e-05
1906	9.5e-05
1918	9.12e-05
1930	7.6e-05
1942	6.08e-05
1954	7.98e-05
1966	5.7e-05
1978	9.88e-05
1990	4.94e-05
2002	8.36e-05
2014	4.94e-05
2026	6.46e-05
2038	6.84e-05
2050	8.74e-05
2062	8.74e-05
2074	6.84e-05
2086	7.6e-05
2098	0.0001064
2110	7.98e-05
2122	7.22e-05
2134	7.98e-05
2146	5.32e-05
2158	6.08e-05
2170	7.98e-05
2182	6.84e-05
2194	6.08e-05
2206	6.84e-05
2218	3.42e-05
2230	5.7e-05
2242	3.8e-05
2254	4.94e-05
2266	6.84e-05
2278	7.22e-05
2290	4.94e-05
2302	6.46e-05
2314	5.7e-05
2326	5.7e-05
2338	5.32e-05
2350	6.84e-05
2362	6.08e-05
2374	4.94e-05
2386	6.08e-05
2398	7.98e-05
2410	4.94e-05
2422	2.28e-05
2434	5.7e-05
2446	5.32e-05
2458	2.66e-05
2470	5.7e-05
2482	3.04e-05
2494	1.14e-05
2506	3.8e-05
2518	5.7e-05
2530	6.08e-05
2542	6.84e-05
2554	8.36e-05
2566	7.22e-05
2578	0.0001216
2590	9.88e-05
2602	0.000133
2614	0.0001596
2626	0.000171
2638	0.0001672
2650	0.0002774
2662	0.0003192
2674	0.0003458
2686	0.0003648
2698	0.00038
2710	0.0004256
2722	0.0005168
2734	0.0006802
2746	0.0007904
2758	0.000779
2770	0.0008056
2782	0.001007
2794	0.0013072
2806	0.0017594
2818	0.0024814
2830	0.0038608
2842	0.0062434
2854	0.0100358
2866	0.0142766
2878	0.01748
2890	0.0177612
2902	0.0181944
2914	0.0231724
2926	0.0320378
2938	0.038
2950	0.035112
2962	0.0325546
2974	0.029298
2986	0.0182172
2998	0.009291
3010	0.0055404
3022	0.0038152
3034	0.002983
3046	0.0028234
3058	0.0035948
3070	0.0062358
3082	0.007372
3094	0.0047728
3106	0.002014
3118	0.0010982
3130	0.0008322
3142	0.0006346
3154	0.0005206
3166	0.0003876
3178	0.0003458
3190	0.0002736
3202	0.0002052
3214	0.0001596
3226	0.0001634
3238	0.000133
3250	0.0001064
3262	8.74e-05
3274	7.98e-05
3286	0.000114
3298	7.6e-05
3310	0.0001178
3322	9.5e-05
3334	5.32e-05
3346	9.88e-05
3358	5.32e-05
3370	4.56e-05
3382	6.46e-05
3394	3.8e-05
3406	2.28e-05
3418	4.56e-05
3430	0.0001178
3442	5.7e-05
3454	0
3466	2.66e-05
3478	9.12e-05
3490	4.18e-05
3502	1.14e-05
3514	4.94e-05
3526	4.94e-05
3538	5.7e-05
3550	6.84e-05
3562	4.94e-05
3574	4.56e-05
3586	6.46e-05
3598	0.0001406
3610	7.98e-05
3622	0.0001064
3634	9.5e-05
3646	0.000152
3658	0.0001292
3670	9.88e-05
3682	9.12e-05
3694	0.000152
3706	0.0001254
3718	6.46e-05
3730	8.74e-05
3742	0.0001216
3754	0.0001368
3766	0.0001444
3778	0.0001064
3790	0.000114
3802	0.0001558
3814	9.88e-05
3826	0.0001368
3838	0.0001178
