Infrared Spectrum: Alpha-Cyclopropyl-2-thiophenemethanol
Formula: C8 H10 O S
CAS: 60942-21-4
State: SOLUTION (10% CCl4 FOR 3800-1330, 10% CS2 FOR 1330-460 CM^-^1) VS SOLVENT
Class: COBLENTZ III
Instrument: DOW KBr FOREPRISM-GRATING
Instrument parameters: BLAZED AT 3.5, 12.0, 20.0 MICRON AND CHANGED AT 5.0, 7.5, 14.9 MICRON
Sampling: TRANSMISSION
Path length: 0.011 CM, 0.012 CM
Resolution: 2
Origin: DOW CHEMICAL COMPANY
1/CM	TRANSMITTANCE
3800	0.8508
3791	0.8507
3782	0.8504
3773	0.8498
3764	0.8499
3755	0.8499
3746	0.8498
3737	0.8506
3728	0.8521
3719	0.8536
3710	0.8537
3701	0.8532
3692	0.8525
3683	0.8468
3674	0.8305
3665	0.8252
3656	0.8244
3647	0.8274
3638	0.8261
3629	0.8018
3620	0.731
3611	0.6235
3602	0.5191
3593	0.5242
3584	0.5805
3575	0.6415
3566	0.6978
3557	0.6978
3548	0.6875
3539	0.6735
3530	0.6542
3521	0.6245
3512	0.606
3503	0.586
3494	0.5657
3485	0.5421
3476	0.5189
3467	0.4978
3458	0.4788
3449	0.4617
3440	0.4496
3431	0.4398
3422	0.431
3413	0.4225
3404	0.4168
3395	0.4112
3386	0.4082
3377	0.4059
3368	0.405
3359	0.4059
3350	0.4082
3341	0.4123
3332	0.4191
3323	0.4288
3314	0.4428
3305	0.4575
3296	0.4726
3287	0.49
3278	0.51
3269	0.5322
3260	0.5553
3251	0.5774
3242	0.5988
3233	0.6207
3224	0.6426
3215	0.6649
3206	0.6817
3197	0.6965
3188	0.7145
3179	0.7333
3170	0.7484
3161	0.7618
3152	0.7715
3143	0.7796
3134	0.7871
3125	0.7887
3116	0.7741
3107	0.7586
3098	0.7042
3089	0.5527
3080	0.5205
3071	0.6294
3062	0.7383
3053	0.7741
3044	0.7808
3035	0.7796
3026	0.7169
3017	0.556
3008	0.3879
2999	0.5548
2990	0.7395
2981	0.7832
2972	0.8114
2963	0.8243
2954	0.8255
2945	0.8306
2936	0.8289
2927	0.8195
2918	0.8071
2909	0.7824
2900	0.7414
2891	0.6967
2882	0.6511
2873	0.6304
2864	0.6295
2855	0.6449
2846	0.6998
2837	0.745
2828	0.7786
2819	0.796
2810	0.8095
2801	0.8208
2792	0.8306
2783	0.8394
2774	0.8491
2765	0.8574
2756	0.8621
2747	0.8617
2738	0.8612
2729	0.8615
2720	0.8627
2711	0.8633
2702	0.8631
2693	0.8627
2684	0.8618
2675	0.8612
2666	0.8623
2657	0.8634
2648	0.8656
2639	0.8681
2630	0.8706
2621	0.8728
2612	0.875
2603	0.876
2594	0.8768
2585	0.8775
2576	0.8782
2567	0.8786
2558	0.8792
2549	0.8796
2540	0.8801
2531	0.8806
2522	0.8825
2513	0.8846
2504	0.8859
2495	0.8877
2486	0.8899
2477	0.8857
2468	0.8815
2459	0.8845
2450	0.8878
2441	0.8909
2432	0.8928
2423	0.8945
2414	0.8952
2405	0.8958
2396	0.8966
2387	0.8978
2378	0.8991
2369	0.8998
2360	0.9034
2351	0.9071
2342	0.9113
2333	0.9155
2324	0.9195
2315	0.9196
2306	0.9121
2297	0.9066
2288	0.9055
2279	0.9082
2270	0.9107
2261	0.9095
2252	0.9087
2243	0.9094
2234	0.908
2225	0.905
2216	0.9038
2207	0.9051
2198	0.9081
2189	0.9121
2180	0.9118
2171	0.9063
2162	0.9021
2153	0.9005
2144	0.9052
2135	0.9064
2126	0.9058
2117	0.9035
2108	0.8994
2099	0.8917
2090	0.8901
2081	0.885
2072	0.8733
2063	0.8742
2054	0.8841
2045	0.8955
2036	0.8985
2027	0.9054
2018	0.9048
2009	0.9058
2000	0.9058
1991	0.8709
1982	0.8614
1973	0.8599
1964	0.8592
1955	0.8582
1946	0.8568
1937	0.8551
1928	0.8478
1919	0.8488
1910	0.8535
1901	0.8567
1892	0.8591
1883	0.857
1874	0.8532
1865	0.8578
1856	0.8552
1847	0.856
1838	0.8593
1829	0.8606
1820	0.8571
1811	0.8585
1802	0.849
1793	0.8268
1784	0.8114
1775	0.837
1766	0.8574
1757	0.8588
1748	0.8575
1739	0.8514
1730	0.8471
1721	0.836
1712	0.8385
1703	0.8499
1694	0.8546
1685	0.8546
1676	0.852
1667	0.8453
1658	0.8355
1649	0.8331
1640	0.8378
1631	0.8415
1622	0.846
1613	0.856
1604	0.8577
1595	0.8414
1586	0.8413
1577	0.8523
1568	0.8634
1559	0.8743
1550	0.8789
1541	0.8503
1532	0.7862
1523	0.8197
1514	0.8354
1505	0.8417
1496	0.8352
1487	0.8299
1478	0.8176
1469	0.7541
1460	0.7201
1451	0.7308
1442	0.5743
1433	0.4629
1424	0.6266
1415	0.6227
1406	0.5496
1397	0.4945
1388	0.5054
1379	0.5696
1370	0.6066
1361	0.5895
1352	0.59
1343	0.6558
1334	0.6768
1325	0.6715
1316	0.6584
1307	0.6027
1298	0.5036
1289	0.5324
1280	0.536
1271	0.5234
1262	0.5154
1253	0.5279
1244	0.5738
1235	0.4952
1226	0.4454
1217	0.5564
1208	0.6611
1199	0.6828
1190	0.6739
1181	0.6598
1172	0.5562
1163	0.4828
1154	0.5929
1145	0.621
1136	0.5705
1127	0.5493
1118	0.5871
1109	0.6418
1100	0.6843
1091	0.7762
1082	0.7601
1073	0.6626
1064	0.6875
1055	0.474
1046	0.2832
1037	0.2074
1028	0.0878
1019	0.1863
1010	0.1871
1001	0.2791
992	0.4591
983	0.6391
974	0.6997
965	0.6331
956	0.6446
947	0.6608
938	0.4631
929	0.7049
920	0.4855
911	0.6718
902	0.8049
893	0.7978
884	0.8347
875	0.8286
866	0.6082
857	0.3264
848	0.5789
839	0.5146
830	0.1904
821	0.358
812	0.7358
803	0.7751
794	0.7667
785	0.739
776	0.7261
767	0.7678
758	0.7392
749	0.6865
740	0.7219
731	0.7061
722	0.6202
713	0.409
704	0.0696
695	0.0253
686	0.47
677	0.6575
668	0.7306
659	0.7314
650	0.7169
641	0.7061
632	0.7385
623	0.7415
614	0.7308
605	0.723
596	0.6947
587	0.6915
578	0.7071
569	0.7141
560	0.7188
551	0.7199
542	0.708
533	0.6843
524	0.6703
515	0.6739
506	0.6775
497	0.6662
488	0.6614
479	0.6739
470	0.6901
461	0.7028
