Infrared Spectrum: 4-Bromo-2-nitrotoluene
Formula: C 7 H 6 Br N O 2
CAS: 60956-26-5
State: gas
Origin: EPA-IR VAPOR PHASE LIBRARY
1/CM	ABSORBANCE
549.9	0.00404
559.547	0.00517
569.193	0.00581
578.84	0.00502
588.486	0.00421
598.133	0.00421
607.779	0.00574
617.426	0.01128
627.072	0.01301
636.719	0.00464
646.365	0.0024265
656.012	0.0024289
665.658	0.00506
675.305	0.01088
684.951	0.01512
694.598	0.0172
704.245	0.01565
713.891	0.00943
723.538	0.00771
733.184	0.00844
742.831	0.00998
752.477	0.01454
762.124	0.01496
771.77	0.01232
781.417	0.01832
791.063	0.05221
800.71	0.04713
810.356	0.03819
820.003	0.02818
829.649	0.00956
839.296	0.00421
848.943	0.00451
858.589	0.00868
868.236	0.02607
877.882	0.03937
887.529	0.02709
897.175	0.00977
906.822	0.00397
916.468	0.00284
926.115	0.0022474
935.761	0.0020924
945.408	0.0021779
955.054	0.0022254
964.701	0.0022
974.347	0.0022848
983.994	0.0026964
993.64	0.00408
1003.29	0.00578
1012.93	0.00469
1022.58	0.00418
1032.23	0.00461
1041.87	0.00505
1051.52	0.00486
1061.17	0.0052
1070.81	0.00687
1080.46	0.01013
1090.11	0.01756
1099.75	0.03701
1109.4	0.04118
1119.05	0.01578
1128.69	0.00723
1138.34	0.0057
1147.99	0.00826
1157.63	0.0096
1167.28	0.00565
1176.92	0.00419
1186.57	0.00486
1196.22	0.00653
1205.86	0.00661
1215.51	0.00495
1225.16	0.0046
1234.8	0.00517
1244.45	0.00631
1254.1	0.00815
1263.74	0.01679
1273.39	0.0196
1283.04	0.00981
1292.68	0.00897
1302.33	0.01124
1311.98	0.01486
1321.62	0.01987
1331.27	0.03251
1340.92	0.07282
1350.56	0.15621
1360.21	0.14661
1369.86	0.04601
1379.5	0.02141
1389.15	0.02236
1398.79	0.01936
1408.44	0.01515
1418.09	0.01441
1427.73	0.01664
1437.38	0.02112
1447.03	0.02555
1456.67	0.0295
1466.32	0.03739
1475.97	0.06617
1485.61	0.06013
1495.26	0.04005
1504.91	0.04681
1514.55	0.06505
1524.2	0.09774
1533.85	0.16457
1543.49	0.24032
1553.14	0.1922
1562.79	0.11809
1572.43	0.08211
1582.08	0.04663
1591.73	0.02652
1601.37	0.01992
1611.02	0.0147
1620.67	0.01021
1630.31	0.00797
1639.96	0.00591
1649.6	0.0046
1659.25	0.00364
1668.9	0.00325
1678.54	0.0031
1688.19	0.00301
1697.84	0.00284
1707.48	0.00283
1717.13	0.0027241
1726.78	0.002463
1736.42	0.0024535
1746.07	0.00294
1755.72	0.00452
1765.36	0.00495
1775.01	0.00325
1784.66	0.0021464
1794.3	0.001645
1803.95	0.001625
1813.6	0.0016478
1823.24	0.0017773
1832.89	0.0020993
1842.54	0.0020545
1852.18	0.00180953
1861.83	0.001601
1871.47	0.001546
1881.12	0.00180457
1890.77	0.00276
1900.41	0.00383
1910.06	0.00297
1919.71	0.001564
1929.35	0.001307
1939	0.001279
1948.65	0.001256
1958.29	0.001235
1967.94	0.001203
1977.59	0.001225
1987.23	0.001269
1996.88	0.001224
2006.53	0.001131
2016.17	0.001166
2025.82	0.001091
2035.47	0.001077
2045.11	0.001043
2054.76	0.001064
2064.41	0.001016
2074.05	0.00099
2083.7	0.000954
2093.35	0.000927
2102.99	0.00093
2112.64	0.000929
2122.28	0.000893
2131.93	0.000894
2141.58	0.000908
2151.22	0.000903
2160.87	0.000908
2170.52	0.000992
2180.16	0.001123
2189.81	0.00105
2199.46	0.00099
2209.1	0.000974
2218.75	0.000941
2228.4	0.000949
2238.04	0.000917
2247.69	0.000921
2257.34	0.00096
2266.98	0.00103
2276.63	0.000939
2286.28	0.000841
2295.92	0.00085
2305.57	0.001033
2315.22	0.001106
2324.86	0.001008
2334.51	0.001062
2344.16	0.001166
2353.8	0.001169
2363.45	0.00099
2373.09	0.000968
2382.74	0.001019
2392.39	0.001211
2402.03	0.00135
2411.68	0.001531
2421.33	0.0016565
2430.97	0.001411
2440.62	0.001209
2450.27	0.001187
2459.91	0.001102
2469.56	0.001007
2479.21	0.000879
2488.85	0.000864
2498.5	0.000801
2508.15	0.00071
2517.79	0.000802
2527.44	0.000912
2537.09	0.001171
2546.73	0.001073
2556.38	0.000913
2566.03	0.000769
2575.67	0.000892
2585.32	0.00112
2594.96	0.001058
2604.61	0.000805
2614.26	0.000775
2623.9	0.000884
2633.55	0.000897
2643.2	0.000956
2652.84	0.001093
2662.49	0.001174
2672.14	0.001324
2681.78	0.001419
2691.43	0.00175708
2701.08	0.0019259
2710.72	0.001639
2720.37	0.001282
2730.02	0.001213
2739.66	0.001237
2749.31	0.001493
2758.96	0.001551
2768.6	0.00128
2778.25	0.000902
2787.9	0.000934
2797.54	0.001057
2807.19	0.001236
2816.84	0.0016546
2826.48	0.0019706
2836.13	0.0025966
2845.77	0.00308
2855.42	0.00387
2865.07	0.00535
2874.71	0.00706
2884.36	0.0079
2894.01	0.00735
2903.65	0.00589
2913.3	0.0053
2922.95	0.0059
2932.59	0.00906
2942.24	0.01551
2951.89	0.01464
2961.53	0.00798
2971.18	0.00671
2980.83	0.00925
2990.47	0.01076
3000.12	0.00837
3009.77	0.00517
3019.41	0.00414
3029.06	0.00453
3038.71	0.0054
3048.35	0.00551
3058	0.00609
3067.64	0.00857
3077.29	0.0094
3086.94	0.00545
3096.58	0.0027029
3106.23	0.0019514
3115.88	0.001276
3125.52	0.000881
3135.17	0.00071
3144.82	0.00052
3154.46	0.00047
3164.11	0.00051
3173.76	0.00037
3183.4	0.00024
3193.05	0.00029
3202.7	0.00015
3212.34	0.00022
3221.99	0
3231.64	3e-05
3241.28	7e-05
3250.93	0.0002
3260.58	0.00019
3270.22	0.00033
3279.87	0.00016
3289.52	0.00019
3299.16	0.0003
3308.81	0.00019
3318.45	0.00053
3328.1	0.00036
3337.75	0.0004
3347.39	0.00046
3357.04	0.00032
3366.69	0.00054
3376.33	0.0005
3385.98	0.00057
3395.63	0.00068
3405.27	0.00068
3414.92	0.00067
3424.57	0.00063
3434.21	0.00072
3443.86	0.00069
3453.51	0.000883
3463.15	0.000916
3472.8	0.000771
3482.45	0.000933
3492.09	0.000794
3501.74	0.000916
3511.39	0.000881
3521.03	0.000922
3530.68	0.000823
3540.33	0.001065
3549.97	0.00101
3559.62	0.001015
3569.26	0.000997
3578.91	0.001163
3588.56	0.001122
3598.2	0.000919
3607.85	0.001111
3617.5	0.00119
3627.14	0.000905
3636.79	0.00102
3646.44	0.00113
3656.08	0.001036
3665.73	0.001258
3675.38	0.001019
3685.02	0.001044
3694.67	0.001159
3704.32	0.001214
3713.96	0.001185
3723.61	0.001155
3733.26	0.001088
3742.9	0.001226
3752.55	0.001144
3762.2	0.001104
3771.84	0.001182
3781.49	0.001203
3791.13	0.001058
3800.78	0.001141
3810.43	0.001037
3820.07	0.001085
3829.72	0.001077
3839.37	0.000961
3849.01	0.001087
3858.66	0.001199
3868.31	0.001167
3877.95	0.001164
3887.6	0.001061
3897.25	0.001119
3906.89	0.001053
3916.54	0.001041
3926.19	0.001094
3935.83	0.001199
3945.48	0.001281
3955.13	0.00134
3964.77	0.001431
3974.42	0.001146
3984.07	0.001145
3993.71	0.001158
