Infrared Spectrum: 2,4,6-Trimethylphenyl isothiocyanate
Formula: C 10 H 11 N S
CAS: 6095-82-5
State: gas
Origin: EPA-IR VAPOR PHASE LIBRARY
1/CM	ABSORBANCE
549.8	0.006947
559.445	0.010317
569.09	0.011137
578.734	0.009367
588.379	0.009087
598.024	0.009857
607.669	0.006947
617.313	0.003457
626.958	0.001687
636.603	0.000436
646.248	0.000234
655.893	0.0008415
665.537	0.001687
675.182	0.003647
684.827	0.003877
694.472	0.002587
704.116	0.003657
713.761	0.007667
723.406	0.005817
733.051	0.002817
742.695	0.002467
752.34	0.004597
761.985	0.003007
771.63	0.0013374
781.275	0.001567
790.919	0.001857
800.564	0.001767
810.209	0.002247
819.854	0.001937
829.498	0.002947
839.143	0.012017
848.788	0.028957
858.433	0.023037
868.078	0.020637
877.722	0.031507
887.367	0.032927
897.012	0.028417
906.657	0.029207
916.301	0.032307
925.946	0.027647
935.591	0.019167
945.236	0.013387
954.88	0.016667
964.525	0.019587
974.17	0.009897
983.815	0.005887
993.46	0.005627
1003.1	0.006517
1012.75	0.006517
1022.39	0.004467
1032.04	0.004257
1041.68	0.004197
1051.33	0.003867
1060.97	0.002947
1070.62	0.002717
1080.26	0.002037
1089.91	0.001244
1099.55	0.001567
1109.2	0.0009633
1118.84	0.0014622
1128.49	0.0010135
1138.13	0.0010651
1147.78	0.0015192
1157.42	0.001687
1167.07	0.00134
1176.71	0.001577
1186.36	0.0011633
1196	0.001727
1205.64	0.001937
1215.29	0.003057
1224.93	0.008347
1234.58	0.011757
1244.22	0.007157
1253.87	0.004597
1263.51	0.004197
1273.16	0.003827
1282.8	0.003317
1292.45	0.003687
1302.09	0.004407
1311.74	0.003747
1321.38	0.002877
1331.03	0.002977
1340.67	0.003047
1350.32	0.003167
1359.96	0.003507
1369.61	0.004407
1379.25	0.007037
1388.9	0.008197
1398.54	0.005837
1408.18	0.006347
1417.83	0.007737
1427.47	0.012447
1437.12	0.017707
1446.76	0.023417
1456.41	0.028327
1466.05	0.039997
1475.7	0.051917
1485.34	0.033727
1494.99	0.016137
1504.63	0.012217
1514.28	0.011077
1523.92	0.010567
1533.57	0.010347
1543.21	0.010177
1552.86	0.010017
1562.5	0.009687
1572.15	0.009347
1581.79	0.008917
1591.44	0.008037
1601.08	0.006357
1610.73	0.005057
1620.37	0.004227
1630.01	0.003487
1639.66	0.003157
1649.3	0.002667
1658.95	0.002167
1668.59	0.001977
1678.24	0.001817
1687.88	0.002077
1697.53	0.002457
1707.17	0.003097
1716.82	0.004767
1726.46	0.005667
1736.11	0.004427
1745.75	0.003827
1755.4	0.004177
1765.04	0.003537
1774.69	0.003267
1784.33	0.003467
1793.98	0.003677
1803.62	0.004017
1813.27	0.004017
1822.91	0.004027
1832.55	0.004267
1842.2	0.004487
1851.84	0.004547
1861.49	0.004887
1871.13	0.005327
1880.78	0.005307
1890.42	0.005247
1900.07	0.005117
1909.71	0.005557
1919.36	0.006117
1929	0.007267
1938.65	0.008947
1948.29	0.011777
1957.94	0.015627
1967.58	0.021277
1977.23	0.029337
1986.87	0.039297
1996.52	0.052197
2006.16	0.070877
2015.81	0.099437
2025.45	0.142697
2035.1	0.200257
2044.74	0.272717
2054.38	0.372637
2064.03	0.486337
2073.67	0.565947
2083.32	0.591727
2092.96	0.515807
2102.61	0.365367
2112.25	0.267827
2121.9	0.229067
2131.54	0.214867
2141.19	0.215107
2150.83	0.199917
2160.48	0.149697
2170.12	0.086117
2179.77	0.051987
2189.41	0.040667
2199.06	0.034917
2208.7	0.024727
2218.35	0.016577
2227.99	0.012267
2237.64	0.009157
2247.28	0.006777
2256.92	0.005117
2266.57	0.003827
2276.21	0.003227
2285.86	0.002887
2295.5	0.002807
2305.15	0.003397
2314.79	0.003627
2324.44	0.003537
2334.08	0.003707
2343.73	0.004017
2353.37	0.004067
2363.02	0.004087
2372.66	0.004397
2382.31	0.005257
2391.95	0.005457
2401.6	0.004357
2411.24	0.003937
2420.89	0.004047
2430.53	0.004367
2440.18	0.004637
2449.82	0.005387
2459.47	0.006087
2469.11	0.005987
2478.75	0.004887
2488.4	0.004057
2498.04	0.004147
2507.69	0.004297
2517.33	0.004257
2526.98	0.004267
2536.62	0.004447
2546.27	0.004257
2555.91	0.004067
2565.56	0.003487
2575.2	0.002937
2584.85	0.002227
2594.49	0.001707
2604.14	0.001547
2613.78	0.0015059
2623.43	0.0013878
2633.07	0.001547
2642.72	0.001817
2652.36	0.002207
2662.01	0.002777
2671.65	0.003327
2681.29	0.004327
2690.94	0.005247
2700.58	0.006637
2710.23	0.007597
2719.87	0.007587
2729.52	0.006587
2739.16	0.006077
2748.81	0.005467
2758.45	0.003967
2768.1	0.002717
2777.74	0.002277
2787.39	0.002207
2797.03	0.002237
2806.68	0.002317
2816.32	0.002797
2825.97	0.003617
2835.61	0.004667
2845.26	0.006837
2854.9	0.010737
2864.55	0.017687
2874.19	0.022527
2883.84	0.018897
2893.48	0.016177
2903.12	0.017647
2912.77	0.023937
2922.41	0.039457
2932.06	0.053047
2941.7	0.041127
2951.35	0.028387
2960.99	0.025357
2970.64	0.023047
2980.28	0.026337
2989.93	0.029717
2999.57	0.027177
3009.22	0.027737
3018.86	0.031507
3028.51	0.030517
3038.15	0.026107
3047.8	0.021237
3057.44	0.015917
3067.09	0.011317
3076.73	0.008057
3086.38	0.005807
3096.02	0.004297
3105.67	0.003287
3115.31	0.002727
3124.95	0.002127
3134.6	0.001707
3144.24	0.00125
3153.89	0.0010274
3163.53	0.0009617
3173.18	0.0007005
3182.82	0.0005101
3192.47	0.0005243
3202.11	0.000544707
3211.76	0.0004614
3221.4	0.000272
3231.05	0.000323
3240.69	0.000243
3250.34	0.000252
3259.98	0.000404
3269.63	0.0005192
3279.27	0.00035
3288.92	0.000418
3298.56	0.000393
3308.21	0.000391
3317.85	0.00015
3327.49	0.0005107
3337.14	0.000366
3346.78	0.000431
3356.43	0.000351
3366.07	0.000164
3375.72	0.000208
3385.36	0.000314
3395.01	0.00034
3404.65	0.000167
3414.3	9.9e-05
3423.94	0.00062917
3433.59	0.000339
3443.23	0.000343
3452.88	0.000142
3462.52	0.000269
3472.17	0.000173
3481.81	0.000429
3491.46	0.000386
3501.1	0.00037
3510.75	0.000201
3520.39	0.000540252
3530.04	0.0004558
3539.68	0.000247
3549.32	0.0004458
3558.97	0.000237
3568.61	0.000355
3578.26	0.000397
3587.9	0.0004846
3597.55	0.0004673
3607.19	0.000337
3616.84	0.000185
3626.48	0.000389
3636.13	0.000196
3645.77	0.000262
3655.42	0.000241
3665.06	0.000171
3674.71	0.000203
3684.35	0.000217
3694	0.000276
3703.64	0.000299
3713.29	0.000431
3722.93	0.000216
3732.58	0.000335
3742.22	0.000285
3751.86	0.000353
3761.51	0.000348
3771.15	0.000347
3780.8	0.000358
3790.44	0.000396
3800.09	0.00055135
3809.73	0.000541185
3819.38	0.00057344
3829.02	0.00053014
3838.67	0.0004
3848.31	0.00058896
3857.96	0.00058633
3867.6	0.000691
3877.25	0.0006962
3886.89	0.0007162
3896.54	0.0008069
3906.18	0.00056877
3915.83	0.0007822
3925.47	0.0007612
3935.12	0.0009121
3944.76	0.0010489
3954.41	0.0010052
3964.05	0.001361
3973.69	0.0012771
3983.34	0.0013434
3992.98	0.001607
