Infrared Spectrum: Dinoseb, methyl ether
Formula: C 11 H 14 N 2 O 5
CAS: 6099-79-2
State: gas
Instrument: HP-GC/MS/IRD
Origin: NIST Mass Spectrometry Data Center
1/CM	ABSORBANCE
550	0.0004633
562	0.0003277
574	0.0004633
586	0.0004972
598	0.0003164
610	0.0001469
622	5.65e-05
634	5.65e-05
646	0.0005763
658	0.0016724
670	0.0049494
682	0.0097632
694	0.0068139
706	0.0031866
718	0.0027346
730	0.0060907
742	0.0133453
754	0.0084637
766	0.0063393
778	0.0068591
790	0.0065992
802	0.005989
814	0.002712
826	0.0018306
838	0.0023278
850	0.0008362
862	0.0004068
874	0.0005085
886	0.0015933
898	0.0038646
910	0.0060907
922	0.0064636
934	0.003955
946	0.0013899
958	0.0016046
970	0.0030736
982	0.006893
994	0.0181704
1006	0.0217638
1018	0.0078761
1030	0.0028137
1042	0.0018532
1054	0.0024069
1066	0.0056952
1078	0.0112209
1090	0.0120232
1102	0.0078535
1114	0.0042149
1126	0.0023052
1138	0.0026442
1150	0.0028702
1162	0.0021357
1174	0.0030736
1186	0.0043166
1198	0.0052206
1210	0.0086671
1222	0.0108932
1234	0.0099214
1246	0.0183964
1258	0.0311654
1270	0.021809
1282	0.0121249
1294	0.0096502
1306	0.0106559
1318	0.0148708
1330	0.0309733
1342	0.0931911
1354	0.0904452
1366	0.0349396
1378	0.0146787
1390	0.0106333
1402	0.0090287
1414	0.0113565
1426	0.0138538
1438	0.0103734
1450	0.0094807
1462	0.0170065
1474	0.023617
1486	0.0173794
1498	0.0166675
1510	0.0168031
1522	0.0224531
1534	0.0492115
1546	0.113
1558	0.0675853
1570	0.0297303
1582	0.0255041
1594	0.0300015
1606	0.0210406
1618	0.010509
1630	0.0045991
1642	0.00339
1654	0.0024408
1666	0.0015368
1678	0.0011639
1690	0.0009718
1702	0.0006554
1714	0.0004068
1726	0.0002825
1738	0.0002147
1750	0.0002486
1762	0.000339
1774	0.0006102
1786	0.0009266
1798	0.0009492
1810	0.0007684
1822	0.0006215
1834	0.0003955
1846	0.0001695
1858	0.0001017
1870	0.000113
1882	0.000113
1894	0.0001356
1906	0.0001356
1918	0.0001582
1930	0.0002034
1942	0.0001808
1954	0.0001921
1966	0.0002486
1978	0.0003616
1990	0.0005085
2002	0.0004859
2014	0.0003842
2026	0.0002373
2038	0.0002599
2050	0.0002825
2062	0.0002373
2074	0.0001356
2086	5.65e-05
2098	2.26e-05
2110	2.26e-05
2122	0
2134	1.13e-05
2146	3.39e-05
2158	4.52e-05
2170	3.39e-05
2182	3.39e-05
2194	0
2206	0
2218	0
2230	5.65e-05
2242	5.65e-05
2254	9.04e-05
2266	0.0002147
2278	0.0002373
2290	0.0001921
2302	0.0001243
2314	0.0001243
2326	0.0001469
2338	0.0001582
2350	0.0001808
2362	0.0001356
2374	0.0001695
2386	0.0002034
2398	0.000226
2410	0.0002147
2422	0.000226
2434	0.0002486
2446	0.0002712
2458	0.0003164
2470	0.0004068
2482	0.0003729
2494	0.0003503
2506	0.0003955
2518	0.0004746
2530	0.0005085
2542	0.0004746
2554	0.0004633
2566	0.0004972
2578	0.0005424
2590	0.0005311
2602	0.0006102
2614	0.0006328
2626	0.0005876
2638	0.000452
2650	0.0004633
2662	0.0004859
2674	0.0005989
2686	0.0007119
2698	0.0007119
2710	0.0006328
2722	0.0006893
2734	0.0007684
2746	0.0008475
2758	0.000791
2770	0.0008136
2782	0.0009266
2794	0.0011413
2806	0.0014125
2818	0.0018306
2830	0.0026894
2842	0.0040793
2854	0.0049268
2866	0.0071077
2878	0.0114243
2890	0.0128368
2902	0.0094016
2914	0.01017
2926	0.0140911
2938	0.0200914
2950	0.0192439
2962	0.0202722
2974	0.0388494
2986	0.0201366
2998	0.0082264
3010	0.0056048
3022	0.0042714
3034	0.0032205
3046	0.0025651
3058	0.0022148
3070	0.0022148
3082	0.0024408
3094	0.0040115
3106	0.0051754
3118	0.0018645
3130	0.0011413
3142	0.0008475
3154	0.0007119
3166	0.0006215
3178	0.0006215
3190	0.0005876
3202	0.0004972
3214	0.0004068
3226	0.0002712
3238	0.000226
3250	0.0001921
3262	0.0001808
3274	0.0001356
3286	9.04e-05
3298	0.000113
3310	4.52e-05
3322	3.39e-05
3334	4.52e-05
3346	3.39e-05
3358	6.78e-05
3370	0.000113
3382	4.52e-05
3394	6.78e-05
3406	5.65e-05
3418	5.65e-05
3430	4.52e-05
3442	5.65e-05
3454	7.91e-05
3466	6.78e-05
3478	5.65e-05
3490	0.0001017
3502	2.26e-05
3514	6.78e-05
3526	1.13e-05
3538	7.91e-05
3550	1.13e-05
3562	7.91e-05
3574	6.78e-05
3586	3.39e-05
3598	6.78e-05
3610	0.0001017
3622	5.65e-05
3634	0.0001243
3646	0
3658	9.04e-05
3670	0.0001017
3682	0.000113
3694	7.91e-05
3706	0.0001582
3718	0.0001017
3730	7.91e-05
3742	0.0001356
3754	0.0001243
3766	0.0001469
3778	0.0002147
3790	0.0001582
3802	0.0001469
3814	0.0001582
3826	0.0001695
3838	0.0002147
