Infrared Spectrum: 2-Chloroethyl isothiocyanate
Formula: C 3 H 4 Cl N S
CAS: 6099-88-3
State: gas
Origin: EPA-IR VAPOR PHASE LIBRARY
1/CM	ABSORBANCE
549.8	0.020804
559.445	0.016554
569.09	0.012644
578.734	0.009784
588.379	0.009064
598.024	0.007844
607.669	0.006844
617.313	0.006264
626.958	0.006214
636.603	0.006674
646.248	0.007964
655.893	0.010574
665.537	0.014674
675.182	0.021024
684.827	0.030334
694.472	0.038854
704.116	0.039164
713.761	0.025224
723.406	0.011064
733.051	0.006414
742.695	0.004774
752.34	0.004144
761.985	0.004174
771.63	0.007174
781.275	0.010094
790.919	0.007844
800.564	0.003824
810.209	0.001944
819.854	0.0012169
829.498	0.0011026
839.143	0.0009721
848.788	0.0012208
858.433	0.001874
868.078	0.003154
877.722	0.005724
887.367	0.008734
897.012	0.008114
906.657	0.005994
916.301	0.004434
925.946	0.004774
935.591	0.005644
945.236	0.005934
954.88	0.005274
964.525	0.004234
974.17	0.003974
983.815	0.003754
993.46	0.004094
1003.1	0.004494
1012.75	0.005334
1022.39	0.006394
1032.04	0.007284
1041.68	0.006794
1051.33	0.005604
1060.97	0.005614
1070.62	0.005864
1080.26	0.005314
1089.91	0.004004
1099.55	0.004464
1109.2	0.004004
1118.84	0.004864
1128.49	0.006014
1138.13	0.006554
1147.78	0.006964
1157.42	0.006474
1167.07	0.005344
1176.71	0.003944
1186.36	0.003574
1196	0.003894
1205.64	0.003724
1215.29	0.004944
1224.93	0.006104
1234.58	0.008634
1244.22	0.015774
1253.87	0.038314
1263.51	0.039744
1273.16	0.015034
1282.8	0.013184
1292.45	0.022124
1302.09	0.030274
1311.74	0.028434
1321.38	0.018754
1331.03	0.025324
1340.67	0.054614
1350.32	0.085484
1359.96	0.068594
1369.61	0.025914
1379.25	0.012004
1388.9	0.008714
1398.54	0.006634
1408.18	0.005724
1417.83	0.006454
1427.47	0.009524
1437.12	0.019164
1446.76	0.027554
1456.41	0.029024
1466.05	0.018524
1475.7	0.010364
1485.34	0.004084
1494.99	0.003114
1504.63	0.002574
1514.28	0.002184
1523.92	0.001694
1533.57	0.001554
1543.21	0.0013243
1552.86	0.0013089
1562.5	0.0013944
1572.15	0.0012836
1581.79	0.0013383
1591.44	0.001261
1601.08	0.0014026
1610.73	0.0014828
1620.37	0.001544
1630.01	0.001534
1639.66	0.0014839
1649.3	0.0013927
1658.95	0.0012472
1668.59	0.0012411
1678.24	0.0011244
1687.88	0.0011732
1697.53	0.001206
1707.17	0.0013544
1716.82	0.0013579
1726.46	0.0015092
1736.11	0.0014199
1745.75	0.0014367
1755.4	0.001524
1765.04	0.001644
1774.69	0.001824
1784.33	0.001904
1793.98	0.001914
1803.62	0.001984
1813.27	0.002124
1822.91	0.002354
1832.55	0.002874
1842.2	0.003344
1851.84	0.004144
1861.49	0.005264
1871.13	0.006584
1880.78	0.008384
1890.42	0.010584
1900.07	0.013244
1909.71	0.016824
1919.36	0.021504
1929	0.027544
1938.65	0.035474
1948.29	0.046504
1957.94	0.061964
1967.58	0.083694
1977.23	0.114614
1986.87	0.159644
1996.52	0.222504
2006.16	0.305194
2015.81	0.409894
2025.45	0.530244
2035.1	0.637994
2044.74	0.698244
2054.38	0.688364
2064.03	0.556624
2073.67	0.373064
2083.32	0.244144
2092.96	0.174304
2102.61	0.139484
2112.25	0.124744
2121.9	0.117994
2131.54	0.103784
2141.19	0.095194
2150.83	0.090554
2160.48	0.077714
2170.12	0.061664
2179.77	0.050664
2189.41	0.046744
2199.06	0.048354
2208.7	0.051974
2218.35	0.051774
2227.99	0.044784
2237.64	0.034964
2247.28	0.026114
2256.92	0.019124
2266.57	0.014464
2276.21	0.012064
2285.86	0.010354
2295.5	0.008664
2305.15	0.007394
2314.79	0.006554
2324.44	0.005674
2334.08	0.004854
2343.73	0.004254
2353.37	0.003894
2363.02	0.003584
2372.66	0.003344
2382.31	0.003044
2391.95	0.002584
2401.6	0.002214
2411.24	0.001934
2420.89	0.001724
2430.53	0.001764
2440.18	0.001814
2449.82	0.002044
2459.47	0.002194
2469.11	0.002264
2478.75	0.002444
2488.4	0.002524
2498.04	0.002724
2507.69	0.002634
2517.33	0.002664
2526.98	0.002814
2536.62	0.002984
2546.27	0.003334
2555.91	0.003984
2565.56	0.004064
2575.2	0.003264
2584.85	0.002364
2594.49	0.001934
2604.14	0.001584
2613.78	0.0013752
2623.43	0.0014212
2633.07	0.001674
2642.72	0.001764
2652.36	0.001874
2662.01	0.002214
2671.65	0.002804
2681.29	0.003904
2690.94	0.005214
2700.58	0.006904
2710.23	0.008844
2719.87	0.010934
2729.52	0.012564
2739.16	0.012884
2748.81	0.011754
2758.45	0.009484
2768.1	0.006634
2777.74	0.004594
2787.39	0.003374
2797.03	0.003054
2806.68	0.003064
2816.32	0.003054
2825.97	0.003124
2835.61	0.003114
2845.26	0.003854
2854.9	0.005404
2864.55	0.008184
2874.19	0.010354
2883.84	0.011664
2893.48	0.011774
2903.12	0.010584
2912.77	0.010084
2922.41	0.014494
2932.06	0.018134
2941.7	0.021464
2951.35	0.024714
2960.99	0.028014
2970.64	0.027704
2980.28	0.021904
2989.93	0.013524
2999.57	0.010754
3009.22	0.010294
3018.86	0.008174
3028.51	0.004624
3038.15	0.003144
3047.8	0.002354
3057.44	0.001634
3067.09	0.0012981
3076.73	0.0012322
3086.38	0.0009934
3096.02	0.0008329
3105.67	0.0008159
3115.31	0.0008009
3124.95	0.0004631
3134.6	0.0006461
3144.24	0.0006223
3153.89	0.0006368
3163.53	0.0004267
3173.18	0.0004356
3182.82	0.0004473
3192.47	0.000299
3202.11	0.0004551
3211.76	0.0006516
3221.4	0.000254
3231.05	8.1e-05
3240.69	0.000379
3250.34	0.000194
3259.98	0.000222
3269.63	0.0002
3279.27	0.000219
3288.92	0.0002
3298.56	0.000341
3308.21	0.000189
3317.85	0.000369
3327.49	0
3337.14	0.000116
3346.78	0.000295
3356.43	0.000362
3366.07	0.000411
3375.72	0.0004224
3385.36	0.000308
3395.01	0.000373
3404.65	0.00053134
3414.3	0.000432
3423.94	0.000393
3433.59	0.0007151
3443.23	0.00056345
3452.88	0.000406
3462.52	0.00036
3472.17	0.000237
3481.81	0.0004443
3491.46	0.000357
3501.1	4.8e-05
3510.75	0.000174
3520.39	0.000372
3530.04	0.0004939
3539.68	0.000514039
3549.32	0.0004766
3558.97	0.000301
3568.61	0.00041
3578.26	0.0005013
3587.9	0.0004578
3597.55	0.0004403
3607.19	0.0006334
3616.84	0.0006359
3626.48	0.00058899
3636.13	0.000414
3645.77	0.0006306
3655.42	0.000392
3665.06	0.00060208
3674.71	0.0006217
3684.35	0.00053859
3694	0.0006745
3703.64	0.00059601
3713.29	0.0006487
3722.93	0.0006705
3732.58	0.00061299
3742.22	0.0006181
3751.86	0.0007207
3761.51	0.0006738
3771.15	0.0007942
3780.8	0.0007156
3790.44	0.0006244
3800.09	0.0008191
3809.73	0.00053331
3819.38	0.000629
3829.02	0.0007425
3838.67	0.0007459
3848.31	0.000808
3857.96	0.0010696
3867.6	0.0009025
3877.25	0.0009524
3886.89	0.0010304
3896.54	0.0010695
3906.18	0.0011024
3915.83	0.0012246
3925.47	0.0013595
3935.12	0.001674
3944.76	0.001694
3954.41	0.001754
3964.05	0.001994
3973.69	0.002334
3983.34	0.002354
3992.98	0.002564
