Infrared Spectrum: TERTIARY OCTYL AMINE
Formula: C8 H19 N
CAS: 60996-53-4
State: LIQUID
Class: COBLENTZ
Instrument: Not specified, most likely a prism, grating, or hybrid spectrometer.
Sampling: TRANSMISSION
Path length: 0.003 CM
Resolution: 4
Origin: WYANDOTTE CHEMICALS CORP., WYANDOTTE, MICHIGAN, USA
MICROMETERS	TRANSMITTANCE
2.006	0.993
2.04318	0.992
2.08037	0.993
2.11755	0.986
2.15474	0.984
2.19192	0.945
2.2291	0.898
2.26629	0.905
2.30347	0.912
2.34066	0.914
2.37784	0.923
2.41502	0.937
2.45221	0.948
2.48939	0.951
2.52658	0.936
2.56376	0.942
2.60095	0.936
2.63813	0.942
2.67531	0.928
2.7125	0.928
2.74968	0.911
2.78687	0.874
2.82405	0.824
2.86123	0.779
2.89842	0.744
2.9356	0.712
2.97279	0.667
3.00997	0.615
3.04715	0.601
3.08434	0.625
3.12152	0.643
3.15871	0.671
3.19589	0.729
3.23307	0.769
3.27026	0.776
3.30744	0.572
3.34463	0.041
3.38181	0.02
3.41899	0.031
3.45618	0.029
3.49336	0.065
3.53055	0.412
3.56773	0.606
3.60491	0.774
3.6421	0.807
3.67928	0.8
3.71647	0.802
3.75365	0.832
3.79084	0.858
3.82802	0.87
3.8652	0.872
3.90239	0.889
3.93957	0.9
3.97676	0.897
4.01394	0.892
4.05112	0.898
4.08831	0.889
4.12549	0.891
4.16268	0.898
4.19986	0.892
4.23704	0.878
4.27423	0.903
4.31141	0.911
4.3486	0.919
4.38578	0.892
4.42296	0.878
4.46015	0.88
4.49733	0.884
4.53452	0.889
4.5717	0.892
4.60888	0.889
4.64607	0.886
4.68325	0.891
4.72044	0.881
4.75762	0.888
4.7948	0.875
4.83199	0.886
4.86917	0.891
4.90636	0.891
4.94354	0.886
4.98073	0.889
5.01791	0.886
5.05509	0.883
5.09228	0.867
5.12946	0.878
5.16665	0.872
5.20383	0.877
5.24101	0.87
5.2782	0.87
5.31538	0.88
5.35257	0.866
5.38975	0.872
5.42693	0.856
5.46412	0.872
5.5013	0.872
5.53849	0.855
5.57567	0.855
5.61285	0.852
5.65004	0.842
5.68722	0.844
5.72441	0.841
5.76159	0.83
5.79877	0.807
5.83596	0.8
5.87314	0.802
5.91033	0.771
5.94751	0.749
5.98469	0.723
6.02188	0.678
6.05906	0.617
6.09625	0.558
6.13343	0.485
6.17062	0.454
6.2078	0.446
6.24498	0.449
6.28217	0.469
6.31935	0.511
6.35654	0.55
6.39372	0.587
6.4309	0.628
6.46809	0.648
6.50527	0.676
6.54246	0.685
6.57964	0.685
6.61682	0.645
6.65401	0.58
6.69119	0.304
6.72838	0.11
6.76556	0.102
6.80274	0.125
6.83993	0.241
6.87711	0.342
6.9143	0.458
6.95148	0.545
6.98866	0.58
7.02585	0.622
7.06303	0.65
7.10022	0.628
7.1374	0.511
7.17458	0.346
7.21177	0.199
7.24895	0.29
7.28614	0.155
7.32332	0.032
7.36051	0.293
7.39769	0.337
7.43487	0.508
7.47206	0.618
7.50924	0.645
7.54643	0.665
7.58361	0.713
7.62079	0.715
7.65798	0.67
7.69516	0.629
7.73235	0.608
7.76953	0.617
7.80671	0.639
7.8439	0.654
7.88108	0.653
7.91827	0.62
7.95545	0.519
7.99263	0.328
8.02982	0.2
8.067	0.163
8.10419	0.132
8.14137	0.205
8.17855	0.284
8.21574	0.363
8.25292	0.382
8.29011	0.438
8.32729	0.491
8.36447	0.53
8.40166	0.564
8.43884	0.583
8.47603	0.603
8.51321	0.6
8.5504	0.589
8.58758	0.52
8.62476	0.458
8.66195	0.471
8.69913	0.44
8.73632	0.461
8.7735	0.52
8.81068	0.626
8.84787	0.685
8.88505	0.718
8.92224	0.74
8.95942	0.754
8.9966	0.76
9.03379	0.755
9.07097	0.74
9.10816	0.721
9.14534	0.712
9.18252	0.693
9.21971	0.688
9.25689	0.695
9.29408	0.716
9.33126	0.729
9.36844	0.746
9.40563	0.757
9.44281	0.774
9.48	0.769
9.51718	0.76
9.55436	0.748
9.59155	0.716
9.62873	0.687
9.66592	0.674
9.7031	0.676
9.74029	0.688
9.77747	0.706
9.81465	0.726
9.85184	0.716
9.88902	0.71
9.92621	0.682
9.96339	0.659
10.0006	0.648
10.0378	0.668
10.0749	0.674
10.1121	0.674
10.1493	0.664
10.1865	0.651
10.2237	0.637
10.2609	0.628
10.298	0.618
10.3352	0.6
10.3724	0.576
10.4096	0.55
10.4468	0.534
10.484	0.553
10.5212	0.575
10.5583	0.589
10.5955	0.601
10.6327	0.597
10.6699	0.586
10.7071	0.57
10.7443	0.542
10.7814	0.516
10.8186	0.493
10.8558	0.471
10.893	0.451
10.9302	0.437
10.9674	0.421
11.0045	0.404
11.0417	0.382
11.0789	0.346
11.1161	0.329
11.1533	0.32
11.1905	0.298
11.2276	0.279
11.2648	0.283
11.302	0.312
11.3392	0.345
11.3764	0.332
11.4136	0.317
11.4508	0.284
11.4879	0.261
11.5251	0.236
11.5623	0.219
11.5995	0.203
11.6367	0.217
11.6739	0.228
11.711	0.225
11.7482	0.2
11.7854	0.169
11.8226	0.141
11.8598	0.124
11.897	0.108
11.9341	0.099
11.9713	0.091
12.0085	0.083
12.0457	0.093
12.0829	0.091
12.1201	0.093
12.1572	0.096
12.1944	0.105
12.2316	0.122
12.2688	0.132
12.306	0.16
12.3432	0.169
12.3804	0.197
12.4175	0.219
12.4547	0.239
12.4919	0.269
12.5291	0.287
12.5663	0.307
12.6035	0.331
12.6406	0.354
12.6778	0.384
12.715	0.401
12.7522	0.421
12.7894	0.433
12.8266	0.432
12.8637	0.412
12.9009	0.349
12.9381	0.298
12.9753	0.301
13.0125	0.356
13.0497	0.429
13.0869	0.471
13.124	0.503
13.1612	0.538
13.1984	0.562
13.2356	0.584
13.2728	0.6
13.31	0.611
13.3471	0.615
13.3843	0.629
13.4215	0.626
13.4587	0.618
13.4959	0.603
13.5331	0.561
13.5702	0.514
13.6074	0.497
13.6446	0.528
13.6818	0.573
13.719	0.609
13.7562	0.642
13.7933	0.653
13.8305	0.668
13.8677	0.678
13.9049	0.685
13.9421	0.699
13.9793	0.699
14.0165	0.696
14.0536	0.702
14.0908	0.702
14.128	0.707
14.1652	0.707
14.2024	0.712
14.2396	0.712
14.2767	0.712
14.3139	0.713
14.3511	0.713
14.3883	0.716
14.4255	0.715
14.4627	0.718
14.4998	0.72
14.537	0.715
14.5742	0.712
14.6114	0.721
14.6486	0.721
14.6858	0.723
14.7229	0.723
14.7601	0.724
14.7973	0.721
14.8345	0.72
14.8717	0.718
14.9089	0.72
14.9461	0.716
14.9832	0.721
15.0204	0.706
15.0576	0.702
15.0948	0.707
15.132	0.713
15.1692	0.704
15.2063	0.724
15.2435	0.712
15.2807	0.718
15.3179	0.718
15.3551	0.718
15.3923	0.715
15.4294	0.712
15.4666	0.715
15.5038	0.707
15.541	0.709
15.5782	0.716
15.6154	0.704
15.6526	0.707
15.6897	0.704
15.7269	0.701
15.7641	0.706
15.8013	0.709
15.8385	0.702
15.8757	0.702
15.9128	0.698
15.95	0.693
15.9872	0.688
