Infrared Spectrum: o-Methoxycinnamic acid
Formula: C 10 H 10 O 3
CAS: 6099-03-2
State: gas
Origin: EPA-IR VAPOR PHASE LIBRARY
1/CM	ABSORBANCE
549.8	0.0077661
559.445	0.0083861
569.09	0.0076261
578.734	0.0076961
588.379	0.0073261
598.024	0.0039261
607.669	0.0020461
617.313	0.0012361
626.958	0.0013961
636.603	0.0019861
646.248	0.0026461
655.893	0.0025961
665.537	0.0010442
675.182	0.0005271
684.827	0.0006788
694.472	0.0005279
704.116	0.0006244
713.761	0.0008563
723.406	0.0012561
733.051	0.0029361
742.695	0.0088561
752.34	0.0131961
761.985	0.0070561
771.63	0.0033861
781.275	0.0019261
790.919	0.0011861
800.564	0.0007403
810.209	0.0006184
819.854	0.0010281
829.498	0.0012561
839.143	0.0009395
848.788	0.0013761
858.433	0.0018361
868.078	0.0026961
877.722	0.0021661
887.367	0.0018161
897.012	0.0019461
906.657	0.0017861
916.301	0.0011561
925.946	0.0010034
935.591	0.0014061
945.236	0.0017861
954.88	0.0019861
964.525	0.0023461
974.17	0.0039361
983.815	0.0058061
993.46	0.0046661
1003.1	0.0036061
1012.75	0.0043661
1022.39	0.0060761
1032.04	0.0069861
1041.68	0.0066961
1051.33	0.0056861
1060.97	0.0039861
1070.62	0.0033361
1080.26	0.0043761
1089.91	0.0073461
1099.55	0.0160961
1109.2	0.0351561
1118.84	0.0410861
1128.49	0.0194261
1138.13	0.0126761
1147.78	0.0148661
1157.42	0.0185761
1167.07	0.0104161
1176.71	0.0054061
1186.36	0.0045661
1196	0.0039261
1205.64	0.0036961
1215.29	0.0041961
1224.93	0.0069061
1234.58	0.0136561
1244.22	0.0217061
1253.87	0.0224561
1263.51	0.0140661
1273.16	0.0090661
1282.8	0.0078361
1292.45	0.0078561
1302.09	0.0074661
1311.74	0.0081461
1321.38	0.0086261
1331.03	0.0070861
1340.67	0.0065861
1350.32	0.0096561
1359.96	0.0121861
1369.61	0.0072161
1379.25	0.0028561
1388.9	0.0018361
1398.54	0.0016461
1408.18	0.0015761
1417.83	0.0018761
1427.47	0.0028061
1437.12	0.0051761
1446.76	0.0057061
1456.41	0.0057261
1466.05	0.0075661
1475.7	0.0091961
1485.34	0.0123561
1494.99	0.0106261
1504.63	0.0065661
1514.28	0.0036561
1523.92	0.0015761
1533.57	0.0011961
1543.21	0.0011061
1552.86	0.0012961
1562.5	0.0018861
1572.15	0.0033261
1581.79	0.0043261
1591.44	0.0052661
1601.08	0.0058661
1610.73	0.0045861
1620.37	0.0050561
1630.01	0.0101961
1639.66	0.0141761
1649.3	0.0063561
1658.95	0.0020461
1668.59	0.0015761
1678.24	0.0016261
1687.88	0.0017061
1697.53	0.0020961
1707.17	0.0031961
1716.82	0.0050961
1726.46	0.0084061
1736.11	0.0174161
1745.75	0.0376961
1755.4	0.0451061
1765.04	0.0245961
1774.69	0.0114161
1784.33	0.0089461
1793.98	0.0062761
1803.62	0.0041261
1813.27	0.0028761
1822.91	0.0019561
1832.55	0.0013761
1842.2	0.0011261
1851.84	0.000959
1861.49	0.0009187
1871.13	0.0008519
1880.78	0.0008949
1890.42	0.0009198
1900.07	0.0008868
1909.71	0.0006238
1919.36	0.0006927
1929	0.0008467
1938.65	0.0007758
1948.29	0.0006163
1957.94	0.000545
1967.58	0.0006315
1977.23	0.0005237
1986.87	0.0005558
1996.52	0.0006045
2006.16	0.0006958
2015.81	0.0008393
2025.45	0.0009364
2035.1	0.000815
2044.74	0.0009528
2054.38	0.0009153
2064.03	0.0008205
2073.67	0.0007493
2083.32	0.0005652
2092.96	0.0005281
2102.61	0.0005304
2112.25	0.0004029
2121.9	0.0004598
2131.54	0.0004335
2141.19	0.0004797
2150.83	0.0004544
2160.48	0.0004838
2170.12	0.0005082
2179.77	0.0004695
2189.41	0.0004619
2199.06	0.0004876
2208.7	0.0005516
2218.35	0.0006462
2227.99	0.0006202
2237.64	0.0006171
2247.28	0.0006312
2256.92	0.0005632
2266.57	0.000615
2276.21	0.0005144
2285.86	0.0005032
2295.5	0.0005666
2305.15	0.0005302
2314.79	0.0005937
2324.44	0.0005443
2334.08	0.0006309
2343.73	0.0006404
2353.37	0.0005706
2363.02	0.0005442
2372.66	0.0006224
2382.31	0.0005199
2391.95	0.0004384
2401.6	0.0005291
2411.24	0.0005671
2420.89	0.0004399
2430.53	0.0005756
2440.18	0.0005852
2449.82	0.0005919
2459.47	0.0005782
2469.11	0.0007647
2478.75	0.0007033
2488.4	0.0007046
2498.04	0.0006921
2507.69	0.0006393
2517.33	0.0005877
2526.98	0.0006521
2536.62	0.0006741
2546.27	0.0007305
2555.91	0.0005732
2565.56	0.0005837
2575.2	0.000727
2584.85	0.0006387
2594.49	0.0006573
2604.14	0.0006281
2613.78	0.0007196
2623.43	0.0006268
2633.07	0.0006937
2642.72	0.00057
2652.36	0.0005766
2662.01	0.0005248
2671.65	0.0006108
2681.29	0.000583
2690.94	0.0006479
2700.58	0.0006492
2710.23	0.0007332
2719.87	0.0006096
2729.52	0.000501
2739.16	0.0007423
2748.81	0.0009104
2758.45	0.0007574
2768.1	0.0008503
2777.74	0.0008112
2787.39	0.0007294
2797.03	0.0007727
2806.68	0.0011361
2816.32	0.0009824
2825.97	0.0014361
2835.61	0.0023961
2845.26	0.0033461
2854.9	0.0029561
2864.55	0.0020761
2874.19	0.0016161
2883.84	0.0017361
2893.48	0.0020561
2903.12	0.0023761
2912.77	0.0027061
2922.41	0.0031661
2932.06	0.0031961
2941.7	0.0045961
2951.35	0.0053561
2960.99	0.0046661
2970.64	0.0034061
2980.28	0.0024161
2989.93	0.0023961
2999.57	0.0029761
3009.22	0.0037461
3018.86	0.0031761
3028.51	0.0028961
3038.15	0.0027161
3047.8	0.0026461
3057.44	0.0028061
3067.09	0.0034861
3076.73	0.0039861
3086.38	0.0035861
3096.02	0.0021361
3105.67	0.0016161
3115.31	0.0011761
3124.95	0.0007065
3134.6	0.0010056
3144.24	0.0007366
3153.89	0.000833
3163.53	0.0007755
3173.18	0.000715
3182.82	0.0008247
3192.47	0.0004175
3202.11	0.0006138
3211.76	0.0004942
3221.4	0.000615
3231.05	0.0007942
3240.69	0.0004751
3250.34	0.0005303
3259.98	0.0003709
3269.63	0.0005252
3279.27	0.000334
3288.92	0.0004899
3298.56	0.0005133
3308.21	0.0005485
3317.85	0.0004642
3327.49	0.0005518
3337.14	0.000585
3346.78	0.0004776
3356.43	0.0003958
3366.07	0.0005553
3375.72	0.0004045
3385.36	0.0006405
3395.01	0.0004612
3404.65	0.0005088
3414.3	0.0005017
3423.94	0.0003487
3433.59	0.0004828
3443.23	0.0005791
3452.88	0.0007092
3462.52	0.0005296
3472.17	0.0007996
3481.81	0.0006892
3491.46	0.000817
3501.1	0.0009504
3510.75	0.0006781
3520.39	0.0008291
3530.04	0.0006535
3539.68	0.0008061
3549.32	0.0006318
3558.97	0.0012861
3568.61	0.0023161
3578.26	0.0137761
3587.9	0.0162061
3597.55	0.0033461
3607.19	0.0009741
3616.84	0.000771
3626.48	0.0005047
3636.13	0.000561
3645.77	0.0006642
3655.42	0.0004802
3665.06	0.0005367
3674.71	0.0007617
3684.35	0.0006364
3694	0.0005062
3703.64	0.0004003
3713.29	0.0003454
3722.93	0.0004371
3732.58	0.0003218
3742.22	0.0004844
3751.86	0.0003692
3761.51	0.0003352
3771.15	0.0005423
3780.8	0.0004948
3790.44	0.0002454
3800.09	0.000549
3809.73	0.0005592
3819.38	0.0004883
3829.02	0.000739
3838.67	0.0005559
3848.31	0.00015609
3857.96	0.0002752
3867.6	0.0005908
3877.25	0.0003312
3886.89	0.0006094
3896.54	0.000366
3906.18	0.0004682
3915.83	0.0006032
3925.47	0.0006855
3935.12	0.0007744
3944.76	0.0003714
3954.41	0.0004238
3964.05	0.0004944
3973.69	0.0005984
3983.34	0.0005702
3992.98	0.0002664
