Infrared Spectrum: DIBUCAINE HYDROCHLORIDE
Formula: C20 H30 Cl N3 O2
CAS: 61-12-1
State: SOLID (1 mg / 200 mg KCl DISC) VS KCl
Melting point: 90-98 C DECOMP.
Class: COBLENTZ III
Instrument: PERKIN-ELMER 21 (GRATING)
Instrument parameters: FILTER AT ABOUT 10 MICRONS
Sampling: TRANSMISSION
Path length: 0.055 CM (THICKNESS)
Resolution: 2
1/CM	TRANSMITTANCE
4000	0.6676
3991	0.6686
3982	0.6698
3973	0.6712
3964	0.6728
3955	0.6745
3946	0.676
3937	0.6775
3928	0.6792
3919	0.6808
3910	0.6824
3901	0.6841
3892	0.6858
3883	0.6875
3874	0.6892
3865	0.6908
3856	0.6926
3847	0.6944
3838	0.6961
3829	0.698
3820	0.7001
3811	0.7022
3802	0.7046
3793	0.7068
3784	0.7089
3775	0.711
3766	0.7131
3757	0.7153
3748	0.7168
3739	0.7185
3730	0.72
3721	0.7208
3712	0.7215
3703	0.7218
3694	0.7218
3685	0.7218
3676	0.7219
3667	0.7221
3658	0.7222
3649	0.7231
3640	0.724
3631	0.7251
3622	0.7268
3613	0.728
3604	0.7292
3595	0.7301
3586	0.7308
3577	0.7303
3568	0.7284
3559	0.7258
3550	0.7218
3541	0.7171
3532	0.7107
3523	0.7018
3514	0.6917
3505	0.6568
3496	0.6397
3487	0.6222
3478	0.605
3469	0.5997
3460	0.5991
3451	0.5999
3442	0.6021
3433	0.6037
3424	0.6046
3415	0.6034
3406	0.5976
3397	0.5924
3388	0.5877
3379	0.5868
3370	0.5885
3361	0.5909
3352	0.5943
3343	0.5972
3334	0.5982
3325	0.5982
3316	0.5936
3307	0.5872
3298	0.58
3289	0.5692
3280	0.5498
3271	0.5267
3262	0.5085
3253	0.5044
3244	0.5012
3235	0.4977
3226	0.4929
3217	0.4812
3208	0.4696
3199	0.4635
3190	0.4603
3181	0.4587
3172	0.4686
3163	0.4962
3154	0.524
3145	0.552
3136	0.5801
3127	0.6084
3118	0.6285
3109	0.6345
3100	0.6389
3091	0.6408
3082	0.6401
3073	0.6357
3064	0.628
3055	0.62
3046	0.6146
3037	0.6136
3028	0.6154
3019	0.6174
3010	0.6179
3001	0.6162
2992	0.5905
2983	0.5523
2974	0.5139
2965	0.4754
2956	0.4365
2947	0.3992
2938	0.3884
2929	0.3868
2920	0.3948
2911	0.4236
2902	0.4596
2893	0.4958
2884	0.5294
2875	0.5356
2866	0.5404
2857	0.5573
2848	0.5823
2839	0.6075
2830	0.6278
2821	0.636
2812	0.6446
2803	0.6515
2794	0.653
2785	0.6538
2776	0.656
2767	0.6606
2758	0.6675
2749	0.6736
2740	0.6761
2731	0.6765
2722	0.6726
2713	0.6524
2704	0.6247
2695	0.616
2686	0.6107
2677	0.6039
2668	0.594
2659	0.5784
2650	0.559
2641	0.5222
2632	0.4814
2623	0.4417
2614	0.4037
2605	0.3805
2596	0.3476
2587	0.3145
2578	0.2811
2569	0.2644
2560	0.2857
2551	0.3434
2542	0.3972
2533	0.4053
2524	0.404
2515	0.401
2506	0.3771
2497	0.3409
2488	0.3045
2479	0.2908
2470	0.2912
2461	0.3271
2452	0.3721
2443	0.4174
2434	0.4819
2425	0.516
2416	0.5438
2407	0.5668
2398	0.5866
2389	0.6057
2380	0.62
2371	0.6272
2362	0.6331
2353	0.6494
2344	0.663
2335	0.6661
2326	0.6771
2317	0.6939
2308	0.7141
2299	0.73
2290	0.745
2281	0.7586
2272	0.7668
2263	0.7728
2254	0.7784
2245	0.7842
2236	0.7901
2227	0.796
2218	0.8018
2209	0.8078
2200	0.8135
2191	0.8195
2182	0.8244
2173	0.8271
2164	0.8277
2155	0.8278
2146	0.8299
2137	0.8328
2128	0.8353
2119	0.8373
2110	0.8393
2101	0.8412
2092	0.8431
2083	0.8449
2074	0.847
2065	0.8497
2056	0.8523
2047	0.8551
2038	0.8578
2029	0.8605
2020	0.8627
2011	0.8648
2002	0.8658
1993	0.8666
1984	0.8667
1975	0.8665
1966	0.8662
1957	0.8654
1948	0.8654
1939	0.8695
1930	0.8694
1921	0.8706
1912	0.8725
1903	0.8756
1894	0.8787
1885	0.8818
1876	0.8833
1867	0.8844
1858	0.884
1849	0.8835
1840	0.8831
1831	0.8828
1822	0.8825
1813	0.8821
1804	0.8852
1795	0.8871
1786	0.8853
1777	0.8852
1768	0.8865
1759	0.8797
1750	0.8739
1741	0.8718
1732	0.8714
1723	0.8673
1714	0.8613
1705	0.854
1696	0.7986
1687	0.5854
1678	0.296
1669	0.1181
1660	0.2805
1651	0.5175
1642	0.6334
1633	0.6822
1624	0.6621
1615	0.3804
1606	0.1073
1597	0.2753
1588	0.5419
1579	0.3013
1570	0.3868
1561	0.4297
1552	0.2756
1543	0.2475
1534	0.3259
1525	0.4337
1516	0.5223
1507	0.527
1498	0.5822
1489	0.5091
1480	0.4594
1471	0.335
1462	0.3764
1453	0.4744
1444	0.5594
1435	0.621
1426	0.6112
1417	0.4675
1408	0.2315
1399	0.3122
1390	0.5104
1381	0.4062
1372	0.516
1363	0.5144
1354	0.4331
1345	0.2132
1336	0.1221
1327	0.192
1318	0.3212
1309	0.4434
1300	0.5709
1291	0.5268
1282	0.491
1273	0.6083
1264	0.5402
1255	0.5417
1246	0.6297
1237	0.2719
1228	0.4022
1219	0.6058
1210	0.736
1201	0.7643
1192	0.6843
1183	0.3224
1174	0.4425
1165	0.6941
1156	0.5149
1147	0.633
1138	0.6647
1129	0.5354
1120	0.7151
1111	0.7847
1102	0.8003
1093	0.784
1084	0.6949
1075	0.6656
1066	0.6481
1057	0.7035
1048	0.5712
1039	0.4933
1030	0.6561
1021	0.6294
1012	0.5821
1003	0.6076
994	0.7381
985	0.7842
976	0.7568
967	0.7593
958	0.7488
949	0.7881
940	0.8358
931	0.8584
922	0.8645
913	0.8635
904	0.8044
895	0.8115
886	0.7725
877	0.6778
868	0.718
859	0.841
850	0.8347
841	0.7637
832	0.8378
823	0.8475
814	0.7808
805	0.7301
796	0.7217
787	0.7151
778	0.7724
769	0.5512
760	0.341
751	0.728
742	0.7475
733	0.7778
724	0.7318
715	0.6992
706	0.7045
697	0.7246
688	0.7208
679	0.708
670	0.7025
661	0.7768
