Infrared Spectrum: 1-ETHYLOXINDOLE
Formula: C10 H11 N O
CAS: 61-28-9
State: SOLID (MINERAL OIL MULL)
Melting point: 94-96 C
Class: COBLENTZ
Instrument: Not specified, most likely a prism, grating, or hybrid spectrometer.
Sampling: TRANSMISSION
Resolution: 4
Origin: WYANDOTTE CHEMICALS CORP., WYANDOTTE, MICHIGAN, USA
MICROMETERS	TRANSMITTANCE
2.012	0.387
2.04912	0.384
2.08624	0.395
2.12336	0.396
2.16048	0.393
2.1976	0.386
2.23472	0.378
2.27184	0.384
2.30896	0.389
2.34608	0.382
2.3832	0.384
2.42032	0.392
2.45744	0.398
2.49456	0.407
2.53168	0.423
2.56881	0.424
2.60593	0.427
2.64305	0.429
2.68017	0.429
2.71729	0.437
2.75441	0.443
2.79153	0.434
2.82865	0.434
2.86577	0.42
2.90289	0.412
2.94001	0.41
2.97713	0.404
3.01425	0.401
3.05137	0.406
3.08849	0.415
3.12561	0.4
3.16273	0.39
3.19985	0.392
3.23697	0.378
3.27409	0.227
3.31121	0.244
3.34833	0.057
3.38545	0.027
3.42257	0.034
3.45969	0.043
3.49681	0.04
3.53393	0.141
3.57105	0.421
3.60818	0.474
3.6453	0.517
3.68242	0.485
3.71954	0.485
3.75666	0.494
3.79378	0.503
3.8309	0.508
3.86802	0.525
3.90514	0.537
3.94226	0.542
3.97938	0.564
4.0165	0.576
4.05362	0.578
4.09074	0.576
4.12786	0.576
4.16498	0.575
4.2021	0.581
4.23922	0.584
4.27634	0.586
4.31346	0.593
4.35058	0.606
4.3877	0.604
4.42482	0.606
4.46194	0.623
4.49906	0.638
4.53618	0.644
4.5733	0.655
4.61042	0.657
4.64755	0.657
4.68467	0.663
4.72179	0.679
4.75891	0.689
4.79603	0.708
4.83315	0.708
4.87027	0.713
4.90739	0.739
4.94451	0.733
4.98163	0.748
5.01875	0.753
5.05587	0.764
5.09299	0.768
5.13011	0.795
5.16723	0.8
5.20435	0.809
5.24147	0.747
5.27859	0.817
5.31571	0.818
5.35283	0.759
5.38995	0.823
5.42707	0.868
5.46419	0.882
5.50131	0.893
5.53843	0.919
5.57555	0.936
5.61267	0.942
5.64979	0.863
5.68692	0.889
5.72404	0.669
5.76116	0.44
5.79828	0.148
5.8354	0.066
5.87252	0.046
5.90964	0.052
5.94676	0.119
5.98388	0.178
6.021	0.196
6.05812	0.306
6.09524	0.435
6.13236	0.306
6.16948	0.052
6.2066	0.151
6.24372	0.26
6.28084	0.333
6.31796	0.406
6.35508	0.444
6.3922	0.489
6.42932	0.524
6.46644	0.536
6.50356	0.559
6.54068	0.59
6.5778	0.604
6.61492	0.437
6.65204	0.116
6.68916	0.116
6.72628	0.217
6.76341	0.156
6.80053	0.021
6.83765	0.057
6.87477	0.068
6.91189	0.165
6.94901	0.317
6.98613	0.482
7.02325	0.555
7.06037	0.623
7.09749	0.66
7.13461	0.573
7.17173	0.446
7.20885	0.1
7.24597	0.06
7.28309	0.055
7.32021	0.051
7.35733	0.04
7.39445	0.037
7.43157	0.077
7.46869	0.161
7.50581	0.224
7.54293	0.271
7.58005	0.198
7.61717	0.249
7.65429	0.322
7.69141	0.351
7.72853	0.302
7.76565	0.418
7.80278	0.46
7.8399	0.485
7.87702	0.505
7.91414	0.551
7.95126	0.572
7.98838	0.384
8.0255	0.079
8.06262	0.178
8.09974	0.316
8.13686	0.406
8.17398	0.474
8.2111	0.502
8.24822	0.277
8.28534	0.125
8.32246	0.203
8.35958	0.302
8.3967	0.341
8.43382	0.41
8.47094	0.438
8.50806	0.449
8.54518	0.465
8.5823	0.48
8.61942	0.37
8.65654	0.502
8.69366	0.528
8.73078	0.497
8.7679	0.223
8.80502	0.212
8.84215	0.317
8.87927	0.376
8.91639	0.413
8.95351	0.454
8.99063	0.452
9.02775	0.367
9.06487	0.468
9.10199	0.4
9.13911	0.156
9.17623	0.167
9.21335	0.286
9.25047	0.308
9.28759	0.26
9.32471	0.291
9.36183	0.395
9.39895	0.443
9.43607	0.475
9.47319	0.488
9.51031	0.508
9.54743	0.51
9.58455	0.525
9.62167	0.533
9.65879	0.547
9.69591	0.547
9.73303	0.505
9.77015	0.361
9.80727	0.396
9.84439	0.479
9.88152	0.53
9.91864	0.55
9.95576	0.572
9.99288	0.576
10.03	0.581
10.0671	0.581
10.1042	0.589
10.1414	0.589
10.1785	0.587
10.2156	0.579
10.2527	0.565
10.2898	0.572
10.327	0.542
10.3641	0.533
10.4012	0.522
10.4383	0.52
10.4754	0.472
10.5126	0.333
10.5497	0.151
10.5868	0.306
10.6239	0.31
10.661	0.331
10.6982	0.449
10.7353	0.524
10.7724	0.561
10.8095	0.572
10.8466	0.581
10.8838	0.615
10.9209	0.601
10.958	0.638
10.9951	0.654
11.0322	0.679
11.0694	0.686
11.1065	0.691
11.1436	0.691
11.1807	0.703
11.2178	0.699
11.255	0.703
11.2921	0.702
11.3292	0.717
11.3663	0.722
11.4034	0.725
11.4406	0.719
11.4777	0.716
11.5148	0.711
11.5519	0.703
11.5891	0.64
11.6262	0.482
11.6633	0.596
11.7004	0.696
11.7375	0.717
11.7747	0.728
11.8118	0.727
11.8489	0.728
11.886	0.711
11.9231	0.613
11.9603	0.489
11.9974	0.426
12.0345	0.42
12.0716	0.46
12.1087	0.517
12.1459	0.565
12.183	0.617
12.2201	0.658
12.2572	0.669
12.2943	0.691
12.3315	0.696
12.3686	0.72
12.4057	0.724
12.4428	0.73
12.4799	0.72
12.5171	0.733
12.5542	0.73
12.5913	0.733
12.6284	0.725
12.6655	0.689
12.7027	0.617
12.7398	0.475
12.7769	0.305
12.814	0.305
12.8511	0.379
12.8883	0.431
12.9254	0.46
12.9625	0.451
12.9996	0.443
13.0367	0.421
13.0739	0.389
13.111	0.359
13.1481	0.31
13.1852	0.254
13.2223	0.196
13.2595	0.116
13.2966	0.052
13.3337	0.041
13.3708	0.052
13.4079	0.091
13.4451	0.181
13.4822	0.291
13.5193	0.372
13.5564	0.452
13.5936	0.511
13.6307	0.573
13.6678	0.606
13.7049	0.652
13.742	0.672
13.7792	0.697
13.8163	0.708
13.8534	0.7
13.8905	0.643
13.9276	0.539
13.9648	0.41
14.0019	0.356
14.039	0.514
14.0761	0.662
14.1132	0.733
14.1504	0.778
14.1875	0.8
14.2246	0.82
14.2617	0.82
14.2988	0.838
14.336	0.837
14.3731	0.838
14.4102	0.838
14.4473	0.846
14.4844	0.849
14.5216	0.844
14.5587	0.835
14.5958	0.849
14.6329	0.843
14.67	0.843
14.7072	0.841
14.7443	0.844
14.7814	0.838
14.8185	0.829
14.8556	0.815
14.8928	0.81
14.9299	0.798
14.967	0.77
15.0041	0.724
15.0412	0.651
15.0784	0.589
15.1155	0.579
15.1526	0.596
15.1897	0.596
15.2268	0.589
15.264	0.572
15.3011	0.527
15.3382	0.479
15.3753	0.423
15.4124	0.398
15.4496	0.373
15.4867	0.375
15.5238	0.382
15.5609	0.42
15.598	0.451
15.6352	0.469
15.6723	0.496
15.7094	0.503
15.7465	0.517
15.7837	0.53
15.8208	0.525
15.8579	0.53
15.895	0.522
15.9321	0.513
15.9693	0.514
