Infrared Spectrum: 6,7-DIMETHOXY-1-VERATRYLISOQUINOLINE
Formula: C20 H22 Cl N O4
CAS: 61-25-6
State: SOLID (NUJOL MULL)
Melting point: 220-225 C
Class: COBLENTZ III
Instrument: PERKIN-ELMER 521 (GRATING)
Instrument parameters: GRATING CHANGE AT 1996 CM^-^1
Sampling: TRANSMISSION
Resolution: 4
Origin: MERCK SHARPE & DOHME RESEARCH LABORATORIES, Nelson Trenner
1/CM	TRANSMITTANCE
600	0.634
609.081	0.66
618.162	0.684
627.243	0.698
636.324	0.663
645.405	0.746
654.486	0.639
663.568	0.84
672.649	0.839
681.73	0.839
690.811	0.831
699.892	0.799
708.973	0.711
718.054	0.6239
727.135	0.721
736.216	0.603
745.297	0.755
754.378	0.681
763.459	0.6109
772.54	0.661
781.622	0.6
790.703	0.584
799.784	0.4821
808.865	0.4581
817.946	0.728
827.027	0.7
836.108	0.804
845.189	0.711
854.27	0.411
863.351	0.663
872.432	0.703
881.513	0.636
890.594	0.394
899.676	0.4968
908.757	0.676
917.838	0.663
926.919	0.596
936	0.532
945.081	0.649
954.162	0.593
963.243	0.534
972.324	0.419
981.405	0.439
990.486	0.554
999.567	0.452
1008.65	0.357
1017.73	0.264
1026.81	0.2289
1035.89	0.438
1044.97	0.734
1054.05	0.701
1063.13	0.642
1072.22	0.601
1081.3	0.534
1090.38	0.577
1099.46	0.539
1108.54	0.51
1117.62	0.467
1126.7	0.397
1135.78	0.321
1144.86	0.158
1153.95	0.219
1163.03	0.265
1172.11	0.2361
1181.19	0.5058
1190.27	0.387
1199.35	0.266
1208.43	0.415
1217.51	0.387
1226.59	0.2091
1235.68	0.201
1244.76	0.207
1253.84	0.258
1262.92	0.1331
1272	0.213
1281.08	0.098
1290.16	0.255
1299.24	0.16
1308.32	0.594
1317.41	0.5161
1326.49	0.329
1335.57	0.31
1344.65	0.33
1353.73	0.5329
1362.81	0.4832
1371.89	0.348
1380.97	0.26
1390.05	0.362
1399.13	0.295
1408.22	0.139
1417.3	0.451
1426.38	0.334
1435.46	0.122
1444.54	0.171
1453.62	0.082
1462.7	0.075
1471.78	0.218
1480.86	0.27
1489.95	0.3159
1499.03	0.2321
1508.11	0.125
1517.19	0.177
1526.27	0.4579
1535.35	0.7579
1544.43	0.884
1553.51	0.839
1562.59	0.786
1571.68	0.709
1580.76	0.586
1589.84	0.3511
1598.92	0.365
1608	0.273
1617.08	0.427
1626.16	0.4801
1635.24	0.3668
1644.32	0.886
1653.4	0.935
1662.49	0.935
1671.57	0.923
1680.65	0.896
1689.73	0.867
1698.81	0.844
1707.89	0.826
1716.97	0.838
1726.05	0.834
1735.13	0.799
1744.22	0.791
1753.3	0.772
1762.38	0.76
1771.46	0.772
1780.54	0.755
1789.62	0.718
1798.7	0.741
1807.78	0.731
1816.86	0.713
1825.95	0.724
1835.03	0.713
1844.11	0.69
1853.19	0.672
1862.27	0.684
1871.35	0.665
1880.43	0.651
1889.51	0.64
1898.59	0.614
1907.68	0.606
1916.76	0.595
1925.84	0.586
1934.92	0.558
1944	0.513
1953.08	0.479
1962.16	0.514
1971.24	0.526
1980.32	0.491
1989.4	0.41
1998.49	0.413
2007.57	0.4834
2016.65	0.6068
2025.73	0.619
2034.81	0.617
2043.89	0.614
2052.97	0.6082
2062.05	0.605
2071.13	0.603
2080.22	0.5998
2089.3	0.5864
2098.38	0.5711
2107.46	0.562
2116.54	0.56
2125.62	0.559
2134.7	0.5526
2143.78	0.542
2152.86	0.5315
2161.95	0.525
2171.03	0.5182
2180.11	0.515
2189.19	0.5127
2198.27	0.509
2207.35	0.5041
2216.43	0.4954
2225.51	0.4866
2234.59	0.4755
2243.67	0.4613
2252.76	0.4543
2261.84	0.4471
2270.92	0.4415
2280	0.433
2289.08	0.4169
2298.16	0.4024
2307.24	0.3828
2316.32	0.3659
2325.4	0.3507
2334.49	0.3338
2343.57	0.3143
2352.65	0.311
2361.73	0.31
2370.81	0.307
2379.89	0.3046
2388.97	0.302
2398.05	0.3
2407.13	0.2898
2416.22	0.2775
2425.3	0.2714
2434.38	0.267
2443.46	0.2624
2452.54	0.2458
2461.62	0.2367
2470.7	0.2299
2479.78	0.2242
2488.86	0.2184
2497.95	0.2126
2507.03	0.2176
2516.11	0.2259
2525.19	0.2432
2534.27	0.2505
2543.35	0.2698
2552.43	0.3131
2561.51	0.3327
2570.59	0.3481
2579.67	0.3607
2588.76	0.3777
2597.84	0.3957
2606.92	0.403
2616	0.4098
2625.08	0.415
2634.16	0.4141
2643.24	0.4113
2652.32	0.4071
2661.4	0.3998
2670.49	0.398
2679.57	0.399
2688.65	0.4011
2697.73	0.4109
2706.81	0.4242
2715.89	0.4318
2724.97	0.4336
2734.05	0.439
2743.13	0.4609
2752.22	0.4748
2761.3	0.4807
2770.38	0.481
2779.46	0.479
2788.54	0.476
2797.62	0.4593
2806.7	0.4365
2815.78	0.4014
2824.86	0.3855
2833.94	0.3376
2843.03	0.3079
2852.11	0.1294
2861.19	0.0629
2870.27	0.045
2879.35	0.0643
2888.43	0.076
2897.51	0.063
2906.59	0.044
2915.67	0.0353
2924.76	0.031
2933.84	0.0277
2942.92	0.027
2952	0.0278
2961.08	0.0311
2970.16	0.0463
2979.24	0.0588
2988.32	0.0983
2997.4	0.1609
3006.49	0.184
3015.57	0.2085
3024.65	0.224
3033.73	0.2408
3042.81	0.2795
3051.89	0.284
3060.97	0.295
3070.05	0.3051
3079.13	0.3196
3088.22	0.3312
3097.3	0.3361
3106.38	0.34
3115.46	0.339
3124.54	0.335
3133.62	0.3341
3142.7	0.3418
3151.78	0.351
3160.86	0.351
3169.94	0.349
3179.03	0.348
3188.11	0.3472
3197.19	0.3465
3206.27	0.3457
3215.35	0.345
3224.43	0.345
3233.51	0.345
3242.59	0.346
3251.67	0.3471
3260.76	0.348
3269.84	0.348
3278.92	0.3466
3288	0.343
3297.08	0.34
3306.16	0.3373
3315.24	0.336
3324.32	0.335
3333.4	0.334
3342.49	0.3322
3351.57	0.331
3360.65	0.331
3369.73	0.331
3378.81	0.3301
3387.89	0.33
3396.97	0.33
3406.05	0.33
3415.13	0.33
3424.21	0.329
3433.3	0.328
3442.38	0.327
3451.46	0.326
3460.54	0.325
3469.62	0.325
3478.7	0.325
3487.78	0.323
3496.86	0.3212
3505.94	0.32
3515.03	0.321
3524.11	0.321
3533.19	0.322
3542.27	0.321
3551.35	0.321
3560.43	0.321
3569.51	0.321
3578.59	0.321
3587.67	0.32
3596.76	0.3187
3605.84	0.317
3614.92	0.3168
3624	0.3196
3633.08	0.321
3642.16	0.32
3651.24	0.318
3660.32	0.316
3669.4	0.314
3678.49	0.312
3687.57	0.311
3696.65	0.311
3705.73	0.31
3714.81	0.309
3723.89	0.308
3732.97	0.308
3742.05	0.308
3751.13	0.308
3760.21	0.307
3769.3	0.306
3778.38	0.306
3787.46	0.307
3796.54	0.308
3805.62	0.306
3814.7	0.3013
3823.78	0.3
3832.86	0.298
3841.94	0.296
3851.03	0.295
3860.11	0.294
3869.19	0.294
3878.27	0.293
3887.35	0.293
3896.43	0.293
3905.51	0.293
3914.59	0.293
3923.67	0.293
3932.76	0.2923
3941.84	0.291
3950.92	0.29
3960	0.289
3969.08	0.2872
3978.16	0.286
3987.24	0.284
3996.32	0.284
