Infrared Spectrum: METHYLENE BLUE
Formula: C16 H18 Cl N3 S
CAS: 61-73-4
State: SOLID (MINERAL OIL MULL)
Class: COBLENTZ
Instrument: Not specified, most likely a prism, grating, or hybrid spectrometer.
Sampling: TRANSMISSION
Resolution: 4
Origin: WYANDOTTE CHEMICALS CORP., WYANDOTTE, MICHIGAN, USA
MICROMETERS	TRANSMITTANCE
2.014	0.349
2.05484	0.356
2.09567	0.351
2.13651	0.356
2.17734	0.37
2.21818	0.363
2.25901	0.356
2.29985	0.354
2.34068	0.363
2.38152	0.373
2.42235	0.38
2.46319	0.387
2.50402	0.392
2.54486	0.405
2.58569	0.404
2.62653	0.41
2.66736	0.419
2.7082	0.431
2.74903	0.449
2.78987	0.451
2.8307	0.451
2.87154	0.448
2.91237	0.419
2.95321	0.392
2.99404	0.373
3.03488	0.349
3.07571	0.356
3.11655	0.351
3.15738	0.349
3.19822	0.349
3.23905	0.351
3.27989	0.342
3.32072	0.28
3.36156	0.091
3.40239	0.022
3.44323	0.022
3.48406	0.025
3.5249	0.03
3.56573	0.293
3.60657	0.398
3.6474	0.439
3.68824	0.439
3.72907	0.439
3.76991	0.448
3.81074	0.46
3.85158	0.468
3.89241	0.483
3.93325	0.5
3.97408	0.504
4.01492	0.519
4.05575	0.509
4.09659	0.524
4.13742	0.533
4.17826	0.534
4.21909	0.533
4.25993	0.533
4.30076	0.521
4.3416	0.533
4.38243	0.565
4.42327	0.58
4.4641	0.573
4.50494	0.575
4.54577	0.582
4.58661	0.585
4.62744	0.585
4.66828	0.585
4.70911	0.602
4.74995	0.602
4.79078	0.612
4.83162	0.611
4.87245	0.621
4.91329	0.623
4.95412	0.624
4.99496	0.633
5.03579	0.641
5.07663	0.648
5.11746	0.663
5.1583	0.674
5.19913	0.674
5.23997	0.679
5.2808	0.692
5.32164	0.706
5.36247	0.707
5.40331	0.719
5.44414	0.731
5.48498	0.733
5.52581	0.747
5.56665	0.762
5.60748	0.769
5.64832	0.772
5.68915	0.794
5.72999	0.789
5.77082	0.806
5.81166	0.825
5.8525	0.835
5.89333	0.867
5.93417	0.881
5.975	0.921
6.01584	0.925
6.05667	0.952
6.09751	0.903
6.13834	0.733
6.17918	0.482
6.22001	0.302
6.26085	0.388
6.30168	0.511
6.34252	0.594
6.38335	0.621
6.42419	0.64
6.46502	0.628
6.50586	0.653
6.54669	0.651
6.58753	0.721
6.62836	0.707
6.6692	0.517
6.71003	0.48
6.75087	0.426
6.7917	0.159
6.83254	0.118
6.87337	0.183
6.91421	0.305
6.95504	0.482
6.99588	0.602
7.03671	0.612
7.07755	0.595
7.11838	0.455
7.15922	0.363
7.20005	0.325
7.24089	0.251
7.28172	0.349
7.32256	0.39
7.36339	0.31
7.40423	0.325
7.44506	0.315
7.4859	0.302
7.52673	0.354
7.56757	0.393
7.6084	0.436
7.64924	0.451
7.69007	0.46
7.73091	0.492
7.77174	0.511
7.81258	0.534
7.85341	0.553
7.89425	0.59
7.93508	0.607
7.97592	0.533
8.01675	0.534
8.05759	0.553
8.09842	0.572
8.13926	0.565
8.18009	0.551
8.22093	0.556
8.26176	0.573
8.3026	0.597
8.34343	0.599
8.38427	0.575
8.4251	0.546
8.46594	0.509
8.50677	0.492
8.54761	0.492
8.58844	0.516
8.62928	0.522
8.67011	0.521
8.71095	0.485
8.75178	0.461
8.79262	0.477
8.83345	0.512
8.87429	0.526
8.91512	0.548
8.95596	0.572
8.99679	0.582
9.03763	0.599
9.07846	0.609
9.1193	0.614
9.16013	0.619
9.20097	0.624
9.2418	0.631
9.28264	0.624
9.32347	0.595
9.36431	0.59
9.40514	0.597
9.44598	0.606
9.48681	0.612
9.52765	0.619
9.56848	0.623
9.60932	0.59
9.65016	0.601
9.69099	0.621
9.73183	0.638
9.77266	0.648
9.8135	0.653
9.85433	0.653
9.89517	0.663
9.936	0.674
9.97684	0.691
10.0177	0.704
10.0585	0.709
10.0993	0.721
10.1402	0.728
10.181	0.726
10.2218	0.726
10.2627	0.73
10.3035	0.731
10.3444	0.741
10.3852	0.75
10.426	0.758
10.4669	0.76
10.5077	0.726
10.5485	0.68
10.5894	0.68
10.6302	0.702
10.671	0.73
10.7119	0.741
10.7527	0.747
10.7935	0.765
10.8344	0.775
10.8752	0.797
10.916	0.804
10.9569	0.83
10.9977	0.848
11.0385	0.872
11.0794	0.882
11.1202	0.881
11.1611	0.838
11.2019	0.77
11.2427	0.66
11.2836	0.568
11.3244	0.546
11.3652	0.541
11.4061	0.551
11.4469	0.573
11.4877	0.601
11.5286	0.626
11.5694	0.64
11.6102	0.646
11.6511	0.636
11.6919	0.623
11.7327	0.623
11.7736	0.628
11.8144	0.624
11.8552	0.601
11.8961	0.594
11.9369	0.585
11.9778	0.584
12.0186	0.594
12.0594	0.609
12.1003	0.631
12.1411	0.646
12.1819	0.66
12.2228	0.663
12.2636	0.66
12.3044	0.67
12.3453	0.674
12.3861	0.658
12.4269	0.634
12.4678	0.612
12.5086	0.601
12.5494	0.643
12.5903	0.668
12.6311	0.662
12.6719	0.65
12.7128	0.662
12.7536	0.689
12.7945	0.702
12.8353	0.709
12.8761	0.714
12.917	0.718
12.9578	0.721
12.9986	0.716
13.0395	0.726
13.0803	0.74
13.1211	0.747
13.162	0.753
13.2028	0.755
13.2436	0.757
13.2845	0.757
13.3253	0.757
13.3661	0.757
13.407	0.75
13.4478	0.748
13.4887	0.748
13.5295	0.747
13.5703	0.73
13.6112	0.733
13.652	0.728
13.6928	0.721
13.7337	0.714
13.7745	0.713
13.8153	0.702
13.8562	0.684
13.897	0.691
13.9378	0.706
13.9787	0.733
14.0195	0.75
14.0603	0.76
14.1012	0.769
14.142	0.769
14.1828	0.782
14.2237	0.786
14.2645	0.787
14.3054	0.787
14.3462	0.787
14.387	0.784
14.4279	0.78
14.4687	0.777
14.5095	0.772
14.5504	0.765
14.5912	0.76
14.632	0.757
14.6729	0.753
14.7137	0.747
14.7545	0.741
14.7954	0.735
14.8362	0.726
14.877	0.718
14.9179	0.702
14.9587	0.674
14.9995	0.626
15.0404	0.57
15.0812	0.56
15.1221	0.592
15.1629	0.617
15.2037	0.607
15.2446	0.607
15.2854	0.601
15.3262	0.589
15.3671	0.578
15.4079	0.572
15.4487	0.567
15.4896	0.556
15.5304	0.548
15.5712	0.538
15.6121	0.531
15.6529	0.524
15.6937	0.514
15.7346	0.504
15.7754	0.488
15.8162	0.478
15.8571	0.473
15.8979	0.463
15.9388	0.453
15.9796	0.446
