Infrared Spectrum: L-LEUCINE
Formula: C6 H13 N O2
CAS: 61-90-5
State: SOLID (MULL, KBr DISC)
Melting point: 294 C, DECOMP.
Class: COBLENTZ III
Instrument: PERKIN-ELMER 521 (GRATING)
Instrument parameters: ORDER CHANGES: 1999, 690 CM^-^1
Sampling: TRANSMISSION
Resolution: 2
Origin: SMITH KLINE & FRENCH LABS.
1/CM	TRANSMITTANCE
4010	0.9162
4000	0.916
3990	0.9157
3980	0.917
3970	0.9186
3960	0.9192
3950	0.9194
3940	0.9192
3930	0.919
3920	0.9196
3910	0.9203
3900	0.9207
3890	0.921
3880	0.9209
3870	0.9208
3860	0.9205
3850	0.92
3840	0.9195
3830	0.9189
3820	0.9192
3810	0.9207
3800	0.9207
3790	0.9199
3780	0.9193
3770	0.9202
3760	0.9216
3750	0.9232
3740	0.9231
3730	0.9227
3720	0.9212
3710	0.9199
3700	0.9215
3690	0.9162
3680	0.9171
3670	0.9165
3660	0.9159
3650	0.9155
3640	0.9151
3630	0.9142
3620	0.9127
3610	0.9113
3600	0.9108
3590	0.9089
3580	0.9087
3570	0.9075
3560	0.9037
3550	0.899
3540	0.8974
3530	0.8978
3520	0.8956
3510	0.8918
3500	0.8904
3490	0.8891
3480	0.8871
3470	0.8845
3460	0.8836
3450	0.8827
3440	0.8812
3430	0.8795
3420	0.8778
3410	0.8767
3400	0.8756
3390	0.8744
3380	0.8728
3370	0.8707
3360	0.868
3350	0.8653
3340	0.8625
3330	0.8599
3320	0.857
3310	0.8521
3300	0.8475
3290	0.8428
3280	0.8378
3270	0.8324
3260	0.8274
3250	0.8215
3240	0.8139
3230	0.8125
3220	0.8047
3210	0.7878
3200	0.7721
3190	0.7546
3180	0.7344
3170	0.7151
3160	0.6972
3150	0.6789
3140	0.6569
3130	0.6359
3120	0.6154
3110	0.5923
3100	0.5691
3090	0.5443
3080	0.5158
3070	0.5028
3060	0.4999
3050	0.4931
3040	0.4857
3030	0.4767
3020	0.4659
3010	0.4489
3000	0.4242
2990	0.3918
2980	0.3207
2970	0.1729
2960	0.1037
2950	0.108
2940	0.115
2930	0.0829
2920	0.0993
2910	0.1628
2900	0.2267
2890	0.2768
2880	0.2666
2870	0.2218
2860	0.2182
2850	0.3238
2840	0.4471
2830	0.5331
2820	0.5664
2810	0.5832
2800	0.5994
2790	0.6104
2780	0.6174
2770	0.6222
2760	0.6222
2750	0.6137
2740	0.6093
2730	0.6117
2720	0.618
2710	0.6197
2700	0.6265
2690	0.6326
2680	0.643
2670	0.6514
2660	0.6524
2650	0.6441
2640	0.6268
2630	0.6101
2620	0.6087
2610	0.6143
2600	0.6206
2590	0.6257
2580	0.6322
2570	0.6425
2560	0.6605
2550	0.6734
2540	0.6818
2530	0.6925
2520	0.7025
2510	0.7115
2500	0.7191
2490	0.7262
2480	0.7341
2470	0.7408
2460	0.7455
2450	0.746
2440	0.7508
2430	0.7589
2420	0.7661
2410	0.7722
2400	0.7767
2390	0.7817
2380	0.7868
2370	0.7917
2360	0.7954
2350	0.798
2340	0.8062
2330	0.8053
2320	0.8001
2310	0.8001
2300	0.8007
2290	0.8011
2280	0.8028
2270	0.8047
2260	0.8065
2250	0.8085
2240	0.8096
2230	0.8097
2220	0.8085
2210	0.8007
2200	0.7968
2190	0.7961
2180	0.7887
2170	0.7828
2160	0.7769
2150	0.7714
2140	0.7592
2130	0.7556
2120	0.7588
2110	0.7649
2100	0.7715
2090	0.7788
2080	0.7848
2070	0.791
2060	0.7974
2050	0.8022
2040	0.804
2030	0.8071
2020	0.81
2010	0.8108
2000	0.8175
1990	0.8197
1980	0.8197
1970	0.8204
1960	0.82
1950	0.8198
1940	0.82
1930	0.8201
1920	0.8193
1910	0.8191
1900	0.8212
1890	0.8218
1880	0.8221
1870	0.8214
1860	0.8205
1850	0.8181
1840	0.8194
1830	0.8198
1820	0.8201
1810	0.8204
1800	0.8212
1790	0.8225
1780	0.8239
1770	0.8243
1760	0.8225
1750	0.8191
1740	0.8186
1730	0.8196
1720	0.816
1710	0.8121
1700	0.8078
1690	0.7965
1680	0.7764
1670	0.7541
1660	0.7269
1650	0.69
1640	0.5893
1630	0.4901
1620	0.4291
1610	0.3414
1600	0.3641
1590	0.2973
1580	0.2379
1570	0.33
1560	0.4032
1550	0.4872
1540	0.538
1530	0.5727
1520	0.4107
1510	0.2847
1500	0.4924
1490	0.5504
1480	0.6005
1470	0.5112
1460	0.4604
1450	0.5014
1440	0.5318
1430	0.6821
1420	0.6308
1410	0.362
1400	0.436
1390	0.6141
1380	0.5393
1370	0.5497
1360	0.4908
1350	0.5873
1340	0.5494
1330	0.6858
1320	0.6606
1310	0.6481
1300	0.6758
1290	0.6876
1280	0.7636
1270	0.7804
1260	0.7898
1250	0.794
1240	0.7589
1230	0.7785
1220	0.8037
1210	0.8144
1200	0.8155
1190	0.8033
1180	0.7671
1170	0.7928
1160	0.8047
1150	0.7686
1140	0.7541
1130	0.7434
1120	0.7925
1110	0.8157
1100	0.8334
1090	0.8344
1080	0.8299
1070	0.8349
1060	0.8406
1050	0.842
1040	0.8412
1030	0.7993
1020	0.8292
1010	0.8459
1000	0.8313
990	0.8455
980	0.8612
970	0.862
960	0.8643
950	0.8717
940	0.8374
930	0.872
920	0.8445
910	0.8728
900	0.8904
890	0.8994
880	0.9083
870	0.9154
860	0.9116
850	0.7947
840	0.8528
830	0.8642
820	0.9018
810	0.9162
800	0.9183
790	0.9207
780	0.9192
770	0.8718
760	0.9064
750	0.9189
740	0.919
730	0.9154
720	0.913
710	0.9185
700	0.9211
690	0.9271
680	0.9214
670	0.7764
660	0.8574
650	0.9242
640	0.9434
630	0.9506
620	0.9296
610	0.9131
600	0.913
590	0.9133
580	0.9111
570	0.9066
560	0.8967
550	0.875
540	0.7906
530	0.7014
520	0.8373
510	0.8641
500	0.8615
490	0.8618
480	0.8592
470	0.855
460	0.8208
450	0.783
440	0.7337
430	0.771
420	0.7803
410	0.7051
400	0.5817
390	0.6179
380	0.6086
370	0.5471
360	0.4651
350	0.4224
340	0.3
330	0.2457
320	0.2282
310	0.1702
300	0.1541
290	0.1208
280	0.135
270	0.1183
260	0.1071
250	0.1181
240	0.1435
230	0.1472
220	0.1399
210	0.1383
