Infrared Spectrum: 2-Hydroxypropiophenone
Formula: C 9 H 10 O 2
CAS: 610-99-1
State: gas
Origin: EPA-IR VAPOR PHASE LIBRARY
1/CM	ABSORBANCE
549.9	0.00302
559.547	0.00323
569.193	0.00329
578.84	0.00329
588.486	0.0049
598.133	0.00809
607.779	0.00929
617.426	0.00739
627.072	0.00558
636.719	0.00524
646.365	0.0059
656.012	0.00657
665.658	0.00645
675.305	0.00615
684.951	0.00711
694.598	0.00867
704.245	0.01036
713.891	0.01313
723.538	0.01716
733.184	0.02513
742.831	0.0397
752.477	0.05633
762.124	0.03307
771.77	0.01591
781.417	0.01013
791.063	0.00828
800.71	0.0074
810.356	0.00731
820.003	0.00959
829.649	0.01026
839.296	0.00769
848.943	0.00479
858.589	0.00591
868.236	0.00376
877.882	0.0022617
887.529	0.0018554
897.175	0.0017119
906.822	0.0019954
916.468	0.00274
926.115	0.00557
935.761	0.01494
945.408	0.02601
955.054	0.02437
964.701	0.01113
974.347	0.00415
983.994	0.00402
993.64	0.00642
1003.29	0.01115
1012.93	0.01169
1022.58	0.00819
1032.23	0.00727
1041.87	0.00631
1051.52	0.00393
1061.17	0.00377
1070.81	0.00385
1080.46	0.00405
1090.11	0.00493
1099.75	0.00512
1109.4	0.00519
1119.05	0.00678
1128.69	0.00747
1138.34	0.01099
1147.99	0.03448
1157.63	0.04602
1167.28	0.02693
1176.92	0.01507
1186.57	0.02192
1196.22	0.04702
1205.86	0.05867
1215.51	0.03991
1225.16	0.02947
1234.8	0.03467
1244.45	0.03771
1254.1	0.0378
1263.74	0.04112
1273.39	0.04846
1283.04	0.0501
1292.68	0.04089
1302.33	0.03284
1311.98	0.03102
1321.62	0.02689
1331.27	0.02719
1340.92	0.03272
1350.56	0.03413
1360.21	0.03285
1369.86	0.02787
1379.5	0.02321
1389.15	0.01915
1398.79	0.01385
1408.44	0.01192
1418.09	0.01299
1427.73	0.01723
1437.38	0.02803
1447.03	0.03952
1456.67	0.04043
1466.32	0.03509
1475.97	0.04139
1485.61	0.04455
1495.26	0.0364
1504.91	0.0233
1514.55	0.01511
1524.2	0.01111
1533.85	0.00934
1543.49	0.00864
1553.14	0.00966
1562.79	0.01613
1572.43	0.02887
1582.08	0.03317
1591.73	0.02647
1601.37	0.02825
1611.02	0.03821
1620.67	0.03683
1630.31	0.03484
1639.96	0.0638
1649.6	0.10879
1659.25	0.11068
1668.9	0.0632
1678.54	0.02698
1688.19	0.01312
1697.84	0.00797
1707.48	0.00573
1717.13	0.00442
1726.78	0.00312
1736.42	0.00241
1746.07	0.0020232
1755.72	0.001885
1765.36	0.0018487
1775.01	0.0019876
1784.66	0.0026
1794.3	0.0031
1803.95	0.0023519
1813.6	0.0016872
1823.24	0.0017477
1832.89	0.001755
1842.54	0.00145956
1852.18	0.00123
1861.83	0.0012894
1871.47	0.0015102
1881.12	0.00142153
1890.77	0.001131
1900.41	0.00137236
1910.06	0.0018064
1919.71	0.0016958
1929.35	0.0013264
1939	0.0021837
1948.65	0.002274
1958.29	0.0013113
1967.94	0.000812
1977.59	0.000671
1987.23	0.000636
1996.88	0.000577
2006.53	0.000558
2016.17	0.000583
2025.82	0.000588
2035.47	0.000652
2045.11	0.000552
2054.76	0.000538
2064.41	0.000569
2074.05	0.000551
2083.7	0.000578
2093.35	0.000626
2102.99	0.000595
2112.64	0.000611
2122.28	0.000633
2131.93	0.000641
2141.58	0.000732
2151.22	0.000614
2160.87	0.000525
2170.52	0.000501
2180.16	0.000503
2189.81	0.000495
2199.46	0.000475
2209.1	0.000405
2218.75	0.000414
2228.4	0.000496
2238.04	0.000543
2247.69	0.000588
2257.34	0.000626
2266.98	0.000782
2276.63	0.000965
2286.28	0.001011
2295.92	0.000833
2305.57	0.000762
2315.22	0.000876
2324.86	0.000928
2334.51	0.000919
2344.16	0.000942
2353.8	0.000894
2363.45	0.000906
2373.09	0.000857
2382.74	0.000902
2392.39	0.001006
2402.03	0.001103
2411.68	0.000984
2421.33	0.000907
2430.97	0.000924
2440.62	0.001006
2450.27	0.000973
2459.91	0.001027
2469.56	0.001023
2479.21	0.001032
2488.85	0.001062
2498.5	0.001141
2508.15	0.0013199
2517.79	0.0014711
2527.44	0.0014865
2537.09	0.00144008
2546.73	0.00145005
2556.38	0.001495
2566.03	0.0016748
2575.67	0.0018143
2585.32	0.0019439
2594.96	0.0021018
2604.61	0.0023108
2614.26	0.00237
2623.9	0.0023361
2633.55	0.00238
2643.2	0.0021868
2652.84	0.0021008
2662.49	0.0020378
2672.14	0.0020541
2681.78	0.0021796
2691.43	0.0022482
2701.08	0.00243
2710.72	0.00252
2720.37	0.00269
2730.02	0.00299
2739.66	0.00305
2749.31	0.00339
2758.96	0.00343
2768.6	0.00323
2778.25	0.00296
2787.9	0.00292
2797.54	0.00294
2807.19	0.00312
2816.84	0.00339
2826.48	0.00377
2836.13	0.00401
2845.77	0.00404
2855.42	0.00434
2865.07	0.00497
2874.71	0.00634
2884.36	0.00906
2894.01	0.01069
2903.65	0.01017
2913.3	0.01113
2922.95	0.01267
2932.59	0.01315
2942.24	0.01615
2951.89	0.01989
2961.53	0.01656
2971.18	0.01469
2980.83	0.02212
2990.47	0.02597
3000.12	0.01958
3009.77	0.01378
3019.41	0.01195
3029.06	0.0123
3038.71	0.01386
3048.35	0.0167
3058	0.02048
3067.64	0.02283
3077.29	0.02175
3086.94	0.0194
3096.58	0.01684
3106.23	0.01368
3115.88	0.01218
3125.52	0.01131
3135.17	0.01077
3144.82	0.01065
3154.46	0.01075
3164.11	0.01084
3173.76	0.01087
3183.4	0.01067
3193.05	0.0103
3202.7	0.01003
3212.34	0.0097
3221.99	0.00916
3231.64	0.00898
3241.28	0.00862
3250.93	0.00876
3260.58	0.00876
3270.22	0.00852
3279.87	0.0084
3289.52	0.00819
3299.16	0.00787
3308.81	0.00744
3318.45	0.00685
3328.1	0.00638
3337.75	0.00592
3347.39	0.00552
3357.04	0.00532
3366.69	0.00492
3376.33	0.00458
3385.98	0.00428
3395.63	0.00393
3405.27	0.00357
3414.92	0.00328
3424.57	0.00286
3434.21	0.00278
3443.86	0.00252
3453.51	0.0023569
3463.15	0.0020065
3472.8	0.0017561
3482.45	0.0016825
3492.09	0.0014633
3501.74	0.0013297
3511.39	0.001212
3521.03	0.001044
3530.68	0.00097
3540.33	0.000773
3549.97	0.000749
3559.62	0.000613
3569.26	0.000618
3578.91	0.000413
3588.56	0.000459
3598.2	0.000379
3607.85	0.000499
3617.5	0.00029
3627.14	0.00036
3636.79	0.00033
3646.44	0.000461
3656.08	0.00034
3665.73	0.00029
3675.38	0.00022
3685.02	0.00015
3694.67	0.00019
3704.32	0.00024
3713.96	0.00015
3723.61	0.00017
3733.26	0.00016
3742.9	3e-05
3752.55	0.00023
3762.2	0.00012
3771.84	8e-05
3781.49	0.00021
3791.13	7e-05
3800.78	0.00018
3810.43	4e-05
3820.07	0.00022
3829.72	8e-05
3839.37	0.00022
3849.01	6e-05
3858.66	9e-05
3868.31	6e-05
3877.95	0.00021
3887.6	0.00032
3897.25	0.00022
3906.89	0.00026
3916.54	0.00025
3926.19	0.00017
3935.83	0.0003
3945.48	0.00018
3955.13	0.00027
3964.77	0.00025
3974.42	0.00025
3984.07	0.00027
3993.71	0.0003
