Infrared Spectrum: 1-Methylanthracene
Formula: C 15 H 12
CAS: 610-48-0
State: gas
Instrument: HP-GC/MS/IRD
Origin: NIST Mass Spectrometry Data Center
1/CM	ABSORBANCE
550	0.000464
562	7.6e-05
574	0.0001296
586	0.0002224
598	0.0001784
610	0.0006704
622	0.0004664
634	0.0001784
646	0.0002344
658	0.000188
670	0.0001552
682	0.0001712
694	0.0002992
706	0.0006384
718	0.0036824
730	0.0071816
742	0.002592
754	0.000736
766	0.0004896
778	0.0009824
790	0.0005392
802	0.0001696
814	0.0001152
826	0.0002376
838	0.0002848
850	0.0006888
862	0.0028792
874	0.0061384
886	0.002344
898	0.0005736
910	0.0002184
922	0.000168
934	0.0002656
946	0.0004632
958	0.0003664
970	0.0002256
982	0.0002
994	0.000396
1006	0.0005448
1018	0.0002728
1030	0.000252
1042	0.00016
1054	0.0003768
1066	0.0005224
1078	0.0002872
1090	0.0001664
1102	7.44e-05
1114	0.000164
1126	0.0004616
1138	0.00058
1150	0.0002808
1162	0.0004768
1174	0.000424
1186	0.000268
1198	0.0003184
1210	0.0002784
1222	0.0002
1234	0.000244
1246	0.0001656
1258	0.0002592
1270	0.0003056
1282	0.0002808
1294	0.000276
1306	0.0005392
1318	0.0006424
1330	0.000524
1342	0.0006568
1354	0.0002984
1366	0.0003616
1378	0.0006256
1390	0.0005344
1402	0.0004048
1414	0.0004048
1426	0.0006
1438	0.0006816
1450	0.0009432
1462	0.0011232
1474	0.0006104
1486	0.0004016
1498	0.0002792
1510	0.0002152
1522	0.000216
1534	0.000484
1546	0.000668
1558	0.0005296
1570	0.0003952
1582	0.0003096
1594	0.0002536
1606	0.00038
1618	0.0007848
1630	0.000796
1642	0.000392
1654	0.000276
1666	0.0002968
1678	0.000404
1690	0.0003944
1702	0.0004072
1714	0.0003608
1726	0.0002872
1738	0.0003208
1750	0.0003632
1762	0.0004696
1774	0.0004144
1786	0.0004232
1798	0.0004536
1810	0.0002152
1822	0.000288
1834	0.0002792
1846	0.0003192
1858	0.0002552
1870	0.0001312
1882	0.0001592
1894	0.000308
1906	0.000516
1918	0.0005232
1930	0.0004184
1942	0.0002048
1954	8.72e-05
1966	8.72e-05
1978	0.0001168
1990	4.8e-05
2002	0.000108
2014	0.0001024
2026	8.32e-05
2038	9.12e-05
2050	6.24e-05
2062	7.52e-05
2074	6.56e-05
2086	9.04e-05
2098	9.04e-05
2110	6e-05
2122	9.6e-05
2134	7.2e-05
2146	5.6e-05
2158	8.8e-05
2170	7.76e-05
2182	7.28e-05
2194	4.88e-05
2206	4.88e-05
2218	0.0001144
2230	5.6e-05
2242	7.04e-05
2254	6.16e-05
2266	7.04e-05
2278	9.84e-05
2290	7.92e-05
2302	0.0001104
2314	0.0001128
2326	0.0001064
2338	0.000116
2350	9.84e-05
2362	1.76e-05
2374	6.48e-05
2386	9.36e-05
2398	9.12e-05
2410	6.72e-05
2422	8.8e-05
2434	7.68e-05
2446	8.72e-05
2458	6.56e-05
2470	8.08e-05
2482	7.76e-05
2494	7.28e-05
2506	7.44e-05
2518	9.04e-05
2530	6.4e-05
2542	9.04e-05
2554	1.36e-05
2566	2.16e-05
2578	7.76e-05
2590	4.08e-05
2602	8.08e-05
2614	5.36e-05
2626	8.64e-05
2638	0.0001184
2650	8.16e-05
2662	7.04e-05
2674	0.0001008
2686	0.0001168
2698	7.84e-05
2710	8.88e-05
2722	0.0001152
2734	0.000104
2746	0.0001648
2758	0.0001632
2770	0.0001224
2782	0.0001392
2794	0.0001832
2806	0.0001624
2818	0.0002
2830	0.000208
2842	0.0002536
2854	0.000384
2866	0.000716
2878	0.000784
2890	0.0006896
2902	0.0009536
2914	0.001132
2926	0.0013048
2938	0.0016488
2950	0.0016592
2962	0.0014064
2974	0.0016944
2986	0.0019064
2998	0.0013856
3010	0.0017008
3022	0.0021464
3034	0.0028328
3046	0.0042264
3058	0.0075896
3070	0.0058768
3082	0.0019128
3094	0.001152
3106	0.0008864
3118	0.000636
3130	0.0004216
3142	0.0003016
3154	0.0001784
3166	0.0003224
3178	0.0001584
3190	0.0001216
3202	0.0001792
3214	0.000156
3226	0.000132
3238	0.0001656
3250	0.0002056
3262	0.0001848
3274	0.0002
3286	0.00012
3298	0.00018
3310	0.0001576
3322	0.0001808
3334	0.000208
3346	0.0001728
3358	0.0001328
3370	9.12e-05
3382	0.0001048
3394	6.64e-05
3406	0.0001712
3418	0.000184
3430	0.0001512
3442	0.0001224
3454	0.0001392
3466	0.0001312
3478	0.0001456
3490	0.00014
3502	8.56e-05
3514	0.0001424
3526	0.0001384
3538	9.36e-05
3550	0.0001096
3562	0.000188
3574	0.0002336
3586	0.0001832
3598	0.0001632
3610	0.0001632
3622	0.00014
3634	0.0001888
3646	0.0002784
3658	0.0002352
3670	0.0001
3682	0.0002168
3694	0.0001696
3706	0.0001616
3718	0.0001416
3730	0.000136
3742	0.0001048
3754	0.0002
3766	0.0001584
3778	0.0001576
3790	0.0002624
3802	0.000208
3814	0.0001376
3826	0.0002488
3838	0.0002832
