Infrared Spectrum: o-Iodobenzoic acid, methyl ester
Formula: C8 H7 I O2
CAS: 610-97-9
State: SOLUTION (10% CCl4 FOR 3800-1330, 10% CS2 FOR 1330-400 CM^-^1)
Class: COBLENTZ III
Instrument: DOW KBr FOREPRISM-GRATING
Instrument parameters: BLAZED AT 3.5, 12.0, 20.0 MICRON AND CHANGED AT 5.0, 7.5, 14.9 MICRON
Sampling: TRANSMISSION
Path length: 0.011 CM, 0.010 CM
Resolution: 2
Origin: DOW CHEMICAL COMPANY
1/CM	TRANSMITTANCE
383	0.136
392	0.2023
401	0.3321
410	0.5874
419	0.6689
428	0.6916
437	0.6922
446	0.6555
455	0.6869
464	0.7236
473	0.7433
482	0.7503
491	0.7569
500	0.7632
509	0.7689
518	0.7727
527	0.7825
536	0.7932
545	0.794
554	0.7969
563	0.8019
572	0.8069
581	0.8085
590	0.8101
599	0.8103
608	0.8132
617	0.8
626	0.8026
635	0.5053
644	0.8098
653	0.8234
662	0.8444
671	0.8197
680	0.644
689	0.5529
698	0.8156
707	0.7948
716	0.8227
725	0.7685
734	0.2542
743	0.1706
752	0.7619
761	0.8177
770	0.8289
779	0.8154
788	0.7899
797	0.861
806	0.8699
815	0.8359
824	0.7092
833	0.8609
842	0.872
851	0.8813
860	0.8973
869	0.8906
878	0.9103
887	0.9178
896	0.9167
905	0.9173
914	0.9117
923	0.9034
932	0.8903
941	0.8315
950	0.7955
959	0.611
968	0.8004
977	0.85
986	0.8499
995	0.8091
1004	0.7451
1013	0.1023
1022	0.7691
1031	0.7244
1040	0.4073
1049	0.7843
1058	0.814
1067	0.8055
1076	0.7694
1085	0.7007
1094	0.4262
1103	0.2383
1112	0.505
1121	0.2467
1130	0.1835
1139	0.6168
1148	0.7089
1157	0.7001
1166	0.7031
1175	0.6995
1184	0.5343
1193	0.552
1202	0.6721
1211	0.7327
1220	0.7045
1229	0.6199
1238	0.3627
1247	0.0669
1256	0.1272
1265	0.245
1274	0.3042
1283	0.1447
1292	0.0341
1301	0.4573
1310	0.6606
1319	0.7136
1328	0.7495
1337	0.7775
1346	0.7905
1355	0.7949
1364	0.8124
1373	0.8289
1382	0.8367
1391	0.818
1400	0.7973
1409	0.77
1418	0.7055
1427	0.3386
1436	0.2088
1445	0.6034
1454	0.5766
1463	0.4205
1472	0.7372
1481	0.7724
1490	0.7933
1499	0.7982
1508	0.8021
1517	0.7965
1526	0.763
1535	0.7571
1544	0.7823
1553	0.8037
1562	0.6236
1571	0.7555
1580	0.4883
1589	0.732
1598	0.8151
1607	0.8082
1616	0.8037
1625	0.8193
1634	0.8187
1643	0.8155
1652	0.8092
1661	0.7886
1670	0.7799
1679	0.7542
1688	0.7049
1697	0.6723
1706	0.595
1715	0.265
1724	0.0671
1733	0.0192
1742	0.0835
1751	0.5745
1760	0.7017
1769	0.7677
1778	0.7942
1787	0.808
1796	0.8178
1805	0.8244
1814	0.826
1823	0.8304
1832	0.8418
1841	0.8455
1850	0.8414
1859	0.853
1868	0.8613
1877	0.864
1886	0.8604
1895	0.8567
1904	0.8509
1913	0.8415
1922	0.8289
1931	0.819
1940	0.8415
1949	0.8641
1958	0.8637
1967	0.8633
1976	0.863
1985	0.8626
1994	0.8571
2003	0.8565
2012	0.8572
2021	0.8599
2030	0.862
2039	0.8666
2048	0.8637
2057	0.8559
2066	0.8457
2075	0.8462
2084	0.8535
2093	0.8607
2102	0.8643
2111	0.8654
2120	0.8647
2129	0.8728
2138	0.8799
2147	0.8801
2156	0.8804
2165	0.8806
2174	0.8825
2183	0.8819
2192	0.8814
2201	0.8831
2210	0.8815
2219	0.8795
2228	0.8778
2237	0.8758
2246	0.8739
2255	0.8731
2264	0.8723
2273	0.8728
2282	0.8719
2291	0.8717
2300	0.8745
2309	0.8773
2318	0.8801
2327	0.8767
2336	0.8697
2345	0.8434
2354	0.799
2363	0.753
2372	0.8761
2381	0.8826
2390	0.8782
2399	0.8796
2408	0.8809
2417	0.8817
2426	0.8834
2435	0.8843
2444	0.8851
2453	0.8851
2462	0.8862
2471	0.8865
2480	0.8863
2489	0.8846
2498	0.8841
2507	0.8835
2516	0.882
2525	0.8798
2534	0.8777
2543	0.8751
2552	0.8732
2561	0.8723
2570	0.8731
2579	0.8746
2588	0.8771
2597	0.8816
2606	0.8851
2615	0.8863
2624	0.8867
2633	0.8872
2642	0.8873
2651	0.8877
2660	0.8874
2669	0.888
2678	0.8884
2687	0.8882
2696	0.888
2705	0.8876
2714	0.8875
2723	0.8886
2732	0.8901
2741	0.8916
2750	0.8929
2759	0.893
2768	0.8929
2777	0.8939
2786	0.895
2795	0.8948
2804	0.8914
2813	0.8875
2822	0.8829
2831	0.8571
2840	0.7904
2849	0.865
2858	0.8749
2867	0.8705
2876	0.8618
2885	0.8541
2894	0.8479
2903	0.8444
2912	0.8631
2921	0.8656
2930	0.8565
2939	0.838
2948	0.6399
2957	0.5101
2966	0.8123
2975	0.83
2984	0.8252
2993	0.7672
3002	0.7455
3011	0.784
3020	0.8015
3029	0.7993
3038	0.8344
3047	0.829
3056	0.7976
3065	0.7936
3074	0.7831
3083	0.8376
3092	0.8811
3101	0.889
3110	0.8919
3119	0.8915
3128	0.8865
3137	0.9022
3146	0.9042
3155	0.9039
3164	0.9046
3173	0.9054
3182	0.9071
3191	0.911
3200	0.9115
3209	0.9141
3218	0.9155
3227	0.916
3236	0.9168
3245	0.9166
3254	0.9171
3263	0.9169
3272	0.9168
3281	0.915
3290	0.9148
3299	0.9145
3308	0.9157
3317	0.9141
3326	0.914
3335	0.9138
3344	0.9153
3353	0.9138
3362	0.9139
3371	0.9139
3380	0.9142
3389	0.9145
3398	0.9156
3407	0.9173
3416	0.9152
3425	0.9115
3434	0.9099
3443	0.9062
3452	0.9006
3461	0.8957
3470	0.8964
3479	0.9053
3488	0.9123
3497	0.9138
3506	0.9146
3515	0.9151
3524	0.9149
3533	0.9159
3542	0.9159
3551	0.9156
3560	0.9141
3569	0.9141
3578	0.9159
3587	0.9162
3596	0.9172
3605	0.92
3614	0.9221
3623	0.9216
3632	0.921
3641	0.9186
3650	0.9178
3659	0.9171
3668	0.9167
3677	0.9161
3686	0.9163
3695	0.9179
3704	0.9179
3713	0.9143
3722	0.9132
3731	0.9145
3740	0.9161
3749	0.9163
3758	0.9163
3767	0.9167
3776	0.9171
3785	0.9172
3794	0.9172
3803	0.9173
