Infrared Spectrum: PHENOL, 4-AMINO-3-NITRO
Formula: C6 H6 N2 O3
CAS: 610-81-1
State: SOLID (KBr PELLET)
Melting point: 153-155 C
Class: COBLENTZ
Instrument: Not specified, most likely a prism, grating, or hybrid spectrometer.
Sampling: TRANSMISSION
Resolution: 4
Origin: TENNESSEE EASTMAN COMPANY, RESEARCH LABORATORIES
MICROMETERS	TRANSMITTANCE
2.068	0.943
2.10892	0.943
2.14984	0.945
2.19075	0.948
2.23167	0.95
2.27259	0.953
2.31351	0.958
2.35442	0.964
2.39534	0.965
2.43626	0.969
2.47718	0.97
2.5181	0.97
2.55901	0.969
2.59993	0.97
2.64085	0.97
2.68177	0.969
2.72268	0.856
2.7636	0.636
2.80452	0.515
2.84544	0.378
2.88636	0.263
2.92727	0.251
2.96819	0.171
3.00911	0.171
3.05003	0.196
3.09094	0.184
3.13186	0.198
3.17278	0.226
3.2137	0.272
3.25462	0.284
3.29553	0.313
3.33645	0.313
3.37737	0.285
3.41829	0.21
3.4592	0.212
3.50012	0.268
3.54104	0.333
3.58196	0.412
3.62288	0.462
3.66379	0.508
3.70471	0.541
3.74563	0.575
3.78655	0.589
3.82746	0.594
3.86838	0.597
3.9093	0.539
3.95022	0.587
3.99114	0.666
4.03205	0.756
4.07297	0.803
4.11389	0.832
4.15481	0.859
4.19572	0.904
4.23664	0.914
4.27756	0.924
4.31848	0.934
4.3594	0.969
4.40031	0.976
4.44123	0.984
4.48215	0.982
4.52307	0.981
4.56398	0.981
4.6049	0.982
4.64582	0.982
4.68674	0.982
4.72765	0.986
4.76857	0.988
4.80949	0.989
4.85041	0.984
4.89133	0.982
4.93224	0.981
4.97316	0.981
5.01408	0.991
5.055	0.981
5.09591	0.972
5.13683	0.941
5.17775	0.931
5.21867	0.936
5.25959	0.938
5.3005	0.938
5.34142	0.936
5.38234	0.945
5.42326	0.955
5.46417	0.958
5.50509	0.958
5.54601	0.958
5.58693	0.957
5.62785	0.946
5.66876	0.955
5.70968	0.948
5.7506	0.929
5.79152	0.905
5.83243	0.9
5.87335	0.876
5.91427	0.863
5.95519	0.844
5.99611	0.792
6.03702	0.708
6.07794	0.601
6.11886	0.527
6.15978	0.477
6.20069	0.445
6.24161	0.28
6.28253	0.239
6.32345	0.255
6.36437	0.321
6.40528	0.244
6.4462	0.118
6.48712	0.066
6.52804	0.053
6.56895	0.051
6.60987	0.101
6.65079	0.135
6.69171	0.172
6.73263	0.296
6.77354	0.414
6.81446	0.479
6.85538	0.4
6.8963	0.46
6.93721	0.446
6.97813	0.398
7.01905	0.402
7.05997	0.419
7.10089	0.419
7.1418	0.424
7.18272	0.462
7.22364	0.496
7.26456	0.501
7.30547	0.46
7.34639	0.265
7.38731	0.099
7.42823	0.042
7.46915	0.116
7.51006	0.301
7.55098	0.434
7.5919	0.489
7.63282	0.476
7.67373	0.416
7.71465	0.395
7.75557	0.429
7.79649	0.309
7.83741	0.184
7.87832	0.167
7.91924	0.16
7.96016	0.176
8.00108	0.198
8.04199	0.2
8.08291	0.164
8.12383	0.142
8.16475	0.147
8.20567	0.148
8.24658	0.148
8.2875	0.148
8.32842	0.178
8.36934	0.25
8.41025	0.337
8.45117	0.453
8.49209	0.513
8.53301	0.464
8.57393	0.347
8.61484	0.299
8.65576	0.429
8.69668	0.561
8.7376	0.657
8.77851	0.708
8.81943	0.729
8.86035	0.729
8.90127	0.688
8.94219	0.642
8.9831	0.578
9.02402	0.616
9.06494	0.643
9.10586	0.655
9.14677	0.669
9.18769	0.686
9.22861	0.712
9.26953	0.739
9.31044	0.787
9.35136	0.813
9.39228	0.82
9.4332	0.82
9.47412	0.823
9.51503	0.818
9.55595	0.804
9.59687	0.794
9.63779	0.794
9.6787	0.797
9.71962	0.801
9.76054	0.813
9.80146	0.828
9.84238	0.839
9.88329	0.854
9.92421	0.866
9.96513	0.875
10.006	0.88
10.047	0.883
10.0879	0.888
10.1288	0.892
10.1697	0.897
10.2106	0.895
10.2516	0.89
10.2925	0.88
10.3334	0.88
10.3743	0.875
10.4152	0.857
10.4561	0.823
10.4971	0.731
10.538	0.583
10.5789	0.52
10.6198	0.539
10.6607	0.643
10.7016	0.767
10.7426	0.827
10.7835	0.859
10.8244	0.868
10.8653	0.875
10.9062	0.88
10.9472	0.88
10.9881	0.878
11.029	0.861
11.0699	0.809
11.1108	0.739
11.1517	0.773
11.1927	0.801
11.2336	0.806
11.2745	0.796
11.3154	0.784
11.3563	0.768
11.3973	0.755
11.4382	0.748
11.4791	0.746
11.52	0.75
11.5609	0.743
11.6018	0.736
11.6428	0.719
11.6837	0.695
11.7246	0.669
11.7655	0.659
11.8064	0.613
11.8473	0.659
11.8883	0.698
11.9292	0.681
11.9701	0.65
12.011	0.602
12.0519	0.556
12.0929	0.484
12.1338	0.344
12.1747	0.33
12.2156	0.472
12.2565	0.607
12.2974	0.69
12.3384	0.763
12.3793	0.792
12.4202	0.796
12.4611	0.756
12.502	0.681
12.5429	0.58
12.5839	0.544
12.6248	0.597
12.6657	0.666
12.7066	0.719
12.7475	0.75
12.7885	0.758
12.8294	0.761
12.8703	0.75
12.9112	0.738
12.9521	0.748
12.993	0.715
13.034	0.645
13.0749	0.638
13.1158	0.712
13.1567	0.748
13.1976	0.75
13.2386	0.727
13.2795	0.72
13.3204	0.751
13.3613	0.779
13.4022	0.796
13.4431	0.801
13.4841	0.804
13.525	0.804
13.5659	0.804
13.6068	0.804
13.6477	0.803
13.6886	0.801
13.7296	0.799
13.7705	0.799
13.8114	0.799
13.8523	0.799
13.8932	0.796
13.9342	0.791
13.9751	0.782
14.016	0.78
14.0569	0.779
14.0978	0.772
14.1387	0.77
14.1797	0.767
14.2206	0.761
14.2615	0.756
14.3024	0.75
14.3433	0.738
14.3842	0.726
14.4252	0.705
14.4661	0.681
14.507	0.657
14.5479	0.628
14.5888	0.611
14.6298	0.609
14.6707	0.635
14.7116	0.662
14.7525	0.681
14.7934	0.693
14.8343	0.696
14.8753	0.698
14.9162	0.698
14.9571	0.693
14.998	0.684
15.0389	0.674
15.0799	0.667
15.1208	0.659
15.1617	0.654
15.2026	0.636
15.2435	0.628
15.2844	0.619
15.3254	0.611
15.3663	0.601
15.4072	0.589
15.4481	0.58
15.489	0.575
15.5299	0.573
15.5709	0.575
15.6118	0.573
15.6527	0.573
15.6936	0.573
15.7345	0.575
15.7755	0.575
15.8164	0.577
15.8573	0.575
15.8982	0.575
15.9391	0.577
15.98	0.578
