Infrared Spectrum: 4-NITRO PHTHALIC ACID, DIMETHYL ESTER
Formula: C10 H9 N O6
CAS: 610-22-0
State: SOLID (MINERAL OIL MULL)
Melting point: 66-67.5 C
Class: COBLENTZ
Instrument: Not specified, most likely a prism, grating, or hybrid spectrometer.
Sampling: TRANSMISSION
Resolution: 4
Origin: WYANDOTTE CHEMICALS CORP., WYANDOTTE, MICHIGAN, USA
MICROMETERS	TRANSMITTANCE
2.034	0.677
2.07476	0.68
2.11551	0.689
2.15627	0.689
2.19703	0.686
2.23778	0.689
2.27854	0.694
2.31929	0.697
2.36005	0.703
2.40081	0.713
2.44156	0.718
2.48232	0.718
2.52308	0.723
2.56383	0.733
2.60459	0.738
2.64534	0.75
2.6861	0.747
2.72686	0.738
2.76761	0.75
2.80837	0.742
2.84913	0.74
2.88988	0.725
2.93064	0.706
2.97139	0.728
3.01215	0.735
3.05291	0.738
3.09366	0.737
3.13442	0.742
3.17518	0.733
3.21593	0.67
3.25669	0.684
3.29744	0.598
3.3382	0.491
3.37896	0.097
3.41971	0.098
3.46047	0.213
3.50123	0.223
3.54198	0.484
3.58274	0.744
3.62349	0.788
3.66425	0.788
3.70501	0.788
3.74576	0.796
3.78652	0.803
3.82728	0.81
3.86803	0.813
3.90879	0.831
3.94954	0.822
3.9903	0.843
4.03106	0.846
4.07181	0.844
4.11257	0.851
4.15333	0.853
4.19408	0.854
4.23484	0.856
4.27559	0.829
4.31635	0.849
4.35711	0.88
4.39786	0.899
4.43862	0.889
4.47938	0.89
4.52013	0.899
4.56089	0.897
4.60164	0.901
4.6424	0.901
4.68316	0.904
4.72391	0.909
4.76467	0.906
4.80543	0.909
4.84618	0.909
4.88694	0.907
4.9277	0.919
4.96845	0.921
5.00921	0.912
5.04996	0.924
5.09072	0.926
5.13148	0.918
5.17223	0.906
5.21299	0.912
5.25375	0.924
5.2945	0.919
5.33526	0.918
5.37601	0.909
5.41677	0.911
5.45753	0.899
5.49828	0.865
5.53904	0.87
5.5798	0.851
5.62055	0.779
5.66131	0.728
5.70206	0.54
5.74282	0.153
5.78358	0.083
5.82433	0.419
5.86509	0.602
5.90585	0.656
5.9466	0.793
5.98736	0.813
6.02811	0.8
6.06887	0.805
6.10963	0.764
6.15038	0.558
6.19114	0.689
6.2319	0.619
6.27265	0.72
6.31341	0.784
6.35416	0.747
6.39492	0.607
6.43568	0.44
6.47643	0.197
6.51719	0.416
6.55795	0.691
6.5987	0.764
6.63946	0.752
6.68021	0.558
6.72097	0.633
6.76173	0.571
6.80248	0.407
6.84324	0.39
6.884	0.389
6.92475	0.303
6.96551	0.232
7.00626	0.474
7.04702	0.747
7.08778	0.704
7.12853	0.744
7.16929	0.718
7.21005	0.547
7.2508	0.419
7.29156	0.336
7.33231	0.143
7.37307	0.24
7.41383	0.411
7.45458	0.513
7.49534	0.515
7.5361	0.341
7.57685	0.119
7.61761	0.122
7.65837	0.078
7.69912	0.064
7.73988	0.107
7.78063	0.117
7.82139	0.09
7.86215	0.139
7.9029	0.284
7.94366	0.235
7.98442	0.148
8.02517	0.356
8.06593	0.552
8.10668	0.633
8.14744	0.689
8.1882	0.711
8.22895	0.718
8.26971	0.697
8.31047	0.639
8.35122	0.496
8.39198	0.438
8.43273	0.655
8.47349	0.73
8.51425	0.764
8.555	0.778
8.59576	0.774
8.63652	0.73
8.67727	0.537
8.71803	0.361
8.75878	0.544
8.79954	0.284
8.8403	0.158
8.88105	0.365
8.92181	0.401
8.96257	0.283
9.00332	0.5
9.04408	0.691
9.08483	0.749
9.12559	0.783
9.16635	0.79
9.2071	0.8
9.24786	0.774
9.28862	0.697
9.32937	0.484
9.37013	0.307
9.41088	0.409
9.45164	0.626
9.4924	0.735
9.53315	0.79
9.57391	0.819
9.61467	0.834
9.65542	0.851
9.69618	0.86
9.73693	0.866
9.77769	0.873
9.81845	0.882
9.8592	0.892
9.89996	0.899
9.94072	0.901
9.98147	0.911
10.0222	0.912
10.063	0.911
10.1037	0.906
10.1445	0.872
10.1853	0.732
10.226	0.771
10.2668	0.747
10.3075	0.598
10.3483	0.66
10.389	0.776
10.4298	0.776
10.4705	0.65
10.5113	0.395
10.5521	0.464
10.5928	0.65
10.6336	0.745
10.6743	0.79
10.7151	0.815
10.7558	0.82
10.7966	0.825
10.8374	0.812
10.8781	0.75
10.9189	0.503
10.9596	0.646
11.0004	0.793
11.0411	0.769
11.0819	0.546
11.1226	0.5
11.1634	0.679
11.2042	0.774
11.2449	0.81
11.2857	0.849
11.3264	0.856
11.3672	0.87
11.4079	0.872
11.4487	0.872
11.4895	0.86
11.5302	0.841
11.571	0.766
11.6117	0.587
11.6525	0.488
11.6932	0.686
11.734	0.825
11.7747	0.882
11.8155	0.899
11.8563	0.907
11.897	0.918
11.9378	0.918
11.9785	0.909
12.0193	0.883
12.06	0.795
12.1008	0.527
12.1416	0.343
12.1823	0.527
12.2231	0.672
12.2638	0.81
12.3046	0.86
12.3453	0.889
12.3861	0.895
12.4268	0.901
12.4676	0.904
12.5084	0.906
12.5491	0.899
12.5899	0.877
12.6306	0.764
12.6714	0.672
12.7121	0.812
12.7529	0.839
12.7937	0.805
12.8344	0.747
12.8752	0.592
12.9159	0.506
12.9567	0.629
12.9974	0.773
13.0382	0.839
13.0789	0.853
13.1197	0.854
13.1605	0.853
13.2012	0.836
13.242	0.81
13.2827	0.75
13.3235	0.668
13.3642	0.517
13.405	0.339
13.4458	0.278
13.4865	0.37
13.5273	0.496
13.568	0.619
13.6088	0.619
13.6495	0.529
13.6903	0.544
13.731	0.672
13.7718	0.781
13.8126	0.825
13.8533	0.844
13.8941	0.858
13.9348	0.863
13.9756	0.889
14.0163	0.902
14.0571	0.906
14.0979	0.911
14.1386	0.912
14.1794	0.914
14.2201	0.919
14.2609	0.921
14.3016	0.919
14.3424	0.919
14.3831	0.919
14.4239	0.914
14.4647	0.909
14.5054	0.906
14.5462	0.901
14.5869	0.901
14.6277	0.902
14.6684	0.902
14.7092	0.909
14.75	0.901
14.7907	0.895
14.8315	0.894
14.8722	0.894
14.913	0.89
14.9537	0.882
14.9945	0.858
15.0352	0.82
15.076	0.79
15.1168	0.8
15.1575	0.802
15.1983	0.802
15.239	0.812
15.2798	0.824
15.3205	0.827
15.3613	0.825
15.4021	0.822
15.4428	0.815
15.4836	0.802
15.5243	0.796
15.5651	0.791
15.6058	0.788
15.6466	0.783
15.6873	0.776
15.7281	0.767
15.7689	0.755
15.8096	0.75
15.8504	0.737
15.8911	0.735
15.9319	0.728
15.9726	0.718
16.0134	0.715
