Infrared Spectrum: 2-Dimethylaminobenzoic acid
Formula: C 9 H 11 N O 2
CAS: 610-16-2
State: gas
Origin: EPA-IR VAPOR PHASE LIBRARY
1/CM	ABSORBANCE
549.8	0.004993
559.445	0.008693
569.09	0.007233
578.734	0.006963
588.379	0.004313
598.024	0.002683
607.669	0.002633
617.313	0.002293
626.958	0.003673
636.603	0.003683
646.248	0.002453
655.893	0.001563
665.537	0.001673
675.182	0.002743
684.827	0.004653
694.472	0.009043
704.116	0.011523
713.761	0.007073
723.406	0.004313
733.051	0.004223
742.695	0.003993
752.34	0.005613
761.985	0.008943
771.63	0.010693
781.275	0.005543
790.919	0.003923
800.564	0.003963
810.209	0.002823
819.854	0.002403
829.498	0.002213
839.143	0.002193
848.788	0.001523
858.433	0.002313
868.078	0.002223
877.722	0.002733
887.367	0.002883
897.012	0.003693
906.657	0.004093
916.301	0.007053
925.946	0.011993
935.591	0.012093
945.236	0.007403
954.88	0.004943
964.525	0.003783
974.17	0.002693
983.815	0.001813
993.46	0.001733
1003.1	0.001393
1012.75	0.002553
1022.39	0.003333
1032.04	0.011203
1041.68	0.016003
1051.33	0.011773
1060.97	0.007433
1070.62	0.005803
1080.26	0.004473
1089.91	0.006643
1099.55	0.007573
1109.2	0.014393
1118.84	0.015043
1128.49	0.013023
1138.13	0.009123
1147.78	0.008303
1157.42	0.008983
1167.07	0.010123
1176.71	0.011903
1186.36	0.011733
1196	0.007993
1205.64	0.007223
1215.29	0.007653
1224.93	0.010123
1234.58	0.012193
1244.22	0.007373
1253.87	0.005473
1263.51	0.009243
1273.16	0.015993
1282.8	0.018293
1292.45	0.015493
1302.09	0.011153
1311.74	0.007563
1321.38	0.007173
1331.03	0.007413
1340.67	0.007583
1350.32	0.007473
1359.96	0.007093
1369.61	0.007053
1379.25	0.007553
1388.9	0.008473
1398.54	0.009873
1408.18	0.012123
1417.83	0.015293
1427.47	0.018343
1437.12	0.019853
1446.76	0.024073
1456.41	0.028633
1466.05	0.035233
1475.7	0.039283
1485.34	0.032033
1494.99	0.021253
1504.63	0.012363
1514.28	0.007743
1523.92	0.005363
1533.57	0.004413
1543.21	0.003963
1552.86	0.004143
1562.5	0.005123
1572.15	0.006133
1581.79	0.007643
1591.44	0.010783
1601.08	0.011483
1610.73	0.006843
1620.37	0.004043
1630.01	0.003323
1639.66	0.003643
1649.3	0.003593
1658.95	0.003883
1668.59	0.004003
1678.24	0.004283
1687.88	0.004703
1697.53	0.006123
1707.17	0.007973
1716.82	0.010723
1726.46	0.015933
1736.11	0.027793
1745.75	0.054803
1755.4	0.086333
1765.04	0.091553
1774.69	0.059753
1784.33	0.025143
1793.98	0.011643
1803.62	0.006833
1813.27	0.004273
1822.91	0.003153
1832.55	0.002783
1842.2	0.002493
1851.84	0.002283
1861.49	0.002103
1871.13	0.002093
1880.78	0.001823
1890.42	0.001493
1900.07	0.001373
1909.71	0.001523
1919.36	0.001743
1929	0.001813
1938.65	0.002123
1948.29	0.001963
1957.94	0.001793
1967.58	0.001613
1977.23	0.001563
1986.87	0.001363
1996.52	0.001443
2006.16	0.001443
2015.81	0.001413
2025.45	0.001383
2035.1	0.001483
2044.74	0.001463
2054.38	0.001423
2064.03	0.001553
2073.67	0.001603
2083.32	0.001623
2092.96	0.001623
2102.61	0.001453
2112.25	0.001513
2121.9	0.001623
2131.54	0.001533
2141.19	0.001743
2150.83	0.001823
2160.48	0.001753
2170.12	0.001713
2179.77	0.001743
2189.41	0.001703
2199.06	0.001903
2208.7	0.001903
2218.35	0.002103
2227.99	0.002143
2237.64	0.002133
2247.28	0.002173
2256.92	0.002123
2266.57	0.002163
2276.21	0.002343
2285.86	0.002503
2295.5	0.002463
2305.15	0.002633
2314.79	0.002963
2324.44	0.003193
2334.08	0.003193
2343.73	0.003153
2353.37	0.002933
2363.02	0.003093
2372.66	0.003243
2382.31	0.003103
2391.95	0.003403
2401.6	0.003333
2411.24	0.003303
2420.89	0.003423
2430.53	0.003833
2440.18	0.003803
2449.82	0.003843
2459.47	0.003943
2469.11	0.003983
2478.75	0.003773
2488.4	0.004263
2498.04	0.004533
2507.69	0.004643
2517.33	0.004773
2526.98	0.005093
2536.62	0.005353
2546.27	0.005563
2555.91	0.005733
2565.56	0.005663
2575.2	0.005783
2584.85	0.006173
2594.49	0.006233
2604.14	0.006543
2613.78	0.006683
2623.43	0.006803
2633.07	0.006853
2642.72	0.007103
2652.36	0.007093
2662.01	0.006993
2671.65	0.007203
2681.29	0.007393
2690.94	0.007023
2700.58	0.006953
2710.23	0.007333
2719.87	0.007193
2729.52	0.007463
2739.16	0.007783
2748.81	0.008203
2758.45	0.008253
2768.1	0.008683
2777.74	0.009513
2787.39	0.010473
2797.03	0.012643
2806.68	0.013563
2816.32	0.011713
2825.97	0.010553
2835.61	0.011373
2845.26	0.012983
2854.9	0.012273
2864.55	0.011993
2874.19	0.012893
2883.84	0.012843
2893.48	0.012333
2903.12	0.011673
2912.77	0.011253
2922.41	0.011193
2932.06	0.011073
2941.7	0.011453
2951.35	0.014623
2960.99	0.018273
2970.64	0.014013
2980.28	0.010273
2989.93	0.012833
2999.57	0.012983
3009.22	0.009383
3018.86	0.007533
3028.51	0.007793
3038.15	0.007923
3047.8	0.007613
3057.44	0.008653
3067.09	0.010823
3076.73	0.012563
3086.38	0.009693
3096.02	0.006993
3105.67	0.005963
3115.31	0.005613
3124.95	0.005053
3134.6	0.005163
3144.24	0.004673
3153.89	0.004633
3163.53	0.004703
3173.18	0.004363
3182.82	0.004063
3192.47	0.003803
3202.11	0.003583
3211.76	0.003433
3221.4	0.003243
3231.05	0.002693
3240.69	0.002723
3250.34	0.002923
3259.98	0.003063
3269.63	0.002603
3279.27	0.002573
3288.92	0.002213
3298.56	0.002333
3308.21	0.002193
3317.85	0.001873
3327.49	0.001753
3337.14	0.001753
3346.78	0.001793
3356.43	0.001503
3366.07	0.001533
3375.72	0.0012106
3385.36	0.001323
3395.01	0.001303
3404.65	0.0011845
3414.3	0.0010592
3423.94	0.001383
3433.59	0.0011097
3443.23	0.001313
3452.88	0.0008633
3462.52	0.001059
3472.17	0.0010404
3481.81	0.0009461
3491.46	0.001333
3501.1	0.001313
3510.75	0.001623
3520.39	0.000991
3530.04	0.0011582
3539.68	0.0009234
3549.32	0.001673
3558.97	0.002993
3568.61	0.004243
3578.26	0.003813
3587.9	0.001743
3597.55	0.0009803
3607.19	0.0005882
3616.84	0.0008249
3626.48	0.000735
3636.13	0.0003535
3645.77	0.000415
3655.42	0.0008424
3665.06	0.0003593
3674.71	0.0007009
3684.35	0.0004668
3694	0.0004654
3703.64	0.0004496
3713.29	0.0004787
3722.93	0.0004879
3732.58	0.0001397
3742.22	0.0003451
3751.86	0.0002175
3761.51	0.000109
3771.15	0.0004527
3780.8	0.0003963
3790.44	0.0002118
3800.09	0.0006626
3809.73	0.00033243
3819.38	0.0004575
3829.02	0.00027234
3838.67	0.0001676
3848.31	0.0004545
3857.96	0.0007227
3867.6	0.0004353
3877.25	0.0007285
3886.89	0.00031766
3896.54	0.0004372
3906.18	0.0005119
3915.83	0.0007682
3925.47	0.00028069
3935.12	0.00032351
3944.76	0.0006883
3954.41	0.0002072
3964.05	0.0001594
3973.69	0.00024398
3983.34	0.0006037
3992.98	0.0005147
