Infrared Spectrum: 2,5-Dimethylbenzoic acid
Formula: C 9 H 10 O 2
CAS: 610-72-0
State: gas
Origin: EPA-IR VAPOR PHASE LIBRARY
1/CM	ABSORBANCE
501.5	0.0020385
513.074	0.0024985
524.648	0.0034985
536.222	0.0051885
547.796	0.0068185
559.37	0.0084385
570.944	0.0114585
582.518	0.0152085
594.092	0.0122285
605.666	0.0064785
617.24	0.0037485
628.814	0.0035085
640.388	0.0111385
651.962	0.0147385
663.536	0.0059785
675.11	0.0020385
686.684	0.0018585
698.258	0.0022285
709.832	0.0041485
721.406	0.0056385
732.98	0.0027985
744.554	0.0016685
756.128	0.0020885
767.702	0.0043685
779.276	0.0079685
790.85	0.0085885
802.423	0.0065185
813.997	0.0063685
825.571	0.0032485
837.145	0.0013085
848.719	0.0008157
860.293	0.0006532
871.867	0.0006771
883.441	0.0012285
895.015	0.0018685
906.589	0.0013685
918.163	0.0008645
929.737	0.0008226
941.311	0.0008536
952.885	0.00106
964.459	0.0012485
976.033	0.0016985
987.607	0.0020585
999.181	0.0018185
1010.76	0.0021885
1022.33	0.0036485
1033.9	0.0076085
1045.48	0.0207785
1057.05	0.0279885
1068.63	0.0161185
1080.2	0.0099085
1091.77	0.0085785
1103.35	0.0082085
1114.92	0.0106885
1126.49	0.0191085
1138.07	0.0270085
1149.64	0.0331385
1161.22	0.0449085
1172.79	0.0315485
1184.36	0.0118185
1195.94	0.0075685
1207.51	0.0068285
1219.09	0.0059985
1230.66	0.0051385
1242.23	0.0043585
1253.81	0.0051585
1265.38	0.0060985
1276.96	0.0067785
1288.53	0.0078385
1300.1	0.0078185
1311.68	0.0092685
1323.25	0.0136385
1334.83	0.0158685
1346.4	0.0100885
1357.97	0.0056185
1369.55	0.0047185
1381.12	0.0046985
1392.7	0.0051185
1404.27	0.0054185
1415.84	0.0054685
1427.42	0.0040785
1438.99	0.0039585
1450.57	0.0045185
1462.14	0.0043185
1473.71	0.0039885
1485.29	0.0052285
1496.86	0.0084185
1508.44	0.0070085
1520.01	0.0029285
1531.58	0.0019985
1543.16	0.0021385
1554.73	0.0026685
1566.31	0.0035785
1577.88	0.0035085
1589.45	0.0021985
1601.03	0.0016885
1612.6	0.0020185
1624.18	0.0020085
1635.75	0.0014485
1647.32	0.0010279
1658.9	0.0010326
1670.47	0.0012885
1682.05	0.0018685
1693.62	0.0028885
1705.19	0.0049685
1716.77	0.0090685
1728.34	0.0154285
1739.92	0.0362985
1751.49	0.0852285
1763.06	0.0662785
1774.64	0.0182685
1786.21	0.0141685
1797.79	0.0090485
1809.36	0.0035685
1820.93	0.0016185
1832.51	0.0010835
1844.08	0.0010319
1855.66	0.0009718
1867.23	0.0008351
1878.8	0.0007299
1890.38	0.0007225
1901.95	0.000856
1913.53	0.0007578
1925.1	0.0004744
1936.67	0.0004048
1948.25	0.0004379
1959.82	0.000364
1971.4	0.0002437
1982.97	0.0002126
1994.54	0.0001995
2006.12	0.00019636
2017.69	0.00017404
2029.27	0.0001989
2040.84	0.000202
2052.41	0.000238
2063.99	0.000272
2075.56	0.0002285
2087.14	0.0001874
2098.71	0.0002673
2110.28	0.0002716
2121.86	0.0002693
2133.43	0.0002229
2145.01	0.0001874
2156.58	0.00015198
2168.15	0.00012835
2179.73	0.00014276
2191.3	0.0001863
2202.88	0.0002213
2214.45	0.0002096
2226.02	0.00014809
2237.6	0.00011423
2249.17	0.00014889
2260.74	9.08e-05
2272.32	0.00014546
2283.89	0.00017612
2295.47	0.0002581
2307.04	0.0002833
2318.61	0.0002144
2330.19	0.00017267
2341.76	0.0002014
2353.34	0.0002503
2364.91	0.0002893
2376.48	0.0002733
2388.06	0.000268
2399.63	0.0002535
2411.21	0.0002386
2422.78	0.0002394
2434.35	0.0002191
2445.93	0.0002051
2457.5	0.00018305
2469.08	0.000199
2480.65	0.00019586
2492.22	0.0001773
2503.8	0.00013054
2515.37	0.00013764
2526.95	0.0001253
2538.52	0.000108262
2550.09	0.000107665
2561.67	0.000107057
2573.24	0.000106273
2584.82	0.00012856
2596.39	0.00015273
2607.96	0.00014554
2619.54	0.00015189
2631.11	0.000107544
2642.69	0.00011617
2654.26	0.0001756
2665.83	0.00014496
2677.41	0.00010246
2688.98	0.00011389
2700.56	0.00015324
2712.13	0.00019334
2723.7	0.0002077
2735.28	0.000406
2746.85	0.0006087
2758.43	0.0005222
2770	0.0003688
2781.57	0.0003139
2793.15	0.0003588
2804.72	0.0004497
2816.3	0.0006169
2827.87	0.0008039
2839.44	0.0011785
2851.02	0.0017285
2862.59	0.0029885
2874.17	0.0045285
2885.74	0.0047585
2897.31	0.0043685
2908.89	0.0044785
2920.46	0.0063785
2932.04	0.0106285
2943.61	0.0108085
2955.18	0.0066685
2966.76	0.0049285
2978.33	0.0055485
2989.91	0.0057885
3001.48	0.0051485
3013.05	0.0052285
3024.63	0.0063685
3036.2	0.0064585
3047.78	0.0062385
3059.35	0.0056785
3070.92	0.0034285
3082.5	0.0019285
3094.07	0.0012185
3105.65	0.0009358
3117.22	0.000876
3128.79	0.0007209
3140.37	0.0004537
3151.94	0.000291
3163.52	0.0002082
3175.09	0.0002451
3186.66	0.0002378
3198.24	0.00014843
3209.81	9.8254e-05
3221.39	6.2e-05
3232.96	6.4e-05
3244.53	5.82e-05
3256.11	1.37e-05
3267.68	0.00013426
3279.26	6.62e-05
3290.83	4.94e-05
3302.4	6e-05
3313.98	6.93e-05
3325.55	0.00011405
3337.13	9.011e-05
3348.7	7.35e-05
3360.27	5.5e-05
3371.85	5.07e-05
3383.42	6.2e-05
3395	0.00010714
3406.57	1.66e-05
3418.14	8.25e-05
3429.72	0.00017407
3441.29	0.00013477
3452.86	0.00015717
3464.44	0.0002167
3476.01	0.0004529
3487.59	0.0006404
3499.16	0.0006697
3510.73	0.0005558
3522.31	0.0004435
3533.88	0.0006804
3545.46	0.0011685
3557.03	0.0062285
3568.6	0.0186985
3580.18	0.0208685
3591.75	0.0088585
3603.33	0.0013685
3614.9	0.0006698
3626.47	0.0004615
3638.05	0.0003933
3649.62	0.0002526
3661.2	0.00014374
3672.77	0.00011082
3684.34	0.00012841
3695.92	0.00015762
3707.49	9.34e-05
3719.07	9.75e-05
3730.64	0.0001961
3742.21	0.00014947
3753.79	9.8147e-05
3765.36	8.32e-05
3776.94	3.92e-05
3788.51	3.51e-05
3800.08	1.11e-05
3811.66	4.81e-05
3823.23	0.0001103
3834.81	7.5e-06
3846.38	2.43e-05
3857.95	8.78e-05
3869.53	0.00016793
3881.1	0.00013955
3892.68	6.65e-05
3904.25	7.66e-05
3915.82	0.00015362
3927.4	0.00016433
3938.97	0.00014729
3950.55	5.04e-05
3962.12	8.44e-05
3973.69	0.00011151
3985.27	9.7685e-05
3996.84	0.00011837
