Infrared Spectrum: O-BROMOBENZOIC ACID, METHYL ESTER
Formula: C8 H7 Br O2
CAS: 610-94-6
State: LIQUID
Boiling point: 126-128 C AT 10 mmHg
Class: COBLENTZ
Instrument: Not specified, most likely a prism, grating, or hybrid spectrometer.
Sampling: TRANSMISSION
Path length: 0.003 CM
Resolution: 4
Origin: WYANDOTTE CHEMICALS CORP., WYANDOTTE, MICHIGAN, USA
MICROMETERS	TRANSMITTANCE
2.027	0.961
2.06681	0.956
2.10662	0.961
2.14643	0.953
2.18623	0.953
2.22604	0.95
2.26585	0.947
2.30566	0.948
2.34547	0.94
2.38528	0.942
2.42509	0.948
2.4649	0.953
2.5047	0.955
2.54451	0.955
2.58432	0.95
2.62413	0.95
2.66394	0.953
2.70375	0.948
2.74356	0.938
2.78337	0.925
2.82317	0.92
2.86298	0.905
2.90279	0.907
2.9426	0.908
2.98241	0.903
3.02222	0.903
3.06203	0.902
3.10184	0.895
3.14164	0.879
3.18145	0.859
3.22126	0.807
3.26107	0.783
3.30088	0.748
3.34069	0.677
3.3805	0.804
3.42031	0.829
3.46011	0.85
3.49992	0.844
3.53973	0.879
3.57954	0.89
3.61935	0.892
3.65916	0.884
3.69897	0.89
3.73878	0.902
3.77858	0.902
3.81839	0.903
3.8582	0.903
3.89801	0.902
3.93782	0.905
3.97763	0.912
4.01744	0.913
4.05725	0.912
4.09705	0.912
4.13686	0.908
4.17667	0.905
4.21648	0.908
4.25629	0.93
4.2961	0.943
4.33591	0.943
4.37572	0.923
4.41552	0.92
4.45533	0.92
4.49514	0.928
4.53495	0.932
4.57476	0.93
4.61457	0.942
4.65438	0.94
4.69419	0.94
4.73399	0.932
4.7738	0.928
4.81361	0.927
4.85342	0.912
4.89323	0.928
4.93304	0.942
4.97285	0.942
5.01265	0.937
5.05246	0.928
5.09227	0.923
5.13208	0.92
5.17189	0.91
5.2117	0.902
5.25151	0.908
5.29132	0.918
5.33112	0.928
5.37093	0.922
5.41074	0.915
5.45055	0.912
5.49036	0.902
5.53017	0.887
5.56998	0.874
5.60979	0.841
5.64959	0.789
5.6894	0.6
5.72921	0.173
5.76902	0.089
5.80883	0.258
5.84864	0.564
5.88845	0.668
5.92826	0.738
5.96806	0.764
6.00787	0.783
6.04768	0.796
6.08749	0.807
6.1273	0.807
6.16711	0.812
6.20692	0.657
6.24673	0.432
6.28653	0.761
6.32634	0.682
6.36615	0.817
6.40596	0.839
6.44577	0.841
6.48558	0.829
6.52539	0.842
6.5652	0.849
6.605	0.834
6.64481	0.817
6.68462	0.802
6.72443	0.69
6.76424	0.423
6.80405	0.569
6.84386	0.529
6.88367	0.43
6.92347	0.225
6.96328	0.23
7.00309	0.581
7.0429	0.748
7.08271	0.789
7.12252	0.819
7.16233	0.826
7.20214	0.841
7.24194	0.846
7.28175	0.847
7.32156	0.846
7.36137	0.837
7.40118	0.814
7.44099	0.789
7.4808	0.758
7.52061	0.713
7.56041	0.624
7.60022	0.455
7.64003	0.2
7.67984	0.086
7.71965	0.072
7.75946	0.119
7.79927	0.203
7.83907	0.21
7.87888	0.175
7.91869	0.14
7.9585	0.072
7.99831	0.139
8.03812	0.327
8.07793	0.531
8.11774	0.627
8.15754	0.645
8.19735	0.644
8.23716	0.687
8.27697	0.71
8.31678	0.663
8.35659	0.533
8.3964	0.475
8.43621	0.596
8.47601	0.667
8.51582	0.688
8.55563	0.67
8.59544	0.655
8.63525	0.698
8.67506	0.701
8.71487	0.67
8.75468	0.486
8.79448	0.256
8.83429	0.231
8.8741	0.251
8.91391	0.294
8.95372	0.22
8.99353	0.19
9.03334	0.299
9.07315	0.551
9.11295	0.678
9.15276	0.736
9.19257	0.761
9.23238	0.779
9.27219	0.784
9.312	0.798
9.35181	0.794
9.39162	0.789
9.43142	0.776
9.47123	0.705
9.51104	0.513
9.55085	0.298
9.59066	0.347
9.63047	0.488
9.67028	0.407
9.71009	0.206
9.74989	0.392
9.7897	0.649
9.82951	0.735
9.86932	0.776
9.90913	0.799
9.94894	0.817
9.98875	0.829
10.0286	0.837
10.0684	0.836
10.1082	0.832
10.148	0.831
10.1878	0.826
10.2276	0.817
10.2674	0.779
10.3072	0.713
10.347	0.624
10.3868	0.577
10.4266	0.577
10.4665	0.614
10.5063	0.64
10.5461	0.67
10.5859	0.718
10.6257	0.779
10.6655	0.817
10.7053	0.85
10.7451	0.867
10.7849	0.872
10.8247	0.877
10.8645	0.88
10.9043	0.88
10.9442	0.885
10.984	0.887
11.0238	0.889
11.0636	0.89
11.1034	0.889
11.1432	0.895
11.183	0.899
11.2228	0.895
11.2626	0.899
11.3024	0.899
11.3422	0.897
11.3821	0.892
11.4219	0.889
11.4617	0.875
11.5015	0.877
11.5413	0.887
11.5811	0.897
11.6209	0.902
11.6607	0.907
11.7005	0.907
11.7403	0.907
11.7801	0.907
11.8199	0.907
11.8598	0.907
11.8996	0.905
11.9394	0.9
11.9792	0.885
12.019	0.842
12.0588	0.766
12.0986	0.673
12.1384	0.625
12.1782	0.653
12.218	0.759
12.2578	0.829
12.2977	0.862
12.3375	0.874
12.3773	0.88
12.4171	0.884
12.4569	0.882
12.4967	0.879
12.5365	0.867
12.5763	0.844
12.6161	0.791
12.6559	0.759
12.6957	0.743
12.7355	0.754
12.7754	0.778
12.8152	0.791
12.855	0.801
12.8948	0.811
12.9346	0.801
12.9744	0.798
13.0142	0.784
13.054	0.756
13.0938	0.72
13.1336	0.658
13.1734	0.582
13.2133	0.486
13.2531	0.374
13.2929	0.278
13.3327	0.221
13.3725	0.172
13.4123	0.149
13.4521	0.139
13.4919	0.153
13.5317	0.205
13.5715	0.336
13.6113	0.485
13.6511	0.637
13.691	0.713
13.7308	0.764
13.7706	0.791
13.8104	0.811
13.8502	0.829
13.89	0.832
13.9298	0.831
13.9696	0.824
14.0094	0.812
14.0492	0.807
14.089	0.806
14.1289	0.804
14.1687	0.798
14.2085	0.763
14.2483	0.725
14.2881	0.678
14.3279	0.619
14.3677	0.581
14.4075	0.569
14.4473	0.579
14.4871	0.607
14.5269	0.635
14.5668	0.665
14.6066	0.69
14.6464	0.723
14.6862	0.75
14.726	0.786
14.7658	0.806
14.8056	0.819
14.8454	0.829
14.8852	0.832
14.925	0.836
14.9648	0.841
15.0046	0.841
15.0445	0.839
15.0843	0.812
15.1241	0.804
15.1639	0.804
15.2037	0.819
15.2435	0.831
15.2833	0.836
15.3231	0.831
15.3629	0.831
15.4027	0.827
15.4425	0.826
15.4824	0.804
15.5222	0.776
15.562	0.746
15.6018	0.711
15.6416	0.697
15.6814	0.716
15.7212	0.756
15.761	0.778
15.8008	0.788
15.8406	0.796
15.8804	0.794
15.9202	0.799
15.9601	0.794
15.9999	0.788
