Infrared Spectrum: 2-Nitrobenzamide
Formula: C 7 H 6 N 2 O 3
CAS: 610-15-1
State: gas
Origin: EPA-IR VAPOR PHASE LIBRARY
1/CM	ABSORBANCE
549.8	0.00019445
559.445	0.0006184
569.09	0.0006969
578.734	0.0005008
588.379	0.0004773
598.024	0.0008642
607.669	0.001847
617.313	0.002137
626.958	0.0008977
636.603	0.0006698
646.248	0.0006772
655.893	0.001277
665.537	0.001927
675.182	0.001777
684.827	0.001287
694.472	0.001437
704.116	0.001917
713.761	0.002657
723.406	0.002907
733.051	0.003257
742.695	0.003227
752.34	0.003307
761.985	0.003587
771.63	0.003527
781.275	0.003317
790.919	0.002037
800.564	0.001247
810.209	0.0009054
819.854	0.0010984
829.498	0.0010936
839.143	0.001387
848.788	0.003397
858.433	0.003597
868.078	0.001897
877.722	0.001267
887.367	0.0011797
897.012	0.0010478
906.657	0.0010902
916.301	0.0008964
925.946	0.0010416
935.591	0.0009575
945.236	0.0011564
954.88	0.0010192
964.525	0.0009162
974.17	0.0008041
983.815	0.0009075
993.46	0.0007291
1003.1	0.0007102
1012.75	0.0005366
1022.39	0.0008751
1032.04	0.0008674
1041.68	0.0005585
1051.33	0.0006893
1060.97	0.000846
1070.62	0.0009132
1080.26	0.001247
1089.91	0.0007997
1099.55	0.0010592
1109.2	0.0007781
1118.84	0.0007135
1128.49	0.0007835
1138.13	0.0007556
1147.78	0.0005622
1157.42	0.0008553
1167.07	0.0006309
1176.71	0.0003159
1186.36	0.0005507
1196	0.0005229
1205.64	0.0006141
1215.29	0.0004761
1224.93	0.0007036
1234.58	0.0007109
1244.22	0.0009496
1253.87	0.0011076
1263.51	0.001367
1273.16	0.001217
1282.8	0.001227
1292.45	0.001567
1302.09	0.001737
1311.74	0.002187
1321.38	0.003297
1331.03	0.006207
1340.67	0.012057
1350.32	0.017187
1359.96	0.015047
1369.61	0.008307
1379.25	0.003947
1388.9	0.002467
1398.54	0.001667
1408.18	0.0011326
1417.83	0.0009496
1427.47	0.0009538
1437.12	0.001307
1446.76	0.001317
1456.41	0.0009903
1466.05	0.001068
1475.7	0.001217
1485.34	0.001367
1494.99	0.001637
1504.63	0.002497
1514.28	0.003847
1523.92	0.006027
1533.57	0.009527
1543.21	0.013267
1552.86	0.013747
1562.5	0.009937
1572.15	0.007347
1581.79	0.007787
1591.44	0.008207
1601.08	0.005897
1610.73	0.003047
1620.37	0.001897
1630.01	0.001497
1639.66	0.001277
1649.3	0.001257
1658.95	0.001337
1668.59	0.001467
1678.24	0.001837
1687.88	0.002547
1697.53	0.003777
1707.17	0.006727
1716.82	0.012167
1726.46	0.018107
1736.11	0.016837
1745.75	0.008947
1755.4	0.003887
1765.04	0.002007
1774.69	0.001207
1784.33	0.0008311
1793.98	0.0007176
1803.62	0.0005723
1813.27	0.0005722
1822.91	0.0006158
1832.55	0.000594
1842.2	0.0005119
1851.84	0.0005394
1861.49	0.0004893
1871.13	0.0003896
1880.78	0.0003324
1890.42	0.0003697
1900.07	0.0003695
1909.71	0.0003678
1919.36	0.0004084
1929	0.0004435
1938.65	0.0004443
1948.29	0.0004316
1957.94	0.0004248
1967.58	0.0003931
1977.23	0.0003746
1986.87	0.0003442
1996.52	0.0003183
2006.16	0.00028203
2015.81	0.000242
2025.45	0.00028862
2035.1	0.00025848
2044.74	0.00028491
2054.38	0.00025999
2064.03	0.00023423
2073.67	0.00025451
2083.32	0.00026547
2092.96	0.00028203
2102.61	0.0003195
2112.25	0.00025929
2121.9	0.00028165
2131.54	0.00027455
2141.19	0.00028259
2150.83	0.0003421
2160.48	0.00024357
2170.12	0.00028715
2179.77	0.00025898
2189.41	0.00029163
2199.06	0.00026027
2208.7	0.00026731
2218.35	0.00029065
2227.99	0.00025211
2237.64	0.00026178
2247.28	0.00023444
2256.92	0.00024896
2266.57	0.000199472
2276.21	0.0003128
2285.86	0.00026299
2295.5	0.00026492
2305.15	0.0003095
2314.79	0.0002991
2324.44	0.0003026
2334.08	0.00023232
2343.73	0.00024408
2353.37	0.00022252
2363.02	0.0001626
2372.66	0.00027261
2382.31	0.0003134
2391.95	0.0003434
2401.6	0.0004007
2411.24	0.0003488
2420.89	0.0003466
2430.53	0.00028611
2440.18	0.00028387
2449.82	0.000299
2459.47	0.00025067
2469.11	0.0003076
2478.75	0.0003244
2488.4	0.0003237
2498.04	0.00027671
2507.69	0.0002676
2517.33	0.00026975
2526.98	0.00019487
2536.62	0.00025833
2546.27	0.00027307
2555.91	0.00021109
2565.56	0.0003151
2575.2	0.00028652
2584.85	0.00024938
2594.49	0.0003009
2604.14	0.00025887
2613.78	0.00022665
2623.43	0.00022548
2633.07	0.00026088
2642.72	0.0003042
2652.36	0.00023784
2662.01	0.0003207
2671.65	0.000363
2681.29	0.0004048
2690.94	0.00023964
2700.58	0.0003071
2710.23	0.0003983
2719.87	0.0003188
2729.52	0.00026315
2739.16	0.00022071
2748.81	0.0003515
2758.45	0.00028587
2768.1	0.00027464
2777.74	0.00021531
2787.39	0.00029693
2797.03	0.0003501
2806.68	0.000312
2816.32	0.00024534
2825.97	0.00029203
2835.61	0.00028173
2845.26	0.0003632
2854.9	0.0003415
2864.55	0.0005353
2874.19	0.0005001
2883.84	0.0003953
2893.48	0.000406
2903.12	0.000378
2912.77	0.0003234
2922.41	0.0004368
2932.06	0.0003249
2941.7	0.0003387
2951.35	0.0003279
2960.99	0.0003746
2970.64	0.0003477
2980.28	0.0003302
2989.93	0.00025638
2999.57	0.0003904
3009.22	0.00025674
3018.86	0.00026886
3028.51	0.0003731
3038.15	0.000398
3047.8	0.0003583
3057.44	0.0004844
3067.09	0.000847
3076.73	0.001327
3086.38	0.0011277
3096.02	0.0006298
3105.67	0.0004037
3115.31	0.00027352
3124.95	0.0003215
3134.6	0.0003819
3144.24	0.0003499
3153.89	0.00029686
3163.53	0.0003258
3173.18	0.00027285
3182.82	0.00025086
3192.47	0.0002643
3202.11	0.0003822
3211.76	0.000118
3221.4	0.00022984
3231.05	0.00025952
3240.69	0.0001744
3250.34	0.0001901
3259.98	0.0003887
3269.63	0.0001836
3279.27	0.000133
3288.92	0.0002483
3298.56	0.0003088
3308.21	0.00024927
3317.85	0.0003479
3327.49	0.0003605
3337.14	0.00019152
3346.78	0.00027873
3356.43	0.000446
3366.07	0.0003829
3375.72	0.000547
3385.36	0.0006348
3395.01	0.0008764
3404.65	0.001607
3414.3	0.002627
3423.94	0.003167
3433.59	0.002227
3443.23	0.000996
3452.88	0.0007606
3462.52	0.0006172
3472.17	0.000504
3481.81	0.0005417
3491.46	0.0005953
3501.1	0.0009813
3510.75	0.0009731
3520.39	0.001787
3530.04	0.003017
3539.68	0.002967
3549.32	0.001547
3558.97	0.0008177
3568.61	0.0003306
3578.26	0.0003562
3587.9	0.00027919
3597.55	0.0001591
3607.19	0.00026146
3616.84	0.00024565
3626.48	0.00020816
3636.13	0.0003586
3645.77	0.0003533
3655.42	0.00028434
3665.06	0.0003641
3674.71	0.0001472
3684.35	0.000361
3694	0.000185
3703.64	0.00023971
3713.29	0.0001177
3722.93	0.0003107
3732.58	0.00020922
3742.22	0.00027149
3751.86	0.00027537
3761.51	0.0003616
3771.15	0.00026934
3780.8	0.00045
3790.44	0.0003329
3800.09	0.00025735
3809.73	9.79e-05
3819.38	0.00023665
3829.02	0.00021196
3838.67	8.6e-05
3848.31	0.0002476
3857.96	0.0003062
3867.6	0.0003347
3877.25	0.0003293
3886.89	0.0003676
3896.54	0.000179
3906.18	0.0003848
3915.83	0.0004207
3925.47	0.0001662
3935.12	0.000343
3944.76	0.0001594
3954.41	0.0001324
3964.05	0.00021221
3973.69	0.0003111
3983.34	0.0002981
3992.98	0.00023385
