Infrared Spectrum: 2,5-Dibromobenzoic acid
Formula: C 7 H 4 Br 2 O 2
CAS: 610-71-9
State: gas
Origin: EPA-IR VAPOR PHASE LIBRARY
1/CM	ABSORBANCE
501.5	0.0001941
513.074	0.0006303
524.648	0.00107
536.222	0.0015
547.796	0.00251
559.37	0.00377
570.944	0.00435
582.518	0.00421
594.092	0.00328
605.666	0.00171
617.24	0.00118
628.814	0.00334
640.388	0.00375
651.962	0.0009072
663.536	0.0004686
675.11	0.00106
686.684	0.00283
698.258	0.00134
709.832	0.0004205
721.406	0.0002145
732.98	0.0003269
744.554	0.0003898
756.128	0.0007033
767.702	0.00118
779.276	0.00156
790.85	0.00119
802.423	0.0017
813.997	0.00393
825.571	0.00208
837.145	0.0004988
848.719	0.0002924
860.293	0.0003111
871.867	0.0002273
883.441	0.0006525
895.015	0.00115
906.589	0.0004758
918.163	0.000279
929.737	0.0002836
941.311	0.0001663
952.885	0.0002406
964.459	0.0002267
976.033	0.0002296
987.607	0.0003156
999.181	0.0006507
1010.76	0.00184
1022.33	0.00738
1033.9	0.00704
1045.48	0.00259
1057.05	0.00206
1068.63	0.00285
1080.2	0.00646
1091.77	0.0092
1103.35	0.00796
1114.92	0.00642
1126.49	0.00454
1138.07	0.00409
1149.64	0.00399
1161.22	0.00498
1172.79	0.00816
1184.36	0.01034
1195.94	0.00478
1207.51	0.00211
1219.09	0.00158
1230.66	0.00123
1242.23	0.00133
1253.81	0.00222
1265.38	0.00226
1276.96	0.00233
1288.53	0.00275
1300.1	0.00363
1311.68	0.00505
1323.25	0.00547
1334.83	0.00327
1346.4	0.00187
1357.97	0.0016
1369.55	0.00215
1381.12	0.00348
1392.7	0.00418
1404.27	0.00237
1415.84	0.00115
1427.42	0.0009498
1438.99	0.00134
1450.57	0.0032
1462.14	0.00461
1473.71	0.00179
1485.29	0.0007288
1496.86	0.0003884
1508.44	0.0003148
1520.01	0.0003705
1531.58	0.0004148
1543.16	0.0005971
1554.73	0.0009833
1566.31	0.0005606
1577.88	0.0005696
1589.45	0.0003955
1601.03	0.0003301
1612.6	0.0003308
1624.18	0.0004725
1635.75	0.0004394
1647.32	0.0003157
1658.9	0.0003074
1670.47	0.00034
1682.05	0.0003407
1693.62	0.0004498
1705.19	0.0007118
1716.77	0.00128
1728.34	0.00261
1739.92	0.00477
1751.49	0.00855
1763.06	0.01489
1774.64	0.01886
1786.21	0.0083
1797.79	0.0053
1809.36	0.00229
1820.93	0.0009933
1832.51	0.0005528
1844.08	0.0003767
1855.66	0.0002934
1867.23	0.0002513
1878.8	0.0002995
1890.38	0.0003729
1901.95	0.0004135
1913.53	0.000302
1925.1	0.0002061
1936.67	0.0001861
1948.25	0.0001711
1959.82	0.0001668
1971.4	0.0001553
1982.97	0.0001737
1994.54	0.0001852
2006.12	0.0001865
2017.69	0.0001482
2029.27	0.0001585
2040.84	0.0001221
2052.41	0.0001144
2063.99	0.000115
2075.56	0.0001174
2087.14	0.0001271
2098.71	0.0001438
2110.28	0.0001717
2121.86	0.0001421
2133.43	0.0001667
2145.01	0.0001362
2156.58	0.0001705
2168.15	0.0001668
2179.73	0.0001586
2191.3	0.0001968
2202.88	0.0001612
2214.45	0.0001721
2226.02	0.0001771
2237.6	0.0001716
2249.17	0.0001588
2260.74	0.0001691
2272.32	0.0001548
2283.89	0.0001626
2295.47	0.0001806
2307.04	0.000174
2318.61	0.0001733
2330.19	0.0001758
2341.76	0.0002238
2353.34	0.0002096
2364.91	0.0002314
2376.48	0.000219
2388.06	0.0001854
2399.63	0.0001886
2411.21	0.0001851
2422.78	0.0001866
2434.35	0.0002015
2445.93	0.0001829
2457.5	0.0001793
2469.08	0.000163
2480.65	0.000177
2492.22	0.0001833
2503.8	0.000203
2515.37	0.0001957
2526.95	0.0001852
2538.52	0.0002228
2550.09	0.0001907
2561.67	0.0001723
2573.24	0.0002177
2584.82	0.0002396
2596.39	0.0001964
2607.96	0.0002045
2619.54	0.0001943
2631.11	0.0001683
2642.69	0.0002163
2654.26	0.0001803
2665.83	0.0001798
2677.41	0.0001868
2688.98	0.000181
2700.56	0.000221
2712.13	0.0001847
2723.7	0.0002025
2735.28	0.0002184
2746.85	0.0001911
2758.43	0.0002096
2770	0.0002182
2781.57	0.0001956
2793.15	0.0002504
2804.72	0.000285
2816.3	0.0002639
2827.87	0.0002927
2839.44	0.0002622
2851.02	0.0002482
2862.59	0.0002217
2874.17	0.0002339
2885.74	0.0002202
2897.31	0.0002625
2908.89	0.0002144
2920.46	0.0002546
2932.04	0.0002357
2943.61	0.0002295
2955.18	0.0002272
2966.76	0.0002208
2978.33	0.0003228
2989.91	0.0002185
3001.48	0.0003006
3013.05	0.0002949
3024.63	0.0003217
3036.2	0.0002772
3047.78	0.0002494
3059.35	0.000323
3070.92	0.0003752
3082.5	0.0004145
3094.07	0.0003209
3105.65	0.0003044
3117.22	0.000298
3128.79	0.0002894
3140.37	0.00028
3151.94	0.000279
3163.52	0.000189
3175.09	0.0002913
3186.66	0.0002426
3198.24	0.0002739
3209.81	0.0002894
3221.39	0.0002615
3232.96	0.0002285
3244.53	0.0002569
3256.11	0.000275
3267.68	0.0002649
3279.26	0.0002958
3290.83	0.000274
3302.4	0.0003024
3313.98	0.0002415
3325.55	0.0003139
3337.13	0.0002773
3348.7	0.000277
3360.27	0.0003246
3371.85	0.0003549
3383.42	0.0003656
3395	0.000283
3406.57	0.0002876
3418.14	0.0003136
3429.72	0.0004027
3441.29	0.0003657
3452.86	0.0003461
3464.44	0.0003574
3476.01	0.0004213
3487.59	0.0005394
3499.16	0.0006208
3510.73	0.0005866
3522.31	0.0007133
3533.88	0.0008229
3545.46	0.00105
3557.03	0.003
3568.6	0.0087
3580.18	0.00547
3591.75	0.00155
3603.33	0.0007008
3614.9	0.0005949
3626.47	0.0004284
3638.05	0.0004415
3649.62	0.000435
3661.2	0.0003571
3672.77	0.0003165
3684.34	0.0003907
3695.92	0.0003781
3707.49	0.0003007
3719.07	0.0003204
3730.64	0.0004068
3742.21	0.0003089
3753.79	0.0003972
3765.36	0.0003636
3776.94	0.0003673
3788.51	0.0004381
3800.08	0.0003344
3811.66	0.0003633
3823.23	0.0003416
3834.81	0.0003838
3846.38	0.0003567
3857.95	0.0003578
3869.53	0.0003851
3881.1	0.0003357
3892.68	0.0003861
3904.25	0.0003507
3915.82	0.0004124
3927.4	0.0004136
3938.97	0.0003277
3950.55	0.00041
3962.12	0.0004197
3973.69	0.0004379
3985.27	0.0004278
3996.84	0.0004005
