Infrared Spectrum: o-Nitrobenzoyl chloride
Formula: C 7 H 4 Cl N O 3
CAS: 610-14-0
State: gas
Origin: EPA-IR VAPOR PHASE LIBRARY
1/CM	ABSORBANCE
549.8	0.001882
559.445	0.001882
569.09	0.001532
578.734	0.001193
588.379	0.0009444
598.024	0.0007383
607.669	0.0010752
617.313	0.001512
626.958	0.004002
636.603	0.012192
646.248	0.018732
655.893	0.012462
665.537	0.006412
675.182	0.008002
684.827	0.018002
694.472	0.034342
704.116	0.033852
713.761	0.014212
723.406	0.005602
733.051	0.004032
742.695	0.005172
752.34	0.009222
761.985	0.008972
771.63	0.009902
781.275	0.011362
790.919	0.005632
800.564	0.003172
810.209	0.003032
819.854	0.003692
829.498	0.007502
839.143	0.022742
848.788	0.034492
858.433	0.029302
868.078	0.033252
877.722	0.043492
887.367	0.048422
897.012	0.028262
906.657	0.011812
916.301	0.007732
925.946	0.006402
935.591	0.005682
945.236	0.005282
954.88	0.004122
964.525	0.002582
974.17	0.001862
983.815	0.0013641
993.46	0.001047
1003.1	0.0007784
1012.75	0.0009624
1022.39	0.0012136
1032.04	0.0013647
1041.68	0.001702
1051.33	0.0012137
1060.97	0.0012009
1070.62	0.0013314
1080.26	0.002002
1089.91	0.002222
1099.55	0.002122
1109.2	0.001932
1118.84	0.001592
1128.49	0.0014543
1138.13	0.001782
1147.78	0.002192
1157.42	0.003182
1167.07	0.004632
1176.71	0.007972
1186.36	0.017732
1196	0.031572
1205.64	0.028342
1215.29	0.012392
1224.93	0.006372
1234.58	0.003692
1244.22	0.002772
1253.87	0.002312
1263.51	0.003032
1273.16	0.003282
1282.8	0.004382
1292.45	0.006422
1302.09	0.006792
1311.74	0.005442
1321.38	0.005952
1331.03	0.011182
1340.67	0.026372
1350.32	0.042852
1359.96	0.034632
1369.61	0.012792
1379.25	0.005252
1388.9	0.003562
1398.54	0.002992
1408.18	0.002802
1417.83	0.002582
1427.47	0.002652
1437.12	0.003122
1446.76	0.003402
1456.41	0.002972
1466.05	0.003572
1475.7	0.004702
1485.34	0.004722
1494.99	0.004542
1504.63	0.005402
1514.28	0.008022
1523.92	0.013942
1533.57	0.026992
1543.21	0.054792
1552.86	0.072772
1562.5	0.052212
1572.15	0.032352
1581.79	0.019262
1591.44	0.010352
1601.08	0.006932
1610.73	0.006562
1620.37	0.005812
1630.01	0.004282
1639.66	0.003232
1649.3	0.002602
1658.95	0.001992
1668.59	0.001582
1678.24	0.001522
1687.88	0.001682
1697.53	0.002342
1707.17	0.003412
1716.82	0.004622
1726.46	0.005832
1736.11	0.006682
1745.75	0.007602
1755.4	0.009542
1765.04	0.012472
1774.69	0.016372
1784.33	0.023332
1793.98	0.039392
1803.62	0.057962
1813.27	0.050492
1822.91	0.026792
1832.55	0.012262
1842.2	0.006442
1851.84	0.003842
1861.49	0.002752
1871.13	0.002172
1880.78	0.002022
1890.42	0.001912
1900.07	0.001762
1909.71	0.001482
1919.36	0.0011711
1929	0.0013491
1938.65	0.001692
1948.29	0.0013401
1957.94	0.0011327
1967.58	0.0013754
1977.23	0.0010832
1986.87	0.0006962
1996.52	0.0006092
2006.16	0.000618
2015.81	0.0005924
2025.45	0.00055439
2035.1	0.00054787
2044.74	0.0006522
2054.38	0.0006242
2064.03	0.0006607
2073.67	0.0006446
2083.32	0.0005773
2092.96	0.0005678
2102.61	0.0004795
2112.25	0.00049121
2121.9	0.00051903
2131.54	0.00048431
2141.19	0.00055181
2150.83	0.000622
2160.48	0.00055214
2170.12	0.00055656
2179.77	0.0004316
2189.41	0.00045416
2199.06	0.00048032
2208.7	0.00048
2218.35	0.00051541
2227.99	0.00051895
2237.64	0.00053429
2247.28	0.00045973
2256.92	0.00053521
2266.57	0.00051773
2276.21	0.000467918
2285.86	0.0004447
2295.5	0.000339
2305.15	0.0003641
2314.79	0.00035
2324.44	0.0003723
2334.08	0.000356
2343.73	0.000299
2353.37	0.000151
2363.02	6.1e-05
2372.66	0.000211
2382.31	0.00045561
2391.95	0.0006011
2401.6	0.0006356
2411.24	0.00051004
2420.89	0.0005855
2430.53	0.00054646
2440.18	0.0005943
2449.82	0.00054462
2459.47	0.00049074
2469.11	0.00054506
2478.75	0.0004293
2488.4	0.00052163
2498.04	0.0004454
2507.69	0.00050905
2517.33	0.0004269
2526.98	0.0004249
2536.62	0.0003622
2546.27	0.00045391
2555.91	0.00049903
2565.56	0.000382
2575.2	0.0004406
2584.85	0.0004292
2594.49	0.00047526
2604.14	0.0007287
2613.78	0.00051455
2623.43	0.00054605
2633.07	0.0005843
2642.72	0.0006697
2652.36	0.0006249
2662.01	0.0005868
2671.65	0.0006889
2681.29	0.0008759
2690.94	0.0010178
2700.58	0.0008909
2710.23	0.0007192
2719.87	0.0005887
2729.52	0.00050563
2739.16	0.00047778
2748.81	0.00050687
2758.45	0.00055128
2768.1	0.0003833
2777.74	0.0005927
2787.39	0.00052492
2797.03	0.0005717
2806.68	0.0005634
2816.32	0.0006127
2825.97	0.0005993
2835.61	0.0005882
2845.26	0.0007731
2854.9	0.0007203
2864.55	0.0009831
2874.19	0.0013701
2883.84	0.001642
2893.48	0.001772
2903.12	0.0014374
2912.77	0.0012217
2922.41	0.0010332
2932.06	0.0008735
2941.7	0.000764
2951.35	0.0007406
2960.99	0.0008518
2970.64	0.0008368
2980.28	0.00055279
2989.93	0.0004434
2999.57	0.0007275
3009.22	0.0005814
3018.86	0.0006593
3028.51	0.0007482
3038.15	0.0007059
3047.8	0.0008189
3057.44	0.0009856
3067.09	0.001762
3076.73	0.003372
3086.38	0.003682
3096.02	0.002212
3105.67	0.0010043
3115.31	0.0007152
3124.95	0.0007329
3134.6	0.0004375
3144.24	0.0003876
3153.89	0.000469546
3163.53	0.00053654
3173.18	0.000471927
3182.82	0.00046847
3192.47	0.00047608
3202.11	0.0004475
3211.76	0.000676
3221.4	0.0004061
3231.05	0.0004295
3240.69	0.0005919
3250.34	0.00049076
3259.98	0.0004219
3269.63	0.00052062
3279.27	0.0004283
3288.92	0.000335
3298.56	0.000468412
3308.21	0.00050134
3317.85	0.000328
3327.49	0.000471257
3337.14	0.0003954
3346.78	0.000354
3356.43	0.00047589
3366.07	0.000359
3375.72	0.0006595
3385.36	0.0004484
3395.01	0.00046981
3404.65	0.0003966
3414.3	0.00045516
3423.94	0.0004061
3433.59	0.000286
3443.23	0.00051484
3452.88	0.000412
3462.52	0.0004292
3472.17	0.00050462
3481.81	0.0005764
3491.46	0.0006896
3501.1	0.0007499
3510.75	0.0006588
3520.39	0.0007635
3530.04	0.0010116
3539.68	0.0008415
3549.32	0.00091
3558.97	0.0008129
3568.61	0.0009786
3578.26	0.0011317
3587.9	0.0009737
3597.55	0.0010265
3607.19	0.000799
3616.84	0.0009078
3626.48	0.0009761
3636.13	0.0007407
3645.77	0.00055339
3655.42	0.0007091
3665.06	0.0006933
3674.71	0.0004449
3684.35	0.0005763
3694	0.0006904
3703.64	0.0003643
3713.29	0.0004484
3722.93	0.00047838
3732.58	0.0005692
3742.22	0.0005731
3751.86	0.0006578
3761.51	0.000676
3771.15	0.0006159
3780.8	0.0006468
3790.44	0.00052049
3800.09	0.0004319
3809.73	0.00051606
3819.38	0.00050947
3829.02	0.00051168
3838.67	0.00054173
3848.31	0.0003766
3857.96	0.0003659
3867.6	0.000345
3877.25	0.00047464
3886.89	0.0006305
3896.54	0.0006743
3906.18	0.0007169
3915.83	0.0006594
3925.47	0.0005275
3935.12	0.0005897
3944.76	0.0006396
3954.41	0.0009068
3964.05	0.0007189
3973.69	0.0004566
3983.34	0.00051919
3992.98	0.00055586
