Infrared Spectrum: 2-Nitrophenyl acetate
Formula: C 8 H 7 N O 4
CAS: 610-69-5
State: gas
Origin: EPA-IR VAPOR PHASE LIBRARY
1/CM	ABSORBANCE
549.9	0.00747
559.547	0.00419
569.193	0.0041
578.84	0.00493
588.486	0.00656
598.133	0.00612
607.779	0.00382
617.426	0.0032843
627.072	0.00369
636.719	0.00605
646.365	0.00934
656.012	0.00893
665.658	0.01106
675.305	0.01482
684.951	0.01421
694.598	0.01721
704.245	0.0153
713.891	0.00872
723.538	0.00933
733.184	0.01859
742.831	0.02143
752.477	0.01255
762.124	0.01322
771.77	0.01922
781.417	0.01231
791.063	0.00904
800.71	0.01396
810.356	0.01836
820.003	0.01343
829.649	0.01289
839.296	0.02617
848.943	0.03053
858.589	0.01716
868.236	0.01304
877.882	0.01139
887.529	0.01832
897.175	0.0432
906.822	0.04509
916.468	0.01845
926.115	0.00701
935.761	0.00574
945.408	0.00773
955.054	0.00627
964.701	0.00482
974.347	0.00614
983.994	0.00955
993.64	0.01661
1003.29	0.0301
1012.93	0.02962
1022.58	0.01579
1032.23	0.01427
1041.87	0.01493
1051.52	0.01333
1061.17	0.01623
1070.81	0.02447
1080.46	0.03614
1090.11	0.03864
1099.75	0.02549
1109.4	0.0151
1119.05	0.0126
1128.69	0.01395
1138.34	0.01952
1147.99	0.03816
1157.63	0.08009
1167.28	0.14489
1176.92	0.29624
1186.57	0.35154
1196.22	0.17511
1205.86	0.05722
1215.51	0.03741
1225.16	0.04524
1234.8	0.04093
1244.45	0.02175
1254.1	0.01658
1263.74	0.01848
1273.39	0.01616
1283.04	0.01151
1292.68	0.01127
1302.33	0.01213
1311.98	0.01257
1321.62	0.01486
1331.27	0.02411
1340.92	0.05509
1350.56	0.10669
1360.21	0.10622
1369.86	0.0694
1379.5	0.05321
1389.15	0.02556
1398.79	0.01416
1408.44	0.01077
1418.09	0.00941
1427.73	0.00973
1437.38	0.01067
1447.03	0.01129
1456.67	0.01224
1466.32	0.01804
1475.97	0.0301
1485.61	0.03293
1495.26	0.02601
1504.91	0.02466
1514.55	0.03245
1524.2	0.049
1533.85	0.09043
1543.49	0.14551
1553.14	0.11635
1562.79	0.05794
1572.43	0.04403
1582.08	0.03688
1591.73	0.0431
1601.37	0.06245
1611.02	0.04931
1620.67	0.02077
1630.31	0.01035
1639.96	0.00768
1649.6	0.00651
1659.25	0.00558
1668.9	0.00492
1678.54	0.00469
1688.19	0.00498
1697.84	0.00582
1707.48	0.00735
1717.13	0.00837
1726.78	0.00809
1736.42	0.00797
1746.07	0.00952
1755.72	0.01224
1765.36	0.01604
1775.01	0.02538
1784.66	0.0575
1794.3	0.11142
1803.95	0.10999
1813.6	0.06265
1823.24	0.02878
1832.89	0.01367
1842.54	0.00855
1852.18	0.00627
1861.83	0.00514
1871.47	0.00474
1881.12	0.00459
1890.77	0.00434
1900.41	0.00399
1910.06	0.00407
1919.71	0.0046
1929.35	0.00404
1939	0.0033185
1948.65	0.00373
1958.29	0.0037
1967.94	0.0031022
1977.59	0.0031374
1987.23	0.0033996
1996.88	0.0032832
2006.53	0.0028298
2016.17	0.00273535
2025.82	0.0028562
2035.47	0.0029755
2045.11	0.00267164
2054.76	0.002458
2064.41	0.002449
2074.05	0.002523
2083.7	0.0026
2093.35	0.00246
2102.99	0.002252
2112.64	0.002155
2122.28	0.002117
2131.93	0.002129
2141.58	0.001976
2151.22	0.001889
2160.87	0.001961
2170.52	0.001937
2180.16	0.001804
2189.81	0.00164
2199.46	0.00157
2209.1	0.00158
2218.75	0.00163
2228.4	0.001664
2238.04	0.00164
2247.69	0.00161
2257.34	0.00162
2266.98	0.001697
2276.63	0.001783
2286.28	0.001776
2295.92	0.001858
2305.57	0.001866
2315.22	0.001901
2324.86	0.001862
2334.51	0.001737
2344.16	0.001824
2353.8	0.001914
2363.45	0.002008
2373.09	0.002112
2382.74	0.002326
2392.39	0.00231
2402.03	0.002196
2411.68	0.002146
2421.33	0.002077
2430.97	0.002052
2440.62	0.002209
2450.27	0.002285
2459.91	0.002035
2469.56	0.001703
2479.21	0.0015
2488.85	0.00157
2498.5	0.00153
2508.15	0.00144
2517.79	0.00125
2527.44	0.00131
2537.09	0.00134
2546.73	0.00138
2556.38	0.00143
2566.03	0.00142
2575.67	0.00136
2585.32	0.00129
2594.96	0.00113
2604.61	0.00113
2614.26	0.00117
2623.9	0.00114
2633.55	0.00111
2643.2	0.0011
2652.84	0.00104
2662.49	0.00105
2672.14	0.00117
2681.78	0.00137
2691.43	0.00142
2701.08	0.00146
2710.72	0.00122
2720.37	0.00106
2730.02	0.00096
2739.66	0.00104
2749.31	0.00097
2758.96	0.00089
2768.6	0.0008
2778.25	0.00075
2787.9	0.00092
2797.54	0.00095
2807.19	0.00094
2816.84	0.00083
2826.48	0.00101
2836.13	0.00105
2845.77	0.00132
2855.42	0.00143
2865.07	0.001762
2874.71	0.002329
2884.36	0.0028125
2894.01	0.0026351
2903.65	0.001757
2913.3	0.00138
2922.95	0.00113
2932.59	0.00116
2942.24	0.00152
2951.89	0.00182
2961.53	0.00145
2971.18	0.00081
2980.83	0.00086
2990.47	0.00089
3000.12	0.00107
3009.77	0.0013
3019.41	0.001694
3029.06	0.002333
3038.71	0.00266488
3048.35	0.00274528
3058	0.0027974
3067.64	0.00433
3077.29	0.00786
3086.94	0.00987
3096.58	0.0057
3106.23	0.00178
3115.88	0.00076
3125.52	0.00033
3135.17	0.00031
3144.82	0.00019
3154.46	0.00023
3164.11	0.00022
3173.76	8e-05
3183.4	0.00012
3193.05	0.00022
3202.7	0.00012
3212.34	0.00013
3221.99	9e-05
3231.64	8e-05
3241.28	0.00012
3250.93	3e-05
3260.58	0.00028
3270.22	0.00022
3279.87	0.0003
3289.52	0.00023
3299.16	0.00026
3308.81	0.0004
3318.45	0.0004
3328.1	0.00048
3337.75	0.00061
3347.39	0.00057
3357.04	0.00053
3366.69	0.00061
3376.33	0.0006
3385.98	0.00054
3395.63	0.00068
3405.27	0.00069
3414.92	0.00063
3424.57	0.00084
3434.21	0.00083
3443.86	0.00095
3453.51	0.00076
3463.15	0.0009
3472.8	0.00112
3482.45	0.00109
3492.09	0.00111
3501.74	0.00117
3511.39	0.00131
3521.03	0.00122
3530.68	0.00143
3540.33	0.00144
3549.97	0.0016
3559.62	0.00201
3569.26	0.00243
3578.91	0.002545
3588.56	0.002273
3598.2	0.001948
3607.85	0.001688
3617.5	0.00163
3627.14	0.0016
3636.79	0.0015
3646.44	0.00142
3656.08	0.00144
3665.73	0.0015
3675.38	0.00135
3685.02	0.00147
3694.67	0.00159
3704.32	0.0015
3713.96	0.00154
3723.61	0.00148
3733.26	0.00161
3742.9	0.00151
3752.55	0.00157
3762.2	0.00151
3771.84	0.00157
3781.49	0.00158
3791.13	0.00149
3800.78	0.00152
3810.43	0.00143
3820.07	0.00153
3829.72	0.00145
3839.37	0.00149
3849.01	0.00146
3858.66	0.00143
3868.31	0.00146
3877.95	0.00148
3887.6	0.001698
3897.25	0.00151
3906.89	0.00151
3916.54	0.00157
3926.19	0.001665
3935.83	0.00166
3945.48	0.00158
3955.13	0.0016
3964.77	0.00164
3974.42	0.001655
3984.07	0.00159
3993.71	0.001672
