Infrared Spectrum: ANISOLE, 3,5-DIMETHYL-4-NITRO-
Formula: C9 H11 N O3
CAS: 61019-03-2
State: SOLID (1 mg / 200 mg KBr DISC)
Class: COBLENTZ III
Instrument: PERKIN-ELMER 21 (GRATING)
Instrument parameters: FILTER AT ABOUT 10 MICRONS
Sampling: TRANSMISSION
Resolution: 2
1/CM	TRANSMITTANCE
4000	0.6703
3991	0.671
3982	0.6718
3973	0.6725
3964	0.6735
3955	0.6743
3946	0.6751
3937	0.676
3928	0.6768
3919	0.6775
3910	0.6784
3901	0.6793
3892	0.6801
3883	0.681
3874	0.6818
3865	0.6828
3856	0.684
3847	0.685
3838	0.686
3829	0.6871
3820	0.6882
3811	0.6891
3802	0.6901
3793	0.6912
3784	0.6924
3775	0.6934
3766	0.6945
3757	0.6955
3748	0.6965
3739	0.6975
3730	0.6987
3721	0.6998
3712	0.7007
3703	0.7012
3694	0.7018
3685	0.7022
3676	0.7028
3667	0.7034
3658	0.7039
3649	0.7045
3640	0.7051
3631	0.7057
3622	0.7062
3613	0.7076
3604	0.7094
3595	0.7111
3586	0.7128
3577	0.7146
3568	0.7162
3559	0.7178
3550	0.7193
3541	0.7208
3532	0.7222
3523	0.7238
3514	0.7254
3505	0.7268
3496	0.7284
3487	0.7294
3478	0.7305
3469	0.7315
3460	0.7321
3451	0.7322
3442	0.7324
3433	0.7328
3424	0.7339
3415	0.735
3406	0.7361
3397	0.7371
3388	0.7386
3379	0.7401
3370	0.7417
3361	0.7432
3352	0.7448
3343	0.7464
3334	0.7475
3325	0.7487
3316	0.7498
3307	0.7508
3298	0.7521
3289	0.7532
3280	0.7535
3271	0.7538
3262	0.754
3253	0.7541
3244	0.7542
3235	0.7543
3226	0.7544
3217	0.7545
3208	0.7544
3199	0.7543
3190	0.7544
3181	0.7556
3172	0.7569
3163	0.7585
3154	0.76
3145	0.7615
3136	0.7626
3127	0.7637
3118	0.7628
3109	0.761
3100	0.7589
3091	0.7576
3082	0.7569
3073	0.7562
3064	0.7561
3055	0.7565
3046	0.7568
3037	0.7572
3028	0.7558
3019	0.7108
3010	0.6978
3001	0.6845
2992	0.6714
2983	0.6592
2974	0.6458
2965	0.6415
2956	0.6411
2947	0.6286
2938	0.617
2929	0.6121
2920	0.6134
2911	0.6256
2902	0.6451
2893	0.6572
2884	0.6748
2875	0.6922
2866	0.6997
2857	0.6989
2848	0.6841
2839	0.6728
2830	0.6739
2821	0.6967
2812	0.7165
2803	0.7362
2794	0.7562
2785	0.7621
2776	0.7647
2767	0.7672
2758	0.77
2749	0.7734
2740	0.7775
2731	0.7828
2722	0.7881
2713	0.7889
2704	0.7895
2695	0.7919
2686	0.7949
2677	0.798
2668	0.8011
2659	0.803
2650	0.8039
2641	0.8036
2632	0.8022
2623	0.7998
2614	0.7976
2605	0.7985
2596	0.801
2587	0.8045
2578	0.8083
2569	0.8121
2560	0.816
2551	0.8199
2542	0.8239
2533	0.8268
2524	0.8247
2515	0.8232
2506	0.8225
2497	0.8231
2488	0.8262
2479	0.8277
2470	0.8288
2461	0.8292
2452	0.8297
2443	0.8299
2434	0.8292
2425	0.8286
2416	0.825
2407	0.8225
2398	0.8278
2389	0.8334
2380	0.8354
2371	0.8334
2362	0.8278
2353	0.8231
2344	0.8185
2335	0.8141
2326	0.8101
2317	0.8142
2308	0.8239
2299	0.8338
2290	0.8434
2281	0.8518
2272	0.8558
2263	0.8587
2254	0.8614
2245	0.865
2236	0.869
2227	0.8703
2218	0.8691
2209	0.8678
2200	0.8653
2191	0.8673
2182	0.8691
2173	0.8701
2164	0.8681
2155	0.8718
2146	0.8746
2137	0.8725
2128	0.8721
2119	0.8723
2110	0.8708
2101	0.8744
2092	0.8773
2083	0.8798
2074	0.8808
2065	0.8813
2056	0.8805
2047	0.8778
2038	0.8755
2029	0.8782
2020	0.8828
2011	0.8849
2002	0.8868
1993	0.8888
1984	0.8907
1975	0.8917
1966	0.8925
1957	0.8914
1948	0.8896
1939	0.8891
1930	0.8906
1921	0.8936
1912	0.8927
1903	0.8904
1894	0.8906
1885	0.8921
1876	0.8938
1867	0.8965
1858	0.8987
1849	0.8992
1840	0.8994
1831	0.8985
1822	0.897
1813	0.896
1804	0.8946
1795	0.8968
1786	0.8954
1777	0.8917
1768	0.8923
1759	0.8934
1750	0.8905
1741	0.8848
1732	0.8812
1723	0.8704
1714	0.8607
1705	0.8539
1696	0.851
1687	0.8578
1678	0.869
1669	0.8533
1660	0.8411
1651	0.8115
1642	0.7556
1633	0.6941
1624	0.6073
1615	0.3982
1606	0.2371
1597	0.1757
1588	0.3163
1579	0.4924
1570	0.669
1561	0.6993
1552	0.6958
1543	0.6554
1534	0.5592
1525	0.3396
1516	0.1164
1507	0.0675
1498	0.2557
1489	0.3622
1480	0.2774
1471	0.3979
1462	0.4485
1453	0.4529
1444	0.5112
1435	0.6571
1426	0.5746
1417	0.616
1408	0.7054
1399	0.761
1390	0.5472
1381	0.5267
1372	0.588
1363	0.3268
1354	0.2774
1345	0.5317
1336	0.2934
1327	0.0987
1318	0.2325
1309	0.4068
1300	0.2584
1291	0.3434
1282	0.5009
1273	0.6164
1264	0.67
1255	0.6985
1246	0.6865
1237	0.7407
1228	0.799
1219	0.8231
1210	0.8336
1201	0.3966
1192	0.446
1183	0.7244
1174	0.2181
1165	0.461
1156	0.6728
1147	0.7255
1138	0.7835
1129	0.8158
1120	0.8151
1111	0.4342
1102	0.4429
1093	0.6994
1084	0.761
1075	0.7903
1066	0.7898
1057	0.5676
1048	0.7171
1039	0.631
1030	0.7483
1021	0.8017
1012	0.7558
1003	0.6033
994	0.7704
985	0.8202
976	0.8423
967	0.825
958	0.8508
949	0.8341
940	0.6701
931	0.8286
922	0.8705
913	0.8771
904	0.8843
895	0.8854
886	0.8884
877	0.8887
868	0.8844
859	0.7719
850	0.5442
841	0.4504
832	0.6811
823	0.8164
814	0.8465
805	0.8782
796	0.8921
787	0.8955
778	0.8936
769	0.8946
760	0.7956
751	0.8971
742	0.9066
733	0.9001
724	0.9037
715	0.8918
706	0.7356
697	0.7961
688	0.8852
679	0.8891
