Infrared Spectrum: 2-IMIDAZOLINE, 2-(p-AMINOPHENYL)-
Formula: C9 H11 N3
CAS: 61033-71-4
State: SOLID (SPLIT MULL), FLUOROLUBE FOR 3800-1330 CM^-^1, NUJOL FOR 1330-450 CM^-^1
Class: COBLENTZ III
Instrument: DOW KBr FOREPRISM-GRATING
Instrument parameters: BLAZED AT 3.5, 12.0, 20.0 MICRON AND CHANGED AT 5.0, 7.5, 14.9 MICRON
Sampling: TRANSMISSION
Resolution: 2
Origin: DOW CHEMICAL COMPANY
1/CM	TRANSMITTANCE
456	0.631
465	0.6604
474	0.6745
483	0.6644
492	0.6426
501	0.6152
510	0.5833
519	0.5562
528	0.5924
537	0.6417
546	0.6571
555	0.6665
564	0.6712
573	0.6733
582	0.6724
591	0.6678
600	0.6593
609	0.6277
618	0.6944
627	0.6925
636	0.6576
645	0.68
654	0.6638
663	0.6295
672	0.5888
681	0.6165
690	0.6435
699	0.6462
708	0.6175
717	0.541
726	0.5122
735	0.5229
744	0.5527
753	0.6286
762	0.6546
771	0.6775
780	0.7286
789	0.7449
798	0.7484
807	0.7318
816	0.6839
825	0.5494
834	0.3855
843	0.4957
852	0.7871
861	0.8133
870	0.8144
879	0.8046
888	0.7821
897	0.7728
906	0.7246
915	0.7143
924	0.7085
933	0.6644
942	0.5543
951	0.6259
960	0.6876
969	0.6567
978	0.5648
987	0.431
996	0.7096
1005	0.7215
1014	0.6948
1023	0.6745
1032	0.6689
1041	0.685
1050	0.6683
1059	0.644
1068	0.6062
1077	0.5594
1086	0.5281
1095	0.5492
1104	0.5623
1113	0.561
1122	0.5768
1131	0.566
1140	0.545
1149	0.5196
1158	0.4803
1167	0.3804
1176	0.363
1185	0.2884
1194	0.6194
1203	0.6476
1212	0.6139
1221	0.5706
1230	0.5438
1239	0.5105
1248	0.4624
1257	0.3943
1266	0.3033
1275	0.2239
1284	0.2407
1293	0.2776
1302	0.2582
1311	0.2523
1320	0.3568
1329	0.2912
1338	0.1985
1347	0.2452
1356	0.3772
1365	0.3706
1374	0.3709
1383	0.3639
1392	0.3522
1401	0.3286
1410	0.2832
1419	0.2682
1428	0.2871
1437	0.2587
1446	0.1969
1455	0.2149
1464	0.2115
1473	0.3188
1482	0.3025
1491	0.2946
1500	0.3616
1509	0.3177
1518	0.232
1527	0.1561
1536	0.4277
1545	0.412
1554	0.3223
1563	0.2385
1572	0.3671
1581	0.2611
1590	0.1429
1599	0.1153
1608	0.0936
1617	0.2207
1626	0.361
1635	0.3584
1644	0.4839
1653	0.6401
1662	0.6903
1671	0.7235
1680	0.7191
1689	0.7106
1698	0.6968
1707	0.6786
1716	0.658
1725	0.649
1734	0.6481
1743	0.6371
1752	0.6275
1761	0.6196
1770	0.6107
1779	0.6017
1788	0.5928
1797	0.5846
1806	0.5769
1815	0.5698
1824	0.5634
1833	0.5579
1842	0.552
1851	0.5456
1860	0.5392
1869	0.5325
1878	0.5258
1887	0.519
1896	0.5145
1905	0.5136
1914	0.5128
1923	0.5123
1932	0.5103
1941	0.5078
1950	0.5038
1959	0.5004
1968	0.4974
1977	0.4938
1986	0.4882
1995	0.4882
2004	0.4866
2013	0.4833
2022	0.4805
2031	0.4769
2040	0.4733
2049	0.4703
2058	0.466
2067	0.4614
2076	0.4567
2085	0.4523
2094	0.448
2103	0.4436
2112	0.4388
2121	0.4338
2130	0.429
2139	0.4242
2148	0.4194
2157	0.4149
2166	0.4103
2175	0.4058
2184	0.4016
2193	0.3976
2202	0.3939
2211	0.39
2220	0.3859
2229	0.3814
2238	0.377
2247	0.3726
2256	0.3684
2265	0.3642
2274	0.3602
2283	0.356
2292	0.352
2301	0.3477
2310	0.3436
2319	0.3414
2328	0.3397
2337	0.3388
2346	0.338
2355	0.3376
2364	0.3373
2373	0.337
2382	0.3368
2391	0.3368
2400	0.3368
2409	0.3355
2418	0.3343
2427	0.3329
2436	0.3314
2445	0.329
2454	0.3266
2463	0.3244
2472	0.3223
2481	0.32
2490	0.3179
2499	0.3157
2508	0.3135
2517	0.3118
2526	0.3099
2535	0.308
2544	0.3058
2553	0.3035
2562	0.3014
2571	0.2991
2580	0.2963
2589	0.2935
2598	0.2909
2607	0.2882
2616	0.2855
2625	0.2828
2634	0.2801
2643	0.2774
2652	0.2747
2661	0.2723
2670	0.2699
2679	0.2674
2688	0.2648
2697	0.2613
2706	0.2578
2715	0.2543
2724	0.2512
2733	0.2481
2742	0.2455
2751	0.2433
2760	0.2412
2769	0.2389
2778	0.2362
2787	0.2334
2796	0.23
2805	0.226
2814	0.2216
2823	0.2146
2832	0.2062
2841	0.1984
2850	0.1908
2859	0.1901
2868	0.196
2877	0.1985
2886	0.1992
2895	0.1967
2904	0.1894
2913	0.184
2922	0.1804
2931	0.1829
2940	0.1868
2949	0.1932
2958	0.196
2967	0.196
2976	0.1954
2985	0.1945
2994	0.1924
3003	0.1865
3012	0.1823
3021	0.1791
3030	0.1772
3039	0.1752
3048	0.1729
3057	0.1704
3066	0.1679
3075	0.165
3084	0.1621
3093	0.1591
3102	0.1554
3111	0.1515
3120	0.1481
3129	0.1449
3138	0.1408
3147	0.1367
3156	0.1387
3165	0.1417
3174	0.1439
3183	0.1439
3192	0.1429
3201	0.1451
3210	0.154
3219	0.1654
3228	0.1783
3237	0.1846
3246	0.1851
3255	0.1848
3264	0.1824
3273	0.1795
3282	0.1765
3291	0.1731
3300	0.1683
3309	0.1633
3318	0.1587
3327	0.1604
3336	0.1723
3345	0.1828
3354	0.1936
3363	0.2048
3372	0.2162
3381	0.224
3390	0.2309
3399	0.2475
3408	0.2639
3417	0.2775
3426	0.2858
3435	0.2871
3444	0.2869
3453	0.2863
3462	0.2928
3471	0.3111
3480	0.3161
3489	0.3142
3498	0.3108
3507	0.3072
3516	0.3037
3525	0.2988
3534	0.2949
3543	0.2914
3552	0.2875
3561	0.2835
3570	0.281
3579	0.2784
3588	0.2761
3597	0.2741
3606	0.2721
3615	0.2701
3624	0.2681
3633	0.266
3642	0.264
3651	0.2619
3660	0.2599
3669	0.2579
3678	0.2559
3687	0.254
3696	0.2522
3705	0.2503
3714	0.2484
3723	0.2468
3732	0.2451
3741	0.2435
3750	0.2427
3759	0.2419
3768	0.2411
3777	0.24
3786	0.2384
3795	0.237
