Infrared Spectrum: SCOPOLAMINE, N-OXIDE, HYDROBROMIDE
Formula: C17 H22 Br N O5
CAS: 6106-81-6
State: SOLID (NUJOL MULL)
Melting point: 138-142 C
Class: COBLENTZ III
Instrument: PERKIN-ELMER 21 (GRATING)
Instrument parameters: NaCl PRISM
Sampling: TRANSMISSION
Resolution: 2
Origin: SMITH KLINE & FRENCH
1/CM	TRANSMITTANCE
4000	0.6783
3991	0.6805
3982	0.683
3973	0.6853
3964	0.6878
3955	0.6903
3946	0.6928
3937	0.6947
3928	0.696
3919	0.6975
3910	0.6989
3901	0.7003
3892	0.7011
3883	0.7018
3874	0.7025
3865	0.7032
3856	0.7039
3847	0.7045
3838	0.7051
3829	0.7058
3820	0.7065
3811	0.7071
3802	0.7078
3793	0.709
3784	0.7108
3775	0.7128
3766	0.7156
3757	0.7188
3748	0.7221
3739	0.7244
3730	0.7261
3721	0.7271
3712	0.7275
3703	0.7281
3694	0.7286
3685	0.7296
3676	0.7321
3667	0.7349
3658	0.7375
3649	0.7395
3640	0.7406
3631	0.7418
3622	0.7424
3613	0.7424
3604	0.7425
3595	0.7424
3586	0.7419
3577	0.7417
3568	0.7408
3559	0.7398
3550	0.7371
3541	0.7317
3532	0.7234
3523	0.7125
3514	0.6986
3505	0.6862
3496	0.6751
3487	0.6646
3478	0.6526
3469	0.639
3460	0.6295
3451	0.6209
3442	0.6122
3433	0.603
3424	0.588
3415	0.5688
3406	0.5505
3397	0.5321
3388	0.5135
3379	0.485
3370	0.4804
3361	0.4797
3352	0.4797
3343	0.4805
3334	0.483
3325	0.4878
3316	0.4935
3307	0.5001
3298	0.5056
3289	0.5108
3280	0.5162
3271	0.5195
3262	0.5214
3253	0.5222
3244	0.5222
3235	0.5218
3226	0.5205
3217	0.5167
3208	0.5106
3199	0.5034
3190	0.4939
3181	0.4834
3172	0.4729
3163	0.4622
3154	0.4516
3145	0.4409
3136	0.4301
3127	0.4193
3118	0.4156
3109	0.4147
3100	0.4092
3091	0.3964
3082	0.3822
3073	0.3679
3064	0.3536
3055	0.3425
3046	0.3409
3037	0.3418
3028	0.3514
3019	0.3668
3010	0.3823
3001	0.3979
2992	0.4136
2983	0.429
2974	0.4309
2965	0.4312
2956	0.427
2947	0.359
2938	0.2657
2929	0.1762
2920	0.1328
2911	0.0851
2902	0.0664
2893	0.0556
2884	0.0439
2875	0.0345
2866	0.0329
2857	0.037
2848	0.0527
2839	0.0698
2830	0.0822
2821	0.0851
2812	0.0893
2803	0.1079
2794	0.2278
2785	0.3844
2776	0.5471
2767	0.6005
2758	0.6156
2749	0.6262
2740	0.636
2731	0.6467
2722	0.6553
2713	0.6592
2704	0.6625
2695	0.6664
2686	0.6703
2677	0.6745
2668	0.6781
2659	0.6811
2650	0.6842
2641	0.6872
2632	0.6903
2623	0.6936
2614	0.6978
2605	0.7046
2596	0.7145
2587	0.7197
2578	0.7239
2569	0.7275
2560	0.7311
2551	0.7351
2542	0.7396
2533	0.7441
2524	0.7487
2515	0.7531
2506	0.7562
2497	0.7595
2488	0.7621
2479	0.7645
2470	0.7668
2461	0.7701
2452	0.7735
2443	0.7775
2434	0.7821
2425	0.7839
2416	0.7856
2407	0.786
2398	0.7864
2389	0.7868
2380	0.7871
2371	0.7875
2362	0.7878
2353	0.7883
2344	0.7886
2335	0.789
2326	0.7894
2317	0.7901
2308	0.7908
2299	0.7914
2290	0.7921
2281	0.7941
2272	0.7958
2263	0.7978
2254	0.7999
2245	0.8018
2236	0.804
2227	0.8061
2218	0.8082
2209	0.8101
2200	0.8121
2191	0.8142
2182	0.8156
2173	0.8168
2164	0.8181
2155	0.8193
2146	0.8203
2137	0.821
2128	0.8217
2119	0.8225
2110	0.823
2101	0.8227
2092	0.8221
2083	0.8216
2074	0.8209
2065	0.82
2056	0.8188
2047	0.8175
2038	0.8174
2029	0.8172
2020	0.8174
2011	0.819
2002	0.8207
1993	0.8223
1984	0.8237
1975	0.8249
1966	0.8265
1957	0.8284
1948	0.8303
1939	0.8321
1930	0.8342
1921	0.8361
1912	0.8375
1903	0.8392
1894	0.8401
1885	0.8403
1876	0.8405
1867	0.8407
1858	0.8409
1849	0.8414
1840	0.8418
1831	0.8421
1822	0.8423
1813	0.8423
1804	0.8416
1795	0.8413
1786	0.8412
1777	0.84
1768	0.8371
1759	0.8328
1750	0.8206
1741	0.7845
1732	0.5106
1723	0.187
1714	0.3623
1705	0.63
1696	0.7253
1687	0.7495
1678	0.7592
1669	0.785
1660	0.7992
1651	0.8062
1642	0.8118
1633	0.8143
1624	0.8156
1615	0.8151
1606	0.8068
1597	0.7638
1588	0.7589
1579	0.7593
1570	0.773
1561	0.7971
1552	0.8046
1543	0.808
1534	0.8098
1525	0.8107
1516	0.8092
1507	0.8015
1498	0.7868
1489	0.6338
1480	0.6569
1471	0.6428
1462	0.4018
1453	0.2796
1444	0.3159
1435	0.4382
1426	0.5271
1417	0.607
1408	0.7132
1399	0.7171
1390	0.6814
1381	0.6012
1372	0.4003
1363	0.3866
1354	0.4306
1345	0.3555
1336	0.438
1327	0.5371
1318	0.6324
1309	0.6437
1300	0.5428
1291	0.6319
1282	0.6875
1273	0.7175
1264	0.7251
1255	0.6244
1246	0.5653
1237	0.711
1228	0.6994
1219	0.6853
1210	0.7164
1201	0.6106
1192	0.4167
1183	0.3574
1174	0.5125
1165	0.325
1156	0.2591
1147	0.5901
1138	0.706
1129	0.7634
1120	0.7734
1111	0.7725
1102	0.7428
1093	0.5195
1084	0.4999
1075	0.461
1066	0.4589
1057	0.6601
1048	0.5323
1039	0.6733
1030	0.5295
1021	0.5933
1012	0.725
1003	0.7304
994	0.6721
985	0.6697
976	0.6921
967	0.7835
958	0.7891
949	0.8018
940	0.8192
931	0.8176
922	0.7628
913	0.6936
904	0.8091
895	0.8277
886	0.6725
877	0.8044
868	0.7912
859	0.7788
850	0.3018
841	0.6701
832	0.759
823	0.7988
814	0.7975
805	0.7968
796	0.7739
787	0.7441
778	0.5687
769	0.6405
760	0.6539
751	0.654
742	0.596
733	0.6197
724	0.6148
715	0.6079
706	0.5971
697	0.5657
688	0.6793
679	0.6905
670	0.6687
661	0.6598
