Infrared Spectrum: 2-Phenyl-4-penten-2-ol
Formula: C 11 H 14 O
CAS: 61077-65-4
State: gas
Instrument: HP-GC/MS/IRD
Origin: NIST Mass Spectrometry Data Center
1/CM	ABSORBANCE
550	0.0036036
562	0.002928
574	0.0015324
586	0.0006144
598	0.0002136
610	0.0002148
622	0.0006396
634	0.0015708
646	0.002598
658	0.0025452
670	0.0021264
682	0.0036696
694	0.0104268
706	0.009
718	0.0035328
730	0.0025116
742	0.0022152
754	0.0041172
766	0.0047604
778	0.0015744
790	0.0002496
802	7.56e-05
814	2.28e-05
826	0.0002448
838	0.0007056
850	0.0015684
862	0.0018456
874	0.0014604
886	0.0016524
898	0.0030708
910	0.0063768
922	0.0087708
934	0.0064044
946	0.003822
958	0.0024048
970	0.0019824
982	0.0025896
994	0.0044016
1006	0.0037884
1018	0.003594
1030	0.0053544
1042	0.0045144
1054	0.005142
1066	0.0064104
1078	0.0058056
1090	0.0048684
1102	0.0042468
1114	0.0034968
1126	0.003312
1138	0.0035508
1150	0.0038436
1162	0.0037488
1174	0.0032664
1186	0.0031476
1198	0.0028068
1210	0.002724
1222	0.0028932
1234	0.00285
1246	0.0029652
1258	0.0036456
1270	0.0043752
1282	0.0046236
1294	0.0047712
1306	0.0047544
1318	0.0047748
1330	0.0049632
1342	0.0047916
1354	0.003768
1366	0.0038448
1378	0.0050784
1390	0.002874
1402	0.0015096
1414	0.0017568
1426	0.0025164
1438	0.00465
1450	0.0049848
1462	0.0025572
1474	0.0014808
1486	0.0024624
1498	0.0028044
1510	0.0007476
1522	0.00036
1534	0.000372
1546	0.0002592
1558	0.000204
1570	0.0002472
1582	0.0004692
1594	0.0012024
1606	0.0012948
1618	0.0007848
1630	0.0016704
1642	0.0022332
1654	0.0007608
1666	0.0002976
1678	0.0001644
1690	7.68e-05
1702	8.64e-05
1714	6.36e-05
1726	7.68e-05
1738	0.0001752
1750	0.0001884
1762	0.0001056
1774	0.0001704
1786	0.0003372
1798	0.0005988
1810	0.0004368
1822	0.0003792
1834	0.000666
1846	0.0007872
1858	0.0005496
1870	0.0005076
1882	0.0005064
1894	0.0003276
1906	0.0001608
1918	0.0001644
1930	0.0003252
1942	0.0005472
1954	0.000516
1966	0.0002568
1978	0.0001284
1990	0.0001164
2002	4.2e-05
2014	2.28e-05
2026	2.64e-05
2038	4.68e-05
2050	3.6e-05
2062	1.08e-05
2074	1.32e-05
2086	3e-05
2098	3.48e-05
2110	2.28e-05
2122	4.92e-05
2134	5.64e-05
2146	8.04e-05
2158	6.24e-05
2170	5.88e-05
2182	5.28e-05
2194	4.8e-05
2206	4.92e-05
2218	5.4e-05
2230	4.44e-05
2242	6.12e-05
2254	5.64e-05
2266	3.6e-05
2278	6.84e-05
2290	9e-05
2302	8.28e-05
2314	0.0001416
2326	0.000138
2338	0.000132
2350	0.000102
2362	0.0001116
2374	9.84e-05
2386	7.92e-05
2398	4.56e-05
2410	7.2e-05
2422	6.6e-05
2434	9.12e-05
2446	6.96e-05
2458	7.44e-05
2470	4.8e-05
2482	4.32e-05
2494	2.16e-05
2506	6.48e-05
2518	7.2e-05
2530	6.84e-05
2542	0.000102
2554	7.8e-05
2566	6.96e-05
2578	0.0001332
2590	0.0001164
2602	0.0001044
2614	6.84e-05
2626	7.08e-05
2638	0.0001092
2650	2.04e-05
2662	3.84e-05
2674	6e-05
2686	5.88e-05
2698	7.08e-05
2710	8.4e-05
2722	0.000102
2734	0.0001164
2746	0.0001296
2758	0.0001512
2770	0.0001596
2782	0.0001608
2794	0.0001932
2806	0.0002484
2818	0.000432
2830	0.0006924
2842	0.0010428
2854	0.001284
2866	0.001578
2878	0.00201
2890	0.0024048
2902	0.003168
2914	0.0045264
2926	0.0060156
2938	0.0069456
2950	0.0049044
2962	0.0040692
2974	0.0089748
2986	0.0116508
2998	0.0057372
3010	0.0036456
3022	0.0045492
3034	0.0055596
3046	0.0051684
3058	0.0062772
3070	0.0094416
3082	0.0096768
3094	0.0067188
3106	0.0026928
3118	0.0012972
3130	0.0006324
3142	0.0004488
3154	0.0003948
3166	0.000324
3178	0.0002472
3190	0.0002112
3202	0.0001908
3214	0.0001392
3226	0.0001488
3238	0.0001188
3250	0.0001884
3262	0.0001236
3274	0.0001428
3286	0.0001548
3298	0.0001524
3310	4.56e-05
3322	9.12e-05
3334	4.8e-05
3346	0.0001248
3358	0.0001116
3370	6.6e-05
3382	9.48e-05
3394	8.28e-05
3406	0.000108
3418	0.0001104
3430	8.04e-05
3442	7.32e-05
3454	0.0001092
3466	9.6e-05
3478	5.52e-05
3490	6.72e-05
3502	8.28e-05
3514	9.84e-05
3526	0.0001512
3538	0.0001764
3550	0.00018
3562	0.00024
3574	0.0003732
3586	0.0009612
3598	0.0014964
3610	0.001668
3622	0.001812
3634	0.0022836
3646	0.0016104
3658	0.0006336
3670	0.0003192
3682	0.0002364
3694	0.0001536
3706	0.0001356
3718	0.00015
3730	0.0001068
3742	8.88e-05
3754	8.88e-05
3766	0.0001128
3778	0.0001032
3790	3.72e-05
3802	4.44e-05
3814	9.6e-05
3826	0.0001044
3838	0.0001092
