Infrared Spectrum: 2,3,4-Trifluorobenzoic acid
Formula: C 7 H 3 F 3 O 2
CAS: 61079-72-9
State: gas
Origin: EPA-IR VAPOR PHASE LIBRARY
1/CM	ABSORBANCE
549.8	0.009194
559.445	0.015364
569.09	0.025444
578.734	0.022724
588.379	0.015194
598.024	0.012894
607.669	0.011784
617.313	0.010614
626.958	0.008534
636.603	0.007474
646.248	0.004704
655.893	0.004084
665.537	0.004854
675.182	0.010864
684.827	0.018624
694.472	0.022114
704.116	0.017344
713.761	0.011054
723.406	0.008684
733.051	0.006044
742.695	0.003684
752.34	0.003354
761.985	0.009624
771.63	0.019304
781.275	0.016154
790.919	0.008604
800.564	0.004304
810.209	0.004874
819.854	0.006934
829.498	0.006844
839.143	0.003414
848.788	0.002404
858.433	0.002044
868.078	0.0013747
877.722	0.0008907
887.367	0.002034
897.012	0.002434
906.657	0.005294
916.301	0.013844
925.946	0.020514
935.591	0.014184
945.236	0.004414
954.88	0.002084
964.525	0.0015016
974.17	0.001884
983.815	0.001594
993.46	0.002264
1003.1	0.002934
1012.75	0.004284
1022.39	0.007394
1032.04	0.021544
1041.68	0.042994
1051.33	0.039344
1060.97	0.013744
1070.62	0.008894
1080.26	0.009234
1089.91	0.016144
1099.55	0.036554
1109.2	0.049654
1118.84	0.042484
1128.49	0.025604
1138.13	0.014264
1147.78	0.017994
1157.42	0.034854
1167.07	0.059324
1176.71	0.058194
1186.36	0.033984
1196	0.016074
1205.64	0.011034
1215.29	0.011384
1224.93	0.011304
1234.58	0.014024
1244.22	0.015794
1253.87	0.016284
1263.51	0.013904
1273.16	0.019564
1282.8	0.025884
1292.45	0.027824
1302.09	0.041864
1311.74	0.044684
1321.38	0.034094
1331.03	0.031484
1340.67	0.028634
1350.32	0.026724
1359.96	0.029464
1369.61	0.029414
1379.25	0.026174
1388.9	0.020584
1398.54	0.011424
1408.18	0.006034
1417.83	0.004894
1427.47	0.004514
1437.12	0.004354
1446.76	0.005654
1456.41	0.010264
1466.05	0.025134
1475.7	0.054764
1485.34	0.063314
1494.99	0.041584
1504.63	0.048844
1514.28	0.065244
1523.92	0.036054
1533.57	0.011344
1543.21	0.007954
1552.86	0.006914
1562.5	0.008054
1572.15	0.008444
1581.79	0.009034
1591.44	0.011504
1601.08	0.018164
1610.73	0.027154
1620.37	0.036184
1630.01	0.033574
1639.66	0.016634
1649.3	0.006744
1658.95	0.004554
1668.59	0.004154
1678.24	0.003884
1687.88	0.004054
1697.53	0.004164
1707.17	0.005234
1716.82	0.007654
1726.46	0.011834
1736.11	0.016734
1745.75	0.037684
1755.4	0.086584
1765.04	0.104864
1774.69	0.075344
1784.33	0.049094
1793.98	0.023104
1803.62	0.015714
1813.27	0.010084
1822.91	0.005234
1832.55	0.003474
1842.2	0.002964
1851.84	0.002574
1861.49	0.002244
1871.13	0.002234
1880.78	0.002244
1890.42	0.002294
1900.07	0.002154
1909.71	0.001714
1919.36	0.001654
1929	0.0013905
1938.65	0.0013753
1948.29	0.0013804
1957.94	0.0014484
1967.58	0.0013271
1977.23	0.0012113
1986.87	0.00119
1996.52	0.0012104
2006.16	0.0010841
2015.81	0.0011171
2025.45	0.0012408
2035.1	0.001499
2044.74	0.0011801
2054.38	0.0009577
2064.03	0.0009641
2073.67	0.0011746
2083.32	0.0012419
2092.96	0.0011916
2102.61	0.0012159
2112.25	0.0009807
2121.9	0.0009282
2131.54	0.0006486
2141.19	0.0009842
2150.83	0.0010435
2160.48	0.0013476
2170.12	0.0013576
2179.77	0.0012578
2189.41	0.0013973
2199.06	0.0012701
2208.7	0.0014834
2218.35	0.0014199
2227.99	0.0011718
2237.64	0.0009071
2247.28	0.0009594
2256.92	0.0010163
2266.57	0.0010474
2276.21	0.0008747
2285.86	0.0009298
2295.5	0.0009801
2305.15	0.0008894
2314.79	0.0012381
2324.44	0.0013744
2334.08	0.0014719
2343.73	0.0013831
2353.37	0.0012492
2363.02	0.0013699
2372.66	0.0013425
2382.31	0.0008182
2391.95	0.0007743
2401.6	0.0008604
2411.24	0.0009046
2420.89	0.0009954
2430.53	0.0010461
2440.18	0.0011235
2449.82	0.0013918
2459.47	0.0012634
2469.11	0.0012305
2478.75	0.0014509
2488.4	0.0014227
2498.04	0.0013798
2507.69	0.0014063
2517.33	0.001219
2526.98	0.0014146
2536.62	0.0013861
2546.27	0.0014987
2555.91	0.001614
2565.56	0.0012989
2575.2	0.0012401
2584.85	0.0012296
2594.49	0.0013236
2604.14	0.0011873
2613.78	0.0010756
2623.43	0.0010296
2633.07	0.000503
2642.72	0.0007281
2652.36	0.0006671
2662.01	0.0006684
2671.65	0.0009686
2681.29	0.0007233
2690.94	0.0008121
2700.58	0.0010088
2710.23	0.0007255
2719.87	0.0009408
2729.52	0.0010389
2739.16	0.0010587
2748.81	0.0013549
2758.45	0.0009949
2768.1	0.0009464
2777.74	0.0010341
2787.39	0.0011524
2797.03	0.0009093
2806.68	0.0011739
2816.32	0.0009896
2825.97	0.0008355
2835.61	0.0009032
2845.26	0.0010634
2854.9	0.0009384
2864.55	0.0009624
2874.19	0.000598
2883.84	0.0008066
2893.48	0.0007142
2903.12	0.0009177
2912.77	0.0009289
2922.41	0.0012021
2932.06	0.000536872
2941.7	0.0007295
2951.35	0.0009026
2960.99	0.0012107
2970.64	0.0009913
2980.28	0.0011248
2989.93	0.0008203
2999.57	0.00061885
3009.22	0.0008252
3018.86	0.00057334
3028.51	0.0007928
3038.15	0.0008487
3047.8	0.0008888
3057.44	0.001128
3067.09	0.000958
3076.73	0.0011106
3086.38	0.001032
3096.02	0.0015159
3105.67	0.0014271
3115.31	0.0009206
3124.95	0.0011952
3134.6	0.00085
3144.24	0.00056639
3153.89	0.0007103
3163.53	0.00056332
3173.18	0.0006763
3182.82	0.0007228
3192.47	0.0009464
3202.11	0.0009848
3211.76	0.0008826
3221.4	0.00061594
3231.05	0.0011689
3240.69	0.0006697
3250.34	0.0010133
3259.98	0.0008547
3269.63	0.00059854
3279.27	0.0008517
3288.92	0.0007882
3298.56	0.0007087
3308.21	0.000403
3317.85	0.0008865
3327.49	0.0006996
3337.14	0.00017
3346.78	0.0005084
3356.43	0.0005182
3366.07	0.0010016
3375.72	0.000836
3385.36	0.0007517
3395.01	0.0009707
3404.65	0.00063239
3414.3	0.00076
3423.94	0.0008613
3433.59	0.001053
3443.23	0.0007401
3452.88	0.000404
3462.52	0.0011063
3472.17	0.0009939
3481.81	0.001584
3491.46	0.001704
3501.1	0.001954
3510.75	0.001714
3520.39	0.001654
3530.04	0.002014
3539.68	0.001864
3549.32	0.002244
3558.97	0.008104
3568.61	0.036404
3578.26	0.045544
3587.9	0.016424
3597.55	0.003244
3607.19	0.003384
3616.84	0.003204
3626.48	0.003004
3636.13	0.001574
3645.77	0.0010273
3655.42	0.0010782
3665.06	0.0013736
3674.71	0.0010505
3684.35	0.0010651
3694	0.0010752
3703.64	0.0012882
3713.29	0.0010465
3722.93	0.0013002
3732.58	0.0008004
3742.22	0.0007501
3751.86	0.0011283
3761.51	0.0006431
3771.15	0.000847
3780.8	0.0009745
3790.44	0.0012568
3800.09	0.0008453
3809.73	0.0006105
3819.38	0.0007594
3829.02	0.0009768
3838.67	0.00063103
3848.31	0.0010392
3857.96	0.0006768
3867.6	0.0013151
3877.25	0.000421
3886.89	0.0011935
3896.54	0.0004669
3906.18	0.000238
3915.83	0.0005039
3925.47	0.000249
3935.12	0
3944.76	0.0009028
3954.41	0.000869
3964.05	0.0008574
3973.69	0.0007825
3983.34	0.0008569
3992.98	0.0008398
