Infrared Spectrum: cis,cis-2,4-Hexadiene
Formula: C 6 H 10
CAS: 6108-61-8
State: gas
Instrument: HP-GC/MS/IRD
Origin: NIST Mass Spectrometry Data Center
1/CM	ABSORBANCE
550	0.002648
562	0.0011008
574	0.0007264
586	0.000752
598	0.0007664
610	0.0012944
622	0.0022064
634	0.0037728
646	0.0061216
658	0.00856
670	0.01108
682	0.0108432
694	0.0086656
706	0.0055888
718	0.0031648
730	0.0015552
742	0.000784
754	0.0005664
766	0.000376
778	0.0004128
790	0.0002928
802	0.000128
814	5.92e-05
826	9.92e-05
838	6.56e-05
850	1.6e-05
862	5.44e-05
874	0.0001088
886	0.0003136
898	0.0008048
910	0.0025888
922	0.00428
934	0.0039424
946	0.0012704
958	0.0007776
970	0.000664
982	0.0005136
994	0.0004736
1006	0.0004192
1018	0.0005312
1030	0.0004496
1042	0.000368
1054	0.0003088
1066	0.0002992
1078	0.0003728
1090	0.0002656
1102	0.0003392
1114	0.0002128
1126	0.0001392
1138	0.0001936
1150	0.000112
1162	0.0001264
1174	7.84e-05
1186	1.12e-05
1198	0.0001376
1210	0.000144
1222	0.0002032
1234	0.0002176
1246	0.0001488
1258	7.68e-05
1270	7.84e-05
1282	0.0001424
1294	0.0001984
1306	0.0003392
1318	0.000592
1330	0.0012752
1342	0.0024256
1354	0.002808
1366	0.0023008
1378	0.0028432
1390	0.0035072
1402	0.0035728
1414	0.0026288
1426	0.0024496
1438	0.0028384
1450	0.0029232
1462	0.0024896
1474	0.0018368
1486	0.0014512
1498	0.0013376
1510	0.0013808
1522	0.0014128
1534	0.00136
1546	0.0012528
1558	0.0011728
1570	0.001232
1582	0.0015184
1594	0.002056
1606	0.0023168
1618	0.0021792
1630	0.0016512
1642	0.0011328
1654	0.000728
1666	0.0004832
1678	0.0004336
1690	0.0004848
1702	0.0005504
1714	0.0006688
1726	0.0010288
1738	0.0013744
1750	0.001136
1762	0.0005408
1774	0.0002832
1786	0.000296
1798	0.000344
1810	0.0003264
1822	0.0002
1834	0.0001488
1846	8.32e-05
1858	6.56e-05
1870	6.24e-05
1882	3.84e-05
1894	8e-05
1906	0.0001216
1918	0.0001472
1930	0.0001296
1942	0.0001552
1954	0.0001872
1966	0.000312
1978	0.000424
1990	0.0004432
2002	0.0003696
2014	0.0002384
2026	0.0001808
2038	7.52e-05
2050	4.96e-05
2062	8.96e-05
2074	4.64e-05
2086	3.2e-05
2098	6.4e-06
2110	6.08e-05
2122	8.8e-05
2134	4.8e-05
2146	4.64e-05
2158	3.36e-05
2170	3.52e-05
2182	8e-06
2194	9.6e-06
2206	2.08e-05
2218	2.24e-05
2230	3.2e-05
2242	2.56e-05
2254	5.76e-05
2266	4e-05
2278	6.72e-05
2290	0.000104
2302	8.16e-05
2314	6.24e-05
2326	7.2e-05
2338	7.52e-05
2350	8.64e-05
2362	9.76e-05
2374	5.12e-05
2386	8e-05
2398	7.36e-05
2410	8e-05
2422	0.000104
2434	8.8e-05
2446	6.56e-05
2458	9.44e-05
2470	9.92e-05
2482	0.0001152
2494	0.0001232
2506	0.0001072
2518	8e-05
2530	6.24e-05
2542	1.44e-05
2554	4.64e-05
2566	3.68e-05
2578	3.68e-05
2590	0.0001024
2602	5.12e-05
2614	3.84e-05
2626	2.56e-05
2638	6.24e-05
2650	7.2e-05
2662	6.88e-05
2674	8.32e-05
2686	0.000104
2698	0.000104
2710	0.000216
2722	0.0003264
2734	0.0003696
2746	0.0005664
2758	0.0006864
2770	0.0006464
2782	0.0006064
2794	0.0006896
2806	0.000848
2818	0.0011376
2830	0.0015904
2842	0.0025104
2854	0.0044352
2866	0.0068096
2878	0.0076416
2890	0.0069968
2902	0.0078736
2914	0.0118224
2926	0.0146576
2938	0.0132096
2950	0.0086288
2962	0.0066944
2974	0.00616
2986	0.0066336
2998	0.008952
3010	0.0126352
3022	0.0155856
3034	0.01572
3046	0.0134416
3058	0.0102064
3070	0.0063792
3082	0.0034992
3094	0.0020288
3106	0.0012512
3118	0.0008848
3130	0.0006032
3142	0.0003792
3154	0.0003264
3166	0.0003008
3178	0.0002368
3190	0.000168
3202	0.0002032
3214	0.0001888
3226	0.0001728
3238	0.0002016
3250	0.0001984
3262	0.0001472
3274	0.0001136
3286	8.8e-05
3298	0.0001072
3310	0.0001648
3322	4.64e-05
3334	8.64e-05
3346	0.000112
3358	9.28e-05
3370	0.0001184
3382	0.000128
3394	3.36e-05
3406	2.24e-05
3418	1.44e-05
3430	0.0001056
3442	9.28e-05
3454	0.0001184
3466	0.0001216
3478	0.0001568
3490	9.92e-05
3502	6.24e-05
3514	0.000104
3526	0.0001232
3538	0.0001584
3550	0.0001616
3562	0.0002128
3574	0.0001584
3586	0.0001648
3598	0.000152
3610	0.0001888
3622	0.0001968
3634	0.0002016
3646	0.0002144
3658	0.0001872
3670	0.0002048
3682	0.0001648
3694	0.0001504
3706	0.0001504
3718	0.0001616
3730	0.0001616
3742	0.0001088
3754	0.0001808
3766	0.0001056
3778	0.0001792
3790	0.0002208
3802	0.0002032
3814	0.0001744
3826	0.0001808
3838	0.0001968
