Infrared Spectrum: DL-Mandelic acid
Formula: C 8 H 8 O 3
CAS: 611-72-3
State: gas
Origin: EPA-IR VAPOR PHASE LIBRARY
1/CM	ABSORBANCE
549.8	0.01682
559.445	0.01924
569.09	0.01619
578.734	0.01359
588.379	0.01672
598.024	0.02925
607.669	0.04084
617.313	0.03037
626.958	0.01658
636.603	0.01373
646.248	0.01482
655.893	0.01381
665.537	0.0122
675.182	0.013
684.827	0.01873
694.472	0.02715
704.116	0.02687
713.761	0.02336
723.406	0.01982
733.051	0.01449
742.695	0.01203
752.34	0.01193
761.985	0.00932
771.63	0.00619
781.275	0.00404
790.919	0.0032
800.564	0.00264
810.209	0.00236
819.854	0.0023
829.498	0.00252
839.143	0.00311
848.788	0.00356
858.433	0.00416
868.078	0.00476
877.722	0.00583
887.367	0.00671
897.012	0.00609
906.657	0.00518
916.301	0.00548
925.946	0.00473
935.591	0.00327
945.236	0.00241
954.88	0.00235
964.525	0.00232
974.17	0.00246
983.815	0.003
993.46	0.00374
1003.1	0.0055
1012.75	0.00767
1022.39	0.01216
1032.04	0.01477
1041.68	0.01801
1051.33	0.02605
1060.97	0.03443
1070.62	0.03871
1080.26	0.04029
1089.91	0.04035
1099.55	0.03903
1109.2	0.03927
1118.84	0.04574
1128.49	0.05607
1138.13	0.05814
1147.78	0.04448
1157.42	0.02925
1167.07	0.02085
1176.71	0.01864
1186.36	0.01831
1196	0.01564
1205.64	0.01152
1215.29	0.01036
1224.93	0.01026
1234.58	0.01184
1244.22	0.0128
1253.87	0.01321
1263.51	0.01479
1273.16	0.01642
1282.8	0.0171
1292.45	0.01762
1302.09	0.01939
1311.74	0.02255
1321.38	0.02575
1331.03	0.0273
1340.67	0.02598
1350.32	0.02226
1359.96	0.01797
1369.61	0.01409
1379.25	0.01091
1388.9	0.00849
1398.54	0.00677
1408.18	0.00531
1417.83	0.00423
1427.47	0.00374
1437.12	0.00455
1446.76	0.0061
1456.41	0.00675
1466.05	0.00478
1475.7	0.00326
1485.34	0.00458
1494.99	0.00709
1504.63	0.00512
1514.28	0.0018
1523.92	0.00139
1533.57	0.00136
1543.21	0.00124
1552.86	0.00114
1562.5	0.00105
1572.15	0.00115
1581.79	0.00158
1591.44	0.00216
1601.08	0.00257
1610.73	0.0019
1620.37	0.00118
1630.01	0.0009133
1639.66	0.0009288
1649.3	0.00107
1658.95	0.00128
1668.59	0.00156
1678.24	0.00186
1687.88	0.00214
1697.53	0.00301
1707.17	0.0048
1716.82	0.00743
1726.46	0.00965
1736.11	0.01253
1745.75	0.01925
1755.4	0.03848
1765.04	0.07285
1774.69	0.0937
1784.33	0.07702
1793.98	0.05289
1803.62	0.03663
1813.27	0.02472
1822.91	0.0153
1832.55	0.00822
1842.2	0.00475
1851.84	0.00317
1861.49	0.00239
1871.13	0.00202
1880.78	0.00167
1890.42	0.00166
1900.07	0.00141
1909.71	0.000941
1919.36	0.0007734
1929	0.0009344
1938.65	0.00136
1948.29	0.00148
1957.94	0.00146
1967.58	0.0009455
1977.23	0.000586
1986.87	0.0004599
1996.52	0.0004786
2006.16	0.0004127
2015.81	0.0003858
2025.45	0.0003747
2035.1	0.0003223
2044.74	0.0002504
2054.38	0.0003301
2064.03	0.0003248
2073.67	0.0002594
2083.32	0.0002549
2092.96	0.0002003
2102.61	0.0002204
2112.25	0.0002466
2121.9	0.0002458
2131.54	0.0002776
2141.19	0.0003218
2150.83	0.0003087
2160.48	0.0002197
2170.12	0.0002481
2179.77	0.000215
2189.41	0.0002449
2199.06	0.0002781
2208.7	0.0003308
2218.35	0.0004331
2227.99	0.0004516
2237.64	0.0004842
2247.28	0.0004719
2256.92	0.0004687
2266.57	0.0004781
2276.21	0.0005648
2285.86	0.0005858
2295.5	0.0008229
2305.15	0.00117
2314.79	0.00159
2324.44	0.00175
2334.08	0.00175
2343.73	0.00161
2353.37	0.00174
2363.02	0.00237
2372.66	0.00188
2382.31	0.0008919
2391.95	0.0003882
2401.6	0.0003948
2411.24	0.0003586
2420.89	0.0003657
2430.53	0.0005027
2440.18	0.0004263
2449.82	0.0005133
2459.47	0.0004394
2469.11	0.0004519
2478.75	0.0003971
2488.4	0.0004139
2498.04	0.0003369
2507.69	0.0003171
2517.33	0.0002228
2526.98	0.0001851
2536.62	0.0002482
2546.27	0.0002831
2555.91	0.0001714
2565.56	0.0002249
2575.2	0.0002159
2584.85	0.0002421
2594.49	0.0002995
2604.14	0.0002552
2613.78	0.0003114
2623.43	0.000248
2633.07	0.0002557
2642.72	0.0001877
2652.36	0.0002565
2662.01	0.0002654
2671.65	0.0002739
2681.29	0.0002469
2690.94	0.000245
2700.58	0.0001443
2710.23	0.0002311
2719.87	0.000206
2729.52	0.000269
2739.16	0.0002154
2748.81	0.0001816
2758.45	0.000228
2768.1	0.000289
2777.74	0.00035
2787.39	0.0004652
2797.03	0.0005834
2806.68	0.0003988
2816.32	0.0006084
2825.97	0.000587
2835.61	0.0008108
2845.26	0.00101
2854.9	0.00136
2864.55	0.00158
2874.19	0.00163
2883.84	0.00165
2893.48	0.00225
2903.12	0.00307
2912.77	0.00395
2922.41	0.0036
2932.06	0.0028
2941.7	0.00205
2951.35	0.00165
2960.99	0.00156
2970.64	0.00111
2980.28	0.0009097
2989.93	0.0009138
2999.57	0.00103
3009.22	0.0018
3018.86	0.0034
3028.51	0.0065
3038.15	0.00978
3047.8	0.00926
3057.44	0.00798
3067.09	0.01175
3076.73	0.01329
3086.38	0.00932
3096.02	0.00648
3105.67	0.0045
3115.31	0.00264
3124.95	0.00132
3134.6	0.0005693
3144.24	0.0004067
3153.89	0.0004179
3163.53	0.0004631
3173.18	0.000443
3182.82	0.0003905
3192.47	0.0002099
3202.11	0.0002383
3211.76	0.0001275
3221.4	0.0001714
3231.05	0.0003181
3240.69	0.0002491
3250.34	0.0003161
3259.98	0.0003259
3269.63	0.0002876
3279.27	0.0002779
3288.92	0.0003437
3298.56	0.0003338
3308.21	0.0002985
3317.85	0.0003948
3327.49	0.0003513
3337.14	0.0004177
3346.78	0.0004165
3356.43	0.0003904
3366.07	0.000407
3375.72	0.0004263
3385.36	0.0003969
3395.01	0.0004372
3404.65	0.0004644
3414.3	0.000551
3423.94	0.0005106
3433.59	0.0004871
3443.23	0.0007319
3452.88	0.0009662
3462.52	0.00153
3472.17	0.00222
3481.81	0.00319
3491.46	0.00411
3501.1	0.00491
3510.75	0.00493
3520.39	0.0048
3530.04	0.00508
3539.68	0.00563
3549.32	0.009
3558.97	0.02241
3568.61	0.04795
3578.26	0.05053
3587.9	0.02468
3597.55	0.01001
3607.19	0.00554
3616.84	0.00411
3626.48	0.00417
3636.13	0.0052
3645.77	0.00555
3655.42	0.00426
3665.06	0.00234
3674.71	0.00165
3684.35	0.00114
3694	0.0008481
3703.64	0.0005801
3713.29	0.0005807
3722.93	0.0005755
3732.58	0.0005427
3742.22	0.0006136
3751.86	0.0002701
3761.51	0.0004029
3771.15	0.0004264
3780.8	0.0005516
3790.44	0.0003862
3800.09	0.0006341
3809.73	0.0005803
3819.38	0.0006261
3829.02	0.0003469
3838.67	0.0006677
3848.31	0.0004605
3857.96	0.000539
3867.6	0.0006122
3877.25	0.0004125
3886.89	0.0004389
3896.54	0.0005088
3906.18	0.0004498
3915.83	0.0003586
3925.47	0.0003672
3935.12	0.0002646
3944.76	0.0001462
3954.41	0.0002958
3964.05	7.483e-05
3973.69	0.0001987
3983.34	0.0002304
3992.98	0.0003335
