Infrared Spectrum: 1-Benzylnaphthalene
Formula: C 17 H 14
CAS: 611-45-0
State: gas
Instrument: HP-GC/MS/IRD
Origin: NIST Mass Spectrometry Data Center
1/CM	ABSORBANCE
550	6.27e-05
562	0.0001045
574	0.0005379
586	0.0001045
598	0.000473
610	0.0001408
622	0.0001463
634	8.25e-05
646	0.0004246
658	0.0003388
670	0.000704
682	0.0015763
694	0.0038632
706	0.0054758
718	0.0034122
730	0.0031658
742	0.0028721
754	0.0026312
766	0.0076241
778	0.0105886
790	0.0078155
802	0.0020735
814	0.0007205
826	0.0002816
838	0.0002189
850	0.0003344
862	0.0003146
874	0.0001815
886	0.0002068
898	0.0002002
910	0.0001804
922	0.000154
934	0.0002431
946	0.000253
958	0.0001991
970	0.0001309
982	7.7e-05
994	0.0001474
1006	0.0005401
1018	0.0011132
1030	0.0014245
1042	0.0002662
1054	0.0001705
1066	0.0005324
1078	0.0007579
1090	0.0002651
1102	0.000132
1114	3.85e-05
1126	3.63e-05
1138	0.00011
1150	0.0001782
1162	0.0003487
1174	0.0002574
1186	0.0003311
1198	0.0001903
1210	0.0002387
1222	0.0002035
1234	0.0003025
1246	0.0002662
1258	0.0004829
1270	0.0002805
1282	0.0001738
1294	0.0001705
1306	0.0001639
1318	0.0002288
1330	0.0002079
1342	0.0002475
1354	0.000231
1366	0.000341
1378	0.0005181
1390	0.0016313
1402	0.0016368
1414	0.0005478
1426	0.0006853
1438	0.001111
1450	0.0017138
1462	0.0011253
1474	0.0005016
1486	0.0014663
1498	0.0035233
1510	0.0016929
1522	0.0006875
1534	0.0003476
1546	0.0002651
1558	0.00033
1570	0.0007535
1582	0.0012991
1594	0.0020966
1606	0.0018733
1618	0.0005841
1630	0.0003729
1642	0.0002277
1654	0.0002145
1666	0.0003432
1678	0.000407
1690	0.0003729
1702	0.0002145
1714	0.0002772
1726	0.0003234
1738	0.0002816
1750	0.0002684
1762	0.0002695
1774	0.0003102
1786	0.0004785
1798	0.0007128
1810	0.0004323
1822	0.0003421
1834	0.0002739
1846	0.0003157
1858	0.0004268
1870	0.0003201
1882	0.0002442
1894	0.000286
1906	0.0004719
1918	0.0006204
1930	0.0006952
1942	0.0006523
1954	0.0003751
1966	0.0001166
1978	4.29e-05
1990	4.07e-05
2002	3.19e-05
2014	4.73e-05
2026	5.5e-05
2038	2.53e-05
2050	4.07e-05
2062	3.63e-05
2074	5.17e-05
2086	3.74e-05
2098	3.19e-05
2110	3.19e-05
2122	5.39e-05
2134	3.3e-05
2146	1.98e-05
2158	4.4e-05
2170	3.96e-05
2182	3.19e-05
2194	2.09e-05
2206	3.96e-05
2218	4.51e-05
2230	5.28e-05
2242	4.84e-05
2254	5.06e-05
2266	4.4e-05
2278	6.6e-05
2290	5.17e-05
2302	5.39e-05
2314	0.0001045
2326	7.59e-05
2338	8.91e-05
2350	9.24e-05
2362	8.8e-05
2374	8.03e-05
2386	6.05e-05
2398	6.93e-05
2410	8.8e-05
2422	9.46e-05
2434	8.03e-05
2446	5.5e-05
2458	4.73e-05
2470	4.62e-05
2482	4.18e-05
2494	7.04e-05
2506	6.38e-05
2518	5.72e-05
2530	4.84e-05
2542	3.19e-05
2554	5.17e-05
2566	5.94e-05
2578	6.05e-05
2590	7.04e-05
2602	8.03e-05
2614	6.49e-05
2626	9.68e-05
2638	7.81e-05
2650	0.0001001
2662	7.37e-05
2674	5.5e-05
2686	5.83e-05
2698	6.49e-05
2710	9.46e-05
2722	7.7e-05
2734	0.0001078
2746	0.0001012
2758	0.0001056
2770	0.0001166
2782	0.0001254
2794	0.0001397
2806	0.0001529
2818	0.0001837
2830	0.0002354
2842	0.0004444
2854	0.0006952
2866	0.0007348
2878	0.0006413
2890	0.0007469
2902	0.0009647
2914	0.0016687
2926	0.0023969
2938	0.0015708
2950	0.0010318
2962	0.0008404
2974	0.000693
2986	0.000693
2998	0.0011572
3010	0.0021769
3022	0.0036333
3034	0.0058663
3046	0.0066792
3058	0.0085602
3070	0.0101101
3082	0.0060742
3094	0.0038544
3106	0.0018986
3118	0.0007513
3130	0.0003784
3142	0.00022
3154	0.0002244
3166	0.0002706
3178	0.0001826
3190	0.0001595
3202	0.0001551
3214	0.0001463
3226	0.0001364
3238	9.9e-05
3250	9.02e-05
3262	7.7e-05
3274	7.81e-05
3286	8.03e-05
3298	5.72e-05
3310	6.16e-05
3322	5.06e-05
3334	7.15e-05
3346	4.07e-05
3358	6.05e-05
3370	4.51e-05
3382	4.07e-05
3394	8.47e-05
3406	5.39e-05
3418	1.98e-05
3430	4.4e-05
3442	6.82e-05
3454	3.85e-05
3466	2.86e-05
3478	4.29e-05
3490	4.29e-05
3502	4.4e-05
3514	5.39e-05
3526	7.59e-05
3538	5.39e-05
3550	3.08e-05
3562	5.39e-05
3574	4.29e-05
3586	7.15e-05
3598	4.73e-05
3610	5.5e-05
3622	7.81e-05
3634	0.0001012
3646	6.93e-05
3658	7.04e-05
3670	6.27e-05
3682	6.6e-05
3694	8.8e-05
3706	0.0001144
3718	7.04e-05
3730	7.59e-05
3742	7.37e-05
3754	4.84e-05
3766	7.04e-05
3778	8.36e-05
3790	0.0001012
3802	0.0001309
3814	0.0001133
3826	0.0001221
3838	0.0001661
