Infrared Spectrum: 4,4'-Diaminobenzophenone
Formula: C 13 H 12 N 2 O
CAS: 611-98-3
State: gas
Origin: EPA-IR VAPOR PHASE LIBRARY
1/CM	ABSORBANCE
549.8	0.0011545
559.445	0.001883
569.09	0.002943
578.734	0.005313
588.379	0.004623
598.024	0.001723
607.669	0.001693
617.313	0.001933
626.958	0.002183
636.603	0.002203
646.248	0.003033
655.893	0.003173
665.537	0.003663
675.182	0.004683
684.827	0.004153
694.472	0.003523
704.116	0.002833
713.761	0.003033
723.406	0.002243
733.051	0.002013
742.695	0.001923
752.34	0.002813
761.985	0.003693
771.63	0.003023
781.275	0.001883
790.919	0.001583
800.564	0.001843
810.209	0.001743
819.854	0.002723
829.498	0.003843
839.143	0.003993
848.788	0.003033
858.433	0.001673
868.078	0.0014034
877.722	0.0009788
887.367	0.0008983
897.012	0.0011068
906.657	0.0011947
916.301	0.003263
925.946	0.006103
935.591	0.003153
945.236	0.001893
954.88	0.002263
964.525	0.0014019
974.17	0.0008453
983.815	0.0009281
993.46	0.0008544
1003.1	0.0012258
1012.75	0.000804
1022.39	0.0006246
1032.04	0.0003989
1041.68	0.000105
1051.33	0.0007202
1060.97	0.0008764
1070.62	0.001553
1080.26	0.0011727
1089.91	0.00044475
1099.55	0.001903
1109.2	0.001613
1118.84	0.002193
1128.49	0.0006641
1138.13	0.002423
1147.78	0.002573
1157.42	0.002083
1167.07	0.009593
1176.71	0.011073
1186.36	0.002903
1196	0.0004824
1205.64	0.0013164
1215.29	0
1224.93	0.0008273
1234.58	0.0010575
1244.22	0.002753
1253.87	0.005333
1263.51	0.014103
1273.16	0.026533
1282.8	0.015103
1292.45	0.007403
1302.09	0.006333
1311.74	0.006013
1321.38	0.003903
1331.03	0.001483
1340.67	0.0013536
1350.32	0.0008486
1359.96	0.0011709
1369.61	0.0007635
1379.25	0.0008017
1388.9	0.0007764
1398.54	0.0010029
1408.18	0.0009404
1417.83	0.001663
1427.47	0.002343
1437.12	0.002103
1446.76	0.0010385
1456.41	0.001573
1466.05	0.0009518
1475.7	0.00131
1485.34	0.0013082
1494.99	0.001893
1504.63	0.004063
1514.28	0.004223
1523.92	0.002463
1533.57	0.001833
1543.21	0.002043
1552.86	0.002073
1562.5	0.002293
1572.15	0.002713
1581.79	0.003713
1591.44	0.007293
1601.08	0.016823
1610.73	0.016693
1620.37	0.020383
1630.01	0.016743
1639.66	0.006513
1649.3	0.004473
1658.95	0.007633
1668.59	0.009793
1678.24	0.005213
1687.88	0.002343
1697.53	0.001773
1707.17	0.0013954
1716.82	0.001703
1726.46	0.0008563
1736.11	0.0009378
1745.75	0.0008703
1755.4	0.0007856
1765.04	0.0009182
1774.69	0.0008625
1784.33	0.0008719
1793.98	0.0006461
1803.62	0.0005864
1813.27	0.0005231
1822.91	0.0005653
1832.55	0.000611
1842.2	0.0006608
1851.84	0.00046112
1861.49	0.000686
1871.13	0.0006746
1880.78	0.0006934
1890.42	0.0008679
1900.07	0.0007025
1909.71	0.0009206
1919.36	0.000592
1929	0.0006875
1938.65	0.0007507
1948.29	0.0006991
1957.94	0.00059
1967.58	0.00051035
1977.23	0.0004175
1986.87	0.0006671
1996.52	0.00047019
2006.16	0.0005008
2015.81	0.0006533
2025.45	0.0007525
2035.1	0.00046807
2044.74	0.000565
2054.38	0.0005372
2064.03	0.0005837
2073.67	0.00051558
2083.32	0.00050493
2092.96	0.0007042
2102.61	0.0006443
2112.25	0.00052491
2121.9	0.00053349
2131.54	0.0004306
2141.19	0.000450916
2150.83	0.00048092
2160.48	0.00048638
2170.12	0.0003671
2179.77	0.0003527
2189.41	0.00046346
2199.06	0.0004062
2208.7	0.0005576
2218.35	0.0005566
2227.99	0.00049618
2237.64	0.00047471
2247.28	0.0004281
2256.92	0.000334
2266.57	0.00049091
2276.21	0.0006571
2285.86	0.0006252
2295.5	0.0005913
2305.15	0.0004792
2314.79	0.0005455
2324.44	0.00052329
2334.08	0.000606
2343.73	0.00043737
2353.37	0.0005538
2363.02	0.00052485
2372.66	0.0006602
2382.31	0.0005772
2391.95	0.00047098
2401.6	0.00050738
2411.24	0.00053078
2420.89	0.0005707
2430.53	0.00054243
2440.18	0.0005562
2449.82	0.0004135
2459.47	0.0006031
2469.11	0.000322
2478.75	0.00046512
2488.4	0.00029
2498.04	0.00027
2507.69	0.000448179
2517.33	0.00051448
2526.98	0.0005949
2536.62	0.00049346
2546.27	0.000549
2555.91	0.000727
2565.56	0.0005759
2575.2	0.0005828
2584.85	0.0005547
2594.49	0.0006753
2604.14	0.0005576
2613.78	0.0005816
2623.43	0.0006779
2633.07	0.0005723
2642.72	0.0005902
2652.36	0.00047256
2662.01	0.0003697
2671.65	0.00051962
2681.29	0.0006029
2690.94	0.000309
2700.58	0.00047855
2710.23	0.0005599
2719.87	0.000215
2729.52	0.000328
2739.16	0.000271
2748.81	0.00051832
2758.45	0.0003677
2768.1	0.0006032
2777.74	0.00045519
2787.39	0.00050204
2797.03	0.00053796
2806.68	0.00052899
2816.32	0.000305
2825.97	0.000446634
2835.61	0.00052544
2845.26	0.0006615
2854.9	0.00046495
2864.55	0.00049887
2874.19	0.00050681
2883.84	0.0007516
2893.48	0.000451835
2903.12	0.0006503
2912.77	0.0006543
2922.41	0.000442386
2932.06	0.0006536
2941.7	0.0003965
2951.35	0.0005943
2960.99	0.0004282
2970.64	0.0003731
2980.28	0.00043397
2989.93	0.0006668
2999.57	0.0010825
3009.22	0.0013759
3018.86	0.001463
3028.51	0.002223
3038.15	0.003283
3047.8	0.001913
3057.44	0.001513
3067.09	0.001603
3076.73	0.0010996
3086.38	0.001062
3096.02	0.000742
3105.67	0.0006407
3115.31	0.0007122
3124.95	0.0006453
3134.6	0.0006079
3144.24	0.0007038
3153.89	0.00049714
3163.53	0.00046642
3173.18	0.000337
3182.82	0.000450538
3192.47	0.0006796
3202.11	0.0006819
3211.76	0.0006149
3221.4	0.0007724
3231.05	0.00052482
3240.69	0.0003627
3250.34	0.0005924
3259.98	0.0004166
3269.63	0.00051922
3279.27	0.0006103
3288.92	0.0004163
3298.56	0.0003519
3308.21	0.00047547
3317.85	0.0005813
3327.49	0.00046623
3337.14	0.00048414
3346.78	0.00050557
3356.43	0.0006194
3366.07	0.00049249
3375.72	0.00045531
3385.36	0.0006299
3395.01	0.0009017
3404.65	0.001523
3414.3	0.002513
3423.94	0.002373
3433.59	0.001673
3443.23	0.0005913
3452.88	0.0007402
3462.52	0.0006103
3472.17	0.0006333
3481.81	0.0009253
3491.46	0.0011657
3501.1	0.001573
3510.75	0.0010943
3520.39	0.001245
3530.04	0.0009792
3539.68	0.0006372
3549.32	0.00053278
3558.97	0.000273
3568.61	0.0005481
3578.26	0.0006608
3587.9	0.0007282
3597.55	0.0006127
3607.19	0.0007201
3616.84	0.0007509
3626.48	0.00046719
3636.13	0.000289
3645.77	0.0004043
3655.42	0.0006264
3665.06	0.000451682
3674.71	0.0007672
3684.35	0.0005987
3694	0.000567
3703.64	0.0004296
3713.29	0.0008503
3722.93	0.0007429
3732.58	0.0008871
3742.22	0.0009642
3751.86	0.0006247
3761.51	0.00053202
3771.15	0.0003915
3780.8	0.0005879
3790.44	0.00046582
3800.09	0.0008536
3809.73	0.0007848
3819.38	0.0006567
3829.02	0.0005779
3838.67	0.0005733
3848.31	0.0006303
3857.96	0.00053766
3867.6	0.0008756
3877.25	0.0007376
3886.89	0.0008762
3896.54	0.0010001
3906.18	0.0007
3915.83	0.0008585
3925.47	0.00047789
3935.12	0.0006499
3944.76	0.0007691
3954.41	0.0006796
3964.05	0.000315
3973.69	0.000294
3983.34	0.000335
3992.98	0.0006009
