Infrared Spectrum: 4-Chloroquinoline
Formula: C 9 H 6 Cl N
CAS: 611-35-8
State: gas
Instrument: HP-GC/MS/IRD
Origin: NIST Mass Spectrometry Data Center
1/CM	ABSORBANCE
550	0.000729
562	0.0004158
574	0.0002052
586	0.000108
598	4.32e-05
610	0.0001674
622	0.000513
634	0.0008424
646	0.0013554
658	0.0131868
670	0.0239922
682	0.0051678
694	0.0005886
706	8.1e-05
718	0.0004374
730	0.0018522
742	0.0128628
754	0.040581
766	0.028971
778	0.0071388
790	0.0029322
802	0.007479
814	0.02133
826	0.03429
838	0.025974
850	0.0068796
862	0.0035856
874	0.0020844
886	0.0006102
898	0.0002214
910	0.000108
922	0.0003996
934	0.0005616
946	0.0010152
958	0.0042012
970	0.0133758
982	0.0116694
994	0.0023004
1006	0.0016416
1018	0.0022842
1030	0.001674
1042	0.001701
1054	0.0050598
1066	0.0041634
1078	0.0011934
1090	0.0008208
1102	0.0003672
1114	0.000432
1126	0.0009018
1138	0.00351
1150	0.0057402
1162	0.0013068
1174	0.001215
1186	0.0028944
1198	0.0060426
1210	0.0054864
1222	0.0025218
1234	0.0011664
1246	0.00162
1258	0.0016524
1270	0.0015768
1282	0.0071226
1294	0.0106704
1306	0.002538
1318	0.0009018
1330	0.002538
1342	0.0046872
1354	0.0069336
1366	0.0116424
1378	0.023463
1390	0.0153792
1402	0.0066798
1414	0.0100656
1426	0.006615
1438	0.0029268
1450	0.0027918
1462	0.0030726
1474	0.0064584
1486	0.0272106
1498	0.036828
1510	0.0136998
1522	0.0043686
1534	0.0052974
1546	0.018576
1558	0.0302184
1570	0.02457
1582	0.0237708
1594	0.012906
1606	0.0057402
1618	0.0059454
1630	0.0037098
1642	0.0020898
1654	0.0025164
1666	0.0024786
1678	0.0008856
1690	0.0007398
1702	0.0014364
1714	0.0017658
1726	0.0011664
1738	0.000864
1750	0.0007614
1762	0.0006264
1774	0.0004482
1786	0.0006372
1798	0.0006588
1810	0.0011934
1822	0.0016092
1834	0.0012798
1846	0.0011394
1858	0.0004212
1870	0.0002484
1882	0.0005454
1894	0.0017766
1906	0.0030834
1918	0.0019818
1930	0.0013986
1942	0.0013122
1954	0.0014688
1966	0.0009504
1978	0.0001404
1990	1.08e-05
2002	4.86e-05
2014	0.0001242
2026	0.0002052
2038	0.0001836
2050	8.1e-05
2062	7.02e-05
2074	9.72e-05
2086	7.02e-05
2098	0.0001134
2110	0.0002376
2122	0.0002268
2134	2.16e-05
2146	4.86e-05
2158	3.78e-05
2170	4.32e-05
2182	8.1e-05
2194	0.000108
2206	6.48e-05
2218	0
2230	4.86e-05
2242	0.0001296
2254	0.0001836
2266	0.0003726
2278	0.000432
2290	0.0002484
2302	0.0001728
2314	0.0001404
2326	0.000162
2338	0.0002916
2350	0.000351
2362	0.0002214
2374	0.0001296
2386	0.0001134
2398	0.0001404
2410	0.0001782
2422	0.0002862
2434	0.000297
2446	0.0001512
2458	9.18e-05
2470	9.18e-05
2482	0.0001512
2494	0.0002268
2506	0.0002484
2518	0.0002106
2530	0.0001998
2542	0.0003024
2554	0.000297
2566	0.0002322
2578	0.0002268
2590	0.000216
2602	0.0002322
2614	0.00027
2626	0.0002268
2638	0.0002214
2650	0.0001404
2662	7.02e-05
2674	6.48e-05
2686	1.08e-05
2698	9.18e-05
2710	2.16e-05
2722	5.94e-05
2734	8.64e-05
2746	0.000189
2758	0.000216
2770	0.0001458
2782	0.0001242
2794	0.0001458
2806	9.18e-05
2818	9.72e-05
2830	0.0001242
2842	0.0001998
2854	0.0003186
2866	0.0004536
2878	0.0003996
2890	0.000243
2902	0.0003456
2914	0.0004212
2926	0.0006048
2938	0.0008532
2950	0.0010692
2962	0.0010962
2974	0.0012744
2986	0.0018306
2998	0.002592
3010	0.004104
3022	0.0084942
3034	0.0106596
3046	0.0079488
3058	0.0077328
3070	0.0150714
3082	0.0183492
3094	0.0090018
3106	0.0027864
3118	0.0011502
3130	0.0007452
3142	0.0006912
3154	0.000594
3166	0.0004644
3178	0.0003942
3190	0.0002322
3202	0.00027
3214	0.0001242
3226	0.0001782
3238	0.0001134
3250	6.48e-05
3262	0.0001134
3274	0.000162
3286	4.86e-05
3298	5.4e-05
3310	4.32e-05
3322	7.02e-05
3334	7.56e-05
3346	5.94e-05
3358	8.64e-05
3370	0.0001188
3382	5.4e-05
3394	6.48e-05
3406	9.18e-05
3418	0.0001242
3430	0.000108
3442	9.18e-05
3454	9.72e-05
3466	0.000135
3478	0.0001674
3490	0.0001782
3502	0.0001728
3514	0.0001296
3526	0.0001728
3538	0.0001188
3550	0.0002376
3562	0.0002376
3574	0.0001998
3586	0.0002106
3598	0.0001998
3610	0.000243
3622	0.000243
3634	0.0001998
3646	0.00027
3658	0.0001998
3670	0.0002484
3682	0.0001134
3694	0.000189
3706	0.0001512
3718	0.000162
3730	0.0001998
3742	0.000297
3754	0.0002484
3766	0.0002322
3778	0.0002268
3790	0.000162
3802	0.0003078
3814	0.0002592
3826	0.0002484
3838	0.000297
