Infrared Spectrum: 2-Methyl-1-phenyl-1-propanol
Formula: C 10 H 14 O
CAS: 611-69-8
State: gas
Instrument: HP-GC/MS/IRD
Origin: NIST Mass Spectrometry Data Center
1/CM	ABSORBANCE
550	0.0014345
562	0.0003534
574	3.04e-05
586	2.47e-05
598	0.0002356
610	0.0001596
622	0.0004161
634	0.0010735
646	0.0010659
658	0.0013148
670	0.0012274
682	0.002812
694	0.0088711
706	0.0094278
718	0.0041534
730	0.0042997
742	0.0053998
754	0.005187
766	0.0031844
778	0.0011096
790	0.0005624
802	0.00057
814	0.0003363
826	0.0004826
838	0.0006384
850	0.0005681
862	0.0002907
874	0.0001843
886	0.0002204
898	0.0006631
910	0.0012939
922	0.0017651
934	0.0020957
946	0.0016739
958	0.0015808
970	0.0018202
982	0.0029317
994	0.0058368
1006	0.0092834
1018	0.0120783
1030	0.0109269
1042	0.0059831
1054	0.0025916
1066	0.0020957
1078	0.0019722
1090	0.0016587
1102	0.0016549
1114	0.0016929
1126	0.0016929
1138	0.0015238
1150	0.0018753
1162	0.0031635
1174	0.0037601
1186	0.0030134
1198	0.002641
1210	0.0025574
1222	0.0029165
1234	0.0032699
1246	0.0029678
1258	0.002717
1270	0.0031711
1282	0.003401
1294	0.003382
1306	0.0031749
1318	0.0025403
1330	0.002128
1342	0.0020463
1354	0.0027037
1366	0.0040052
1378	0.004465
1390	0.004294
1402	0.0025745
1414	0.0013395
1426	0.0012065
1438	0.0020235
1450	0.0038608
1462	0.004256
1474	0.003724
1486	0.0032661
1498	0.0023655
1510	0.0008113
1522	0.0004826
1534	0.0004351
1546	0.0003344
1558	0.0002147
1570	0.0002622
1582	0.0004028
1594	0.000836
1606	0.0008569
1618	0.0002945
1630	0.000114
1642	0.000152
1654	0.0001919
1666	0.0001881
1678	0.000133
1690	8.17e-05
1702	0.0001083
1714	6.84e-05
1726	7.79e-05
1738	0.0001444
1750	0.0001767
1762	0.0001254
1774	0.0001273
1786	0.0002185
1798	0.0005092
1810	0.0003458
1822	0.0001121
1834	3.61e-05
1846	5.13e-05
1858	0.0001444
1870	0.0003363
1882	0.0003971
1894	0.000285
1906	8.55e-05
1918	0.000114
1930	0.0003211
1942	0.00057
1954	0.000532
1966	0.0002698
1978	5.89e-05
1990	4.75e-05
2002	2.28e-05
2014	5.89e-05
2026	6.08e-05
2038	3.23e-05
2050	3.04e-05
2062	9.5e-06
2074	1.14e-05
2086	0
2098	1.52e-05
2110	1.71e-05
2122	3.04e-05
2134	3.61e-05
2146	3.61e-05
2158	3.04e-05
2170	3.04e-05
2182	3.61e-05
2194	4.75e-05
2206	3.42e-05
2218	4.37e-05
2230	5.89e-05
2242	6.65e-05
2254	3.61e-05
2266	2.47e-05
2278	4.94e-05
2290	4.94e-05
2302	9.69e-05
2314	0.0001387
2326	0.0001748
2338	0.0001653
2350	0.0001368
2362	0.000152
2374	0.0001235
2386	7.79e-05
2398	0.000114
2410	0.0001387
2422	0.0001501
2434	0.0001235
2446	0.0001121
2458	0.000114
2470	0.0001273
2482	0.0001235
2494	0.0001273
2506	8.36e-05
2518	8.17e-05
2530	0.0001007
2542	0.0001197
2554	0.000152
2566	0.0002299
2578	0.000228
2590	0.000285
2602	0.0002603
2614	0.0002432
2626	0.0002584
2638	0.0002451
2650	0.0002185
2662	0.0002565
2674	0.0002546
2686	0.000266
2698	0.0002489
2710	0.000304
2722	0.00038
2734	0.0004541
2746	0.0004769
2758	0.0004693
2770	0.0005586
2782	0.0005624
2794	0.0006536
2806	0.0008398
2818	0.0010526
2830	0.0013604
2842	0.001957
2854	0.0034599
2866	0.0063631
2878	0.0097546
2890	0.0094943
2902	0.009025
2914	0.008645
2926	0.0083315
2938	0.0094696
2950	0.0105811
2962	0.0163514
2974	0.0183274
2986	0.0100947
2998	0.0039539
3010	0.0027303
3022	0.0041781
3034	0.006289
3046	0.0049875
3058	0.0046303
3070	0.0070661
3082	0.0057608
3094	0.0036062
3106	0.0020976
3118	0.0010887
3130	0.0006327
3142	0.0004541
3154	0.000437
3166	0.0004237
3178	0.0003515
3190	0.0002679
3202	0.0002736
3214	0.0001957
3226	0.0001254
3238	8.93e-05
3250	9.31e-05
3262	7.98e-05
3274	8.17e-05
3286	7.98e-05
3298	6.46e-05
3310	4.94e-05
3322	6.84e-05
3334	6.65e-05
3346	9.88e-05
3358	0.0001178
3370	0.000152
3382	0.0001786
3394	0.0001539
3406	0.0001767
3418	0.0001311
3430	0.000152
3442	0.00019
3454	0.0001501
3466	0.0001102
3478	0.0001634
3490	0.0001406
3502	0.0001767
3514	0.0001178
3526	0.000133
3538	0.0001273
3550	0.0001292
3562	0.0001881
3574	0.0001577
3586	0.000228
3598	0.0002356
3610	0.0003382
3622	0.000513
3634	0.0014364
3646	0.0033212
3658	0.0030894
3670	0.0014003
3682	0.0004807
3694	0.0003686
3706	0.0002869
3718	0.0002337
3730	0.0002584
3742	0.0002014
3754	0.0002223
3766	0.000228
3778	0.0002546
3790	0.0001995
3802	0.0002318
3814	0.0002565
3826	0.0003135
3838	0.0002679
