Infrared Spectrum: 1,2'-Dinaphthylmethane
Formula: C 21 H 16
CAS: 611-48-3
State: gas
Instrument: HP-GC/MS/IRD
Origin: NIST Mass Spectrometry Data Center
1/CM	ABSORBANCE
550	0.000172
562	0.000168
574	2.56e-05
586	0.0003368
598	0.0003824
610	0.0003304
622	0.00054
634	0.0003192
646	0.0005464
658	0.000332
670	0.000224
682	0.0002032
694	0.0002264
706	0.000408
718	0.0008072
730	0.0018368
742	0.0024496
754	0.0021424
766	0.004124
778	0.0078224
790	0.0048152
802	0.003332
814	0.002544
826	0.0010736
838	0.0011448
850	0.0013952
862	0.0006736
874	0.0004824
886	0.0006256
898	0.0005192
910	0.0004152
922	0.0003664
934	0.000472
946	0.0007528
958	0.0008488
970	0.0003776
982	0.0002376
994	0.0002824
1006	0.0005848
1018	0.0009784
1030	0.0003544
1042	0.0001936
1054	0.000152
1066	0.0002384
1078	0.0004072
1090	0.0001672
1102	0.0001272
1114	0.0002296
1126	0.0003536
1138	0.00046
1150	0.0005216
1162	0.0005176
1174	0.0003224
1186	0.00028
1198	0.0003264
1210	0.0004392
1222	0.0004264
1234	0.0005928
1246	0.000596
1258	0.0006864
1270	0.0006736
1282	0.0003808
1294	0.0003368
1306	0.0002424
1318	0.0001912
1330	0.0002448
1342	0.0003352
1354	0.0005056
1366	0.000672
1378	0.0005912
1390	0.0011152
1402	0.0009912
1414	0.0004184
1426	0.00048
1438	0.0007016
1450	0.0007216
1462	0.0004488
1474	0.0003816
1486	0.0004352
1498	0.0011504
1510	0.0021184
1522	0.00054
1534	0.0003032
1546	0.0002592
1558	0.0002968
1570	0.0005208
1582	0.000856
1594	0.0012648
1606	0.0009904
1618	0.000572
1630	0.001076
1642	0.0006248
1654	0.0003392
1666	0.0003776
1678	0.0004472
1690	0.000464
1702	0.0003248
1714	0.0003192
1726	0.0003616
1738	0.0003304
1750	0.0003768
1762	0.0003592
1774	0.000316
1786	0.0003448
1798	0.0003976
1810	0.0003688
1822	0.0003304
1834	0.0002768
1846	0.0002496
1858	0.0002616
1870	0.0002
1882	0.0002024
1894	0.0003232
1906	0.0004872
1918	0.0005064
1930	0.0004936
1942	0.0004288
1954	0.0001424
1966	7.36e-05
1978	4.8e-05
1990	6.08e-05
2002	5.6e-05
2014	5.76e-05
2026	5.28e-05
2038	5.52e-05
2050	6.96e-05
2062	4.24e-05
2074	4e-05
2086	4.64e-05
2098	3.76e-05
2110	4.72e-05
2122	5.12e-05
2134	3.6e-05
2146	5.6e-05
2158	4.4e-05
2170	3.04e-05
2182	4.08e-05
2194	3.52e-05
2206	2.16e-05
2218	1.6e-05
2230	3.52e-05
2242	3.12e-05
2254	5.76e-05
2266	3.76e-05
2278	7.04e-05
2290	9.2e-05
2302	6.4e-05
2314	6.48e-05
2326	8.08e-05
2338	5.04e-05
2350	5.2e-05
2362	3.68e-05
2374	3.2e-05
2386	6.56e-05
2398	4.88e-05
2410	6.64e-05
2422	6.48e-05
2434	4.8e-05
2446	4.48e-05
2458	7.44e-05
2470	3.76e-05
2482	7.04e-05
2494	4.72e-05
2506	6e-05
2518	6.56e-05
2530	5.44e-05
2542	4.48e-05
2554	6.16e-05
2566	3.6e-05
2578	6.08e-05
2590	6.4e-05
2602	7.36e-05
2614	8.64e-05
2626	6.24e-05
2638	6.56e-05
2650	6.88e-05
2662	6.96e-05
2674	6.08e-05
2686	5.6e-05
2698	6.96e-05
2710	8.16e-05
2722	8.72e-05
2734	9.12e-05
2746	9.28e-05
2758	8e-05
2770	8.4e-05
2782	7.68e-05
2794	0.0001176
2806	0.0001216
2818	0.0001288
2830	0.0002
2842	0.0003016
2854	0.0004296
2866	0.0004112
2878	0.0003824
2890	0.0004408
2902	0.000584
2914	0.0010584
2926	0.0012592
2938	0.0009456
2950	0.000752
2962	0.000688
2974	0.0006168
2986	0.000676
2998	0.000912
3010	0.0015448
3022	0.002092
3034	0.0023832
3046	0.0045136
3058	0.0073608
3070	0.0061264
3082	0.0032992
3094	0.001908
3106	0.0008088
3118	0.0003488
3130	0.0002128
3142	0.0001592
3154	0.0001472
3166	0.0001328
3178	0.0001504
3190	0.0001344
3202	0.0001
3214	0.0001072
3226	0.0001104
3238	9.04e-05
3250	5.28e-05
3262	7.2e-05
3274	6.08e-05
3286	5.92e-05
3298	5.84e-05
3310	4.64e-05
3322	2.56e-05
3334	3.44e-05
3346	3.68e-05
3358	7.44e-05
3370	2.48e-05
3382	0
3394	4.32e-05
3406	4.48e-05
3418	1.52e-05
3430	5.36e-05
3442	2e-05
3454	1.36e-05
3466	2.88e-05
3478	7.6e-05
3490	3.12e-05
3502	4.08e-05
3514	2e-05
3526	5.28e-05
3538	1.52e-05
3550	7.92e-05
3562	6.48e-05
3574	4.8e-05
3586	5.28e-05
3598	7.44e-05
3610	3.04e-05
3622	7.6e-05
3634	6.8e-05
3646	6.08e-05
3658	7.28e-05
3670	7.6e-05
3682	4e-05
3694	3.52e-05
3706	3.76e-05
3718	4.56e-05
3730	2e-05
3742	5.12e-05
3754	4e-05
3766	5.84e-05
3778	6.16e-05
3790	7.84e-05
3802	7.68e-05
3814	7.36e-05
3826	9.76e-05
3838	9.76e-05
