Infrared Spectrum: 2-Nitrosotoluene
Formula: C 7 H 7 N O
CAS: 611-23-4
State: gas
Instrument: HP-GC/MS/IRD
Origin: NIST Mass Spectrometry Data Center
1/CM	ABSORBANCE
550	0.000187
562	5.28e-05
574	7.7e-05
586	0.0002464
598	0.0002354
610	9.9e-05
622	7.04e-05
634	0.0004796
646	0.0006996
658	0.000539
670	0.0003586
682	0.0004224
694	0.0006512
706	0.0013574
718	0.0020658
730	0.003762
742	0.007579
754	0.010087
766	0.0086108
778	0.0050952
790	0.0027588
802	0.001628
814	0.0033
826	0.0040414
838	0.002211
850	0.0019602
862	0.0018722
874	0.0010032
886	0.0005522
898	0.000308
910	0.00022
922	0.0002926
934	0.0003652
946	0.0005236
958	0.0006864
970	0.0006116
982	0.0005302
994	0.0004928
1006	0.0004796
1018	0.0005038
1030	0.0008294
1042	0.0011616
1054	0.0014168
1066	0.003091
1078	0.0070312
1090	0.0078804
1102	0.0041206
1114	0.002167
1126	0.0033352
1138	0.0083358
1150	0.0111936
1162	0.0072512
1174	0.0023562
1186	0.0017094
1198	0.0017644
1210	0.000935
1222	0.0003652
1234	0.000319
1246	0.0004356
1258	0.0009372
1270	0.0025564
1282	0.0033066
1294	0.0033176
1306	0.0029172
1318	0.0013926
1330	0.0005214
1342	0.0004576
1354	0.0005544
1366	0.0008162
1378	0.0014366
1390	0.0018084
1402	0.001859
1414	0.0033528
1426	0.005962
1438	0.0061908
1450	0.0043098
1462	0.004125
1474	0.0043538
1486	0.0047102
1498	0.011099
1510	0.0213488
1522	0.018205
1534	0.0053394
1546	0.0018414
1558	0.0013354
1570	0.0011792
1582	0.0013112
1594	0.0017952
1606	0.0017666
1618	0.001166
1630	0.0007832
1642	0.0005456
1654	0.0003762
1666	0.0002596
1678	0.0002596
1690	0.0003124
1702	0.0003476
1714	0.0003652
1726	0.0002882
1738	0.000264
1750	0.0001672
1762	0.0001496
1774	0.0001474
1786	0.0002002
1798	0.0002992
1810	0.0003982
1822	0.0004026
1834	0.0003608
1846	0.0003036
1858	0.0002266
1870	0.0001804
1882	0.000198
1894	0.000286
1906	0.0003652
1918	0.0004774
1930	0.0005434
1942	0.0004774
1954	0.0003828
1966	0.0003586
1978	0.0002024
1990	9.68e-05
2002	7.92e-05
2014	7.26e-05
2026	7.92e-05
2038	6.6e-05
2050	4.18e-05
2062	5.28e-05
2074	5.06e-05
2086	2.42e-05
2098	2.2e-05
2110	1.76e-05
2122	4.62e-05
2134	4.18e-05
2146	5.72e-05
2158	5.28e-05
2170	7.04e-05
2182	5.5e-05
2194	7.7e-05
2206	7.48e-05
2218	0.00011
2230	0.0001342
2242	0.000132
2254	0.0001034
2266	7.04e-05
2278	8.14e-05
2290	7.48e-05
2302	0.0001496
2314	0.0001606
2326	0.000121
2338	0.0001298
2350	0.0001364
2362	0.0001056
2374	0.0001232
2386	9.24e-05
2398	0.0001078
2410	8.58e-05
2422	0.000121
2434	0.0001012
2446	9.24e-05
2458	7.92e-05
2470	8.14e-05
2482	6.6e-05
2494	2.42e-05
2506	5.94e-05
2518	6.82e-05
2530	7.04e-05
2542	8.8e-05
2554	7.7e-05
2566	0.0001364
2578	0.0001474
2590	0.0001364
2602	0.0001518
2614	0.0001276
2626	9.9e-05
2638	0.000132
2650	0.0001738
2662	0.000209
2674	0.0001914
2686	0.0001628
2698	0.0001276
2710	0.0001474
2722	0.0001892
2734	0.0001958
2746	0.0002816
2758	0.0002178
2770	0.0001892
2782	0.0001892
2794	0.0001474
2806	0.0001892
2818	0.0001958
2830	0.000264
2842	0.0003696
2854	0.000572
2866	0.000902
2878	0.001045
2890	0.0010032
2902	0.0010626
2914	0.0013838
2926	0.0022594
2938	0.0029722
2950	0.002662
2962	0.0018106
2974	0.0016632
2986	0.0016654
2998	0.0014894
3010	0.0013816
3022	0.0017556
3034	0.0023518
3046	0.0031372
3058	0.0046046
3070	0.005203
3082	0.0035662
3094	0.0017028
3106	0.0008866
3118	0.00044
3130	0.0003476
3142	0.0002838
3154	0.0002288
3166	0.0002024
3178	0.0002002
3190	0.0001474
3202	0.0001364
3214	0.0001056
3226	0.0001496
3238	0.0001034
3250	0.0001298
3262	0.0001034
3274	0.0001034
3286	0.0001342
3298	0.0001518
3310	7.7e-05
3322	8.58e-05
3334	9.02e-05
3346	6.38e-05
3358	7.7e-05
3370	6.6e-05
3382	9.02e-05
3394	9.24e-05
3406	5.94e-05
3418	7.04e-05
3430	3.3e-05
3442	4.4e-05
3454	6.82e-05
3466	8.58e-05
3478	5.94e-05
3490	9.9e-05
3502	6.6e-05
3514	6.38e-05
3526	4.84e-05
3538	5.94e-05
3550	0.0001342
3562	5.28e-05
3574	7.04e-05
3586	0.0001518
3598	4.84e-05
3610	3.74e-05
3622	7.48e-05
3634	8.58e-05
3646	7.26e-05
3658	5.72e-05
3670	5.94e-05
3682	0.000121
3694	0.0001188
3706	9.24e-05
3718	8.36e-05
3730	3.08e-05
3742	6.16e-05
3754	9.24e-05
3766	5.94e-05
3778	4.84e-05
3790	9.9e-05
3802	7.92e-05
3814	0.00011
3826	6.16e-05
3838	0.0001628
