Infrared Spectrum: 4-Hydroxyquinoline
Formula: C 9 H 7 N O
CAS: 611-36-9
State: gas
Origin: EPA-IR VAPOR PHASE LIBRARY
1/CM	ABSORBANCE
501.5	0.00782
513.074	0.00564
524.648	0.00538
536.222	0.00713
547.796	0.00308
559.37	0.00139
570.944	0.00139
582.518	0.00161
594.092	0.0005304
605.666	0.0004645
617.24	0.0003936
628.814	0.0006199
640.388	0.0005722
651.962	0.0006806
663.536	0.0007067
675.11	0.0009612
686.684	0.0007376
698.258	0.0009669
709.832	0.00158
721.406	0.00196
732.98	0.00396
744.554	0.01489
756.128	0.03242
767.702	0.02063
779.276	0.00806
790.85	0.00468
802.423	0.00732
813.997	0.01016
825.571	0.00869
837.145	0.00508
848.719	0.00332
860.293	0.00438
871.867	0.00696
883.441	0.00562
895.015	0.00207
906.589	0.00181
918.163	0.00209
929.737	0.00261
941.311	0.00436
952.885	0.0061
964.459	0.00543
976.033	0.00464
987.607	0.00508
999.181	0.00546
1010.76	0.00547
1022.33	0.00457
1033.9	0.00405
1045.48	0.0042
1057.05	0.00343
1068.63	0.00217
1080.2	0.00228
1091.77	0.00243
1103.35	0.00174
1114.92	0.0019
1126.49	0.00508
1138.07	0.00671
1149.64	0.00571
1161.22	0.00456
1172.79	0.00364
1184.36	0.01023
1195.94	0.01155
1207.51	0.0046
1219.09	0.00121
1230.66	0.0004813
1242.23	0.0007707
1253.81	0.00248
1265.38	0.00333
1276.96	0.00283
1288.53	0.00543
1300.1	0.00618
1311.68	0.00645
1323.25	0.01022
1334.83	0.01126
1346.4	0.00716
1357.97	0.00308
1369.55	0.00158
1381.12	0.00168
1392.7	0.00352
1404.27	0.00336
1415.84	0.00425
1427.42	0.00842
1438.99	0.00738
1450.57	0.00342
1462.14	0.00829
1473.71	0.02244
1485.29	0.0208
1496.86	0.02085
1508.44	0.0387
1520.01	0.03482
1531.58	0.01593
1543.16	0.00614
1554.73	0.00645
1566.31	0.00979
1577.88	0.01347
1589.45	0.01642
1601.03	0.0246
1612.6	0.03649
1624.18	0.0333
1635.75	0.0216
1647.32	0.0287
1658.9	0.07897
1670.47	0.09766
1682.05	0.04433
1693.62	0.00954
1705.19	0.00616
1716.77	0.00405
1728.34	0.00153
1739.92	0.0009868
1751.49	0.00122
1763.06	0.00169
1774.64	0.00122
1786.21	0.0005487
1797.79	0.000617
1809.36	0.0004069
1820.93	0.0003851
1832.51	0.0007129
1844.08	0.0006314
1855.66	0.0004722
1867.23	0.000854
1878.8	0.00123
1890.38	0.00123
1901.95	0.00102
1913.53	0.0009985
1925.1	0.00105
1936.67	0.0009781
1948.25	0.00082
1959.82	0.000712
1971.4	0.0003857
1982.97	0.000212
1994.54	0.0001909
2006.12	0.0002264
2017.69	0.000289
2029.27	0.0003306
2040.84	0.0002983
2052.41	0.0002359
2063.99	0.0002642
2075.56	0.0002746
2087.14	0.0002931
2098.71	0.0002702
2110.28	0.0002176
2121.86	0.0001956
2133.43	0.0002242
2145.01	0.0002876
2156.58	0.0002696
2168.15	0.0002681
2179.73	0.0003058
2191.3	0.0003441
2202.88	0.0003308
2214.45	0.0004057
2226.02	0.0003107
2237.6	0.0003169
2249.17	0.0003362
2260.74	0.0003755
2272.32	0.0004919
2283.89	0.0006056
2295.47	0.0005654
2307.04	0.0006478
2318.61	0.0006679
2330.19	0.000624
2341.76	0.0006188
2353.34	0.0007019
2364.91	0.0007696
2376.48	0.0006586
2388.06	0.0005251
2399.63	0.0004712
2411.21	0.0004746
2422.78	0.0005155
2434.35	0.0004697
2445.93	0.0005603
2457.5	0.0006261
2469.08	0.0005295
2480.65	0.0004974
2492.22	0.0005071
2503.8	0.000546
2515.37	0.0007104
2526.95	0.0007532
2538.52	0.0006506
2550.09	0.0005651
2561.67	0.0006291
2573.24	0.0006183
2584.82	0.0006576
2596.39	0.0006467
2607.96	0.0005882
2619.54	0.0007738
2631.11	0.0008305
2642.69	0.0008103
2654.26	0.0007117
2665.83	0.0007362
2677.41	0.0007145
2688.98	0.0006991
2700.56	0.0007435
2712.13	0.0007438
2723.7	0.0007096
2735.28	0.0006837
2746.85	0.0006837
2758.43	0.0006054
2770	0.00058
2781.57	0.0005997
2793.15	0.000608
2804.72	0.0006712
2816.3	0.0006904
2827.87	0.0006432
2839.44	0.0008438
2851.02	0.0008125
2862.59	0.0007925
2874.17	0.0007747
2885.74	0.000695
2897.31	0.0008045
2908.89	0.0008089
2920.46	0.0007928
2932.04	0.0008078
2943.61	0.0007863
2955.18	0.0008831
2966.76	0.0009216
2978.33	0.0009662
2989.91	0.00138
3001.48	0.00206
3013.05	0.00267
3024.63	0.0038
3036.2	0.00515
3047.78	0.00584
3059.35	0.0072
3070.92	0.00992
3082.5	0.00916
3094.07	0.00464
3105.65	0.00231
3117.22	0.00143
3128.79	0.00113
3140.37	0.0011
3151.94	0.00113
3163.52	0.00103
3175.09	0.00101
3186.66	0.0008886
3198.24	0.0009359
3209.81	0.00108
3221.39	0.00104
3232.96	0.00114
3244.53	0.00118
3256.11	0.00114
3267.68	0.00122
3279.26	0.00133
3290.83	0.00124
3302.4	0.00123
3313.98	0.00153
3325.55	0.00168
3337.13	0.00146
3348.7	0.00106
3360.27	0.0009982
3371.85	0.0008012
3383.42	0.0007962
3395	0.0007096
3406.57	0.0006849
3418.14	0.0007692
3429.72	0.0006923
3441.29	0.0009647
3452.86	0.00198
3464.44	0.006
3476.01	0.01341
3487.59	0.01455
3499.16	0.00693
3510.73	0.00155
3522.31	0.0009379
3533.88	0.0006614
3545.46	0.0007079
3557.03	0.0005212
3568.6	0.0006219
3580.18	0.0003725
3591.75	0.0004384
3603.33	0.0003695
3614.9	0.0006905
3626.47	0.0017
3638.05	0.00438
3649.62	0.00391
3661.2	0.0007393
3672.77	0.0004997
3684.34	0.0001722
3695.92	0.0002127
3707.49	0.0002826
3719.07	0.0002042
3730.64	0.0003498
3742.21	0.0003874
3753.79	0.0002845
3765.36	0.0002585
3776.94	0.0001653
3788.51	0.0002104
3800.08	0.0003294
3811.66	0.000229
3823.23	0.0003668
3834.81	0.000296
3846.38	0.0002888
3857.95	0.0004237
3869.53	0.0006326
3881.1	0.000533
3892.68	0.0004755
3904.25	0.0004918
3915.82	0.0003061
3927.4	0.0002609
3938.97	0.0002907
3950.55	0.0002872
3962.12	0.0002689
3973.69	0.000332
3985.27	0.0003113
3996.84	0.000187
