Infrared Spectrum: 2-Methylstyrene
Formula: C 9 H 10
CAS: 611-15-4
State: gas
Instrument: HP-GC/MS/IRD
Origin: NIST Mass Spectrometry Data Center
1/CM	ABSORBANCE
550	0.0001176
562	1.84e-05
574	0.0001904
586	0.000352
598	0.0003136
610	0.000128
622	9.2e-05
634	0.000144
646	0.0001936
658	0.0002296
670	0.0002096
682	0.0002296
694	0.0004032
706	0.0013456
718	0.0035176
730	0.0064616
742	0.0046048
754	0.0052752
766	0.008
778	0.003984
790	0.0013264
802	0.0005896
814	0.0004432
826	0.000444
838	0.0004312
850	0.0004448
862	0.0007504
874	0.0009768
886	0.001304
898	0.00248
910	0.004376
922	0.004252
934	0.0029408
946	0.0019088
958	0.001832
970	0.0020864
982	0.0026256
994	0.0026408
1006	0.001908
1018	0.00172
1030	0.0015848
1042	0.0012072
1054	0.0009
1066	0.0006288
1078	0.0003456
1090	0.0004184
1102	0.0006536
1114	0.0006008
1126	0.0003608
1138	0.0002736
1150	0.0002576
1162	0.000196
1174	0.0001264
1186	7.68e-05
1198	6.72e-05
1210	0.0001912
1222	0.000212
1234	0.0001088
1246	6.64e-05
1258	0.0001792
1270	0.0003176
1282	0.0005368
1294	0.000536
1306	0.0003112
1318	0.000208
1330	0.0002288
1342	0.0002624
1354	0.0003
1366	0.0004568
1378	0.0007584
1390	0.0009736
1402	0.001028
1414	0.0014072
1426	0.0015544
1438	0.0016848
1450	0.0022768
1462	0.0025656
1474	0.0031416
1486	0.0037232
1498	0.0026768
1510	0.0009384
1522	0.0005488
1534	0.000452
1546	0.0004648
1558	0.000624
1570	0.0008712
1582	0.000976
1594	0.0010704
1606	0.0013376
1618	0.002092
1630	0.0022568
1642	0.0012768
1654	0.0005296
1666	0.0003904
1678	0.0002784
1690	0.000296
1702	0.0003464
1714	0.0003192
1726	0.0002312
1738	0.0002216
1750	0.0002112
1762	0.0001544
1774	0.0001992
1786	0.0003808
1798	0.0004256
1810	0.0004408
1822	0.0008496
1834	0.0011792
1846	0.0007816
1858	0.0003112
1870	0.000308
1882	0.0003472
1894	0.0004464
1906	0.0005416
1918	0.0004288
1930	0.0003808
1942	0.00042
1954	0.0002584
1966	0.000172
1978	7.28e-05
1990	7.76e-05
2002	7.28e-05
2014	4.8e-05
2026	5.36e-05
2038	3.2e-05
2050	3.84e-05
2062	2.64e-05
2074	4.56e-05
2086	2.32e-05
2098	6.4e-05
2110	2.88e-05
2122	2.96e-05
2134	4.08e-05
2146	2.48e-05
2158	3.04e-05
2170	3.68e-05
2182	3.92e-05
2194	8.08e-05
2206	5.2e-05
2218	5.28e-05
2230	2.64e-05
2242	3.84e-05
2254	8.24e-05
2266	7.68e-05
2278	6.56e-05
2290	7.04e-05
2302	5.6e-05
2314	0.0001208
2326	0.0001424
2338	0.0001264
2350	0.0001064
2362	6.96e-05
2374	6.24e-05
2386	8.96e-05
2398	9.04e-05
2410	0.0001176
2422	8.48e-05
2434	0.0001224
2446	9.04e-05
2458	0.0001096
2470	0.0001112
2482	0.0001008
2494	9.68e-05
2506	0.0001272
2518	0.0001064
2530	8.48e-05
2542	0.0001056
2554	0.0001336
2566	0.0001464
2578	0.000112
2590	0.0001464
2602	0.000112
2614	0.000116
2626	0.0001024
2638	0.0001096
2650	0.0001208
2662	0.0001424
2674	0.0001416
2686	0.0001216
2698	0.0001624
2710	0.0001536
2722	0.0001688
2734	0.0002472
2746	0.0003328
2758	0.000272
2770	0.0002176
2782	0.00022
2794	0.0002544
2806	0.000328
2818	0.0003656
2830	0.0005304
2842	0.0006528
2854	0.0010232
2866	0.0016264
2878	0.0020328
2890	0.0020152
2902	0.00196
2914	0.002324
2926	0.0033872
2938	0.0039576
2950	0.00364
2962	0.0033448
2974	0.0034072
2986	0.003352
2998	0.0035232
3010	0.0050696
3022	0.0064552
3034	0.0056544
3046	0.0046272
3058	0.0061272
3070	0.0075432
3082	0.0069424
3094	0.0053432
3106	0.0032584
3118	0.0013
3130	0.0008384
3142	0.0006344
3154	0.0004848
3166	0.0003136
3178	0.000204
3190	0.0002112
3202	0.0002064
3214	0.0002024
3226	0.0001408
3238	0.0001664
3250	0.0001712
3262	0.0001
3274	0.0001224
3286	0.0001112
3298	9.28e-05
3310	0.0001016
3322	0.0001512
3334	0.0001608
3346	0.0001416
3358	6.64e-05
3370	9.12e-05
3382	6.48e-05
3394	0.00012
3406	0.0001576
3418	0.0001072
3430	0.000104
3442	8.64e-05
3454	8.24e-05
3466	2.24e-05
3478	9.04e-05
3490	4.8e-05
3502	7.92e-05
3514	9.36e-05
3526	6.88e-05
3538	7.28e-05
3550	9.36e-05
3562	0.0001272
3574	9.28e-05
3586	0.0001344
3598	5.28e-05
3610	6.48e-05
3622	0.000116
3634	0.000104
3646	0.0001136
3658	6.88e-05
3670	7.84e-05
3682	8.08e-05
3694	3.84e-05
3706	6.88e-05
3718	0.0001
3730	8.64e-05
3742	0.0001264
3754	0.0001456
3766	7.04e-05
3778	9.52e-05
3790	0.0001008
3802	0.0001552
3814	0.0001632
3826	0.0001488
3838	0.00026
