Infrared Spectrum: 4,4'-Dimethylbenzophenone
Formula: C 15 H 14 O
CAS: 611-97-2
State: gas
Origin: EPA-IR VAPOR PHASE LIBRARY
1/CM	ABSORBANCE
501.5	0.00117
513.074	0.0008267
524.648	0.0007103
536.222	0.00109
547.796	0.00144
559.37	0.00247
570.944	0.00949
582.518	0.01489
594.092	0.00361
605.666	0.0014
617.24	0.00167
628.814	0.00278
640.388	0.00292
651.962	0.00168
663.536	0.00255
675.11	0.00682
686.684	0.00554
698.258	0.00237
709.832	0.00216
721.406	0.00333
732.98	0.00815
744.554	0.03111
756.128	0.02228
767.702	0.00825
779.276	0.01323
790.85	0.00682
802.423	0.00921
813.997	0.01367
825.571	0.01418
837.145	0.01718
848.719	0.01055
860.293	0.00377
871.867	0.00286
883.441	0.00295
895.015	0.00373
906.589	0.00784
918.163	0.03453
929.737	0.04923
941.311	0.01946
952.885	0.01108
964.459	0.00734
976.033	0.00458
987.607	0.00322
999.181	0.00233
1010.76	0.00307
1022.33	0.00729
1033.9	0.0033
1045.48	0.00349
1057.05	0.00289
1068.63	0.00252
1080.2	0.00253
1091.77	0.00284
1103.35	0.00455
1114.92	0.00722
1126.49	0.0056
1138.07	0.00652
1149.64	0.00697
1161.22	0.00805
1172.79	0.02741
1184.36	0.03068
1195.94	0.0085
1207.51	0.01204
1219.09	0.00988
1230.66	0.01582
1242.23	0.01938
1253.81	0.02633
1265.38	0.07561
1276.96	0.09718
1288.53	0.06946
1300.1	0.02501
1311.68	0.03654
1323.25	0.01585
1334.83	0.00678
1346.4	0.00482
1357.97	0.00513
1369.55	0.00484
1381.12	0.00557
1392.7	0.00736
1404.27	0.01237
1415.84	0.0122
1427.42	0.008
1438.99	0.00573
1450.57	0.00513
1462.14	0.00525
1473.71	0.0051
1485.29	0.00536
1496.86	0.00659
1508.44	0.00625
1520.01	0.00511
1531.58	0.00457
1543.16	0.00503
1554.73	0.00658
1566.31	0.00808
1577.88	0.01045
1589.45	0.01528
1601.03	0.0359
1612.6	0.04969
1624.18	0.01617
1635.75	0.00972
1647.32	0.01078
1658.9	0.02245
1670.47	0.07083
1682.05	0.07573
1693.62	0.02702
1705.19	0.0101
1716.77	0.00675
1728.34	0.00523
1739.92	0.00291
1751.49	0.00215
1763.06	0.00229
1774.64	0.00234
1786.21	0.00246
1797.79	0.00325
1809.36	0.00238
1820.93	0.00119
1832.51	0.0009097
1844.08	0.0008754
1855.66	0.0009584
1867.23	0.0009922
1878.8	0.0012
1890.38	0.00158
1901.95	0.00223
1913.53	0.00328
1925.1	0.00287
1936.67	0.00154
1948.25	0.001
1959.82	0.0007839
1971.4	0.0007356
1982.97	0.0006498
1994.54	0.0005535
2006.12	0.000474
2017.69	0.0004853
2029.27	0.0004745
2040.84	0.0005645
2052.41	0.0004799
2063.99	0.0006069
2075.56	0.0006153
2087.14	0.0004869
2098.71	0.0003706
2110.28	0.0003001
2121.86	0.0002712
2133.43	0.0002943
2145.01	0.000316
2156.58	0.0004514
2168.15	0.0004676
2179.73	0.0004109
2191.3	0.0004261
2202.88	0.0004075
2214.45	0.0004137
2226.02	0.0003783
2237.6	0.0003787
2249.17	0.0004189
2260.74	0.0004485
2272.32	0.0004499
2283.89	0.0005604
2295.47	0.0007404
2307.04	0.0007078
2318.61	0.0005484
2330.19	0.0005347
2341.76	0.0004915
2353.34	0.000454
2364.91	0.0004614
2376.48	0.0005489
2388.06	0.0006732
2399.63	0.0009
2411.21	0.00125
2422.78	0.00106
2434.35	0.000733
2445.93	0.0005222
2457.5	0.0005317
2469.08	0.0004783
2480.65	0.0004601
2492.22	0.000434
2503.8	0.0004305
2515.37	0.0005266
2526.95	0.0005891
2538.52	0.00062
2550.09	0.0006903
2561.67	0.0008144
2573.24	0.000897
2584.82	0.00102
2596.39	0.0008773
2607.96	0.0006211
2619.54	0.0005951
2631.11	0.0005895
2642.69	0.0005234
2654.26	0.0005286
2665.83	0.0004727
2677.41	0.0004563
2688.98	0.0004909
2700.56	0.0004945
2712.13	0.0006323
2723.7	0.0006947
2735.28	0.00122
2746.85	0.00158
2758.43	0.00112
2770	0.0008665
2781.57	0.0009371
2793.15	0.00106
2804.72	0.00125
2816.3	0.00142
2827.87	0.00172
2839.44	0.00237
2851.02	0.00369
2862.59	0.00665
2874.17	0.01087
2885.74	0.01148
2897.31	0.00971
2908.89	0.00998
2920.46	0.01444
2932.04	0.02368
2943.61	0.01748
2955.18	0.00931
2966.76	0.00728
2978.33	0.00736
2989.91	0.00988
3001.48	0.01262
3013.05	0.0138
3024.63	0.0212
3036.2	0.02776
3047.78	0.0173
3059.35	0.01404
3070.92	0.01284
3082.5	0.01136
3094.07	0.0082
3105.65	0.00432
3117.22	0.00318
3128.79	0.00244
3140.37	0.00141
3151.94	0.0009386
3163.52	0.000676
3175.09	0.0005304
3186.66	0.0004372
3198.24	0.0004481
3209.81	0.000403
3221.39	0.0004502
3232.96	0.0004827
3244.53	0.0003388
3256.11	0.0004229
3267.68	0.0003731
3279.26	0.0004697
3290.83	0.0004377
3302.4	0.000503
3313.98	0.0006439
3325.55	0.00125
3337.13	0.00163
3348.7	0.00119
3360.27	0.0007497
3371.85	0.0006274
3383.42	0.0005718
3395	0.0004744
3406.57	0.0003651
3418.14	0.0003179
3429.72	0.0003318
3441.29	0.000298
3452.86	0.0003113
3464.44	0.0001896
3476.01	0.0001928
3487.59	0.000241
3499.16	0.0002541
3510.73	0.0002274
3522.31	0.0003003
3533.88	0.0002352
3545.46	0.0001969
3557.03	0.0002267
3568.6	0.0002145
3580.18	0.0002578
3591.75	0.0002672
3603.33	0.0002762
3614.9	0.0003087
3626.47	0.0002676
3638.05	0.0003241
3649.62	0.0003066
3661.2	0.0004239
3672.77	0.0004509
3684.34	0.0004985
3695.92	0.0003556
3707.49	0.0003637
3719.07	0.00031
3730.64	0.0003402
3742.21	0.0003563
3753.79	0.0002836
3765.36	0.0002475
3776.94	0.0002924
3788.51	0.0003002
3800.08	0.0003459
3811.66	0.0004243
3823.23	0.0003975
3834.81	0.0004627
3846.38	0.0004897
3857.95	0.0005518
3869.53	0.0004787
3881.1	0.0004534
3892.68	0.0005051
3904.25	0.0003618
3915.82	0.0004172
3927.4	0.0004075
3938.97	0.0004881
3950.55	0.0004196
3962.12	0.000465
3973.69	0.0004647
3985.27	0.0005034
3996.84	0.0004958
