Infrared Spectrum: N,N'-DIMETHYLCARBANILIDE
Formula: C15 H16 N2 O
CAS: 611-92-7
State: SOLID (MINERAL OIL MULL)
Melting point: 120-122 C
Class: COBLENTZ
Instrument: Not specified, most likely a prism, grating, or hybrid spectrometer.
Sampling: TRANSMISSION
Resolution: 4
Origin: WYANDOTTE CHEMICALS CORP., WYANDOTTE, MICHIGAN, USA
MICROMETERS	TRANSMITTANCE
2.02	0.512
2.05983	0.489
2.09966	0.489
2.13949	0.487
2.17931	0.487
2.21914	0.489
2.25897	0.495
2.2988	0.509
2.33863	0.514
2.37846	0.517
2.41829	0.529
2.45811	0.537
2.49794	0.547
2.53777	0.55
2.5776	0.557
2.61743	0.572
2.65726	0.583
2.69709	0.587
2.73691	0.59
2.77674	0.588
2.81657	0.588
2.8564	0.59
2.89623	0.59
2.93606	0.587
2.97588	0.588
3.01571	0.573
3.05554	0.575
3.09537	0.575
3.1352	0.568
3.17503	0.547
3.21486	0.464
3.25468	0.336
3.29451	0.296
3.33434	0.101
3.37417	0.072
3.414	0.121
3.45383	0.152
3.49366	0.419
3.53348	0.615
3.57331	0.669
3.61314	0.678
3.65297	0.683
3.6928	0.689
3.73263	0.696
3.77246	0.701
3.81228	0.709
3.85211	0.718
3.89194	0.736
3.93177	0.746
3.9716	0.757
4.01143	0.762
4.05126	0.766
4.09108	0.769
4.13091	0.769
4.17074	0.769
4.21057	0.761
4.2504	0.774
4.29023	0.797
4.33005	0.814
4.36988	0.815
4.40971	0.82
4.44954	0.817
4.48937	0.819
4.5292	0.832
4.56903	0.834
4.60885	0.845
4.64868	0.852
4.68851	0.86
4.72834	0.862
4.76817	0.868
4.808	0.88
4.84783	0.883
4.88765	0.89
4.92748	0.892
4.96731	0.898
5.00714	0.9
5.04697	0.885
5.0868	0.888
5.12663	0.87
5.16645	0.87
5.20628	0.912
5.24611	0.92
5.28594	0.905
5.32577	0.892
5.3656	0.92
5.40543	0.935
5.44525	0.943
5.48508	0.933
5.52491	0.903
5.56474	0.927
5.60457	0.953
5.6444	0.94
5.68422	0.887
5.72405	0.854
5.76388	0.85
5.80371	0.782
5.84354	0.719
5.88337	0.545
5.9232	0.328
5.96302	0.165
6.00285	0.074
6.04268	0.077
6.08251	0.169
6.12234	0.286
6.16217	0.416
6.202	0.114
6.24182	0.071
6.28165	0.184
6.32148	0.285
6.36131	0.336
6.40114	0.358
6.44097	0.394
6.4808	0.429
6.52062	0.475
6.56045	0.475
6.60028	0.164
6.64011	0.084
6.67994	0.154
6.71977	0.144
6.7596	0.097
6.79942	0.106
6.83925	0.119
6.87908	0.134
6.91891	0.126
6.95874	0.162
6.99857	0.421
7.03839	0.359
7.07822	0.376
7.11805	0.333
7.15788	0.215
7.19771	0.127
7.23754	0.094
7.27737	0.066
7.31719	0.079
7.35702	0.127
7.39685	0.235
7.43668	0.361
7.47651	0.371
7.51634	0.278
7.55617	0.262
7.59599	0.283
7.63582	0.361
7.67565	0.363
7.71548	0.353
7.75531	0.344
7.79514	0.396
7.83497	0.565
7.87479	0.616
7.91462	0.643
7.95445	0.643
7.99428	0.655
8.03411	0.671
8.07394	0.673
8.11377	0.648
8.15359	0.533
8.19342	0.434
8.23325	0.555
8.27308	0.645
8.31291	0.666
8.35274	0.706
8.39256	0.719
8.43239	0.684
8.47222	0.665
8.51205	0.721
8.55188	0.744
8.59171	0.744
8.63154	0.684
8.67136	0.683
8.71119	0.711
8.75102	0.668
8.79085	0.568
8.83068	0.366
8.87051	0.222
8.91034	0.275
8.95016	0.328
8.98999	0.441
9.02982	0.588
9.06965	0.665
9.10948	0.694
9.14931	0.714
9.18914	0.709
9.22896	0.558
9.26879	0.426
9.30862	0.643
9.34845	0.737
9.38828	0.772
9.42811	0.781
9.46794	0.797
9.50776	0.804
9.54759	0.794
9.58742	0.718
9.62725	0.693
9.66708	0.757
9.70691	0.651
9.74673	0.628
9.78656	0.65
9.82639	0.736
9.86622	0.8
9.90605	0.824
9.94588	0.802
9.98571	0.789
10.0255	0.822
10.0654	0.842
10.1052	0.845
10.145	0.845
10.1848	0.839
10.2247	0.834
10.2645	0.777
10.3043	0.729
10.3442	0.751
10.384	0.809
10.4238	0.83
10.4636	0.817
10.5035	0.728
10.5433	0.525
10.5831	0.504
10.623	0.636
10.6628	0.729
10.7026	0.771
10.7424	0.797
10.7823	0.817
10.8221	0.829
10.8619	0.834
10.9018	0.819
10.9416	0.716
10.9814	0.731
11.0212	0.794
11.0611	0.807
11.1009	0.837
11.1407	0.862
11.1806	0.873
11.2204	0.877
11.2602	0.88
11.3	0.883
11.3399	0.883
11.3797	0.885
11.4195	0.888
11.4594	0.892
11.4992	0.892
11.539	0.895
11.5788	0.898
11.6187	0.9
11.6585	0.905
11.6983	0.908
11.7382	0.908
11.778	0.903
11.8178	0.895
11.8576	0.862
11.8975	0.766
11.9373	0.749
11.9771	0.809
12.017	0.854
12.0568	0.877
12.0966	0.883
12.1364	0.898
12.1763	0.905
12.2161	0.908
12.2559	0.912
12.2958	0.913
12.3356	0.912
12.3754	0.915
12.4152	0.913
12.4551	0.917
12.4949	0.918
12.5347	0.915
12.5746	0.915
12.6144	0.912
12.6542	0.91
12.694	0.908
12.7339	0.897
12.7737	0.872
12.8135	0.794
12.8534	0.656
12.8932	0.666
12.933	0.752
12.9728	0.696
13.0127	0.621
13.0525	0.668
13.0923	0.663
13.1322	0.578
13.172	0.416
13.2118	0.212
13.2516	0.107
13.2915	0.119
13.3313	0.253
13.3711	0.475
13.411	0.635
13.4508	0.713
13.4906	0.757
13.5304	0.777
13.5703	0.799
13.6101	0.829
13.6499	0.84
13.6898	0.852
13.7296	0.857
13.7694	0.859
13.8092	0.857
13.8491	0.855
13.8889	0.852
13.9287	0.849
13.9686	0.847
14.0084	0.82
14.0482	0.791
14.088	0.764
14.1279	0.742
14.1677	0.693
14.2075	0.62
14.2474	0.489
14.2872	0.346
14.327	0.217
14.3668	0.139
14.4067	0.117
14.4465	0.132
14.4863	0.205
14.5262	0.325
14.566	0.484
14.6058	0.605
14.6456	0.691
14.6855	0.749
14.7253	0.784
14.7651	0.805
14.805	0.824
14.8448	0.832
14.8846	0.834
14.9244	0.837
14.9643	0.835
15.0041	0.812
15.0439	0.759
15.0838	0.726
15.1236	0.723
15.1634	0.742
15.2032	0.771
15.2431	0.777
15.2829	0.786
15.3227	0.779
15.3626	0.771
15.4024	0.751
15.4422	0.706
15.482	0.643
15.5219	0.631
15.5617	0.661
15.6015	0.704
15.6414	0.734
15.6812	0.742
15.721	0.741
15.7608	0.733
15.8007	0.723
15.8405	0.709
15.8803	0.706
15.9202	0.698
15.96	0.683
