Infrared Spectrum: 2-PYRIMIDINECARBAMONITRILE, 4-AMINO-6-HYDROXY- (KETO FORM)
Formula: C5 H5 N5 O
CAS: 6112-71-6
State: SOLID (SPLIT MULL), FLUOROLUBE FOR 3800-1330 CM^-^1, NUJOL FOR 1330-400 CM^-^1
Class: COBLENTZ III
Instrument: DOW KBr FOREPRISM-GRATING
Instrument parameters: BLAZED AT 3.5, 12.0, 20.0 MICRON AND CHANGED AT 5.0, 7.5, 14.9 MICRON
Sampling: TRANSMISSION
Resolution: 2
Origin: DOW CHEMICAL COMPANY
1/CM	TRANSMITTANCE
383	0.6986
392	0.7148
401	0.7251
410	0.7308
419	0.7333
428	0.7321
437	0.7239
446	0.7104
455	0.6832
464	0.6728
473	0.6733
482	0.6656
491	0.6498
500	0.6487
509	0.6658
518	0.6289
527	0.3402
536	0.5803
545	0.7475
554	0.7718
563	0.7621
572	0.7117
581	0.5603
590	0.7056
599	0.7693
608	0.6158
617	0.83
626	0.8752
635	0.8831
644	0.8863
653	0.8851
662	0.8725
671	0.7324
680	0.843
689	0.869
698	0.8656
707	0.8375
716	0.7926
725	0.7301
734	0.6543
743	0.6747
752	0.751
761	0.7251
770	0.6808
779	0.6598
788	0.4954
797	0.5926
806	0.7444
815	0.7714
824	0.7871
833	0.8031
842	0.8156
851	0.8148
860	0.8051
869	0.7918
878	0.774
887	0.7518
896	0.7201
905	0.6871
914	0.6535
923	0.6668
932	0.7028
941	0.7303
950	0.7353
959	0.6842
968	0.7311
977	0.7558
986	0.7378
995	0.729
1004	0.7706
1013	0.7844
1022	0.7778
1031	0.7642
1040	0.7461
1049	0.7299
1058	0.7108
1067	0.7289
1076	0.7536
1085	0.756
1094	0.7441
1103	0.7585
1112	0.765
1121	0.7649
1130	0.7601
1139	0.7468
1148	0.7264
1157	0.7051
1166	0.6922
1175	0.6434
1184	0.7351
1193	0.738
1202	0.7288
1211	0.7125
1220	0.6975
1229	0.6467
1238	0.5799
1247	0.4689
1256	0.4703
1265	0.6746
1274	0.669
1283	0.6496
1292	0.6212
1301	0.545
1310	0.3998
1319	0.4875
1328	0.5376
1337	0.3772
1346	0.3466
1355	0.3232
1364	0.2894
1373	0.2017
1382	0.1485
1391	0.1961
1400	0.3809
1409	0.4487
1418	0.4384
1427	0.387
1436	0.3157
1445	0.3528
1454	0.458
1463	0.4362
1472	0.4075
1481	0.3742
1490	0.371
1499	0.399
1508	0.3729
1517	0.3408
1526	0.3258
1535	0.3176
1544	0.2894
1553	0.2519
1562	0.2027
1571	0.1649
1580	0.1226
1589	0.0904
1598	0.0667
1607	0.0525
1616	0.0496
1625	0.0545
1634	0.0669
1643	0.0805
1652	0.1044
1661	0.0931
1670	0.0799
1679	0.0982
1688	0.1231
1697	0.1679
1706	0.2568
1715	0.4066
1724	0.5846
1733	0.7054
1742	0.7615
1751	0.8012
1760	0.8259
1769	0.8446
1778	0.8623
1787	0.8747
1796	0.8837
1805	0.8885
1814	0.8881
1823	0.8878
1832	0.8877
1841	0.8863
1850	0.8825
1859	0.8791
1868	0.8698
1877	0.8635
1886	0.8601
1895	0.8541
1904	0.847
1913	0.8399
1922	0.8317
1931	0.8235
1940	0.8218
1949	0.8189
1958	0.8154
1967	0.8008
1976	0.7928
1985	0.7838
1994	0.7915
2003	0.7791
2012	0.7753
2021	0.7719
2030	0.7682
2039	0.7575
2048	0.7478
2057	0.7383
2066	0.7272
2075	0.7136
2084	0.6946
2093	0.6732
2102	0.6514
2111	0.6291
2120	0.5993
2129	0.5662
2138	0.5406
2147	0.4966
2156	0.4449
2165	0.3859
2174	0.3102
2183	0.2766
2192	0.1927
2201	0.1704
2210	0.3359
2219	0.4488
2228	0.6359
2237	0.7434
2246	0.7467
2255	0.7462
2264	0.7406
2273	0.7314
2282	0.7208
2291	0.7098
2300	0.6991
2309	0.6801
2318	0.6611
2327	0.6437
2336	0.6303
2345	0.6256
2354	0.626
2363	0.6267
2372	0.627
2381	0.6243
2390	0.6184
2399	0.6098
2408	0.6017
2417	0.5929
2426	0.5835
2435	0.5759
2444	0.5683
2453	0.5612
2462	0.5546
2471	0.5478
2480	0.5415
2489	0.5352
2498	0.5286
2507	0.5218
2516	0.5147
2525	0.5062
2534	0.4977
2543	0.488
2552	0.4785
2561	0.4682
2570	0.4591
2579	0.4505
2588	0.4424
2597	0.4403
2606	0.4447
2615	0.4454
2624	0.438
2633	0.4294
2642	0.4219
2651	0.4145
2660	0.4068
2669	0.3993
2678	0.3922
2687	0.3854
2696	0.3791
2705	0.3729
2714	0.3673
2723	0.3618
2732	0.3552
2741	0.3478
2750	0.3409
2759	0.3395
2768	0.3434
2777	0.347
2786	0.3518
2795	0.3568
2804	0.362
2813	0.3697
2822	0.3718
2831	0.371
2840	0.368
2849	0.358
2858	0.3422
2867	0.3309
2876	0.3347
2885	0.3384
2894	0.3416
2903	0.344
2912	0.34
2921	0.3291
2930	0.319
2939	0.3145
2948	0.318
2957	0.3257
2966	0.3337
2975	0.3471
2984	0.3691
2993	0.378
3002	0.3909
3011	0.4082
3020	0.4176
3029	0.4225
3038	0.4183
3047	0.4134
3056	0.4084
3065	0.4024
3074	0.3964
3083	0.3904
3092	0.3845
3101	0.3773
3110	0.37
3119	0.368
3128	0.372
3137	0.3814
3146	0.4022
3155	0.4066
3164	0.4066
3173	0.41
3182	0.416
3191	0.4231
3200	0.4318
3209	0.436
3218	0.4371
3227	0.4383
3236	0.4392
3245	0.4409
3254	0.4373
3263	0.4285
3272	0.4182
3281	0.4071
3290	0.395
3299	0.3816
3308	0.3675
3317	0.3532
3326	0.3384
3335	0.3364
3344	0.3587
3353	0.3837
3362	0.4267
3371	0.4518
3380	0.467
3389	0.4595
3398	0.449
3407	0.435
3416	0.4203
3425	0.395
3434	0.3623
3443	0.3303
3452	0.335
3461	0.3632
3470	0.5707
3479	0.6347
3488	0.6382
3497	0.6371
3506	0.6332
3515	0.629
3524	0.6242
3533	0.6175
3542	0.6096
3551	0.6022
3560	0.5949
3569	0.5891
3578	0.5844
3587	0.5826
3596	0.5817
3605	0.5812
3614	0.5802
3623	0.5774
3632	0.5745
3641	0.5709
3650	0.5674
3659	0.5637
3668	0.5599
3677	0.5562
3686	0.5527
3695	0.5502
3704	0.5477
3713	0.5451
3722	0.5426
3731	0.539
3740	0.5355
3749	0.532
3758	0.5284
3767	0.5249
3776	0.5212
