Infrared Spectrum: ELAIDIC ACID, ETHYL ESTER
Formula: C20 H38 O2
CAS: 6114-18-7
State: SOLUTION (9.1 CS2 FOR 5000-2380 AND 1390-625, 9.1% C2Cl4 FOR 2380-1390 CM^-^1)
Class: COBLENTZ
Instrument: PERKIN-ELMER
Sampling: TRANSMISSION
Path length: 0.01 CM, 0.01 CM
Resolution: 4
Origin: HORMEL INSTITUTE
MICROMETERS	TRANSMITTANCE
2.047	0.903
2.08093	0.903
2.11485	0.903
2.14878	0.905
2.18271	0.905
2.21663	0.905
2.25056	0.9
2.28449	0.888
2.31841	0.876
2.35234	0.876
2.38627	0.877
2.42019	0.879
2.45412	0.881
2.48805	0.884
2.52198	0.893
2.5559	0.894
2.58983	0.894
2.62376	0.9
2.65768	0.901
2.69161	0.903
2.72554	0.903
2.75946	0.903
2.79339	0.901
2.82732	0.896
2.86124	0.893
2.89517	0.883
2.9291	0.881
2.96302	0.883
2.99695	0.884
3.03088	0.888
3.0648	0.889
3.09873	0.888
3.13266	0.884
3.16658	0.881
3.20051	0.881
3.23444	0.874
3.26837	0.859
3.30229	0.769
3.33622	0.525
3.37015	0.267
3.40407	0.071
3.438	0.105
3.47193	0.296
3.50585	0.179
3.53978	0.649
3.57371	0.791
3.60763	0.833
3.64156	0.85
3.67549	0.852
3.70941	0.861
3.74334	0.857
3.77727	0.864
3.81119	0.872
3.84512	0.877
3.87905	0.881
3.91297	0.888
3.9469	0.891
3.98083	0.893
4.01476	0.893
4.04868	0.896
4.08261	0.9
4.11654	0.9
4.15046	0.901
4.18439	0.901
4.21832	0.901
4.25224	0.901
4.28617	0.9
4.3201	0.905
4.35402	0.91
4.38795	0.911
4.42188	0.911
4.4558	0.911
4.48973	0.911
4.52366	0.911
4.55758	0.911
4.59151	0.911
4.62544	0.91
4.65936	0.91
4.69329	0.911
4.72722	0.91
4.76115	0.91
4.79507	0.91
4.829	0.908
4.86293	0.901
4.89685	0.901
4.93078	0.903
4.96471	0.903
4.99863	0.905
5.03256	0.906
5.06649	0.906
5.10041	0.906
5.13434	0.905
5.16827	0.906
5.20219	0.906
5.23612	0.906
5.27005	0.905
5.30397	0.905
5.3379	0.905
5.37183	0.903
5.40575	0.901
5.43968	0.894
5.47361	0.891
5.50754	0.884
5.54146	0.879
5.57539	0.864
5.60932	0.842
5.64324	0.816
5.67717	0.713
5.7111	0.496
5.74502	0.062
5.77895	0.244
5.81288	0.552
5.8468	0.686
5.88073	0.73
5.91466	0.789
5.94858	0.822
5.98251	0.835
6.01644	0.84
6.05036	0.842
6.08429	0.852
6.11822	0.855
6.15214	0.855
6.18607	0.857
6.22	0.862
6.25393	0.869
6.28785	0.871
6.32178	0.871
6.35571	0.872
6.38963	0.872
6.42356	0.874
6.45749	0.869
6.49141	0.871
6.52534	0.867
6.55927	0.816
6.59319	0.791
6.62712	0.823
6.66105	0.844
6.69497	0.838
6.7289	0.789
6.76283	0.689
6.79675	0.464
6.83068	0.357
6.86461	0.43
6.89853	0.498
6.93246	0.522
6.96639	0.605
7.00032	0.674
7.03424	0.669
7.06817	0.73
7.1021	0.752
7.13602	0.74
7.16995	0.683
7.20388	0.671
7.2378	0.535
7.27173	0.41
7.30566	0.474
7.33958	0.611
7.37351	0.591
7.40744	0.564
7.44136	0.591
7.47529	0.622
7.50922	0.64
7.54314	0.623
7.57707	0.591
7.611	0.572
7.64492	0.55
7.67885	0.533
7.71278	0.561
7.74671	0.584
7.78063	0.589
7.81456	0.572
7.84849	0.566
7.88241	0.557
7.91634	0.53
7.95027	0.501
7.98419	0.479
8.01812	0.432
8.05205	0.42
8.08597	0.432
8.1199	0.455
8.15383	0.477
8.18775	0.484
8.22168	0.481
8.25561	0.469
8.28953	0.452
8.32346	0.415
8.35739	0.361
8.39131	0.313
8.42524	0.261
8.45917	0.235
8.4931	0.23
8.52702	0.261
8.56095	0.281
8.59488	0.3
8.6288	0.342
8.66273	0.396
8.69666	0.45
8.73058	0.493
8.76451	0.552
8.79844	0.591
8.83236	0.613
8.86629	0.603
8.90022	0.562
8.93414	0.54
8.96807	0.549
9.002	0.579
9.03592	0.593
9.06985	0.562
9.10378	0.533
9.1377	0.55
9.17163	0.591
9.20556	0.625
9.23949	0.644
9.27341	0.664
9.30734	0.683
9.34127	0.694
9.37519	0.696
9.40912	0.696
9.44305	0.691
9.47697	0.683
9.5109	0.671
9.54483	0.644
9.57875	0.583
9.61268	0.516
9.64661	0.484
9.68053	0.493
9.71446	0.571
9.74839	0.622
9.78231	0.664
9.81624	0.7
9.85017	0.723
9.88409	0.75
9.91802	0.769
9.95195	0.784
9.98588	0.793
10.0198	0.801
10.0537	0.805
10.0877	0.803
10.1216	0.801
10.1555	0.788
10.1894	0.764
10.2234	0.72
10.2573	0.615
10.2912	0.501
10.3251	0.381
10.3591	0.35
10.393	0.471
10.4269	0.65
10.4609	0.732
10.4948	0.759
10.5287	0.783
10.5626	0.794
10.5966	0.801
10.6305	0.805
10.6644	0.81
10.6983	0.813
10.7323	0.816
10.7662	0.818
10.8001	0.82
10.834	0.82
10.868	0.822
10.9019	0.822
10.9358	0.822
10.9698	0.825
11.0037	0.832
11.0376	0.833
11.0715	0.833
11.1055	0.837
11.1394	0.838
11.1733	0.84
11.2072	0.842
11.2412	0.842
11.2751	0.845
11.309	0.844
11.3429	0.84
11.3769	0.838
11.4108	0.837
11.4447	0.835
11.4787	0.833
11.5126	0.828
11.5465	0.818
11.5804	0.806
11.6144	0.8
11.6483	0.794
11.6822	0.796
11.7161	0.805
11.7501	0.815
11.784	0.823
11.8179	0.832
11.8518	0.838
11.8858	0.845
11.9197	0.849
11.9536	0.85
11.9876	0.849
12.0215	0.849
12.0554	0.85
12.0893	0.85
12.1233	0.85
12.1572	0.85
12.1911	0.85
12.225	0.85
12.259	0.85
12.2929	0.849
12.3268	0.845
12.3608	0.842
12.3947	0.838
12.4286	0.837
12.4625	0.833
12.4965	0.833
12.5304	0.832
12.5643	0.832
12.5982	0.83
12.6322	0.828
12.6661	0.828
12.7	0.827
12.7339	0.822
12.7679	0.82
12.8018	0.816
12.8357	0.82
12.8697	0.822
12.9036	0.82
12.9375	0.82
12.9714	0.827
13.0054	0.828
13.0393	0.827
13.0732	0.823
13.1071	0.825
13.1411	0.827
13.175	0.823
13.2089	0.822
13.2428	0.82
13.2768	0.823
13.3107	0.828
13.3446	0.828
13.3786	0.825
13.4125	0.82
13.4464	0.818
13.4803	0.815
13.5143	0.813
13.5482	0.81
13.5821	0.806
13.616	0.8
13.65	0.794
13.6839	0.786
13.7178	0.776
13.7518	0.757
13.7857	0.737
13.8196	0.716
13.8535	0.698
13.8875	0.698
13.9214	0.718
13.9553	0.747
13.9892	0.762
14.0232	0.781
14.0571	0.8
14.091	0.81
14.1249	0.82
14.1589	0.828
14.1928	0.837
14.2267	0.842
14.2607	0.847
14.2946	0.852
14.3285	0.855
14.3624	0.859
14.3964	0.862
14.4303	0.864
14.4642	0.869
14.4981	0.874
14.5321	0.876
14.566	0.876
14.5999	0.877
14.6338	0.879
14.6678	0.884
14.7017	0.886
14.7356	0.888
14.7696	0.888
14.8035	0.886
14.8374	0.886
14.8713	0.888
14.9053	0.888
14.9392	0.884
14.9731	0.877
15.007	0.884
