Infrared Spectrum: DIETHYL-2-METHYLOXAZOLE-4,5-DICARBOXYLATE
Formula: C10 H13 N O5
CAS: 61151-88-0
State: LIQUID
Class: COBLENTZ
Instrument: PERKIN-ELMER
Sampling: TRANSMISSION
Path length: CAPILLARY
Resolution: 4
Origin: ABBOTT LABORATORIES - WASHBURN
MICROMETERS	TRANSMITTANCE
2.027	0.728
2.06124	0.73
2.09549	0.728
2.12973	0.728
2.16398	0.731
2.19822	0.735
2.23247	0.737
2.26671	0.7332
2.30096	0.728
2.3352	0.728
2.36945	0.73
2.40369	0.7348
2.43794	0.735
2.47218	0.735
2.50643	0.7371
2.54067	0.738
2.57492	0.74
2.60916	0.745
2.64341	0.7402
2.67765	0.743
2.7119	0.738
2.74614	0.737
2.78039	0.735
2.81463	0.7309
2.84888	0.725
2.88312	0.7231
2.91737	0.718
2.95161	0.719
2.98586	0.721
3.0201	0.723
3.05435	0.723
3.08859	0.726
3.12284	0.725
3.15708	0.725
3.19133	0.723
3.22557	0.725
3.25982	0.7211
3.29406	0.7062
3.32831	0.6103
3.36255	0.5939
3.3968	0.6179
3.43104	0.6468
3.46529	0.6848
3.49953	0.705
3.53378	0.713
3.56802	0.719
3.60227	0.7212
3.63651	0.723
3.67076	0.726
3.705	0.73
3.73925	0.73
3.77349	0.7348
3.80773	0.731
3.84198	0.735
3.87622	0.7371
3.91047	0.733
3.94471	0.7369
3.97896	0.7369
4.0132	0.738
4.04745	0.737
4.08169	0.737
4.11594	0.737
4.15018	0.737
4.18443	0.737
4.21867	0.7499
4.25292	0.7521
4.28716	0.75
4.32141	0.7433
4.35565	0.733
4.3899	0.733
4.42414	0.735
4.45839	0.735
4.49263	0.7379
4.52688	0.737
4.56112	0.737
4.59537	0.737
4.62961	0.735
4.66386	0.735
4.6981	0.737
4.73235	0.735
4.76659	0.735
4.80084	0.7369
4.83508	0.7367
4.86933	0.735
4.90357	0.7371
4.93782	0.735
4.97206	0.737
5.00631	0.7332
5.04055	0.731
5.0748	0.735
5.10904	0.737
5.14329	0.7371
5.17753	0.733
5.21178	0.7333
5.24602	0.733
5.28027	0.733
5.31451	0.7282
5.34876	0.7325
5.383	0.726
5.41725	0.7328
5.45149	0.7228
5.48574	0.7193
5.51998	0.7132
5.55423	0.7024
5.58847	0.6859
5.62271	0.6585
5.65696	0.5439
5.6912	0.3292
5.72545	0.162
5.75969	0.1208
5.79394	0.1592
5.82818	0.3324
5.86243	0.5368
5.89667	0.5899
5.93092	0.6433
5.96516	0.67
5.99941	0.676
6.03365	0.6991
6.0679	0.6942
6.10214	0.6963
6.13639	0.6893
6.17063	0.6711
6.20488	0.6079
6.23912	0.5453
6.27337	0.5043
6.30761	0.46
6.34186	0.4093
6.3761	0.4202
6.41035	0.4971
6.44459	0.612
6.47884	0.667
6.51308	0.67
6.54733	0.6907
6.58157	0.692
6.61582	0.7043
6.65006	0.6943
6.68431	0.699
6.71855	0.6927
6.7528	0.6398
6.78704	0.6151
6.82129	0.5727
6.85553	0.595
6.88978	0.5684
6.92402	0.5495
6.95827	0.593
6.99251	0.615
7.02676	0.6283
7.061	0.6148
7.09525	0.5489
7.12949	0.4693
7.16374	0.4266
7.19798	0.4481
7.23223	0.4318
7.26647	0.4205
7.30072	0.3734
7.33496	0.5011
7.3692	0.5907
7.40345	0.5488
7.43769	0.3682
7.47194	0.2888
7.50618	0.3468
7.54043	0.4571
7.57467	0.5263
7.60892	0.4289
7.64316	0.3354
7.67741	0.3222
7.71165	0.3506
7.7459	0.3649
7.78014	0.4057
7.81439	0.4549
7.84863	0.4777
7.88288	0.465
7.91712	0.4456
7.95137	0.489
7.98561	0.5516
8.01986	0.6
8.0541	0.6298
8.08835	0.6489
8.12259	0.652
8.15684	0.652
8.19108	0.641
8.22533	0.6017
8.25957	0.5195
8.29382	0.3713
8.32806	0.2515
8.36231	0.216
8.39655	0.2551
8.4308	0.3366
8.46504	0.4156
8.49929	0.3921
8.53353	0.3431
8.56778	0.333
8.60202	0.3235
8.63627	0.2951
8.67051	0.2618
8.70476	0.231
8.739	0.2659
8.77325	0.3257
8.80749	0.45
8.84174	0.5308
8.87598	0.5879
8.91023	0.6189
8.94447	0.625
8.97872	0.6134
9.01296	0.5982
9.04721	0.599
9.08145	0.6085
9.11569	0.595
9.14994	0.5634
9.18418	0.5619
9.21843	0.5571
9.25267	0.4889
9.28692	0.3931
9.32116	0.2416
9.35541	0.1737
9.38965	0.1805
9.4239	0.3112
9.45814	0.4876
9.49239	0.566
9.52663	0.6145
9.56088	0.6344
9.59512	0.6426
9.62937	0.646
9.66361	0.646
9.69786	0.6434
9.7321	0.6195
9.76635	0.5763
9.80059	0.551
9.83484	0.548
9.86908	0.5566
9.90333	0.582
9.93757	0.6135
9.97182	0.6401
10.0061	0.6686
10.0403	0.6739
10.0746	0.6915
10.1088	0.7071
10.143	0.711
10.1773	0.7183
10.2115	0.7217
10.2458	0.7317
10.28	0.73
10.3143	0.7307
10.3485	0.726
10.3828	0.7169
10.417	0.7067
10.4512	0.701
10.4855	0.7012
10.5197	0.7094
10.554	0.718
10.5882	0.7236
10.6225	0.7284
10.6567	0.7302
10.691	0.738
10.7252	0.7386
10.7595	0.74
10.7937	0.742
10.8279	0.742
10.8622	0.74
10.8964	0.74
10.9307	0.74
10.9649	0.74
10.9992	0.742
11.0334	0.742
11.0677	0.74
11.1019	0.742
11.1361	0.74
11.1704	0.74
11.2046	0.742
11.2389	0.742
11.2731	0.742
11.3074	0.74
11.3416	0.738
11.3759	0.738
11.4101	0.7278
11.4443	0.725
11.4786	0.7206
11.5128	0.7037
11.5471	0.6926
11.5813	0.6688
11.6156	0.6443
11.6498	0.6174
11.6841	0.604
11.7183	0.6251
11.7526	0.6597
11.7868	0.6768
11.821	0.699
11.8553	0.7071
11.8895	0.714
11.9238	0.713
11.958	0.713
11.9923	0.7089
12.0265	0.6969
12.0608	0.6748
12.095	0.6637
12.1292	0.659
12.1635	0.659
12.1977	0.6642
12.232	0.6701
12.2662	0.673
12.3005	0.682
12.3347	0.6854
12.369	0.695
12.4032	0.697
12.4375	0.6989
12.4717	0.701
12.5059	0.699
12.5402	0.699
12.5744	0.697
12.6087	0.682
12.6429	0.6711
12.6772	0.67
12.7114	0.67
12.7457	0.668
12.7799	0.6661
12.8141	0.659
12.8484	0.6469
12.8826	0.634
12.9169	0.6211
12.9511	0.6039
12.9854	0.592
13.0196	0.5791
13.0539	0.5492
13.0881	0.53
13.1223	0.529
13.1566	0.5505
13.1908	0.5786
13.2251	0.6211
13.2593	0.651
13.2936	0.6629
13.3278	0.666
13.3621	0.668
13.3963	0.67
13.4306	0.673
13.4648	0.673
13.499	0.673
13.5333	0.671
13.5675	0.6711
13.6018	0.6701
13.636	0.6683
13.6703	0.668
13.7045	0.6681
13.7388	0.664
13.773	0.663
13.8072	0.664
13.8415	0.6592
13.8757	0.658
13.91	0.6563
13.9442	0.6523
13.9785	0.647
14.0127	0.646
14.047	0.6403
14.0812	0.635
14.1155	0.632
14.1497	0.628
14.1839	0.6205
14.2182	0.616
14.2524	0.6164
14.2867	0.615
14.3209	0.6077
14.3552	0.609
14.3894	0.6014
14.4237	0.5962
14.4579	0.594
14.4921	0.5923
14.5264	0.589
14.5606	0.587
14.5949	0.5823
14.6291	0.575
14.6634	0.5672
14.6976	0.558
14.7319	0.5465
14.7661	0.541
14.8003	0.5329
14.8346	0.5225
14.8688	0.515
14.9031	0.5227
14.9373	0.5285
14.9716	0.5488
15.0058	0.5384
15.0401	0.5
15.0743	0.5007
15.1086	0.5095
15.1428	0.51
15.177	0.51
15.2113	0.5085
15.2455	0.505
15.2798	0.498
15.314	0.496
15.3483	0.4915
15.3825	0.489
15.4168	0.4863
15.451	0.482
