Infrared Spectrum: N-Benzylamineoacetaldehyde diethylacetal
Formula: C 13 H 21 N O 2
CAS: 61190-10-1
State: gas
Origin: EPA-IR VAPOR PHASE LIBRARY
1/CM	ABSORBANCE
551.7	0.00599
563.274	0.0064
574.848	0.00654
586.421	0.00685
597.995	0.00714
609.569	0.00708
621.143	0.00618
632.717	0.0064
644.291	0.00712
655.864	0.00872
667.438	0.01151
679.012	0.01615
690.586	0.02846
702.16	0.03296
713.734	0.02575
725.307	0.02624
736.881	0.03182
748.455	0.02234
760.029	0.01323
771.603	0.00899
783.177	0.00798
794.75	0.00858
806.324	0.00918
817.898	0.00918
829.472	0.00847
841.046	0.00937
852.619	0.00998
864.193	0.00806
875.767	0.00729
887.341	0.00781
898.915	0.0096
910.489	0.01119
922.062	0.01182
933.636	0.0118
945.21	0.01177
956.784	0.01232
968.358	0.01517
979.932	0.02121
991.505	0.03006
1003.08	0.03598
1014.65	0.03681
1026.23	0.04282
1037.8	0.05118
1049.37	0.08348
1060.95	0.11737
1072.52	0.11594
1084.1	0.10029
1095.67	0.09145
1107.24	0.09378
1118.82	0.12111
1130.39	0.12781
1141.97	0.09141
1153.54	0.05923
1165.11	0.04247
1176.69	0.03252
1188.26	0.0251
1199.83	0.02103
1211.41	0.01693
1222.98	0.01468
1234.56	0.01426
1246.13	0.01348
1257.7	0.01297
1269.28	0.01304
1280.85	0.01402
1292.42	0.01599
1304	0.01736
1315.57	0.0171
1327.15	0.01739
1338.72	0.02279
1350.29	0.02766
1361.87	0.02373
1373.44	0.02977
1385.02	0.02806
1396.59	0.01871
1408.16	0.0135
1419.74	0.01164
1431.31	0.01342
1442.88	0.02066
1454.46	0.03263
1466.03	0.02844
1477.61	0.01637
1489.18	0.0144
1500.75	0.01168
1512.33	0.00515
1523.9	0.00389
1535.48	0.00342
1547.05	0.00296
1558.62	0.00279
1570.2	0.003
1581.77	0.00355
1593.34	0.00479
1604.92	0.00536
1616.49	0.00318
1628.07	0.0024
1639.64	0.00223
1651.21	0.00219
1662.79	0.00212
1674.36	0.00202
1685.93	0.00194
1697.51	0.00196
1709.08	0.00196
1720.66	0.00201
1732.23	0.00209
1743.8	0.00212
1755.38	0.00201
1766.95	0.0021
1778.53	0.00235
1790.1	0.00299
1801.67	0.00323
1813.25	0.00237
1824.82	0.00206
1836.39	0.00204
1847.97	0.00227
1859.54	0.00268
1871.12	0.0029
1882.69	0.00274
1894.26	0.00244
1905.84	0.00246
1917.41	0.0027
1928.99	0.00323
1940.56	0.00375
1952.13	0.00372
1963.71	0.00277
1975.28	0.00232
1986.85	0.00211
1998.43	0.00183
2010	0.00166
2021.58	0.00149
2033.15	0.00136
2044.72	0.00124
2056.3	0.00119
2067.87	0.00118
2079.44	0.00119
2091.02	0.00122
2102.59	0.00119
2114.17	0.00119
2125.74	0.00122
2137.31	0.00126
2148.89	0.00129
2160.46	0.00127
2172.04	0.00122
2183.61	0.00122
2195.18	0.00118
2206.76	0.00114
2218.33	0.00109
2229.9	0.00111
2241.48	0.00106
2253.05	0.00109
2264.63	0.00107
2276.2	0.00103
2287.77	0.0009678
2299.35	0.0009869
2310.92	0.00104
2322.5	0.0009031
2334.07	0.0008967
2345.64	0.0008807
2357.22	0.0008382
2368.79	0.0008032
2380.36	0.000852
2391.94	0.0008894
2403.51	0.0009582
2415.09	0.0009809
2426.66	0.0009728
2438.23	0.0009702
2449.81	0.0009039
2461.38	0.0008528
2472.96	0.0008098
2484.53	0.0007692
2496.1	0.0008019
2507.68	0.0008137
2519.25	0.0008339
2530.82	0.000884
2542.4	0.0009448
2553.97	0.00107
2565.55	0.00116
2577.12	0.00133
2588.69	0.00164
2600.27	0.00195
2611.84	0.00221
2623.41	0.0025
2634.99	0.00265
2646.56	0.00278
2658.14	0.00292
2669.71	0.00317
2681.28	0.00338
2692.86	0.00371
2704.43	0.00413
2716.01	0.00446
2727.58	0.00493
2739.15	0.00566
2750.73	0.00669
2762.3	0.00786
2773.87	0.00951
2785.45	0.01211
2797.02	0.0158
2808.6	0.01986
2820.17	0.02486
2831.74	0.0306
2843.32	0.03512
2854.89	0.03862
2866.47	0.04422
2878.04	0.05339
2889.61	0.05605
2901.19	0.05531
2912.76	0.0592
2924.33	0.06048
2935.91	0.0629
2947.48	0.05395
2959.06	0.0435
2970.63	0.04907
2982.2	0.06786
2993.78	0.03974
3005.35	0.02238
3016.92	0.02025
3028.5	0.02579
3040.07	0.02195
3051.65	0.01604
3063.22	0.02152
3074.79	0.02343
3086.37	0.01445
3097.94	0.00964
3109.52	0.00631
3121.09	0.00363
3132.66	0.00232
3144.24	0.00191
3155.81	0.00181
3167.38	0.00173
3178.96	0.00143
3190.53	0.0013
3202.11	0.00121
3213.68	0.0011
3225.25	0.0008782
3236.83	0.0007594
3248.4	0.0006548
3259.98	0.0005504
3271.55	0.0005951
3283.12	0.0006063
3294.7	0.000562
3306.27	0.0005739
3317.84	0.00065
3329.42	0.0006809
3340.99	0.00111
3352.57	0.00158
3364.14	0.00167
3375.71	0.00161
3387.29	0.00132
3398.86	0.00107
3410.43	0.0009089
3422.01	0.0007598
3433.58	0.0006108
3445.16	0.0006343
3456.73	0.0005647
3468.3	0.0004645
3479.88	0.0004966
3491.45	0.0005138
3503.03	0.0004273
3514.6	0.0003781
3526.17	0.0004504
3537.75	0.0003819
3549.32	0.0003478
3560.89	0.0003395
3572.47	0.000383
3584.04	0.0003961
3595.62	0.0003498
3607.19	0.0004035
3618.76	0.000423
3630.34	0.0004106
3641.91	0.0005372
3653.49	0.0005318
3665.06	0.0005312
3676.63	0.0005562
3688.21	0.0005379
3699.78	0.0005847
3711.35	0.0005579
3722.93	0.000511
3734.5	0.0005153
3746.08	0.0004663
3757.65	0.00044
3769.22	0.0004892
3780.8	0.0005071
3792.37	0.0005905
3803.94	0.0005004
3815.52	0.0005305
3827.09	0.000579
3838.67	0.0004968
3850.24	0.0005834
3861.81	0.0005804
3873.39	0.000577
3884.96	0.0005843
3896.54	0.0005712
3908.11	0.0006561
3919.68	0.0005753
3931.26	0.0007946
3942.83	0.0008258
3954.4	0.0007969
3965.98	0.0008374
3977.55	0.0009135
3989.13	0.00106
4000.7	0.00111
