Infrared Spectrum: 1,3-CYCLOBUTANEDIIMINE, N,N'-DICYCLOHEXYL-2,2,4,4-TETRAMETHYL
Formula: C20 H34 N2
CAS: 61191-44-4
State: SOLID (KBr PELLET)
Melting point: 152 C
Class: COBLENTZ
Instrument: Not specified, most likely a prism, grating, or hybrid spectrometer.
Sampling: TRANSMISSION
Resolution: 4
Origin: TENNESSEE EASTMAN COMPANY, RESEARCH LABORATORIES
MICROMETERS	TRANSMITTANCE
2.034	0.971
2.07491	0.976
2.11583	0.979
2.15674	0.976
2.19766	0.971
2.23857	0.969
2.27949	0.96
2.3204	0.957
2.36132	0.959
2.40223	0.962
2.44315	0.962
2.48406	0.964
2.52498	0.964
2.56589	0.962
2.60681	0.962
2.64772	0.962
2.68864	0.962
2.72955	0.954
2.77047	0.906
2.81138	0.867
2.8523	0.834
2.89321	0.81
2.93413	0.798
2.97504	0.844
3.01595	0.873
3.05687	0.902
3.09778	0.918
3.1387	0.931
3.17961	0.942
3.22053	0.95
3.26144	0.95
3.30236	0.94
3.34327	0.752
3.38419	0.124
3.4251	0.286
3.46602	0.332
3.50693	0.587
3.54785	0.816
3.58876	0.838
3.62968	0.863
3.67059	0.873
3.71151	0.87
3.75242	0.867
3.79334	0.844
3.83425	0.868
3.87516	0.875
3.91608	0.884
3.95699	0.894
3.99791	0.899
4.03882	0.899
4.07974	0.899
4.12065	0.904
4.16157	0.906
4.20248	0.911
4.2434	0.918
4.28431	0.914
4.32523	0.913
4.36614	0.926
4.40706	0.938
4.44797	0.943
4.48889	0.945
4.5298	0.95
4.57072	0.947
4.61163	0.948
4.65255	0.95
4.69346	0.95
4.73438	0.95
4.77529	0.95
4.8162	0.948
4.85712	0.948
4.89803	0.942
4.93895	0.945
4.97986	0.947
5.02078	0.952
5.06169	0.943
5.10261	0.948
5.14352	0.948
5.18444	0.947
5.22535	0.947
5.26627	0.948
5.30718	0.948
5.3481	0.943
5.38901	0.943
5.42993	0.943
5.47084	0.94
5.51176	0.942
5.55267	0.94
5.59359	0.935
5.6345	0.925
5.67541	0.913
5.71633	0.892
5.75724	0.863
5.79816	0.851
5.83907	0.853
5.87999	0.798
5.9209	0.674
5.96182	0.098
6.00273	0.574
6.04365	0.747
6.08456	0.824
6.12548	0.843
6.16639	0.844
6.20731	0.87
6.24822	0.887
6.28914	0.909
6.33005	0.902
6.37097	0.908
6.41188	0.882
6.4528	0.894
6.49371	0.875
6.53463	0.884
6.57554	0.872
6.61645	0.873
6.65737	0.882
6.69828	0.872
6.7392	0.875
6.78011	0.802
6.82103	0.613
6.86194	0.277
6.90286	0.429
6.94377	0.795
6.98469	0.836
7.0256	0.843
7.06652	0.875
7.10743	0.877
7.14835	0.863
7.18926	0.858
7.23018	0.754
7.27109	0.802
7.31201	0.776
7.35292	0.502
7.39384	0.797
7.43475	0.732
7.47567	0.839
7.51658	0.868
7.55749	0.882
7.59841	0.872
7.63932	0.831
7.68024	0.873
7.72115	0.89
7.76207	0.88
7.80298	0.802
7.8439	0.739
7.88481	0.834
7.92573	0.833
7.96664	0.751
8.00756	0.855
8.04847	0.8
8.08939	0.838
8.1303	0.879
8.17122	0.88
8.21213	0.875
8.25305	0.873
8.29396	0.856
8.33488	0.804
8.37579	0.679
8.4167	0.623
8.45762	0.608
8.49853	0.727
8.53945	0.802
8.58036	0.827
8.62128	0.822
8.66219	0.771
8.70311	0.804
8.74402	0.836
8.78494	0.846
8.82585	0.85
8.86677	0.85
8.90768	0.85
8.9486	0.85
8.98951	0.844
9.03043	0.839
9.07134	0.839
9.11226	0.839
9.15317	0.839
9.19409	0.826
9.235	0.781
9.27592	0.625
9.31683	0.386
9.35774	0.662
9.39866	0.787
9.43957	0.812
9.48049	0.8
9.5214	0.645
9.56232	0.616
9.60323	0.773
9.64415	0.809
9.68506	0.764
9.72598	0.807
9.76689	0.838
9.80781	0.848
9.84872	0.86
9.88964	0.873
9.93055	0.882
9.97147	0.882
10.0124	0.882
10.0533	0.884
10.0942	0.887
10.1351	0.892
10.176	0.894
10.217	0.894
10.2579	0.887
10.2988	0.865
10.3397	0.797
10.3806	0.657
10.4215	0.681
10.4624	0.79
10.5034	0.841
10.5443	0.863
10.5852	0.877
10.6261	0.885
10.667	0.897
10.7079	0.906
10.7488	0.913
10.7898	0.914
10.8307	0.914
10.8716	0.916
10.9125	0.919
10.9534	0.93
10.9943	0.931
11.0353	0.928
11.0762	0.911
11.1171	0.85
11.158	0.792
11.1989	0.628
11.2398	0.795
11.2807	0.89
11.3217	0.918
11.3626	0.926
11.4035	0.931
11.4444	0.936
11.4853	0.943
11.5262	0.945
11.5671	0.94
11.6081	0.938
11.649	0.936
11.6899	0.938
11.7308	0.936
11.7717	0.858
11.8126	0.821
11.8535	0.877
11.8945	0.887
11.9354	0.89
11.9763	0.919
12.0172	0.931
12.0581	0.933
12.099	0.93
12.1399	0.931
12.1809	0.93
12.2218	0.928
12.2627	0.928
12.3036	0.928
12.3445	0.926
12.3854	0.925
12.4264	0.919
12.4673	0.911
12.5082	0.885
12.5491	0.807
12.59	0.821
12.6309	0.863
12.6718	0.892
12.7128	0.897
12.7537	0.902
12.7946	0.908
12.8355	0.909
12.8764	0.911
12.9173	0.902
12.9582	0.872
12.9992	0.838
13.0401	0.863
13.081	0.889
13.1219	0.901
13.1628	0.911
13.2037	0.916
13.2446	0.918
13.2856	0.916
13.3265	0.916
13.3674	0.913
13.4083	0.908
13.4492	0.908
13.4901	0.909
13.5311	0.908
13.572	0.904
13.6129	0.882
13.6538	0.879
13.6947	0.89
13.7356	0.892
13.7765	0.892
13.8175	0.892
13.8584	0.894
13.8993	0.894
13.9402	0.896
13.9811	0.896
14.022	0.897
14.0629	0.897
14.1039	0.894
14.1448	0.889
14.1857	0.882
14.2266	0.882
14.2675	0.879
14.3084	0.875
14.3493	0.87
14.3903	0.87
14.4312	0.868
14.4721	0.868
14.513	0.865
14.5539	0.858
14.5948	0.853
14.6358	0.844
14.6767	0.841
14.7176	0.839
14.7585	0.834
14.7994	0.826
14.8403	0.821
14.8812	0.812
14.9222	0.795
14.9631	0.771
15.004	0.763
15.0449	0.764
15.0858	0.764
15.1267	0.759
15.1676	0.747
15.2086	0.732
15.2495	0.725
15.2904	0.718
15.3313	0.703
15.3722	0.695
15.4131	0.688
15.454	0.683
15.495	0.676
15.5359	0.669
15.5768	0.66
15.6177	0.652
15.6586	0.649
15.6995	0.642
15.7404	0.638
15.7814	0.633
15.8223	0.625
15.8632	0.62
15.9041	0.611
15.945	0.609
