Infrared Spectrum: 2,2'-Binaphthyl
Formula: C 20 H 14
CAS: 612-78-2
State: gas
Instrument: HP-GC/MS/IRD
Origin: NIST Mass Spectrometry Data Center
1/CM	ABSORBANCE
550	0.0002159
562	0.000153
574	0.0001309
586	0.0002006
598	0.0002057
610	0.0002635
622	0.0016048
634	0.0006494
646	0.0003468
658	0.0002618
670	0.0002839
682	0.0002074
694	0.00034
706	0.0006426
718	0.0012478
730	0.0067592
742	0.0091222
754	0.0025177
766	0.0014144
778	0.001054
790	0.0020128
802	0.0092021
814	0.0103547
826	0.0029665
838	0.0027336
850	0.0058922
862	0.002346
874	0.0011101
886	0.0023885
898	0.0016201
910	0.0006137
922	0.000544
934	0.0023358
946	0.0017255
958	0.0009843
970	0.0003468
982	0.0002057
994	0.0002431
1006	0.000629
1018	0.0013192
1030	0.0002244
1042	0.0001071
1054	3.23e-05
1066	4.93e-05
1078	6.8e-05
1090	4.42e-05
1102	9.18e-05
1114	0.0002703
1126	0.0012342
1138	0.0017663
1150	0.0008534
1162	0.0006511
1174	0.0002907
1186	0.0006511
1198	0.0008925
1210	0.000527
1222	0.000595
1234	0.0008364
1246	0.000612
1258	0.0007174
1270	0.0012546
1282	0.0004573
1294	0.0002159
1306	0.0002958
1318	0.0004216
1330	0.0005797
1342	0.0006341
1354	0.0006749
1366	0.0006443
1378	0.0005899
1390	0.0003536
1402	0.0003417
1414	0.0003961
1426	0.0007905
1438	0.0006086
1450	0.0007004
1462	0.0009486
1474	0.0007446
1486	0.0012954
1498	0.0039576
1510	0.0027336
1522	0.0005729
1534	0.0004675
1546	0.0005338
1558	0.0005984
1570	0.0007344
1582	0.0014484
1594	0.0042891
1606	0.0017187
1618	0.001564
1630	0.0027676
1642	0.0010455
1654	0.0006919
1666	0.0006596
1678	0.0008024
1690	0.0007973
1702	0.0006681
1714	0.00051
1726	0.0004879
1738	0.0005763
1750	0.0008687
1762	0.000867
1774	0.0007786
1786	0.000816
1798	0.0006681
1810	0.0006205
1822	0.0006817
1834	0.0004199
1846	0.0003791
1858	0.0002754
1870	0.0002193
1882	0.0004114
1894	0.0007446
1906	0.0010013
1918	0.0008534
1930	0.0007429
1942	0.0010625
1954	0.0002125
1966	0.0001037
1978	8.33e-05
1990	9.18e-05
2002	0.0001054
2014	8.5e-05
2026	0.0001122
2038	0.0001037
2050	8.84e-05
2062	6.8e-05
2074	0.0001054
2086	7.31e-05
2098	7.99e-05
2110	9.52e-05
2122	6.29e-05
2134	6.12e-05
2146	6.63e-05
2158	3.23e-05
2170	6.46e-05
2182	4.25e-05
2194	5.78e-05
2206	7.14e-05
2218	5.78e-05
2230	7.65e-05
2242	5.95e-05
2254	7.65e-05
2266	0.0001088
2278	0.0001598
2290	0.0001989
2302	0.0001853
2314	0.0001139
2326	0.0001241
2338	0.0001071
2350	9.01e-05
2362	9.69e-05
2374	7.14e-05
2386	9.01e-05
2398	9.52e-05
2410	0.000102
2422	9.35e-05
2434	0.0001258
2446	0.000102
2458	7.65e-05
2470	7.82e-05
2482	6.97e-05
2494	8.5e-05
2506	8.67e-05
2518	0.0001054
2530	7.14e-05
2542	4.93e-05
2554	4.76e-05
2566	6.63e-05
2578	5.78e-05
2590	4.08e-05
2602	6.97e-05
2614	4.93e-05
2626	7.14e-05
2638	3.91e-05
2650	3.23e-05
2662	3.74e-05
2674	3.91e-05
2686	6.97e-05
2698	8.84e-05
2710	5.95e-05
2722	5.61e-05
2734	1.7e-05
2746	6.8e-05
2758	1.7e-05
2770	5.95e-05
2782	7.14e-05
2794	6.12e-05
2806	8.84e-05
2818	5.44e-05
2830	5.1e-05
2842	6.29e-05
2854	8.5e-05
2866	0.0001139
2878	0.0001564
2890	0.0001802
2902	0.0002499
2914	0.0003162
2926	0.0004029
2938	0.0005168
2950	0.000612
2962	0.0007752
2974	0.0008789
2986	0.001037
2998	0.0014178
3010	0.0022865
3022	0.0045356
3034	0.0040851
3046	0.0061183
3058	0.0148597
3070	0.0133484
3082	0.006443
3094	0.0024412
3106	0.0013226
3118	0.0007021
3130	0.0004148
3142	0.0002873
3154	0.000238
3166	0.0001836
3178	0.0001989
3190	0.0001394
3202	0.0001292
3214	0.0001462
3226	0.0001326
3238	0.0001224
3250	4.59e-05
3262	9.35e-05
3274	8.5e-05
3286	4.93e-05
3298	2.38e-05
3310	3.91e-05
3322	8.5e-05
3334	5.95e-05
3346	7.99e-05
3358	6.63e-05
3370	7.48e-05
3382	3.06e-05
3394	0.0001088
3406	6.29e-05
3418	0.000102
3430	5.95e-05
3442	4.76e-05
3454	0.0001105
3466	8.33e-05
3478	8.67e-05
3490	8.84e-05
3502	8.33e-05
3514	9.52e-05
3526	0.0001564
3538	9.52e-05
3550	0.0001479
3562	7.82e-05
3574	0.0001258
3586	0.00017
3598	0.0001938
3610	7.31e-05
3622	8.84e-05
3634	0.0001683
3646	0.0001156
3658	0.0001649
3670	0.0001581
3682	0.0001649
3694	0.0001649
3706	0.0001462
3718	0.0001462
3730	0.0001853
3742	0.0001683
3754	0.0001037
3766	0.0001224
3778	0.0001309
3790	0.0001292
3802	0.0001156
3814	0.0001581
3826	0.0001632
3838	0.000187
