Infrared Spectrum: 1,3,5-Triphenylbenzene
Formula: C 24 H 18
CAS: 612-71-5
State: gas
Instrument: HP-GC/MS/IRD
Origin: NIST Mass Spectrometry Data Center
1/CM	ABSORBANCE
550	7.28e-05
562	0.0001582
574	0.000469
586	0.0002128
598	0.000322
610	0.0032956
622	0.0030968
634	0.001344
646	0.0006482
658	0.0010612
670	0.0019908
682	0.0026348
694	0.011564
706	0.007084
718	0.0036428
730	0.0027048
742	0.004473
754	0.014
766	0.004557
778	0.0015134
790	0.0008974
802	0.000742
814	0.0006832
826	0.0008428
838	0.0002758
850	0.0003052
862	0.0005838
874	0.0020118
886	0.0018074
898	0.0004312
910	0.0003948
922	0.0001862
934	0.0001274
946	0.0001008
958	0.0002226
970	0.0002366
982	0.00035
994	0.000399
1006	0.0003528
1018	0.000665
1030	0.0026684
1042	0.0005502
1054	0.0004144
1066	0.001092
1078	0.0009212
1090	0.0005264
1102	0.0002814
1114	0.0001666
1126	4.2e-05
1138	5.6e-06
1150	3.5e-05
1162	3.5e-05
1174	0.00035
1186	0.000511
1198	7.98e-05
1210	0.0001358
1222	0.0001876
1234	0.0004774
1246	0.0008666
1258	0.0003416
1270	0.0002296
1282	0.0001638
1294	0.0002212
1306	0.0003598
1318	0.0003206
1330	0.00035
1342	0.0002184
1354	0.000231
1366	0.0003402
1378	0.000525
1390	0.000595
1402	0.0017738
1414	0.0043638
1426	0.001085
1438	0.000812
1450	0.0014938
1462	0.0015204
1474	0.0013174
1486	0.002247
1498	0.0077462
1510	0.0016646
1522	0.0008652
1534	0.0008386
1546	0.0007658
1558	0.0011424
1570	0.003129
1582	0.0068362
1594	0.0119644
1606	0.0027552
1618	0.0010108
1630	0.000525
1642	0.0004088
1654	0.0003934
1666	0.0004774
1678	0.000413
1690	0.0002002
1702	0.0001806
1714	0.0002156
1726	0.0003178
1738	0.0004452
1750	0.00049
1762	0.0005306
1774	0.0008106
1786	0.0009702
1798	0.0010318
1810	0.0005908
1822	0.0003682
1834	0.0002408
1846	0.0002338
1858	0.0003136
1870	0.0005418
1882	0.0006286
1894	0.0005026
1906	0.0002016
1918	0.0002296
1930	0.0004298
1942	0.0008246
1954	0.0007826
1966	0.0002632
1978	0.0001246
1990	0.0001008
2002	6.58e-05
2014	5.18e-05
2026	5.18e-05
2038	3.64e-05
2050	3.92e-05
2062	3.36e-05
2074	2.8e-05
2086	3.5e-05
2098	1.96e-05
2110	1.12e-05
2122	3.5e-05
2134	2.38e-05
2146	3.22e-05
2158	4.9e-05
2170	5.04e-05
2182	5.74e-05
2194	4.9e-05
2206	4.76e-05
2218	5.18e-05
2230	3.92e-05
2242	3.78e-05
2254	6.3e-05
2266	3.08e-05
2278	4.76e-05
2290	5.32e-05
2302	5.32e-05
2314	0.0001946
2326	8.26e-05
2338	0.000119
2350	7.14e-05
2362	7.56e-05
2374	8.26e-05
2386	5.74e-05
2398	6.44e-05
2410	4.62e-05
2422	7.56e-05
2434	5.74e-05
2446	4.48e-05
2458	3.78e-05
2470	2.1e-05
2482	4.48e-05
2494	4.48e-05
2506	3.5e-05
2518	3.22e-05
2530	5.74e-05
2542	2.38e-05
2554	4.9e-05
2566	3.5e-05
2578	4.62e-05
2590	9.8e-05
2602	0.0001134
2614	0.0001022
2626	8.96e-05
2638	8.12e-05
2650	4.76e-05
2662	3.36e-05
2674	3.08e-05
2686	2.66e-05
2698	4.9e-05
2710	3.78e-05
2722	1.82e-05
2734	3.78e-05
2746	2.1e-05
2758	3.5e-05
2770	1.96e-05
2782	6.58e-05
2794	5.88e-05
2806	7.84e-05
2818	8.4e-05
2830	0.0001134
2842	0.0001358
2854	0.0001246
2866	0.000175
2878	0.0001274
2890	0.0001456
2902	0.0001988
2914	0.000196
2926	0.0001876
2938	0.0002436
2950	0.0002142
2962	0.0002184
2974	0.0002618
2986	0.0004494
2998	0.0007
3010	0.001274
3022	0.0025256
3034	0.0065954
3046	0.005978
3058	0.0068124
3070	0.011403
3082	0.0062244
3094	0.0038108
3106	0.002247
3118	0.0012586
3130	0.0004746
3142	0.0003472
3154	0.0002828
3166	0.0001428
3178	0.0001274
3190	4.48e-05
3202	7.84e-05
3214	8.68e-05
3226	7.42e-05
3238	1.96e-05
3250	2.52e-05
3262	1.4e-05
3274	4.06e-05
3286	3.36e-05
3298	2.52e-05
3310	4.62e-05
3322	6.02e-05
3334	7.42e-05
3346	4.2e-06
3358	2.38e-05
3370	4.34e-05
3382	2.66e-05
3394	7.7e-05
3406	5.04e-05
3418	4.48e-05
3430	4.62e-05
3442	4.06e-05
3454	3.22e-05
3466	2.66e-05
3478	3.64e-05
3490	5.32e-05
3502	4.62e-05
3514	3.5e-05
3526	4.34e-05
3538	2.52e-05
3550	3.78e-05
3562	4.06e-05
3574	2.38e-05
3586	4.48e-05
3598	2.66e-05
3610	7.14e-05
3622	7e-05
3634	9.24e-05
3646	7.98e-05
3658	8.26e-05
3670	0.0001162
3682	9.8e-05
3694	0.0001162
3706	5.6e-05
3718	8.4e-05
3730	2.1e-05
3742	8.12e-05
3754	6.58e-05
3766	7e-05
3778	7.84e-05
3790	3.22e-05
3802	8.26e-05
3814	3.78e-05
3826	1.54e-05
3838	2.38e-05
