Infrared Spectrum: ETHANE, 1,1-DIPHENYL-
Formula: C14 H14
CAS: 612-00-0
State: SOLUTION (10% IN CCl4 FOR 3800-1333, 10% IN CS2 FOR 1333-450 CM^-^1)
Class: COBLENTZ III
Instrument: DOW KBr FOREPRISM-GRATING
Instrument parameters: BLAZED AT 3.5, 12.0, 20.0 MICRON, CHANGED AT 5.0, 7.5, 14.9 MICRON
Sampling: TRANSMISSION
Path length: 0.012, 0.012 CM
Resolution: 4
Origin: DOW CHEMICAL COMPANY
1/CM	TRANSMITTANCE
446.926	0.88
455.627	0.865
464.327	0.859
473.028	0.893
481.729	0.935
490.43	0.955
499.13	0.963
507.831	0.967
516.532	0.961
525.232	0.934
533.933	0.792
542.634	0.41
551.335	0.816
560.035	0.952
568.736	0.937
577.437	0.7081
586.137	0.979
594.838	0.993
603.539	0.965
612.24	0.5011
620.94	0.938
629.641	0.8071
638.342	0.959
647.042	0.942
655.743	0.922
664.444	0.948
673.144	0.851
681.845	0.739
690.546	0.14
699.247	0.009
707.947	0.551
716.648	0.745
725.349	0.343
734.049	0.581
742.75	0.538
751.451	0.119
760.152	0.591
768.852	0.711
777.553	0.54
786.254	0.568
794.954	0.854
803.655	0.919
812.356	0.919
821.057	0.971
829.757	0.956
838.458	0.891
847.159	0.832
855.859	0.798
864.56	0.835
873.261	0.867
881.962	0.897
890.662	0.929
899.363	0.889
908.064	0.7
916.764	0.964
925.465	0.986
934.166	0.994
942.867	0.991
951.567	0.978
960.268	0.955
968.969	0.931
977.669	0.856
986.37	0.949
995.071	0.957
1003.77	0.918
1012.47	0.901
1021.17	0.6259
1029.87	0.658
1038.57	0.87
1047.28	0.848
1055.98	0.777
1064.68	0.905
1073.38	0.869
1082.08	0.905
1090.78	0.837
1099.48	0.935
1108.18	0.904
1116.88	0.957
1125.58	1.004
1134.28	0.997
1142.98	0.974
1151.68	0.927
1160.38	0.926
1169.09	0.95
1177.79	0.901
1186.49	0.895
1195.19	0.942
1203.89	0.972
1212.59	0.995
1221.29	1
1229.99	1.002
1238.69	0.98
1247.39	0.965
1256.09	0.948
1264.79	0.915
1273.49	0.944
1282.19	0.896
1290.9	0.891
1299.6	0.863
1308.3	0.941
1317	0.937
1325.7	0.911
1334.4	0.918
1343.1	0.911
1351.8	0.95
1360.5	0.95
1369.2	0.915
1377.9	0.6771
1386.6	0.892
1395.3	0.953
1404	0.961
1412.7	0.95
1421.41	0.938
1430.11	0.919
1438.81	0.851
1447.51	0.5238
1456.21	0.262
1464.91	0.6371
1473.61	0.848
1482.31	0.818
1491.01	0.5268
1499.71	0.1732
1508.41	0.724
1517.11	0.708
1525.81	0.674
1534.51	0.589
1543.22	0.482
1551.92	0.465
1560.62	0.516
1569.32	0.602
1578.02	0.587
1586.72	0.576
1595.42	0.557
1604.12	0.4593
1612.82	0.7941
1621.52	0.908
1630.22	0.931
1638.92	0.938
1647.62	0.945
1656.32	0.946
1665.03	0.944
1673.73	0.964
1682.43	0.961
1691.13	0.925
1699.83	0.96
1708.53	0.976
1717.23	0.98
1725.93	0.978
1734.63	0.963
1743.33	0.931
1752.03	0.926
1760.73	0.97
1769.43	0.976
1778.13	0.975
1786.84	0.975
1795.54	0.941
1804.24	0.866
1812.94	0.934
1821.64	0.941
1830.34	0.978
1839.04	0.987
1847.74	0.985
1856.44	0.975
1865.14	0.937
1873.84	0.865
1882.54	0.923
1891.24	0.922
1899.94	0.979
1908.65	0.987
1917.35	0.987
1926.05	0.979
1934.75	0.95
1943.45	0.828
1952.15	0.931
1960.85	0.926
1969.55	0.976
1978.25	0.987
1986.95	0.974
1995.65	0.978
2004.35	0.982
2013.05	0.983
2021.75	0.9801
2030.46	0.9844
2039.16	0.989
2047.86	0.9896
2056.56	0.986
2065.26	0.991
2073.96	0.993
2082.66	0.9934
2091.36	0.994
2100.06	0.9923
2108.76	0.994
2117.46	0.995
2126.16	0.994
2134.86	0.993
2143.56	0.991
2152.27	0.993
2160.97	0.9916
2169.67	0.9925
2178.37	0.991
2187.07	0.99
2195.77	0.9915
2204.47	0.993
2213.17	0.993
2221.87	0.99
2230.57	0.987
2239.27	0.985
2247.97	0.9847
2256.67	0.979
2265.37	0.9759
2274.08	0.9709
2282.78	0.963
2291.48	0.959
2300.18	0.9591
2308.88	0.963
2317.58	0.938
2326.28	0.964
2334.98	0.9668
2343.68	0.955
2352.38	0.9651
2361.08	0.972
2369.78	0.975
2378.48	0.979
2387.18	0.979
2395.89	0.983
2404.59	0.985
2413.29	0.983
2421.99	0.982
2430.69	0.983
2439.39	0.985
2448.09	0.985
2456.79	0.987
2465.49	0.987
2474.19	0.9851
2482.89	0.985
2491.59	0.985
2500.29	0.985
2508.99	0.983
2517.7	0.983
2526.4	0.983
2535.1	0.9846
2543.8	0.983
2552.5	0.9845
2561.2	0.9835
2569.9	0.9805
2578.6	0.976
2587.3	0.9787
2596	0.9766
2604.7	0.9747
2613.4	0.982
2622.1	0.9793
2630.8	0.9743
2639.51	0.9786
2648.21	0.982
2656.91	0.986
2665.61	0.985
2674.31	0.985
2683.01	0.9866
2691.71	0.987
2700.41	0.9881
2709.11	0.9864
2717.81	0.983
2726.51	0.9785
2735.21	0.979
2743.91	0.982
2752.61	0.983
2761.32	0.985
2770.02	0.9825
2778.72	0.978
2787.42	0.9755
2796.12	0.975
2804.82	0.976
2813.52	0.9698
2822.22	0.9554
2830.92	0.9512
2839.62	0.9519
2848.32	0.9382
2857.02	0.9041
2865.72	0.8201
2874.42	0.5646
2883.13	0.691
2891.83	0.7357
2900.53	0.7398
2909.23	0.7345
2917.93	0.7767
2926.63	0.6692
2935.33	0.5847
2944.03	0.7752
2952.73	0.7305
2961.43	0.5156
2970.13	0.1992
2978.83	0.3601
2987.53	0.6898
2996.23	0.782
3004.94	0.7485
3013.64	0.7322
3022.34	0.3847
3031.04	0.2692
3039.74	0.58
3048.44	0.6273
3057.14	0.5309
3065.84	0.3924
3074.54	0.589
3083.24	0.5443
3091.94	0.5662
3100.64	0.817
3109.34	0.8242
3118.04	0.933
3126.75	0.961
3135.45	0.97
3144.15	0.9779
3152.85	0.9761
3161.55	0.9712
3170.25	0.9738
3178.95	0.982
3187.65	0.982
3196.35	0.983
3205.05	0.985
3213.75	0.985
3222.45	0.985
3231.15	0.9821
3239.85	0.979
3248.56	0.98
3257.26	0.983
3265.96	0.983
3274.66	0.9804
3283.36	0.979
3292.06	0.982
3300.76	0.98
3309.46	0.98
3318.16	0.9827
3326.86	0.983
3335.56	0.9823
3344.26	0.982
3352.96	0.98
3361.66	0.98
3370.37	0.979
3379.07	0.978
3387.77	0.975
3396.47	0.975
3405.17	0.978
3413.87	0.979
3422.57	0.9796
3431.27	0.9824
3439.97	0.9796
3448.67	0.9856
3457.37	0.9866
3466.07	0.987
3474.77	0.989
3483.47	0.991
3492.18	0.992
3500.88	0.991
3509.58	0.991
3518.28	0.9945
3526.98	1
3535.68	0.995
3544.38	0.9944
3553.08	0.997
3561.78	0.9974
3570.48	1.001
3579.18	0.995
3587.88	0.9992
3596.58	0.9989
3605.28	0.9839
3613.98	0.9853
3622.69	0.994
3631.39	0.991
3640.09	0.989
3648.79	0.991
3657.49	0.9916
3666.19	0.9973
3674.89	0.998
3683.59	0.9925
3692.29	0.9892
3700.99	0.9957
3709.69	0.998
3718.39	0.998
3727.09	1
3735.79	1.001
3744.5	1.002
3753.2	1.001
3761.9	1.001
3770.6	1.001
3779.3	0.998
3788	0.9983
3796.7	1
