Infrared Spectrum: 2-PHENYLNAPHTHALENE
Formula: C16 H12
CAS: 612-94-2
State: SOLID (1.0% IN KBr PELLET)
Class: COBLENTZ
Instrument: Not specified, most likely a prism, grating, or hybrid spectrometer.
Sampling: TRANSMISSION
Path length: 0.0355 CM THICK
Resolution: 4
Origin: ANDERSON PHYSICAL LABORATORY
1/CM	TRANSMITTANCE
673.438	0.668
681.876	0.5732
690.313	0.325
698.751	0.6898
707.188	0.851
715.626	0.89
724.063	0.887
732.501	0.836
740.938	0.683
749.376	0.578
757.813	0.214
766.251	0.5094
774.688	0.2287
783.126	0.8126
791.563	0.989
800.001	0.981
808.438	0.914
816.876	0.803
825.314	0.339
833.751	0.668
842.189	0.797
850.626	0.774
859.064	0.6873
867.501	0.421
875.939	0.8309
884.376	0.848
892.814	0.7021
901.251	0.617
909.689	0.825
918.126	0.816
926.564	0.849
935.001	0.855
943.439	0.839
951.877	0.7611
960.314	0.725
968.752	0.77
977.189	0.749
985.627	0.818
994.064	0.825
1002.5	0.819
1010.94	0.807
1019.38	0.7551
1027.81	0.741
1036.25	0.777
1044.69	0.773
1053.13	0.809
1061.56	0.81
1070	0.806
1078.44	0.764
1086.88	0.717
1095.31	0.779
1103.75	0.78
1112.19	0.764
1120.63	0.773
1129.06	0.756
1137.5	0.635
1145.94	0.768
1154.38	0.77
1162.81	0.749
1171.25	0.716
1179.69	0.725
1188.13	0.765
1196.56	0.762
1205	0.756
1213.44	0.705
1221.88	0.731
1230.32	0.726
1238.75	0.71
1247.19	0.74
1255.63	0.743
1264.07	0.735
1272.5	0.723
1280.94	0.656
1289.38	0.686
1297.82	0.737
1306.25	0.734
1314.69	0.725
1323.13	0.726
1331.57	0.72
1340	0.702
1348.44	0.699
1356.88	0.624
1365.32	0.615
1373.75	0.599
1382.19	0.636
1390.63	0.677
1399.07	0.662
1407.5	0.701
1415.94	0.707
1424.38	0.704
1432.82	0.684
1441.25	0.651
1449.69	0.651
1458.13	0.5641
1466.57	0.433
1475	0.635
1483.44	0.654
1491.88	0.644
1500.32	0.5119
1508.75	0.478
1517.19	0.701
1525.63	0.711
1534.07	0.707
1542.5	0.702
1550.94	0.701
1559.38	0.695
1567.82	0.68
1576.25	0.639
1584.69	0.618
1593.13	0.632
1601.57	0.548
1610	0.5869
1618.44	0.668
1626.88	0.654
1635.32	0.638
1643.75	0.647
1652.19	0.648
1660.63	0.648
1669.07	0.647
1677.5	0.644
1685.94	0.639
1694.38	0.635
1702.82	0.639
1711.25	0.641
1719.69	0.639
1728.13	0.638
1736.57	0.638
1745	0.633
1753.44	0.618
1761.88	0.62
1770.32	0.624
1778.75	0.62
1787.19	0.614
1795.63	0.615
1804.07	0.611
1812.5	0.602
1820.94	0.609
1829.38	0.605
1837.82	0.606
1846.25	0.611
1854.69	0.611
1863.13	0.608
1871.57	0.6
1880	0.596
1888.44	0.59
1896.88	0.588
1905.32	0.587
1913.75	0.587
1922.19	0.582
1930.63	0.573
1939.07	0.573
1947.51	0.57
1955.94	0.56
1964.38	0.564
1972.82	0.575
1981.26	0.584
1989.69	0.585
1998.13	0.585
2006.57	0.587
2015.01	0.587
2023.44	0.5865
2031.88	0.5845
2040.32	0.5786
2048.76	0.576
2057.19	0.5757
2065.63	0.573
2074.07	0.572
2082.51	0.569
2090.94	0.569
2099.38	0.5664
2107.82	0.564
2116.26	0.5625
2124.69	0.5592
2133.13	0.5557
2141.57	0.5541
2150.01	0.5536
2158.44	0.5501
2166.88	0.546
2175.32	0.5431
2183.76	0.542
2192.19	0.541
2200.63	0.5392
2209.07	0.536
2217.51	0.5354
2225.94	0.534
2234.38	0.5332
2242.82	0.53
2251.26	0.53
2259.69	0.528
2268.13	0.527
2276.57	0.5249
2285.01	0.5216
2293.44	0.519
2301.88	0.5162
2310.32	0.5147
2318.76	0.5096
2327.19	0.5077
2335.63	0.506
2344.07	0.5056
2352.51	0.504
2360.94	0.504
2369.38	0.506
2377.82	0.507
2386.26	0.507
2394.69	0.5045
2403.13	0.5
2411.57	0.4974
2420.01	0.4954
2428.44	0.4934
2436.88	0.493
2445.32	0.492
2453.76	0.4894
2462.19	0.487
2470.63	0.486
2479.07	0.484
2487.51	0.483
2495.94	0.481
2504.38	0.4797
2512.82	0.478
2521.26	0.4756
2529.69	0.4721
2538.13	0.4688
2546.57	0.468
2555.01	0.468
2563.44	0.468
2571.88	0.469
2580.32	0.469
2588.76	0.468
2597.19	0.4629
2605.63	0.4584
2614.07	0.457
2622.51	0.457
2630.95	0.456
2639.38	0.4553
2647.82	0.4534
2656.26	0.4513
2664.7	0.451
2673.13	0.451
2681.57	0.4503
2690.01	0.4482
2698.45	0.4467
2706.88	0.4416
2715.32	0.4383
2723.76	0.438
2732.2	0.4358
2740.63	0.435
2749.07	0.435
2757.51	0.435
2765.95	0.4345
2774.38	0.433
2782.82	0.432
2791.26	0.43
2799.7	0.4284
2808.13	0.4264
2816.57	0.4244
2825.01	0.4228
2833.45	0.4193
2841.88	0.417
2850.32	0.4154
2858.76	0.414
2867.2	0.4116
2875.63	0.4097
2884.07	0.408
2892.51	0.406
2900.95	0.405
2909.38	0.403
2917.82	0.402
2926.26	0.3956
2934.7	0.392
2943.13	0.3885
2951.57	0.387
2960.01	0.3835
2968.45	0.381
2976.88	0.379
2985.32	0.3758
2993.76	0.3714
3002.2	0.3634
3010.63	0.3545
3019.07	0.3474
3027.51	0.3326
3035.95	0.3228
3044.38	0.3183
3052.82	0.3128
3061.26	0.3096
3069.7	0.306
3078.13	0.306
3086.57	0.317
3095.01	0.3425
3103.45	0.3541
3111.88	0.3599
3120.32	0.3637
3128.76	0.368
3137.2	0.3698
3145.63	0.369
3154.07	0.369
3162.51	0.369
3170.95	0.366
3179.38	0.3629
3187.82	0.361
3196.26	0.361
3204.7	0.361
3213.13	0.36
3221.57	0.3593
3230.01	0.358
3238.45	0.3571
3246.88	0.3567
3255.32	0.352
3263.76	0.351
3272.2	0.351
3280.63	0.3474
3289.07	0.3441
3297.51	0.342
3305.95	0.34
3314.39	0.339
3322.82	0.3365
3331.26	0.3345
3339.7	0.333
3348.14	0.331
3356.57	0.33
3365.01	0.3284
3373.45	0.325
3381.89	0.324
3390.32	0.322
3398.76	0.3211
3407.2	0.3208
3415.64	0.3186
3424.07	0.3167
3432.51	0.3151
3440.95	0.313
3449.39	0.312
3457.82	0.3093
3466.26	0.3071
3474.7	0.304
3483.14	0.303
3491.57	0.3015
3500.01	0.301
3508.45	0.301
3516.89	0.301
3525.32	0.301
3533.76	0.303
3542.2	0.303
3550.64	0.304
3559.07	0.3056
3567.51	0.306
3575.95	0.306
3584.39	0.306
3592.82	0.306
3601.26	0.303
3609.7	0.303
3618.14	0.3017
3626.57	0.2982
3635.01	0.298
3643.45	0.3
3651.89	0.3
3660.32	0.3
3668.76	0.298
3677.2	0.298
3685.64	0.298
3694.07	0.298
3702.51	0.298
3710.95	0.2975
3719.39	0.2978
3727.82	0.2979
3736.26	0.297
3744.7	0.297
3753.14	0.297
3761.57	0.2949
3770.01	0.2933
3778.45	0.2914
3786.89	0.291
3795.32	0.291
3803.76	0.291
3812.2	0.291
3820.64	0.2892
3829.07	0.289
3837.51	0.288
3845.95	0.288
3854.39	0.285
3862.82	0.2816
3871.26	0.279
3879.7	0.279
3888.14	0.277
3896.57	0.276
3905.01	0.276
3913.45	0.2756
3921.89	0.2759
3930.32	0.2737
3938.76	0.2722
3947.2	0.273
3955.64	0.273
3964.07	0.273
3972.51	0.2718
3980.95	0.2673
