Infrared Spectrum: N-NITROSO-N-PHENYL-BENZYLAMINE
Formula: C13 H12 N2 O
CAS: 612-98-6
State: SOLID (OIL MULL)
Melting point: 57-59 C
Class: COBLENTZ
Instrument: Not specified, most likely a prism, grating, or hybrid spectrometer.
Sampling: TRANSMISSION
Resolution: 4
Origin: WYANDOTTE CHEMICALS CORP., WYANDOTTE, MICHIGAN, USA
MICROMETERS	TRANSMITTANCE
2.043	0.515
2.08288	0.523
2.12276	0.545
2.16264	0.56
2.20252	0.56
2.2424	0.561
2.28228	0.573
2.32216	0.593
2.36204	0.606
2.40192	0.62
2.4418	0.643
2.48168	0.653
2.52156	0.663
2.56144	0.678
2.60132	0.696
2.6412	0.718
2.68108	0.723
2.72096	0.735
2.76084	0.751
2.80072	0.765
2.8406	0.765
2.88048	0.758
2.92036	0.758
2.96024	0.755
3.00012	0.763
3.04	0.775
3.07988	0.78
3.11976	0.79
3.15964	0.773
3.19952	0.768
3.2394	0.721
3.27928	0.61
3.31916	0.491
3.35904	0.013
3.39892	0.035
3.4388	0.043
3.47868	0.046
3.51856	0.201
3.55843	0.495
3.59831	0.616
3.63819	0.635
3.67807	0.62
3.71795	0.631
3.75783	0.638
3.79771	0.641
3.83759	0.638
3.87747	0.663
3.91735	0.685
3.95723	0.688
3.99711	0.708
4.03699	0.706
4.07687	0.715
4.11675	0.72
4.15663	0.721
4.19651	0.726
4.23639	0.723
4.27627	0.715
4.31615	0.73
4.35603	0.745
4.39591	0.763
4.43579	0.765
4.47567	0.765
4.51555	0.775
4.55543	0.78
4.59531	0.8
4.63519	0.79
4.67507	0.796
4.71495	0.803
4.75483	0.811
4.79471	0.825
4.83459	0.831
4.87447	0.831
4.91435	0.833
4.95423	0.84
4.99411	0.846
5.03399	0.855
5.07387	0.845
5.11375	0.816
5.15363	0.826
5.19351	0.808
5.23339	0.855
5.27327	0.87
5.31315	0.858
5.35303	0.848
5.39291	0.828
5.43279	0.87
5.47267	0.888
5.51255	0.875
5.55243	0.85
5.59231	0.865
5.63219	0.885
5.67207	0.906
5.71195	0.898
5.75183	0.876
5.79171	0.883
5.83159	0.91
5.87147	0.891
5.91135	0.896
5.95123	0.88
5.99111	0.875
6.03099	0.851
6.07087	0.888
6.11075	0.895
6.15063	0.886
6.19051	0.75
6.23039	0.518
6.27027	0.68
6.31015	0.823
6.35003	0.868
6.38991	0.895
6.42979	0.905
6.46967	0.901
6.50955	0.895
6.54942	0.868
6.5893	0.82
6.62918	0.56
6.66906	0.16
6.70894	0.453
6.74882	0.131
6.7887	0.055
6.82858	0.101
6.86846	0.085
6.90834	0.038
6.94822	0.176
6.9881	0.328
7.02798	0.171
7.06786	0.283
7.10774	0.455
7.14762	0.548
7.1875	0.531
7.22738	0.358
7.26726	0.283
7.30714	0.403
7.34702	0.413
7.3869	0.351
7.42678	0.608
7.46666	0.631
7.50654	0.421
7.54642	0.636
7.5863	0.401
7.62618	0.541
7.66606	0.616
7.70594	0.591
7.74582	0.381
7.7857	0.616
7.82558	0.696
7.86546	0.778
7.90534	0.781
7.94522	0.561
7.9851	0.375
8.02498	0.363
8.06486	0.616
8.10474	0.698
8.14462	0.745
8.1845	0.798
8.22438	0.825
8.26426	0.838
8.30414	0.823
8.34402	0.826
8.3839	0.826
8.42378	0.748
8.46366	0.478
8.50354	0.691
8.54342	0.563
8.5833	0.426
8.62318	0.175
8.66306	0.315
8.70294	0.255
8.74282	0.06
8.7827	0.041
8.82258	0.05
8.86246	0.135
8.90234	0.298
8.94222	0.42
8.9821	0.505
9.02198	0.451
9.06186	0.548
9.10174	0.616
9.14162	0.666
9.1815	0.688
9.22138	0.648
9.26126	0.448
9.30114	0.455
9.34102	0.635
9.3809	0.716
9.42078	0.755
9.46066	0.765
9.50054	0.725
9.54041	0.531
9.58029	0.666
9.62017	0.746
9.66005	0.761
9.69993	0.496
9.73981	0.678
9.77969	0.533
9.81957	0.436
9.85945	0.701
9.89933	0.741
9.93921	0.771
9.97909	0.726
10.019	0.801
10.0589	0.818
10.0987	0.806
10.1386	0.765
10.1785	0.816
10.2184	0.833
10.2583	0.83
10.2981	0.82
10.338	0.801
10.3779	0.805
10.4178	0.79
10.4577	0.781
10.4975	0.706
10.5374	0.518
10.5773	0.171
10.6172	0.091
10.6571	0.248
10.6969	0.425
10.7368	0.57
10.7767	0.653
10.8166	0.69
10.8565	0.725
10.8963	0.748
10.9362	0.766
10.9761	0.775
11.016	0.683
11.0558	0.651
11.0957	0.688
11.1356	0.626
11.1755	0.683
11.2154	0.768
11.2552	0.821
11.2951	0.853
11.335	0.871
11.3749	0.878
11.4148	0.893
11.4546	0.89
11.4945	0.893
11.5344	0.896
11.5743	0.895
11.6142	0.871
11.654	0.696
11.6939	0.675
11.7338	0.768
11.7737	0.836
11.8136	0.886
11.8534	0.895
11.8933	0.89
11.9332	0.851
11.9731	0.875
12.013	0.891
12.0528	0.866
12.0927	0.778
12.1326	0.768
12.1725	0.825
12.2124	0.87
12.2522	0.891
12.2921	0.9
12.332	0.901
12.3719	0.91
12.4118	0.91
12.4516	0.905
12.4915	0.901
12.5314	0.871
12.5713	0.756
12.6112	0.726
12.651	0.785
12.6909	0.853
12.7308	0.88
12.7707	0.908
12.8106	0.926
12.8504	0.935
12.8903	0.936
12.9302	0.935
12.9701	0.923
13.01	0.891
13.0498	0.813
13.0897	0.651
13.1296	0.486
13.1695	0.185
13.2094	0.088
13.2492	0.226
13.2891	0.42
13.329	0.635
13.3689	0.706
13.4088	0.746
13.4486	0.766
13.4885	0.783
13.5284	0.761
13.5683	0.733
13.6082	0.65
13.648	0.51
13.6879	0.355
13.7278	0.178
13.7677	0.131
13.8076	0.2
13.8474	0.348
13.8873	0.533
13.9272	0.641
13.9671	0.728
14.007	0.795
14.0468	0.838
14.0867	0.871
14.1266	0.893
14.1665	0.898
14.2064	0.901
14.2462	0.883
14.2861	0.846
14.326	0.785
14.3659	0.651
14.4058	0.483
14.4456	0.263
14.4855	0.19
14.5254	0.16
14.5653	0.18
14.6052	0.246
14.645	0.343
14.6849	0.446
14.7248	0.503
14.7647	0.451
14.8046	0.386
14.8444	0.396
14.8843	0.486
14.9242	0.588
14.9641	0.646
15.004	0.668
15.0438	0.665
15.0837	0.68
15.1236	0.733
15.1635	0.768
15.2034	0.783
15.2432	0.78
15.2831	0.778
15.323	0.77
15.3629	0.768
15.4028	0.761
15.4426	0.753
15.4825	0.748
15.5224	0.741
15.5623	0.731
15.6022	0.73
15.642	0.723
15.6819	0.721
15.7218	0.701
15.7617	0.691
15.8016	0.678
15.8414	0.666
15.8813	0.66
15.9212	0.648
15.9611	0.633
16.001	0.616
