Infrared Spectrum: Quinoline, 6-chloro-,
Formula: C9 H6 Cl N
CAS: 612-57-7
State: SOLUTION (CCl4 FOR 2-10.4, CS2 FOR 9.7-16 MICRON) VS SOLVENT
Melting point: 38-41.5 C
Class: COBLENTZ III
Instrument: BAIRD (GRATING)
Instrument parameters: NaCl PRISM
Path length: 0.01 CM, AND 0.01 CM , REFERENCE CELLS : 0.005 CM
Resolution: 2
Origin: WYANDOTTE CHEMICALS CORP.
1/CM	TRANSMITTANCE
626	0.7374
635	0.5599
644	0.6966
653	0.8284
662	0.8571
671	0.8981
680	0.9103
689	0.9099
698	0.9426
707	0.9512
716	0.9425
725	0.9428
734	0.9335
743	0.8748
752	0.6328
761	0.2986
770	0.7668
779	0.4885
788	0.0656
797	0.5583
806	0.7291
815	0.4947
824	0.0315
833	0.0525
842	0.3795
851	0.2886
860	0.0251
869	0.0313
878	0.2706
887	0.616
896	0.7017
905	0.7566
914	0.8438
923	0.833
932	0.6142
941	0.2382
950	0.668
959	0.7052
968	0.6973
977	0.5318
986	0.7502
995	0.8516
1004	0.8667
1013	0.8455
1022	0.6123
1031	0.2228
1040	0.8069
1049	0.9067
1058	0.7914
1067	0.6434
1076	0.0446
1085	0.7331
1094	0.8685
1103	0.8539
1112	0.7444
1121	0.1136
1130	0.8007
1139	0.7181
1148	0.7126
1157	0.853
1166	0.8298
1175	0.5824
1184	0.0848
1193	0.3518
1202	0.7699
1211	0.8138
1220	0.6628
1229	0.6335
1238	0.5795
1247	0.6201
1256	0.7364
1265	0.887
1274	0.9097
1283	0.9076
1292	0.8331
1301	0.5667
1310	0.5806
1319	0.2433
1328	0.5178
1337	0.7254
1346	0.4042
1355	0.4166
1364	0.5704
1373	0.3513
1382	0.6617
1391	0.8529
1400	0.9033
1409	0.9146
1418	0.8867
1427	0.8487
1436	0.8065
1445	0.7966
1454	0.6256
1463	0.4254
1472	0.7714
1481	0.4416
1490	0.1106
1499	0.0336
1508	0.3298
1517	0.7277
1526	0.7523
1535	0.7529
1544	0.7401
1553	0.6697
1562	0.5955
1571	0.3592
1580	0.2534
1589	0.4936
1598	0.1178
1607	0.0767
1616	0.4285
1625	0.5796
1634	0.7947
1643	0.8229
1652	0.8294
1661	0.8759
1670	0.864
1679	0.9019
1688	0.9433
1697	0.9407
1706	0.9196
1715	0.8681
1724	0.8307
1733	0.8086
1742	0.7207
1751	0.8234
1760	0.9167
1769	0.9138
1778	0.8707
1787	0.867
1796	0.9287
1805	0.9235
1814	0.9239
1823	0.9348
1832	0.9505
1841	0.956
1850	0.9547
1859	0.941
1868	0.909
1877	0.8495
1886	0.8585
1895	0.8043
1904	0.7309
1913	0.8512
1922	0.8465
1931	0.8331
1940	0.8687
1949	0.9284
1958	0.9456
1967	0.9546
1976	0.9579
1985	0.9589
1994	0.9591
2003	0.9592
2012	0.9593
2021	0.9574
2030	0.9558
2039	0.9553
2048	0.9574
2057	0.9613
2066	0.9649
2075	0.9669
2084	0.9641
2093	0.9598
2102	0.9579
2111	0.9653
2120	0.9655
2129	0.9612
2138	0.96
2147	0.9614
2156	0.9632
2165	0.9634
2174	0.9611
2183	0.9579
2192	0.9511
2201	0.9433
2210	0.9329
2219	0.9183
2228	0.9065
2237	0.919
2246	0.9372
2255	0.9466
2264	0.9503
2273	0.9505
2282	0.9503
2291	0.9499
2300	0.9487
2309	0.9471
2318	0.9449
2327	0.9424
2336	0.9394
2345	0.9387
2354	0.9381
2363	0.9391
2372	0.9407
2381	0.9419
2390	0.94
2399	0.9379
2408	0.9383
2417	0.9391
2426	0.9397
2435	0.9344
2444	0.9267
2453	0.9219
2462	0.9228
2471	0.9316
2480	0.9402
2489	0.9426
2498	0.9423
2507	0.9412
2516	0.9369
2525	0.93
2534	0.9219
2543	0.9182
2552	0.9196
2561	0.9326
2570	0.9399
2579	0.9394
2588	0.9365
2597	0.9323
2606	0.9286
2615	0.9257
2624	0.9248
2633	0.9241
2642	0.9239
2651	0.9238
2660	0.9236
2669	0.9233
2678	0.923
2687	0.9227
2696	0.9219
2705	0.9208
2714	0.9198
2723	0.918
2732	0.9154
2741	0.9131
2750	0.9126
2759	0.9122
2768	0.9116
2777	0.9111
2786	0.9106
2795	0.909
2804	0.9064
2813	0.9031
2822	0.8974
2831	0.8902
2840	0.8825
2849	0.8754
2858	0.8713
2867	0.8701
2876	0.8688
2885	0.8669
2894	0.8624
2903	0.8545
2912	0.8482
2921	0.8459
2930	0.8445
2939	0.8415
2948	0.8355
2957	0.8211
2966	0.789
2975	0.7572
2984	0.7358
2993	0.7332
3002	0.7248
3011	0.6482
3020	0.567
3029	0.4862
3038	0.4123
3047	0.4096
3056	0.4102
3065	0.4153
3074	0.4626
3083	0.5966
3092	0.737
3101	0.793
3110	0.8056
3119	0.8165
3128	0.8248
3137	0.8293
3146	0.8326
3155	0.8348
3164	0.8362
3173	0.8375
3182	0.8388
3191	0.842
3200	0.8458
3209	0.8504
3218	0.8561
3227	0.8611
3236	0.8656
3245	0.8704
3254	0.8747
3263	0.8764
3272	0.8779
3281	0.8798
3290	0.8827
3299	0.8849
3308	0.8866
3317	0.8874
3326	0.8881
3335	0.8886
3344	0.8888
3353	0.8891
3362	0.8893
3371	0.8898
3380	0.8905
3389	0.8911
3398	0.8918
3407	0.8924
3416	0.8932
3425	0.8941
3434	0.8949
3443	0.8959
3452	0.8967
3461	0.8976
3470	0.8985
3479	0.8995
3488	0.9003
3497	0.9012
3506	0.9021
3515	0.903
3524	0.9038
3533	0.9046
3542	0.9054
3551	0.9062
3560	0.9068
3569	0.9073
3578	0.9078
3587	0.9084
3596	0.9089
3605	0.9091
3614	0.9092
3623	0.9092
3632	0.9091
3641	0.9089
3650	0.9086
3659	0.9084
3668	0.9082
3677	0.9078
3686	0.9076
3695	0.9073
3704	0.907
3713	0.9065
3722	0.9059
3731	0.9053
3740	0.905
3749	0.9053
3758	0.9056
3767	0.9059
3776	0.9068
3785	0.9079
3794	0.9091
3803	0.9107
3812	0.9127
3821	0.9129
3830	0.9129
3839	0.9126
3848	0.9122
3857	0.9115
3866	0.9107
3875	0.9093
3884	0.9079
3893	0.9064
3902	0.9049
3911	0.9034
3920	0.9019
3929	0.9004
3938	0.8989
3947	0.8973
3956	0.8957
3965	0.8939
3974	0.8922
3983	0.8903
3992	0.8886
