Infrared Spectrum: 2-PHENYL QUINOLINE
Formula: C15 H11 N
CAS: 612-96-4
State: SOLID (1.0% IN KBr PELLET)
Class: COBLENTZ
Instrument: Not specified, most likely a prism, grating, or hybrid spectrometer.
Sampling: TRANSMISSION
Path length: 0.0355 CM
Resolution: 4
Origin: ANDERSON PHYSICAL LABORATORY
1/CM	TRANSMITTANCE
663.96	0.33
672.392	0.403
680.825	0.5327
689.257	0.84
697.689	0.86
706.121	0.863
714.554	0.861
722.986	0.854
731.418	0.833
739.85	0.801
748.283	0.734
756.715	0.4541
765.147	0.591
773.579	0.6946
782.012	0.833
790.444	0.809
798.876	0.708
807.309	0.433
815.741	0.469
824.173	0.788
832.605	0.674
841.038	0.442
849.47	0.5628
857.902	0.4962
866.334	0.7339
874.767	0.5821
883.199	0.5309
891.631	0.743
900.064	0.605
908.496	0.49
916.928	0.884
925.36	0.891
933.793	0.854
942.225	0.83
950.657	0.821
959.089	0.771
967.522	0.6171
975.954	0.7709
984.386	0.908
992.818	0.888
1001.25	0.86
1009.68	0.861
1018.12	0.804
1026.55	0.72
1034.98	0.854
1043.41	0.834
1051.84	0.783
1060.28	0.698
1068.71	0.528
1077.14	0.417
1085.57	0.806
1094.01	0.812
1102.44	0.8519
1110.87	0.875
1119.3	0.855
1127.73	0.851
1136.17	0.828
1144.6	0.807
1153.03	0.791
1161.46	0.761
1169.9	0.798
1178.33	0.753
1186.76	0.68
1195.19	0.707
1203.63	0.6889
1212.06	0.738
1220.49	0.635
1228.92	0.795
1237.35	0.803
1245.79	0.792
1254.22	0.779
1262.65	0.756
1271.08	0.719
1279.52	0.708
1287.95	0.737
1296.38	0.711
1304.81	0.66
1313.24	0.548
1321.68	0.351
1330.11	0.72
1338.54	0.8
1346.97	0.792
1355.41	0.761
1363.84	0.741
1372.27	0.713
1380.7	0.665
1389.14	0.596
1397.57	0.501
1406	0.519
1414.43	0.684
1422.86	0.569
1431.3	0.644
1439.73	0.669
1448.16	0.599
1456.59	0.531
1465.03	0.582
1473.46	0.469
1481.89	0.315
1490.32	0.4391
1498.75	0.65
1507.19	0.647
1515.62	0.636
1524.05	0.543
1532.48	0.496
1540.92	0.495
1549.35	0.54
1557.78	0.506
1566.21	0.424
1574.65	0.25
1583.08	0.31
1591.51	0.28
1599.94	0.327
1608.37	0.3789
1616.81	0.782
1625.24	0.803
1633.67	0.795
1642.1	0.795
1650.54	0.795
1658.97	0.786
1667.4	0.761
1675.83	0.753
1684.26	0.75
1692.7	0.744
1701.13	0.741
1709.56	0.734
1717.99	0.734
1726.43	0.734
1734.86	0.726
1743.29	0.719
1751.72	0.716
1760.15	0.717
1768.59	0.719
1777.02	0.716
1785.45	0.714
1793.88	0.713
1802.32	0.711
1810.75	0.711
1819.18	0.71
1827.61	0.707
1836.05	0.699
1844.48	0.695
1852.91	0.689
1861.34	0.68
1869.77	0.668
1878.21	0.663
1886.64	0.656
1895.07	0.654
1903.5	0.656
1911.94	0.663
1920.37	0.659
1928.8	0.656
1937.23	0.653
1945.66	0.651
1954.1	0.648
1962.53	0.648
1970.96	0.648
1979.39	0.644
1987.83	0.644
1996.26	0.639
2004.69	0.6387
2013.12	0.638
2021.56	0.6352
2029.99	0.63
2038.42	0.6254
2046.85	0.623
2055.28	0.621
2063.72	0.618
2072.15	0.617
2080.58	0.6133
2089.01	0.6094
2097.45	0.6079
2105.88	0.6044
2114.31	0.603
2122.74	0.6003
2131.17	0.599
2139.61	0.5983
2148.04	0.5948
2156.47	0.5931
2164.9	0.591
2173.34	0.59
2181.77	0.5874
2190.2	0.587
2198.63	0.5819
2207.07	0.5786
2215.5	0.576
2223.93	0.575
2232.36	0.575
2240.79	0.5726
2249.23	0.5707
2257.66	0.5663
2266.09	0.5608
2274.52	0.558
2282.96	0.557
2291.39	0.555
2299.82	0.555
2308.25	0.557
2316.68	0.558
2325.12	0.558
2333.55	0.558
2341.98	0.557
2350.41	0.5491
2358.85	0.545
2367.28	0.542
2375.71	0.5425
2384.14	0.5445
2392.58	0.545
2401.01	0.537
2409.44	0.53
2417.87	0.5284
2426.3	0.5281
2434.74	0.531
2443.17	0.5305
2451.6	0.523
2460.03	0.5209
2468.47	0.519
2476.9	0.519
2485.33	0.519
2493.76	0.518
2502.19	0.515
2510.63	0.5103
2519.06	0.507
2527.49	0.504
2535.92	0.503
2544.36	0.5004
2552.79	0.5
2561.22	0.4997
2569.65	0.498
2578.08	0.498
2586.52	0.496
2594.95	0.496
2603.38	0.498
2611.81	0.4993
2620.25	0.5
2628.68	0.5
2637.11	0.4991
2645.54	0.4966
2653.98	0.4951
2662.41	0.4814
2670.84	0.4697
2679.27	0.468
2687.7	0.466
2696.14	0.466
2704.57	0.466
2713	0.4675
2721.43	0.468
2729.87	0.4697
2738.3	0.474
2746.73	0.4725
2755.16	0.469
2763.59	0.4652
2772.03	0.456
2780.46	0.4502
2788.89	0.448
2797.32	0.444
2805.76	0.442
2814.19	0.4412
2822.62	0.439
2831.05	0.439
2839.49	0.441
2847.92	0.441
2856.35	0.441
2864.78	0.439
2873.21	0.439
2881.65	0.438
2890.08	0.4378
2898.51	0.4349
2906.94	0.4282
2915.38	0.4261
2923.81	0.424
2932.24	0.4236
2940.67	0.423
2949.1	0.421
2957.54	0.4197
2965.97	0.4121
2974.4	0.4037
2982.83	0.4002
2991.27	0.3998
2999.7	0.3966
3008.13	0.392
3016.56	0.3852
3025	0.382
3033.43	0.382
3041.86	0.3834
3050.29	0.3869
3058.72	0.3884
3067.16	0.3905
3075.59	0.3945
3084.02	0.4
3092.45	0.405
3100.89	0.406
3109.32	0.406
3117.75	0.406
3126.18	0.4027
3134.61	0.3985
3143.05	0.391
3151.48	0.382
3159.91	0.3805
3168.34	0.3769
3176.78	0.3734
3185.21	0.3699
3193.64	0.3654
3202.07	0.3593
3210.51	0.3554
3218.94	0.354
3227.37	0.3517
3235.8	0.3484
3244.23	0.3452
3252.67	0.3429
3261.1	0.3413
3269.53	0.3394
3277.96	0.3373
3286.4	0.3369
3294.83	0.3336
3303.26	0.3318
3311.69	0.33
3320.12	0.327
3328.56	0.3235
3336.99	0.3191
3345.42	0.3133
3353.85	0.3098
3362.29	0.307
3370.72	0.3063
3379.15	0.306
3387.58	0.304
3396.02	0.304
3404.45	0.3033
3412.88	0.303
3421.31	0.3026
3429.74	0.301
3438.18	0.3003
3446.61	0.3
3455.04	0.3
3463.47	0.3
3471.91	0.301
3480.34	0.301
3488.77	0.3032
3497.2	0.305
3505.63	0.3085
3514.07	0.31
3522.5	0.3135
3530.93	0.316
3539.36	0.3188
3547.8	0.321
3556.23	0.324
3564.66	0.325
3573.09	0.327
3581.52	0.328
3589.96	0.3286
3598.39	0.33
3606.82	0.331
3615.25	0.3312
3623.69	0.333
3632.12	0.333
3640.55	0.333
3648.98	0.333
3657.42	0.333
3665.85	0.331
3674.28	0.3301
3682.71	0.33
3691.14	0.33
3699.58	0.33
3708.01	0.33
3716.44	0.328
3724.87	0.328
3733.31	0.328
3741.74	0.328
3750.17	0.325
3758.6	0.324
3767.03	0.3193
3775.47	0.315
3783.9	0.3146
3792.33	0.313
3800.76	0.312
3809.2	0.312
3817.63	0.312
3826.06	0.312
3834.49	0.31
3842.93	0.31
3851.36	0.309
3859.79	0.308
3868.22	0.307
3876.65	0.306
3885.09	0.304
3893.52	0.304
3901.95	0.304
3910.38	0.304
3918.82	0.303
3927.25	0.301
3935.68	0.2984
3944.11	0.295
3952.54	0.2917
3960.98	0.291
3969.41	0.292
3977.84	0.2971
