Infrared Spectrum: 1,4-Dihydronaphthalene
Formula: C 10 H 10
CAS: 612-17-9
State: gas
Instrument: HP-GC/MS/IRD
Origin: NIST Mass Spectrometry Data Center
1/CM	ABSORBANCE
550	0.000143
562	0.0003344
574	0.0005192
586	0.0005786
598	0.0003432
610	0.0004818
622	0.0010208
634	0.0014916
646	0.0018612
658	0.003718
670	0.0034804
682	0.0023694
694	0.0019558
706	0.0018414
718	0.0044066
730	0.0118976
742	0.022
754	0.0113564
766	0.0040898
778	0.0026422
790	0.0012782
802	0.0006292
814	0.000484
826	0.0004312
838	0.0003344
850	0.0003256
862	0.000297
874	0.0002486
886	0.0004532
898	0.0005456
910	0.0009658
922	0.0012958
934	0.0006754
946	0.0004026
958	0.0004576
970	0.0005082
982	0.00099
994	0.0014586
1006	0.0015048
1018	0.0009284
1030	0.0010978
1042	0.001166
1054	0.0005852
1066	0.0003124
1078	0.000253
1090	0.0002706
1102	0.0003124
1114	0.0004994
1126	0.0005434
1138	0.0005126
1150	0.0004906
1162	0.0005896
1174	0.0009812
1186	0.0011682
1198	0.0007458
1210	0.00044
1222	0.0006644
1234	0.000704
1246	0.0005478
1258	0.0004202
1270	0.0004114
1282	0.0004114
1294	0.0003718
1306	0.0002244
1318	0.0002354
1330	0.0003146
1342	0.0004928
1354	0.000407
1366	0.0003586
1378	0.0004664
1390	0.000561
1402	0.0005566
1414	0.00077
1426	0.0016016
1438	0.0022484
1450	0.0030162
1462	0.0030624
1474	0.0022528
1486	0.0036322
1498	0.0047674
1510	0.0019624
1522	0.000429
1534	0.0002508
1546	0.000275
1558	0.0006116
1570	0.0011924
1582	0.0016984
1594	0.0013178
1606	0.000759
1618	0.00066
1630	0.0006314
1642	0.000902
1654	0.0014256
1666	0.0013662
1678	0.0007128
1690	0.00033
1702	0.0003058
1714	0.0001408
1726	0
1738	4.18e-05
1750	7.92e-05
1762	0.0001056
1774	0.0001408
1786	0.0002068
1798	0.0004488
1810	0.000594
1822	0.0005016
1834	0.0003234
1846	0.000275
1858	0.000242
1870	0.000407
1882	0.000506
1894	0.0004598
1906	0.0004202
1918	0.0005038
1930	0.0006732
1942	0.000594
1954	0.0002772
1966	0.0001254
1978	0.0001166
1990	0.0001122
2002	0.0001342
2014	0.000132
2026	0.0001474
2038	0.0001738
2050	0.0002222
2062	0.0002134
2074	0.00022
2086	0.0002618
2098	0.0002464
2110	0.0002794
2122	0.0002728
2134	0.0003058
2146	0.000275
2158	0.0003102
2170	0.0003168
2182	0.000264
2194	0.000264
2206	0.000275
2218	0.0002816
2230	0.0003058
2242	0.0003168
2254	0.0002904
2266	0.0003322
2278	0.0003344
2290	0.00033
2302	0.000352
2314	0.0003718
2326	0.0003608
2338	0.000396
2350	0.000385
2362	0.0003784
2374	0.0003146
2386	0.0003278
2398	0.0003278
2410	0.0003762
2422	0.000396
2434	0.0003872
2446	0.0003586
2458	0.0003608
2470	0.0003498
2482	0.000352
2494	0.0004004
2506	0.0003894
2518	0.000418
2530	0.0003872
2542	0.000396
2554	0.0004004
2566	0.0004136
2578	0.0004202
2590	0.0004378
2602	0.0004554
2614	0.0005016
2626	0.0004444
2638	0.0004312
2650	0.0004378
2662	0.0005236
2674	0.0004906
2686	0.0004994
2698	0.0004598
2710	0.0004906
2722	0.0005258
2734	0.000572
2746	0.0006644
2758	0.0007964
2770	0.0010582
2782	0.0012518
2794	0.0013904
2806	0.0018062
2818	0.003652
2830	0.0059422
2842	0.0062194
2854	0.0046926
2866	0.004202
2878	0.0059048
2890	0.009361
2902	0.0087384
2914	0.0048136
2926	0.003267
2938	0.0030998
2950	0.0029128
2962	0.0025058
2974	0.0023012
2986	0.0025762
2998	0.003157
3010	0.0048048
3022	0.0081488
3034	0.015224
3046	0.0163592
3058	0.0103642
3070	0.0084062
3082	0.0065582
3094	0.0033088
3106	0.001661
3118	0.0011132
3130	0.0007392
3142	0.0006402
3154	0.0005302
3166	0.0005434
3178	0.0004818
3190	0.0004554
3202	0.0003894
3214	0.0004488
3226	0.0004554
3238	0.00044
3250	0.00044
3262	0.0004334
3274	0.000473
3286	0.000407
3298	0.0004312
3310	0.0004422
3322	0.000418
3334	0.0003652
3346	0.0003344
3358	0.000319
3370	0.0003454
3382	0.0003278
3394	0.000308
3406	0.0003498
3418	0.0003322
3430	0.0003454
3442	0.0003278
3454	0.0003256
3466	0.0002904
3478	0.0002794
3490	0.0002178
3502	0.0003344
3514	0.0003872
3526	0.0003476
3538	0.0003058
3550	0.0003586
3562	0.0003762
3574	0.0003652
3586	0.000396
3598	0.0003388
3610	0.0003498
3622	0.0003674
3634	0.000308
3646	0.0003432
3658	0.0002574
3670	0.0003674
3682	0.000297
3694	0.000308
3706	0.000363
3718	0.0003806
3730	0.0003652
3742	0.0004972
3754	0.0005346
3766	0.0004862
3778	0.0004664
3790	0.0005082
3802	0.0005632
3814	0.0005918
3826	0.0006182
3838	0.0005654
