Infrared Spectrum: N-Methyl-p-acetotoluidide
Formula: C10 H13 N O
CAS: 612-03-3
State: SOLUTION (10% CCl4 FOR 3800-1350, 10% CS2 FOR 1350-400)
Class: COBLENTZ III
Instrument: DOW KBr FOREPRISM-GRATING
Instrument parameters: BLAZED AT 3.5, 12.0, 20.0 AND CHANGED AT 5.0, 7.5, 14.9 MICRON
Sampling: TRANSMISSION
Path length: 0.0114 CM, 0.0111 CM
Resolution: 2
Origin: DOW CHEMICAL COMPANY
1/CM	TRANSMITTANCE
3800	0.9048
3791	0.9049
3782	0.903
3773	0.903
3764	0.9021
3755	0.9026
3746	0.902
3737	0.9027
3728	0.9029
3719	0.9029
3710	0.9068
3701	0.9027
3692	0.8917
3683	0.8815
3674	0.8796
3665	0.8842
3656	0.8895
3647	0.8919
3638	0.8928
3629	0.893
3620	0.8941
3611	0.8936
3602	0.8926
3593	0.8928
3584	0.8922
3575	0.8904
3566	0.8884
3557	0.8861
3548	0.8838
3539	0.8798
3530	0.877
3521	0.8728
3512	0.8706
3503	0.8688
3494	0.8677
3485	0.8669
3476	0.8662
3467	0.8658
3458	0.8658
3449	0.8662
3440	0.8675
3431	0.8688
3422	0.8705
3413	0.8727
3404	0.8748
3395	0.8767
3386	0.878
3377	0.878
3368	0.8781
3359	0.8781
3350	0.8765
3341	0.8709
3332	0.8597
3323	0.8459
3314	0.8353
3305	0.8342
3296	0.8401
3287	0.847
3278	0.8538
3269	0.8588
3260	0.8631
3251	0.8669
3242	0.8692
3233	0.8708
3224	0.8713
3215	0.8712
3206	0.8699
3197	0.8703
3188	0.8712
3179	0.8696
3170	0.8668
3161	0.8636
3152	0.8639
3143	0.8595
3134	0.8504
3125	0.8439
3116	0.8426
3107	0.8348
3098	0.8147
3089	0.8033
3080	0.798
3071	0.7812
3062	0.714
3053	0.6436
3044	0.6399
3035	0.4992
3026	0.5397
3017	0.5739
3008	0.5818
2999	0.5887
2990	0.592
2981	0.5629
2972	0.5556
2963	0.5184
2954	0.4779
2945	0.4586
2936	0.4338
2927	0.4119
2918	0.4576
2909	0.5415
2900	0.5822
2891	0.5954
2882	0.6019
2873	0.6109
2864	0.6303
2855	0.6713
2846	0.7259
2837	0.7582
2828	0.7893
2819	0.8105
2810	0.819
2801	0.8291
2792	0.8379
2783	0.846
2774	0.8544
2765	0.8604
2756	0.8641
2747	0.8638
2738	0.8543
2729	0.8468
2720	0.8556
2711	0.8609
2702	0.8649
2693	0.8682
2684	0.8707
2675	0.8726
2666	0.8734
2657	0.872
2648	0.8661
2639	0.8658
2630	0.8676
2621	0.8715
2612	0.8744
2603	0.8761
2594	0.8693
2585	0.8617
2576	0.8614
2567	0.8668
2558	0.8728
2549	0.8787
2540	0.8817
2531	0.8823
2522	0.8826
2513	0.8826
2504	0.8827
2495	0.8827
2486	0.8826
2477	0.8835
2468	0.8834
2459	0.8834
2450	0.8826
2441	0.8829
2432	0.8823
2423	0.8811
2414	0.8797
2405	0.8782
2396	0.8768
2387	0.8769
2378	0.8844
2369	0.8877
2360	0.8889
2351	0.8908
2342	0.8852
2333	0.8802
2324	0.8804
2315	0.8783
2306	0.8752
2297	0.8656
2288	0.8594
2279	0.8658
2270	0.8728
2261	0.8777
2252	0.88
2243	0.88
2234	0.8773
2225	0.8751
2216	0.8732
2207	0.8789
2198	0.8823
2189	0.8812
2180	0.881
2171	0.8826
2162	0.8835
2153	0.885
2144	0.8859
2135	0.8865
2126	0.8865
2117	0.8853
2108	0.8826
2099	0.8801
2090	0.8786
2081	0.8797
2072	0.8771
2063	0.8681
2054	0.8652
2045	0.8682
2036	0.8701
2027	0.8671
2018	0.8662
2009	0.8672
2000	0.8668
1991	0.8467
1982	0.8735
1973	0.8767
1964	0.8765
1955	0.8743
1946	0.8716
1937	0.8737
1928	0.8771
1919	0.8788
1910	0.8706
1901	0.8059
1892	0.7736
1883	0.8381
1874	0.8649
1865	0.8744
1856	0.8806
1847	0.8802
1838	0.8786
1829	0.877
1820	0.8815
1811	0.881
1802	0.8725
1793	0.8658
1784	0.8407
1775	0.8467
1766	0.8391
1757	0.8183
1748	0.8127
1739	0.8158
1730	0.8176
1721	0.8144
1712	0.7901
1703	0.751
1694	0.5915
1685	0.4161
1676	0.0646
1667	0.0016
1658	0.0005
1649	0.0201
1640	0.2225
1631	0.3294
1622	0.4394
1613	0.2399
1604	0.3592
1595	0.4882
1586	0.5253
1577	0.491
1568	0.5875
1559	0.5645
1550	0.5411
1541	0.5253
1532	0.5175
1523	0.449
1514	0.0006
1505	0.182
1496	0.3577
1487	0.507
1478	0.5567
1469	0.4639
1460	0.3925
1451	0.3303
1442	0.2807
1433	0.238
1424	0.1776
1415	0.1569
1406	0.3675
1397	0.309
1388	0.1148
1379	0.0154
1370	0.0574
1361	0.2759
1352	0.0917
1343	0.2233
1334	0.4202
1325	0.5261
1316	0.4641
1307	0.257
1298	0.1343
1289	0.404
1280	0.4733
1271	0.5121
1262	0.5856
1253	0.6446
1244	0.6711
1235	0.7433
1226	0.7649
1217	0.751
1208	0.6807
1199	0.7135
1190	0.4979
1181	0.5432
1172	0.5799
1163	0.6498
1154	0.5441
1145	0.2415
1136	0.3238
1127	0.5866
1118	0.6486
1109	0.4808
1100	0.6835
1091	0.575
1082	0.4705
1073	0.6967
1064	0.7535
1055	0.7679
1046	0.7215
1037	0.6055
1028	0.6079
1019	0.3624
1010	0.7876
1001	0.7968
992	0.7828
983	0.7465
974	0.3736
965	0.6189
956	0.755
947	0.8188
938	0.8297
929	0.8474
920	0.6875
911	0.8235
902	0.8573
893	0.8604
884	0.8482
875	0.8277
866	0.8058
857	0.783
848	0.7645
839	0.7016
830	0.0529
821	0.4363
812	0.7721
803	0.8289
794	0.8449
785	0.8642
776	0.8692
767	0.8733
758	0.8621
749	0.8641
740	0.8664
731	0.8125
722	0.2969
713	0.8249
704	0.857
695	0.8627
686	0.8601
677	0.7872
668	0.8046
659	0.8469
650	0.7611
641	0.7953
632	0.8393
623	0.8478
614	0.8425
605	0.8091
596	0.5513
587	0.5587
578	0.7627
569	0.7729
560	0.5102
551	0.1399
542	0.7218
533	0.7889
524	0.8087
515	0.8235
506	0.8054
497	0.8275
488	0.8263
479	0.8172
470	0.7907
461	0.7062
452	0.7367
443	0.7277
434	0.6616
425	0.5969
416	0.5077
407	0.2954
398	0.1344
389	0.0909
