Infrared Spectrum: 3,3-DIMETHYL 4,4-DIHYDROXY BIPHENYL
Formula: C14 H14 O2
CAS: 612-84-0
State: SOLID (0.5% KBr PELLET)
Class: COBLENTZ
Instrument: Not specified, most likely a grating spectrometer.
Sampling: TRANSMISSION
Resolution: 4
Origin: STANDARD OIL OF OHIO
MICROMETERS	TRANSMITTANCE
2.034	0.91
2.06777	0.909
2.10153	0.907
2.1353	0.9
2.16907	0.892
2.20283	0.897
2.2366	0.898
2.27037	0.893
2.30413	0.888
2.3379	0.892
2.37166	0.892
2.40543	0.887
2.4392	0.885
2.47296	0.878
2.50673	0.867
2.5405	0.86
2.57426	0.86
2.60803	0.861
2.6418	0.865
2.67556	0.853
2.70933	0.804
2.7431	0.607
2.77686	0.324
2.81063	0.148
2.84439	0.069
2.87816	0.035
2.91193	0.026
2.94569	0.028
2.97946	0.035
3.01323	0.052
3.04699	0.127
3.08076	0.213
3.11453	0.355
3.14829	0.468
3.18206	0.548
3.21583	0.612
3.24959	0.621
3.28336	0.587
3.31712	0.612
3.35089	0.609
3.38466	0.604
3.41842	0.611
3.45219	0.686
3.48596	0.695
3.51972	0.762
3.55349	0.787
3.58726	0.789
3.62102	0.784
3.65479	0.777
3.68856	0.787
3.72232	0.794
3.75609	0.801
3.78986	0.803
3.82362	0.803
3.85739	0.801
3.89115	0.797
3.92492	0.803
3.95869	0.808
3.99245	0.809
4.02622	0.808
4.05999	0.808
4.09375	0.814
4.12752	0.823
4.16129	0.824
4.19505	0.828
4.22882	0.824
4.26259	0.824
4.29635	0.833
4.33012	0.838
4.36388	0.836
4.39765	0.833
4.43142	0.835
4.46518	0.835
4.49895	0.836
4.53272	0.831
4.56648	0.828
4.60025	0.826
4.63402	0.821
4.66778	0.814
4.70155	0.813
4.73532	0.808
4.76908	0.804
4.80285	0.803
4.83662	0.797
4.87038	0.796
4.90415	0.789
4.93791	0.786
4.97168	0.792
5.00545	0.799
5.03921	0.803
5.07298	0.808
5.10675	0.811
5.14051	0.813
5.17428	0.814
5.20805	0.814
5.24181	0.813
5.27558	0.797
5.30935	0.789
5.34311	0.801
5.37688	0.818
5.41064	0.824
5.44441	0.829
5.47818	0.823
5.51194	0.821
5.54571	0.814
5.57948	0.799
5.61324	0.797
5.64701	0.794
5.68078	0.792
5.71454	0.799
5.74831	0.803
5.78208	0.801
5.81584	0.792
5.84961	0.786
5.88338	0.759
5.91714	0.745
5.95091	0.7
5.98467	0.634
6.01844	0.545
6.05221	0.441
6.08597	0.395
6.11974	0.358
6.15351	0.237
6.18727	0.287
6.22104	0.398
6.25481	0.483
6.28857	0.601
6.32234	0.681
6.35611	0.713
6.38987	0.718
6.42364	0.725
6.4574	0.718
6.49117	0.696
6.52494	0.649
6.5587	0.555
6.59247	0.459
6.62624	0.042
6.66	0.042
6.69377	0.304
6.72754	0.341
6.7613	0.336
6.79507	0.237
6.82884	0.24
6.8626	0.301
6.89637	0.335
6.93013	0.351
6.9639	0.319
6.99767	0.287
7.03143	0.289
7.0652	0.328
7.09897	0.345
7.13273	0.35
7.1665	0.345
7.20027	0.338
7.23403	0.375
7.2678	0.419
7.30157	0.429
7.33533	0.382
7.3691	0.353
7.40287	0.323
7.43663	0.309
7.4704	0.306
7.50416	0.336
7.53793	0.385
7.5717	0.451
7.60546	0.518
7.63923	0.56
7.673	0.594
7.70676	0.602
7.74053	0.53
7.7743	0.525
7.80806	0.498
7.84183	0.306
7.8756	0.195
7.90936	0.111
7.94313	0.069
7.97689	0.042
8.01066	0.035
8.04443	0.074
8.07819	0.21
8.11196	0.257
8.14573	0.272
8.17949	0.25
8.21326	0.203
8.24703	0.168
8.28079	0.153
8.31456	0.161
8.34833	0.198
8.38209	0.196
8.41586	0.158
8.44963	0.181
8.48339	0.279
8.51716	0.319
8.55092	0.372
8.58469	0.404
8.61846	0.447
8.65222	0.535
8.68599	0.587
8.71976	0.612
8.75352	0.616
8.78729	0.525
8.82106	0.412
8.85482	0.102
8.88859	0.082
8.92236	0.099
8.95612	0.279
8.98989	0.388
9.02365	0.496
9.05742	0.584
9.09119	0.629
9.12495	0.661
9.15872	0.68
9.19249	0.69
9.22625	0.698
9.26002	0.703
9.29379	0.702
9.32755	0.686
9.36132	0.503
9.39509	0.432
9.42885	0.545
9.46262	0.617
9.49638	0.675
9.53015	0.68
9.56392	0.659
9.59768	0.634
9.63145	0.632
9.66522	0.654
9.69898	0.695
9.73275	0.71
9.76652	0.727
9.80028	0.735
9.83405	0.737
9.86782	0.734
9.90158	0.73
9.93535	0.717
9.96912	0.705
10.0029	0.702
10.0366	0.686
10.0704	0.648
10.1042	0.632
10.1379	0.671
10.1717	0.698
10.2055	0.718
10.2392	0.735
10.273	0.747
10.3068	0.745
10.3405	0.749
10.3743	0.754
10.4081	0.755
10.4418	0.75
10.4756	0.749
10.5094	0.739
10.5431	0.734
10.5769	0.717
10.6107	0.707
10.6444	0.703
10.6782	0.703
10.712	0.712
10.7457	0.723
10.7795	0.739
10.8133	0.747
10.847	0.752
10.8808	0.754
10.9146	0.75
10.9483	0.75
10.9821	0.747
11.0159	0.74
11.0496	0.72
11.0834	0.685
11.1172	0.643
11.1509	0.648
11.1847	0.666
11.2185	0.658
11.2522	0.577
11.286	0.5
11.3198	0.479
11.3535	0.461
11.3873	0.459
11.4211	0.494
11.4548	0.567
11.4886	0.624
11.5224	0.659
11.5561	0.68
11.5899	0.686
11.6237	0.671
11.6574	0.55
11.6912	0.398
11.725	0.377
11.7587	0.486
11.7925	0.582
11.8263	0.617
11.86	0.607
11.8938	0.599
11.9276	0.569
11.9613	0.526
11.9951	0.488
12.0289	0.424
12.0626	0.378
12.0964	0.353
12.1302	0.329
12.1639	0.267
12.1977	0.239
12.2315	0.175
12.2652	0.143
12.299	0.114
12.3328	0.107
12.3665	0.114
12.4003	0.19
12.4341	0.291
12.4678	0.38
12.5016	0.473
12.5354	0.54
12.5691	0.569
12.6029	0.606
12.6367	0.631
12.6704	0.641
12.7042	0.646
12.738	0.646
12.7717	0.646
12.8055	0.638
12.8393	0.636
12.873	0.631
12.9068	0.612
12.9406	0.592
12.9743	0.58
13.0081	0.565
13.0419	0.53
13.0756	0.486
13.1094	0.424
13.1432	0.383
13.1769	0.367
13.2107	0.402
13.2445	0.476
13.2782	0.525
13.312	0.58
13.3458	0.607
13.3795	0.617
13.4133	0.621
13.4471	0.627
13.4808	0.626
13.5146	0.626
13.5484	0.624
13.5821	0.621
13.6159	0.614
13.6497	0.594
13.6834	0.584
13.7172	0.584
13.751	0.595
13.7847	0.604
13.8185	0.604
13.8523	0.604
13.886	0.601
13.9198	0.585
13.9536	0.575
13.9873	0.58
14.0211	0.582
14.0549	0.585
14.0886	0.589
14.1224	0.589
14.1562	0.589
14.1899	0.587
14.2237	0.587
14.2575	0.585
14.2912	0.584
14.325	0.582
14.3588	0.582
14.3925	0.577
14.4263	0.574
14.4601	0.574
14.4938	0.572
14.5276	0.572
14.5614	0.567
14.5951	0.562
14.6289	0.557
14.6627	0.552
14.6964	0.547
14.7302	0.543
14.764	0.535
14.7977	0.533
14.8315	0.533
14.8652	0.531
14.899	0.528
14.9328	0.525
14.9665	0.528
15.0003	0.53
15.0341	0.526
15.0678	0.523
15.1016	0.52
15.1354	0.516
15.1691	0.513
15.2029	0.505
15.2367	0.501
15.2704	0.5
15.3042	0.493
15.338	0.489
15.3717	0.486
