Infrared Spectrum: o-Nitrobenzylchloride
Formula: C 7 H 6 Cl N O 2
CAS: 612-23-7
State: gas
Instrument: HP-GC/MS/IRD
Origin: NIST Mass Spectrometry Data Center
1/CM	ABSORBANCE
550	0.0004914
562	0.0011921
574	0.001911
586	0.0008281
598	0.0001456
610	2.73e-05
622	7.28e-05
634	0.0002821
646	0.0008918
658	0.0040768
670	0.0072891
682	0.0077532
694	0.0122486
706	0.0228774
718	0.0278824
730	0.0178269
742	0.0112294
754	0.0097734
766	0.0096551
778	0.0134953
790	0.0079716
802	0.0106379
814	0.0091273
826	0.0027118
838	0.0024843
850	0.0113841
862	0.016016
874	0.0040313
886	0.0008372
898	0.0004277
910	0.0003094
922	0.0003185
934	0.0001911
946	0.000546
958	0.0008645
970	0.0003003
982	0.0001092
994	0
1006	6.37e-05
1018	0.0002457
1030	0.0006279
1042	0.0015925
1054	0.0011284
1066	0.0005733
1078	0.0006643
1090	0.0005278
1102	0.0004368
1114	0.000637
1126	0.0007917
1138	0.0008827
1150	0.0013377
1162	0.0023751
1174	0.0020566
1186	0.0024024
1198	0.0032669
1210	0.0027118
1222	0.0017745
1234	0.0019292
1246	0.002912
1258	0.005551
1270	0.0082446
1282	0.0079807
1294	0.0103012
1306	0.0107926
1318	0.0082537
1330	0.0128765
1342	0.0338429
1354	0.05824
1366	0.0314587
1378	0.0083265
1390	0.0045682
1402	0.0037947
1414	0.0037765
1426	0.0045591
1438	0.0077896
1450	0.0106652
1462	0.00728
1474	0.0065247
1486	0.0085267
1498	0.0114933
1510	0.0182637
1522	0.0331877
1534	0.066794
1546	0.091
1558	0.0541905
1570	0.0260533
1582	0.0164619
1594	0.0115934
1606	0.0099736
1618	0.006461
1630	0.0032396
1642	0.0022022
1654	0.0014924
1666	0.0009737
1678	0.0007371
1690	0.0006097
1702	0.0006461
1714	0.0007189
1726	0.0007553
1738	0.0005915
1750	0.0003549
1762	0.0003185
1774	0.0002821
1786	0.000364
1798	0.000819
1810	0.0014833
1822	0.0013741
1834	0.0007007
1846	0.0005551
1858	0.0003458
1870	0.0002184
1882	0.0002275
1894	0.0002912
1906	0.0004095
1918	0.0005642
1930	0.0009737
1942	0.000819
1954	0.0007553
1966	0.0008099
1978	0.0002457
1990	6.37e-05
2002	1.82e-05
2014	6.37e-05
2026	2.73e-05
2038	4.55e-05
2050	3.64e-05
2062	3.64e-05
2074	5.46e-05
2086	9.1e-06
2098	0
2110	3.64e-05
2122	1.82e-05
2134	9.1e-06
2146	4.55e-05
2158	3.64e-05
2170	3.64e-05
2182	3.64e-05
2194	4.55e-05
2206	8.19e-05
2218	9.1e-05
2230	8.19e-05
2242	7.28e-05
2254	4.55e-05
2266	3.64e-05
2278	3.64e-05
2290	6.37e-05
2302	0.0001274
2314	0.0002275
2326	0.0004641
2338	0.0004732
2350	0.0003549
2362	0.0003367
2374	0.0002639
2386	0.0002548
2398	0.0002821
2410	0.0002184
2422	0.0002002
2434	0.0002184
2446	0.0001183
2458	5.46e-05
2470	6.37e-05
2482	0.0001365
2494	0.0001547
2506	9.1e-05
2518	3.64e-05
2530	2.73e-05
2542	3.64e-05
2554	5.46e-05
2566	8.19e-05
2578	0.0001183
2590	0.0001911
2602	0.0001183
2614	0.0001638
2626	0.000182
2638	0.0001911
2650	0.0002457
2662	0.000273
2674	0.0003185
2686	0.0004186
2698	0.0005278
2710	0.0004186
2722	0.0003185
2734	0.0002639
2746	0.0002548
2758	0.0002275
2770	0.0002093
2782	0.0002184
2794	0.0002366
2806	0.0003185
2818	0.0003731
2830	0.0005278
2842	0.0007007
2854	0.0009828
2866	0.0014014
2878	0.0019747
2890	0.0021021
2902	0.0015288
2914	0.0010556
2926	0.0008736
2938	0.0009464
2950	0.001092
2962	0.0015015
2974	0.0025298
2986	0.0029666
2998	0.0019019
3010	0.0011466
3022	0.0010647
3034	0.0013377
3046	0.001729
3058	0.0024297
3070	0.0051324
3082	0.0069615
3094	0.0036309
3106	0.0011102
3118	0.0005824
3130	0.0004641
3142	0.0003731
3154	0.0003549
3166	0.0002912
3178	0.000182
3190	0.0001729
3202	0.0001638
3214	0.0001729
3226	0.0001365
3238	0.0001001
3250	2.73e-05
3262	2.73e-05
3274	4.55e-05
3286	8.19e-05
3298	0.0001001
3310	7.28e-05
3322	9.1e-05
3334	0.0001092
3346	6.37e-05
3358	0.0001183
3370	0.0001547
3382	0.0001274
3394	0.0001001
3406	0.0001365
3418	9.1e-05
3430	6.37e-05
3442	0.0001365
3454	0.0001547
3466	0.0001547
3478	0.0001274
3490	0.0001638
3502	0.0001365
3514	0.000182
3526	0.0001729
3538	0.0001456
3550	0.0001274
3562	0.0002002
3574	0.0001365
3586	0.0001911
3598	0.0001729
3610	0.0001911
3622	0.000182
3634	0.0001638
3646	0.0002002
3658	0.0002366
3670	0.0002457
3682	0.0002457
3694	0.0002184
3706	0.0002184
3718	0.0002639
3730	0.0002457
3742	0.0002821
3754	0.0003003
3766	0.0002275
3778	0.0002093
3790	0.0002002
3802	0.0003003
3814	0.0002639
3826	0.0002548
3838	0.0001274
