Infrared Spectrum: 5-Ethylcyclopentanone
Formula: C 7 H 12 O
CAS: 61215-75-6
State: gas
Instrument: HP-GC/MS/IRD
Origin: NIST Mass Spectrometry Data Center
1/CM	ABSORBANCE
550	0.0002967
562	0.0001909
574	0.0001656
586	0.0001357
598	0.0001472
610	0.0002645
622	0.0002553
634	0.0002047
646	9.2e-06
658	0.0001288
670	9.43e-05
682	0.000138
694	0.0001748
706	0.0002047
718	0.0001863
730	0.0001541
742	0.0002001
754	0.0002553
766	0.0004531
778	0.0005129
790	0.0004623
802	0.0005244
814	0.0008556
826	0.0008418
838	0.0005773
850	0.0003036
862	0.0002346
874	0.000322
886	0.0005198
898	0.000943
910	0.0012742
922	0.0009499
934	0.0004393
946	0.0004002
958	0.0004968
970	0.0005175
982	0.0005175
994	0.000575
1006	0.0005842
1018	0.0006026
1030	0.0006187
1042	0.0006716
1054	0.0008855
1066	0.0011638
1078	0.0011546
1090	0.0009936
1102	0.0010074
1114	0.0012765
1126	0.0020056
1138	0.0037835
1150	0.0056672
1162	0.0051198
1174	0.002599
1186	0.001196
1198	0.0007383
1210	0.000644
1222	0.0006164
1234	0.0006716
1246	0.0008372
1258	0.0010603
1270	0.0011408
1282	0.0008464
1294	0.0005842
1306	0.0007613
1318	0.000966
1330	0.0011316
1342	0.0012673
1354	0.0010488
1366	0.000736
1378	0.000874
1390	0.0010764
1402	0.0012834
1414	0.0016215
1426	0.0014007
1438	0.0011569
1450	0.0018446
1462	0.0023138
1474	0.0018331
1486	0.0009798
1498	0.0004393
1510	0.0002346
1522	0.0001794
1534	0.000161
1546	0.0001725
1558	0.0001587
1570	0.0001472
1582	0.000161
1594	0.0001403
1606	0.0001564
1618	0.0001748
1630	0.0002277
1642	0.0002622
1654	0.0002944
1666	0.0004094
1678	0.000529
1690	0.0007314
1702	0.0011362
1714	0.0019458
1726	0.0045241
1738	0.0123441
1750	0.0218868
1762	0.0215717
1774	0.0095565
1786	0.0028819
1798	0.0013386
1810	0.0008901
1822	0.000621
1834	0.0004278
1846	0.0002944
1858	0.0002277
1870	0.000184
1882	0.0001794
1894	0.0001449
1906	0.0001196
1918	0.0001173
1930	0.0001242
1942	0.0001104
1954	0.0001288
1966	0.0001357
1978	0.0001357
1990	9.2e-05
2002	7.82e-05
2014	7.59e-05
2026	6.67e-05
2038	7.36e-05
2050	6.67e-05
2062	6.44e-05
2074	4.14e-05
2086	4.6e-05
2098	6.44e-05
2110	4.37e-05
2122	4.83e-05
2134	4.83e-05
2146	6.9e-05
2158	6.67e-05
2170	6.67e-05
2182	6.44e-05
2194	8.05e-05
2206	8.51e-05
2218	8.28e-05
2230	8.97e-05
2242	7.13e-05
2254	6.44e-05
2266	6.21e-05
2278	5.98e-05
2290	8.28e-05
2302	8.05e-05
2314	8.97e-05
2326	5.29e-05
2338	7.13e-05
2350	5.75e-05
2362	5.52e-05
2374	6.9e-05
2386	5.06e-05
2398	6.44e-05
2410	4.37e-05
2422	4.83e-05
2434	5.98e-05
2446	5.06e-05
2458	2.76e-05
2470	3.68e-05
2482	4.37e-05
2494	3.45e-05
2506	2.76e-05
2518	2.99e-05
2530	6.9e-06
2542	2.76e-05
2554	3.68e-05
2566	2.53e-05
2578	5.06e-05
2590	5.75e-05
2602	6.67e-05
2614	7.82e-05
2626	6.21e-05
2638	6.21e-05
2650	7.82e-05
2662	6.44e-05
2674	8.28e-05
2686	8.05e-05
2698	6.67e-05
2710	0.0001104
2722	0.0001426
2734	0.0002093
2746	0.0002438
2758	0.0002806
2770	0.000322
2782	0.0003703
2794	0.0004439
2806	0.0005566
2818	0.0006601
2830	0.0008395
2842	0.0013202
2854	0.0026404
2866	0.0048622
2878	0.0073209
2890	0.0075739
2902	0.0061663
2914	0.00621
2926	0.0080914
2938	0.0102028
2950	0.0127696
2962	0.0176824
2974	0.0182873
2986	0.0100027
2998	0.0033557
3010	0.0015548
3022	0.0010879
3034	0.0008809
3046	0.0006739
3058	0.0005773
3070	0.0004646
3082	0.0003634
3094	0.0003082
3106	0.0002714
3118	0.0002369
3130	0.0002576
3142	0.0002392
3154	0.0001817
3166	0.0001932
3178	0.0001403
3190	0.0001196
3202	9.66e-05
3214	6.9e-05
3226	8.05e-05
3238	6.21e-05
3250	3.45e-05
3262	7.13e-05
3274	3.68e-05
3286	5.52e-05
3298	3.45e-05
3310	4.83e-05
3322	2.76e-05
3334	3.22e-05
3346	1.61e-05
3358	2.07e-05
3370	1.15e-05
3382	3.22e-05
3394	3.22e-05
3406	6.21e-05
3418	4.6e-05
3430	2.99e-05
3442	7.13e-05
3454	0.0001357
3466	0.0002139
3478	0.0003565
3490	0.0004807
3502	0.0004531
3514	0.0002714
3526	0.0001633
3538	0.0001058
3550	0.0001035
3562	4.6e-05
3574	5.52e-05
3586	6.9e-05
3598	5.98e-05
3610	5.52e-05
3622	4.37e-05
3634	5.52e-05
3646	2.07e-05
3658	5.06e-05
3670	6.9e-05
3682	6.67e-05
3694	6.44e-05
3706	8.51e-05
3718	5.52e-05
3730	4.37e-05
3742	5.75e-05
3754	8.05e-05
3766	8.74e-05
3778	5.75e-05
3790	7.36e-05
3802	0.0001058
3814	0.0001035
3826	0.0001104
3838	8.51e-05
