Infrared Spectrum: Indole-3-acetic acid, 6-chloro-2-methyl-
Formula: C11 H10 N O2 Cl
CAS: 6127-21-5
State: SOLID (0.7 mg / 650 mg KBr DISC)
Class: COBLENTZ III
Instrument: PERKIN-ELMER 21 (GRATING)
Instrument parameters: FILTER CHANGE ABOUT 1025 CM^-^1
Sampling: TRANSMISSION
Resolution: 2
Origin: SOUTHERN RESEARCH INSTITUTE
1/CM	TRANSMITTANCE
598.513	0.6315
607.558	0.6144
616.602	0.6051
625.647	0.61
634.691	0.6264
643.736	0.6682
652.78	0.6142
661.825	0.6099
670.869	0.7361
679.914	0.7639
688.958	0.7492
698.003	0.6352
707.047	0.6623
716.092	0.6928
725.136	0.7087
734.181	0.7338
743.225	0.6692
752.27	0.7327
761.315	0.7108
770.359	0.676
779.404	0.602
788.448	0.383
797.493	0.3118
806.537	0.59
815.582	0.5672
824.626	0.6713
833.671	0.6682
842.715	0.6194
851.76	0.4908
860.804	0.4
869.849	0.4973
878.893	0.5582
887.938	0.5377
896.982	0.4388
906.027	0.3718
915.072	0.4707
924.116	0.514
933.161	0.5574
942.205	0.5879
951.25	0.5959
960.294	0.615
969.339	0.6543
978.383	0.6868
987.428	0.6864
996.472	0.6701
1005.52	0.64
1014.56	0.6064
1023.61	0.6039
1032.65	0.594
1041.69	0.611
1050.74	0.6029
1059.78	0.4354
1068.83	0.5974
1077.87	0.6616
1086.92	0.6496
1095.96	0.6372
1105.01	0.5608
1114.05	0.6752
1123.1	0.6737
1132.14	0.6291
1141.18	0.4823
1150.23	0.5952
1159.27	0.656
1168.32	0.6142
1177.36	0.545
1186.41	0.5654
1195.45	0.5781
1204.5	0.4898
1213.54	0.3737
1222.59	0.3537
1231.63	0.2991
1240.67	0.2811
1249.72	0.5286
1258.76	0.5893
1267.81	0.5304
1276.85	0.3498
1285.9	0.4058
1294.94	0.4092
1303.99	0.4062
1313.03	0.4094
1322.08	0.4316
1331.12	0.4093
1340.16	0.3648
1349.21	0.5877
1358.25	0.6572
1367.3	0.6328
1376.34	0.5724
1385.39	0.5032
1394.43	0.4647
1403.48	0.3305
1412.52	0.3022
1421.57	0.3481
1430.61	0.3866
1439.65	0.4523
1448.7	0.4574
1457.74	0.3574
1466.79	0.3018
1475.83	0.5143
1484.88	0.7152
1493.92	0.7513
1502.97	0.7385
1512.01	0.7232
1521.05	0.708
1530.1	0.6927
1539.14	0.6775
1548.19	0.6611
1557.23	0.6058
1566.28	0.6368
1575.32	0.6204
1584.37	0.6032
1593.41	0.6005
1602.46	0.5443
1611.5	0.4829
1620.54	0.4564
1629.59	0.5313
1638.63	0.529
1647.68	0.4834
1656.72	0.4571
1665.77	0.3798
1674.81	0.306
1683.86	0.1388
1692.9	0.0755
1701.95	0.0771
1710.99	0.2668
1720.03	0.381
1729.08	0.4593
1738.12	0.5929
1747.17	0.6511
1756.21	0.6811
1765.26	0.695
1774.3	0.7108
1783.35	0.7147
1792.39	0.7156
1801.44	0.7106
1810.48	0.7094
1819.52	0.7185
1828.57	0.7242
1837.61	0.7149
1846.66	0.7034
1855.7	0.7123
1864.75	0.7327
1873.79	0.7358
1882.84	0.7327
1891.88	0.7342
1900.93	0.7339
1909.97	0.7336
1919.01	0.733
1928.06	0.7314
1937.1	0.73
1946.15	0.7294
1955.19	0.7282
1964.24	0.726
1973.28	0.727
1982.33	0.7268
1991.37	0.7255
2000.41	0.7239
2009.46	0.7218
2018.5	0.7192
2027.55	0.7176
2036.59	0.7131
2045.64	0.7098
2054.68	0.707
2063.73	0.705
2072.77	0.703
2081.82	0.7009
2090.86	0.6987
2099.9	0.6967
2108.95	0.6948
2117.99	0.6934
2127.04	0.6921
2136.08	0.6911
2145.13	0.6905
2154.17	0.6899
2163.22	0.6899
2172.26	0.6893
2181.31	0.6864
2190.35	0.6811
2199.39	0.6749
2208.44	0.669
2217.48	0.6636
2226.53	0.6592
2235.57	0.6559
2244.62	0.653
2253.66	0.6527
2262.71	0.6538
2271.75	0.653
2280.8	0.6488
2289.84	0.6414
2298.88	0.6324
2307.93	0.6225
2316.97	0.6115
2326.02	0.6036
2335.06	0.6001
2344.11	0.5994
2353.15	0.5988
2362.2	0.5982
2371.24	0.5983
2380.29	0.5963
2389.33	0.5874
2398.37	0.5778
2407.42	0.5693
2416.46	0.5614
2425.51	0.5536
2434.55	0.5462
2443.6	0.5394
2452.64	0.5337
2461.69	0.5284
2470.73	0.5243
2479.77	0.516
2488.82	0.5073
2497.86	0.4959
2506.91	0.4821
2515.95	0.467
2525	0.4511
2534.04	0.4354
2543.09	0.4323
2552.13	0.4323
2561.18	0.4394
2570.22	0.4448
2579.26	0.4435
2588.31	0.4381
2597.35	0.432
2606.4	0.4257
2615.44	0.4211
2624.49	0.4217
2633.53	0.4195
2642.58	0.4124
2651.62	0.4107
2660.67	0.4103
2669.71	0.4101
2678.75	0.4131
2687.8	0.4176
2696.84	0.4215
2705.89	0.4209
2714.93	0.4175
2723.98	0.4128
2733.02	0.4086
2742.07	0.4143
2751.11	0.414
2760.16	0.4128
2769.2	0.4136
2778.24	0.4114
2787.29	0.4037
2796.33	0.3956
2805.38	0.3879
2814.42	0.3804
2823.47	0.3728
2832.51	0.3647
2841.56	0.3566
2850.6	0.3483
2859.65	0.3404
2868.69	0.3326
2877.73	0.3256
2886.78	0.319
2895.82	0.3134
2904.87	0.3086
2913.91	0.3037
2922.96	0.3026
2932	0.3082
2941.05	0.3164
2950.09	0.3197
2959.13	0.3217
2968.18	0.323
2977.22	0.3229
2986.27	0.3222
2995.31	0.3204
3004.36	0.315
3013.4	0.3146
3022.45	0.3172
3031.49	0.3195
3040.54	0.3205
3049.58	0.321
3058.62	0.3212
3067.67	0.3219
3076.71	0.3264
3085.76	0.3338
3094.8	0.3421
3103.85	0.3512
3112.89	0.3521
3121.94	0.3581
3130.98	0.3681
3140.03	0.3738
3149.07	0.3788
3158.11	0.3844
3167.16	0.3907
3176.2	0.3966
3185.25	0.402
3194.29	0.4068
3203.34	0.4117
3212.38	0.4165
3221.43	0.4212
3230.47	0.4282
3239.52	0.4401
3248.56	0.4454
3257.6	0.4483
3266.65	0.4488
3275.69	0.4517
3284.74	0.4546
3293.78	0.456
3302.83	0.4562
3311.87	0.4546
3320.92	0.4428
3329.96	0.4326
3339.01	0.4249
3348.05	0.4075
3357.09	0.3877
3366.14	0.3522
3375.18	0.3056
3384.23	0.2474
3393.27	0.1916
3402.32	0.1542
3411.36	0.1479
3420.41	0.19
3429.45	0.2541
3438.5	0.3459
3447.54	0.3949
3456.58	0.4198
3465.63	0.4366
3474.67	0.4518
3483.72	0.4629
3492.76	0.4718
3501.81	0.4787
3510.85	0.4853
3519.9	0.4911
3528.94	0.4957
3537.98	0.5
3547.03	0.5049
3556.07	0.512
3565.12	0.5193
3574.16	0.5252
3583.21	0.5316
3592.25	0.539
3601.3	0.5449
3610.34	0.5508
3619.39	0.5572
3628.43	0.5646
3637.47	0.5751
3646.52	0.5846
3655.56	0.5897
3664.61	0.5916
3673.65	0.5919
3682.7	0.5914
3691.74	0.5909
3700.79	0.5907
3709.83	0.5907
3718.88	0.5913
3727.92	0.5923
3736.96	0.5926
3746.01	0.593
3755.05	0.5945
3764.1	0.5949
3773.14	0.5914
3782.19	0.5907
3791.23	0.5939
3800.28	0.6
3809.32	0.6024
3818.37	0.6015
3827.41	0.5985
3836.45	0.5949
3845.5	0.5919
3854.54	0.5915
3863.59	0.5906
3872.63	0.5896
3881.68	0.5887
3890.72	0.5884
3899.77	0.5815
3908.81	0.5815
3917.86	0.5833
3926.9	0.5822
3935.94	0.5795
3944.99	0.5762
3954.03	0.5743
3963.08	0.5749
3972.12	0.5739
3981.17	0.573
3990.21	0.5733
3999.26	0.5743
4008.3	0.5746
