Infrared Spectrum: Indole-3-acetic acid, 4-chloro-2-methyl-
Formula: C11 H10 Cl N O2
CAS: 6127-20-4
State: SOLID (0.7 mg / 650 mg KBr DISC)
Class: COBLENTZ III
Instrument: PERKIN-ELMER 21 (GRATING)
Instrument parameters: FILTER CHANGE ABOUT 1025 CM^-^1
Sampling: TRANSMISSION
Resolution: 2
Origin: SOUTHERN RESEARCH INSTITUTE
1/CM	TRANSMITTANCE
602	0.7074
611	0.7479
620	0.7311
629	0.7016
638	0.6947
647	0.8272
656	0.8248
665	0.7894
674	0.7516
683	0.7907
692	0.7878
701	0.7377
710	0.7435
719	0.7557
728	0.7087
737	0.4466
746	0.624
755	0.7313
764	0.6604
773	0.3456
782	0.7183
791	0.7171
800	0.7874
809	0.7874
818	0.7903
827	0.7863
836	0.7789
845	0.7678
854	0.7545
863	0.7275
872	0.7248
881	0.7205
890	0.7121
899	0.6899
908	0.6754
917	0.6208
926	0.5451
935	0.4744
944	0.4313
953	0.4853
962	0.6639
971	0.7313
980	0.7394
989	0.7352
998	0.7149
1007	0.7117
1016	0.7292
1025	0.7511
1034	0.7557
1043	0.7536
1052	0.7242
1061	0.7809
1070	0.7767
1079	0.7679
1088	0.7545
1097	0.7388
1106	0.7154
1115	0.6274
1124	0.7143
1133	0.7311
1142	0.7175
1151	0.7071
1160	0.6822
1169	0.6354
1178	0.5641
1187	0.4089
1196	0.5203
1205	0.5355
1214	0.3228
1223	0.6107
1232	0.5077
1241	0.5181
1250	0.7738
1259	0.7732
1268	0.7447
1277	0.7008
1286	0.6385
1295	0.6218
1304	0.6909
1313	0.6478
1322	0.5223
1331	0.4372
1340	0.6742
1349	0.65
1358	0.7312
1367	0.7221
1376	0.653
1385	0.5789
1394	0.5227
1403	0.505
1412	0.4439
1421	0.4335
1430	0.5923
1439	0.6169
1448	0.5605
1457	0.6864
1466	0.7207
1475	0.683
1484	0.6377
1493	0.7897
1502	0.784
1511	0.7679
1520	0.7606
1529	0.74
1538	0.7107
1547	0.6825
1556	0.6795
1565	0.7292
1574	0.7138
1583	0.734
1592	0.724
1601	0.6807
1610	0.6154
1619	0.6594
1628	0.6576
1637	0.647
1646	0.6296
1655	0.6048
1664	0.5628
1673	0.4533
1682	0.3519
1691	0.2632
1700	0.1655
1709	0.5283
1718	0.6285
1727	0.7126
1736	0.7794
1745	0.7903
1754	0.7902
1763	0.7883
1772	0.7809
1781	0.7713
1790	0.7715
1799	0.7752
1808	0.7796
1817	0.7864
1826	0.7911
1835	0.7943
1844	0.7959
1853	0.7967
1862	0.7954
1871	0.7915
1880	0.7804
1889	0.7836
1898	0.7876
1907	0.7914
1916	0.7939
1925	0.7896
1934	0.7891
1943	0.7899
1952	0.789
1961	0.785
1970	0.7858
1979	0.7867
1988	0.7867
1997	0.7865
2006	0.7832
2015	0.7803
2024	0.7796
2033	0.7793
2042	0.7787
2051	0.7781
2060	0.7777
2069	0.7759
2078	0.7716
2087	0.771
2096	0.7703
2105	0.7698
2114	0.7741
2123	0.7758
2132	0.7745
2141	0.7732
2150	0.7722
2159	0.7705
2168	0.7684
2177	0.766
2186	0.763
2195	0.7602
2204	0.758
2213	0.7557
2222	0.7529
2231	0.7473
2240	0.7464
2249	0.7462
2258	0.7464
2267	0.7473
2276	0.7475
2285	0.745
2294	0.7407
2303	0.7315
2312	0.7296
2321	0.7273
2330	0.7221
2339	0.7184
2348	0.7242
2357	0.7243
2366	0.7228
2375	0.7188
2384	0.7113
2393	0.7038
2402	0.6975
2411	0.6918
2420	0.6868
2429	0.6824
2438	0.6798
2447	0.6784
2456	0.6766
2465	0.6745
2474	0.6673
2483	0.6507
2492	0.6369
2501	0.6268
2510	0.6194
2519	0.6154
2528	0.6132
2537	0.6143
2546	0.6154
2555	0.6164
2564	0.6171
2573	0.6142
2582	0.6067
2591	0.5979
2600	0.5878
2609	0.5797
2618	0.5781
2627	0.579
2636	0.5837
2645	0.5883
2654	0.5881
2663	0.5874
2672	0.5875
2681	0.5821
2690	0.5756
2699	0.5718
2708	0.5677
2717	0.5679
2726	0.5728
2735	0.5781
2744	0.5844
2753	0.5844
2762	0.585
2771	0.5829
2780	0.5709
2789	0.5656
2798	0.5591
2807	0.5489
2816	0.5397
2825	0.5227
2834	0.5214
2843	0.5099
2852	0.508
2861	0.5047
2870	0.5009
2879	0.4993
2888	0.4852
2897	0.4752
2906	0.4677
2915	0.474
2924	0.4794
2933	0.4812
2942	0.4846
2951	0.4882
2960	0.4927
2969	0.5023
2978	0.5064
2987	0.5103
2996	0.5102
3005	0.5067
3014	0.5032
3023	0.5035
3032	0.5049
3041	0.5073
3050	0.514
3059	0.5162
3068	0.5178
3077	0.5194
3086	0.5233
3095	0.5282
3104	0.5317
3113	0.5355
3122	0.5396
3131	0.5447
3140	0.5496
3149	0.5552
3158	0.5617
3167	0.5634
3176	0.5639
3185	0.5718
3194	0.5755
3203	0.5785
3212	0.5815
3221	0.5838
3230	0.5845
3239	0.5837
3248	0.5836
3257	0.5918
3266	0.5923
3275	0.5922
3284	0.5912
3293	0.5894
3302	0.5862
3311	0.5822
3320	0.5776
3329	0.5723
3338	0.5654
3347	0.5572
3356	0.5475
3365	0.5363
3374	0.5193
3383	0.5004
3392	0.4688
3401	0.4364
3410	0.3913
3419	0.3571
3428	0.3126
3437	0.3251
3446	0.3855
3455	0.4814
3464	0.5325
3473	0.5538
3482	0.5657
3491	0.5735
3500	0.5794
3509	0.585
3518	0.5912
3527	0.5978
3536	0.605
3545	0.6121
3554	0.6189
3563	0.6286
3572	0.6374
3581	0.6478
3590	0.6578
3599	0.6624
3608	0.6666
3617	0.6761
3626	0.6839
3635	0.6896
3644	0.6966
3653	0.7039
3662	0.7075
3671	0.7072
3680	0.7069
3689	0.7071
3698	0.7081
3707	0.7085
3716	0.7092
3725	0.71
3734	0.7102
3743	0.7098
3752	0.7095
3761	0.7098
3770	0.7113
3779	0.7144
3788	0.7191
3797	0.7232
3806	0.7255
3815	0.7257
3824	0.7235
3833	0.7168
3842	0.7092
3851	0.7061
3860	0.7047
3869	0.7036
3878	0.7046
3887	0.7052
3896	0.7047
3905	0.7055
3914	0.7067
3923	0.7078
3932	0.7093
3941	0.7126
3950	0.7071
3959	0.7044
3968	0.7033
3977	0.7034
3986	0.7051
3995	0.7055
