Infrared Spectrum: CARBAMIC ACID, N-METHYL, N-NITROSO-, 4[2-(N'-METHYL-N'-NITROSO-UREIDO)ETHYL]PHENYL ESTER
Formula: C12 H15 N5 O5
CAS: 61295-75-8
State: SOLID (1 mg / 650 mg KBr DISC)
Class: COBLENTZ III
Instrument: PERKIN-ELMER 221 (GRATING)
Instrument parameters: GRATING FOR 4000-1428, FILTERS AT 2490, 980, NaCl PRISM FOR 1428-650 CM^-^1
Sampling: TRANSMISSION
Resolution: 4
Origin: SOUTHERN RESEARCH INSTITUTE
1/CM	TRANSMITTANCE
633.95	0.836
642.391	0.863
650.831	0.875
659.272	0.887
667.712	0.892
676.153	0.891
684.593	0.888
693.034	0.8781
701.474	0.7825
709.915	0.7965
718.355	0.8363
726.796	0.783
735.236	0.6046
743.677	0.4641
752.117	0.217
760.558	0.6299
768.998	0.4726
777.439	0.4031
785.879	0.5291
794.32	0.222
802.76	0.568
811.201	0.3665
819.641	0.1204
828.082	0.591
836.522	0.6909
844.963	0.6083
853.404	0.3631
861.844	0.6119
870.285	0.8262
878.725	0.8393
887.166	0.8262
895.606	0.7969
904.047	0.7337
912.487	0.6632
920.928	0.534
929.368	0.3528
937.809	0.3395
946.249	0.167
954.69	0.0411
963.13	0.0466
971.571	0.1196
980.011	0.4097
988.452	0.6234
996.892	0.5921
1005.33	0.4119
1013.77	0.1651
1022.21	0.3008
1030.65	0.2568
1039.09	0.4267
1047.54	0.452
1055.98	0.614
1064.42	0.5948
1072.86	0.5177
1081.3	0.3722
1089.74	0.1301
1098.18	0.0641
1106.62	0.204
1115.06	0.4807
1123.5	0.5053
1131.94	0.4393
1140.38	0.3269
1148.82	0.1979
1157.26	0.0514
1165.7	0.0917
1174.14	0.2416
1182.58	0.1696
1191.02	0.0404
1199.46	0.069
1207.91	0.0652
1216.35	0.1456
1224.79	0.314
1233.23	0.4367
1241.67	0.5657
1250.11	0.6815
1258.55	0.7485
1266.99	0.7514
1275.43	0.7261
1283.87	0.6964
1292.31	0.6904
1300.75	0.6334
1309.19	0.4846
1317.63	0.3531
1326.07	0.3417
1334.51	0.3133
1342.95	0.2018
1351.39	0.1088
1359.83	0.2435
1368.28	0.4746
1376.72	0.6165
1385.16	0.5711
1393.6	0.3559
1402.04	0.1708
1410.48	0.4095
1418.92	0.407
1427.36	0.3951
1435.8	0.2665
1444.24	0.2715
1452.68	0.1713
1461.12	0.1199
1469.56	0.0406
1478	0.0515
1486.44	0.1731
1494.88	0.1768
1503.32	0.0547
1511.76	0.0536
1520.2	0.0649
1528.65	0.0556
1537.09	0.0719
1545.53	0.2462
1553.97	0.4559
1562.41	0.5575
1570.85	0.6507
1579.29	0.7038
1587.73	0.6866
1596.17	0.707
1604.61	0.7637
1613.05	0.7953
1621.49	0.806
1629.93	0.8017
1638.37	0.7883
1646.81	0.7631
1655.25	0.7424
1663.69	0.664
1672.13	0.5722
1680.57	0.4046
1689.02	0.299
1697.46	0.1826
1705.9	0.0437
1714.34	0.0892
1722.78	0.2954
1731.22	0.2952
1739.66	0.1417
1748.1	0.0432
1756.54	0.053
1764.98	0.1473
1773.42	0.4199
1781.86	0.6037
1790.3	0.6998
1798.74	0.7444
1807.18	0.7725
1815.62	0.8028
1824.06	0.8366
1832.5	0.8606
1840.94	0.886
1849.38	0.9102
1857.83	0.913
1866.27	0.9088
1874.71	0.905
1883.15	0.905
1891.59	0.8962
1900.03	0.892
1908.47	0.9293
1916.91	0.9451
1925.35	0.9521
1933.79	0.955
1942.23	0.955
1950.67	0.955
1959.11	0.958
1967.55	0.958
1975.99	0.958
1984.43	0.958
1992.87	0.958
2001.31	0.958
2009.75	0.9578
2018.2	0.956
2026.64	0.9559
2035.08	0.955
2043.52	0.9541
2051.96	0.958
2060.4	0.959
2068.84	0.961
2077.28	0.964
2085.72	0.964
2094.16	0.9638
2102.6	0.962
2111.04	0.96
2119.48	0.958
2127.92	0.959
2136.36	0.961
2144.8	0.962
2153.24	0.962
2161.68	0.96
2170.12	0.955
2178.57	0.953
2187.01	0.953
2195.45	0.954
2203.89	0.956
2212.33	0.959
2220.77	0.959
2229.21	0.959
2237.65	0.958
2246.09	0.955
2254.53	0.9508
2262.97	0.9399
2271.41	0.9349
2279.85	0.93
2288.29	0.929
2296.73	0.928
2305.17	0.928
2313.61	0.925
2322.05	0.925
2330.49	0.927
2338.94	0.927
2347.38	0.925
2355.82	0.924
2364.26	0.925
2372.7	0.928
2381.14	0.928
2389.58	0.928
2398.02	0.928
2406.46	0.928
2414.9	0.927
2423.34	0.924
2431.78	0.922
2440.22	0.919
2448.66	0.9169
2457.1	0.9129
2465.54	0.9109
2473.98	0.9078
2482.42	0.909
2490.86	0.911
2499.31	0.909
2507.75	0.909
2516.19	0.906
2524.63	0.9039
2533.07	0.902
2541.51	0.9
2549.95	0.899
2558.39	0.898
2566.83	0.8991
2575.27	0.899
2583.71	0.897
2592.15	0.899
2600.59	0.898
2609.03	0.897
2617.47	0.8939
2625.91	0.891
2634.35	0.891
2642.79	0.89
2651.23	0.89
2659.67	0.888
2668.12	0.8869
2676.56	0.884
2685	0.881
2693.44	0.878
2701.88	0.879
2710.32	0.88
2718.76	0.8811
2727.2	0.882
2735.64	0.884
2744.08	0.884
2752.52	0.882
2760.96	0.881
2769.4	0.8799
2777.84	0.8778
2786.28	0.8689
2794.72	0.866
2803.16	0.8639
2811.6	0.86
2820.04	0.8498
2828.49	0.8297
2836.93	0.8198
2845.37	0.8077
2853.81	0.7619
2862.25	0.7459
2870.69	0.745
2879.13	0.7653
2887.57	0.7698
2896.01	0.7579
2904.45	0.74
2912.89	0.7157
2921.33	0.6785
2929.77	0.6405
2938.21	0.626
2946.65	0.6321
2955.09	0.6401
2963.53	0.7013
2971.97	0.7343
2980.41	0.7714
2988.86	0.7811
2997.3	0.781
3005.74	0.781
3014.18	0.7842
3022.62	0.7829
3031.06	0.7685
3039.5	0.759
3047.94	0.7625
3056.38	0.8
3064.82	0.8051
3073.26	0.8292
3081.7	0.832
3090.14	0.83
3098.58	0.83
3107.02	0.83
3115.46	0.831
3123.9	0.832
3132.34	0.836
3140.78	0.833
3149.23	0.83
3157.67	0.827
3166.11	0.827
3174.55	0.826
3182.99	0.8228
3191.43	0.819
3199.87	0.817
3208.31	0.813
3216.75	0.811
3225.19	0.808
3233.63	0.802
3242.07	0.8
3250.51	0.7978
3258.95	0.7918
3267.39	0.7809
3275.83	0.7699
3284.27	0.7589
3292.71	0.7488
3301.15	0.7379
3309.6	0.7249
3318.04	0.7038
3326.48	0.6709
3334.92	0.6429
3343.36	0.574
3351.8	0.4939
3360.24	0.4138
3368.68	0.2993
3377.12	0.1909
3385.56	0.1607
3394	0.3279
3402.44	0.4774
3410.88	0.5488
3419.32	0.6073
3427.76	0.6632
3436.2	0.7021
3444.64	0.7322
3453.08	0.7561
3461.52	0.7652
3469.96	0.7691
3478.41	0.772
3486.85	0.7751
3495.29	0.7819
3503.73	0.786
3512.17	0.7881
3520.61	0.7991
3529.05	0.801
3537.49	0.8051
3545.93	0.8082
3554.37	0.8142
3562.81	0.8161
3571.25	0.817
3579.69	0.818
3588.13	0.8181
3596.57	0.819
3605.01	0.819
3613.45	0.818
3621.89	0.818
3630.33	0.818
3638.78	0.817
3647.22	0.816
3655.66	0.813
3664.1	0.814
3672.54	0.814
3680.98	0.814
3689.42	0.814
3697.86	0.812
3706.3	0.811
3714.74	0.811
3723.18	0.811
3731.62	0.81
3740.06	0.808
3748.5	0.807
3756.94	0.806
3765.38	0.8049
3773.82	0.804
3782.26	0.804
3790.7	0.804
3799.15	0.802
