Infrared Spectrum: Ethyl 3-(4-hydroxy-3-methoxyphenyl)propionate
Formula: C 12 H 16 O 4
CAS: 61292-90-8
State: gas
Origin: EPA-IR VAPOR PHASE LIBRARY
1/CM	ABSORBANCE
549.8	0.0069
559.445	0.00894
569.09	0.00522
578.734	0.00361
588.379	0.00394
598.024	0.00423
607.669	0.00431
617.313	0.00399
626.958	0.00458
636.603	0.00466
646.248	0.00358
655.893	0.00312
665.537	0.00261
675.182	0.00236
684.827	0.00229
694.472	0.00211
704.116	0.00247
713.761	0.00276
723.406	0.00264
733.051	0.00244
742.695	0.00306
752.34	0.00402
761.985	0.00534
771.63	0.00793
781.275	0.01484
790.919	0.02078
800.564	0.01751
810.209	0.0198
819.854	0.01732
829.498	0.00948
839.143	0.00837
848.788	0.01092
858.433	0.01137
868.078	0.00837
877.722	0.00622
887.367	0.0059
897.012	0.00653
906.657	0.00542
916.301	0.00502
925.946	0.00568
935.591	0.00656
945.236	0.00629
954.88	0.00598
964.525	0.00566
974.17	0.00557
983.815	0.00622
993.46	0.00779
1003.1	0.01091
1012.75	0.01708
1022.39	0.02901
1032.04	0.04402
1041.68	0.05205
1051.33	0.03912
1060.97	0.02036
1070.62	0.01275
1080.26	0.01154
1089.91	0.0145
1099.55	0.02136
1109.2	0.03061
1118.84	0.04556
1128.49	0.05003
1138.13	0.06529
1147.78	0.09356
1157.42	0.0964
1167.07	0.08163
1176.71	0.07217
1186.36	0.07167
1196	0.07895
1205.64	0.08846
1215.29	0.08403
1224.93	0.08946
1234.58	0.1051
1244.22	0.09518
1253.87	0.08831
1263.51	0.11373
1273.16	0.11509
1282.8	0.06729
1292.45	0.03891
1302.09	0.02754
1311.74	0.02166
1321.38	0.0189
1331.03	0.0212
1340.67	0.02826
1350.32	0.03512
1359.96	0.0367
1369.61	0.04037
1379.25	0.02886
1388.9	0.01529
1398.54	0.01164
1408.18	0.01153
1417.83	0.0161
1427.47	0.02734
1437.12	0.02945
1446.76	0.0239
1456.41	0.02687
1466.05	0.0276
1475.7	0.02448
1485.34	0.02022
1494.99	0.02939
1504.63	0.07119
1514.28	0.12443
1523.92	0.05572
1533.57	0.01688
1543.21	0.00861
1552.86	0.00617
1562.5	0.0051
1572.15	0.00484
1581.79	0.00622
1591.44	0.0101
1601.08	0.01606
1610.73	0.01568
1620.37	0.01073
1630.01	0.0057
1639.66	0.0037
1649.3	0.00317
1658.95	0.00303
1668.59	0.00334
1678.24	0.00382
1687.88	0.00478
1697.53	0.00655
1707.17	0.00934
1716.82	0.01311
1726.46	0.02097
1736.11	0.04299
1745.75	0.08505
1755.4	0.09647
1765.04	0.05349
1774.69	0.02386
1784.33	0.01194
1793.98	0.00747
1803.62	0.00502
1813.27	0.00359
1822.91	0.00282
1832.55	0.00251
1842.2	0.00263
1851.84	0.00288
1861.49	0.00275
1871.13	0.00223
1880.78	0.00193
1890.42	0.00178
1900.07	0.00175
1909.71	0.00176
1919.36	0.00172
1929	0.00168
1938.65	0.00156
1948.29	0.00142
1957.94	0.00151
1967.58	0.00137
1977.23	0.00151
1986.87	0.00159
1996.52	0.00168
2006.16	0.00164
2015.81	0.00175
2025.45	0.00186
2035.1	0.00191
2044.74	0.00207
2054.38	0.00221
2064.03	0.0021
2073.67	0.00189
2083.32	0.00164
2092.96	0.00126
2102.61	0.0010398
2112.25	0.0010366
2121.9	0.000884
2131.54	0.0009166
2141.19	0.0009156
2150.83	0.0010103
2160.48	0.0010116
2170.12	0.0009188
2179.77	0.0008753
2189.41	0.0008635
2199.06	0.0007303
2208.7	0.0006737
2218.35	0.0008422
2227.99	0.0006464
2237.64	0.0007393
2247.28	0.0007034
2256.92	0.000648
2266.57	0.0007447
2276.21	0.0007978
2285.86	0.0009166
2295.5	0.0010162
2305.15	0.0011164
2314.79	0.0010642
2324.44	0.0009329
2334.08	0.0008336
2343.73	0.0008387
2353.37	0.0009522
2363.02	0.0008871
2372.66	0.0009039
2382.31	0.0010107
2391.95	0.0010025
2401.6	0.0009641
2411.24	0.0008343
2420.89	0.000926
2430.53	0.0008252
2440.18	0.0007532
2449.82	0.0007803
2459.47	0.0008
2469.11	0.0010502
2478.75	0.0010805
2488.4	0.0010287
2498.04	0.00118
2507.69	0.0011289
2517.33	0.00119
2526.98	0.0010712
2536.62	0.0009957
2546.27	0.000865
2555.91	0.0008148
2565.56	0.0007068
2575.2	0.0007079
2584.85	0.0005608
2594.49	0.0007135
2604.14	0.000729
2613.78	0.0007471
2623.43	0.0009253
2633.07	0.0009874
2642.72	0.000867
2652.36	0.0007646
2662.01	0.0006283
2671.65	0.0006487
2681.29	0.0006423
2690.94	0.0006166
2700.58	0.000597
2710.23	0.0006597
2719.87	0.0008757
2729.52	0.0009067
2739.16	0.000924
2748.81	0.0010052
2758.45	0.0010649
2768.1	0.00137
2777.74	0.00154
2787.39	0.00178
2797.03	0.00194
2806.68	0.00246
2816.32	0.00314
2825.97	0.00418
2835.61	0.00615
2845.26	0.00974
2854.9	0.01154
2864.55	0.01042
2874.19	0.01041
2883.84	0.01073
2893.48	0.01105
2903.12	0.01272
2912.77	0.017
2922.41	0.02207
2932.06	0.02836
2941.7	0.03559
2951.35	0.03585
2960.99	0.03204
2970.64	0.03051
2980.28	0.03379
2989.93	0.0324
2999.57	0.02587
3009.22	0.02358
3018.86	0.01451
3028.51	0.01105
3038.15	0.0107
3047.8	0.00996
3057.44	0.00874
3067.09	0.00724
3076.73	0.00489
3086.38	0.00313
3096.02	0.00228
3105.67	0.00206
3115.31	0.00197
3124.95	0.00168
3134.6	0.00156
3144.24	0.00128
3153.89	0.00116
3163.53	0.0009191
3173.18	0.0008466
3182.82	0.0007847
3192.47	0.000633
3202.11	0.000629
3211.76	0.000767
3221.4	0.0006142
3231.05	0.0004137
3240.69	0.0003648
3250.34	0.0002984
3259.98	0.0002633
3269.63	0.0003082
3279.27	0.0003405
3288.92	0.0004355
3298.56	0.0003561
3308.21	0.0004458
3317.85	0.00035
3327.49	0
3337.14	0.00019001
3346.78	0.00015232
3356.43	0.00015807
3366.07	0.0003261
3375.72	0.0003448
3385.36	0.0002514
3395.01	0.0003058
3404.65	0.0003595
3414.3	0.0004306
3423.94	0.000146631
3433.59	0.0004964
3443.23	0.0003175
3452.88	0.0004207
3462.52	0.0007215
3472.17	0.0009122
3481.81	0.00115
3491.46	0.00118
3501.1	0.000995
3510.75	0.0008388
3520.39	0.0009241
3530.04	0.0008288
3539.68	0.0011313
3549.32	0.00146
3558.97	0.00281
3568.61	0.00702
3578.26	0.02358
3587.9	0.05031
3597.55	0.03468
3607.19	0.01007
3616.84	0.00342
3626.48	0.00189
3636.13	0.00132
3645.77	0.00207
3655.42	0.00205
3665.06	0.0006028
3674.71	0.0004279
3684.35	0.0002601
3694	0.0002117
3703.64	0.0003923
3713.29	0.0003851
3722.93	0.00022041
3732.58	0.00015177
3742.22	0.00023911
3751.86	0.0003779
3761.51	0.0003433
3771.15	0.0003796
3780.8	0.0003635
3790.44	0.0005183
3800.09	0.00022703
3809.73	0.0002852
3819.38	0.00016558
3829.02	0.0003528
3838.67	0.0004821
3848.31	0.0002653
3857.96	0.0007227
3867.6	0.0006938
3877.25	0.0006417
3886.89	0.0007048
3896.54	0.0005998
3906.18	0.000455
3915.83	0.0004657
3925.47	0.0004206
3935.12	0.0004462
3944.76	0.0005039
3954.41	0.0003162
3964.05	0.0005272
3973.69	0.0005297
3983.34	0.0004933
3992.98	0.0004487
