Infrared Spectrum: 4-Benzylbiphenyl
Formula: C 19 H 16
CAS: 613-42-3
State: gas
Instrument: HP-GC/MS/IRD
Origin: NIST Mass Spectrometry Data Center
1/CM	ABSORBANCE
550	0.0004096
562	0.0007712
574	0.000676
586	0.0006672
598	0.0005632
610	0.0011104
622	0.0006568
634	0.0003648
646	0.0004464
658	0.0007464
670	0.001424
682	0.002896
694	0.0067704
706	0.0076344
718	0.004804
730	0.0039552
742	0.0043584
754	0.0057192
766	0.0034272
778	0.0012856
790	0.0009304
802	0.0010736
814	0.0010112
826	0.0010528
838	0.001504
850	0.001252
862	0.0004992
874	0.0003496
886	0.0002128
898	0.000312
910	0.000344
922	0.0002544
934	0.0001688
946	0.0001656
958	0.0001064
970	1.76e-05
982	3.12e-05
994	0.0005032
1006	0.0022752
1018	0.0007376
1030	0.001004
1042	0.000504
1054	0.000392
1066	0.0007608
1078	0.00074
1090	0.0003328
1102	0.0005904
1114	0.00062
1126	0.0004064
1138	0.0003832
1150	0.0003096
1162	0.000516
1174	0.000756
1186	0.001036
1198	0.001112
1210	0.0008384
1222	0.0007352
1234	0.0008032
1246	0.000576
1258	0.0005096
1270	0.0004968
1282	0.0005488
1294	0.000644
1306	0.0006144
1318	0.000584
1330	0.00056
1342	0.0004016
1354	0.000392
1366	0.0003832
1378	0.0003848
1390	0.0004024
1402	0.0006736
1414	0.0006688
1426	0.0005944
1438	0.0012088
1450	0.0015464
1462	0.0011096
1474	0.0017816
1486	0.0063176
1498	0.0039376
1510	0.0014136
1522	0.0012136
1534	0.000524
1546	0.000376
1558	0.00044
1570	0.0006024
1582	0.0008856
1594	0.0020832
1606	0.0023584
1618	0.0007584
1630	0.0003744
1642	0.0002984
1654	0.0003264
1666	0.0004096
1678	0.0002944
1690	0.0002352
1702	0.0001992
1714	0.0002144
1726	0.0002776
1738	0.0003008
1750	0.0002664
1762	0.0003136
1774	0.0003976
1786	0.0006656
1798	0.00064
1810	0.000336
1822	0.0002504
1834	0.0001928
1846	0.0002368
1858	0.0003312
1870	0.000444
1882	0.0005408
1894	0.0004744
1906	0.0004264
1918	0.0003368
1930	0.000384
1942	0.0005288
1954	0.0005232
1966	0.0001664
1978	0.0001104
1990	7.92e-05
2002	5.76e-05
2014	8.56e-05
2026	8.16e-05
2038	3.92e-05
2050	4.56e-05
2062	6e-05
2074	6.64e-05
2086	7.2e-05
2098	5.12e-05
2110	7.12e-05
2122	5.44e-05
2134	4.96e-05
2146	4.72e-05
2158	1.76e-05
2170	4.96e-05
2182	6.64e-05
2194	4.64e-05
2206	6.64e-05
2218	3.6e-05
2230	4e-06
2242	3.84e-05
2254	4.48e-05
2266	6.96e-05
2278	7.12e-05
2290	8.4e-05
2302	0.0001112
2314	0.0001464
2326	0.0001008
2338	0.000116
2350	8.72e-05
2362	9.92e-05
2374	7.92e-05
2386	6.16e-05
2398	6.4e-05
2410	8.72e-05
2422	9.28e-05
2434	9.6e-05
2446	8e-05
2458	8.96e-05
2470	9.28e-05
2482	8.32e-05
2494	2.64e-05
2506	7.36e-05
2518	9.12e-05
2530	9.04e-05
2542	8.08e-05
2554	3.12e-05
2566	7.12e-05
2578	8.8e-05
2590	9.84e-05
2602	0.0001152
2614	0.0001152
2626	0.000116
2638	0.0001008
2650	6.64e-05
2662	4.24e-05
2674	6.16e-05
2686	2.88e-05
2698	5.04e-05
2710	2.88e-05
2722	6.8e-05
2734	9.12e-05
2746	3.04e-05
2758	2.48e-05
2770	9.6e-05
2782	6.72e-05
2794	6.48e-05
2806	7.76e-05
2818	0.0001288
2830	0.0002432
2842	0.0004672
2854	0.0007968
2866	0.0005624
2878	0.0004536
2890	0.000564
2902	0.0009616
2914	0.0019456
2926	0.0021352
2938	0.0012648
2950	0.000612
2962	0.000448
2974	0.0004792
2986	0.0006792
2998	0.0011168
3010	0.001908
3022	0.0045912
3034	0.0075416
3046	0.0044888
3058	0.004896
3070	0.008
3082	0.0049288
3094	0.0032496
3106	0.0018424
3118	0.000936
3130	0.0005632
3142	0.000308
3154	0.000216
3166	0.0001376
3178	0.0001608
3190	0.0001024
3202	7.04e-05
3214	2.88e-05
3226	0.0001072
3238	0.0001304
3250	9.44e-05
3262	8.16e-05
3274	8.64e-05
3286	8e-05
3298	0.0001064
3310	0.0001064
3322	0.0001096
3334	0.0001248
3346	9.28e-05
3358	8.96e-05
3370	0.0002288
3382	0.0001488
3394	0.0001384
3406	0.0001536
3418	0.0001256
3430	8e-05
3442	0.0001704
3454	0.0001648
3466	0.0001248
3478	0.000236
3490	0.0001784
3502	0.0001544
3514	0.0002056
3526	0.0001184
3538	0.0001744
3550	0.000204
3562	0.0001224
3574	0.0002088
3586	0.0001824
3598	0.0001144
3610	7.6e-05
3622	0.0001696
3634	0.0001512
3646	0.0002976
3658	0.0002672
3670	0.0002536
3682	0.0001616
3694	0.00024
3706	0.0001312
3718	0.000252
3730	0.0002008
3742	0.0002352
3754	0.0002824
3766	0.0001688
3778	0.0001848
3790	0.000148
3802	0.0002864
3814	0.0001888
3826	0.0002312
3838	0.0002
