Infrared Spectrum: 9,10-Dihydroanthracene
Formula: C 14 H 12
CAS: 613-31-0
State: gas
Instrument: HP-GC/MS/IRD
Origin: NIST Mass Spectrometry Data Center
1/CM	ABSORBANCE
550	0.0006528
562	3.52e-05
574	0.000256
586	0.0005072
598	0.0019744
610	0.0032992
622	0.0011776
634	0.0008384
646	0.0006144
658	0.0004448
670	0.0004544
682	0.000488
694	0.0009312
706	0.0027312
718	0.0097152
730	0.0158224
742	0.0135264
754	0.0084048
766	0.003632
778	0.0010736
790	0.000592
802	0.0003632
814	0.0003488
826	0.0003456
838	0.0003664
850	0.0004096
862	0.0005776
874	0.0005232
886	0.0007056
898	0.000744
910	0.0004432
922	0.0003248
934	0.000616
946	0.0011216
958	0.0013712
970	0.000688
982	0.0005056
994	0.0005792
1006	0.0004256
1018	0.0003824
1030	0.0008704
1042	0.0016416
1054	0.0003984
1066	0.0003168
1078	0.000304
1090	0.0002752
1102	0.0003376
1114	0.000928
1126	0.0009424
1138	0.0006096
1150	0.0010752
1162	0.0007952
1174	0.0009504
1186	0.0010688
1198	0.0018736
1210	0.0020944
1222	0.0005792
1234	0.0003792
1246	0.0003808
1258	0.0005008
1270	0.0008912
1282	0.0008992
1294	0.0006576
1306	0.0002784
1318	0.0003008
1330	0.0004816
1342	0.0005056
1354	0.0005472
1366	0.0003792
1378	0.000392
1390	0.0004576
1402	0.0005904
1414	0.0008416
1426	0.0019008
1438	0.0023984
1450	0.0041344
1462	0.0044912
1474	0.0061552
1486	0.0080256
1498	0.0036432
1510	0.0010352
1522	0.0004176
1534	0.0003392
1546	0.0002992
1558	0.000448
1570	0.001488
1582	0.001752
1594	0.000888
1606	0.0006832
1618	0.000304
1630	0.0002784
1642	0.0002432
1654	0.0001472
1666	0.0002752
1678	0.000368
1690	0.000568
1702	0.0004064
1714	0.0001616
1726	0.000128
1738	9.12e-05
1750	6.4e-05
1762	0.0001552
1774	0.0003056
1786	0.0007632
1798	0.0007184
1810	0.0005888
1822	0.0005792
1834	0.0005296
1846	0.0002048
1858	0.0002992
1870	0.000296
1882	0.0003472
1894	0.0005376
1906	0.000656
1918	0.0005536
1930	0.0008704
1942	0.0008032
1954	0.000176
1966	7.04e-05
1978	5.76e-05
1990	3.84e-05
2002	3.52e-05
2014	5.28e-05
2026	8e-05
2038	4.16e-05
2050	4.16e-05
2062	3.84e-05
2074	5.28e-05
2086	3.2e-05
2098	2.08e-05
2110	4.48e-05
2122	4.16e-05
2134	2.72e-05
2146	3.2e-05
2158	3.68e-05
2170	2.88e-05
2182	1.76e-05
2194	5.44e-05
2206	7.36e-05
2218	3.04e-05
2230	4e-05
2242	2.88e-05
2254	8e-06
2266	7.04e-05
2278	4.32e-05
2290	5.6e-05
2302	6.72e-05
2314	0.0001744
2326	0.0001856
2338	0.0001136
2350	9.12e-05
2362	5.6e-05
2374	8.96e-05
2386	6.24e-05
2398	5.44e-05
2410	4.96e-05
2422	5.28e-05
2434	0.0001104
2446	0.0001216
2458	0.0001152
2470	0.0001312
2482	0.0001424
2494	0.0001216
2506	0.0001008
2518	9.44e-05
2530	0.0001072
2542	0.0001312
2554	0.0001776
2566	0.0001664
2578	0.0001104
2590	9.44e-05
2602	0.000136
2614	0.0001808
2626	0.0001808
2638	0.000176
2650	0.0001424
2662	0.0001616
2674	0.0001696
2686	0.0001632
2698	0.0001616
2710	0.0001712
2722	0.0001888
2734	0.0001824
2746	0.0002288
2758	0.0003312
2770	0.0004208
2782	0.0005104
2794	0.0006928
2806	0.0011568
2818	0.0027136
2830	0.0040736
2842	0.00264
2854	0.0021728
2866	0.0031312
2878	0.0035504
2890	0.0022592
2902	0.0014816
2914	0.0017392
2926	0.0030432
2938	0.0050512
2950	0.0039904
2962	0.0016832
2974	0.0008896
2986	0.0008688
2998	0.0015744
3010	0.0042544
3022	0.008984
3034	0.009096
3046	0.0067296
3058	0.0086576
3070	0.0105984
3082	0.0093344
3094	0.0033184
3106	0.0016576
3118	0.0009872
3130	0.0005888
3142	0.0003952
3154	0.0004032
3166	0.0004112
3178	0.0003216
3190	0.00024
3202	0.0001968
3214	0.0001936
3226	0.0001568
3238	0.000128
3250	0.0001552
3262	0.0001616
3274	0.0001088
3286	0.000144
3298	0.000144
3310	0.0001376
3322	0.0001232
3334	0.000104
3346	9.44e-05
3358	0.0001232
3370	0.0001392
3382	0.0001408
3394	0.00012
3406	0.0001008
3418	0.0001168
3430	0.0001056
3442	5.44e-05
3454	7.84e-05
3466	0.0001296
3478	0.0001232
3490	0.000128
3502	5.12e-05
3514	0.0001072
3526	6.4e-06
3538	0.0001216
3550	6.72e-05
3562	8.64e-05
3574	0.0001136
3586	7.68e-05
3598	0.00012
3610	6.4e-05
3622	0.0001536
3634	0.0001392
3646	0.0001024
3658	0.0001248
3670	7.84e-05
3682	0.0001424
3694	0.0001632
3706	0.0001472
3718	0.0001216
3730	8.8e-05
3742	6.24e-05
3754	0.0001056
3766	0.0001344
3778	0.0001808
3790	0.000152
3802	0.0001472
3814	0.0001872
3826	0.0001984
3838	0.00012
