Infrared Spectrum: Benzoyl hydrazine
Formula: C 7 H 8 N 2 O
CAS: 613-94-5
State: gas
Instrument: HP-GC/MS/IRD
Origin: NIST Mass Spectrometry Data Center
1/CM	ABSORBANCE
550	0.001728
562	0.000606
574	0.000375
586	0.000525
598	0.000501
610	0.000651
622	0.000444
634	0.000567
646	0.000615
658	0.001023
670	0.003171
682	0.005847
694	0.009018
706	0.012003
718	0.008436
730	0.003834
742	0.001674
754	0.000996
766	0.000957
778	0.001191
790	0.001422
802	0.001044
814	0.0006
826	0.000555
838	0.000564
850	0.000531
862	0.000591
874	0.000774
886	0.001434
898	0.002808
910	0.005265
922	0.009765
934	0.013077
946	0.010014
958	0.004482
970	0.001917
982	0.000981
994	0.000777
1006	0.00075
1018	0.00093
1030	0.001005
1042	0.000438
1054	0.000489
1066	0.000735
1078	0.000789
1090	0.000726
1102	0.000564
1114	0.000237
1126	3.6e-05
1138	1.8e-05
1150	0.000177
1162	0.000483
1174	0.001128
1186	0.00135
1198	0.000657
1210	0.000561
1222	0.000861
1234	0.001482
1246	0.002253
1258	0.004569
1270	0.010995
1282	0.015708
1294	0.011226
1306	0.00489
1318	0.001782
1330	0.001113
1342	0.001029
1354	0.000927
1366	0.000819
1378	0.000957
1390	0.001455
1402	0.002544
1414	0.005079
1426	0.010866
1438	0.016824
1450	0.018465
1462	0.015999
1474	0.010524
1486	0.007353
1498	0.006288
1510	0.00477
1522	0.002826
1534	0.001959
1546	0.001581
1558	0.001674
1570	0.002382
1582	0.002847
1594	0.002922
1606	0.003768
1618	0.005535
1630	0.008049
1642	0.007971
1654	0.005811
1666	0.005382
1678	0.008568
1690	0.020382
1702	0.029382
1714	0.020742
1726	0.007881
1738	0.004143
1750	0.002397
1762	0.00159
1774	0.001161
1786	0.000846
1798	0.000948
1810	0.000855
1822	0.00054
1834	0.00048
1846	0.000486
1858	0.000408
1870	0.000414
1882	0.000558
1894	0.000648
1906	0.000657
1918	0.000525
1930	0.000483
1942	0.000594
1954	0.000702
1966	0.000672
1978	0.000462
1990	0.000306
2002	0.000306
2014	0.00033
2026	0.000303
2038	0.000321
2050	0.000306
2062	0.000321
2074	0.000324
2086	0.000342
2098	0.000333
2110	0.000342
2122	0.00036
2134	0.000381
2146	0.000375
2158	0.000393
2170	0.000387
2182	0.000372
2194	0.00036
2206	0.000396
2218	0.000384
2230	0.000399
2242	0.000414
2254	0.000393
2266	0.000396
2278	0.000417
2290	0.00039
2302	0.000381
2314	0.000435
2326	0.000492
2338	0.000429
2350	0.000444
2362	0.000447
2374	0.000396
2386	0.000396
2398	0.000351
2410	0.000381
2422	0.00039
2434	0.000357
2446	0.000336
2458	0.000351
2470	0.000396
2482	0.000387
2494	0.000381
2506	0.000426
2518	0.000441
2530	0.00045
2542	0.000465
2554	0.000408
2566	0.000474
2578	0.000399
2590	0.000423
2602	0.000411
2614	0.00036
2626	0.000357
2638	0.000384
2650	0.000384
2662	0.000393
2674	0.00036
2686	0.000363
2698	0.000459
2710	0.000474
2722	0.000501
2734	0.000483
2746	0.000471
2758	0.000435
2770	0.00042
2782	0.000471
2794	0.00051
2806	0.000507
2818	0.00051
2830	0.000426
2842	0.000441
2854	0.000477
2866	0.000471
2878	0.000507
2890	0.000534
2902	0.000492
2914	0.000453
2926	0.000504
2938	0.000483
2950	0.000492
2962	0.000516
2974	0.000441
2986	0.000525
2998	0.000615
3010	0.00087
3022	0.001494
3034	0.002571
3046	0.002874
3058	0.003147
3070	0.004998
3082	0.004566
3094	0.002862
3106	0.001878
3118	0.001071
3130	0.000678
3142	0.000555
3154	0.000642
3166	0.000609
3178	0.000594
3190	0.000696
3202	0.00069
3214	0.000693
3226	0.000603
3238	0.00051
3250	0.000555
3262	0.000498
3274	0.000504
3286	0.000576
3298	0.000642
3310	0.00063
3322	0.00066
3334	0.000729
3346	0.000768
3358	0.000768
3370	0.00072
3382	0.000909
3394	0.000879
3406	0.000786
3418	0.000882
3430	0.001212
3442	0.001722
3454	0.002718
3466	0.004374
3478	0.004536
3490	0.002739
3502	0.001443
3514	0.000834
3526	0.000603
3538	0.000531
3550	0.000456
3562	0.000393
3574	0.000432
3586	0.000507
3598	0.000471
3610	0.00042
3622	0.000378
3634	0.000378
3646	0.000411
3658	0.000411
3670	0.000366
3682	0.000408
3694	0.000411
3706	0.000387
3718	0.000408
3730	0.000453
3742	0.000366
3754	0.000354
3766	0.000354
3778	0.000345
3790	0.000327
3802	0.00039
3814	0.00033
3826	0.00036
3838	0.000369
