Infrared Spectrum: 2-TRIBROMO-METHYL-QUINOLINE
Formula: C10 H6 Br3 N
CAS: 613-53-6
State: SOLID (1.5% IN KBr PELLET)
Class: COBLENTZ
Instrument: Not specified, most likely a prism, grating, or hybrid spectrometer.
Sampling: TRANSMISSION
Path length: 0.0355 CM THICK
Resolution: 4
Origin: ANDERSON PHYSICAL LABORATORY
1/CM	TRANSMITTANCE
672.177	0.641
680.599	0.606
689.02	0.571
697.442	0.523
705.864	0.3541
714.286	0.206
722.707	0.269
731.129	0.2949
739.551	0.614
747.973	0.526
756.394	0.173
764.816	0.095
773.238	0.2508
781.66	0.5748
790.081	0.855
798.503	0.865
806.925	0.859
815.347	0.841
823.768	0.787
832.19	0.517
840.612	0.6051
849.034	0.841
857.455	0.841
865.877	0.823
874.299	0.807
882.721	0.804
891.142	0.786
899.564	0.748
907.986	0.65
916.408	0.597
924.829	0.802
933.251	0.81
941.673	0.772
950.095	0.748
958.516	0.6561
966.938	0.65
975.36	0.705
983.782	0.668
992.203	0.713
1000.63	0.754
1009.05	0.73
1017.47	0.696
1025.89	0.699
1034.31	0.745
1042.73	0.739
1051.16	0.736
1059.58	0.733
1068	0.727
1076.42	0.723
1084.84	0.713
1093.26	0.698
1101.69	0.669
1110.11	0.626
1118.53	0.573
1126.95	0.632
1135.37	0.635
1143.79	0.554
1152.22	0.55
1160.64	0.626
1169.06	0.681
1177.48	0.683
1185.9	0.665
1194.33	0.654
1202.75	0.66
1211.17	0.651
1219.59	0.624
1228.01	0.636
1236.43	0.647
1244.86	0.632
1253.28	0.612
1261.7	0.606
1270.12	0.611
1278.54	0.597
1286.96	0.581
1295.39	0.52
1303.81	0.421
1312.23	0.434
1320.65	0.582
1329.07	0.62
1337.49	0.603
1345.92	0.587
1354.34	0.587
1362.76	0.568
1371.18	0.551
1379.6	0.499
1388.03	0.485
1396.45	0.579
1404.87	0.568
1413.29	0.556
1421.71	0.511
1430.13	0.454
1438.56	0.5819
1446.98	0.575
1455.4	0.563
1463.82	0.532
1472.24	0.517
1480.66	0.505
1489.09	0.491
1497.51	0.394
1505.93	0.376
1514.35	0.5
1522.77	0.524
1531.19	0.503
1539.62	0.49
1548.04	0.451
1556.46	0.426
1564.88	0.403
1573.3	0.412
1581.73	0.418
1590.15	0.3179
1598.57	0.3273
1606.99	0.536
1615.41	0.5
1623.83	0.517
1632.26	0.529
1640.68	0.523
1649.1	0.524
1657.52	0.521
1665.94	0.517
1674.36	0.512
1682.79	0.512
1691.21	0.505
1699.63	0.502
1708.05	0.493
1716.47	0.494
1724.9	0.494
1733.32	0.494
1741.74	0.491
1750.16	0.49
1758.58	0.49
1767	0.485
1775.43	0.481
1783.85	0.476
1792.27	0.472
1800.69	0.47
1809.11	0.467
1817.53	0.467
1825.96	0.466
1834.38	0.469
1842.8	0.461
1851.22	0.46
1859.64	0.46
1868.06	0.46
1876.49	0.46
1884.91	0.452
1893.33	0.449
1901.75	0.446
1910.17	0.439
1918.6	0.439
1927.02	0.436
1935.44	0.424
1943.86	0.426
1952.28	0.428
1960.7	0.426
1969.13	0.418
1977.55	0.42
1985.97	0.434
1994.39	0.443
2002.81	0.437
2011.23	0.431
2019.66	0.4268
2028.08	0.4225
2036.5	0.4157
2044.92	0.414
2053.34	0.4135
2061.76	0.4115
2070.19	0.411
2078.61	0.409
2087.03	0.406
2095.45	0.405
2103.87	0.403
2112.3	0.4019
2120.72	0.399
2129.14	0.397
2137.56	0.3946
2145.98	0.3899
2154.4	0.3847
2162.83	0.3785
2171.25	0.3752
2179.67	0.3749
2188.09	0.3727
2196.51	0.3709
2204.93	0.3692
2213.36	0.3659
2221.78	0.3624
2230.2	0.3588
2238.62	0.358
2247.04	0.3549
2255.47	0.3534
2263.89	0.3514
2272.31	0.351
2280.73	0.3508
2289.15	0.349
2297.57	0.3468
2306	0.3422
2314.42	0.337
2322.84	0.3367
2331.26	0.3348
2339.68	0.334
2348.1	0.3339
2356.53	0.333
2364.95	0.3318
2373.37	0.331
2381.79	0.3296
2390.21	0.327
2398.63	0.3244
2407.06	0.322
2415.48	0.319
2423.9	0.3172
2432.32	0.3137
2440.74	0.312
2449.17	0.31
2457.59	0.3096
2466.01	0.309
2474.43	0.3061
2482.85	0.304
2491.27	0.304
2499.7	0.303
2508.12	0.3001
2516.54	0.298
2524.96	0.297
2533.38	0.2943
2541.8	0.2892
2550.23	0.2888
2558.65	0.2871
2567.07	0.285
2575.49	0.284
2583.91	0.2818
2592.33	0.281
2600.76	0.281
2609.18	0.2811
2617.6	0.279
2626.02	0.279
2634.44	0.278
2642.87	0.278
2651.29	0.2754
2659.71	0.2725
2668.13	0.2693
2676.55	0.269
2684.97	0.269
2693.4	0.2681
2701.82	0.2646
2710.24	0.263
2718.66	0.261
2727.08	0.261
2735.5	0.261
2743.93	0.26
2752.35	0.258
2760.77	0.258
2769.19	0.258
2777.61	0.257
2786.03	0.258
2794.46	0.2575
2802.88	0.2542
2811.3	0.252
2819.72	0.252
2828.14	0.252
2836.57	0.252
2844.99	0.251
2853.41	0.2487
2861.83	0.2469
2870.25	0.245
2878.67	0.245
2887.1	0.245
2895.52	0.243
2903.94	0.2422
2912.36	0.239
2920.78	0.237
2929.2	0.237
2937.63	0.237
2946.05	0.2359
2954.47	0.2301
2962.89	0.2244
2971.31	0.2212
2979.74	0.218
2988.16	0.218
2996.58	0.215
3005	0.216
3013.42	0.2159
3021.84	0.215
3030.27	0.213
3038.69	0.213
3047.11	0.213
3055.53	0.213
3063.95	0.213
3072.37	0.213
3080.8	0.213
3089.22	0.213
3097.64	0.213
3106.06	0.213
3114.48	0.213
3122.9	0.2126
3131.33	0.2081
3139.75	0.204
3148.17	0.203
3156.59	0.203
3165.01	0.201
3173.44	0.2
3181.86	0.198
3190.28	0.197
3198.7	0.1957
3207.12	0.195
3215.54	0.194
3223.97	0.194
3232.39	0.192
3240.81	0.1911
3249.23	0.1907
3257.65	0.189
3266.07	0.188
3274.5	0.188
3282.92	0.1882
3291.34	0.189
3299.76	0.189
3308.18	0.188
3316.6	0.186
3325.03	0.185
3333.45	0.185
3341.87	0.1831
3350.29	0.1816
3358.71	0.1796
3367.14	0.1776
3375.56	0.177
3383.98	0.177
3392.4	0.177
3400.82	0.177
3409.24	0.177
3417.67	0.176
3426.09	0.175
3434.51	0.174
3442.93	0.173
3451.35	0.173
3459.77	0.171
3468.2	0.171
3476.62	0.171
3485.04	0.17
3493.46	0.17
3501.88	0.168
3510.31	0.168
3518.73	0.1685
3527.15	0.17
3535.57	0.1702
3543.99	0.17
3552.41	0.168
3560.84	0.168
3569.26	0.167
3577.68	0.167
3586.1	0.167
3594.52	0.167
3602.94	0.167
3611.37	0.167
3619.79	0.167
3628.21	0.167
3636.63	0.167
3645.05	0.168
3653.47	0.168
3661.9	0.168
3670.32	0.167
3678.74	0.165
3687.16	0.164
3695.58	0.164
3704.01	0.162
3712.43	0.1609
3720.85	0.1587
3729.27	0.1568
3737.69	0.1576
3746.11	0.1581
3754.54	0.161
3762.96	0.159
3771.38	0.1582
3779.8	0.156
3788.22	0.155
3796.64	0.156
3805.07	0.156
3813.49	0.155
3821.91	0.155
3830.33	0.155
3838.75	0.155
3847.17	0.155
3855.6	0.155
3864.02	0.155
3872.44	0.155
3880.86	0.155
3889.28	0.153
3897.71	0.153
3906.13	0.152
3914.55	0.15
3922.97	0.15
3931.39	0.15
3939.81	0.15
3948.24	0.1498
3956.66	0.147
3965.08	0.147
3973.5	0.146
3981.92	0.144
