Infrared Spectrum: S-(-)-1-Phenylpropanol
Formula: C 9 H 12 O
CAS: 613-87-6
State: gas
Origin: EPA-IR VAPOR PHASE LIBRARY
1/CM	ABSORBANCE
549.8	0.006199
559.445	0.003219
569.09	0.003129
578.734	0.002969
588.379	0.003049
598.024	0.003949
607.669	0.004649
617.313	0.005089
626.958	0.005699
636.603	0.004659
646.248	0.005039
655.893	0.006359
665.537	0.007549
675.182	0.010859
684.827	0.023409
694.472	0.043309
704.116	0.042099
713.761	0.024089
723.406	0.014379
733.051	0.016189
742.695	0.023069
752.34	0.026899
761.985	0.023579
771.63	0.014119
781.275	0.007359
790.919	0.004599
800.564	0.003889
810.209	0.003579
819.854	0.003999
829.498	0.004929
839.143	0.005199
848.788	0.004289
858.433	0.003909
868.078	0.004779
877.722	0.005979
887.367	0.008219
897.012	0.009579
906.657	0.009469
916.301	0.007429
925.946	0.006759
935.591	0.007399
945.236	0.009849
954.88	0.014519
964.525	0.022079
974.17	0.027909
983.815	0.026269
993.46	0.024679
1003.1	0.027809
1012.75	0.029029
1022.39	0.026099
1032.04	0.023999
1041.68	0.022099
1051.33	0.019219
1060.97	0.017089
1070.62	0.017819
1080.26	0.018459
1089.91	0.018799
1099.55	0.017599
1109.2	0.014559
1118.84	0.011349
1128.49	0.007919
1138.13	0.006529
1147.78	0.005599
1157.42	0.007819
1167.07	0.010349
1176.71	0.013679
1186.36	0.014039
1196	0.014649
1205.64	0.015569
1215.29	0.018029
1224.93	0.018509
1234.58	0.016209
1244.22	0.014479
1253.87	0.013969
1263.51	0.014949
1273.16	0.015849
1282.8	0.016099
1292.45	0.016409
1302.09	0.016269
1311.74	0.015849
1321.38	0.015309
1331.03	0.013989
1340.67	0.012949
1350.32	0.014479
1359.96	0.017079
1369.61	0.018639
1379.25	0.018369
1388.9	0.015639
1398.54	0.011179
1408.18	0.007749
1417.83	0.006579
1427.47	0.007229
1437.12	0.010799
1446.76	0.016779
1456.41	0.018879
1466.05	0.015339
1475.7	0.011419
1485.34	0.012249
1494.99	0.011769
1504.63	0.006849
1514.28	0.003449
1523.92	0.002709
1533.57	0.002769
1543.21	0.002559
1552.86	0.002149
1562.5	0.002019
1572.15	0.002189
1581.79	0.003119
1591.44	0.004549
1601.08	0.005639
1610.73	0.003929
1620.37	0.001909
1630.01	0.001559
1639.66	0.001479
1649.3	0.001739
1658.95	0.001959
1668.59	0.002139
1678.24	0.002359
1687.88	0.003359
1697.53	0.005439
1707.17	0.005879
1716.82	0.003939
1726.46	0.002209
1736.11	0.001749
1745.75	0.001859
1755.4	0.001619
1765.04	0.001409
1774.69	0.0012394
1784.33	0.001829
1793.98	0.002859
1803.62	0.003079
1813.27	0.001949
1822.91	0.0011882
1832.55	0.000991
1842.2	0.0009219
1851.84	0.0012809
1861.49	0.001709
1871.13	0.002209
1880.78	0.002539
1890.42	0.002219
1900.07	0.001419
1909.71	0.0011761
1919.36	0.001429
1929	0.002039
1938.65	0.002739
1948.29	0.003239
1957.94	0.002529
1967.58	0.001549
1977.23	0.0008298
1986.87	0.0007063
1996.52	0.0006585
2006.16	0.0006867
2015.81	0.0006279
2025.45	0.0005838
2035.1	0.0005949
2044.74	0.0006627
2054.38	0.0006779
2064.03	0.0005668
2073.67	0.00038802
2083.32	0.0005101
2092.96	0.000503
2102.61	0.00041369
2112.25	0.00040624
2121.9	0.0004382
2131.54	0.00039561
2141.19	0.0005071
2150.83	0.000459
2160.48	0.0004919
2170.12	0.0004505
2179.77	0.0005239
2189.41	0.0005048
2199.06	0.0005427
2208.7	0.00051
2218.35	0.0005028
2227.99	0.0005494
2237.64	0.0005006
2247.28	0.0005945
2256.92	0.0006113
2266.57	0.0006531
2276.21	0.0006561
2285.86	0.0006569
2295.5	0.0007134
2305.15	0.0007049
2314.79	0.0010385
2324.44	0.0009997
2334.08	0.0008818
2343.73	0.0010176
2353.37	0.000843
2363.02	0.0008092
2372.66	0.0006506
2382.31	0.0006603
2391.95	0.0007425
2401.6	0.0006877
2411.24	0.0006797
2420.89	0.0008987
2430.53	0.0008122
2440.18	0.0007486
2449.82	0.0007835
2459.47	0.0007402
2469.11	0.0007452
2478.75	0.0006122
2488.4	0.000622
2498.04	0.0005014
2507.69	0.0006433
2517.33	0.0007111
2526.98	0.0007297
2536.62	0.0006407
2546.27	0.0007765
2555.91	0.0009672
2565.56	0.000968
2575.2	0.0011545
2584.85	0.0012586
2594.49	0.0012473
2604.14	0.0012075
2613.78	0.0011852
2623.43	0.0011658
2633.07	0.0011686
2642.72	0.0008214
2652.36	0.0010415
2662.01	0.0009437
2671.65	0.0013219
2681.29	0.0011776
2690.94	0.001519
2700.58	0.001349
2710.23	0.001429
2719.87	0.001459
2729.52	0.001659
2739.16	0.001729
2748.81	0.001919
2758.45	0.001859
2768.1	0.001929
2777.74	0.002359
2787.39	0.002349
2797.03	0.002689
2806.68	0.003019
2816.32	0.003419
2825.97	0.004799
2835.61	0.006059
2845.26	0.008479
2854.9	0.013449
2864.55	0.021039
2874.19	0.030029
2883.84	0.036459
2893.48	0.031959
2903.12	0.023519
2912.77	0.022279
2922.41	0.028259
2932.06	0.040179
2941.7	0.047149
2951.35	0.041219
2960.99	0.038419
2970.64	0.050359
2980.28	0.046959
2989.93	0.027669
2999.57	0.014479
3009.22	0.011719
3018.86	0.016069
3028.51	0.024689
3038.15	0.027079
3047.8	0.021789
3057.44	0.021369
3067.09	0.030439
3076.73	0.031029
3086.38	0.021429
3096.02	0.015399
3105.67	0.010189
3115.31	0.005929
3124.95	0.003299
3134.6	0.002079
3144.24	0.001899
3153.89	0.0012549
3163.53	0.001599
3173.18	0.001409
3182.82	0.0011398
3192.47	0.0008822
3202.11	0.0007063
3211.76	0.0007422
3221.4	0.0005895
3231.05	0.00042047
3240.69	0.00035381
3250.34	0.0005648
3259.98	0.0008415
3269.63	0.0004564
3279.27	0.000222
3288.92	0.0005268
3298.56	0.0004687
3308.21	0.000315
3317.85	5.8e-05
3327.49	0.00037765
3337.14	0.0005066
3346.78	0.0003154
3356.43	0.0009709
3366.07	0.0005595
3375.72	0.000758
3385.36	0.0007717
3395.01	0.0006625
3404.65	0.0006784
3414.3	0.000712
3423.94	0.0005456
3433.59	0.0010487
3443.23	0.0004683
3452.88	0.0005265
3462.52	0.0006949
3472.17	0.0005321
3481.81	0.0006353
3491.46	0.0008021
3501.1	0.0005894
3510.75	0.000543
3520.39	0.00039414
3530.04	0.0007304
3539.68	0.0006494
3549.32	0.0006053
3558.97	0.0005983
3568.61	0.0005877
3578.26	0.000909
3587.9	0.0007203
3597.55	0.0010344
3607.19	0.0012666
3616.84	0.001959
3626.48	0.003689
3636.13	0.008899
3645.77	0.014079
3655.42	0.013209
3665.06	0.007109
3674.71	0.003389
3684.35	0.0012921
3694	0.001399
3703.64	0.0008087
3713.29	0.0009335
3722.93	0.000771
3732.58	0.00042679
3742.22	0.0009432
3751.86	0.0005645
3761.51	0.0006316
3771.15	0.0008148
3780.8	0.000659
3790.44	0.0004648
3800.09	0.0005683
3809.73	0.0006196
3819.38	0.0006545
3829.02	0.0009108
3838.67	0.0007479
3848.31	0.0008768
3857.96	0.0008933
3867.6	0.0009594
3877.25	0.0009069
3886.89	0.0009594
3896.54	0.0006963
3906.18	0.0004476
3915.83	0.0008471
3925.47	0.0007907
3935.12	0.0006138
3944.76	0.0006281
3954.41	0.000646
3964.05	0.0006481
3973.69	0.0005383
3983.34	0.0009225
3992.98	0.0005323
