Infrared Spectrum: N-Methylbenzamide
Formula: C 8 H 9 N O
CAS: 613-93-4
State: gas
Origin: EPA-IR VAPOR PHASE LIBRARY
1/CM	ABSORBANCE
549.8	0.00327396
559.445	0.00318396
569.09	0.00286396
578.734	0.00264396
588.379	0.00282396
598.024	0.00227396
607.669	0.00274396
617.313	0.00257396
626.958	0.00209396
636.603	0.00206396
646.248	0.00307396
655.893	0.00676396
665.537	0.014944
675.182	0.021144
684.827	0.027364
694.472	0.045774
704.116	0.067044
713.761	0.056434
723.406	0.034074
733.051	0.015744
742.695	0.00881396
752.34	0.00645396
761.985	0.00624396
771.63	0.00628396
781.275	0.00752396
790.919	0.00874396
800.564	0.00773396
810.209	0.00660396
819.854	0.00603396
829.498	0.00540396
839.143	0.00449396
848.788	0.00415396
858.433	0.00416396
868.078	0.00458396
877.722	0.00510396
887.367	0.00599396
897.012	0.00667396
906.657	0.00646396
916.301	0.00646396
925.946	0.00618396
935.591	0.00520396
945.236	0.00457396
954.88	0.00384396
964.525	0.00398396
974.17	0.00445396
983.815	0.00704396
993.46	0.010434
1003.1	0.012664
1012.75	0.00974396
1022.39	0.00723396
1032.04	0.00593396
1041.68	0.00352396
1051.33	0.00330396
1060.97	0.00553396
1070.62	0.00621396
1080.26	0.00516396
1089.91	0.00478396
1099.55	0.00543396
1109.2	0.00550396
1118.84	0.00600396
1128.49	0.00788396
1138.13	0.013784
1147.78	0.016544
1157.42	0.012284
1167.07	0.010224
1176.71	0.013044
1186.36	0.012014
1196	0.00673396
1205.64	0.00570396
1215.29	0.00729396
1224.93	0.011864
1234.58	0.017454
1244.22	0.026264
1253.87	0.050574
1263.51	0.097404
1273.16	0.106414
1282.8	0.057314
1292.45	0.031844
1302.09	0.019344
1311.74	0.011014
1321.38	0.00799396
1331.03	0.00761396
1340.67	0.00809396
1350.32	0.00841396
1359.96	0.00823396
1369.61	0.00773396
1379.25	0.00801396
1388.9	0.00917396
1398.54	0.011904
1408.18	0.018444
1417.83	0.025114
1427.47	0.025444
1437.12	0.022194
1446.76	0.026684
1456.41	0.040924
1466.05	0.073464
1475.7	0.110384
1485.34	0.112744
1494.99	0.101824
1504.63	0.108394
1514.28	0.101344
1523.92	0.072564
1533.57	0.049454
1543.21	0.033934
1552.86	0.024984
1562.5	0.020764
1572.15	0.019544
1581.79	0.017504
1591.44	0.014784
1601.08	0.014044
1610.73	0.014454
1620.37	0.013354
1630.01	0.011704
1639.66	0.011084
1649.3	0.012614
1658.95	0.017454
1668.59	0.026274
1678.24	0.043434
1687.88	0.091414
1697.53	0.176204
1707.17	0.183594
1716.82	0.104064
1726.46	0.042884
1736.11	0.023834
1745.75	0.014314
1755.4	0.00802396
1765.04	0.00463396
1774.69	0.00327396
1784.33	0.00283396
1793.98	0.00354396
1803.62	0.00407396
1813.27	0.00337396
1822.91	0.00242396
1832.55	0.00209396
1842.2	0.00191396
1851.84	0.00175396
1861.49	0.00162396
1871.13	0.00182396
1880.78	0.00220396
1890.42	0.00257396
1900.07	0.00247396
1909.71	0.00183396
1919.36	0.00134396
1929	0.00145396
1938.65	0.00206396
1948.29	0.00264396
1957.94	0.00289396
1967.58	0.00242396
1977.23	0.00156396
1986.87	0.00105396
1996.52	0.00098256
2006.16	0.00078636
2015.81	0.00073946
2025.45	0.00056606
2035.1	0.00045006
2044.74	0.00055876
2054.38	0.00058076
2064.03	0.00050276
2073.67	0.00057186
2083.32	0.00048346
2092.96	0.00063786
2102.61	0.00050866
2112.25	0.00047786
2121.9	0.00054766
2131.54	0.00073316
2141.19	0.00065956
2150.83	0.00054056
2160.48	0.00045456
2170.12	0.00036896
2179.77	0.00034006
2189.41	0.00030376
2199.06	0.00025886
2208.7	0.00028806
2218.35	0.00030506
2227.99	0.00034406
2237.64	0.00041206
2247.28	0.00043546
2256.92	0.00052766
2266.57	0.00056016
2276.21	0.00065326
2285.86	0.00059616
2295.5	0.00051926
2305.15	0.00065606
2314.79	0.00089296
2324.44	0.00082616
2334.08	0.00067536
2343.73	0.00073866
2353.37	0.00047866
2363.02	0.00035036
2372.66	0.00033446
2382.31	0.00032996
2391.95	0.00027486
2401.6	0.00040226
2411.24	0.00024006
2420.89	0.00036836
2430.53	0.00028136
2440.18	0.00036546
2449.82	0.00030526
2459.47	0.00044806
2469.11	0.00060326
2478.75	0.00061816
2488.4	0.00066426
2498.04	0.00072736
2507.69	0.00080296
2517.33	0.00081766
2526.98	0.00074446
2536.62	0.00071716
2546.27	0.00069216
2555.91	0.00065516
2565.56	0.00066756
2575.2	0.00065006
2584.85	0.00067836
2594.49	0.00078816
2604.14	0.00085766
2613.78	0.00077386
2623.43	0.00062446
2633.07	0.00071826
2642.72	0.00069116
2652.36	0.00055066
2662.01	0.00048566
2671.65	0.00047966
2681.29	0.00040016
2690.94	0.00046426
2700.58	0.00043916
2710.23	0.00057106
2719.87	0.00044736
2729.52	0.00060476
2739.16	0.00084286
2748.81	0.00081786
2758.45	0.00090426
2768.1	0.00111396
2777.74	0.00122396
2787.39	0.00160396
2797.03	0.00228396
2806.68	0.00419396
2816.32	0.00605396
2825.97	0.00545396
2835.61	0.00369396
2845.26	0.00358396
2854.9	0.00444396
2864.55	0.00580396
2874.19	0.00808396
2883.84	0.010734
2893.48	0.013804
2903.12	0.016814
2912.77	0.019504
2922.41	0.021014
2932.06	0.023134
2941.7	0.026314
2951.35	0.027424
2960.99	0.023204
2970.64	0.015944
2980.28	0.010804
2989.93	0.00882396
2999.57	0.00805396
3009.22	0.00862396
3018.86	0.011134
3028.51	0.016534
3038.15	0.018704
3047.8	0.015994
3057.44	0.017904
3067.09	0.027654
3076.73	0.029204
3086.38	0.019254
3096.02	0.013014
3105.67	0.00831396
3115.31	0.00505396
3124.95	0.00287396
3134.6	0.00177396
3144.24	0.00161396
3153.89	0.00121396
3163.53	0.00113396
3173.18	0.00088626
3182.82	0.00065946
3192.47	0.00050906
3202.11	0.00036986
3211.76	0.00052496
3221.4	0.00039966
3231.05	0.00022396
3240.69	0.00027096
3250.34	0.00035036
3259.98	0.00033316
3269.63	0.00034536
3279.27	0.00044126
3288.92	0.00045406
3298.56	0.00050836
3308.21	0.00043016
3317.85	0.00055396
3327.49	0.00042676
3337.14	0.00048796
3346.78	0.00049346
3356.43	0.00078576
3366.07	0.00129396
3375.72	0.00167396
3385.36	0.00233396
3395.01	0.00261396
3404.65	0.00181396
3414.3	0.00144396
3423.94	0.00172396
3433.59	0.00180396
3443.23	0.00223396
3452.88	0.00322396
3462.52	0.00441396
3472.17	0.00736396
3481.81	0.011334
3491.46	0.012594
3501.1	0.00977396
3510.75	0.00498396
3520.39	0.00235396
3530.04	0.00138396
3539.68	0.00079806
3549.32	0.00062406
3558.97	0.00051536
3568.61	0.00024166
3578.26	0.00033666
3587.9	0.00036816
3597.55	0.00041496
3607.19	0.00019646
3616.84	0.00018986
3626.48	0.00025356
3636.13	0.00025426
3645.77	0.00044516
3655.42	0.00031496
3665.06	0.00023496
3674.71	0.00046436
3684.35	0.00044216
3694	0.00017466
3703.64	0.00056676
3713.29	0.00027756
3722.93	0
3732.58	0.00040616
3742.22	0.00045506
3751.86	0.00035706
3761.51	0.00022786
3771.15	0.00026596
3780.8	0.00020006
3790.44	0.00015076
3800.09	0.00034896
3809.73	0.00026476
3819.38	0.00020236
3829.02	0.00018776
3838.67	0.00019946
3848.31	0.00026486
3857.96	0.00037876
3867.6	0.00022276
3877.25	0.00048436
3886.89	0.00044946
3896.54	0.00037316
3906.18	0.00043626
3915.83	0.00042486
3925.47	0.00024476
3935.12	0.00036226
3944.76	0.00035176
3954.41	0.00043336
3964.05	0.00030256
3973.69	0.00028906
3983.34	0.00024426
3992.98	0.00034946
