Infrared Spectrum: P-PHENYLPHENETOLE
Formula: C14 H14 O
CAS: 613-40-1
State: SOLID (MINERAL OIL MULL)
Melting point: 71-72 C
Class: COBLENTZ
Instrument: Not specified, most likely a prism, grating, or hybrid spectrometer.
Sampling: TRANSMISSION
Resolution: 4
Origin: WYANDOTTE CHEMICALS CORP., WYANDOTTE, MICHIGAN, USA
MICROMETERS	TRANSMITTANCE
2.073	0.384
2.11275	0.389
2.15251	0.399
2.19226	0.401
2.23202	0.399
2.27177	0.402
2.31153	0.402
2.35128	0.429
2.39103	0.429
2.43079	0.419
2.47054	0.432
2.5103	0.441
2.55005	0.461
2.58981	0.464
2.62956	0.457
2.66931	0.459
2.70907	0.479
2.74882	0.482
2.78858	0.487
2.82833	0.492
2.86809	0.487
2.90784	0.489
2.94759	0.495
2.98735	0.495
3.0271	0.497
3.06686	0.505
3.10661	0.505
3.14637	0.495
3.18612	0.49
3.22587	0.47
3.26563	0.402
3.30538	0.359
3.34514	0.16
3.38489	0.063
3.42465	0.067
3.4644	0.102
3.50415	0.117
3.54391	0.376
3.58366	0.567
3.62342	0.605
3.66317	0.613
3.70293	0.618
3.74268	0.628
3.78243	0.636
3.82219	0.638
3.86194	0.648
3.9017	0.656
3.94145	0.668
3.98121	0.668
4.02096	0.674
4.06071	0.681
4.10047	0.683
4.14022	0.688
4.17998	0.694
4.21973	0.698
4.25949	0.703
4.29924	0.708
4.33899	0.728
4.37875	0.739
4.4185	0.746
4.45826	0.747
4.49801	0.752
4.53777	0.757
4.57752	0.766
4.61727	0.772
4.65703	0.784
4.69678	0.791
4.73654	0.777
4.77629	0.802
4.81605	0.797
4.8558	0.8
4.89555	0.804
4.93531	0.809
4.97506	0.82
5.01482	0.822
5.05457	0.819
5.09433	0.825
5.13408	0.82
5.17383	0.789
5.21359	0.809
5.25334	0.83
5.2931	0.832
5.33285	0.779
5.37261	0.791
5.41236	0.852
5.45211	0.87
5.49187	0.878
5.53162	0.878
5.57138	0.872
5.61113	0.885
5.65089	0.885
5.69064	0.89
5.73039	0.857
5.77015	0.88
5.8099	0.849
5.84966	0.877
5.88941	0.903
5.92917	0.898
5.96892	0.87
6.00867	0.854
6.04843	0.844
6.08818	0.86
6.12794	0.882
6.16769	0.615
6.20745	0.411
6.2472	0.585
6.28695	0.676
6.32671	0.779
6.36646	0.83
6.40622	0.887
6.44597	0.839
6.48573	0.786
6.52548	0.543
6.56523	0.514
6.60499	0.771
6.64474	0.578
6.6845	0.243
6.72425	0.253
6.76401	0.303
6.80376	0.265
6.84351	0.248
6.88327	0.351
6.92302	0.495
6.96278	0.716
7.00253	0.777
7.04229	0.681
7.08204	0.643
7.12179	0.532
7.16155	0.469
7.2013	0.553
7.24106	0.5
7.28081	0.626
7.32057	0.719
7.36032	0.805
7.40007	0.817
7.43983	0.759
7.47958	0.804
7.51934	0.83
7.55909	0.762
7.59885	0.764
7.6386	0.781
7.67835	0.782
7.71811	0.661
7.75786	0.266
7.79762	0.354
7.83737	0.399
7.87713	0.343
7.91688	0.507
7.95663	0.129
7.99639	0.159
8.03614	0.247
8.0759	0.379
8.11565	0.497
8.15541	0.6
8.19516	0.661
8.23491	0.678
8.27467	0.401
8.31442	0.227
8.35418	0.402
8.39393	0.514
8.43369	0.505
8.47344	0.467
8.51319	0.587
8.55295	0.668
8.5927	0.655
8.63246	0.522
8.67221	0.608
8.71197	0.665
8.75172	0.728
8.79147	0.678
8.83123	0.552
8.87098	0.522
8.91074	0.3
8.95049	0.406
8.99025	0.419
9.03	0.724
9.06975	0.766
9.10951	0.789
9.14926	0.807
9.18902	0.824
9.22877	0.812
9.26853	0.754
9.30828	0.762
9.34803	0.781
9.38779	0.724
9.42754	0.533
9.4673	0.195
9.50705	0.145
9.54681	0.291
9.58656	0.422
9.62631	0.548
9.66607	0.63
9.70582	0.689
9.74558	0.742
9.78533	0.771
9.82509	0.784
9.86484	0.807
9.90459	0.829
9.94435	0.829
9.9841	0.661
10.0239	0.817
10.0636	0.829
10.1034	0.844
10.1431	0.849
10.1829	0.849
10.2226	0.844
10.2624	0.849
10.3021	0.852
10.3419	0.87
10.3816	0.86
10.4214	0.875
10.4612	0.867
10.5009	0.868
10.5407	0.878
10.5804	0.89
10.6202	0.892
10.6599	0.898
10.6997	0.89
10.7394	0.882
10.7792	0.844
10.8189	0.716
10.8587	0.401
10.8985	0.459
10.9382	0.638
10.978	0.726
11.0177	0.691
11.0575	0.736
11.0972	0.839
11.137	0.862
11.1767	0.875
11.2165	0.882
11.2562	0.895
11.296	0.9
11.3357	0.897
11.3755	0.898
11.4153	0.9
11.455	0.908
11.4948	0.908
11.5345	0.905
11.5743	0.9
11.614	0.9
11.6538	0.898
11.6935	0.888
11.7333	0.864
11.773	0.84
11.8128	0.786
11.8526	0.701
11.8923	0.5
11.9321	0.2
11.9718	0.102
12.0116	0.174
12.0513	0.315
12.0911	0.414
12.1308	0.56
12.1706	0.729
12.2103	0.835
12.2501	0.89
12.2899	0.902
12.3296	0.845
12.3694	0.749
12.4091	0.673
12.4489	0.613
12.4886	0.713
12.5284	0.85
12.5681	0.912
12.6079	0.932
12.6476	0.938
12.6874	0.93
12.7271	0.938
12.7669	0.922
12.8067	0.907
12.8464	0.887
12.8862	0.859
12.9259	0.789
12.9657	0.678
13.0054	0.409
13.0452	0.092
13.0849	0.067
13.1247	0.066
13.1644	0.086
13.2042	0.227
13.244	0.441
13.2837	0.636
13.3235	0.767
13.3632	0.83
13.403	0.868
13.4427	0.902
13.4825	0.912
13.5222	0.923
13.562	0.917
13.6017	0.912
13.6415	0.91
13.6813	0.925
13.721	0.922
13.7608	0.922
13.8005	0.912
13.8403	0.898
13.88	0.852
13.9198	0.771
13.9595	0.603
13.9993	0.454
14.039	0.492
14.0788	0.638
14.1185	0.746
14.1583	0.819
14.1981	0.84
14.2378	0.839
14.2776	0.802
14.3173	0.759
14.3571	0.674
14.3968	0.558
14.4366	0.388
14.4763	0.285
14.5161	0.248
14.5558	0.271
14.5956	0.349
14.6354	0.48
14.6751	0.583
14.7149	0.694
14.7546	0.751
14.7944	0.792
14.8341	0.819
14.8739	0.842
14.9136	0.857
14.9534	0.867
14.9931	0.867
15.0329	0.815
15.0727	0.782
15.1124	0.8
15.1522	0.854
15.1919	0.864
15.2317	0.868
15.2714	0.87
15.3112	0.868
15.3509	0.852
15.3907	0.85
15.4304	0.842
15.4702	0.832
15.5099	0.804
15.5497	0.814
15.5895	0.8
15.6292	0.779
15.669	0.764
15.7087	0.752
15.7485	0.744
15.7882	0.739
15.828	0.742
15.8677	0.721
15.9075	0.711
15.9472	0.693
15.987	0.676
