Infrared Spectrum: N-Ethyl-N-methyl aniline
Formula: C 9 H 13 N
CAS: 613-97-8
State: gas
Origin: EPA-IR VAPOR PHASE LIBRARY
1/CM	ABSORBANCE
551.7	0.00985
563.274	0.00751
574.848	0.00557
586.421	0.00376
597.995	0.00296
609.569	0.00279
621.143	0.00272
632.717	0.00338
644.291	0.0048
655.864	0.00848
667.438	0.01863
679.012	0.04113
690.586	0.06429
702.16	0.04488
713.734	0.02521
725.307	0.031
736.881	0.05846
748.455	0.08444
760.029	0.05446
771.603	0.02322
783.177	0.01364
794.75	0.01293
806.324	0.0096
817.898	0.00587
829.472	0.0044
841.046	0.00498
852.619	0.00702
864.193	0.00996
875.767	0.01379
887.341	0.01931
898.915	0.01587
910.489	0.00801
922.062	0.00547
933.636	0.005
945.21	0.00553
956.784	0.00714
968.358	0.01054
979.932	0.01772
991.505	0.03854
1003.08	0.04211
1014.65	0.02337
1026.23	0.03273
1037.8	0.03428
1049.37	0.02435
1060.95	0.02965
1072.52	0.0359
1084.1	0.03664
1095.67	0.02928
1107.24	0.02382
1118.82	0.02442
1130.39	0.03136
1141.97	0.05347
1153.54	0.07088
1165.11	0.05173
1176.69	0.03556
1188.26	0.04516
1199.83	0.05748
1211.41	0.06005
1222.98	0.04806
1234.56	0.03533
1246.13	0.04345
1257.7	0.07633
1269.28	0.09442
1280.85	0.06716
1292.42	0.04534
1304	0.0415
1315.57	0.0391
1327.15	0.04819
1338.72	0.07271
1350.29	0.09986
1361.87	0.10594
1373.44	0.09467
1385.02	0.06811
1396.59	0.03868
1408.16	0.02505
1419.74	0.02482
1431.31	0.02849
1442.88	0.0324
1454.46	0.03902
1466.03	0.04788
1477.61	0.06744
1489.18	0.13671
1500.75	0.23313
1512.33	0.17016
1523.9	0.06021
1535.48	0.03473
1547.05	0.03042
1558.62	0.03502
1570.2	0.05089
1581.77	0.0907
1593.34	0.17648
1604.92	0.18452
1616.49	0.08304
1628.07	0.03066
1639.64	0.01714
1651.21	0.01289
1662.79	0.0108
1674.36	0.00937
1685.93	0.00827
1697.51	0.00773
1709.08	0.00794
1720.66	0.00826
1732.23	0.00735
1743.8	0.00676
1755.38	0.00677
1766.95	0.006
1778.53	0.00516
1790.1	0.00486
1801.67	0.00515
1813.25	0.00555
1824.82	0.0055
1836.39	0.00489
1847.97	0.00434
1859.54	0.00441
1871.12	0.00513
1882.69	0.00592
1894.26	0.0068
1905.84	0.00806
1917.41	0.00844
1928.99	0.00697
1940.56	0.00478
1952.13	0.00332
1963.71	0.00287
1975.28	0.00285
1986.85	0.00309
1998.43	0.00301
2010	0.00261
2021.58	0.00242
2033.15	0.0024
2044.72	0.00234
2056.3	0.0026
2067.87	0.00291
2079.44	0.00319
2091.02	0.00307
2102.59	0.00253
2114.17	0.00193
2125.74	0.00155
2137.31	0.00151
2148.89	0.00154
2160.46	0.00157
2172.04	0.00166
2183.61	0.00185
2195.18	0.00187
2206.76	0.00186
2218.33	0.00231
2229.9	0.00263
2241.48	0.00221
2253.05	0.00187
2264.63	0.00194
2276.2	0.0019
2287.77	0.0019
2299.35	0.0021
2310.92	0.00262
2322.5	0.00304
2334.07	0.00281
2345.64	0.0026
2357.22	0.00244
2368.79	0.00234
2380.36	0.00234
2391.94	0.00233
2403.51	0.00237
2415.09	0.00257
2426.66	0.00268
2438.23	0.00265
2449.81	0.00269
2461.38	0.00282
2472.96	0.00291
2484.53	0.003
2496.1	0.00297
2507.68	0.00309
2519.25	0.00333
2530.82	0.0037
2542.4	0.00409
2553.97	0.00461
2565.55	0.00498
2577.12	0.00498
2588.69	0.00494
2600.27	0.00505
2611.84	0.00488
2623.41	0.00449
2634.99	0.00441
2646.56	0.0046
2658.14	0.00483
2669.71	0.00527
2681.28	0.00587
2692.86	0.00649
2704.43	0.00706
2716.01	0.00773
2727.58	0.00882
2739.15	0.01005
2750.73	0.01214
2762.3	0.01612
2773.87	0.02327
2785.45	0.03468
2797.02	0.04915
2808.6	0.06241
2820.17	0.06692
2831.74	0.06215
2843.32	0.05743
2854.89	0.05792
2866.47	0.06488
2878.04	0.0769
2889.61	0.08117
2901.19	0.07621
2912.76	0.07404
2924.33	0.08031
2935.91	0.0962
2947.48	0.10045
2959.06	0.09664
2970.63	0.11766
2982.2	0.12855
2993.78	0.08666
3005.35	0.0502
3016.92	0.04214
3028.5	0.05016
3040.07	0.05723
3051.65	0.05347
3063.22	0.06085
3074.79	0.06267
3086.37	0.04767
3097.94	0.04078
3109.52	0.02822
3121.09	0.01532
3132.66	0.00845
3144.24	0.00573
3155.81	0.00445
3167.38	0.00377
3178.96	0.00315
3190.53	0.00283
3202.11	0.00261
3213.68	0.00216
3225.25	0.00173
3236.83	0.0016
3248.4	0.00145
3259.98	0.00141
3271.55	0.00129
3283.12	0.00127
3294.7	0.00123
3306.27	0.0012
3317.84	0.00117
3329.42	0.00114
3340.99	0.00108
3352.57	0.00119
3364.14	0.00108
3375.71	0.00106
3387.29	0.0009877
3398.86	0.0009694
3410.43	0.00103
3422.01	0.00105
3433.58	0.0009826
3445.16	0.0009542
3456.73	0.00109
3468.3	0.00112
3479.88	0.00116
3491.45	0.0009486
3503.03	0.0009852
3514.6	0.00101
3526.17	0.0009592
3537.75	0.0008794
3549.32	0.0009486
3560.89	0.0008927
3572.47	0.0009776
3584.04	0.0008984
3595.62	0.00102
3607.19	0.0009853
3618.76	0.00102
3630.34	0.00108
3641.91	0.0011
3653.49	0.00115
3665.06	0.00124
3676.63	0.00104
3688.21	0.00109
3699.78	0.00114
3711.35	0.00123
3722.93	0.00121
3734.5	0.00127
3746.08	0.00115
3757.65	0.00123
3769.22	0.00124
3780.8	0.00119
3792.37	0.0013
3803.94	0.00129
3815.52	0.00118
3827.09	0.0009665
3838.67	0.00105
3850.24	0.00113
3861.81	0.00105
3873.39	0.00113
3884.96	0.0011
3896.54	0.00141
3908.11	0.00143
3919.68	0.00156
3931.26	0.00146
3942.83	0.00161
3954.4	0.00165
3965.98	0.00166
3977.55	0.00167
3989.13	0.00192
4000.7	0.00202
