Infrared Spectrum: 2-Aminoanthracene
Formula: C 14 H 11 N
CAS: 613-13-8
State: gas
Instrument: HP-GC/MS/IRD
Origin: NIST Mass Spectrometry Data Center
1/CM	ABSORBANCE
550	0.0001834
562	0.0003423
574	0.0005761
586	0.0006363
598	0.0003619
610	0.0005089
622	0.0005292
634	0.0008113
646	0.0012103
658	0.0013202
670	0.0012544
682	0.0009156
694	0.0008029
706	0.0007651
718	0.0010122
730	0.002093
742	0.0017479
754	0.0006587
766	0.000511
778	0.0004585
790	0.0006545
802	0.0005523
814	0.0004459
826	0.0003612
838	0.0003808
850	0.0004403
862	0.0011277
874	0.0028364
886	0.0018081
898	0.0006174
910	0.0004431
922	0.0003759
934	0.0003374
946	0.0006027
958	0.0006216
970	0.0004025
982	0.0003304
994	0.0003241
1006	0.0003773
1018	0.0002394
1030	0.0002261
1042	0.0002037
1054	0.0002548
1066	0.0002499
1078	0.0002051
1090	0.0002352
1102	0.0002289
1114	0.0003367
1126	0.0003871
1138	0.0003241
1150	0.000427
1162	0.0002177
1174	0.0007686
1186	0.0006356
1198	0.0002968
1210	0.0013447
1222	0.0012012
1234	7.84e-05
1246	4.62e-05
1258	0.0002856
1270	0.0005985
1282	0.0006615
1294	0.0001568
1306	0.0003941
1318	0.0005971
1330	0.0005082
1342	0.000406
1354	0.0001477
1366	0.0002275
1378	0.0002345
1390	0.0003108
1402	0.000644
1414	0.0008386
1426	0.0004214
1438	0.0005474
1450	0.0008386
1462	0.0012999
1474	0.0009548
1486	0.0017234
1498	0.0005278
1510	0.0003199
1522	0.0003423
1534	0.0004529
1546	0.0005586
1558	0.0004914
1570	0.0005012
1582	0.0007728
1594	0.0007763
1606	0.0010787
1618	0.0016093
1630	0.0036288
1642	0.007
1654	0.0027615
1666	0.0009282
1678	0.0006496
1690	0.000378
1702	0.0002611
1714	0.0002303
1726	0.0002037
1738	0.0001953
1750	0.0002156
1762	0.0001757
1774	0.0001414
1786	0.0001386
1798	0.0001617
1810	9.17e-05
1822	0.0001204
1834	0.000119
1846	8.12e-05
1858	9.1e-05
1870	7.49e-05
1882	0.0001281
1894	0.0001862
1906	0.0001589
1918	0.0001435
1930	0.0001736
1942	6.44e-05
1954	8.47e-05
1966	4.55e-05
1978	2.66e-05
1990	3.71e-05
2002	4.69e-05
2014	3.71e-05
2026	4.27e-05
2038	3.92e-05
2050	3.78e-05
2062	3.78e-05
2074	5.25e-05
2086	2.87e-05
2098	3.36e-05
2110	4.13e-05
2122	1.68e-05
2134	3.5e-05
2146	3.71e-05
2158	1.75e-05
2170	3.43e-05
2182	2.52e-05
2194	0
2206	4.2e-05
2218	4.41e-05
2230	3.29e-05
2242	3.36e-05
2254	3.15e-05
2266	3.43e-05
2278	5.32e-05
2290	5.04e-05
2302	5.18e-05
2314	4.2e-05
2326	4.69e-05
2338	3.71e-05
2350	2.31e-05
2362	6.79e-05
2374	5.6e-05
2386	5.25e-05
2398	3.78e-05
2410	6.86e-05
2422	2.03e-05
2434	8.05e-05
2446	5.46e-05
2458	2.45e-05
2470	4.06e-05
2482	8.82e-05
2494	6.23e-05
2506	4.41e-05
2518	7.7e-05
2530	5.39e-05
2542	5.53e-05
2554	5.81e-05
2566	3.43e-05
2578	6.37e-05
2590	8.61e-05
2602	4.83e-05
2614	4.27e-05
2626	6.79e-05
2638	7.28e-05
2650	8.05e-05
2662	8.33e-05
2674	7.56e-05
2686	0.000112
2698	8.47e-05
2710	0.0001134
2722	0.0001127
2734	7.35e-05
2746	9.31e-05
2758	0.0001351
2770	7.98e-05
2782	8.75e-05
2794	0.0001232
2806	0.0001295
2818	0.0001449
2830	0.0001211
2842	0.0001295
2854	0.0001169
2866	0.0001302
2878	0.0001141
2890	0.0001463
2902	0.0001246
2914	0.0001687
2926	0.0001974
2938	0.0001631
2950	0.0002016
2962	0.0001946
2974	0.0002359
2986	0.0003339
2998	0.0005649
3010	0.000952
3022	0.0013671
3034	0.001463
3046	0.001953
3058	0.0023401
3070	0.0014994
3082	0.0007182
3094	0.0004466
3106	0.0003157
3118	0.0001981
3130	0.0001757
3142	0.0001603
3154	0.0001148
3166	0.000147
3178	0.0001645
3190	0.0001673
3202	0.0001246
3214	0.0001316
3226	0.0001638
3238	0.0001561
3250	0.000105
3262	0.0001575
3274	0.000105
3286	0.0001659
3298	0.000147
3310	0.0001316
3322	0.0001169
3334	5.25e-05
3346	4.48e-05
3358	0.000126
3370	0.0001022
3382	0.0001799
3394	0.0003437
3406	0.0006055
3418	0.000525
3430	0.0001722
3442	0.0001414
3454	9.03e-05
3466	0.0001071
3478	0.0002345
3490	0.0003381
3502	0.0002471
3514	0.0002226
3526	7.91e-05
3538	0.0001169
3550	9.24e-05
3562	0.000154
3574	9.24e-05
3586	8.12e-05
3598	0.0001015
3610	0.0001162
3622	8.26e-05
3634	0.0001057
3646	2.31e-05
3658	8.12e-05
3670	8.96e-05
3682	9.66e-05
3694	0.0001225
3706	0.0001582
3718	0.0001463
3730	0.0001316
3742	0.0001218
3754	0.0001848
3766	9.45e-05
3778	0.0001267
3790	7.56e-05
3802	0.0001001
3814	8.33e-05
3826	0.000105
3838	8.12e-05
