Infrared Spectrum: Acetophenone, oxime
Formula: C8 H9 N O
CAS: 613-91-2
State: SOLUTION (CCl4 FOR 2-10.4, CS2 FOR 10.4-16 MICRON) VS SOLVENT
Melting point: 58-60 C
Class: COBLENTZ III
Instrument: BAIRD (GRATING)
Instrument parameters: NaCl PRISM
Path length: 0.01 CM, AND 0.01 CM , REFERENCE CELLS : 0.005 CM
Resolution: 2
Origin: WYANDOTTE CHEMICALS CORP.
1/CM	TRANSMITTANCE
626	0.5417
635	0.4603
644	0.348
653	0.3336
662	0.4098
671	0.2847
680	0.1763
689	0.0871
698	0.1056
707	0.2051
716	0.209
725	0.1779
734	0.1413
743	0.1004
752	0.0422
761	0.0386
770	0.0652
779	0.1787
788	0.3359
797	0.4136
806	0.4974
815	0.5515
824	0.5636
833	0.5304
842	0.5594
851	0.5789
860	0.5895
869	0.602
878	0.5693
887	0.4771
896	0.253
905	0.0534
914	0.0327
923	0.0288
932	0.0529
941	0.2212
950	0.3826
959	0.3897
968	0.347
977	0.2569
986	0.1165
995	0.0339
1004	0.0257
1013	0.0662
1022	0.2098
1031	0.2889
1040	0.6029
1049	0.7488
1058	0.7693
1067	0.7663
1076	0.6253
1085	0.5106
1094	0.6213
1103	0.7501
1112	0.7759
1121	0.8628
1130	0.8841
1139	0.8848
1148	0.8723
1157	0.842
1166	0.8464
1175	0.8326
1184	0.7659
1193	0.8162
1202	0.8112
1211	0.79
1220	0.775
1229	0.7738
1238	0.7041
1247	0.6484
1256	0.6342
1265	0.4853
1274	0.379
1283	0.2236
1292	0.2114
1301	0.1273
1310	0.1213
1319	0.1773
1328	0.3832
1337	0.6058
1346	0.6472
1355	0.5738
1364	0.3332
1373	0.0984
1382	0.2298
1391	0.3857
1400	0.4165
1409	0.4027
1418	0.3739
1427	0.3525
1436	0.3473
1445	0.2473
1454	0.0979
1463	0.1721
1472	0.2929
1481	0.4339
1490	0.5233
1499	0.4902
1508	0.2736
1517	0.382
1526	0.5361
1535	0.5451
1544	0.5565
1553	0.5694
1562	0.6036
1571	0.6461
1580	0.6558
1589	0.6143
1598	0.6273
1607	0.6763
1616	0.6298
1625	0.7854
1634	0.7694
1643	0.7038
1652	0.7098
1661	0.7887
1670	0.8312
1679	0.7331
1688	0.6361
1697	0.5627
1706	0.7635
1715	0.8833
1724	0.9034
1733	0.9032
1742	0.8908
1751	0.863
1760	0.8651
1769	0.9034
1778	0.9133
1787	0.9028
1796	0.8606
1805	0.8403
1814	0.8648
1823	0.8891
1832	0.9091
1841	0.9042
1850	0.8917
1859	0.8742
1868	0.849
1877	0.8401
1886	0.8572
1895	0.8872
1904	0.9
1913	0.8928
1922	0.8695
1931	0.8252
1940	0.8325
1949	0.8613
1958	0.8887
1967	0.9303
1976	0.9368
1985	0.9413
1994	0.9455
2003	0.9491
2012	0.9512
2021	0.9528
2030	0.9541
2039	0.9551
2048	0.9561
2057	0.9568
2066	0.9573
2075	0.9578
2084	0.9577
2093	0.9577
2102	0.9576
2111	0.9571
2120	0.9565
2129	0.9559
2138	0.9548
2147	0.9537
2156	0.9526
2165	0.9515
2174	0.9503
2183	0.9484
2192	0.9464
2201	0.9433
2210	0.9402
2219	0.937
2228	0.9339
2237	0.9297
2246	0.9245
2255	0.9199
2264	0.9208
2273	0.9222
2282	0.9246
2291	0.9266
2300	0.9267
2309	0.9257
2318	0.9238
2327	0.9218
2336	0.9198
2345	0.9178
2354	0.9164
2363	0.9153
2372	0.915
2381	0.9151
2390	0.9153
2399	0.9154
2408	0.9155
2417	0.9141
2426	0.9123
2435	0.912
2444	0.9119
2453	0.9117
2462	0.9113
2471	0.9108
2480	0.9098
2489	0.9075
2498	0.9051
2507	0.9026
2516	0.8997
2525	0.8964
2534	0.8919
2543	0.8862
2552	0.8802
2561	0.8743
2570	0.8686
2579	0.8649
2588	0.8616
2597	0.8572
2606	0.8515
2615	0.8435
2624	0.8356
2633	0.8281
2642	0.8194
2651	0.8103
2660	0.8013
2669	0.7921
2678	0.7825
2687	0.772
2696	0.76
2705	0.7437
2714	0.7209
2723	0.7024
2732	0.6839
2741	0.6638
2750	0.6396
2759	0.6117
2768	0.5868
2777	0.56
2786	0.5333
2795	0.5069
2804	0.4806
2813	0.4545
2822	0.4285
2831	0.4027
2840	0.377
2849	0.3516
2858	0.3263
2867	0.3011
2876	0.2761
2885	0.2513
2894	0.2239
2903	0.206
2912	0.1917
2921	0.184
2930	0.1813
2939	0.1829
2948	0.19
2957	0.2008
2966	0.2097
2975	0.2129
2984	0.2132
2993	0.2123
3002	0.2094
3011	0.1971
3020	0.1639
3029	0.1299
3038	0.0965
3047	0.0842
3056	0.0824
3065	0.0831
3074	0.0858
3083	0.0925
3092	0.0972
3101	0.0976
3110	0.097
3119	0.0946
3128	0.0899
3137	0.0849
3146	0.0787
3155	0.0713
3164	0.0647
3173	0.0586
3182	0.0516
3191	0.0455
3200	0.0421
3209	0.0398
3218	0.0389
3227	0.0385
3236	0.0383
3245	0.0384
3254	0.0386
3263	0.0394
3272	0.041
3281	0.0427
3290	0.0451
3299	0.0509
3308	0.0584
3317	0.0678
3326	0.0788
3335	0.0893
3344	0.1026
3353	0.1169
3362	0.131
3371	0.145
3380	0.1591
3389	0.173
3398	0.1869
3407	0.2006
3416	0.232
3425	0.2591
3434	0.2846
3443	0.3099
3452	0.3351
3461	0.3603
3470	0.3853
3479	0.4101
3488	0.4349
3497	0.4595
3506	0.484
3515	0.5084
3524	0.5326
3533	0.5562
3542	0.5742
3551	0.5879
3560	0.5952
3569	0.5976
3578	0.5955
3587	0.592
3596	0.5879
3605	0.5855
3614	0.5855
3623	0.5864
3632	0.6372
3641	0.6939
3650	0.7504
3659	0.8061
3668	0.8392
3677	0.8531
3686	0.8621
3695	0.8696
3704	0.875
3713	0.8803
3722	0.8847
3731	0.8889
3740	0.8918
3749	0.8944
3758	0.8966
3767	0.898
3776	0.8994
3785	0.9007
3794	0.9017
3803	0.9026
3812	0.9036
3821	0.9045
3830	0.9052
3839	0.9058
3848	0.9065
3857	0.9071
3866	0.9075
3875	0.9078
3884	0.9081
3893	0.9081
3902	0.9081
3911	0.9077
3920	0.9071
3929	0.9063
3938	0.9051
3947	0.9037
3956	0.9021
3965	0.9005
3974	0.8988
3983	0.8969
3992	0.895
