Infrared Spectrum: 4-Methoxybiphenyl
Formula: C 13 H 12 O
CAS: 613-37-6
State: gas
Instrument: HP-GC/MS/IRD
Origin: NIST Mass Spectrometry Data Center
1/CM	ABSORBANCE
550	0.0014239
562	0.0030131
574	0.0030044
586	0.0006322
598	0.0001653
610	0.0001218
622	8.99e-05
634	0.0001044
646	0.0002494
658	0.0003944
670	0.0009483
682	0.0024708
694	0.0055854
706	0.0047299
718	0.002436
730	0.0015863
742	0.002088
754	0.0051562
766	0.0053969
778	0.0020271
790	0.0013543
802	0.0020184
814	0.0021808
826	0.004727
838	0.0054926
850	0.0022649
862	0.0006902
874	0.000377
886	0.0003045
898	0.0002465
910	0.0002262
922	0.0001363
934	0.0001189
946	0.0001711
958	0.0003538
970	0.0004785
982	0.0007946
994	0.0019546
1006	0.0035409
1018	0.0031726
1030	0.0038309
1042	0.0072123
1054	0.0061567
1066	0.0023374
1078	0.0012557
1090	0.0009338
1102	0.0012557
1114	0.0011745
1126	0.0007279
1138	0.0006844
1150	0.0010498
1162	0.0032306
1174	0.0121916
1186	0.005858
1198	0.0026158
1210	0.0030827
1222	0.0057275
1234	0.0171999
1246	0.029
1258	0.015254
1270	0.0142187
1282	0.0122583
1294	0.0087928
1306	0.003654
1318	0.0018299
1330	0.0012354
1342	0.0008468
1354	0.0007279
1366	0.0007337
1378	0.0006438
1390	0.0005713
1402	0.0007395
1414	0.0008961
1426	0.0011861
1438	0.003016
1450	0.0044805
1462	0.0050286
1474	0.0091379
1486	0.0180873
1498	0.0108634
1510	0.0129166
1522	0.0135894
1534	0.0034162
1546	0.0022997
1558	0.0023461
1570	0.00232
1582	0.0027057
1594	0.0041006
1606	0.0087754
1618	0.0073341
1630	0.001856
1642	0.0009048
1654	0.0006061
1666	0.0005626
1678	0.0003799
1690	0.0002842
1702	0.0002668
1714	0.0002378
1726	0.0002958
1738	0.0004292
1750	0.0005162
1762	0.0003364
1774	0.0002291
1786	0.0003596
1798	0.000493
1810	0.0003393
1822	0.0002407
1834	0.0002088
1846	0.0003074
1858	0.0004785
1870	0.0006583
1882	0.0007859
1894	0.0004437
1906	0.0002204
1918	0.0002204
1930	0.0003538
1942	0.0005481
1954	0.0005597
1966	0.0003161
1978	0.0003016
1990	0.0002262
2002	0.0001827
2014	0.0001827
2026	0.0002958
2038	0.0004727
2050	0.0005278
2062	0.0005162
2074	0.0004901
2086	0.0004205
2098	0.0002552
2110	0.0001131
2122	4.06e-05
2134	2.9e-05
2146	1.16e-05
2158	5.8e-06
2170	3.48e-05
2182	5.8e-06
2194	3.77e-05
2206	2.32e-05
2218	6.67e-05
2230	4.06e-05
2242	4.64e-05
2254	8.7e-05
2266	0.0001015
2278	0.0001479
2290	0.000174
2302	0.000174
2314	0.0002059
2326	0.0001276
2338	0.0001247
2350	0.0001073
2362	8.7e-05
2374	5.8e-05
2386	9.57e-05
2398	0.0001218
2410	0.0001798
2422	0.0002001
2434	0.0001421
2446	0.0001334
2458	0.0001334
2470	0.0001624
2482	0.000174
2494	0.0002175
2506	0.0002726
2518	0.000348
2530	0.000348
2542	0.0003161
2554	0.0002639
2566	0.0001914
2578	0.000203
2590	0.000174
2602	0.0002059
2614	0.000174
2626	0.0001421
2638	0.000145
2650	0.0001392
2662	0.0001218
2674	0.0001102
2686	0.0001189
2698	9.57e-05
2710	0.0001247
2722	0.0001392
2734	0.0001798
2746	0.0001914
2758	0.0002146
2770	0.0002581
2782	0.0003538
2794	0.0004437
2806	0.0006293
2818	0.0009106
2830	0.0015631
2842	0.0037033
2854	0.0025607
2866	0.0014819
2878	0.0013253
2890	0.0015457
2902	0.0021692
2914	0.0029957
2926	0.0031088
2938	0.0042572
2950	0.0049822
2962	0.003828
2974	0.0027289
2986	0.0024534
2998	0.0037845
3010	0.0053331
3022	0.0038599
3034	0.0064612
3046	0.0052867
3058	0.0048169
3070	0.007656
3082	0.0050054
3094	0.003567
3106	0.0021692
3118	0.0012238
3130	0.0007917
3142	0.0005626
3154	0.0004089
3166	0.0002697
3178	0.0002262
3190	0.0001885
3202	0.0001827
3214	0.0001682
3226	0.0001624
3238	0.0001363
3250	8.99e-05
3262	8.12e-05
3274	5.51e-05
3286	9.28e-05
3298	8.12e-05
3310	6.67e-05
3322	5.8e-05
3334	8.7e-05
3346	8.12e-05
3358	8.41e-05
3370	8.12e-05
3382	6.96e-05
3394	5.22e-05
3406	8.99e-05
3418	6.67e-05
3430	9.28e-05
3442	6.96e-05
3454	9.86e-05
3466	6.38e-05
3478	9.28e-05
3490	6.09e-05
3502	7.83e-05
3514	6.96e-05
3526	3.77e-05
3538	8.7e-05
3550	7.54e-05
3562	4.06e-05
3574	5.8e-05
3586	4.35e-05
3598	6.96e-05
3610	7.25e-05
3622	7.25e-05
3634	9.57e-05
3646	6.38e-05
3658	0.000116
3670	0.0001247
3682	0.0001131
3694	0.0001218
3706	0.0001363
3718	0.000145
3730	8.7e-05
3742	0.000116
3754	0.0001131
3766	0.0001276
3778	9.86e-05
3790	0.0001044
3802	8.12e-05
3814	8.99e-05
3826	0.0001218
3838	0.0001073
