Infrared Spectrum: PIPERAZINE, N,N'-DIPHENYL-
Formula: C16 H18 N2
CAS: 613-39-8
State: SOLUTION (1% CS2 FOR 2.6-22)
Class: COBLENTZ III
Instrument: DOW KBr FOREPRISM-GRATING
Instrument parameters: BLAZED AT 3.5, 12.0, 20.0 AND CHANGED AT 5.0, 7.5, 14.9 MICRON
Sampling: TRANSMISSION
Path length: 0.117 CM
Resolution: 2
Origin: DOW CHEMICAL COMPANY
1/CM	TRANSMITTANCE
3814	0.8936
3805	0.8937
3796	0.8937
3787	0.8938
3778	0.8936
3769	0.8934
3760	0.8933
3751	0.8932
3742	0.8925
3733	0.889
3724	0.8797
3715	0.8689
3706	0.8653
3697	0.8671
3688	0.8697
3679	0.8723
3670	0.8746
3661	0.8767
3652	0.8793
3643	0.8818
3634	0.8852
3625	0.8824
3616	0.8812
3607	0.8824
3598	0.8836
3589	0.8841
3580	0.8845
3571	0.8848
3562	0.8844
3553	0.8838
3544	0.8831
3535	0.8817
3526	0.8805
3517	0.8793
3508	0.878
3499	0.8767
3490	0.8754
3481	0.874
3472	0.8717
3463	0.8693
3454	0.8662
3445	0.8625
3436	0.8598
3427	0.8568
3418	0.854
3409	0.8534
3400	0.8532
3391	0.8532
3382	0.8532
3373	0.8533
3364	0.8537
3355	0.8545
3346	0.856
3337	0.8575
3328	0.859
3319	0.8605
3310	0.8621
3301	0.8636
3292	0.8652
3283	0.8667
3274	0.8682
3265	0.8697
3256	0.8713
3247	0.8728
3238	0.8743
3229	0.8758
3220	0.8774
3211	0.8787
3202	0.8799
3193	0.881
3184	0.8825
3175	0.8842
3166	0.8857
3157	0.8862
3148	0.8851
3139	0.8824
3130	0.8715
3121	0.7639
3112	0.7334
3103	0.6544
3094	0.5885
3085	0.6722
3076	0.5637
3067	0.4522
3058	0.593
3049	0.5833
3040	0.4115
3031	0.4659
3022	0.5612
3013	0.7105
3004	0.7142
2995	0.6772
2986	0.6082
2977	0.539
2968	0.5057
2959	0.5037
2950	0.5298
2941	0.6554
2932	0.7031
2923	0.7112
2914	0.6304
2905	0.5151
2896	0.6317
2887	0.4256
2878	0.6221
2869	0.6632
2860	0.6408
2851	0.4283
2842	0.2438
2833	0.091
2824	0.0565
2815	0.2068
2806	0.3912
2797	0.5886
2788	0.6522
2779	0.6943
2770	0.7099
2761	0.6297
2752	0.6418
2743	0.7425
2734	0.7465
2725	0.7497
2716	0.7567
2707	0.7549
2698	0.7556
2689	0.7646
2680	0.766
2671	0.8126
2662	0.8316
2653	0.8431
2644	0.8494
2635	0.8525
2626	0.8542
2617	0.8539
2608	0.8339
2599	0.8313
2590	0.8321
2581	0.8334
2572	0.8349
2563	0.8223
2554	0.8265
2545	0.8409
2536	0.8524
2527	0.8609
2518	0.8665
2509	0.8681
2500	0.8686
2491	0.8694
2482	0.8702
2473	0.8694
2464	0.8562
2455	0.8524
2446	0.8567
2437	0.8628
2428	0.8668
2419	0.8694
2410	0.8715
2401	0.8727
2392	0.867
2383	0.8546
2374	0.8427
2365	0.8307
2356	0.8174
2347	0.7564
2338	0.7301
2329	0.7121
2320	0.6995
2311	0.6894
2302	0.6837
2293	0.6628
2284	0.6608
2275	0.7032
2266	0.75
2257	0.7825
2248	0.8111
2239	0.8312
2230	0.8473
2221	0.86
2212	0.8707
2203	0.8752
2194	0.8775
2185	0.8793
2176	0.8813
2167	0.8827
2158	0.8833
2149	0.8835
2140	0.8801
2131	0.8748
2122	0.873
2113	0.8725
2104	0.872
2095	0.8705
2086	0.8674
2077	0.8632
2068	0.8587
2059	0.8536
2050	0.8477
2041	0.8408
2032	0.8412
2023	0.8333
2014	0.8108
2005	0.8007
1996	0.7946
1987	0.8078
1978	0.8149
1969	0.8075
1960	0.8424
1951	0.848
1942	0.816
1933	0.8098
1924	0.7818
1915	0.7932
1906	0.824
1897	0.8394
1888	0.8478
1879	0.8443
1870	0.8262
1861	0.7971
1852	0.7792
1843	0.7684
1834	0.7678
1825	0.7838
1816	0.8061
1807	0.8253
1798	0.8393
1789	0.8477
1780	0.8511
1771	0.8385
1762	0.8344
1753	0.8485
1744	0.8528
1735	0.8514
1726	0.8442
1717	0.8359
1708	0.8266
1699	0.8197
1690	0.824
1681	0.8247
1672	0.8228
1663	0.8087
1654	0.7768
1645	0.7256
1636	0.7025
1627	0.5648
1618	0.3839
1609	0.0982
1600	0.0126
1591	0.0125
1582	0.0126
1573	0.0125
1564	0.012
1555	0.0115
1546	0.0111
1537	0.0113
1528	0.0102
1519	0.0138
1510	0.0159
1501	0.01
1492	0.0091
1483	0.2447
1474	0.4439
1465	0.4989
1456	0.0771
1447	0.3639
1438	0.6458
1429	0.7265
1420	0.7501
1411	0.7549
1402	0.7235
1393	0.6428
1384	0.0638
1375	0.4704
1366	0.5842
1357	0.6202
1348	0.5862
1339	0.3716
1330	0.1061
1321	0.2906
1312	0.561
1303	0.6124
1294	0.6022
1285	0.6601
1276	0.5965
1267	0.2622
1258	0.4673
1249	0.5443
1240	0.1887
1231	0.0054
1222	0.0052
1213	0.1714
1204	0.4106
1195	0.5098
1186	0.4795
1177	0.5806
1168	0.6199
1159	0.3344
1150	0.2668
1141	0.448
1132	0.7068
1123	0.7608
1114	0.8142
1105	0.8062
1096	0.8018
1087	0.8065
1078	0.6896
1069	0.7575
1060	0.7878
1051	0.7175
1042	0.5535
1033	0.3314
1024	0.4716
1015	0.683
1006	0.8108
997	0.8086
988	0.5366
979	0.7614
970	0.7748
961	0.7375
952	0.3709
943	0.1295
934	0.7164
925	0.7922
916	0.8068
907	0.796
898	0.6969
889	0.4232
880	0.2168
871	0.1205
862	0.0635
853	0.0538
844	0.2868
835	0.4939
826	0.6857
817	0.7021
808	0.6862
799	0.6986
790	0.6571
781	0.5986
772	0.5759
763	0.0143
754	0.0195
745	0.2689
736	0.429
727	0.6205
718	0.6571
709	0.6618
700	0.5318
691	0.0019
682	0.2885
673	0.4769
664	0.508
655	0.3803
646	0.342
637	0.5622
628	0.6619
619	0.7215
610	0.7551
601	0.7978
592	0.8197
583	0.8271
574	0.8393
565	0.8483
556	0.8553
547	0.8336
538	0.7494
529	0.5416
520	0.3964
511	0.669
502	0.7249
493	0.7375
484	0.7372
475	0.7243
466	0.7031
457	0.6815
448	0.6634
439	0.6562
