Infrared Spectrum: 2-Methyl-6-nitroquinoline
Formula: C 10 H 8 N 2 O 2
CAS: 613-30-9
State: gas
Origin: EPA-IR VAPOR PHASE LIBRARY
1/CM	ABSORBANCE
549.8	0.002799
559.445	0.000328
569.09	0.000152
578.734	0.0012554
588.379	0.0011673
598.024	0.000578
607.669	0.00084911
617.313	0.001404
626.958	0.002119
636.603	0.002479
646.248	0.002079
655.893	0.0014416
665.537	0.0012114
675.182	0.00081599
684.827	0.001829
694.472	0.001475
704.116	0.002629
713.761	0.005339
723.406	0.012279
733.051	0.010029
742.695	0.005729
752.34	0.002409
761.985	0.003229
771.63	0.007359
781.275	0.011429
790.919	0.022519
800.564	0.023859
810.209	0.019229
819.854	0.010199
829.498	0.007689
839.143	0.017579
848.788	0.018409
858.433	0.006459
868.078	0.003129
877.722	0.002849
887.367	0.005559
897.012	0.011159
906.657	0.012029
916.301	0.008129
925.946	0.002789
935.591	0.0017214
945.236	0.002299
954.88	0.002199
964.525	0.002889
974.17	0.002699
983.815	0.0017715
993.46	0.002299
1003.1	0.003129
1012.75	0.002989
1022.39	0.002039
1032.04	0.001949
1041.68	0.002749
1051.33	0.003169
1060.97	0.003489
1070.62	0.006119
1080.26	0.011969
1089.91	0.008829
1099.55	0.002269
1109.2	0.004529
1118.84	0.004769
1128.49	0.003199
1138.13	0.004099
1147.78	0.007239
1157.42	0.002969
1167.07	0.002009
1176.71	0.002589
1186.36	0.004369
1196	0.006239
1205.64	0.007849
1215.29	0.015369
1224.93	0.012599
1234.58	0.004659
1244.22	0.006109
1253.87	0.007059
1263.51	0.005379
1273.16	0.004129
1282.8	0.005719
1292.45	0.010599
1302.09	0.023049
1311.74	0.015049
1321.38	0.017839
1331.03	0.047449
1340.67	0.107079
1350.32	0.085419
1359.96	0.032889
1369.61	0.026679
1379.25	0.030369
1388.9	0.021359
1398.54	0.012939
1408.18	0.006649
1417.83	0.005039
1427.47	0.005399
1437.12	0.006379
1446.76	0.007419
1456.41	0.007349
1466.05	0.009279
1475.7	0.014399
1485.34	0.030179
1494.99	0.045319
1504.63	0.034919
1514.28	0.021779
1523.92	0.018929
1533.57	0.031459
1543.21	0.055099
1552.86	0.059539
1562.5	0.043879
1572.15	0.036009
1581.79	0.027009
1591.44	0.021999
1601.08	0.035759
1610.73	0.049039
1620.37	0.036179
1630.01	0.025319
1639.66	0.009999
1649.3	0.005409
1658.95	0.003949
1668.59	0.003639
1678.24	0.003109
1687.88	0.002929
1697.53	0.002479
1707.17	0.002059
1716.82	0.001979
1726.46	0.0017286
1736.11	0.001839
1745.75	0.001819
1755.4	0.0015903
1765.04	0.002139
1774.69	0.002159
1784.33	0.002059
1793.98	0.002399
1803.62	0.002779
1813.27	0.002699
1822.91	0.0017828
1832.55	0.0014604
1842.2	0.0013698
1851.84	0.0013747
1861.49	0.0013074
1871.13	0.0015652
1880.78	0.0013709
1890.42	0.0010686
1900.07	0.0011712
1909.71	0.0014062
1919.36	0.002169
1929	0.002669
1938.65	0.002829
1948.29	0.001737
1957.94	0.001242
1967.58	0.0011755
1977.23	0.00089415
1986.87	0.0012052
1996.52	0.0011969
2006.16	0.0012462
2015.81	0.0010416
2025.45	0.0011277
2035.1	0.0010182
2044.74	0.0009552
2054.38	0.0009268
2064.03	0.00091517
2073.67	0.00090527
2083.32	0.0011014
2092.96	0.0013385
2102.61	0.0011888
2112.25	0.001059
2121.9	0.0012338
2131.54	0.0012613
2141.19	0.0010534
2150.83	0.0010481
2160.48	0.0011522
2170.12	0.0010003
2179.77	0.0010237
2189.41	0.0010208
2199.06	0.0010666
2208.7	0.00089558
2218.35	0.00091868
2227.99	0.00090815
2237.64	0.0011335
2247.28	0.0012335
2256.92	0.00135
2266.57	0.0014811
2276.21	0.0014025
2285.86	0.0010592
2295.5	0.0011731
2305.15	0.0012925
2314.79	0.0013127
2324.44	0.0012331
2334.08	0.0014082
2343.73	0.0011445
2353.37	0.0011128
2363.02	0.0011454
2372.66	0.0013055
2382.31	0.0013423
2391.95	0.0013415
2401.6	0.001476
2411.24	0.0014534
2420.89	0.0013606
2430.53	0.0014541
2440.18	0.0015587
2449.82	0.0013472
2459.47	0.0013162
2469.11	0.0011253
2478.75	0.001026
2488.4	0.0011943
2498.04	0.0013041
2507.69	0.0009536
2517.33	0.0010347
2526.98	0.0010462
2536.62	0.0014148
2546.27	0.001548
2555.91	0.0013927
2565.56	0.0014679
2575.2	0.001303
2584.85	0.0014204
2594.49	0.0013295
2604.14	0.0013318
2613.78	0.0011589
2623.43	0.0011028
2633.07	0.0011292
2642.72	0.0011901
2652.36	0.0012028
2662.01	0.0015172
2671.65	0.0013933
2681.29	0.0014252
2690.94	0.0014103
2700.58	0.0011967
2710.23	0.0013337
2719.87	0.0012235
2729.52	0.0012031
2739.16	0.0012532
2748.81	0.0010384
2758.45	0.0012841
2768.1	0.0009553
2777.74	0.0011063
2787.39	0.0013329
2797.03	0.0013126
2806.68	0.0017062
2816.32	0.001869
2825.97	0.002039
2835.61	0.002189
2845.26	0.002359
2854.9	0.003079
2864.55	0.003259
2874.19	0.003309
2883.84	0.003539
2893.48	0.003139
2903.12	0.003259
2912.77	0.003519
2922.41	0.004899
2932.06	0.008409
2941.7	0.007229
2951.35	0.004519
2960.99	0.003969
2970.64	0.003309
2980.28	0.002529
2989.93	0.002449
2999.57	0.002489
3009.22	0.003179
3018.86	0.003179
3028.51	0.003989
3038.15	0.004979
3047.8	0.005219
3057.44	0.006619
3067.09	0.009159
3076.73	0.006039
3086.38	0.003449
3096.02	0.002669
3105.67	0.002449
3115.31	0.0015161
3124.95	0.0014992
3134.6	0.0010244
3144.24	0.001123
3153.89	0.0007242
3163.53	0.00081716
3173.18	0.0011348
3182.82	0.0007764
3192.47	0.0009587
3202.11	0.001051
3211.76	0.0009638
3221.4	0.0010954
3231.05	0.000658
3240.69	0.00091245
3250.34	0.000608
3259.98	0.0010701
3269.63	0.0007677
3279.27	0.0009421
3288.92	0.00087601
3298.56	0.000538
3308.21	0.0011123
3317.85	0.000543
3327.49	0.000612
3337.14	0.000511
3346.78	0.0011618
3356.43	0.0009448
3366.07	0.0007512
3375.72	0.0007975
3385.36	0.000636
3395.01	0.0009662
3404.65	0.0008826
3414.3	0.000366
3423.94	0.00091646
3433.59	0.000612
3443.23	0.000494
3452.88	0.0010145
3462.52	0.0007955
3472.17	0.0007644
3481.81	0.000686
3491.46	0.000415
3501.1	0.0009832
3510.75	0.000472
3520.39	0.0007684
3530.04	0.0009556
3539.68	0.0007216
3549.32	0.000359
3558.97	0.00083141
3568.61	0.0009839
3578.26	0.000449
3587.9	0.000497
3597.55	0.00087635
3607.19	0.000826163
3616.84	0.000584
3626.48	0.000594
3636.13	0.0012011
3645.77	0.0009725
3655.42	0.0008037
3665.06	0.0007771
3674.71	0.00085027
3684.35	0.0007441
3694	0.0007226
3703.64	0.0008064
3713.29	0.0013805
3722.93	0.000625
3732.58	0.0008011
3742.22	0.0010958
3751.86	0.0010093
3761.51	0.00087924
3771.15	0.000454
3780.8	0.00090203
3790.44	0.0007331
3800.09	0.000582
3809.73	0.0011648
3819.38	0.0010978
3829.02	0.000526
3838.67	0.00098
3848.31	0.000609
3857.96	0.000601
3867.6	0.0007547
3877.25	0.00084097
3886.89	0.0009705
3896.54	0.0009793
3906.18	0.0009392
3915.83	0.00083788
3925.47	0.00084141
3935.12	0.0010024
3944.76	0.000659
3954.41	0.00083304
3964.05	0.0010968
3973.69	0.00088112
3983.34	0.0007583
3992.98	0.00088757
