Infrared Spectrum: N,N-Dibutylaniline
Formula: C 14 H 23 N
CAS: 613-29-6
State: gas
Origin: EPA-IR VAPOR PHASE LIBRARY
1/CM	ABSORBANCE
549.8	0.00834
559.445	0.00848
569.09	0.00785
578.734	0.00676
588.379	0.00604
598.024	0.00435
607.669	0.00308
617.313	0.00238
626.958	0.00214
636.603	0.00269
646.248	0.00387
655.893	0.00651
665.537	0.01205
675.182	0.02155
684.827	0.05293
694.472	0.07793
704.116	0.04711
713.761	0.02826
723.406	0.03104
733.051	0.04798
742.695	0.08892
752.34	0.08253
761.985	0.03673
771.63	0.02021
781.275	0.01347
790.919	0.01011
800.564	0.00874
810.209	0.00715
819.854	0.00596
829.498	0.00499
839.143	0.00515
848.788	0.00744
858.433	0.0115
868.078	0.01298
877.722	0.01203
887.367	0.01102
897.012	0.01406
906.657	0.01522
916.301	0.0198
925.946	0.02926
935.591	0.02497
945.236	0.01774
954.88	0.01449
964.525	0.01274
974.17	0.01271
983.815	0.01653
993.46	0.02259
1003.1	0.02043
1012.75	0.01676
1022.39	0.01971
1032.04	0.03464
1041.68	0.02776
1051.33	0.01869
1060.97	0.01938
1070.62	0.02207
1080.26	0.02792
1089.91	0.03906
1099.55	0.04863
1109.2	0.04331
1118.84	0.03276
1128.49	0.03213
1138.13	0.0432
1147.78	0.04963
1157.42	0.04953
1167.07	0.05838
1176.71	0.07573
1186.36	0.0724
1196	0.06603
1205.64	0.08804
1215.29	0.10983
1224.93	0.08398
1234.58	0.06254
1244.22	0.0564
1253.87	0.05454
1263.51	0.05238
1273.16	0.05928
1282.8	0.06995
1292.45	0.06411
1302.09	0.0526
1311.74	0.04759
1321.38	0.04876
1331.03	0.06111
1340.67	0.08253
1350.32	0.09802
1359.96	0.1106
1369.61	0.10999
1379.25	0.08778
1388.9	0.06111
1398.54	0.03803
1408.18	0.02525
1417.83	0.0203
1427.47	0.02047
1437.12	0.02771
1446.76	0.04215
1456.41	0.0617
1466.05	0.07721
1475.7	0.06946
1485.34	0.09704
1494.99	0.23502
1504.63	0.25192
1514.28	0.09021
1523.92	0.03875
1533.57	0.02671
1543.21	0.02379
1552.86	0.02451
1562.5	0.03184
1572.15	0.05278
1581.79	0.08841
1591.44	0.16977
1601.08	0.20279
1610.73	0.10589
1620.37	0.04353
1630.01	0.02286
1639.66	0.01512
1649.3	0.01134
1658.95	0.00931
1668.59	0.0079
1678.24	0.00694
1687.88	0.0064
1697.53	0.00612
1707.17	0.00588
1716.82	0.00589
1726.46	0.00576
1736.11	0.0059
1745.75	0.0062
1755.4	0.00605
1765.04	0.00524
1774.69	0.00441
1784.33	0.00408
1793.98	0.00409
1803.62	0.00437
1813.27	0.00465
1822.91	0.00455
1832.55	0.00414
1842.2	0.00376
1851.84	0.00351
1861.49	0.00349
1871.13	0.00357
1880.78	0.00382
1890.42	0.00465
1900.07	0.00627
1909.71	0.00784
1919.36	0.00732
1929	0.0068
1938.65	0.00514
1948.29	0.00372
1957.94	0.00321
1967.58	0.00278
1977.23	0.00258
1986.87	0.00233
1996.52	0.00213
2006.16	0.00224
2015.81	0.00239
2025.45	0.00267
2035.1	0.00262
2044.74	0.0024
2054.38	0.00238
2064.03	0.00236
2073.67	0.00236
2083.32	0.00226
2092.96	0.00221
2102.61	0.00225
2112.25	0.00221
2121.9	0.0022
2131.54	0.00203
2141.19	0.00206
2150.83	0.00195
2160.48	0.00194
2170.12	0.00183
2179.77	0.00204
2189.41	0.00222
2199.06	0.00207
2208.7	0.00198
2218.35	0.00204
2227.99	0.00219
2237.64	0.00223
2247.28	0.00242
2256.92	0.00241
2266.57	0.00234
2276.21	0.0022
2285.86	0.00209
2295.5	0.00209
2305.15	0.00233
2314.79	0.00284
2324.44	0.00286
2334.08	0.00282
2343.73	0.00299
2353.37	0.00323
2363.02	0.00316
2372.66	0.00311
2382.31	0.00302
2391.95	0.00287
2401.6	0.00293
2411.24	0.00289
2420.89	0.00299
2430.53	0.00306
2440.18	0.0029
2449.82	0.00295
2459.47	0.00285
2469.11	0.00285
2478.75	0.00287
2488.4	0.00299
2498.04	0.00313
2507.69	0.00346
2517.33	0.00382
2526.98	0.00392
2536.62	0.00421
2546.27	0.00473
2555.91	0.00516
2565.56	0.00568
2575.2	0.00593
2584.85	0.006
2594.49	0.00617
2604.14	0.00591
2613.78	0.00569
2623.43	0.0054
2633.07	0.00558
2642.72	0.00584
2652.36	0.00622
2662.01	0.00704
2671.65	0.00789
2681.29	0.00854
2690.94	0.00881
2700.58	0.00939
2710.23	0.01006
2719.87	0.01087
2729.52	0.01182
2739.16	0.01362
2748.81	0.01452
2758.45	0.01493
2768.1	0.01631
2777.74	0.01864
2787.39	0.02213
2797.03	0.02865
2806.68	0.03987
2816.32	0.05507
2825.97	0.06677
2835.61	0.0709
2845.26	0.07643
2854.9	0.09716
2864.55	0.14067
2874.19	0.17949
2883.84	0.18361
2893.48	0.14664
2903.12	0.14395
2912.77	0.17025
2922.41	0.20161
2932.06	0.26581
2941.7	0.32778
2951.35	0.29703
2960.99	0.33291
2970.64	0.35823
2980.28	0.17079
2989.93	0.08497
2999.57	0.05776
3009.22	0.04681
3018.86	0.04887
3028.51	0.06082
3038.15	0.0645
3047.8	0.05463
3057.44	0.05209
3067.09	0.07562
3076.73	0.06232
3086.38	0.04493
3096.02	0.04538
3105.67	0.03133
3115.31	0.01897
3124.95	0.01161
3134.6	0.00777
3144.24	0.00639
3153.89	0.00551
3163.53	0.00489
3173.18	0.00434
3182.82	0.00414
3192.47	0.00382
3202.11	0.00336
3211.76	0.00275
3221.4	0.002
3231.05	0.00175
3240.69	0.00173
3250.34	0.00115
3259.98	0.00113
3269.63	0.00107
3279.27	0.0009718
3288.92	0.000763
3298.56	0.00118
3308.21	0.00103
3317.85	0.00097
3327.49	0.0008616
3337.14	0.00105
3346.78	0.0009285
3356.43	0.0009019
3366.07	0.0007358
3375.72	0.000954
3385.36	0.000812
3395.01	0.0008163
3404.65	0.0007479
3414.3	0.0003069
3423.94	0.0007086
3433.59	0.0006855
3443.23	0.0006614
3452.88	0.0006232
3462.52	0.0008675
3472.17	0.0008628
3481.81	0.000445
3491.46	0.0006353
3501.1	0.0004345
3510.75	0.0005789
3520.39	0.0005034
3530.04	0.0006471
3539.68	0.0005148
3549.32	0.0003949
3558.97	0.0004894
3568.61	0.0004856
3578.26	0.0005529
3587.9	0.0003666
3597.55	0.0006387
3607.19	0.0007277
3616.84	0.000654
3626.48	0.0009379
3636.13	0.0009148
3645.77	0.00125
3655.42	0.00107
3665.06	0.00121
3674.71	0.00118
3684.35	0.00141
3694	0.0009683
3703.64	0.00109
3713.29	0.000952
3722.93	0.0009788
3732.58	0.0009739
3742.22	0.00104
3751.86	0.00119
3761.51	0.00127
3771.15	0.00115
3780.8	0.00102
3790.44	0.00115
3800.09	0.0014
3809.73	0.00122
3819.38	0.00135
3829.02	0.00135
3838.67	0.00116
3848.31	0.00141
3857.96	0.00128
3867.6	0.00139
3877.25	0.00122
3886.89	0.00111
3896.54	0.00113
3906.18	0.0009243
3915.83	0.00118
3925.47	0.00121
3935.12	0.0009042
3944.76	0.00115
3954.41	0.00126
3964.05	0.00163
3973.69	0.00189
3983.34	0.00207
3992.98	0.00215
