Infrared Spectrum: 2,2'-Dinaphthyl ether
Formula: C 20 H 14 O
CAS: 613-80-9
State: gas
Origin: EPA-IR VAPOR PHASE LIBRARY
1/CM	ABSORBANCE
549.9	0.000857
559.547	0.000705
569.193	0.000769
578.84	0.000823
588.486	0.00079
598.133	0.000782
607.779	0.0012999
617.426	0.00435
627.072	0.00365
636.719	0.001894
646.365	0.0015395
656.012	0.0011614
665.658	0.00094
675.305	0.000954
684.951	0.001002
694.598	0.00151
704.245	0.0020136
713.891	0.0022247
723.538	0.00334
733.184	0.00887
742.831	0.01776
752.477	0.01188
762.124	0.00466
771.77	0.00289
781.417	0.00247
791.063	0.00346
800.71	0.00857
810.356	0.01098
820.003	0.0045
829.649	0.00388
839.296	0.00833
848.943	0.0125
858.589	0.00745
868.236	0.00506
877.882	0.00594
887.529	0.00492
897.175	0.00389
906.822	0.00332
916.468	0.00708
926.115	0.00447
935.761	0.00331
945.408	0.00376
955.054	0.00598
964.701	0.02277
974.347	0.01163
983.994	0.0032
993.64	0.0020018
1003.29	0.0015436
1012.93	0.0018513
1022.58	0.0015806
1032.23	0.0012349
1041.87	0.001156
1051.52	0.001115
1061.17	0.00109
1070.81	0.001038
1080.46	0.001094
1090.11	0.00127312
1099.75	0.0020239
1109.4	0.00371
1119.05	0.008
1128.69	0.00675
1138.34	0.00487
1147.99	0.00663
1157.63	0.01026
1167.28	0.04115
1176.92	0.03205
1186.57	0.00618
1196.22	0.00725
1205.86	0.01765
1215.51	0.05045
1225.16	0.02224
1234.8	0.01824
1244.45	0.05762
1254.1	0.07937
1263.74	0.02933
1273.39	0.01091
1283.04	0.00532
1292.68	0.0039
1302.33	0.00304
1311.98	0.00291
1321.62	0.00345
1331.27	0.00444
1340.92	0.00723
1350.56	0.01064
1360.21	0.01365
1369.86	0.01032
1379.5	0.0111
1389.15	0.00755
1398.79	0.00508
1408.44	0.00393
1418.09	0.0039
1427.73	0.00404
1437.38	0.00535
1447.03	0.01004
1456.67	0.03043
1466.32	0.03625
1475.97	0.01256
1485.61	0.00991
1495.26	0.01198
1504.91	0.02918
1514.55	0.01651
1524.2	0.00456
1533.85	0.00347
1543.49	0.00313
1553.14	0.0032
1562.79	0.0046
1572.43	0.00905
1582.08	0.01746
1591.73	0.02747
1601.37	0.02347
1611.02	0.01005
1620.67	0.01669
1630.31	0.02743
1639.96	0.01133
1649.6	0.0053
1659.25	0.0036
1668.9	0.00299
1678.54	0.00293
1688.19	0.00304
1697.84	0.00245
1707.48	0.0022591
1717.13	0.0020828
1726.78	0.0019982
1736.42	0.0020177
1746.07	0.0025
1755.72	0.0021935
1765.36	0.0019401
1775.01	0.0020922
1784.66	0.0019389
1794.3	0.001935
1803.95	0.0018957
1813.6	0.002145
1823.24	0.00231
1832.89	0.0019553
1842.54	0.0017491
1852.18	0.0016194
1861.83	0.0017019
1871.47	0.0019935
1881.12	0.0023
1890.77	0.00267
1900.41	0.00256
1910.06	0.00252
1919.71	0.00229
1929.35	0.00231
1939	0.00264
1948.65	0.0019008
1958.29	0.0015859
1967.94	0.0013594
1977.59	0.00127561
1987.23	0.00125211
1996.88	0.0012019
2006.53	0.0011869
2016.17	0.00126935
2025.82	0.0012237
2035.47	0.00126029
2045.11	0.0012032
2054.76	0.00128026
2064.41	0.0014028
2074.05	0.0015718
2083.7	0.0014574
2093.35	0.00132594
2102.99	0.00133519
2112.64	0.0013889
2122.28	0.0014386
2131.93	0.0014215
2141.58	0.0013558
2151.22	0.00133673
2160.87	0.00134128
2170.52	0.00128648
2180.16	0.0011997
2189.81	0.001126
2199.46	0.001129
2209.1	0.0011681
2218.75	0.0011656
2228.4	0.0011732
2238.04	0.0011767
2247.69	0.001104
2257.34	0.001116
2266.98	0.0012207
2276.63	0.0015145
2286.28	0.0014341
2295.92	0.0012155
2305.57	0.0012277
2315.22	0.0014125
2324.86	0.0017573
2334.51	0.0014982
2344.16	0.00134181
2353.8	0.0015417
2363.45	0.0016795
2373.09	0.0015082
2382.74	0.001372
2392.39	0.00127904
2402.03	0.00131312
2411.68	0.00133547
2421.33	0.001222
2430.97	0.001139
2440.62	0.001123
2450.27	0.001032
2459.91	0.001109
2469.56	0.001092
2479.21	0.001046
2488.85	0.001053
2498.5	0.001111
2508.15	0.001055
2517.79	0.000992
2527.44	0.00095
2537.09	0.000916
2546.73	0.00091
2556.38	0.000963
2566.03	0.001019
2575.67	0.000977
2585.32	0.001007
2594.96	0.001056
2604.61	0.001029
2614.26	0.000913
2623.9	0.000942
2633.55	0.000834
2643.2	0.000805
2652.84	0.000776
2662.49	0.00068
2672.14	0.000628
2681.78	0.000617
2691.43	0.000689
2701.08	0.000686
2710.72	0.000746
2720.37	0.00074
2730.02	0.000732
2739.66	0.000681
2749.31	0.000699
2758.96	0.000604
2768.6	0.000517
2778.25	0.00053
2787.9	0.000547
2797.54	0.000609
2807.19	0.000598
2816.84	0.000562
2826.48	0.000515
2836.13	0.000603
2845.77	0.000561
2855.42	0.00052
2865.07	0.000536
2874.71	0.000499
2884.36	0.000464
2894.01	0.000348
2903.65	0.000508
2913.3	0.000442
2922.95	0.000465
2932.59	0.000617
2942.24	0.000797
2951.89	0.001022
2961.53	0.000957
2971.18	0.001082
2980.83	0.0011632
2990.47	0.00130671
3000.12	0.0015634
3009.77	0.0021628
3019.41	0.00379
3029.06	0.00639
3038.71	0.00568
3048.35	0.00778
3058	0.01849
3067.64	0.02141
3077.29	0.01158
3086.94	0.00647
3096.58	0.0041
3106.23	0.0016352
3115.88	0.000627
3125.52	0.000392
3135.17	0.00024
3144.82	0.000327
3154.46	0.00024
3164.11	0.00017
3173.76	0.00019
3183.4	0.00012
3193.05	1e-05
3202.7	4e-05
3212.34	0.00012
3221.99	0.00014
3231.64	0.00016
3241.28	0.00025
3250.93	0.00021
3260.58	0.000298
3270.22	0.00016
3279.87	5e-05
3289.52	0.0003
3299.16	0.00018
3308.81	0.000277
3318.45	0
3328.1	0.000272
3337.75	0.00017
3347.39	0.00021
3357.04	0.00011
3366.69	0.000273
3376.33	0.000278
3385.98	0.000263
3395.63	0.00011
3405.27	0.00025
3414.92	0.000359
3424.57	0.000454
3434.21	0.000291
3443.86	0.000341
3453.51	0.000412
3463.15	0.0002
3472.8	0.000386
3482.45	0.000373
3492.09	0.000309
3501.74	0.000539
3511.39	0.000606
3521.03	0.000498
3530.68	0.000526
3540.33	0.000628
3549.97	0.000539
3559.62	0.000605
3569.26	0.000638
3578.91	0.00075
3588.56	0.000606
3598.2	0.00058
3607.85	0.000731
3617.5	0.000646
3627.14	0.000715
3636.79	0.000775
3646.44	0.000762
3656.08	0.000679
3665.73	0.000701
3675.38	0.00088
3685.02	0.000794
3694.67	0.000735
3704.32	0.000718
3713.96	0.000764
3723.61	0.000711
3733.26	0.000788
3742.9	0.000767
3752.55	0.000773
3762.2	0.000711
3771.84	0.000835
3781.49	0.000736
3791.13	0.000787
3800.78	0.000788
3810.43	0.000788
3820.07	0.000866
3829.72	0.000799
3839.37	0.000679
3849.01	0.00083
3858.66	0.000718
3868.31	0.000776
3877.95	0.000705
3887.6	0.000652
3897.25	0.000728
3906.89	0.000696
3916.54	0.000802
3926.19	0.00073
3935.83	0.000859
3945.48	0.000798
3955.13	0.000767
3964.77	0.000851
3974.42	0.000837
3984.07	0.00088
3993.71	0.000898
