Infrared Spectrum: 1,2-Bis(cyanomethyl)benzene
Formula: C 10 H 8 N 2
CAS: 613-73-0
State: gas
Instrument: HP-GC/MS/IRD
Origin: NIST Mass Spectrometry Data Center
1/CM	ABSORBANCE
550	0.0002688
562	9.92e-05
574	0.0001408
586	0.0002176
598	0.0006304
610	0.0018336
622	0.0026816
634	0.001536
646	0.000912
658	0.0006784
670	0.0008064
682	0.0011008
694	0.0018272
706	0.0028864
718	0.0038944
730	0.0088128
742	0.0266208
754	0.0222656
766	0.0061184
778	0.0026208
790	0.001392
802	0.0007424
814	0.0005632
826	0.0005952
838	0.0007904
850	0.0008128
862	0.0007584
874	0.0006336
886	0.0005568
898	0.000688
910	0.000896
922	0.0013056
934	0.00176
946	0.0020704
958	0.0017312
970	0.000688
982	0.0003136
994	0.0002496
1006	0.0002816
1018	0.0003744
1030	0.0004064
1042	0.0006816
1054	0.001088
1066	0.000512
1078	0.0004224
1090	0.0011488
1102	0.0008864
1114	0.0002304
1126	8.64e-05
1138	0.0001152
1150	0.0002112
1162	0.000528
1174	0.0010528
1186	0.0009728
1198	0.0007072
1210	0.0005696
1222	0.000512
1234	0.000528
1246	0.0006816
1258	0.000848
1270	0.0009856
1282	0.0011488
1294	0.0011904
1306	0.0010816
1318	0.0012192
1330	0.00104
1342	0.0005216
1354	0.0004064
1366	0.000496
1378	0.0006784
1390	0.0010816
1402	0.0019392
1414	0.004704
1426	0.0109376
1438	0.0108864
1450	0.0079648
1462	0.0062656
1474	0.0034752
1486	0.006256
1498	0.0081088
1510	0.0033216
1522	0.0008512
1534	0.0004896
1546	0.000448
1558	0.0004608
1570	0.0005312
1582	0.0006912
1594	0.001328
1606	0.0017472
1618	0.0007968
1630	0.0003392
1642	0.0002912
1654	0.0002784
1666	0.0002976
1678	0.0004032
1690	0.0005792
1702	0.0005696
1714	0.0003968
1726	0.0002912
1738	0.0001824
1750	0.0001664
1762	0.0002368
1774	0.0003648
1786	0.0005184
1798	0.0007392
1810	0.0009888
1822	0.0007776
1834	0.0007136
1846	0.0006144
1858	0.000368
1870	0.0004032
1882	0.0004448
1894	0.0004928
1906	0.0005312
1918	0.0006944
1930	0.0009472
1942	0.0008256
1954	0.0009312
1966	0.0005888
1978	0.0001472
1990	0.0001024
2002	8.64e-05
2014	5.76e-05
2026	6.72e-05
2038	7.68e-05
2050	7.04e-05
2062	8e-05
2074	8.96e-05
2086	0.0001184
2098	0.0001408
2110	0.000144
2122	0.0001248
2134	8.96e-05
2146	8.64e-05
2158	5.76e-05
2170	6.72e-05
2182	8e-05
2194	6.08e-05
2206	0.0001088
2218	0.0001472
2230	0.000288
2242	0.0007584
2254	0.001392
2266	0.0009792
2278	0.0004224
2290	0.0002112
2302	0.0001376
2314	0.00024
2326	0.0004256
2338	0.000528
2350	0.0003776
2362	0.0003008
2374	0.0002464
2386	0.00016
2398	0.0001056
2410	9.92e-05
2422	8.64e-05
2434	8.32e-05
2446	7.36e-05
2458	4.8e-05
2470	3.84e-05
2482	4.8e-05
2494	6.4e-05
2506	0.0001056
2518	0.0001088
2530	0.0001184
2542	0.0001024
2554	0.0001312
2566	0.0001248
2578	0.0002016
2590	0.0002688
2602	0.0003456
2614	0.0002784
2626	0.0002112
2638	0.0001664
2650	0.0001504
2662	0.0001408
2674	0.00016
2686	0.000144
2698	0.0001824
2710	0.0001536
2722	0.0002144
2734	0.000224
2746	0.000256
2758	0.0002144
2770	0.0001632
2782	0.0001408
2794	0.0001472
2806	0.0001824
2818	0.0003008
2830	0.0004384
2842	0.0005728
2854	0.0005952
2866	0.0004256
2878	0.0004288
2890	0.0005792
2902	0.0008
2914	0.00128
2926	0.0022144
2938	0.0027616
2950	0.0019328
2962	0.0016064
2974	0.0013504
2986	0.0008992
2998	0.0008192
3010	0.0011968
3022	0.0030208
3034	0.0057856
3046	0.0044288
3058	0.0035456
3070	0.0062336
3082	0.0082528
3094	0.0044352
3106	0.0016416
3118	0.0010176
3130	0.0005568
3142	0.0004416
3154	0.000512
3166	0.00064
3178	0.0006144
3190	0.000544
3202	0.0004576
3214	0.0003072
3226	0.0002208
3238	0.0001376
3250	8.96e-05
3262	0.0001088
3274	7.36e-05
3286	0.0001216
3298	0.0001024
3310	0.0001184
3322	0.0001152
3334	0.0001216
3346	2.88e-05
3358	8.32e-05
3370	0.0001024
3382	9.28e-05
3394	2.24e-05
3406	9.28e-05
3418	9.28e-05
3430	0.0001024
3442	8e-05
3454	8e-05
3466	5.44e-05
3478	0.000112
3490	0.0001024
3502	8.96e-05
3514	8e-05
3526	0.0001024
3538	0.0001152
3550	8.32e-05
3562	0.000112
3574	9.28e-05
3586	6.08e-05
3598	0.0001312
3610	6.72e-05
3622	0.0001568
3634	8.96e-05
3646	0.000192
3658	0.000144
3670	0.0001152
3682	0.0001664
3694	0.0001824
3706	0.0001248
3718	0.000144
3730	0.000112
3742	0.0001888
3754	0.0001472
3766	0.0001024
3778	0.0001664
3790	9.92e-05
3802	0.0001632
3814	0.000208
3826	0.0002112
3838	0.0002496
