Infrared Spectrum: .alpha.-Isothiocyanato-.gamma.-butyrolactone
Formula: C 5 H 5 N O 2 S
CAS: 61315-63-7
State: gas
Origin: EPA-IR VAPOR PHASE LIBRARY
1/CM	ABSORBANCE
549.8	0.005893
559.445	0.005223
569.09	0.005343
578.734	0.004603
588.379	0.003713
598.024	0.003073
607.669	0.002463
617.313	0.002333
626.958	0.002243
636.603	0.002113
646.248	0.002813
655.893	0.003453
665.537	0.004033
675.182	0.004223
684.827	0.004253
694.472	0.004063
704.116	0.002143
713.761	0.001513
723.406	0.0011772
733.051	0.0012995
742.695	0.001843
752.34	0.002363
761.985	0.002833
771.63	0.003233
781.275	0.002843
790.919	0.002313
800.564	0.002263
810.209	0.002963
819.854	0.003853
829.498	0.003713
839.143	0.004103
848.788	0.004413
858.433	0.005213
868.078	0.007113
877.722	0.008973
887.367	0.007433
897.012	0.004893
906.657	0.003853
916.301	0.003893
925.946	0.003963
935.591	0.003843
945.236	0.003543
954.88	0.003373
964.525	0.002793
974.17	0.003733
983.815	0.005603
993.46	0.006993
1003.1	0.007383
1012.75	0.011263
1022.39	0.021723
1032.04	0.028933
1041.68	0.025263
1051.33	0.012193
1060.97	0.006083
1070.62	0.004783
1080.26	0.004773
1089.91	0.006543
1099.55	0.008793
1109.2	0.009733
1118.84	0.015973
1128.49	0.031413
1138.13	0.058183
1147.78	0.074133
1157.42	0.058463
1167.07	0.032693
1176.71	0.017893
1186.36	0.011283
1196	0.009743
1205.64	0.011693
1215.29	0.013143
1224.93	0.011003
1234.58	0.006613
1244.22	0.004703
1253.87	0.004233
1263.51	0.004743
1273.16	0.004813
1282.8	0.005353
1292.45	0.006083
1302.09	0.008023
1311.74	0.012523
1321.38	0.015213
1331.03	0.017203
1340.67	0.016543
1350.32	0.010373
1359.96	0.006493
1369.61	0.008193
1379.25	0.006963
1388.9	0.003203
1398.54	0.001833
1408.18	0.001443
1417.83	0.001353
1427.47	0.001553
1437.12	0.001953
1446.76	0.002733
1456.41	0.002763
1466.05	0.002193
1475.7	0.001823
1485.34	0.002063
1494.99	0.002053
1504.63	0.001433
1514.28	0.0010867
1523.92	0.0010206
1533.57	0.0010959
1543.21	0.0009766
1552.86	0.0009235
1562.5	0.0010398
1572.15	0.0008464
1581.79	0.0009336
1591.44	0.0008275
1601.08	0.000935
1610.73	0.000877
1620.37	0.0010233
1630.01	0.0010573
1639.66	0.0010913
1649.3	0.00113
1658.95	0.001353
1668.59	0.0012735
1678.24	0.001383
1687.88	0.001353
1697.53	0.001503
1707.17	0.001573
1716.82	0.001673
1726.46	0.001723
1736.11	0.001993
1745.75	0.002473
1755.4	0.003133
1765.04	0.004623
1774.69	0.007163
1784.33	0.011243
1793.98	0.018253
1803.62	0.033613
1813.27	0.063453
1822.91	0.089283
1832.55	0.083033
1842.2	0.045583
1851.84	0.019933
1861.49	0.011823
1871.13	0.008473
1880.78	0.007023
1890.42	0.007103
1900.07	0.008213
1909.71	0.010313
1919.36	0.012933
1929	0.016443
1938.65	0.021173
1948.29	0.027683
1957.94	0.036743
1967.58	0.048273
1977.23	0.064073
1986.87	0.085063
1996.52	0.112073
2006.16	0.147123
2015.81	0.186983
2025.45	0.194123
2035.1	0.158463
2044.74	0.121113
2054.38	0.094653
2064.03	0.071403
2073.67	0.050793
2083.32	0.041233
2092.96	0.042033
2102.61	0.043693
2112.25	0.039703
2121.9	0.032303
2131.54	0.025203
2141.19	0.019603
2150.83	0.016043
2160.48	0.013543
2170.12	0.011183
2179.77	0.009683
2189.41	0.008163
2199.06	0.006393
2208.7	0.004963
2218.35	0.004173
2227.99	0.003863
2237.64	0.003693
2247.28	0.003503
2256.92	0.003453
2266.57	0.003313
2276.21	0.003173
2285.86	0.003063
2295.5	0.003133
2305.15	0.002953
2314.79	0.002743
2324.44	0.002493
2334.08	0.002333
2343.73	0.001913
2353.37	0.001793
2363.02	0.001553
2372.66	0.001413
2382.31	0.0011873
2391.95	0.0010884
2401.6	0.0011113
2411.24	0.001007
2420.89	0.0009514
2430.53	0.0009722
2440.18	0.0010627
2449.82	0.0009112
2459.47	0.0008518
2469.11	0.00078
2478.75	0.0010027
2488.4	0.0009716
2498.04	0.0010151
2507.69	0.0011908
2517.33	0.001343
2526.98	0.001453
2536.62	0.001383
2546.27	0.0012713
2555.91	0.0012891
2565.56	0.001523
2575.2	0.001563
2584.85	0.001793
2594.49	0.001783
2604.14	0.001543
2613.78	0.001413
2623.43	0.001236
2633.07	0.0011968
2642.72	0.0012733
2652.36	0.001523
2662.01	0.001443
2671.65	0.001543
2681.29	0.001483
2690.94	0.001403
2700.58	0.001373
2710.23	0.001403
2719.87	0.001373
2729.52	0.001343
2739.16	0.0012647
2748.81	0.0012104
2758.45	0.0011419
2768.1	0.0012224
2777.74	0.0010118
2787.39	0.0012598
2797.03	0.0011736
2806.68	0.0011146
2816.32	0.0011027
2825.97	0.0010893
2835.61	0.0012775
2845.26	0.001393
2854.9	0.001553
2864.55	0.001753
2874.19	0.002123
2883.84	0.003063
2893.48	0.004253
2903.12	0.007033
2912.77	0.011363
2922.41	0.011033
2932.06	0.006793
2941.7	0.004843
2951.35	0.004773
2960.99	0.005293
2970.64	0.006283
2980.28	0.007243
2989.93	0.009043
2999.57	0.012403
3009.22	0.011893
3018.86	0.006373
3028.51	0.002713
3038.15	0.001443
3047.8	0.0008884
3057.44	0.0007708
3067.09	0.0005338
3076.73	0.0005296
3086.38	0.0002872
3096.02	0.0004471
3105.67	0.0005184
3115.31	0.000314893
3124.95	0.0005154
3134.6	0.00032415
3144.24	0.0002614
3153.89	0.0002621
3163.53	0.0003709
3173.18	0.0002343
3182.82	9.7e-05
3192.47	0.000428
3202.11	0.0002745
3211.76	0.000177
3221.4	0.000237
3231.05	0.000314584
3240.69	0.000193
3250.34	0.000194
3259.98	0.000102
3269.63	9.3e-05
3279.27	0.000127
3288.92	0.00033659
3298.56	0.00018
3308.21	0.0002515
3317.85	0.0002263
3327.49	0.0003442
3337.14	0.000172
3346.78	0.000116
3356.43	9.6e-05
3366.07	0.000157
3375.72	0.000164
3385.36	0.0003027
3395.01	0.0002801
3404.65	0.00040664
3414.3	0.000178
3423.94	0.000212
3433.59	0.000136
3443.23	0.00014
3452.88	0.00031146
3462.52	0.00036726
3472.17	0.0002974
3481.81	0.0003681
3491.46	0.0002856
3501.1	0.0002464
3510.75	0.0002732
3520.39	0.00039202
3530.04	0.00040406
3539.68	0.0002573
3549.32	0.0004541
3558.97	0.0006258
3568.61	0.0005137
3578.26	0.00036691
3587.9	0.000769
3597.55	0.000643
3607.19	0.0010429
3616.84	0.001513
3626.48	0.001533
3636.13	0.001423
3645.77	0.0012459
3655.42	0.0010191
3665.06	0.000915
3674.71	0.0007695
3684.35	0.00058
3694	0.0005327
3703.64	0.0004907
3713.29	0.00030971
3722.93	0.0004793
3732.58	0.0002729
3742.22	0.0005012
3751.86	0.00041054
3761.51	0.0004357
3771.15	0.0005384
3780.8	0.0004412
3790.44	0.00040756
3800.09	0.0004396
3809.73	0.0005878
3819.38	0.0005221
3829.02	0.0003835
3838.67	0.0005272
3848.31	0.0006239
3857.96	0.0006323
3867.6	0.0006502
3877.25	0.0006875
3886.89	0.0006595
3896.54	0.0006717
3906.18	0.0006132
3915.83	0.00087
3925.47	0.000757
3935.12	0.0007623
3944.76	0.0010407
3954.41	0.0010645
3964.05	0.0012467
3973.69	0.0010909
3983.34	0.0013102
3992.98	0.001256
