Infrared Spectrum: Urea, 1-butyl-3-methyl-
Formula: C6 H14 N2 O
CAS: 6135-36-0
State: SOLID (1 mg / 650 mg KBr DISC)
Class: COBLENTZ III
Instrument: PERKIN-ELMER 221 (GRATING)
Instrument parameters: FILTER AT 980 CM^-^1. GRATING 4000-1428 CM^-^1, NaCl PRISM 1428-650 CM^-^1
Sampling: TRANSMISSION
Resolution: 2
Origin: SOUTHERN RESEARCH INSTITUTE
1/CM	TRANSMITTANCE
646	0.5926
655	0.6156
664	0.6533
673	0.6957
682	0.7419
691	0.782
700	0.8141
709	0.8424
718	0.8672
727	0.8772
736	0.8186
745	0.8995
754	0.9061
763	0.8905
772	0.7781
781	0.947
790	0.9528
799	0.9589
808	0.9713
817	0.9794
826	0.981
835	0.9814
844	0.9807
853	0.9795
862	0.9783
871	0.9767
880	0.9713
889	0.957
898	0.9702
907	0.9683
916	0.9626
925	0.9568
934	0.952
943	0.9485
952	0.9469
961	0.9381
970	0.909
979	0.9391
988	0.8999
997	0.8947
1006	0.8921
1015	0.8653
1024	0.8408
1033	0.8506
1042	0.8507
1051	0.8275
1060	0.7825
1069	0.8071
1078	0.8655
1087	0.8663
1096	0.8643
1105	0.8618
1114	0.8586
1123	0.8545
1132	0.8485
1141	0.8223
1150	0.7768
1159	0.7348
1168	0.7686
1177	0.8085
1186	0.8121
1195	0.8041
1204	0.7854
1213	0.7519
1222	0.7081
1231	0.6404
1240	0.5484
1249	0.5513
1258	0.6959
1267	0.6874
1276	0.5899
1285	0.6378
1294	0.7218
1303	0.7647
1312	0.8105
1321	0.8373
1330	0.8409
1339	0.8327
1348	0.8062
1357	0.8457
1366	0.8008
1375	0.8486
1384	0.8476
1393	0.8262
1402	0.7661
1411	0.6125
1420	0.8448
1429	0.8432
1438	0.8162
1447	0.7125
1456	0.6714
1465	0.7237
1474	0.6729
1483	0.7601
1492	0.7454
1501	0.7129
1510	0.6281
1519	0.5681
1528	0.5599
1537	0.5511
1546	0.5146
1555	0.4437
1564	0.3637
1573	0.3063
1582	0.2344
1591	0.2229
1600	0.2421
1609	0.2578
1618	0.2135
1627	0.1754
1636	0.1876
1645	0.2528
1654	0.3027
1663	0.375
1672	0.4441
1681	0.49
1690	0.5302
1699	0.5865
1708	0.6318
1717	0.6685
1726	0.7036
1735	0.7244
1744	0.7399
1753	0.7604
1762	0.7734
1771	0.7893
1780	0.8052
1789	0.8173
1798	0.8284
1807	0.8403
1816	0.8528
1825	0.8624
1834	0.8697
1843	0.8756
1852	0.8819
1861	0.8877
1870	0.8907
1879	0.8931
1888	0.8952
1897	0.898
1906	0.9007
1915	0.9036
1924	0.9071
1933	0.9116
1942	0.9162
1951	0.9201
1960	0.9247
1969	0.9291
1978	0.9318
1987	0.9325
1996	0.9332
2005	0.9332
2014	0.9333
2023	0.9336
2032	0.934
2041	0.9345
2050	0.9351
2059	0.9358
2068	0.9364
2077	0.9371
2086	0.9377
2095	0.9384
2104	0.9387
2113	0.9391
2122	0.9394
2131	0.9397
2140	0.9398
2149	0.9398
2158	0.9399
2167	0.9401
2176	0.9405
2185	0.9409
2194	0.9411
2203	0.9412
2212	0.9427
2221	0.9413
2230	0.9413
2239	0.9429
2248	0.9447
2257	0.9466
2266	0.9487
2275	0.9493
2284	0.9494
2293	0.9486
2302	0.9478
2311	0.9467
2320	0.9455
2329	0.9452
2338	0.9454
2347	0.9462
2356	0.9473
2365	0.9478
2374	0.9482
2383	0.9486
2392	0.949
2401	0.9495
2410	0.9499
2419	0.9503
2428	0.9507
2437	0.9511
2446	0.9516
2455	0.9526
2464	0.9524
2473	0.9542
2482	0.9731
2491	0.9473
2500	0.9457
2509	0.9453
2518	0.9435
2527	0.941
2536	0.939
2545	0.9374
2554	0.9361
2563	0.935
2572	0.9343
2581	0.9333
2590	0.9318
2599	0.931
2608	0.9301
2617	0.9298
2626	0.9296
2635	0.9296
2644	0.9299
2653	0.9288
2662	0.926
2671	0.9208
2680	0.9153
2689	0.9104
2698	0.9079
2707	0.9078
2716	0.9084
2725	0.9095
2734	0.9096
2743	0.9099
2752	0.9078
2761	0.9051
2770	0.9012
2779	0.8922
2788	0.8745
2797	0.8372
2806	0.798
2815	0.7983
2824	0.8003
2833	0.7922
2842	0.7657
2851	0.7078
2860	0.5611
2869	0.5162
2878	0.5232
2887	0.5461
2896	0.5681
2905	0.5615
2914	0.542
2923	0.5001
2932	0.4243
2941	0.4205
2950	0.4787
2959	0.3884
2968	0.444
2977	0.572
2986	0.6363
2995	0.6747
3004	0.7096
3013	0.7189
3022	0.7259
3031	0.7369
3040	0.7416
3049	0.7506
3058	0.7642
3067	0.7757
3076	0.7868
3085	0.7943
3094	0.7936
3103	0.7887
3112	0.7774
3121	0.7595
3130	0.7297
3139	0.6993
3148	0.7018
3157	0.7131
3166	0.721
3175	0.7237
3184	0.7235
3193	0.7191
3202	0.7068
3211	0.6929
3220	0.6768
3229	0.6608
3238	0.6437
3247	0.6244
3256	0.6002
3265	0.5727
3274	0.5377
3283	0.4978
3292	0.447
3301	0.3894
3310	0.3296
3319	0.2936
3328	0.2987
3337	0.2968
3346	0.2744
3355	0.2828
3364	0.3272
3373	0.3837
3382	0.4314
3391	0.4659
3400	0.4904
3409	0.5143
3418	0.5371
3427	0.5548
3436	0.5801
3445	0.597
3454	0.6125
3463	0.6283
3472	0.6436
3481	0.6579
3490	0.6686
3499	0.6766
3508	0.6846
3517	0.6926
3526	0.7032
3535	0.7147
3544	0.7211
3553	0.7273
3562	0.7354
3571	0.7439
3580	0.751
3589	0.7578
3598	0.7673
3607	0.7761
3616	0.7865
3625	0.7969
3634	0.8043
3643	0.8077
3652	0.8101
3661	0.8119
3670	0.8154
3679	0.8185
3688	0.8212
3697	0.8229
3706	0.8243
3715	0.8258
3724	0.8269
3733	0.8279
3742	0.8276
3751	0.8274
3760	0.8269
3769	0.8264
3778	0.8261
3787	0.8267
3796	0.8272
3805	0.8277
3814	0.8279
3823	0.828
3832	0.8274
3841	0.8264
3850	0.8242
3859	0.8236
3868	0.8245
3877	0.8253
3886	0.8262
3895	0.8266
3904	0.827
3913	0.8282
3922	0.8288
3931	0.8283
3940	0.8287
3949	0.8291
