Infrared Spectrum: Piperazine, 2,3,5,6-tetramethyl-,
Formula: C8 H18 N2
CAS: 6135-46-2
State: LIQUID (NEAT)
Boiling point: 180 C
Class: COBLENTZ III
Instrument: BAIRD (GRATING)
Instrument parameters: NaCl PRISM
Path length: 0.003 CM
Resolution: 2
Origin: WYANDOTTE CHEMICALS CORP.
1/CM	TRANSMITTANCE
626	0.4045
635	0.3696
644	0.2697
653	0.1904
662	0.2393
671	0.2563
680	0.3016
689	0.2815
698	0.2394
707	0.2063
716	0.165
725	0.1454
734	0.1508
743	0.1486
752	0.1158
761	0.0786
770	0.0749
779	0.0894
788	0.1414
797	0.2184
806	0.3107
815	0.3767
824	0.3442
833	0.4082
842	0.5186
851	0.6055
860	0.6885
869	0.7064
878	0.6108
887	0.5553
896	0.5049
905	0.4034
914	0.4333
923	0.5323
932	0.5244
941	0.597
950	0.5412
959	0.2967
968	0.3224
977	0.4236
986	0.66
995	0.6463
1004	0.4683
1013	0.3652
1022	0.3308
1031	0.4165
1040	0.6079
1049	0.5237
1058	0.3368
1067	0.2402
1076	0.1963
1085	0.3419
1094	0.3995
1103	0.4811
1112	0.2952
1121	0.112
1130	0.1967
1139	0.2883
1148	0.1314
1157	0.0508
1166	0.0282
1175	0.1783
1184	0.3716
1193	0.4331
1202	0.4131
1211	0.6526
1220	0.7296
1229	0.7418
1238	0.6599
1247	0.6114
1256	0.2743
1265	0.3934
1274	0.4005
1283	0.1943
1292	0.3097
1301	0.2994
1310	0.2256
1319	0.2187
1328	0.3075
1337	0.3813
1346	0.3616
1355	0.3062
1364	0.1628
1373	0.045
1382	0.0263
1391	0.3423
1400	0.4826
1409	0.562
1418	0.5588
1427	0.3715
1436	0.2392
1445	0.1446
1454	0.0528
1463	0.0574
1472	0.167
1481	0.4094
1490	0.4694
1499	0.5944
1508	0.6939
1517	0.7648
1526	0.7865
1535	0.7927
1544	0.7943
1553	0.7938
1562	0.8001
1571	0.797
1580	0.8104
1589	0.8118
1598	0.8067
1607	0.798
1616	0.796
1625	0.7821
1634	0.7636
1643	0.7518
1652	0.7509
1661	0.7542
1670	0.7674
1679	0.7868
1688	0.8099
1697	0.8295
1706	0.8446
1715	0.8519
1724	0.8559
1733	0.8609
1742	0.8745
1751	0.8869
1760	0.8928
1769	0.8944
1778	0.8951
1787	0.8985
1796	0.9017
1805	0.9024
1814	0.9039
1823	0.9045
1832	0.9052
1841	0.9061
1850	0.9057
1859	0.905
1868	0.9046
1877	0.9042
1886	0.9039
1895	0.9046
1904	0.9083
1913	0.9099
1922	0.905
1931	0.9053
1940	0.9094
1949	0.9148
1958	0.917
1967	0.9119
1976	0.9091
1985	0.9105
1994	0.9141
2003	0.913
2012	0.9141
2021	0.9153
2030	0.9166
2039	0.9178
2048	0.9173
2057	0.916
2066	0.9134
2075	0.9115
2084	0.9102
2093	0.9089
2102	0.9077
2111	0.9067
2120	0.906
2129	0.9052
2138	0.9042
2147	0.9032
2156	0.9019
2165	0.9001
2174	0.8984
2183	0.8965
2192	0.8947
2201	0.8928
2210	0.8916
2219	0.8903
2228	0.8898
2237	0.8896
2246	0.8899
2255	0.8907
2264	0.8922
2273	0.894
2282	0.892
2291	0.8827
2300	0.875
2309	0.8683
2318	0.8627
2327	0.86
2336	0.859
2345	0.8601
2354	0.8652
2363	0.8718
2372	0.8727
2381	0.8686
2390	0.8622
2399	0.8567
2408	0.8561
2417	0.8567
2426	0.8604
2435	0.8637
2444	0.8649
2453	0.863
2462	0.8592
2471	0.8526
2480	0.8456
2489	0.8394
2498	0.8357
2507	0.8309
2516	0.8137
2525	0.7859
2534	0.7556
2543	0.7253
2552	0.6954
2561	0.6657
2570	0.6361
2579	0.6068
2588	0.5782
2597	0.5729
2606	0.5872
2615	0.6272
2624	0.6527
2633	0.6547
2642	0.6512
2651	0.6312
2660	0.6074
2669	0.5616
2678	0.5337
2687	0.507
2696	0.4805
2705	0.4542
2714	0.4348
2723	0.4323
2732	0.4292
2741	0.377
2750	0.3053
2759	0.2341
2768	0.1634
2777	0.1241
2786	0.0921
2795	0.0712
2804	0.068
2813	0.0713
2822	0.0937
2831	0.1148
2840	0.1147
2849	0.108
2858	0.0765
2867	0.0539
2876	0.039
2885	0.0344
2894	0.0326
2903	0.0314
2912	0.0305
2921	0.0297
2930	0.0296
2939	0.0295
2948	0.0279
2957	0.0158
2966	0.0076
2975	0.0026
2984	0.0213
2993	0.1289
3002	0.2357
3011	0.342
3020	0.4476
3029	0.5526
3038	0.6567
3047	0.7046
3056	0.7133
3065	0.716
3074	0.7166
3083	0.7152
3092	0.7121
3101	0.7068
3110	0.6986
3119	0.6901
3128	0.6811
3137	0.6707
3146	0.6598
3155	0.6515
3164	0.6432
3173	0.6351
3182	0.6278
3191	0.6218
3200	0.6166
3209	0.6138
3218	0.613
3227	0.6126
3236	0.6132
3245	0.6138
3254	0.6145
3263	0.6157
3272	0.6169
3281	0.6181
3290	0.6194
3299	0.6212
3308	0.6229
3317	0.6252
3326	0.6274
3335	0.6297
3344	0.632
3353	0.6342
3362	0.6365
3371	0.6387
3380	0.6409
3389	0.645
3398	0.6506
3407	0.6563
3416	0.6617
3425	0.6674
3434	0.6734
3443	0.6796
3452	0.6857
3461	0.6918
3470	0.6983
3479	0.7049
3488	0.7114
3497	0.7179
3506	0.7244
3515	0.7317
3524	0.7395
3533	0.7472
3542	0.7544
3551	0.7617
3560	0.7705
3569	0.7894
3578	0.8105
3587	0.8233
3596	0.8335
3605	0.8439
3614	0.8543
3623	0.864
3632	0.873
3641	0.8809
3650	0.8869
3659	0.8919
3668	0.8956
3677	0.899
3686	0.9022
3695	0.905
3704	0.9078
3713	0.9112
3722	0.915
3731	0.9189
3740	0.9241
3749	0.9306
3758	0.9382
3767	0.9429
3776	0.9442
3785	0.9428
3794	0.9404
3803	0.938
3812	0.9357
3821	0.9331
3830	0.9306
3839	0.9291
3848	0.9288
3857	0.9297
3866	0.931
3875	0.9321
3884	0.9326
3893	0.9323
3902	0.9309
3911	0.927
3920	0.9224
3929	0.9189
3938	0.9169
3947	0.9164
3956	0.9161
3965	0.9161
3974	0.9162
3983	0.9162
3992	0.9159
