Infrared Spectrum: Ethane, 1-bromo-2,2-dipropoxy-,
Formula: C8 H17 Br O2
CAS: 61365-93-3
State: LIQUID (NEAT)
Class: COBLENTZ III
Instrument: BAIRD (GRATING)
Instrument parameters: NaCl PRISM
Path length: 0.0025 CM
Resolution: 2
Origin: WYANDOTTE CHEMICALS CORP.
1/CM	TRANSMITTANCE
626	0.6357
635	0.6408
644	0.6846
653	0.6908
662	0.6423
671	0.461
680	0.3142
689	0.4098
698	0.5606
707	0.6502
716	0.6266
725	0.6276
734	0.7183
743	0.7109
752	0.6376
761	0.6177
770	0.723
779	0.7584
788	0.7743
797	0.7637
806	0.7643
815	0.7324
824	0.689
833	0.625
842	0.6815
851	0.7361
860	0.7135
869	0.6468
878	0.6091
887	0.5988
896	0.4938
905	0.5113
914	0.5358
923	0.5709
932	0.5506
941	0.5342
950	0.3802
959	0.3314
968	0.2245
977	0.1335
986	0.1737
995	0.198
1004	0.1151
1013	0.0105
1022	0.0076
1031	0.0065
1040	0.005
1049	0.0061
1058	0.006
1067	0.0067
1076	0.0086
1085	0.013
1094	0.0252
1103	0.0321
1112	0.0162
1121	0.0113
1130	0.0117
1139	0.0161
1148	0.0227
1157	0.0548
1166	0.1221
1175	0.2556
1184	0.2888
1193	0.1539
1202	0.1776
1211	0.2986
1220	0.3822
1229	0.4002
1238	0.5249
1247	0.5366
1256	0.4431
1265	0.4805
1274	0.547
1283	0.5214
1292	0.5053
1301	0.5788
1310	0.5531
1319	0.6317
1328	0.6132
1337	0.3304
1346	0.2299
1355	0.2168
1364	0.1903
1373	0.33
1382	0.3265
1391	0.3246
1400	0.3998
1409	0.4908
1418	0.497
1427	0.3953
1436	0.2386
1445	0.2581
1454	0.3391
1463	0.288
1472	0.1844
1481	0.1583
1490	0.2323
1499	0.5117
1508	0.687
1517	0.7173
1526	0.7446
1535	0.7544
1544	0.7629
1553	0.7753
1562	0.7878
1571	0.7982
1580	0.809
1589	0.8145
1598	0.8149
1607	0.812
1616	0.8093
1625	0.8108
1634	0.8129
1643	0.804
1652	0.7974
1661	0.8041
1670	0.8131
1679	0.8229
1688	0.8321
1697	0.8418
1706	0.8509
1715	0.8561
1724	0.8573
1733	0.8569
1742	0.8572
1751	0.8575
1760	0.8578
1769	0.8591
1778	0.864
1787	0.8676
1796	0.868
1805	0.8683
1814	0.8686
1823	0.8681
1832	0.8675
1841	0.8662
1850	0.8645
1859	0.8628
1868	0.861
1877	0.8593
1886	0.858
1895	0.8566
1904	0.8548
1913	0.8517
1922	0.8466
1931	0.8375
1940	0.8348
1949	0.8347
1958	0.8355
1967	0.8364
1976	0.8408
1985	0.8548
1994	0.8559
2003	0.8451
2012	0.8357
2021	0.8414
2030	0.8476
2039	0.8516
2048	0.8542
2057	0.8557
2066	0.8574
2075	0.8596
2084	0.8635
2093	0.867
2102	0.8674
2111	0.8655
2120	0.8673
2129	0.8814
2138	0.8982
2147	0.8833
2156	0.8645
2165	0.8625
2174	0.8661
2183	0.8678
2192	0.8683
2201	0.8678
2210	0.8672
2219	0.8678
2228	0.8693
2237	0.8715
2246	0.8737
2255	0.876
2264	0.8786
2273	0.8816
2282	0.8864
2291	0.8887
2300	0.8838
2309	0.8765
2318	0.8737
2327	0.8765
2336	0.8802
2345	0.885
2354	0.8854
2363	0.8759
2372	0.8694
2381	0.8698
2390	0.8712
2399	0.8721
2408	0.8723
2417	0.8722
2426	0.8725
2435	0.8732
2444	0.8742
2453	0.8768
2462	0.8797
2471	0.8827
2480	0.8857
2489	0.8891
2498	0.8929
2507	0.8931
2516	0.8909
2525	0.8885
2534	0.8846
2543	0.8805
2552	0.8763
2561	0.8721
2570	0.8688
2579	0.8677
2588	0.868
2597	0.8646
2606	0.8555
2615	0.8395
2624	0.8326
2633	0.8281
2642	0.8243
2651	0.822
2660	0.8198
2669	0.8177
2678	0.8162
2687	0.8153
2696	0.7997
2705	0.7753
2714	0.7509
2723	0.7268
2732	0.7103
2741	0.7044
2750	0.7
2759	0.6826
2768	0.6586
2777	0.6384
2786	0.6221
2795	0.6105
2804	0.6027
2813	0.598
2822	0.5914
2831	0.4987
2840	0.383
2849	0.2681
2858	0.0963
2867	0.07
2876	0.044
2885	0.0247
2894	0.0186
2903	0.0204
2912	0.0288
2921	0.0333
2930	0.0322
2939	0.0276
2948	0.0189
2957	0.0096
2966	0.0051
2975	0.0027
2984	0.0023
2993	0.0013
3002	0.1103
3011	0.25
3020	0.3889
3029	0.527
3038	0.6025
3047	0.6275
3056	0.6828
3065	0.7147
3074	0.7501
3083	0.8107
3092	0.8238
3101	0.8334
3110	0.8389
3119	0.8439
3128	0.8486
3137	0.8516
3146	0.854
3155	0.8556
3164	0.8566
3173	0.8577
3182	0.8589
3191	0.8602
3200	0.8623
3209	0.8673
3218	0.8743
3227	0.8809
3236	0.8866
3245	0.8934
3254	0.8972
3263	0.8994
3272	0.9
3281	0.9005
3290	0.9009
3299	0.9011
3308	0.9026
3317	0.9074
3326	0.9144
3335	0.918
3344	0.9208
3353	0.9232
3362	0.9249
3371	0.9264
3380	0.9277
3389	0.9287
3398	0.9297
3407	0.9307
3416	0.9313
3425	0.9318
3434	0.9322
3443	0.9326
3452	0.9328
3461	0.9329
3470	0.9331
3479	0.9332
3488	0.9331
3497	0.9325
3506	0.9316
3515	0.9303
3524	0.9289
3533	0.9271
3542	0.9252
3551	0.9269
3560	0.9295
3569	0.9338
3578	0.9383
3587	0.9453
3596	0.9499
3605	0.9522
3614	0.9533
3623	0.9528
3632	0.9522
3641	0.9514
3650	0.9504
3659	0.9494
3668	0.9482
3677	0.9467
3686	0.9452
3695	0.9437
3704	0.9423
3713	0.941
3722	0.9399
3731	0.9395
3740	0.939
3749	0.9387
3758	0.9389
3767	0.9396
3776	0.9403
3785	0.9409
3794	0.941
3803	0.9411
3812	0.9413
3821	0.9408
3830	0.9397
3839	0.9386
3848	0.9374
3857	0.9363
3866	0.9351
3875	0.9339
3884	0.9328
3893	0.9322
3902	0.9317
3911	0.9312
3920	0.9308
3929	0.9309
3938	0.9313
3947	0.9317
3956	0.9322
3965	0.9328
3974	0.9342
3983	0.9354
3992	0.9358
