Infrared Spectrum: 3-Acetylbenzonitrile
Formula: C 9 H 7 N O
CAS: 6136-68-1
State: gas
Origin: EPA-IR VAPOR PHASE LIBRARY
1/CM	ABSORBANCE
549.9	0.02689
559.547	0.01854
569.193	0.0257
578.84	0.04123
588.486	0.04774
598.133	0.0545
607.779	0.04304
617.426	0.01439
627.072	0.00636
636.719	0.00629
646.365	0.00698
656.012	0.01015
665.658	0.02432
675.305	0.05675
684.951	0.10525
694.598	0.07
704.245	0.02414
713.891	0.01077
723.538	0.00736
733.184	0.00607
742.831	0.00603
752.477	0.00645
762.124	0.00682
771.77	0.01233
781.417	0.03587
791.063	0.08466
800.71	0.09522
810.356	0.04936
820.003	0.01801
829.649	0.01311
839.296	0.0165
848.943	0.0124
858.589	0.00752
868.236	0.00527
877.882	0.00918
887.529	0.01881
897.175	0.02808
906.822	0.02264
916.468	0.02082
926.115	0.02112
935.761	0.02008
945.408	0.02746
955.054	0.03538
964.701	0.03466
974.347	0.02431
983.994	0.01348
993.64	0.01024
1003.29	0.00959
1012.93	0.00991
1022.58	0.01043
1032.23	0.00967
1041.87	0.00929
1051.52	0.0098
1061.17	0.01042
1070.81	0.01487
1080.46	0.02394
1090.11	0.02283
1099.75	0.01465
1109.4	0.01085
1119.05	0.00887
1128.69	0.00921
1138.34	0.01265
1147.99	0.02251
1157.63	0.04832
1167.28	0.11717
1176.92	0.15294
1186.57	0.08984
1196.22	0.03187
1205.86	0.02158
1215.51	0.02115
1225.16	0.02593
1234.8	0.04707
1244.45	0.11402
1254.1	0.23828
1263.74	0.33402
1273.39	0.27269
1283.04	0.14697
1292.68	0.07399
1302.33	0.03001
1311.98	0.02129
1321.62	0.01972
1331.27	0.02014
1340.92	0.02967
1350.56	0.06971
1360.21	0.13061
1369.86	0.11222
1379.5	0.0472
1389.15	0.02726
1398.79	0.02782
1408.44	0.03702
1418.09	0.06108
1427.73	0.07354
1437.38	0.04709
1447.03	0.02478
1456.67	0.01897
1466.32	0.0205
1475.97	0.02773
1485.61	0.0236
1495.26	0.01271
1504.91	0.00939
1514.55	0.00838
1524.2	0.00826
1533.85	0.00912
1543.49	0.01119
1553.14	0.01382
1562.79	0.01745
1572.43	0.02679
1582.08	0.03225
1591.73	0.02675
1601.37	0.0232
1611.02	0.01728
1620.67	0.01169
1630.31	0.01028
1639.96	0.01076
1649.6	0.01297
1659.25	0.02073
1668.9	0.03507
1678.54	0.04367
1688.19	0.06009
1697.84	0.16292
1707.48	0.41685
1717.13	0.4096
1726.78	0.12945
1736.42	0.04752
1746.07	0.0388
1755.72	0.03455
1765.36	0.01964
1775.01	0.01149
1784.66	0.01015
1794.3	0.00869
1803.95	0.00698
1813.6	0.00671
1823.24	0.00748
1832.89	0.00798
1842.54	0.00745
1852.18	0.00659
1861.83	0.00655
1871.47	0.00627
1881.12	0.00617
1890.77	0.00733
1900.41	0.00755
1910.06	0.00715
1919.71	0.00647
1929.35	0.00503
1939	0.00511
1948.65	0.00637
1958.29	0.00692
1967.94	0.00626
1977.59	0.00477
1987.23	0.0032895
1996.88	0.002698
2006.53	0.002551
2016.17	0.002483
2025.82	0.002488
2035.47	0.002566
2045.11	0.002586
2054.76	0.002443
2064.41	0.002217
2074.05	0.002151
2083.7	0.002123
2093.35	0.002044
2102.99	0.002134
2112.64	0.002283
2122.28	0.002169
2131.93	0.001914
2141.58	0.001859
2151.22	0.00182
2160.87	0.00181
2170.52	0.001929
2180.16	0.002148
2189.81	0.002327
2199.46	0.002485
2209.1	0.0031285
2218.75	0.00622
2228.4	0.01686
2238.04	0.02119
2247.69	0.0092
2257.34	0.0032717
2266.98	0.0028345
2276.63	0.002595
2286.28	0.002292
2295.92	0.002126
2305.57	0.002282
2315.22	0.002559
2324.86	0.00287873
2334.51	0.0034216
2344.16	0.00414
2353.8	0.00423
2363.45	0.0033884
2373.09	0.0027813
2382.74	0.002554
2392.39	0.002342
2402.03	0.002161
2411.68	0.002082
2421.33	0.002175
2430.97	0.002402
2440.62	0.002619
2450.27	0.002479
2459.91	0.002157
2469.56	0.001855
2479.21	0.00167
2488.85	0.00156
2498.5	0.00159
2508.15	0.00179
2517.79	0.00198
2527.44	0.00211
2537.09	0.002179
2546.73	0.002119
2556.38	0.002077
2566.03	0.002051
2575.67	0.002081
2585.32	0.00219
2594.96	0.002251
2604.61	0.002104
2614.26	0.00179
2623.9	0.00163
2633.55	0.0016
2643.2	0.0017
2652.84	0.001907
2662.49	0.002041
2672.14	0.001999
2681.78	0.002072
2691.43	0.002127
2701.08	0.00196
2710.72	0.00167
2720.37	0.00136
2730.02	0.0012
2739.66	0.00127
2749.31	0.00138
2758.96	0.00149
2768.6	0.00169
2778.25	0.00179
2787.9	0.00171
2797.54	0.00148
2807.19	0.00142
2816.84	0.00159
2826.48	0.00203
2836.13	0.002752
2845.77	0.003561
2855.42	0.00426
2865.07	0.00432
2874.71	0.0038208
2884.36	0.0034319
2894.01	0.0033495
2903.65	0.0035565
2913.3	0.00468
2922.95	0.00762
2932.59	0.01092
2942.24	0.01032
2951.89	0.00809
2961.53	0.00817
2971.18	0.01027
2980.83	0.0101
2990.47	0.00841
3000.12	0.00939
3009.77	0.01497
3019.41	0.01763
3029.06	0.01348
3038.71	0.01055
3048.35	0.00986
3058	0.0118
3067.64	0.02328
3077.29	0.03136
3086.94	0.02521
3096.58	0.01567
3106.23	0.01147
3115.88	0.00637
3125.52	0.0034172
3135.17	0.0024
3144.82	0.001942
3154.46	0.00162
3164.11	0.00143
3173.76	0.00139
3183.4	0.00145
3193.05	0.00117
3202.7	0.00072
3212.34	0.00048
3221.99	0.00039
3231.64	0.00038
3241.28	0.00025
3250.93	0.00011
3260.58	9e-05
3270.22	0.00017
3279.87	0.00021
3289.52	0.00031
3299.16	0.00045
3308.81	0.0005
3318.45	0.00062
3328.1	0.00061
3337.75	0.00066
3347.39	0.00079
3357.04	0.00116
3366.69	0.00171
3376.33	0.00244
3385.98	0.00435
3395.63	0.008
3405.27	0.01067
3414.92	0.00804
3424.57	0.00404
3434.21	0.00227
3443.86	0.002001
3453.51	0.00164
3463.15	0.00121
3472.8	0.00102
3482.45	0.00113
3492.09	0.00126
3501.74	0.00152
3511.39	0.00133
3521.03	0.00136
3530.68	0.00129
3540.33	0.00121
3549.97	0.00129
3559.62	0.00128
3569.26	0.00142
3578.91	0.00144
3588.56	0.00183
3598.2	0.00167
3607.85	0.00182
3617.5	0.00164
3627.14	0.00171
3636.79	0.00145
3646.44	0.00167
3656.08	0.00156
3665.73	0.0014
3675.38	0.00146
3685.02	0.00134
3694.67	0.00136
3704.32	0.00154
3713.96	0.00184
3723.61	0.001994
3733.26	0.002011
3742.9	0.001922
3752.55	0.00184
3762.2	0.00182
3771.84	0.00182
3781.49	0.00185
3791.13	0.001887
3800.78	0.00179
3810.43	0.00171
3820.07	0.001907
3829.72	0.001934
3839.37	0.002082
3849.01	0.00175
3858.66	0.00165
3868.31	0.00183
3877.95	0.00174
3887.6	0.00183
3897.25	0.001859
3906.89	0.001881
3916.54	0.001968
3926.19	0.001931
3935.83	0.001876
3945.48	0.00182
3955.13	0.0018
3964.77	0.00172
3974.42	0.00179
3984.07	0.00172
3993.71	0.00179
