Infrared Spectrum: 4-Methyl-3-heptanone
Formula: C 8 H 16 O
CAS: 6137-11-7
State: gas
Instrument: HP-GC/MS/IRD
Origin: NIST Mass Spectrometry Data Center
1/CM	ABSORBANCE
550	0.0001715
562	0.0002401
574	0.0003038
586	0.0003528
598	0.0001519
610	0.0002891
622	0.0002744
634	0.000147
646	4.9e-06
658	0.000147
670	7.35e-05
682	0.0001225
694	0.000147
706	0.0002205
718	0.0003479
730	0.0006223
742	0.0007546
754	0.0005978
766	0.0006076
778	0.0006419
790	0.000637
802	0.0007203
814	0.0005684
826	0.0004998
838	0.0004998
850	0.0005292
862	0.0005782
874	0.0007007
886	0.0007497
898	0.0009653
910	0.0013524
922	0.0016023
934	0.002401
946	0.005145
958	0.0079282
970	0.0076636
982	0.0048069
994	0.0028322
1006	0.003332
1018	0.0046452
1030	0.0047971
1042	0.003528
1054	0.0027391
1066	0.0026901
1078	0.0037632
1090	0.0065905
1102	0.0091189
1114	0.0075852
1126	0.0048118
1138	0.003528
1150	0.0034398
1162	0.0040131
1174	0.0039641
1186	0.0029204
1198	0.0017689
1210	0.0012152
1222	0.0014357
1234	0.0017738
1246	0.0017101
1258	0.0017199
1270	0.0016905
1282	0.0015778
1294	0.0018963
1306	0.0026264
1318	0.0036456
1330	0.005096
1342	0.0065562
1354	0.0066297
1366	0.0062671
1378	0.007448
1390	0.0068159
1402	0.0040376
1414	0.0037387
1426	0.0043071
1438	0.0053802
1450	0.0084035
1462	0.0115052
1474	0.0089425
1486	0.004116
1498	0.0020041
1510	0.0013132
1522	0.0009898
1534	0.0007693
1546	0.0006664
1558	0.0005684
1570	0.0005194
1582	0.0005635
1594	0.000588
1606	0.0006713
1618	0.0007448
1630	0.0007693
1642	0.0008918
1654	0.001176
1666	0.0017542
1678	0.0029939
1690	0.0056105
1702	0.0123921
1714	0.0270529
1726	0.0352261
1738	0.0190316
1750	0.0061887
1762	0.0026215
1774	0.0012887
1786	0.0007742
1798	0.0004802
1810	0.0003332
1822	0.0002597
1834	0.0001911
1846	0.0001617
1858	0.0001029
1870	0.0001274
1882	9.8e-05
1894	0.0001127
1906	7.35e-05
1918	0.0001029
1930	6.37e-05
1942	7.84e-05
1954	7.35e-05
1966	6.86e-05
1978	6.37e-05
1990	6.37e-05
2002	3.43e-05
2014	5.88e-05
2026	4.41e-05
2038	5.88e-05
2050	6.86e-05
2062	4.9e-05
2074	3.92e-05
2086	2.94e-05
2098	9.8e-06
2110	3.43e-05
2122	4.9e-05
2134	6.86e-05
2146	6.86e-05
2158	7.35e-05
2170	4.9e-06
2182	2.45e-05
2194	5.88e-05
2206	4.41e-05
2218	6.86e-05
2230	6.37e-05
2242	6.37e-05
2254	9.8e-05
2266	0.0001127
2278	7.84e-05
2290	7.84e-05
2302	0.0001323
2314	0.0001274
2326	0.0001862
2338	0.0002058
2350	0.0002401
2362	0.0002107
2374	0.0002254
2386	0.0002205
2398	0.000196
2410	0.0001813
2422	0.0001764
2434	0.0001862
2446	0.000147
2458	0.0001764
2470	0.0001519
2482	0.0001372
2494	0.0002107
2506	0.0001813
2518	0.0001715
2530	0.000147
2542	0.0001666
2554	0.0002009
2566	0.0002891
2578	0.0002695
2590	0.0002793
2602	0.0002891
2614	0.0003136
2626	0.0003087
2638	0.0003528
2650	0.0004067
2662	0.0004214
2674	0.000539
2686	0.0005439
2698	0.0005635
2710	0.0006419
2722	0.0008183
2734	0.0009898
2746	0.0011907
2758	0.0011662
2770	0.0011466
2782	0.0013426
2794	0.0017052
2806	0.0021707
2818	0.0028322
2830	0.0036113
2842	0.0050176
2854	0.0080997
2866	0.0129703
2878	0.0199136
2890	0.0231427
2902	0.0222117
2914	0.0251027
2926	0.0313747
2938	0.0393617
2950	0.0396067
2962	0.0429779
2974	0.048804
2986	0.0328104
2998	0.0155771
3010	0.0078008
3022	0.0050078
3034	0.0036407
3046	0.0027293
3058	0.0020923
3070	0.0017395
3082	0.0014651
3094	0.0013818
3106	0.0012593
3118	0.0012397
3130	0.0010976
3142	0.0010388
3154	0.0009604
3166	0.0008967
3178	0.0007791
3190	0.0007889
3202	0.0006076
3214	0.0005145
3226	0.0003185
3238	0.0002842
3250	0.000245
3262	0.0002597
3274	0.0002744
3286	0.0002156
3298	0.0002009
3310	0.0001323
3322	0.000196
3334	0.0001372
3346	0.0001813
3358	0.000245
3370	0.0002205
3382	0.0003332
3394	0.0004165
3406	0.0005194
3418	0.0006566
3430	0.0008183
3442	0.0005831
3454	0.0003675
3466	0.0002303
3478	0.0001764
3490	0.0001764
3502	0.0001127
3514	0.0001764
3526	5.88e-05
3538	0.0001862
3550	5.88e-05
3562	8.33e-05
3574	2.94e-05
3586	6.86e-05
3598	0.0001421
3610	0.0001764
3622	0.0001029
3634	0.0002205
3646	0.0001764
3658	0.0002058
3670	0.0001666
3682	0.0001911
3694	0.0002009
3706	0.0002058
3718	0.0001715
3730	0.0001519
3742	0.000245
3754	0.0002842
3766	0.0001764
3778	0.0001813
3790	0.0002303
3802	0.0002695
3814	0.000294
3826	0.0002842
3838	0.0002401
