Infrared Spectrum: PREGN-4-ENE-3,20-DIONE,11Beta,17Alpha,21-TRIHYDROXY-,21 ACETATE
Formula: C23 H32 O6
CAS: 61376-87-2
State: SOLID (KBr DISC)
Class: COBLENTZ III
Instrument: BECKMAN IR-7
Sampling: TRANSMISSION
Resolution: 4
Origin: THE WORCESTER FOUNDATION FOR EXPERIMENTAL BIOLOGY, Neal L. McNiven
1/CM	TRANSMITTANCE
600	0.582
608.741	0.582
617.482	0.643
626.223	0.708
634.964	0.748
643.704	0.771
652.445	0.833
661.186	0.861
669.927	0.848
678.668	0.851
687.409	0.855
696.15	0.865
704.891	0.878
713.632	0.894
722.373	0.917
731.113	0.923
739.854	0.876
748.595	0.859
757.336	0.919
766.077	0.923
774.818	0.889
783.559	0.793
792.3	0.851
801.041	0.901
809.782	0.941
818.522	0.954
827.263	0.949
836.004	0.896
844.745	0.793
853.486	0.891
862.227	0.836
870.968	0.848
879.709	0.7
888.45	0.83
897.19	0.769
905.931	0.794
914.672	0.828
923.413	0.864
932.154	0.846
940.895	0.809
949.636	0.781
958.377	0.893
967.118	0.836
975.859	0.853
984.599	0.7061
993.34	0.798
1002.08	0.805
1010.82	0.767
1019.56	0.729
1028.3	0.677
1037.04	0.656
1045.79	0.485
1054.53	0.453
1063.27	0.727
1072.01	0.73
1080.75	0.726
1089.49	0.578
1098.23	0.771
1106.97	0.693
1115.71	0.5649
1124.45	0.665
1133.19	0.594
1141.94	0.782
1150.68	0.755
1159.42	0.6941
1168.16	0.692
1176.9	0.718
1185.64	0.68
1194.38	0.551
1203.12	0.7209
1211.86	0.689
1220.6	0.564
1229.34	0.2371
1238.09	0.2809
1246.83	0.528
1255.57	0.628
1264.31	0.497
1273.05	0.389
1281.79	0.567
1290.53	0.705
1299.27	0.736
1308.01	0.781
1316.75	0.782
1325.49	0.647
1334.24	0.6959
1342.98	0.675
1351.72	0.643
1360.46	0.616
1369.2	0.485
1377.94	0.455
1386.68	0.575
1395.42	0.697
1404.16	0.541
1412.9	0.605
1421.64	0.64
1430.39	0.612
1439.13	0.686
1447.87	0.677
1456.61	0.62
1465.35	0.794
1474.09	0.827
1482.83	0.854
1491.57	0.902
1500.31	0.913
1509.05	0.919
1517.79	0.924
1526.54	0.922
1535.28	0.92
1544.02	0.918
1552.76	0.913
1561.5	0.908
1570.24	0.901
1578.98	0.872
1587.72	0.812
1596.46	0.789
1605.2	0.628
1613.94	0.403
1622.68	0.159
1631.43	0.144
1640.17	0.279
1648.91	0.373
1657.65	0.397
1666.39	0.506
1675.13	0.642
1683.87	0.734
1692.61	0.762
1701.35	0.732
1710.09	0.615
1718.83	0.2171
1727.58	0.36
1736.32	0.447
1745.06	0.214
1753.8	0.5589
1762.54	0.782
1771.28	0.87
1780.02	0.899
1788.76	0.919
1797.5	0.926
1806.24	0.931
1814.98	0.936
1823.73	0.939
1832.47	0.942
1841.21	0.946
1849.95	0.949
1858.69	0.951
1867.43	0.952
1876.17	0.952
1884.91	0.952
1893.65	0.952
1902.39	0.952
1911.13	0.952
1919.88	0.952
1928.62	0.952
1937.36	0.952
1946.1	0.952
1954.84	0.951
1963.58	0.952
1972.32	0.952
1981.06	0.952
1989.8	0.952
1998.54	0.951
2007.28	0.951
2016.03	0.951
2024.77	0.951
2033.51	0.951
2042.25	0.951
2050.99	0.95
2059.73	0.95
2068.47	0.95
2077.21	0.95
2085.95	0.9507
2094.69	0.951
2103.43	0.951
2112.18	0.951
2120.92	0.951
2129.66	0.951
2138.4	0.951
2147.14	0.9501
2155.88	0.95
2164.62	0.95
2173.36	0.95
2182.1	0.949
2190.84	0.948
2199.58	0.947
2208.32	0.946
2217.07	0.946
2225.81	0.945
2234.55	0.944
2243.29	0.944
2252.03	0.944
2260.77	0.943
2269.51	0.9429
2278.25	0.942
2286.99	0.941
2295.73	0.941
2304.47	0.9408
2313.22	0.9378
2321.96	0.935
2330.7	0.933
2339.44	0.933
2348.18	0.9327
2356.92	0.9316
2365.66	0.931
2374.4	0.931
2383.14	0.931
2391.88	0.931
2400.62	0.931
2409.37	0.9295
2418.11	0.928
2426.85	0.9265
2435.59	0.925
2444.33	0.9244
2453.07	0.9234
2461.81	0.9224
2470.55	0.9204
2479.29	0.9194
2488.03	0.9173
2496.77	0.9153
2505.52	0.9143
2514.26	0.9133
2523	0.912
2531.74	0.912
2540.48	0.911
2549.22	0.91
2557.96	0.909
2566.7	0.909
2575.44	0.908
2584.18	0.907
2592.92	0.907
2601.67	0.9021
2610.41	0.8971
2619.15	0.895
2627.89	0.893
2636.63	0.893
2645.37	0.892
2654.11	0.891
2662.85	0.89
2671.59	0.8889
2680.33	0.8879
2689.07	0.8847
2697.82	0.8818
2706.56	0.8786
2715.3	0.8728
2724.04	0.8675
2732.78	0.8637
2741.52	0.862
2750.26	0.8633
2759	0.866
2767.74	0.869
2776.48	0.87
2785.22	0.8676
2793.96	0.8584
2802.71	0.8497
2811.45	0.8402
2820.19	0.8282
2828.93	0.7976
2837.67	0.7644
2846.41	0.7113
2855.15	0.6458
2863.89	0.594
2872.63	0.639
2881.37	0.6329
2890.11	0.5869
2898.86	0.5477
2907.6	0.5213
2916.34	0.5015
2925.08	0.4356
2933.82	0.444
2942.56	0.5027
2951.3	0.5664
2960.04	0.6217
2968.78	0.6538
2977.52	0.6631
2986.26	0.6928
2995.01	0.7258
3003.75	0.7534
3012.49	0.7629
3021.23	0.7727
3029.97	0.8048
3038.71	0.821
3047.45	0.835
3056.19	0.835
3064.93	0.836
3073.67	0.8361
3082.41	0.8359
3091.16	0.832
3099.9	0.8288
3108.64	0.827
3117.38	0.8246
3126.12	0.8168
3134.86	0.814
3143.6	0.8117
3152.34	0.8079
3161.08	0.7987
3169.82	0.7957
3178.56	0.7897
3187.31	0.7839
3196.05	0.7759
3204.79	0.7644
3213.53	0.7499
3222.27	0.7323
3231.01	0.7157
3239.75	0.7001
3248.49	0.6895
3257.23	0.6779
3265.97	0.6603
3274.71	0.6367
3283.46	0.6035
3292.2	0.5687
3300.94	0.5318
3309.68	0.4945
3318.42	0.4426
3327.16	0.3916
3335.9	0.3653
3344.64	0.3702
3353.38	0.3928
3362.12	0.4175
3370.86	0.4238
3379.61	0.4258
3388.35	0.4164
3397.09	0.3886
3405.83	0.3497
3414.57	0.3084
3423.31	0.268
3432.05	0.2834
3440.79	0.3393
3449.53	0.4029
3458.27	0.4451
3467.01	0.4762
3475.75	0.5043
3484.5	0.5267
3493.24	0.5438
3501.98	0.5674
3510.72	0.583
3519.46	0.6082
3528.2	0.6302
3536.94	0.6504
3545.68	0.6698
3554.42	0.6907
3563.16	0.7141
3571.9	0.7251
3580.65	0.7398
3589.39	0.7583
3598.13	0.7781
3606.87	0.7921
3615.61	0.8014
3624.35	0.8077
3633.09	0.822
3641.83	0.8319
3650.57	0.8365
3659.31	0.839
3668.05	0.844
3676.8	0.846
3685.54	0.847
3694.28	0.848
3703.02	0.849
3711.76	0.8506
3720.5	0.8563
3729.24	0.86
3737.98	0.8617
3746.72	0.862
3755.46	0.8603
3764.2	0.859
3772.95	0.859
3781.69	0.8572
3790.43	0.8542
3799.17	0.8522
3807.91	0.851
3816.65	0.851
3825.39	0.851
3834.13	0.851
3842.87	0.851
3851.61	0.85
3860.35	0.848
3869.1	0.846
3877.84	0.846
3886.58	0.846
3895.32	0.846
3904.06	0.8449
3912.8	0.843
3921.54	0.843
3930.28	0.842
3939.02	0.8418
3947.76	0.8408
3956.5	0.84
3965.25	0.8398
3973.99	0.8387
3982.73	0.837
3991.47	0.837
4000.21	0.838
4008.95	0.838
