Infrared Spectrum: 4-Methyl-2-heptanone
Formula: C 8 H 16 O
CAS: 6137-06-0
State: gas
Instrument: HP-GC/MS/IRD
Origin: NIST Mass Spectrometry Data Center
1/CM	ABSORBANCE
550	0.0011655
562	0.0005517
574	0.0006111
586	0.0008487
598	0.0007155
610	0.0005706
622	0.0003222
634	0.0003096
646	0.0002736
658	0.0002241
670	0.000216
682	0.0001746
694	0.0001728
706	0.0001791
718	0.0001791
730	0.0002178
742	0.0003411
754	0.0002556
766	0.000153
778	0.0002034
790	0.0002124
802	0.0001881
814	0.0002205
826	9.81e-05
838	0.0001458
850	0.0001773
862	0.0001782
874	0.0001584
886	0.0001863
898	0.00027
910	0.0001692
922	0.0003042
934	0.0005049
946	0.0006705
958	0.0005643
970	0.0004293
982	0.0003654
994	0.0002673
1006	0.0002718
1018	0.0002637
1030	0.0002376
1042	0.0002592
1054	0.0001881
1066	0.0002322
1078	0.0002601
1090	0.0003276
1102	0.0005247
1114	0.0007056
1126	0.0008721
1138	0.0012825
1150	0.0021438
1162	0.0027468
1174	0.0023688
1186	0.0015021
1198	0.0011844
1210	0.0010386
1222	0.0012564
1234	0.0012087
1246	0.0010341
1258	0.000945
1270	0.0009144
1282	0.0010017
1294	0.0010395
1306	0.0009495
1318	0.0009702
1330	0.0012249
1342	0.0019242
1354	0.0034047
1366	0.0036063
1378	0.0023526
1390	0.0016308
1402	0.0011907
1414	0.0011529
1426	0.0011511
1438	0.0011043
1450	0.0013113
1462	0.0015813
1474	0.0012771
1486	0.0006822
1498	0.0004275
1510	0.0003438
1522	0.0003096
1534	0.000306
1546	0.0002835
1558	0.000279
1570	0.0002286
1582	0.000234
1594	0.0002043
1606	0.0002106
1618	0.0002007
1630	0.0002133
1642	0.0002736
1654	0.000288
1666	0.0004059
1678	0.0007128
1690	0.0012132
1702	0.0021429
1714	0.0044154
1726	0.0070821
1738	0.0055872
1750	0.0024309
1762	0.0011124
1774	0.0006714
1786	0.0003627
1798	0.0002673
1810	0.0001935
1822	0.0001503
1834	0.0001476
1846	0.0001062
1858	0.0001026
1870	8.19e-05
1882	8.91e-05
1894	8.73e-05
1906	7.65e-05
1918	4.86e-05
1930	6.21e-05
1942	7.56e-05
1954	8.91e-05
1966	6.3e-05
1978	5.67e-05
1990	3.42e-05
2002	2.61e-05
2014	2.25e-05
2026	4.77e-05
2038	5.85e-05
2050	4.23e-05
2062	4.5e-05
2074	5.94e-05
2086	3.33e-05
2098	6.3e-05
2110	5.85e-05
2122	4.95e-05
2134	4.95e-05
2146	5.67e-05
2158	6.48e-05
2170	2.7e-05
2182	5.31e-05
2194	5.31e-05
2206	3.6e-05
2218	2.97e-05
2230	2.43e-05
2242	4.68e-05
2254	3.87e-05
2266	3.96e-05
2278	3.24e-05
2290	0
2302	3.6e-05
2314	5.13e-05
2326	3.33e-05
2338	2.61e-05
2350	5.04e-05
2362	3.06e-05
2374	2.7e-05
2386	3.6e-05
2398	5.22e-05
2410	5.76e-05
2422	2.52e-05
2434	4.86e-05
2446	5.31e-05
2458	2.61e-05
2470	3.51e-05
2482	5.58e-05
2494	4.77e-05
2506	3.24e-05
2518	5.31e-05
2530	5.49e-05
2542	3.87e-05
2554	5.04e-05
2566	5.31e-05
2578	5.94e-05
2590	5.67e-05
2602	5.58e-05
2614	9.9e-05
2626	4.77e-05
2638	6.39e-05
2650	5.58e-05
2662	5.94e-05
2674	0.0001026
2686	0.0001287
2698	0.0001485
2710	0.0001116
2722	0.0001539
2734	0.000216
2746	0.00018
2758	0.0001926
2770	0.0002079
2782	0.0002394
2794	0.000279
2806	0.0004356
2818	0.0004833
2830	0.0007596
2842	0.0012087
2854	0.0018954
2866	0.0027279
2878	0.0040032
2890	0.0045693
2902	0.0044865
2914	0.0052803
2926	0.0067194
2938	0.007344
2950	0.0070407
2962	0.0085302
2974	0.0080379
2986	0.0037602
2998	0.0016029
3010	0.0011934
3022	0.0008928
3034	0.0006255
3046	0.0005013
3058	0.0004212
3070	0.0003906
3082	0.0003654
3094	0.0002853
3106	0.0002664
3118	0.0002331
3130	0.0002097
3142	0.0001485
3154	0.0001296
3166	9.9e-05
3178	0.000117
3190	9.54e-05
3202	9.45e-05
3214	7.92e-05
3226	9.18e-05
3238	2.97e-05
3250	4.95e-05
3262	3.87e-05
3274	3.69e-05
3286	3.42e-05
3298	5.13e-05
3310	7.47e-05
3322	9.63e-05
3334	5.85e-05
3346	8.1e-05
3358	4.32e-05
3370	6.57e-05
3382	0.0001107
3394	6.66e-05
3406	9.18e-05
3418	0.000153
3430	0.0001944
3442	0.0002304
3454	0.0001827
3466	0.0001422
3478	0.0001116
3490	0.0001044
3502	4.14e-05
3514	7.47e-05
3526	9.9e-05
3538	9e-05
3550	7.92e-05
3562	9.72e-05
3574	9.81e-05
3586	0.0001188
3598	7.29e-05
3610	0.0001566
3622	8.46e-05
3634	0.0001395
3646	9.9e-05
3658	9.99e-05
3670	0.0001503
3682	0.0001044
3694	0.0001341
3706	0.0001593
3718	0.0001998
3730	9.27e-05
3742	5.58e-05
3754	0.0002025
3766	0.000198
3778	0.0001809
3790	0.0002385
3802	0.000135
3814	0.000216
3826	0.0001746
3838	0.0001836
