Infrared Spectrum: 3-Ethyl-2-pentanone
Formula: C 7 H 14 O
CAS: 6137-03-7
State: gas
Instrument: HP-GC/MS/IRD
Origin: NIST Mass Spectrometry Data Center
1/CM	ABSORBANCE
550	0.0003468
562	0.0002499
574	0.0003536
586	0.0006936
598	0.0006664
610	0.0004913
622	0.0002703
634	0.0001411
646	3.91e-05
658	2.38e-05
670	0
682	0.0001598
694	0.0002737
706	0.0004267
718	0.0004182
730	0.0002873
742	0.0001139
754	0.0001598
766	0.000255
778	0.000272
790	0.0001836
802	0.0001547
814	0.0002448
826	0.0003162
838	0.0002261
850	0.0002142
862	0.000357
874	0.0004607
886	0.0005185
898	0.0005695
910	0.0005576
922	0.0004267
934	0.0004216
946	0.0007701
958	0.0009418
970	0.0007327
982	0.0004301
994	0.0004029
1006	0.0004811
1018	0.0005117
1030	0.0005117
1042	0.0004692
1054	0.000408
1066	0.000391
1078	0.0005661
1090	0.0009452
1102	0.001224
1114	0.0015572
1126	0.0021811
1138	0.0024412
1150	0.002176
1162	0.0031365
1174	0.0043095
1186	0.0035819
1198	0.0021641
1210	0.0019227
1222	0.0018343
1234	0.0015776
1246	0.0016745
1258	0.0017612
1270	0.0013872
1282	0.0009197
1294	0.0008126
1306	0.0008925
1318	0.0010931
1330	0.0017425
1342	0.0034986
1354	0.0057715
1366	0.0055216
1378	0.0037332
1390	0.0028764
1402	0.0019669
1414	0.0013787
1426	0.0014722
1438	0.0018717
1450	0.0027982
1462	0.0033728
1474	0.0026027
1486	0.0013736
1498	0.0007888
1510	0.0006137
1522	0.0005355
1534	0.0005219
1546	0.0004692
1558	0.0004216
1570	0.0003995
1582	0.0003723
1594	0.0003196
1606	0.0002975
1618	0.0003281
1630	0.0003655
1642	0.0004743
1654	0.0006018
1666	0.0009537
1678	0.0015878
1690	0.0026758
1702	0.005916
1714	0.0120853
1726	0.0156366
1738	0.0087975
1750	0.0030362
1762	0.0015096
1774	0.0009452
1786	0.0005202
1798	0.0003026
1810	0.0001972
1822	0.0001462
1834	0.0001275
1846	8.16e-05
1858	7.31e-05
1870	7.31e-05
1882	6.12e-05
1894	5.61e-05
1906	8.33e-05
1918	4.76e-05
1930	5.78e-05
1942	4.59e-05
1954	3.23e-05
1966	4.42e-05
1978	3.57e-05
1990	4.08e-05
2002	1.53e-05
2014	2.38e-05
2026	2.38e-05
2038	3.06e-05
2050	4.59e-05
2062	3.4e-05
2074	4.08e-05
2086	1.19e-05
2098	1.87e-05
2110	2.38e-05
2122	3.06e-05
2134	1.53e-05
2146	8.5e-06
2158	2.38e-05
2170	1.7e-05
2182	1.19e-05
2194	3.91e-05
2206	3.57e-05
2218	3.57e-05
2230	2.38e-05
2242	4.25e-05
2254	2.21e-05
2266	2.89e-05
2278	3.4e-05
2290	2.38e-05
2302	1.87e-05
2314	4.25e-05
2326	3.57e-05
2338	4.08e-05
2350	3.91e-05
2362	2.38e-05
2374	3.06e-05
2386	4.93e-05
2398	3.06e-05
2410	4.93e-05
2422	4.42e-05
2434	2.38e-05
2446	3.06e-05
2458	1.87e-05
2470	4.59e-05
2482	4.42e-05
2494	4.59e-05
2506	1.7e-05
2518	2.55e-05
2530	5.1e-06
2542	1.02e-05
2554	4.59e-05
2566	3.74e-05
2578	8.16e-05
2590	7.48e-05
2602	5.27e-05
2614	6.97e-05
2626	7.99e-05
2638	8.33e-05
2650	0.0001088
2662	0.0001258
2674	0.0001496
2686	0.0001275
2698	0.0001479
2710	0.0001768
2722	0.0002125
2734	0.000272
2746	0.0003179
2758	0.0003825
2770	0.0003927
2782	0.0004182
2794	0.0005032
2806	0.000595
2818	0.0006851
2830	0.0009044
2842	0.0012835
2854	0.0021777
2866	0.0041837
2878	0.0071298
2890	0.0079764
2902	0.0064243
2914	0.006494
2926	0.0096424
2938	0.0127806
2950	0.0126242
2962	0.0142936
2974	0.0168113
2986	0.0108647
2998	0.0044472
3010	0.0025415
3022	0.0018411
3034	0.0014399
3046	0.0012019
3058	0.0010676
3070	0.0009163
3082	0.0008449
3094	0.0006715
3106	0.0005865
3118	0.0005134
3130	0.0004165
3142	0.0003859
3154	0.0003706
3166	0.000289
3178	0.0002397
3190	0.0001836
3202	0.0001394
3214	0.0001496
3226	0.000102
3238	6.63e-05
3250	9.69e-05
3262	5.95e-05
3274	8.16e-05
3286	7.82e-05
3298	5.95e-05
3310	7.99e-05
3322	1.53e-05
3334	3.06e-05
3346	4.25e-05
3358	8.33e-05
3370	5.27e-05
3382	7.82e-05
3394	0.0001547
3406	0.0002091
3418	0.0002941
3430	0.0003196
3442	0.000306
3454	0.0001649
3466	0.0001122
3478	7.82e-05
3490	6.29e-05
3502	0.0001054
3514	4.93e-05
3526	1.87e-05
3538	5.27e-05
3550	5.95e-05
3562	3.23e-05
3574	1.7e-05
3586	7.82e-05
3598	4.08e-05
3610	4.42e-05
3622	3.23e-05
3634	3.4e-05
3646	4.25e-05
3658	9.18e-05
3670	7.31e-05
3682	4.42e-05
3694	4.42e-05
3706	5.27e-05
3718	3.57e-05
3730	6.97e-05
3742	2.04e-05
3754	7.82e-05
3766	4.08e-05
3778	4.25e-05
3790	8.16e-05
3802	5.61e-05
3814	5.95e-05
3826	8.16e-05
3838	4.59e-05
