Infrared Spectrum: 4-(2,2,6-Trimethylcyclohexyl)-2-butanone
Formula: C 13 H 24 O
CAS: 6138-85-8
State: gas
Instrument: HP-GC/MS/IRD
Origin: NIST Mass Spectrometry Data Center
1/CM	ABSORBANCE
550	0.0010404
562	0.0012342
574	0.0008398
586	0.0003366
598	0.0002448
610	0.0001768
622	0.0002006
634	0.0001326
646	0.000102
658	0
670	8.84e-05
682	0.0001768
694	0.000221
706	0.0002516
718	0.0001462
730	8.84e-05
742	0.0001326
754	8.16e-05
766	5.44e-05
778	0.000136
790	9.52e-05
802	8.84e-05
814	0.0001122
826	0.0001564
838	0.0001938
850	0.000306
862	0.0003094
874	0.0003298
886	0.0004216
898	0.0005474
910	0.0006052
922	0.0007854
934	0.0010506
946	0.0012716
958	0.0013396
970	0.0014416
982	0.0012342
994	0.0008058
1006	0.0006562
1018	0.000697
1030	0.0005984
1042	0.0007038
1054	0.0007378
1066	0.000748
1078	0.0007378
1090	0.0006256
1102	0.0006936
1114	0.0010268
1126	0.0014892
1138	0.0027472
1150	0.005304
1162	0.006171
1174	0.004216
1186	0.0030124
1198	0.0029614
1210	0.0034102
1222	0.0037026
1234	0.0031042
1246	0.0026724
1258	0.0028084
1270	0.0024684
1282	0.0021386
1294	0.0018462
1306	0.0017782
1318	0.0019958
1330	0.0028118
1342	0.004318
1354	0.0077112
1366	0.0084184
1378	0.005695
1390	0.0049742
1402	0.0028016
1414	0.0023936
1426	0.0025942
1438	0.003179
1450	0.0045288
1462	0.0059534
1474	0.0050592
1486	0.0027676
1498	0.0012784
1510	0.0008228
1522	0.0006494
1534	0.0005746
1546	0.0005372
1558	0.0005338
1570	0.0004522
1582	0.0004046
1594	0.0003536
1606	0.00034
1618	0.000357
1630	0.0003536
1642	0.000442
1654	0.0005678
1666	0.00085
1678	0.0014178
1690	0.0024378
1702	0.0044778
1714	0.008568
1726	0.0148478
1738	0.0125868
1750	0.005559
1762	0.002652
1774	0.001275
1786	0.0006698
1798	0.0004148
1810	0.000272
1822	0.000204
1834	0.0001632
1846	0.000153
1858	0.0001292
1870	0.0001054
1882	8.16e-05
1894	7.14e-05
1906	6.8e-05
1918	7.14e-05
1930	5.44e-05
1942	4.08e-05
1954	3.74e-05
1966	3.4e-05
1978	3.74e-05
1990	4.76e-05
2002	1.7e-05
2014	3.4e-05
2026	2.72e-05
2038	2.38e-05
2050	3.06e-05
2062	4.76e-05
2074	4.08e-05
2086	3.74e-05
2098	3.4e-05
2110	6.8e-05
2122	2.72e-05
2134	5.44e-05
2146	5.44e-05
2158	5.1e-05
2170	5.44e-05
2182	1.02e-05
2194	4.08e-05
2206	4.08e-05
2218	2.38e-05
2230	6.8e-06
2242	2.04e-05
2254	1.02e-05
2266	2.04e-05
2278	4.42e-05
2290	5.1e-05
2302	6.12e-05
2314	4.42e-05
2326	5.78e-05
2338	5.1e-05
2350	4.08e-05
2362	4.42e-05
2374	3.74e-05
2386	3.74e-05
2398	3.06e-05
2410	4.42e-05
2422	4.42e-05
2434	5.1e-05
2446	4.76e-05
2458	4.08e-05
2470	6.8e-05
2482	7.48e-05
2494	8.84e-05
2506	0.000102
2518	0.000102
2530	0.0001122
2542	0.0001326
2554	0.0001496
2566	0.0001394
2578	0.000153
2590	0.0001836
2602	0.0002108
2614	0.000272
2626	0.0003094
2638	0.0003604
2650	0.000442
2662	0.0004998
2674	0.0005338
2686	0.0004862
2698	0.0004386
2710	0.0004114
2722	0.0005066
2734	0.0005576
2746	0.0005678
2758	0.0005508
2770	0.0006562
2782	0.0007514
2794	0.0008976
2806	0.0011798
2818	0.0016524
2830	0.00272
2842	0.0050626
2854	0.0095098
2866	0.0131512
2878	0.0148138
2890	0.013906
2902	0.0166396
2914	0.0237694
2926	0.0294474
2938	0.032912
2950	0.0252756
2962	0.0243916
2974	0.0178874
2986	0.0108698
2998	0.0063954
3010	0.0037026
3022	0.0022474
3034	0.001547
3046	0.0013022
3058	0.0011288
3070	0.0010132
3082	0.0009112
3094	0.000765
3106	0.000663
3118	0.0005236
3130	0.000442
3142	0.0003808
3154	0.000323
3166	0.0002992
3178	0.000272
3190	0.0002822
3202	0.0002244
3214	0.0001836
3226	0.0002108
3238	0.000187
3250	0.00017
3262	0.0001326
3274	8.16e-05
3286	0.0001054
3298	0.000119
3310	0.0001462
3322	0.000102
3334	8.5e-05
3346	0.000102
3358	0.000136
3370	9.18e-05
3382	0.0001496
3394	0.0001564
3406	0.0001734
3418	0.0002584
3430	0.000357
3442	0.0003944
3454	0.00034
3466	0.0002074
3478	0.0001768
3490	0.000102
3502	9.18e-05
3514	7.48e-05
3526	3.74e-05
3538	1.7e-05
3550	3.4e-05
3562	8.5e-05
3574	4.76e-05
3586	5.44e-05
3598	5.1e-05
3610	2.72e-05
3622	5.1e-05
3634	5.78e-05
3646	4.42e-05
3658	7.82e-05
3670	0.0001088
3682	8.84e-05
3694	3.74e-05
3706	7.82e-05
3718	7.14e-05
3730	4.76e-05
3742	0.0001088
3754	0.0001054
3766	0.0001054
3778	0.000102
3790	7.14e-05
3802	0.0001088
3814	0.0001054
3826	8.5e-05
3838	0.0001122
