Infrared Spectrum: 2,6-DIMETHYL-1,7-OCTADIEN-3-OL, ACETATE
Formula: C12 H20 O2
CAS: 61382-99-8
State: (NEAT)
Class: COBLENTZ III
Instrument: UNICAM SP-200
Sampling: TRANSMISSION
Resolution: 4
Origin: BUSH BOAKE ALLEN LTD. VIA SCIENTIFIC DOC. CENTRE LTD.
1/CM	TRANSMITTANCE
654.415	0.574
665.553	0.59
676.69	0.552
687.828	0.514
698.966	0.713
710.103	0.763
721.241	0.773
732.379	0.776
743.516	0.787
754.654	0.775
765.792	0.771
776.929	0.704
788.067	0.734
799.205	0.769
810.342	0.769
821.48	0.761
832.618	0.751
843.755	0.745
854.893	0.722
866.031	0.708
877.168	0.62
888.306	0.554
899.444	0.284
910.581	0.161
921.719	0.148
932.857	0.321
943.994	0.378
955.132	0.409
966.27	0.351
977.407	0.372
988.545	0.312
999.683	0.192
1010.82	0.195
1021.96	0.156
1033.1	0.18
1044.23	0.257
1055.37	0.267
1066.51	0.306
1077.65	0.427
1088.78	0.452
1099.92	0.477
1111.06	0.313
1122.2	0.442
1133.33	0.546
1144.47	0.555
1155.61	0.573
1166.75	0.616
1177.89	0.617
1189.02	0.539
1200.16	0.389
1211.3	0.229
1222.44	0.134
1233.57	0.116
1244.71	0.117
1255.85	0.123
1266.99	0.26
1278.12	0.385
1289.26	0.433
1300.4	0.457
1311.54	0.553
1322.68	0.585
1333.81	0.586
1344.95	0.586
1356.09	0.478
1367.23	0.228
1378.36	0.139
1389.5	0.236
1400.64	0.463
1411.78	0.486
1422.91	0.348
1434.05	0.329
1445.19	0.26
1456.33	0.21
1467.47	0.235
1478.6	0.469
1489.74	0.622
1500.88	0.684
1512.02	0.71
1523.15	0.732
1534.29	0.744
1545.43	0.754
1556.57	0.756
1567.7	0.754
1578.84	0.745
1589.98	0.732
1601.12	0.727
1612.25	0.702
1623.39	0.668
1634.53	0.4509
1645.67	0.36
1656.81	0.4931
1667.94	0.627
1679.08	0.635
1690.22	0.586
1701.36	0.496
1712.49	0.2979
1723.63	0.157
1734.77	0.124
1745.91	0.136
1757.04	0.325
1768.18	0.499
1779.32	0.574
1790.46	0.613
1801.6	0.641
1812.73	0.657
1823.87	0.667
1835.01	0.696
1846.15	0.733
1857.28	0.758
1868.42	0.772
1879.56	0.782
1890.7	0.79
1901.83	0.793
1912.97	0.795
1924.11	0.798
1935.25	0.802
1946.38	0.804
1957.52	0.807
1968.66	0.808
1979.8	0.809
1990.94	0.807
2002.07	0.807
2013.21	0.807
2024.35	0.7969
2035.49	0.795
2046.62	0.7956
2057.76	0.797
2068.9	0.798
2080.04	0.797
2091.17	0.795
2102.31	0.792
2113.45	0.7874
2124.59	0.7819
2135.73	0.778
2146.86	0.7781
2158	0.7806
2169.14	0.7811
2180.28	0.7836
2191.41	0.7861
2202.55	0.7886
2213.69	0.789
2224.83	0.7896
2235.96	0.792
2247.1	0.7914
2258.24	0.79
2269.38	0.79
2280.52	0.79
2291.65	0.789
2302.79	0.788
2313.93	0.7876
2325.07	0.7891
2336.2	0.791
2347.34	0.7931
2358.48	0.795
2369.62	0.797
2380.75	0.798
2391.89	0.7959
2403.03	0.7889
2414.17	0.785
2425.3	0.783
2436.44	0.782
2447.58	0.7805
2458.72	0.776
2469.86	0.7715
2480.99	0.769
2492.13	0.7705
2503.27	0.775
2514.41	0.779
2525.54	0.782
2536.68	0.783
2547.82	0.781
2558.96	0.7795
2570.09	0.777
2581.23	0.7755
2592.37	0.774
2603.51	0.7715
2614.65	0.771
2625.78	0.771
2636.92	0.77
2648.06	0.7685
2659.2	0.766
2670.33	0.7625
2681.47	0.758
2692.61	0.7511
2703.75	0.745
2714.88	0.7421
2726.02	0.735
2737.16	0.733
2748.3	0.735
2759.43	0.738
2770.57	0.739
2781.71	0.7371
2792.85	0.7301
2803.99	0.7139
2815.12	0.6913
2826.26	0.6378
2837.4	0.5652
2848.54	0.452
2859.67	0.3263
2870.81	0.2301
2881.95	0.1859
2893.09	0.1869
2904.22	0.1949
2915.36	0.1573
2926.5	0.1132
2937.64	0.0867
2948.78	0.0702
2959.91	0.0626
2971.05	0.0581
2982.19	0.055
2993.33	0.0597
3004.46	0.0978
3015.6	0.2276
3026.74	0.3792
3037.88	0.4803
3049.01	0.5331
3060.15	0.5574
3071.29	0.5547
3082.43	0.4793
3093.57	0.396
3104.7	0.3631
3115.84	0.473
3126.98	0.6036
3138.12	0.6629
3149.25	0.6872
3160.39	0.7007
3171.53	0.7067
3182.67	0.7131
3193.8	0.717
3204.94	0.7223
3216.08	0.7257
3227.22	0.7293
3238.35	0.7327
3249.49	0.7353
3260.63	0.7378
3271.77	0.7393
3282.91	0.7418
3294.04	0.7433
3305.18	0.745
3316.32	0.7453
3327.46	0.7478
3338.59	0.7483
3349.73	0.748
3360.87	0.7493
3372.01	0.75
3383.14	0.7497
3394.28	0.748
3405.42	0.745
3416.56	0.7432
3427.7	0.743
3438.83	0.743
3449.97	0.742
3461.11	0.7374
3472.25	0.7269
3483.38	0.7165
3494.52	0.7117
3505.66	0.7108
3516.8	0.7123
3527.93	0.715
3539.07	0.7173
3550.21	0.719
3561.35	0.7203
3572.49	0.722
3583.62	0.7232
3594.76	0.725
3605.9	0.727
3617.04	0.7287
3628.17	0.7292
3639.31	0.731
3650.45	0.734
3661.59	0.7367
3672.72	0.7402
3683.86	0.743
3695	0.7462
3706.14	0.749
3717.27	0.7512
3728.41	0.7527
3739.55	0.7552
3750.69	0.7577
3761.83	0.762
3772.96	0.7654
3784.1	0.7682
3795.24	0.771
3806.38	0.772
3817.51	0.771
3828.65	0.771
3839.79	0.7703
3850.93	0.769
3862.06	0.769
3873.2	0.769
3884.34	0.769
3895.48	0.77
3906.62	0.7707
3917.75	0.771
3928.89	0.771
3940.03	0.771
3951.17	0.77
3962.3	0.77
3973.44	0.77
3984.58	0.7698
3995.72	0.7671
4006.85	0.7629
4017.99	0.76
4029.13	0.757
4040.27	0.7557
4051.4	0.7529
4062.54	0.75
4073.68	0.748
4084.82	0.748
4095.96	0.746
4107.09	0.745
4118.23	0.7439
4129.37	0.743
4140.51	0.741
4151.64	0.7394
4162.78	0.739
4173.92	0.74
4185.06	0.74
4196.19	0.74
4207.33	0.74
4218.47	0.74
4229.61	0.739
4240.75	0.7384
4251.88	0.738
4263.02	0.737
4274.16	0.737
4285.3	0.737
4296.43	0.736
4307.57	0.7349
4318.71	0.7298
4329.85	0.7214
4340.98	0.721
4352.12	0.7226
4363.26	0.722
4374.4	0.722
4385.54	0.721
4396.67	0.721
4407.81	0.721
4418.95	0.72
4430.09	0.718
4441.22	0.7155
4452.36	0.713
4463.5	0.711
4474.64	0.71
4485.77	0.71
4496.91	0.709
4508.05	0.71
4519.19	0.712
4530.32	0.712
4541.46	0.715
4552.6	0.719
4563.74	0.724
4574.88	0.7265
4586.01	0.728
4597.15	0.729
4608.29	0.733
4619.43	0.736
4630.56	0.738
4641.7	0.7415
4652.84	0.748
4663.98	0.75
4675.11	0.753
4686.25	0.755
4697.39	0.757
4708.53	0.757
4719.67	0.757
4730.8	0.7595
4741.94	0.76
4753.08	0.76
4764.22	0.76
4775.35	0.7605
4786.49	0.762
4797.63	0.7606
4808.77	0.76
4819.9	0.759
4831.04	0.758
4842.18	0.7576
4853.32	0.757
4864.45	0.757
4875.59	0.756
4886.73	0.7554
4897.87	0.757
4909.01	0.7594
4920.14	0.76
4931.28	0.761
4942.42	0.762
4953.56	0.762
4964.69	0.762
4975.83	0.7616
4986.97	0.76
4998.11	0.7582
5009.24	0.762
5020.38	0.76
5031.52	0.7572
