Infrared Spectrum: 5-METHYLBENZIMIDAZOLE
Formula: C8 H8 N2
CAS: 614-97-1
State: SOLID (OIL MULL)
Melting point: 113-114 C
Class: COBLENTZ
Instrument: Not specified, most likely a prism, grating, or hybrid spectrometer.
Sampling: TRANSMISSION
Resolution: 4
Origin: WYANDOTTE CHEMICALS CORP., WYANDOTTE, MICHIGAN, USA
MICROMETERS	TRANSMITTANCE
2.017	0.343
2.05684	0.35
2.09668	0.356
2.13652	0.346
2.17636	0.355
2.2162	0.356
2.25604	0.363
2.29588	0.381
2.33572	0.398
2.37556	0.405
2.4154	0.413
2.45524	0.421
2.49508	0.431
2.53492	0.441
2.57476	0.45
2.6146	0.448
2.65444	0.478
2.69428	0.48
2.73412	0.475
2.77396	0.481
2.8138	0.491
2.85364	0.49
2.89348	0.486
2.93332	0.49
2.97316	0.488
3.013	0.486
3.05284	0.473
3.09268	0.401
3.13252	0.318
3.17236	0.216
3.2122	0.125
3.25204	0.078
3.29188	0.048
3.33172	0.031
3.37156	0.02
3.4114	0.023
3.45124	0.021
3.49108	0.02
3.53092	0.026
3.57076	0.026
3.6106	0.028
3.65044	0.036
3.69028	0.04
3.73012	0.038
3.76997	0.04
3.80981	0.045
3.84965	0.048
3.88949	0.05
3.92933	0.051
3.96917	0.058
4.00901	0.075
4.04885	0.09
4.08869	0.098
4.12853	0.118
4.16837	0.128
4.20821	0.145
4.24805	0.153
4.28789	0.188
4.32773	0.218
4.36757	0.261
4.40741	0.301
4.44725	0.326
4.48709	0.36
4.52693	0.383
4.56677	0.401
4.60661	0.426
4.64645	0.451
4.68629	0.478
4.72613	0.495
4.76597	0.518
4.80581	0.53
4.84565	0.538
4.88549	0.545
4.92533	0.551
4.96517	0.561
5.00501	0.555
5.04485	0.553
5.08469	0.556
5.12453	0.55
5.16437	0.533
5.20421	0.523
5.24405	0.515
5.28389	0.5
5.32373	0.47
5.36357	0.423
5.40341	0.458
5.44325	0.433
5.48309	0.42
5.52293	0.431
5.56277	0.405
5.60261	0.403
5.64245	0.406
5.68229	0.38
5.72213	0.356
5.76197	0.351
5.80181	0.355
5.84165	0.388
5.88149	0.433
5.92133	0.485
5.96117	0.528
6.00101	0.516
6.04085	0.523
6.08069	0.488
6.12053	0.301
6.16037	0.44
6.20021	0.48
6.24005	0.398
6.27989	0.468
6.31973	0.576
6.35957	0.581
6.39941	0.606
6.43925	0.61
6.47909	0.571
6.51893	0.561
6.55877	0.59
6.59861	0.458
6.63845	0.25
6.67829	0.09
6.71813	0.036
6.75797	0.038
6.79781	0.033
6.83765	0.04
6.87749	0.025
6.91733	0.063
6.95717	0.133
6.99701	0.105
7.03685	0.13
7.07669	0.27
7.11653	0.393
7.15637	0.438
7.19621	0.313
7.23605	0.21
7.2759	0.301
7.31574	0.393
7.35558	0.471
7.39542	0.281
7.43526	0.236
7.4751	0.443
7.51494	0.6
7.55478	0.631
7.59462	0.643
7.63446	0.541
7.6743	0.108
7.71414	0.091
7.75398	0.111
7.79382	0.108
7.83366	0.255
7.8735	0.323
7.91334	0.131
7.95318	0.086
7.99302	0.076
8.03286	0.283
8.0727	0.416
8.11254	0.461
8.15238	0.458
8.19222	0.473
8.23206	0.446
8.2719	0.333
8.31174	0.496
8.35158	0.583
8.39142	0.553
8.43126	0.5
8.4711	0.551
8.51094	0.481
8.55078	0.186
8.59062	0.226
8.63046	0.326
8.6703	0.475
8.71014	0.576
8.74998	0.61
8.78982	0.526
8.82966	0.601
8.8695	0.438
8.90934	0.551
8.94918	0.641
8.98902	0.685
9.02886	0.713
9.0687	0.74
9.10854	0.735
9.14838	0.738
9.18822	0.74
9.22806	0.755
9.2679	0.745
9.30774	0.736
9.34758	0.731
9.38742	0.721
9.42726	0.703
9.4671	0.683
9.50694	0.681
9.54678	0.66
9.58662	0.613
9.62646	0.591
9.6663	0.615
9.70614	0.655
9.74598	0.668
9.78582	0.66
9.82566	0.655
9.8655	0.656
9.90534	0.601
9.94518	0.488
9.98502	0.436
10.0249	0.605
10.0647	0.655
10.1045	0.675
10.1444	0.671
10.1842	0.646
10.2241	0.603
10.2639	0.54
10.3037	0.485
10.3436	0.403
10.3834	0.305
10.4233	0.185
10.4631	0.086
10.5029	0.05
10.5428	0.076
10.5826	0.101
10.6225	0.143
10.6623	0.23
10.7021	0.275
10.742	0.271
10.7818	0.245
10.8217	0.276
10.8615	0.318
10.9013	0.323
10.9412	0.331
10.981	0.335
11.0209	0.336
11.0607	0.333
11.1005	0.33
11.1404	0.326
11.1802	0.331
11.2201	0.34
11.2599	0.338
11.2997	0.285
11.3396	0.201
11.3794	0.208
11.4193	0.256
11.4591	0.253
11.4989	0.176
11.5388	0.135
11.5786	0.133
11.6185	0.235
11.6583	0.263
11.6981	0.218
11.738	0.221
11.7778	0.263
11.8177	0.321
11.8575	0.38
11.8973	0.418
11.9372	0.458
11.977	0.49
12.0169	0.525
12.0567	0.543
12.0965	0.56
12.1364	0.573
12.1762	0.58
12.2161	0.576
12.2559	0.536
12.2957	0.445
12.3356	0.216
12.3754	0.038
12.4153	0.065
12.4551	0.18
12.495	0.186
12.5348	0.126
12.5746	0.073
12.6145	0.238
12.6543	0.456
12.6942	0.61
12.734	0.676
12.7738	0.713
12.8137	0.741
12.8535	0.76
12.8934	0.773
12.9332	0.78
12.973	0.786
13.0129	0.796
13.0527	0.803
13.0926	0.79
13.1324	0.685
13.1722	0.578
13.2121	0.626
13.2519	0.668
13.2918	0.633
13.3316	0.651
13.3714	0.576
13.4113	0.45
13.4511	0.611
13.491	0.725
13.5308	0.766
13.5706	0.786
13.6105	0.795
13.6503	0.801
13.6902	0.811
13.73	0.813
13.7698	0.823
13.8097	0.826
13.8495	0.826
13.8894	0.826
13.9292	0.838
13.969	0.861
14.0089	0.891
14.0487	0.903
14.0886	0.92
14.1284	0.926
14.1682	0.93
14.2081	0.936
14.2479	0.941
14.2878	0.946
14.3276	0.95
14.3674	0.951
14.4073	0.948
14.4471	0.948
14.487	0.938
14.5268	0.93
14.5666	0.936
14.6065	0.931
14.6463	0.926
14.6862	0.923
14.726	0.916
14.7658	0.908
14.8057	0.901
14.8455	0.898
14.8854	0.895
14.9252	0.886
14.965	0.878
15.0049	0.83
15.0447	0.768
15.0846	0.735
15.1244	0.766
15.1642	0.801
15.2041	0.81
15.2439	0.808
15.2838	0.8
15.3236	0.786
15.3634	0.771
15.4033	0.748
15.4431	0.741
15.483	0.72
15.5228	0.698
15.5626	0.686
15.6025	0.668
15.6423	0.643
15.6822	0.608
15.722	0.533
15.7618	0.448
15.8017	0.37
15.8415	0.316
15.8814	0.301
15.9212	0.321
15.961	0.351
