Infrared Spectrum: 2-Furoic acid, ethyl ester
Formula: C7 H8 O3
CAS: 614-99-3
State: SOLUTION (10% CCl4 FOR 2-7.6, 10% CS2 FOR 7.6-15.9 MICRON)
Class: COBLENTZ III
Instrument: BAIRD (GRATING)
Instrument parameters: NaCl PRISM
Sampling: TRANSMISSION
Path length: 0.013 CM, AND 0.012 CM
Resolution: 2
Origin: DOW CHEMICAL COMPANY
1/CM	TRANSMITTANCE
4000	0.8725
3991	0.8709
3982	0.874
3973	0.8747
3964	0.8764
3955	0.8789
3946	0.8812
3937	0.8829
3928	0.884
3919	0.8834
3910	0.885
3901	0.8865
3892	0.885
3883	0.8846
3874	0.885
3865	0.885
3856	0.8845
3847	0.8842
3838	0.8838
3829	0.8837
3820	0.8837
3811	0.8832
3802	0.8824
3793	0.8838
3784	0.8833
3775	0.883
3766	0.8843
3757	0.8846
3748	0.8848
3739	0.8843
3730	0.8842
3721	0.8834
3712	0.8832
3703	0.8833
3694	0.8817
3685	0.8803
3676	0.8799
3667	0.8796
3658	0.8793
3649	0.8789
3640	0.8773
3631	0.877
3622	0.8745
3613	0.8714
3604	0.8684
3595	0.8654
3586	0.8619
3577	0.8591
3568	0.8564
3559	0.8557
3550	0.8566
3541	0.8567
3532	0.8566
3523	0.855
3514	0.8544
3505	0.8504
3496	0.8451
3487	0.8399
3478	0.8352
3469	0.8308
3460	0.8265
3451	0.8225
3442	0.8201
3433	0.8183
3424	0.8178
3415	0.8182
3406	0.8206
3397	0.8223
3388	0.8246
3379	0.8267
3370	0.8291
3361	0.8282
3352	0.8281
3343	0.8271
3334	0.8245
3325	0.8187
3316	0.8072
3307	0.8001
3298	0.7971
3289	0.7948
3280	0.793
3271	0.7919
3262	0.7896
3253	0.787
3244	0.7839
3235	0.7813
3226	0.7766
3217	0.7739
3208	0.7684
3199	0.7643
3190	0.7579
3181	0.7509
3172	0.7431
3163	0.738
3154	0.7318
3145	0.728
3136	0.7283
3127	0.732
3118	0.7436
3109	0.7569
3100	0.7723
3091	0.7881
3082	0.7935
3073	0.796
3064	0.7885
3055	0.7806
3046	0.7685
3037	0.7349
3028	0.6906
3019	0.6297
3010	0.5678
3001	0.5055
2992	0.4444
2983	0.3967
2974	0.3963
2965	0.4478
2956	0.5109
2947	0.5749
2938	0.6093
2929	0.6223
2920	0.6339
2911	0.6447
2902	0.662
2893	0.6826
2884	0.7032
2875	0.724
2866	0.7449
2857	0.766
2848	0.7861
2839	0.8055
2830	0.8095
2821	0.812
2812	0.8118
2803	0.8136
2794	0.8144
2785	0.8143
2776	0.8156
2767	0.8164
2758	0.8207
2749	0.8324
2740	0.8431
2731	0.8488
2722	0.8535
2713	0.8575
2704	0.8603
2695	0.8621
2686	0.8628
2677	0.863
2668	0.8595
2659	0.8578
2650	0.8608
2641	0.867
2632	0.8707
2623	0.8717
2614	0.8692
2605	0.8669
2596	0.8664
2587	0.8699
2578	0.8736
2569	0.8727
2560	0.8707
2551	0.8696
2542	0.871
2533	0.8741
2524	0.874
2515	0.872
2506	0.8697
2497	0.8672
2488	0.8652
2479	0.8651
2470	0.8705
2461	0.8747
2452	0.8732
2443	0.8663
2434	0.8605
2425	0.857
2416	0.8578
2407	0.8644
2398	0.8691
2389	0.8695
2380	0.8672
2371	0.8645
2362	0.8562
2353	0.8552
2344	0.8525
2335	0.852
2326	0.8581
2317	0.8615
2308	0.8669
2299	0.8768
2290	0.8851
2281	0.884
2272	0.8818
2263	0.8796
2254	0.875
2245	0.871
2236	0.8742
2227	0.8796
2218	0.8863
2209	0.8904
2200	0.8908
2191	0.8892
2182	0.8873
2173	0.8844
2164	0.8814
2155	0.8827
2146	0.8861
2137	0.8881
2128	0.8853
2119	0.8795
2110	0.8773
2101	0.876
2092	0.8764
2083	0.8785
2074	0.8828
2065	0.8836
2056	0.8845
2047	0.8834
2038	0.8839
2029	0.8834
2020	0.8827
2011	0.8786
2002	0.8738
1993	0.8685
1984	0.8702
1975	0.878
1966	0.8837
1957	0.8781
1948	0.8694
1939	0.874
1930	0.8822
1921	0.8813
1912	0.8745
1903	0.8637
1894	0.8535
1885	0.8534
1876	0.8573
1867	0.8598
1858	0.8547
1849	0.8383
1840	0.8308
1831	0.8193
1822	0.8096
1813	0.8009
1804	0.7877
1795	0.772
1786	0.7384
1777	0.6558
1768	0.5494
1759	0.385
1750	0.2192
1741	0.0543
1732	0.03
1723	0.0323
1714	0.0677
1705	0.1796
1696	0.45
1687	0.5837
1678	0.6271
1669	0.6672
1660	0.6895
1651	0.6895
1642	0.6977
1633	0.7202
1624	0.732
1615	0.6902
1606	0.5718
1597	0.3847
1588	0.1707
1579	0.2833
1570	0.4545
1561	0.5753
1552	0.6778
1543	0.75
1534	0.7317
1525	0.7017
1516	0.6921
1507	0.6627
1498	0.4827
1489	0.1061
1480	0.1242
1471	0.3824
1462	0.5073
1453	0.494
1444	0.6359
1435	0.6768
1426	0.6837
1417	0.6064
1408	0.3231
1399	0.2026
1390	0.3144
1381	0.4874
1372	0.3443
1363	0.7021
1354	0.7357
1345	0.7228
1336	0.6615
1327	0.5136
1318	0.2532
1309	0.0428
1300	0.0179
1291	0.0617
1282	0.3499
1273	0.5956
1264	0.7178
1255	0.7348
1246	0.6585
1237	0.3068
1228	0.5229
1219	0.6449
1210	0.6277
1201	0.4216
1192	0.1022
1183	0.0193
1174	0.0548
1165	0.3133
1156	0.6383
1147	0.6253
1138	0.4103
1129	0.0687
1120	0.0148
1111	0.0513
1102	0.3851
1093	0.5339
1084	0.438
1075	0.4174
1066	0.7533
1057	0.7767
1048	0.7415
1039	0.5933
1030	0.3995
1021	0.36
1012	0.0502
1003	0.4315
994	0.7214
985	0.8241
976	0.8565
967	0.8662
958	0.8629
949	0.8033
940	0.4721
931	0.397
922	0.7958
913	0.8306
904	0.8231
895	0.7715
886	0.3666
877	0.6557
868	0.5594
859	0.6572
850	0.732
841	0.6519
832	0.5759
823	0.6171
814	0.6714
805	0.7109
796	0.7021
787	0.6546
778	0.5161
769	0.1251
760	0.0039
751	0.1308
742	0.6117
733	0.7111
724	0.7302
715	0.7415
706	0.723
697	0.7049
688	0.6806
679	0.6409
670	0.6035
661	0.5667
652	0.5042
643	0.4657
634	0.4098
