Infrared Spectrum: BENZOIC ACID, 4-TOLYL ESTER
Formula: C14 H12 O2
CAS: 614-34-6
State: SOLUTION (10% IN CCl4 FOR 5000-1350 CM^-^1, 10% IN CS2 FOR 1350-625 CM^-^1)
Class: COBLENTZ
Instrument: Not specified, most likely a prism, grating, or hybrid spectrometer.
Sampling: TRANSMISSION
Path length: 0.01 CM, 0.01 CM
Resolution: 4
Origin: DOW CHEMICAL COMPANY
MICROMETERS	TRANSMITTANCE
2.037	0.85
2.0763	0.855
2.11559	0.843
2.15489	0.845
2.19418	0.848
2.23348	0.85
2.27277	0.85
2.31207	0.851
2.35137	0.856
2.39066	0.861
2.42996	0.843
2.46925	0.866
2.50855	0.874
2.54784	0.869
2.58714	0.871
2.62644	0.869
2.66573	0.864
2.70503	0.861
2.74432	0.859
2.78362	0.856
2.82291	0.848
2.86221	0.828
2.90151	0.83
2.9408	0.842
2.9801	0.842
3.01939	0.848
3.05869	0.842
3.09799	0.837
3.13728	0.837
3.17658	0.827
3.21587	0.773
3.25517	0.674
3.29446	0.649
3.33376	0.721
3.37306	0.698
3.41235	0.701
3.45165	0.757
3.49094	0.82
3.53024	0.863
3.56953	0.874
3.60883	0.872
3.64813	0.874
3.68742	0.882
3.72672	0.884
3.76601	0.884
3.80531	0.879
3.8446	0.879
3.8839	0.885
3.9232	0.884
3.96249	0.879
4.00179	0.885
4.04108	0.885
4.08038	0.889
4.11967	0.879
4.15897	0.877
4.19827	0.869
4.23756	0.846
4.27686	0.84
4.31615	0.871
4.35545	0.868
4.39474	0.884
4.43404	0.889
4.47334	0.9
4.51263	0.9
4.55193	0.899
4.59122	0.897
4.63052	0.887
4.66982	0.876
4.70911	0.874
4.74841	0.887
4.7877	0.885
4.827	0.876
4.86629	0.874
4.90559	0.869
4.94489	0.881
4.98418	0.872
5.02348	0.866
5.06277	0.835
5.10207	0.846
5.14136	0.855
5.18066	0.833
5.21996	0.837
5.25925	0.824
5.29855	0.817
5.33784	0.863
5.37714	0.872
5.41643	0.851
5.45573	0.806
5.49503	0.806
5.53432	0.814
5.57362	0.736
5.61291	0.664
5.65221	0.503
5.6915	0.2
5.7308	0.045
5.7701	0.21
5.80939	0.447
5.84869	0.672
5.88798	0.745
5.92728	0.796
5.96657	0.814
6.00587	0.825
6.04517	0.799
6.08446	0.789
6.12376	0.755
6.16305	0.644
6.20235	0.496
6.24164	0.47
6.28094	0.517
6.32024	0.548
6.35953	0.521
6.39883	0.467
6.43812	0.425
6.47742	0.482
6.51672	0.534
6.55601	0.456
6.59531	0.239
6.6346	0.333
6.6739	0.578
6.71319	0.744
6.75249	0.731
6.79179	0.677
6.83108	0.475
6.87038	0.485
6.90967	0.719
6.94897	0.773
6.98826	0.78
7.02756	0.771
7.06686	0.789
7.10615	0.791
7.14545	0.768
7.18474	0.755
7.22404	0.742
7.26333	0.776
7.30263	0.768
7.34193	0.739
7.38122	0.721
7.42052	0.762
7.45981	0.773
7.49911	0.736
7.5384	0.576
7.5777	0.488
7.617	0.604
7.65629	0.555
7.69559	0.465
7.73488	0.387
7.77418	0.324
7.81347	0.159
7.85277	0.04
7.89207	0.026
7.93136	0.052
7.97066	0.086
8.00995	0.115
8.04925	0.229
8.08854	0.255
8.12784	0.332
8.16714	0.33
8.20643	0.157
8.24573	0.078
8.28502	0.039
8.32432	0.03
8.36362	0.171
8.40291	0.353
8.44221	0.219
8.4815	0.14
8.5208	0.203
8.56009	0.149
8.59939	0.403
8.63869	0.625
8.67798	0.71
8.71728	0.75
8.75657	0.77
8.79587	0.78
8.83516	0.788
8.87446	0.778
8.91376	0.742
8.95305	0.69
8.99235	0.654
9.03164	0.579
9.07094	0.57
9.11023	0.604
9.14953	0.571
9.18883	0.439
9.22812	0.146
9.26742	0.096
9.30671	0.294
9.34601	0.25
9.3853	0.05
9.4246	0.104
9.4639	0.39
9.50319	0.609
9.54249	0.671
9.58178	0.69
9.62108	0.703
9.66037	0.651
9.69967	0.429
9.73897	0.172
9.77826	0.294
9.81756	0.47
9.85685	0.745
9.89615	0.791
9.93545	0.754
9.97474	0.793
10.014	0.838
10.0533	0.84
10.0926	0.842
10.1319	0.85
10.1712	0.851
10.2105	0.843
10.2498	0.842
10.2891	0.859
10.3284	0.869
10.3677	0.872
10.407	0.872
10.4463	0.869
10.4856	0.868
10.5249	0.864
10.5642	0.856
10.6035	0.812
10.6428	0.721
10.6821	0.625
10.7214	0.737
10.7607	0.82
10.8	0.843
10.8392	0.851
10.8785	0.851
10.9178	0.85
10.9571	0.843
10.9964	0.84
11.0357	0.837
11.075	0.83
11.1143	0.819
11.1536	0.802
11.1929	0.783
11.2322	0.75
11.2715	0.719
11.3108	0.661
11.3501	0.581
11.3894	0.501
11.4287	0.389
11.468	0.315
11.5073	0.345
11.5466	0.415
11.5859	0.478
11.6252	0.539
11.6645	0.568
11.7038	0.586
11.743	0.597
11.7823	0.6
11.8216	0.591
11.8609	0.594
11.9002	0.64
11.9395	0.679
11.9788	0.692
12.0181	0.693
12.0574	0.68
12.0967	0.661
12.136	0.64
12.1753	0.612
12.2146	0.594
12.2539	0.578
12.2932	0.55
12.3325	0.517
12.3718	0.482
12.4111	0.434
12.4504	0.381
12.4897	0.285
12.529	0.208
12.5683	0.241
12.6076	0.387
12.6469	0.568
12.6861	0.641
12.7254	0.697
12.7647	0.728
12.804	0.745
12.8433	0.757
12.8826	0.765
12.9219	0.768
12.9612	0.771
13.0005	0.775
13.0398	0.773
13.0791	0.765
13.1184	0.75
13.1577	0.713
13.197	0.671
13.2363	0.669
13.2756	0.71
13.3149	0.732
13.3542	0.741
13.3935	0.745
13.4328	0.749
13.4721	0.747
13.5114	0.744
13.5507	0.739
13.5899	0.731
13.6292	0.718
13.6685	0.703
13.7078	0.688
13.7471	0.667
13.7864	0.648
13.8257	0.615
13.865	0.579
13.9043	0.535
13.9436	0.475
13.9829	0.381
14.0222	0.226
14.0615	0.115
14.1008	0.039
14.1401	0.003
14.1794	0.009
14.2187	0.055
14.258	0.105
14.2973	0.2
14.3366	0.294
14.3759	0.379
14.4152	0.441
14.4545	0.465
14.4938	0.472
14.533	0.462
14.5723	0.451
14.6116	0.452
14.6509	0.472
14.6902	0.491
14.7295	0.49
14.7688	0.469
14.8081	0.41
14.8474	0.355
14.8867	0.319
14.926	0.33
14.9653	0.412
15.0046	0.47
15.0439	0.485
15.0832	0.486
15.1225	0.485
15.1618	0.477
15.2011	0.469
15.2404	0.46
15.2797	0.456
15.319	0.451
15.3583	0.447
15.3976	0.444
15.4368	0.441
15.4761	0.436
15.5154	0.429
15.5547	0.421
15.594	0.415
15.6333	0.407
15.6726	0.4
15.7119	0.394
15.7512	0.385
15.7905	0.382
15.8298	0.381
15.8691	0.382
