Infrared Spectrum: Pronestyl hydrochloride
Formula: C13 H22 Cl N3 O
CAS: 614-39-1
State: SOLID (1.5 mg / 300 mg KBr DISC)
Class: COBLENTZ III
Instrument: PERKIN-ELMER 21 (GRATING)
Resolution: 2
Origin: THE SQUIBB INSTITUTE FOR MEDICAL RESEARCH
1/CM	TRANSMITTANCE
661	0.5535
670	0.5582
679	0.5706
688	0.5763
697	0.5866
706	0.6304
715	0.6665
724	0.6677
733	0.6791
742	0.6794
751	0.6722
760	0.6143
769	0.3779
778	0.6251
787	0.6906
796	0.6631
805	0.6743
814	0.6681
823	0.6356
832	0.587
841	0.4203
850	0.4263
859	0.5679
868	0.6671
877	0.7334
886	0.7446
895	0.7543
904	0.7737
913	0.7845
922	0.7792
931	0.774
940	0.7602
949	0.7394
958	0.7215
967	0.7213
976	0.7177
985	0.7009
994	0.6407
1003	0.5699
1012	0.5125
1021	0.5143
1030	0.5425
1039	0.5997
1048	0.607
1057	0.6096
1066	0.6212
1075	0.643
1084	0.6554
1093	0.6615
1102	0.6573
1111	0.6331
1120	0.5787
1129	0.526
1138	0.5356
1147	0.5359
1156	0.5288
1165	0.5073
1174	0.4096
1183	0.2821
1192	0.5147
1201	0.6898
1210	0.6865
1219	0.6451
1228	0.595
1237	0.5384
1246	0.472
1255	0.398
1264	0.2841
1273	0.1458
1282	0.062
1291	0.0642
1300	0.1057
1309	0.1512
1318	0.2655
1327	0.4096
1336	0.4219
1345	0.4276
1354	0.4531
1363	0.479
1372	0.4766
1381	0.4658
1390	0.4493
1399	0.4587
1408	0.4363
1417	0.3624
1426	0.3324
1435	0.3118
1444	0.2924
1453	0.2744
1462	0.2662
1471	0.2681
1480	0.2628
1489	0.128
1498	0.0421
1507	0.0817
1516	0.2116
1525	0.2746
1534	0.153
1543	0.1592
1552	0.2248
1561	0.2615
1570	0.3718
1579	0.4464
1588	0.2403
1597	0.0159
1606	0.0124
1615	0.0383
1624	0.0456
1633	0.0771
1642	0.137
1651	0.3397
1660	0.4097
1669	0.6427
1678	0.72
1687	0.7922
1696	0.8301
1705	0.8518
1714	0.8685
1723	0.8819
1732	0.8926
1741	0.9012
1750	0.9084
1759	0.9149
1768	0.9206
1777	0.9247
1786	0.9287
1795	0.9318
1804	0.9342
1813	0.939
1822	0.9443
1831	0.9479
1840	0.9488
1849	0.9472
1858	0.9433
1867	0.9389
1876	0.9345
1885	0.9309
1894	0.9274
1903	0.9255
1912	0.9256
1921	0.9273
1930	0.9284
1939	0.9294
1948	0.9284
1957	0.9274
1966	0.926
1975	0.9223
1984	0.9182
1993	0.9136
2002	0.9095
2011	0.9061
2020	0.9049
2029	0.9047
2038	0.9051
2047	0.9054
2056	0.9055
2065	0.9056
2074	0.9054
2083	0.9046
2092	0.9039
2101	0.9022
2110	0.9005
2119	0.8993
2128	0.8983
2137	0.8976
2146	0.8971
2155	0.8968
2164	0.8965
2173	0.8966
2182	0.8949
2191	0.8919
2200	0.8872
2209	0.8827
2218	0.8776
2227	0.8726
2236	0.8675
2245	0.8615
2254	0.8551
2263	0.8493
2272	0.8413
2281	0.8301
2290	0.8182
2299	0.8051
2308	0.791
2317	0.779
2326	0.771
2335	0.7665
2344	0.7632
2353	0.7614
2362	0.7601
2371	0.7597
2380	0.7562
2389	0.7421
2398	0.7229
2407	0.7036
2416	0.6864
2425	0.6695
2434	0.6301
2443	0.6163
2452	0.6062
2461	0.6001
2470	0.5953
2479	0.5922
2488	0.5896
2497	0.5876
2506	0.5849
2515	0.5801
2524	0.5702
2533	0.5558
2542	0.5377
2551	0.5182
2560	0.4966
2569	0.4699
2578	0.4417
2587	0.4189
2596	0.3998
2605	0.3837
2614	0.371
2623	0.363
2632	0.3632
2641	0.3722
2650	0.3851
2659	0.4016
2668	0.4208
2677	0.4409
2686	0.4563
2695	0.4703
2704	0.4821
2713	0.4931
2722	0.5034
2731	0.5122
2740	0.5206
2749	0.5274
2758	0.5341
2767	0.5433
2776	0.5553
2785	0.5687
2794	0.5731
2803	0.5743
2812	0.5736
2821	0.5716
2830	0.5661
2839	0.5585
2848	0.5447
2857	0.5284
2866	0.51
2875	0.4869
2884	0.4638
2893	0.4405
2902	0.4198
2911	0.4138
2920	0.4141
2929	0.4173
2938	0.4337
2947	0.446
2956	0.4568
2965	0.4652
2974	0.488
2983	0.5444
2992	0.5607
3001	0.5732
3010	0.5846
3019	0.5957
3028	0.6039
3037	0.6107
3046	0.6161
3055	0.6196
3064	0.621
3073	0.6207
3082	0.618
3091	0.6118
3100	0.5792
3109	0.5355
3118	0.492
3127	0.4489
3136	0.406
3145	0.3633
3154	0.3209
3163	0.2787
3172	0.2368
3181	0.2093
3190	0.2016
3199	0.2002
3208	0.1992
3217	0.198
3226	0.1966
3235	0.1937
3244	0.1863
3253	0.1753
3262	0.1646
3271	0.1578
3280	0.1545
3289	0.1541
3298	0.1544
3307	0.157
3316	0.1654
3325	0.1827
3334	0.2047
3343	0.2206
3352	0.2287
3361	0.2316
3370	0.2349
3379	0.2396
3388	0.2537
3397	0.2795
3406	0.3206
3415	0.3524
3424	0.4149
3433	0.4466
3442	0.4807
3451	0.5101
3460	0.5416
3469	0.5577
3478	0.5732
3487	0.5881
3496	0.6117
3505	0.6374
3514	0.663
3523	0.6885
3532	0.7138
3541	0.739
3550	0.7642
3559	0.7891
3568	0.814
3577	0.8387
3586	0.8622
3595	0.8836
3604	0.9027
3613	0.917
3622	0.9259
3631	0.9322
3640	0.9383
3649	0.9434
3658	0.9449
3667	0.9458
3676	0.9459
3685	0.9458
3694	0.9457
3703	0.9456
3712	0.9453
3721	0.945
3730	0.9449
3739	0.9446
3748	0.9444
3757	0.944
3766	0.9437
3775	0.9434
3784	0.943
3793	0.9427
3802	0.9424
3811	0.9419
3820	0.9416
3829	0.9413
3838	0.941
3847	0.9408
3856	0.9405
3865	0.9402
3874	0.94
3883	0.9397
3892	0.9395
3901	0.9392
3910	0.9389
3919	0.9386
3928	0.9384
3937	0.9382
3946	0.9379
3955	0.9376
3964	0.9374
3973	0.9371
3982	0.9368
3991	0.9366
4000	0.9364
