Infrared Spectrum: PEROXYBENZOIC ACID, TERT-BUTYL ESTER
Formula: C11 H14 O3
CAS: 614-45-9
State: LIQUID
Class: COBLENTZ
Instrument: PERKIN-ELMER
Sampling: TRANSMISSION
Path length: 0.0025 CM
Resolution: 4
Origin: INLAND MANUFACTURING, J. THOMPSON
MICROMETERS	TRANSMITTANCE
2.034	0.873
2.06777	0.875
2.10153	0.875
2.1353	0.877
2.16907	0.87
2.20283	0.879
2.2366	0.877
2.27036	0.853
2.30413	0.856
2.3379	0.868
2.37166	0.86
2.40543	0.86
2.4392	0.856
2.47296	0.867
2.50673	0.877
2.54049	0.88
2.57426	0.884
2.60803	0.889
2.64179	0.89
2.67556	0.889
2.70933	0.873
2.74309	0.862
2.77686	0.863
2.81062	0.836
2.84439	0.793
2.87816	0.788
2.91192	0.792
2.94569	0.821
2.97946	0.827
3.01322	0.831
3.04699	0.831
3.08076	0.826
3.11452	0.819
3.14829	0.819
3.18205	0.819
3.21582	0.705
3.24959	0.654
3.28335	0.7
3.31712	0.454
3.35089	0.178
3.38465	0.431
3.41842	0.502
3.45218	0.621
3.48595	0.698
3.51972	0.807
3.55348	0.839
3.58725	0.877
3.62102	0.882
3.65478	0.88
3.68855	0.882
3.72231	0.894
3.75608	0.897
3.78985	0.889
3.82361	0.887
3.85738	0.887
3.89115	0.899
3.92491	0.901
3.95868	0.902
3.99245	0.902
4.02621	0.889
4.05998	0.894
4.09374	0.902
4.12751	0.901
4.16128	0.901
4.19504	0.901
4.22881	0.901
4.26258	0.908
4.29634	0.908
4.33011	0.901
4.36387	0.885
4.39764	0.901
4.43141	0.908
4.46517	0.908
4.49894	0.909
4.53271	0.909
4.56647	0.908
4.60024	0.906
4.63401	0.901
4.66777	0.887
4.70154	0.88
4.7353	0.885
4.76907	0.897
4.80284	0.889
4.8366	0.897
4.87037	0.901
4.90414	0.901
4.9379	0.892
4.97167	0.877
5.00543	0.855
5.0392	0.85
5.07297	0.856
5.10673	0.872
5.1405	0.86
5.17427	0.839
5.20803	0.822
5.2418	0.856
5.27556	0.877
5.30933	0.88
5.3431	0.872
5.37686	0.85
5.41063	0.817
5.4444	0.776
5.47816	0.747
5.51193	0.706
5.5457	0.621
5.57946	0.41
5.61323	0.119
5.64699	0.059
5.68076	0.054
5.71453	0.166
5.74829	0.313
5.78206	0.437
5.81583	0.603
5.84959	0.727
5.88336	0.764
5.91712	0.793
5.95089	0.8
5.98466	0.804
6.01842	0.804
6.05219	0.795
6.08596	0.805
6.11972	0.809
6.15349	0.78
6.18725	0.654
6.22102	0.448
6.25479	0.676
6.28855	0.582
6.32232	0.797
6.35609	0.829
6.38985	0.834
6.42362	0.834
6.45739	0.838
6.49115	0.841
6.52492	0.85
6.55868	0.85
6.59245	0.827
6.62622	0.778
6.65998	0.664
6.69375	0.572
6.72752	0.548
6.76128	0.449
6.79505	0.538
6.82881	0.4
6.86258	0.131
6.89635	0.451
6.93011	0.632
6.96388	0.724
6.99765	0.761
7.03141	0.764
7.06518	0.761
7.09894	0.737
7.13271	0.667
7.16648	0.364
7.20024	0.507
7.23401	0.58
7.26778	0.301
7.30154	0.085
7.33531	0.442
7.36908	0.657
7.40284	0.713
7.43661	0.718
7.47037	0.73
7.50414	0.73
7.53791	0.666
7.57167	0.393
7.60544	0.436
7.63921	0.516
7.67297	0.574
7.70674	0.599
7.7405	0.594
7.77427	0.548
7.80804	0.483
7.8418	0.369
7.87557	0.204
7.90934	0.112
7.9431	0.081
7.97687	0.059
8.01063	0.052
8.0444	0.051
8.07817	0.045
8.11193	0.045
8.1457	0.068
8.17947	0.156
8.21323	0.252
8.247	0.311
8.28077	0.315
8.31453	0.235
8.3483	0.117
8.38206	0.057
8.41583	0.056
8.4496	0.068
8.48336	0.063
8.51713	0.103
8.5509	0.216
8.58466	0.347
8.61843	0.413
8.65219	0.524
8.68596	0.591
8.71973	0.628
8.75349	0.66
8.78726	0.684
8.82103	0.71
8.85479	0.725
8.88856	0.727
8.92232	0.725
8.95609	0.712
8.98986	0.696
9.02362	0.657
9.05739	0.597
9.09116	0.516
9.12492	0.507
9.15869	0.453
9.19246	0.321
9.22622	0.182
9.25999	0.122
9.29375	0.149
9.32752	0.247
9.36129	0.235
9.39505	0.117
9.42882	0.059
9.46259	0.054
9.49635	0.052
9.53012	0.052
9.56388	0.088
9.59765	0.209
9.63142	0.298
9.66518	0.301
9.69895	0.286
9.73272	0.124
9.76648	0.061
9.80025	0.061
9.83402	0.17
9.86778	0.325
9.90155	0.488
9.93531	0.558
9.96908	0.538
10.0028	0.64
10.0366	0.693
10.0704	0.72
10.1041	0.744
10.1379	0.761
10.1717	0.768
10.2054	0.771
10.2392	0.78
10.273	0.8
10.3067	0.81
10.3405	0.822
10.3743	0.839
10.408	0.841
10.4418	0.843
10.4756	0.843
10.5093	0.841
10.5431	0.836
10.5769	0.821
10.6106	0.8
10.6444	0.764
10.6782	0.732
10.7119	0.73
10.7457	0.763
10.7795	0.787
10.8132	0.802
10.847	0.822
10.8808	0.831
10.9145	0.839
10.9483	0.844
10.9821	0.848
11.0158	0.848
11.0496	0.848
11.0834	0.848
11.1171	0.846
11.1509	0.839
11.1847	0.829
11.2184	0.819
11.2522	0.81
11.286	0.8
11.3197	0.79
11.3535	0.785
11.3873	0.775
11.421	0.756
11.4548	0.708
11.4886	0.654
11.5223	0.568
11.5561	0.514
11.5899	0.499
11.6236	0.516
11.6574	0.563
11.6912	0.604
11.7249	0.642
11.7587	0.666
11.7925	0.679
11.8262	0.698
11.86	0.708
11.8938	0.71
11.9275	0.667
11.9613	0.568
11.9951	0.439
12.0288	0.33
12.0626	0.385
12.0964	0.512
12.1301	0.637
12.1639	0.72
12.1977	0.759
12.2314	0.78
12.2652	0.797
12.299	0.802
12.3327	0.802
12.3665	0.802
12.4003	0.788
12.434	0.766
12.4678	0.713
12.5016	0.633
12.5353	0.505
12.5691	0.442
12.6029	0.488
12.6366	0.603
12.6704	0.705
12.7042	0.758
12.7379	0.785
12.7717	0.797
12.8054	0.8
12.8392	0.805
12.873	0.809
12.9067	0.809
12.9405	0.809
12.9743	0.809
13.008	0.809
13.0418	0.804
13.0756	0.798
13.1093	0.792
13.1431	0.778
13.1769	0.754
13.2106	0.712
13.2444	0.623
13.2782	0.482
13.3119	0.419
13.3457	0.471
13.3795	0.567
13.4132	0.647
13.447	0.684
13.4808	0.701
13.5145	0.71
13.5483	0.713
13.5821	0.713
13.6158	0.705
13.6496	0.698
13.6834	0.678
13.7171	0.659
13.7509	0.628
13.7847	0.596
13.8184	0.551
13.8522	0.494
13.886	0.415
13.9197	0.313
13.9535	0.233
13.9873	0.143
14.021	0.093
14.0548	0.068
14.0886	0.064
14.1223	0.064
14.1561	0.063
14.1899	0.064
14.2236	0.064
14.2574	0.063
14.2912	0.068
14.3249	0.086
14.3587	0.153
14.3925	0.223
14.4262	0.301
14.46	0.361
14.4938	0.4
14.5275	0.402
14.5613	0.402
14.5951	0.402
14.6288	0.441
14.6626	0.494
14.6964	0.526
14.7301	0.546
14.7639	0.546
14.7977	0.526
14.8314	0.473
14.8652	0.408
14.899	0.356
14.9327	0.34
14.9665	0.34
15.0003	0.357
15.034	0.383
15.0678	0.434
15.1016	0.48
15.1353	0.524
15.1691	0.555
15.2029	0.574
15.2366	0.586
15.2704	0.592
15.3042	0.597
15.3379	0.597
15.3717	0.601
15.4055	0.601
15.4392	0.596
15.473	0.584
