Infrared Spectrum: ETHYL NICOTINATE
Formula: C8 H9 N O2
CAS: 614-18-6
State: LIQUID
Melting point: 8-9.5 C
Class: COBLENTZ
Instrument: Not specified, most likely a prism, grating, or hybrid spectrometer.
Sampling: TRANSMISSION
Path length: 0.003 CM
Resolution: 4
Origin: WYANDOTTE CHEMICALS CORP., WYANDOTTE, MICHIGAN, USA
MICROMETERS	TRANSMITTANCE
2.027	0.983
2.06698	0.978
2.10695	0.976
2.14693	0.961
2.18691	0.953
2.22689	0.958
2.26686	0.955
2.30684	0.951
2.34682	0.935
2.38679	0.945
2.42677	0.961
2.46675	0.97
2.50673	0.98
2.5467	0.981
2.58668	0.981
2.62666	0.978
2.66663	0.958
2.70661	0.908
2.74659	0.88
2.78657	0.875
2.82654	0.861
2.86652	0.83
2.9065	0.775
2.94647	0.805
2.98645	0.858
3.02643	0.89
3.06641	0.898
3.10638	0.896
3.14636	0.88
3.18634	0.858
3.22631	0.697
3.26629	0.635
3.30627	0.247
3.34625	0.537
3.38622	0.599
3.4262	0.722
3.46618	0.798
3.50615	0.9
3.54613	0.933
3.58611	0.938
3.62609	0.955
3.66606	0.961
3.70604	0.968
3.74602	0.968
3.78599	0.966
3.82597	0.955
3.86595	0.953
3.90593	0.953
3.9459	0.961
3.98588	0.965
4.02586	0.966
4.06583	0.961
4.10581	0.958
4.14579	0.95
4.18577	0.928
4.22574	0.931
4.26572	0.956
4.3057	0.975
4.34567	0.978
4.38565	0.97
4.42563	0.96
4.46561	0.963
4.50558	0.951
4.54556	0.955
4.58554	0.97
4.62551	0.98
4.66549	0.973
4.70547	0.951
4.74545	0.955
4.78542	0.97
4.8254	0.971
4.86538	0.961
4.90535	0.961
4.94533	0.968
4.98531	0.958
5.02529	0.938
5.06526	0.893
5.10524	0.876
5.14522	0.89
5.18519	0.901
5.22517	0.9
5.26515	0.888
5.30513	0.911
5.3451	0.913
5.38508	0.921
5.42506	0.933
5.46503	0.921
5.50501	0.886
5.54499	0.851
5.58497	0.835
5.62494	0.792
5.66492	0.599
5.7049	0.216
5.74487	0.024
5.78485	0.038
5.82483	0.171
5.86481	0.46
5.90478	0.55
5.94476	0.683
5.98474	0.715
6.02471	0.742
6.06469	0.75
6.10467	0.712
6.14465	0.65
6.18462	0.316
6.2246	0.217
6.26458	0.415
6.30455	0.662
6.34453	0.742
6.38451	0.815
6.42449	0.84
6.46446	0.861
6.50444	0.865
6.54442	0.861
6.58439	0.851
6.62437	0.797
6.66435	0.58
6.70433	0.279
6.7443	0.297
6.78428	0.389
6.82426	0.4
6.86423	0.399
6.90421	0.515
6.94419	0.246
6.98417	0.081
7.02414	0.331
7.06412	0.49
7.1041	0.437
7.14407	0.306
7.18405	0.51
7.22403	0.4
7.26401	0.076
7.30398	0.434
7.34396	0.648
7.38394	0.663
7.42391	0.603
7.46389	0.334
7.50387	0.216
7.54385	0.412
7.58382	0.236
7.6238	0.038
7.66378	0.026
7.70375	0.026
7.74373	0.026
7.78371	0.028
7.82369	0.033
7.86366	0.099
7.90364	0.194
7.94362	0.249
7.98359	0.279
8.02357	0.297
8.06355	0.369
8.10353	0.59
8.1435	0.657
8.18348	0.665
8.22346	0.653
8.26343	0.608
8.30341	0.415
8.34339	0.236
8.38337	0.485
8.42334	0.5
8.46332	0.289
8.5033	0.304
8.54327	0.432
8.58325	0.454
8.62323	0.432
8.66321	0.289
8.70318	0.121
8.74316	0.036
8.78314	0.031
8.82311	0.031
8.86309	0.028
8.90307	0.024
8.94305	0.026
8.98302	0.031
9.023	0.091
9.06298	0.156
9.10295	0.179
9.14293	0.221
9.18291	0.376
9.22289	0.602
9.26286	0.692
9.30284	0.727
9.34282	0.75
9.38279	0.76
9.42277	0.758
9.46275	0.737
9.50273	0.628
9.5427	0.41
9.58268	0.212
9.62266	0.391
9.66263	0.113
9.70261	0.031
9.74259	0.068
9.78257	0.194
9.82254	0.271
9.86252	0.339
9.9025	0.405
9.94247	0.53
9.98245	0.623
10.0224	0.692
10.0624	0.733
10.1024	0.77
10.1424	0.795
10.1823	0.798
10.2223	0.78
10.2623	0.767
10.3023	0.775
10.3422	0.82
10.3822	0.841
10.4222	0.853
10.4622	0.86
10.5022	0.855
10.5421	0.856
10.5821	0.853
10.6221	0.831
10.6621	0.836
10.702	0.855
10.742	0.878
10.782	0.891
10.822	0.9
10.8619	0.903
10.9019	0.901
10.9419	0.905
10.9819	0.906
11.0219	0.903
11.0618	0.903
11.1018	0.898
11.1418	0.898
11.1818	0.893
11.2217	0.885
11.2617	0.87
11.3017	0.831
11.3417	0.777
11.3817	0.718
11.4216	0.665
11.4616	0.653
11.5016	0.658
11.5416	0.672
11.5815	0.672
11.6215	0.623
11.6615	0.512
11.7015	0.444
11.7414	0.454
11.7814	0.572
11.8214	0.64
11.8614	0.655
11.9014	0.648
11.9413	0.607
11.9813	0.574
12.0213	0.56
12.0613	0.605
12.1012	0.678
12.1412	0.745
12.1812	0.782
12.2212	0.798
12.2611	0.801
12.3011	0.795
12.3411	0.79
12.3811	0.763
12.4211	0.72
12.461	0.648
12.501	0.537
12.541	0.429
12.581	0.339
12.6209	0.311
12.6609	0.311
12.7009	0.329
12.7409	0.354
12.7809	0.402
12.8208	0.455
12.8608	0.49
12.9008	0.504
12.9408	0.512
12.9807	0.502
13.0207	0.489
13.0607	0.48
13.1007	0.472
13.1406	0.47
13.1806	0.457
13.2206	0.427
13.2606	0.337
13.3006	0.204
13.3405	0.104
13.3805	0.049
13.4205	0.041
13.4605	0.041
13.5004	0.043
13.5404	0.063
13.5804	0.204
13.6204	0.362
13.6603	0.492
13.7003	0.577
13.7403	0.62
13.7803	0.672
13.8203	0.713
13.8602	0.728
13.9002	0.737
13.9402	0.728
13.9802	0.71
14.0201	0.663
14.0601	0.592
14.1001	0.494
14.1401	0.339
14.1801	0.209
14.22	0.134
14.26	0.118
14.3	0.141
14.34	0.217
14.3799	0.341
14.4199	0.525
14.4599	0.632
14.4999	0.715
14.5398	0.755
14.5798	0.787
14.6198	0.808
14.6598	0.821
14.6998	0.84
14.7397	0.843
14.7797	0.846
14.8197	0.851
14.8597	0.856
14.8996	0.86
14.9396	0.86
14.9796	0.845
15.0196	0.831
15.0595	0.838
15.0995	0.85
15.1395	0.851
15.1795	0.845
15.2195	0.841
15.2594	0.841
15.2994	0.841
15.3394	0.838
15.3794	0.83
15.4193	0.823
15.4593	0.823
15.4993	0.821
15.5393	0.815
15.5793	0.81
15.6192	0.803
15.6592	0.8
15.6992	0.8
15.7392	0.798
15.7791	0.793
15.8191	0.783
15.8591	0.778
15.8991	0.773
15.939	0.77
15.979	0.757
16.019	0.747
