Infrared Spectrum: o-CHLOROPHENETOLE
Formula: C8 H9 Cl O
CAS: 614-72-2
State: SOLUTION (10% IN CCl4 FOR 3800-1330 CM^-^1, 10% IN CS2 FOR 1330-450 CM^-^1)
Boiling point: 82 C AT 10 mmHg
Class: COBLENTZ III
Instrument: DOW KBr FOREPRISM-GRATING
Instrument parameters: GRATING BLAZED AT 3.5, 12.0, 20.0 MICRONS AND CHANGED AT 5.0, 7.5, 14.9 MICRONS
Sampling: TRANSMISSION
Path length: 0.011 CM, 0.011 CM
Resolution: 4
Origin: DOW CHEMICAL COMPANY
1/CM	TRANSMITTANCE
445.714	0.871
454.505	0.891
463.296	0.908
472.088	0.918
480.879	0.92
489.67	0.924
498.461	0.924
507.253	0.926
516.044	0.946
524.835	0.953
533.626	0.95
542.417	0.928
551.209	0.957
560	0.964
568.791	0.96
577.582	0.933
586.374	0.942
595.165	0.823
603.956	0.965
612.747	0.975
621.539	0.972
630.33	0.961
639.121	0.942
647.912	0.907
656.703	0.921
665.495	0.931
674.286	0.777
683.077	0.612
691.868	0.3031
700.66	0.82
709.451	0.758
718.242	0.779
727.033	0.725
735.824	0.2379
744.616	0.075
753.407	0.637
762.198	0.864
770.989	0.857
779.781	0.882
788.572	0.864
797.363	0.721
806.154	0.877
814.945	0.891
823.737	0.897
832.528	0.87
841.319	0.804
850.11	0.757
858.902	0.793
867.693	0.828
876.484	0.849
885.275	0.875
894.066	0.844
902.858	0.804
911.649	0.733
920.44	0.369
929.231	0.708
938.023	0.91
946.814	0.929
955.605	0.925
964.396	0.925
973.188	0.922
981.979	0.915
990.77	0.92
999.561	0.9
1008.35	0.848
1017.14	0.667
1025.93	0.449
1034.73	0.028
1043.52	0.3081
1052.31	0.3259
1061.1	0.0511
1069.89	0.5441
1078.68	0.704
1087.47	0.59
1096.26	0.732
1105.06	0.4089
1113.85	0.602
1122.64	0.631
1131.43	0.3321
1140.22	0.786
1149.01	0.72
1157.8	0.6401
1166.59	0.862
1175.39	0.884
1184.18	0.911
1192.97	0.913
1201.76	0.902
1210.55	0.867
1219.34	0.753
1228.13	0.502
1236.92	0.08
1245.72	0.008
1254.51	0.2591
1263.3	0.36
1272.09	0.022
1280.88	0.237
1289.67	0.238
1298.46	0.2421
1307.25	0.6681
1316.05	0.822
1324.84	0.863
1333.63	0.877
1342.42	0.882
1351.21	0.891
1360	0.87
1368.79	0.8
1377.58	0.7099
1386.38	0.4219
1395.17	0.2491
1403.96	0.728
1412.75	0.813
1421.54	0.798
1430.33	0.758
1439.12	0.4299
1447.91	0.3762
1456.7	0.444
1465.5	0.3389
1474.29	0.0311
1483.08	0.009
1491.87	0.1691
1500.66	0.553
1509.45	0.506
1518.24	0.63
1527.03	0.613
1535.83	0.524
1544.62	0.446
1553.41	0.46
1562.2	0.506
1570.99	0.4459
1579.78	0.302
1588.57	0.066
1597.36	0.615
1606.16	0.791
1614.95	0.833
1623.74	0.855
1632.53	0.88
1641.32	0.899
1650.11	0.907
1658.9	0.893
1667.69	0.878
1676.49	0.888
1685.28	0.9
1694.07	0.904
1702.86	0.907
1711.65	0.903
1720.44	0.891
1729.23	0.882
1738.02	0.891
1746.82	0.884
1755.61	0.889
1764.4	0.892
1773.19	0.935
1781.98	0.936
1790.77	0.937
1799.56	0.931
1808.35	0.939
1817.15	0.943
1825.94	0.94
1834.73	0.926
1843.52	0.9
1852.31	0.932
1861.1	0.936
1869.89	0.932
1878.68	0.8909
1887.47	0.891
1896.27	0.932
1905.06	0.936
1913.85	0.914
1922.64	0.888
1931.43	0.924
1940.22	0.935
1949.01	0.94
1957.8	0.931
1966.6	0.935
1975.39	0.935
1984.18	0.947
1992.97	0.947
2001.76	0.96
2010.55	0.954
2019.34	0.957
2028.13	0.96
2036.93	0.9509
2045.72	0.929
2054.51	0.9511
2063.3	0.9528
2072.09	0.9347
2080.88	0.9333
2089.67	0.9472
2098.46	0.9551
2107.26	0.9621
2116.05	0.964
2124.84	0.9651
2133.63	0.9678
2142.42	0.964
2151.21	0.964
2160	0.9607
2168.79	0.9582
2177.59	0.9622
2186.38	0.962
2195.17	0.964
2203.96	0.966
2212.75	0.969
2221.54	0.969
2230.33	0.9659
2239.12	0.9609
2247.92	0.9548
2256.71	0.9495
2265.5	0.9387
2274.29	0.9347
2283.08	0.9224
2291.87	0.9322
2300.66	0.942
2309.45	0.9318
2318.25	0.9374
2327.04	0.9456
2335.83	0.957
2344.62	0.9532
2353.41	0.958
2362.2	0.9578
2370.99	0.9548
2379.78	0.9501
2388.57	0.944
2397.37	0.943
2406.16	0.9448
2414.95	0.948
2423.74	0.947
2432.53	0.948
2441.32	0.947
2450.11	0.9454
2458.9	0.9414
2467.7	0.9344
2476.49	0.926
2485.28	0.918
2494.07	0.921
2502.86	0.9257
2511.65	0.9124
2520.44	0.9067
2529.23	0.901
2538.03	0.886
2546.82	0.8844
2555.61	0.8983
2564.4	0.891
2573.19	0.8964
2581.98	0.902
2590.77	0.91
2599.56	0.9111
2608.36	0.9149
2617.15	0.913
2625.94	0.911
2634.73	0.9118
2643.52	0.9122
2652.31	0.914
2661.1	0.9144
2669.89	0.9146
2678.69	0.9106
2687.48	0.9057
2696.27	0.913
2705.06	0.9057
2713.85	0.889
2722.64	0.8851
2731.43	0.8721
2740.22	0.8803
2749.02	0.892
2757.81	0.887
2766.6	0.877
2775.39	0.8825
2784.18	0.8955
2792.97	0.898
2801.76	0.885
2810.55	0.8594
2819.34	0.8585
2828.14	0.8579
2836.93	0.8188
2845.72	0.7935
2854.51	0.748
2863.3	0.6344
2872.09	0.5325
2880.88	0.5409
2889.67	0.5474
2898.47	0.5541
2907.26	0.568
2916.05	0.4928
2924.84	0.471
2933.63	0.5014
2942.42	0.6386
2951.21	0.648
2960	0.6358
2968.8	0.5172
2977.59	0.237
2986.38	0.2886
2995.17	0.6296
3003.96	0.7757
3012.75	0.7825
3021.54	0.7955
3030.33	0.8101
3039.13	0.8221
3047.92	0.7814
3056.71	0.7161
3065.5	0.6696
3074.29	0.7554
3083.08	0.8294
3091.87	0.8555
3100.66	0.8901
3109.46	0.8997
3118.25	0.9068
3127.04	0.908
3135.83	0.913
3144.62	0.91
3153.41	0.91
3162.2	0.9025
3170.99	0.9027
3179.79	0.906
3188.58	0.9063
3197.37	0.903
3206.16	0.8962
3214.95	0.891
3223.74	0.8945
3232.53	0.895
3241.32	0.892
3250.11	0.8912
3258.91	0.889
3267.7	0.889
3276.49	0.888
3285.28	0.886
3294.07	0.8842
3302.86	0.8812
3311.65	0.881
3320.44	0.881
3329.24	0.884
3338.03	0.8848
3346.82	0.8858
3355.61	0.888
3364.4	0.889
3373.19	0.892
3381.98	0.892
3390.77	0.893
3399.57	0.8969
3408.36	0.8999
3417.15	0.9039
3425.94	0.9098
3434.73	0.9139
3443.52	0.9198
3452.31	0.925
3461.1	0.9308
3469.9	0.9348
3478.69	0.9399
3487.48	0.944
3496.27	0.9479
3505.06	0.951
3513.85	0.9569
3522.64	0.961
3531.43	0.962
3540.23	0.9659
3549.02	0.969
3557.81	0.971
3566.6	0.955
3575.39	0.976
3584.18	0.976
3592.97	0.962
3601.76	0.976
3610.56	0.979
3619.35	0.977
3628.14	0.983
3636.93	0.9841
3645.72	0.986
3654.51	0.9859
3663.3	0.984
3672.09	0.976
3680.88	0.9771
3689.68	0.9831
3698.47	0.986
3707.26	0.9861
3716.05	0.991
3724.84	0.998
3733.63	0.99
3742.42	0.987
3751.21	0.983
3760.01	0.984
3768.8	0.9831
3777.59	0.986
3786.38	0.988
3795.17	0.99
