Infrared Spectrum: Ethyl 3-furoate
Formula: C 7 H 8 O 3
CAS: 614-98-2
State: gas
Origin: EPA-IR VAPOR PHASE LIBRARY
1/CM	ABSORBANCE
549.8	0.001438
559.445	0.001568
569.09	0.002318
578.734	0.009048
588.379	0.023488
598.024	0.042108
607.669	0.030468
617.313	0.014898
626.958	0.004858
636.603	0.002348
646.248	0.002998
655.893	0.003248
665.537	0.003788
675.182	0.003268
684.827	0.003228
694.472	0.003918
704.116	0.005058
713.761	0.011948
723.406	0.029528
733.051	0.057398
742.695	0.071058
752.34	0.095168
761.985	0.126178
771.63	0.086568
781.275	0.044058
790.919	0.025638
800.564	0.024498
810.209	0.033808
819.854	0.042488
829.498	0.041398
839.143	0.028008
848.788	0.018538
858.433	0.023568
868.078	0.066858
877.722	0.069848
887.367	0.024148
897.012	0.008978
906.657	0.006398
916.301	0.006258
925.946	0.007098
935.591	0.010298
945.236	0.024498
954.88	0.070478
964.525	0.080298
974.17	0.036658
983.815	0.022228
993.46	0.044808
1003.1	0.091828
1012.75	0.090458
1022.39	0.061958
1032.04	0.062268
1041.68	0.042118
1051.33	0.027798
1060.97	0.052538
1070.62	0.156138
1080.26	0.162238
1089.91	0.063608
1099.55	0.044578
1109.2	0.052598
1118.84	0.114678
1128.49	0.276388
1138.13	0.446998
1147.78	0.531708
1157.42	0.614898
1167.07	0.484588
1176.71	0.205108
1186.36	0.086758
1196	0.048088
1205.64	0.030998
1215.29	0.025228
1224.93	0.030138
1234.58	0.029748
1244.22	0.017858
1253.87	0.014368
1263.51	0.020748
1273.16	0.036638
1282.8	0.098968
1292.45	0.298538
1302.09	0.473478
1311.74	0.324658
1321.38	0.091818
1331.03	0.032368
1340.67	0.019638
1350.32	0.018648
1359.96	0.028698
1369.61	0.042188
1379.25	0.051758
1388.9	0.057888
1398.54	0.051258
1408.18	0.035598
1417.83	0.025598
1427.47	0.023258
1437.12	0.023938
1446.76	0.025378
1456.41	0.028318
1466.05	0.031558
1475.7	0.032518
1485.34	0.037428
1494.99	0.064828
1504.63	0.106288
1514.28	0.085438
1523.92	0.027478
1533.57	0.013678
1543.21	0.013068
1552.86	0.020668
1562.5	0.046318
1572.15	0.084298
1581.79	0.110888
1591.44	0.109568
1601.08	0.060878
1610.73	0.017448
1620.37	0.012668
1630.01	0.013158
1639.66	0.017618
1649.3	0.020568
1658.95	0.018898
1668.59	0.014548
1678.24	0.014458
1687.88	0.018238
1697.53	0.025858
1707.17	0.040298
1716.82	0.077648
1726.46	0.181148
1736.11	0.382598
1745.75	0.493968
1755.4	0.393328
1765.04	0.162718
1774.69	0.051998
1784.33	0.019698
1793.98	0.012088
1803.62	0.010518
1813.27	0.009728
1822.91	0.008308
1832.55	0.006778
1842.2	0.006098
1851.84	0.005948
1861.49	0.005588
1871.13	0.005298
1880.78	0.005508
1890.42	0.005768
1900.07	0.005298
1909.71	0.004688
1919.36	0.004518
1929	0.004108
1938.65	0.003598
1948.29	0.003248
1957.94	0.002708
1967.58	0.002678
1977.23	0.002938
1986.87	0.003718
1996.52	0.004568
2006.16	0.005098
2015.81	0.004828
2025.45	0.004078
2035.1	0.003288
2044.74	0.002798
2054.38	0.002398
2064.03	0.002458
2073.67	0.002678
2083.32	0.002748
2092.96	0.002668
2102.61	0.002688
2112.25	0.002358
2121.9	0.001858
2131.54	0.001828
2141.19	0.001808
2150.83	0.002138
2160.48	0.002338
2170.12	0.002358
2179.77	0.002008
2189.41	0.001738
2199.06	0.001488
2208.7	0.001908
2218.35	0.002418
2227.99	0.003398
2237.64	0.003838
2247.28	0.003548
2256.92	0.003418
2266.57	0.003278
2276.21	0.002918
2285.86	0.002868
2295.5	0.003628
2305.15	0.004678
2314.79	0.005278
2324.44	0.004558
2334.08	0.002948
2343.73	0.002158
2353.37	0.001878
2363.02	0.001958
2372.66	0.001778
2382.31	0.001648
2391.95	0.001488
2401.6	0.00129
2411.24	0.001488
2420.89	0.001868
2430.53	0.002028
2440.18	0.002328
2449.82	0.002298
2459.47	0.002148
2469.11	0.001968
2478.75	0.0013219
2488.4	0.0012539
2498.04	0.0012156
2507.69	0.001548
2517.33	0.002128
2526.98	0.002808
2536.62	0.002988
2546.27	0.002578
2555.91	0.001898
2565.56	0.001748
2575.2	0.001588
2584.85	0.0012872
2594.49	0.001418
2604.14	0.0013758
2613.78	0.001302
2623.43	0.0011577
2633.07	0.0011592
2642.72	0.0012334
2652.36	0.0012367
2662.01	0.0012169
2671.65	0.0013389
2681.29	0.0013675
2690.94	0.0012801
2700.58	0.001698
2710.23	0.001798
2719.87	0.002688
2729.52	0.003448
2739.16	0.003588
2748.81	0.003348
2758.45	0.002938
2768.1	0.002538
2777.74	0.002388
2787.39	0.002658
2797.03	0.002738
2806.68	0.002918
2816.32	0.003398
2825.97	0.003708
2835.61	0.003988
2845.26	0.004568
2854.9	0.005858
2864.55	0.008318
2874.19	0.012348
2883.84	0.018108
2893.48	0.019478
2903.12	0.020948
2912.77	0.024078
2922.41	0.025128
2932.06	0.031348
2941.7	0.045148
2951.35	0.047828
2960.99	0.044398
2970.64	0.055368
2980.28	0.083368
2989.93	0.088838
2999.57	0.060908
3009.22	0.038518
3018.86	0.022738
3028.51	0.013778
3038.15	0.009358
3047.8	0.007068
3057.44	0.005708
3067.09	0.004418
3076.73	0.003718
3086.38	0.003918
3096.02	0.003528
3105.67	0.003408
3115.31	0.003608
3124.95	0.004918
3134.6	0.005788
3144.24	0.005018
3153.89	0.004318
3163.53	0.004298
3173.18	0.003518
3182.82	0.002838
3192.47	0.001768
3202.11	0.0013585
3211.76	0.001284
3221.4	0.0009652
3231.05	0.0007767
3240.69	0.000759
3250.34	0.0005313
3259.98	0.0003409
3269.63	0.0003111
3279.27	0.000536
3288.92	0.0007307
3298.56	0.000786
3308.21	0.0013683
3317.85	0.0012871
3327.49	0.001578
3337.14	0.0008761
3346.78	0.0005838
3356.43	0.00042627
3366.07	0.0006341
3375.72	0.0002
3385.36	0.0008051
3395.01	0.000694
3404.65	0.0011274
3414.3	0.0007844
3423.94	0.0010257
3433.59	0.0010167
3443.23	0.001718
3452.88	0.002468
3462.52	0.003978
3472.17	0.004338
3481.81	0.003618
3491.46	0.002298
3501.1	0.0011387
3510.75	0.0008078
3520.39	0.0007135
3530.04	0.00044073
3539.68	0.0003313
3549.32	0.00019
3558.97	0.0006815
3568.61	0.00042359
3578.26	0.00044535
3587.9	0.000257
3597.55	0.0006054
3607.19	0.000496
3616.84	0.000378637
3626.48	0.0003677
3636.13	0.0003268
3645.77	0.00036978
3655.42	4.6e-05
3665.06	0.000123
3674.71	0.0007304
3684.35	0.000265
3694	0.000238
3703.64	0.00014
3713.29	0.000222
3722.93	0.0003429
3732.58	0.000104
3742.22	0.000233
3751.86	0.0005079
3761.51	0.00045557
3771.15	0.000253
3780.8	0.0006765
3790.44	0.000386311
3800.09	0.0005187
3809.73	0.0003279
3819.38	0.0003072
3829.02	0.00047336
3838.67	0.00041618
3848.31	0.0007005
3857.96	0.0005649
3867.6	0.0002852
3877.25	0.0002788
3886.89	0.000233
3896.54	0.0002918
3906.18	0.0005628
3915.83	0.0005449
3925.47	0.0005854
3935.12	0.0004957
3944.76	0.0005727
3954.41	0.0005242
3964.05	0.0005578
3973.69	0.0006421
3983.34	0.0010374
3992.98	0.0010964
