Infrared Spectrum: 1,2-DIPHENYLETHANOL
Formula: C14 H14 O
CAS: 614-29-9
State: SOLID (KBr PELLET)
Melting point: 66-67 C
Class: COBLENTZ
Instrument: Not specified, most likely a prism, grating, or hybrid spectrometer.
Sampling: TRANSMISSION
Resolution: 4
Origin: WYANDOTTE CHEMICALS CORP., WYANDOTTE, MICHIGAN, USA
MICROMETERS	TRANSMITTANCE
2.02	0.774
2.06086	0.766
2.10172	0.784
2.14258	0.796
2.18343	0.802
2.22429	0.808
2.26515	0.815
2.30601	0.827
2.34687	0.831
2.38773	0.817
2.42858	0.834
2.46944	0.853
2.5103	0.856
2.55116	0.865
2.59202	0.873
2.63288	0.873
2.67374	0.863
2.71459	0.844
2.75545	0.74
2.79631	0.587
2.83717	0.476
2.87803	0.36
2.91889	0.245
2.95974	0.15
3.0006	0.076
3.04146	0.052
3.08232	0.151
3.12318	0.307
3.16404	0.445
3.2049	0.544
3.24575	0.46
3.28661	0.382
3.32747	0.604
3.36833	0.486
3.40919	0.368
3.45005	0.501
3.4909	0.351
3.53176	0.588
3.57262	0.662
3.61348	0.716
3.65434	0.759
3.6952	0.767
3.73605	0.779
3.77691	0.81
3.81777	0.819
3.85863	0.824
3.89949	0.834
3.94035	0.865
3.98121	0.877
4.02206	0.883
4.06292	0.89
4.10378	0.897
4.14464	0.911
4.1855	0.916
4.22636	0.926
4.26721	0.941
4.30807	0.938
4.34893	0.924
4.38979	0.931
4.43065	0.95
4.47151	0.959
4.51237	0.959
4.55322	0.962
4.59408	0.964
4.63494	0.965
4.6758	0.967
4.71666	0.965
4.75752	0.962
4.79837	0.96
4.83923	0.959
4.88009	0.957
4.92095	0.957
4.96181	0.959
5.00267	0.962
5.04353	0.964
5.08438	0.947
5.12524	0.907
5.1661	0.882
5.20696	0.933
5.24782	0.969
5.28868	0.943
5.32953	0.895
5.37039	0.914
5.41125	0.967
5.45211	0.976
5.49297	0.957
5.53383	0.909
5.57469	0.933
5.61554	0.97
5.6564	0.948
5.69726	0.923
5.73812	0.892
5.77898	0.866
5.81984	0.836
5.86069	0.825
5.90155	0.824
5.94241	0.798
5.98327	0.778
6.02413	0.749
6.06499	0.715
6.10585	0.682
6.1467	0.704
6.18756	0.569
6.22842	0.716
6.26928	0.737
6.31014	0.831
6.351	0.837
6.39185	0.817
6.43271	0.829
6.47357	0.825
6.51443	0.846
6.55529	0.829
6.59615	0.786
6.637	0.423
6.67786	0.438
6.71872	0.679
6.75958	0.706
6.80044	0.598
6.8413	0.215
6.88216	0.296
6.92301	0.527
6.96387	0.517
7.00473	0.469
7.04559	0.399
7.08645	0.392
7.12731	0.421
7.16816	0.467
7.20902	0.552
7.24988	0.605
7.29074	0.641
7.3316	0.612
7.37246	0.691
7.41332	0.701
7.45417	0.602
7.49503	0.529
7.53589	0.469
7.57675	0.406
7.61761	0.593
7.65847	0.578
7.69932	0.645
7.74018	0.612
7.78104	0.522
7.8219	0.445
7.86276	0.459
7.90362	0.53
7.94448	0.522
7.98533	0.534
8.02619	0.595
8.06705	0.634
8.10791	0.658
8.14877	0.674
8.18963	0.658
8.23048	0.537
8.27134	0.537
8.3122	0.602
8.35306	0.593
8.39392	0.679
8.43478	0.656
8.47564	0.638
8.51649	0.679
8.55735	0.701
8.59821	0.672
8.63907	0.643
8.67993	0.578
8.72079	0.726
8.76164	0.769
8.8025	0.759
8.84336	0.737
8.88422	0.708
8.92508	0.662
8.96594	0.638
9.0068	0.634
9.04765	0.626
9.08851	0.605
9.12937	0.576
9.17023	0.523
9.21109	0.477
9.25195	0.383
9.2928	0.143
9.33366	0.36
9.37452	0.513
9.41538	0.486
9.45624	0.387
9.4971	0.235
9.53795	0.093
9.57881	0.034
9.61967	0.093
9.66053	0.107
9.70139	0.054
9.74225	0.133
9.78311	0.196
9.82396	0.206
9.86482	0.356
9.90568	0.45
9.94654	0.5
9.9874	0.54
10.0283	0.622
10.0691	0.653
10.11	0.694
10.1508	0.723
10.1917	0.742
10.2325	0.783
10.2734	0.738
10.3143	0.767
10.3551	0.802
10.396	0.812
10.4368	0.795
10.4777	0.665
10.5186	0.568
10.5594	0.699
10.6003	0.779
10.6411	0.82
10.682	0.829
10.7229	0.837
10.7637	0.824
10.8046	0.817
10.8454	0.798
10.8863	0.633
10.9271	0.626
10.968	0.709
11.0089	0.783
11.0497	0.781
11.0906	0.808
11.1314	0.87
11.1723	0.885
11.2132	0.895
11.254	0.89
11.2949	0.889
11.3357	0.889
11.3766	0.889
11.4174	0.885
11.4583	0.878
11.4992	0.882
11.54	0.897
11.5809	0.901
11.6217	0.897
11.6626	0.856
11.7035	0.817
11.7443	0.819
11.7852	0.831
11.826	0.846
11.8669	0.86
11.9077	0.875
11.9486	0.878
11.9895	0.86
12.0303	0.796
12.0712	0.747
12.112	0.796
12.1529	0.819
12.1938	0.831
12.2346	0.832
12.2755	0.832
12.3163	0.832
12.3572	0.829
12.398	0.822
12.4389	0.822
12.4798	0.815
12.5206	0.802
12.5615	0.79
12.6023	0.767
12.6432	0.75
12.6841	0.716
12.7249	0.621
12.7658	0.493
12.8066	0.276
12.8475	0.232
12.8883	0.414
12.9292	0.539
12.9701	0.527
13.0109	0.501
13.0518	0.39
13.0926	0.168
13.1335	0.11
13.1744	0.22
13.2152	0.353
13.2561	0.445
13.2969	0.498
13.3378	0.476
13.3786	0.377
13.4195	0.196
13.4604	0.107
13.5012	0.182
13.5421	0.365
13.5829	0.462
13.6238	0.558
13.6647	0.598
13.7055	0.619
13.7464	0.624
13.7872	0.614
13.8281	0.636
13.869	0.645
13.9098	0.651
13.9507	0.65
13.9915	0.643
14.0324	0.59
14.0732	0.503
14.1141	0.354
14.155	0.204
14.1958	0.139
14.2367	0.097
14.2775	0.08
14.3184	0.071
14.3593	0.073
14.4001	0.081
14.441	0.145
14.4818	0.244
14.5227	0.365
14.5635	0.457
14.6044	0.525
14.6453	0.556
14.6861	0.581
14.727	0.58
14.7678	0.587
14.8087	0.581
14.8496	0.573
14.8904	0.583
14.9313	0.59
14.9721	0.593
15.013	0.587
15.0538	0.587
15.0947	0.614
15.1356	0.634
15.1764	0.646
15.2173	0.648
15.2581	0.65
15.299	0.655
15.3399	0.656
15.3807	0.655
15.4216	0.653
15.4624	0.651
15.5033	0.646
15.5441	0.633
15.585	0.634
15.6259	0.634
15.6667	0.631
15.7076	0.626
15.7484	0.624
15.7893	0.621
15.8302	0.619
15.871	0.604
15.9119	0.59
15.9527	0.59
15.9936	0.568
