Infrared Spectrum: Alpha-n-HEXYL BENZYL ALCOHOL
Formula: C13 H20 O
CAS: 614-54-0
State: LIQUID
Boiling point: 155-160 C AT 15 mmHg
Class: COBLENTZ
Instrument: Not specified, most likely a prism, grating, or hybrid spectrometer.
Sampling: TRANSMISSION
Path length: 0.003 CM
Resolution: 4
Origin: WYANDOTTE CHEMICALS CORP., WYANDOTTE, MICHIGAN, USA
MICROMETERS	TRANSMITTANCE
2.02	0.954
2.06086	0.952
2.10172	0.955
2.14258	0.967
2.18343	0.971
2.22429	0.959
2.26515	0.952
2.30601	0.947
2.34687	0.952
2.38773	0.933
2.42858	0.938
2.46944	0.959
2.5103	0.964
2.55116	0.965
2.59202	0.981
2.63288	0.976
2.67374	0.972
2.71459	0.948
2.75545	0.916
2.79631	0.758
2.83717	0.632
2.87803	0.502
2.91889	0.386
2.95975	0.321
3.0006	0.281
3.04146	0.313
3.08232	0.437
3.12318	0.557
3.16404	0.659
3.2049	0.724
3.24575	0.654
3.28661	0.545
3.32747	0.591
3.36833	0.235
3.40919	0.052
3.45005	0.117
3.49091	0.192
3.53176	0.247
3.57262	0.654
3.61348	0.763
3.65434	0.8
3.6952	0.812
3.73606	0.824
3.77691	0.831
3.81777	0.85
3.85863	0.865
3.89949	0.884
3.94035	0.908
3.98121	0.913
4.02207	0.913
4.06292	0.919
4.10378	0.921
4.14464	0.93
4.1855	0.933
4.22636	0.936
4.26722	0.94
4.30807	0.957
4.34893	0.962
4.38979	0.962
4.43065	0.964
4.47151	0.964
4.51237	0.965
4.55323	0.969
4.59408	0.972
4.63494	0.974
4.6758	0.977
4.71666	0.981
4.75752	0.981
4.79838	0.981
4.83924	0.977
4.88009	0.976
4.92095	0.976
4.96181	0.976
5.00267	0.974
5.04353	0.972
5.08439	0.965
5.12524	0.952
5.1661	0.921
5.20696	0.93
5.24782	0.964
5.28868	0.959
5.32954	0.928
5.3704	0.928
5.41125	0.95
5.45211	0.965
5.49297	0.955
5.53383	0.928
5.57469	0.919
5.61555	0.943
5.6564	0.942
5.69726	0.926
5.73812	0.923
5.77898	0.884
5.81984	0.817
5.8607	0.735
5.90156	0.461
5.94241	0.441
5.98327	0.596
6.02413	0.817
6.06499	0.863
6.10585	0.868
6.14671	0.855
6.18756	0.725
6.22842	0.787
6.26928	0.776
6.31014	0.873
6.351	0.894
6.39186	0.889
6.43272	0.865
6.47357	0.856
6.51443	0.87
6.55529	0.863
6.59615	0.829
6.63701	0.621
6.67787	0.611
6.71873	0.734
6.75958	0.482
6.80044	0.313
6.8413	0.199
6.88216	0.408
6.92302	0.534
6.96388	0.589
7.00473	0.616
7.04559	0.586
7.08645	0.57
7.12731	0.582
7.16817	0.582
7.20903	0.548
7.24989	0.471
7.29074	0.531
7.3316	0.553
7.37246	0.58
7.41332	0.582
7.45418	0.565
7.49504	0.546
7.53589	0.529
7.57675	0.521
7.61761	0.528
7.65847	0.538
7.69933	0.541
7.74019	0.529
7.78105	0.507
7.8219	0.505
7.86276	0.541
7.90362	0.558
7.94448	0.562
7.98534	0.557
8.0262	0.541
8.06705	0.565
8.10791	0.579
8.14877	0.543
8.18963	0.591
8.23049	0.594
8.27135	0.533
8.31221	0.482
8.35306	0.584
8.39392	0.657
8.43478	0.655
8.47564	0.633
8.5165	0.717
8.55736	0.764
8.59822	0.773
8.63907	0.78
8.67993	0.834
8.72079	0.851
8.76165	0.85
8.80251	0.797
8.84337	0.706
8.88422	0.623
8.92508	0.582
8.96594	0.574
9.0068	0.596
9.04766	0.635
9.08852	0.65
9.12938	0.606
9.17023	0.563
9.21109	0.497
9.25195	0.459
9.29281	0.448
9.33367	0.424
9.37453	0.35
9.41538	0.332
9.45624	0.371
9.4971	0.356
9.53796	0.321
9.57882	0.323
9.61968	0.349
9.66054	0.342
9.70139	0.318
9.74225	0.342
9.78311	0.367
9.82397	0.403
9.86483	0.403
9.90569	0.405
9.94655	0.41
9.9874	0.461
10.0283	0.517
10.0691	0.543
10.11	0.563
10.1508	0.587
10.1917	0.606
10.2326	0.625
10.2734	0.626
10.3143	0.64
10.3551	0.655
10.396	0.679
10.4368	0.695
10.4777	0.706
10.5186	0.725
10.5594	0.724
10.6003	0.715
10.6411	0.713
10.682	0.72
10.7229	0.734
10.7637	0.741
10.8046	0.739
10.8454	0.729
10.8863	0.701
10.9271	0.657
10.968	0.608
11.0089	0.654
11.0497	0.729
11.0906	0.752
11.1314	0.759
11.1723	0.758
11.2132	0.763
11.254	0.766
11.2949	0.776
11.3357	0.78
11.3766	0.756
11.4175	0.737
11.4583	0.735
11.4992	0.759
11.54	0.771
11.5809	0.788
11.6217	0.798
11.6626	0.792
11.7035	0.793
11.7443	0.785
11.7852	0.776
11.826	0.763
11.8669	0.766
11.9078	0.783
11.9486	0.798
11.9895	0.802
12.0303	0.793
12.0712	0.768
12.112	0.764
12.1529	0.764
12.1938	0.768
12.2346	0.78
12.2755	0.778
12.3163	0.773
12.3572	0.768
12.3981	0.764
12.4389	0.759
12.4798	0.756
12.5206	0.754
12.5615	0.749
12.6023	0.732
12.6432	0.725
12.6841	0.7
12.7249	0.686
12.7658	0.666
12.8066	0.633
12.8475	0.594
12.8884	0.563
12.9292	0.529
12.9701	0.487
13.0109	0.408
13.0518	0.333
13.0926	0.289
13.1335	0.252
13.1744	0.25
13.2152	0.274
13.2561	0.306
13.2969	0.34
13.3378	0.373
13.3787	0.39
13.4195	0.41
13.4604	0.434
13.5012	0.459
13.5421	0.483
13.5829	0.517
13.6238	0.546
13.6647	0.56
13.7055	0.553
13.7464	0.533
13.7872	0.511
13.8281	0.502
13.869	0.517
13.9098	0.533
13.9507	0.543
13.9915	0.54
14.0324	0.521
14.0733	0.5
14.1141	0.468
14.155	0.403
14.1958	0.306
14.2367	0.195
14.2775	0.143
14.3184	0.107
14.3593	0.107
14.4001	0.158
14.441	0.24
14.4818	0.318
14.5227	0.369
14.5636	0.415
14.6044	0.463
14.6453	0.517
14.6861	0.567
14.727	0.599
14.7678	0.608
14.8087	0.616
14.8496	0.614
14.8904	0.62
14.9313	0.611
14.9721	0.616
15.013	0.616
15.0539	0.621
15.0947	0.628
15.1356	0.633
15.1764	0.633
15.2173	0.633
15.2581	0.633
15.299	0.621
15.3399	0.63
15.3807	0.628
15.4216	0.623
15.4624	0.628
15.5033	0.637
15.5442	0.637
15.585	0.632
15.6259	0.628
15.6667	0.625
15.7076	0.626
15.7484	0.625
15.7893	0.625
15.8302	0.62
15.871	0.62
15.9119	0.613
15.9527	0.62
15.9936	0.618
