Infrared Spectrum: 3-Nitrochalcone
Formula: C 15 H 11 N O 3
CAS: 614-48-2
State: gas
Origin: EPA-IR VAPOR PHASE LIBRARY
1/CM	ABSORBANCE
549.9	0.002172
559.547	0.002762
569.193	0.004222
578.84	0.003762
588.486	0.002972
598.133	0.002432
607.779	0.001531
617.426	0.0015732
627.072	0.001523
636.719	0.002002
646.365	0.002952
656.012	0.006342
665.658	0.006882
675.305	0.006052
684.951	0.008212
694.598	0.007882
704.245	0.005952
713.891	0.004742
723.538	0.007802
733.184	0.010612
742.831	0.004592
752.477	0.002842
762.124	0.003512
771.77	0.004782
781.417	0.003972
791.063	0.004522
800.71	0.006702
810.356	0.004072
820.003	0.003282
829.649	0.003482
839.296	0.002482
848.943	0.003072
858.589	0.005302
868.236	0.004342
877.882	0.0019342
887.529	0.0017683
897.175	0.002012
906.822	0.002192
916.468	0.002372
926.115	0.002482
935.761	0.002242
945.408	0.002292
955.054	0.002872
964.701	0.005182
974.347	0.007632
983.994	0.006672
993.64	0.007502
1003.29	0.010062
1012.93	0.016402
1022.58	0.006372
1032.23	0.004512
1041.87	0.002682
1051.52	0.002572
1061.17	0.003652
1070.81	0.004472
1080.46	0.004072
1090.11	0.003922
1099.75	0.004282
1109.4	0.002602
1119.05	0.001894
1128.69	0.0016344
1138.34	0.0016014
1147.99	0.0018133
1157.63	0.002142
1167.28	0.003692
1176.92	0.008152
1186.57	0.005862
1196.22	0.006362
1205.86	0.015212
1215.51	0.017372
1225.16	0.006822
1234.8	0.005062
1244.45	0.005342
1254.1	0.006532
1263.74	0.011532
1273.39	0.014382
1283.04	0.012092
1292.68	0.012512
1302.33	0.014122
1311.98	0.017412
1321.62	0.018772
1331.27	0.014552
1340.92	0.014412
1350.56	0.026152
1360.21	0.025752
1369.86	0.008352
1379.5	0.003992
1389.15	0.002862
1398.79	0.002372
1408.44	0.002152
1418.09	0.002372
1427.73	0.002972
1437.38	0.004422
1447.03	0.006442
1456.67	0.003522
1466.32	0.003062
1475.97	0.004032
1485.61	0.004052
1495.26	0.004412
1504.91	0.005112
1514.55	0.005252
1524.2	0.006962
1533.85	0.015952
1543.49	0.039642
1553.14	0.028452
1562.79	0.011092
1572.43	0.009802
1582.08	0.009692
1591.73	0.008252
1601.37	0.008712
1611.02	0.013382
1620.67	0.021942
1630.31	0.010082
1639.96	0.004882
1649.6	0.004832
1659.25	0.006782
1668.9	0.013112
1678.54	0.017832
1688.19	0.018112
1697.84	0.008572
1707.48	0.004092
1717.13	0.002952
1726.78	0.002272
1736.42	0.0017274
1746.07	0.001592
1755.72	0.0015574
1765.36	0.0015408
1775.01	0.001567
1784.66	0.0014577
1794.3	0.0015089
1803.95	0.0017663
1813.6	0.0016617
1823.24	0.001544
1832.89	0.0014373
1842.54	0.0013514
1852.18	0.0011552
1861.83	0.0010629
1871.47	0.0011471
1881.12	0.0012722
1890.77	0.0014867
1900.41	0.0015178
1910.06	0.0012317
1919.71	0.00097996
1929.35	0.00100215
1939	0.0011219
1948.65	0.0013837
1958.29	0.0013749
1967.94	0.0012449
1977.59	0.00101824
1987.23	0.0008569
1996.88	0.000819
2006.53	0.000837
2016.17	0.0008609
2025.82	0.00084
2035.47	0.00084
2045.11	0.00074
2054.76	0.00074
2064.41	0.000777
2074.05	0.000716
2083.7	0.000669
2093.35	0.0007
2102.99	0.000661
2112.64	0.000745
2122.28	0.000658
2131.93	0.000687
2141.58	0.000627
2151.22	0.000648
2160.87	0.000614
2170.52	0.000627
2180.16	0.000623
2189.81	0.000591
2199.46	0.000641
2209.1	0.000627
2218.75	0.000604
2228.4	0.000613
2238.04	0.000591
2247.69	0.000598
2257.34	0.000603
2266.98	0.000643
2276.63	0.000589
2286.28	0.000641
2295.92	0.000665
2305.57	0.000652
2315.22	0.000712
2324.86	0.00082
2334.51	0.000793
2344.16	0.000728
2353.8	0.000644
2363.45	0.000668
2373.09	0.000644
2382.74	0.000585
2392.39	0.000576
2402.03	0.000554
2411.68	0.000574
2421.33	0.000527
2430.97	0.00053
2440.62	0.000521
2450.27	0.000491
2459.91	0.000511
2469.56	0.000473
2479.21	0.000449
2488.85	0.000443
2498.5	0.000418
2508.15	0.000436
2517.79	0.000399
2527.44	0.000368
2537.09	0.000295
2546.73	0.00037
2556.38	0.000375
2566.03	0.000405
2575.67	0.00038
2585.32	0.000427
2594.96	0.000387
2604.61	0.000432
2614.26	0.000342
2623.9	0.00037
2633.55	0.00037
2643.2	0.000323
2652.84	0.00029
2662.49	0.00026
2672.14	0.000321
2681.78	0.000338
2691.43	0.000289
2701.08	0.000356
2710.72	0.000198
2720.37	0.000189
2730.02	0.000169
2739.66	0.000133
2749.31	4.9e-05
2758.96	3.4e-05
2768.6	0.000159
2778.25	8.1e-05
2787.9	0.000148
2797.54	0.000214
2807.19	8.8e-05
2816.84	0.000139
2826.48	0.00019
2836.13	0.000234
2845.77	0.000198
2855.42	0.00023
2865.07	0.000348
2874.71	0.000433
2884.36	0.000579
2894.01	0.000604
2903.65	0.000424
2913.3	0.000253
2922.95	0.000175
2932.59	0.000171
2942.24	0.000101
2951.89	0.000153
2961.53	0.00018
2971.18	0
2980.83	7.1e-05
2990.47	0.000102
3000.12	0.000307
3009.77	0.000439
3019.41	0.000801
3029.06	0.0017237
3038.71	0.002762
3048.35	0.002572
3058	0.003082
3067.64	0.004822
3077.29	0.005782
3086.94	0.004392
3096.58	0.002992
3106.23	0.0017081
3115.88	0.000761
3125.52	0.000461
3135.17	0.000305
3144.82	0.000251
3154.46	0.000164
3164.11	0.000285
3173.76	0.000176
3183.4	0.000255
3193.05	0.000295
3202.7	0.000252
3212.34	0.000125
3221.99	0.000337
3231.64	0.000419
3241.28	0.000321
3250.93	0.000348
3260.58	0.000324
3270.22	0.000411
3279.87	0.000438
3289.52	0.000497
3299.16	0.000527
3308.81	0.000566
3318.45	0.000617
3328.1	0.000614
3337.75	0.0009137
3347.39	0.000626
3357.04	0.000806
3366.69	0.000812
3376.33	0.000778
3385.98	0.000658
3395.63	0.000711
3405.27	0.000653
3414.92	0.00076
3424.57	0.000787
3434.21	0.000719
3443.86	0.000583
3453.51	0.000735
3463.15	0.000729
3472.8	0.000722
3482.45	0.000799
3492.09	0.000772
3501.74	0.000648
3511.39	0.000822
3521.03	0.000758
3530.68	0.000702
3540.33	0.00063
3549.97	0.000746
3559.62	0.000737
3569.26	0.0008881
3578.91	0.00067
3588.56	0.000878
3598.2	0.0008465
3607.85	0.000812
3617.5	0.000776
3627.14	0.000838
3636.79	0.000829
3646.44	0.000767
3656.08	0.000773
3665.73	0.00082
3675.38	0.000812
3685.02	0.0008532
3694.67	0.000753
3704.32	0.000756
3713.96	0.000839
3723.61	0.000682
3733.26	0.0008464
3742.9	0.0009222
3752.55	0.000801
3762.2	0.000727
3771.84	0.000698
3781.49	0.000805
3791.13	0.000645
3800.78	0.000738
3810.43	0.000692
3820.07	0.000669
3829.72	0.000659
3839.37	0.000725
3849.01	0.000728
3858.66	0.000757
3868.31	0.000647
3877.95	0.000665
3887.6	0.000742
3897.25	0.000815
3906.89	0.000663
3916.54	0.000625
3926.19	0.000614
3935.83	0.000607
3945.48	0.000588
3955.13	0.000593
3964.77	0.000581
3974.42	0.000574
3984.07	0.000478
3993.71	0.000511
