Infrared Spectrum: N-Benzyl-N-methyl aniline
Formula: C14 H15 N
CAS: 614-30-2
State: SOLUTION (10% CCl4 FOR 3800-1340, 10% CS2 FOR 1340-450 CM^-^1)
Class: COBLENTZ III
Instrument: DOW KBr FOREPRISM-GRATING
Instrument parameters: BLAZED AT 3.5, 12.0, 20.0 MICRON AND CHANGED AT 5.0, 7.5, 14.9 MICRON
Sampling: TRANSMISSION
Path length: 0.011 CM, 0.011 CM
Resolution: 2
Origin: DOW CHEMICAL COMPANY
1/CM	TRANSMITTANCE
3816	0.9163
3807	0.9151
3798	0.9129
3789	0.9147
3780	0.9152
3771	0.9153
3762	0.9154
3753	0.9155
3744	0.9151
3735	0.9163
3726	0.9151
3717	0.9116
3708	0.9088
3699	0.9086
3690	0.9097
3681	0.9089
3672	0.906
3663	0.9032
3654	0.9017
3645	0.9013
3636	0.9031
3627	0.9071
3618	0.9097
3609	0.9124
3600	0.9145
3591	0.9171
3582	0.9185
3573	0.9197
3564	0.9185
3555	0.9206
3546	0.9209
3537	0.92
3528	0.9185
3519	0.9181
3510	0.9172
3501	0.9163
3492	0.9153
3483	0.9138
3474	0.9124
3465	0.9107
3456	0.9089
3447	0.9072
3438	0.9056
3429	0.906
3420	0.9081
3411	0.9102
3402	0.9124
3393	0.9146
3384	0.9162
3375	0.9159
3366	0.9158
3357	0.9156
3348	0.9159
3339	0.9166
3330	0.9176
3321	0.9185
3312	0.9205
3303	0.9177
3294	0.9165
3285	0.9153
3276	0.9144
3267	0.9136
3258	0.9118
3249	0.9101
3240	0.9084
3231	0.9067
3222	0.9052
3213	0.9028
3204	0.8988
3195	0.8982
3186	0.8949
3177	0.8921
3168	0.8897
3159	0.8879
3150	0.8849
3141	0.8795
3132	0.8561
3123	0.8185
3114	0.7753
3105	0.5926
3096	0.5792
3087	0.653
3078	0.5174
3069	0.4268
3060	0.5702
3051	0.5407
3042	0.4387
3033	0.3886
3024	0.5887
3015	0.6943
3006	0.6808
2997	0.6202
2988	0.3809
2979	0.2829
2970	0.433
2961	0.5866
2952	0.6045
2943	0.5052
2934	0.4547
2925	0.5048
2916	0.5608
2907	0.556
2898	0.5271
2889	0.5321
2880	0.4916
2871	0.5186
2862	0.5992
2853	0.6425
2844	0.6654
2835	0.6854
2826	0.7097
2817	0.7366
2808	0.7831
2799	0.823
2790	0.8385
2781	0.8465
2772	0.8528
2763	0.858
2754	0.8619
2745	0.8642
2736	0.866
2727	0.8671
2718	0.8656
2709	0.8637
2700	0.8618
2691	0.8645
2682	0.8677
2673	0.8712
2664	0.8746
2655	0.8741
2646	0.8695
2637	0.8632
2628	0.8639
2619	0.8634
2610	0.8628
2601	0.8607
2592	0.8583
2583	0.859
2574	0.862
2565	0.865
2556	0.8673
2547	0.8693
2538	0.8705
2529	0.872
2520	0.8736
2511	0.8753
2502	0.8778
2493	0.8802
2484	0.8825
2475	0.8844
2466	0.8838
2457	0.8821
2448	0.8816
2439	0.881
2430	0.8811
2421	0.8832
2412	0.8852
2403	0.8866
2394	0.8848
2385	0.883
2376	0.887
2367	0.8856
2358	0.8838
2349	0.8812
2340	0.8796
2331	0.8778
2322	0.8805
2313	0.8793
2304	0.8788
2295	0.8806
2286	0.8801
2277	0.8782
2268	0.8734
2259	0.8707
2250	0.8692
2241	0.8719
2232	0.8756
2223	0.8765
2214	0.8741
2205	0.8746
2196	0.875
2187	0.8741
2178	0.8764
2169	0.8771
2160	0.8742
2151	0.8717
2142	0.8691
2133	0.8695
2124	0.871
2115	0.8723
2106	0.8738
2097	0.8737
2088	0.8758
2079	0.8749
2070	0.8702
2061	0.8709
2052	0.8719
2043	0.8703
2034	0.8685
2025	0.8679
2016	0.8665
2007	0.8639
1998	0.8621
1989	0.8615
1980	0.8611
1971	0.8603
1962	0.8459
1953	0.8347
1944	0.8071
1935	0.8218
1926	0.8225
1917	0.8251
1908	0.8004
1899	0.8363
1890	0.8342
1881	0.8414
1872	0.8325
1863	0.8371
1854	0.8459
1845	0.8433
1836	0.8446
1827	0.834
1818	0.8224
1809	0.8055
1800	0.8019
1791	0.8434
1782	0.8524
1773	0.8469
1764	0.843
1755	0.8258
1746	0.8241
1737	0.8251
1728	0.8321
1719	0.8378
1710	0.8287
1701	0.8252
1692	0.8207
1683	0.8194
1674	0.8201
1665	0.8155
1656	0.8129
1647	0.8067
1638	0.7807
1629	0.7323
1620	0.5982
1611	0.2233
1602	0.0398
1593	0.0513
1584	0.4074
1575	0.3542
1566	0.662
1557	0.7236
1548	0.737
1539	0.7065
1530	0.6882
1521	0.5111
1512	0.1227
1503	0.0067
1494	0.2921
1485	0.5047
1476	0.5335
1467	0.5901
1458	0.4741
1449	0.2757
1440	0.5607
1431	0.7229
1422	0.7674
1413	0.7454
1404	0.4696
1395	0.272
1386	0.3828
1377	0.2463
1368	0.4099
1359	0.138
1350	0.158
1341	0.4702
1332	0.6023
1323	0.6042
1314	0.7098
1305	0.7175
1296	0.6485
1287	0.6334
1278	0.4956
1269	0.4085
1260	0.5124
1251	0.4555
1242	0.204
1233	0.4647
1224	0.5855
1215	0.6807
1206	0.6655
1197	0.2701
1188	0.4761
1179	0.3858
1170	0.5077
1161	0.7096
1152	0.7223
1143	0.8294
1134	0.8393
1125	0.5478
1116	0.719
1107	0.8347
1098	0.8657
1089	0.8848
1080	0.845
1071	0.5558
1062	0.7695
1053	0.8666
1044	0.858
1035	0.4694
1026	0.4512
1017	0.8166
1008	0.7217
999	0.7559
990	0.7264
981	0.4962
972	0.5846
963	0.787
954	0.862
945	0.8975
936	0.9117
927	0.9193
918	0.9173
909	0.8902
900	0.7873
891	0.8879
882	0.8851
873	0.7355
864	0.8398
855	0.6949
846	0.8321
837	0.8594
828	0.8776
819	0.8602
810	0.8191
801	0.7725
792	0.7638
783	0.8184
774	0.8366
765	0.7597
756	0.4889
747	0.0346
738	0.3892
729	0.2903
720	0.2752
711	0.7191
702	0.6608
693	0.0618
684	0.3802
675	0.7766
666	0.8571
657	0.8864
648	0.8762
639	0.9041
630	0.9027
621	0.8495
612	0.7733
603	0.8383
594	0.9043
585	0.9126
576	0.9084
567	0.8944
558	0.8742
549	0.8561
540	0.8503
531	0.8069
522	0.7046
513	0.6805
504	0.7519
495	0.8091
486	0.8312
477	0.8346
468	0.8196
459	0.686
450	0.6882
