Infrared Spectrum: Cinnamylideneacetophenone
Formula: C 17 H 14 O
CAS: 614-57-3
State: gas
Origin: EPA-IR VAPOR PHASE LIBRARY
1/CM	ABSORBANCE
549.9	0.001497
559.547	0.001947
569.193	0.0012517
578.84	0.0012459
588.486	0.0012623
598.133	0.001376
607.779	0.001497
617.426	0.002337
627.072	0.003097
636.719	0.002107
646.365	0.002547
656.012	0.004187
665.658	0.006967
675.305	0.008497
684.951	0.012407
694.598	0.017747
704.245	0.011797
713.891	0.006107
723.538	0.005167
733.184	0.005757
742.831	0.005837
752.477	0.005187
762.124	0.006857
771.77	0.006207
781.417	0.003577
791.063	0.002227
800.71	0.001797
810.356	0.001967
820.003	0.002507
829.649	0.003487
839.296	0.003977
848.943	0.002827
858.589	0.001937
868.236	0.002087
877.882	0.002197
887.529	0.001797
897.175	0.001517
906.822	0.001527
916.468	0.001797
926.115	0.002147
935.761	0.002727
945.408	0.003327
955.054	0.003577
964.701	0.004287
974.347	0.006067
983.994	0.010967
993.64	0.017527
1003.29	0.018907
1012.93	0.024147
1022.58	0.010027
1032.23	0.006577
1041.87	0.003127
1051.52	0.002897
1061.17	0.003937
1070.81	0.004767
1080.46	0.003377
1090.11	0.001947
1099.75	0.001697
1109.4	0.001517
1119.05	0.001547
1128.69	0.001977
1138.34	0.003547
1147.99	0.003357
1157.63	0.003127
1167.28	0.003097
1176.92	0.009517
1186.57	0.006847
1196.22	0.007637
1205.86	0.007437
1215.51	0.009647
1225.16	0.011097
1234.8	0.014127
1244.45	0.020137
1254.1	0.013007
1263.74	0.013017
1273.39	0.019657
1283.04	0.015817
1292.68	0.011747
1302.33	0.011507
1311.98	0.009137
1321.62	0.009747
1331.27	0.009627
1340.92	0.012407
1350.56	0.007287
1360.21	0.003187
1369.86	0.002297
1379.5	0.001817
1389.15	0.001407
1398.79	0.001447
1408.44	0.001847
1418.09	0.001967
1427.73	0.001967
1437.38	0.002817
1447.03	0.005887
1456.67	0.002977
1466.32	0.001657
1475.97	0.001507
1485.61	0.001787
1495.26	0.002677
1504.91	0.001487
1514.55	0.0013204
1524.2	0.001497
1533.85	0.001727
1543.49	0.001917
1553.14	0.002607
1562.79	0.004547
1572.43	0.008907
1582.08	0.016007
1591.73	0.030087
1601.37	0.033197
1611.02	0.020867
1620.67	0.016197
1630.31	0.008407
1639.96	0.005127
1649.6	0.006407
1659.25	0.014107
1668.9	0.021627
1678.54	0.019817
1688.19	0.011877
1697.84	0.005097
1707.48	0.002827
1717.13	0.001827
1726.78	0.001427
1736.42	0.0013687
1746.07	0.0013262
1755.72	0.0012928
1765.36	0.001487
1775.01	0.001487
1784.66	0.0013731
1794.3	0.001477
1803.95	0.001537
1813.6	0.0013762
1823.24	0.0011181
1832.89	0.0009611
1842.54	0.0009787
1852.18	0.0010489
1861.83	0.0011128
1871.47	0.0010978
1881.12	0.0011132
1890.77	0.0011364
1900.41	0.0009487
1910.06	0.0008633
1919.71	0.0007654
1929.35	0.000775
1939	0.0010122
1948.65	0.0011348
1958.29	0.00122
1967.94	0.0008466
1977.59	0.0005462
1987.23	0.0004459
1996.88	0.00046945
2006.53	0.00044217
2016.17	0.00042721
2025.82	0.00047125
2035.47	0.00041285
2045.11	0.00042413
2054.76	0.0003642
2064.41	0.0003766
2074.05	0.000283
2083.7	0.0003156
2093.35	0.0003301
2102.99	0.000282
2112.64	0.000286
2122.28	0.0003202
2131.93	0.000337
2141.58	0.0003536
2151.22	0.000338
2160.87	0.0003428
2170.52	0.0003053
2180.16	0.0003321
2189.81	0.0003265
2199.46	0.00028
2209.1	0.000335
2218.75	0.0003182
2228.4	0.0003433
2238.04	0.0003307
2247.69	0.0003273
2257.34	0.0003804
2266.98	0.000405553
2276.63	0.00042947
2286.28	0.00042405
2295.92	0.0003847
2305.57	0.000416
2315.22	0.0005828
2324.86	0.000509
2334.51	0.00049188
2344.16	0.00042522
2353.8	0.00041372
2363.45	0.00038848
2373.09	0.0003483
2382.74	0.0003254
2392.39	0.0003454
2402.03	0.0003397
2411.68	0.00038907
2421.33	0.0003677
2430.97	0.0003543
2440.62	0.0003779
2450.27	0.0003452
2459.91	0.000282
2469.56	0.0003128
2479.21	0.000286
2488.85	0.0003295
2498.5	0.0003069
2508.15	0.0003229
2517.79	0.0003226
2527.44	0.000291
2537.09	0.0003537
2546.73	0.0003311
2556.38	0.0003153
2566.03	0.0003462
2575.67	0.00041353
2585.32	0.00045784
2594.96	0.0005035
2604.61	0.000513
2614.26	0.00046934
2623.9	0.00043117
2633.55	0.00039493
2643.2	0.0003376
2652.84	0.0003008
2662.49	0.0003194
2672.14	0.000287
2681.78	0.000268
2691.43	0.000291
2701.08	0.0003005
2710.72	0.000266
2720.37	0.0003246
2730.02	0.0003527
2739.66	0.00039539
2749.31	0.0003465
2758.96	0.0003663
2768.6	0.0003397
2778.25	0.0003552
2787.9	0.00039321
2797.54	0.0003776
2807.19	0.0003501
2816.84	0.000381
2826.48	0.0003868
2836.13	0.00048061
2845.77	0.0005035
2855.42	0.0005314
2865.07	0.0006163
2874.71	0.0005607
2884.36	0.0006674
2894.01	0.000689
2903.65	0.0006722
2913.3	0.000687
2922.95	0.0006705
2932.59	0.0005533
2942.24	0.0005786
2951.89	0.0005613
2961.53	0.0005252
2971.18	0.0007488
2980.83	0.0007859
2990.47	0.0010229
3000.12	0.001807
3009.77	0.002687
3019.41	0.004677
3029.06	0.008987
3038.71	0.009377
3048.35	0.006207
3058	0.006877
3067.64	0.012757
3077.29	0.010277
3086.94	0.007897
3096.58	0.005187
3106.23	0.003347
3115.88	0.001437
3125.52	0.0008511
3135.17	0.00048991
3144.82	0.00049168
3154.46	0.0005308
3164.11	0.0003045
3173.76	0.000262
3183.4	0.000186
3193.05	0.000188
3202.7	0.000163
3212.34	0.000148
3221.99	0.000118
3231.64	0.000165
3241.28	0.000146
3250.93	0.000134
3260.58	0.000236
3270.22	0.000277
3279.87	0.0003378
3289.52	0.000315
3299.16	0.0003094
3308.81	0.00029
3318.45	0.00045704
3328.1	0.0003866
3337.75	0.00047267
3347.39	0.0005616
3357.04	0.000295
3366.69	0.0003619
3376.33	0.000138
3385.98	0.000175
3395.63	0.000245
3405.27	0.000162
3414.92	8.7e-05
3424.57	0.000127
3434.21	0.000141
3443.86	0.000119
3453.51	0.000279
3463.15	0.000173
3472.8	0.000155
3482.45	0.000162
3492.09	0.000239
3501.74	0.000163
3511.39	0.000222
3521.03	0.000193
3530.68	0.0003287
3540.33	0.00021
3549.97	0.000261
3559.62	0.0003083
3569.26	0.0003323
3578.91	0.0003349
3588.56	0.000281
3598.2	0.000275
3607.85	0.00027
3617.5	0.000213
3627.14	0.000278
3636.79	0.0003354
3646.44	0.00044572
3656.08	0.0004416
3665.73	0.0003292
3675.38	0.00038943
3685.02	0.0003267
3694.67	0.000371
3704.32	0.00043588
3713.96	0.0003139
3723.61	0.0003791
3733.26	0.0003381
3742.9	0.000229
3752.55	0.0003571
3762.2	0.00041023
3771.84	0.000271
3781.49	0.000239
3791.13	0.0003589
3800.78	0.0003303
3810.43	0.0003487
3820.07	0.000268
3829.72	0.000258
3839.37	0.0003001
3849.01	0.000278
3858.66	0.0003456
3868.31	0.00027
3877.95	0.0003452
3887.6	0.0003638
3897.25	0.0003458
3906.89	0.00045434
3916.54	0.00041599
3926.19	0.0003306
3935.83	0.0004389
3945.48	0.000274
3955.13	0.0003198
3964.77	0.000229
3974.42	0.0003557
3984.07	0.0003457
3993.71	0.0003687
