Infrared Spectrum: Phenetole, o-iodo-,
Formula: C8 H9 I O
CAS: 614-73-3
State: LIQUID (NEAT)
Boiling point: 131-132 C, AT 20 mmHg
Class: COBLENTZ III
Instrument: BAIRD (GRATING)
Instrument parameters: NaCl PRISM
Path length: 0.005 CM
Resolution: 2
Origin: WYANDOTTE CHEMICALS CORP.
1/CM	TRANSMITTANCE
626	0.8275
635	0.7054
644	0.5255
653	0.8196
662	0.9093
671	0.937
680	0.9282
689	0.9014
698	0.6983
707	0.6264
716	0.7426
725	0.6583
734	0.2372
743	0.0469
752	0.0468
761	0.3036
770	0.6054
779	0.7355
788	0.5745
797	0.5488
806	0.7365
815	0.7663
824	0.7898
833	0.8213
842	0.7835
851	0.8841
860	0.8942
869	0.9133
878	0.9134
887	0.8592
896	0.6236
905	0.5655
914	0.3494
923	0.091
932	0.5661
941	0.8513
950	0.8896
959	0.8657
968	0.8408
977	0.8555
986	0.8203
995	0.7501
1004	0.4156
1013	0.0788
1022	0.0337
1031	0.0516
1040	0.0228
1049	0.0143
1058	0.0437
1067	0.3665
1076	0.5947
1085	0.5261
1094	0.4083
1103	0.5627
1112	0.2422
1121	0.149
1130	0.078
1139	0.4628
1148	0.4517
1157	0.3216
1166	0.1953
1175	0.7004
1184	0.8127
1193	0.8325
1202	0.8137
1211	0.7469
1220	0.6352
1229	0.2252
1238	0.0125
1247	0.0099
1256	0.0163
1265	0.0261
1274	0.0156
1283	0.0144
1292	0.0174
1301	0.0413
1310	0.2654
1319	0.667
1328	0.7967
1337	0.8411
1346	0.8497
1355	0.8383
1364	0.7237
1373	0.5649
1382	0.4289
1391	0.1346
1400	0.1227
1409	0.2493
1418	0.3947
1427	0.5218
1436	0.4177
1445	0.1235
1454	0.0811
1463	0.0962
1472	0.0219
1481	0.0205
1490	0.0393
1499	0.2286
1508	0.4811
1517	0.5817
1526	0.7242
1535	0.8197
1544	0.836
1553	0.8356
1562	0.8124
1571	0.7076
1580	0.2636
1589	0.0789
1598	0.0378
1607	0.2715
1616	0.6112
1625	0.7491
1634	0.8375
1643	0.9219
1652	0.9224
1661	0.9376
1670	0.926
1679	0.9091
1688	0.9178
1697	0.9426
1706	0.9616
1715	0.9585
1724	0.9543
1733	0.9594
1742	0.9675
1751	0.9565
1760	0.9414
1769	0.9386
1778	0.9596
1787	0.9666
1796	0.9613
1805	0.9662
1814	0.9711
1823	0.9706
1832	0.9656
1841	0.957
1850	0.953
1859	0.9543
1868	0.9537
1877	0.9225
1886	0.8947
1895	0.9107
1904	0.925
1913	0.9194
1922	0.9117
1931	0.9253
1940	0.9577
1949	0.9726
1958	0.9801
1967	0.9853
1976	0.9915
1985	0.9922
1994	0.9879
2003	0.9754
2012	0.9527
2021	0.9392
2030	0.9403
2039	0.9529
2048	0.9597
2057	0.9593
2066	0.9598
2075	0.9676
2084	0.9772
2093	0.9845
2102	0.9892
2111	0.9916
2120	0.9931
2129	0.9936
2138	0.9941
2147	0.9939
2156	0.9936
2165	0.9932
2174	0.9926
2183	0.9917
2192	0.9908
2201	0.9898
2210	0.9885
2219	0.9867
2228	0.985
2237	0.9834
2246	0.9825
2255	0.9817
2264	0.983
2273	0.9856
2282	0.9851
2291	0.9887
2300	0.9881
2309	0.9873
2318	0.9862
2327	0.9851
2336	0.9836
2345	0.982
2354	0.9805
2363	0.9789
2372	0.9775
2381	0.976
2390	0.9762
2399	0.9809
2408	0.9826
2417	0.9836
2426	0.9838
2435	0.9821
2444	0.9793
2453	0.9698
2462	0.9578
2471	0.9455
2480	0.9342
2489	0.9308
2498	0.9288
2507	0.9278
2516	0.9155
2525	0.899
2534	0.8968
2543	0.8975
2552	0.8986
2561	0.9002
2570	0.9024
2579	0.9059
2588	0.9157
2597	0.9345
2606	0.9541
2615	0.9693
2624	0.9764
2633	0.9799
2642	0.9818
2651	0.9818
2660	0.981
2669	0.9791
2678	0.9764
2687	0.9703
2696	0.9626
2705	0.9499
2714	0.9346
2723	0.9201
2732	0.9075
2741	0.8961
2750	0.8911
2759	0.8921
2768	0.8955
2777	0.8992
2786	0.9005
2795	0.8982
2804	0.892
2813	0.8765
2822	0.8639
2831	0.8446
2840	0.8191
2849	0.7879
2858	0.7406
2867	0.7155
2876	0.6849
2885	0.6023
2894	0.4543
2903	0.3072
2912	0.2648
2921	0.263
2930	0.2619
2939	0.2617
2948	0.2639
2957	0.2559
2966	0.2494
2975	0.285
2984	0.3149
2993	0.2822
3002	0.2237
3011	0.1757
3020	0.2816
3029	0.4763
3038	0.663
3047	0.668
3056	0.6454
3065	0.5857
3074	0.5265
3083	0.5044
3092	0.5584
3101	0.6542
3110	0.7494
3119	0.8441
3128	0.8941
3137	0.9103
3146	0.9167
3155	0.9214
3164	0.9256
3173	0.9297
3182	0.9339
3191	0.9393
3200	0.9472
3209	0.9542
3218	0.9583
3227	0.9598
3236	0.9603
3245	0.9607
3254	0.961
3263	0.9615
3272	0.962
3281	0.9626
3290	0.9631
3299	0.9635
3308	0.964
3317	0.9641
3326	0.9632
3335	0.9623
3344	0.9611
3353	0.9595
3362	0.9581
3371	0.957
3380	0.9577
3389	0.9584
3398	0.9593
3407	0.9603
3416	0.9612
3425	0.9622
3434	0.9629
3443	0.9636
3452	0.9643
3461	0.9649
3470	0.9656
3479	0.9662
3488	0.9668
3497	0.9674
3506	0.9679
3515	0.9681
3524	0.9683
3533	0.9685
3542	0.9688
3551	0.9689
3560	0.9691
3569	0.9692
3578	0.9694
3587	0.9696
3596	0.9697
3605	0.9698
3614	0.9698
3623	0.9698
3632	0.9698
3641	0.9697
3650	0.9697
3659	0.9696
3668	0.9695
3677	0.9692
3686	0.9688
3695	0.9684
3704	0.968
3713	0.9676
3722	0.9673
3731	0.9667
3740	0.966
3749	0.9654
3758	0.9647
3767	0.9641
3776	0.9636
3785	0.9628
3794	0.962
3803	0.9612
3812	0.9605
3821	0.9597
3830	0.9589
3839	0.9584
3848	0.9579
3857	0.9574
3866	0.9568
3875	0.9558
3884	0.9547
3893	0.9536
3902	0.9525
3911	0.9514
3920	0.9503
3929	0.9491
3938	0.948
3947	0.9469
3956	0.9457
3965	0.9447
3974	0.9442
3983	0.9438
3992	0.9434
