Infrared Spectrum: Benzoyl acetonitrile
Formula: C 9 H 7 N O
CAS: 614-16-4
State: gas
Origin: EPA-IR VAPOR PHASE LIBRARY
1/CM	ABSORBANCE
551.7	0.00351
563.274	0.00611
574.848	0.00579
586.421	0.00342
597.995	0.00269
609.569	0.00266
621.143	0.00247
632.717	0.00259
644.291	0.00292
655.864	0.00456
667.438	0.00812
679.012	0.01172
690.586	0.01368
702.16	0.00847
713.734	0.00509
725.307	0.00561
736.881	0.00706
748.455	0.00679
760.029	0.00569
771.603	0.00512
783.177	0.00383
794.75	0.00255
806.324	0.00202
817.898	0.00179
829.472	0.00172
841.046	0.00166
852.619	0.0016
864.193	0.00171
875.767	0.00202
887.341	0.00231
898.915	0.00301
910.489	0.0041
922.062	0.00536
933.636	0.00406
945.21	0.00254
956.784	0.00201
968.358	0.00193
979.932	0.00215
991.505	0.00353
1003.08	0.00837
1014.65	0.01022
1026.23	0.00509
1037.8	0.00355
1049.37	0.00267
1060.95	0.00221
1072.52	0.00207
1084.1	0.00195
1095.67	0.00187
1107.24	0.00174
1118.82	0.00171
1130.39	0.00172
1141.97	0.00206
1153.54	0.00293
1165.11	0.00541
1176.69	0.00872
1188.26	0.00789
1199.83	0.00799
1211.41	0.0105
1222.98	0.00806
1234.56	0.00775
1246.13	0.01065
1257.7	0.02069
1269.28	0.02563
1280.85	0.01249
1292.42	0.00676
1304	0.0072
1315.57	0.00832
1327.15	0.0078
1338.72	0.00551
1350.29	0.00337
1361.87	0.00243
1373.44	0.00236
1385.02	0.00239
1396.59	0.00265
1408.16	0.0037
1419.74	0.00471
1431.31	0.00408
1442.88	0.00554
1454.46	0.00555
1466.03	0.00243
1477.61	0.00174
1489.18	0.00176
1500.75	0.00176
1512.33	0.00171
1523.9	0.00174
1535.48	0.00169
1547.05	0.00171
1558.62	0.00189
1570.2	0.00284
1581.77	0.00426
1593.34	0.00552
1604.92	0.00538
1616.49	0.00344
1628.07	0.00282
1639.64	0.00235
1651.21	0.00253
1662.79	0.00327
1674.36	0.00453
1685.93	0.00752
1697.51	0.01695
1709.08	0.03376
1720.66	0.03533
1732.23	0.01648
1743.8	0.00605
1755.38	0.00375
1766.95	0.00294
1778.53	0.0024
1790.1	0.00214
1801.67	0.00234
1813.25	0.00217
1824.82	0.00184
1836.39	0.00168
1847.97	0.00154
1859.54	0.00149
1871.12	0.00154
1882.69	0.00163
1894.26	0.0017
1905.84	0.00172
1917.41	0.00163
1928.99	0.00152
1940.56	0.0015
1952.13	0.00166
1963.71	0.00175
1975.28	0.00162
1986.85	0.00134
1998.43	0.0012
2010	0.00111
2021.58	0.00104
2033.15	0.00101
2044.72	0.0009686
2056.3	0.0009378
2067.87	0.000864
2079.44	0.0008201
2091.02	0.0008024
2102.59	0.0007658
2114.17	0.000755
2125.74	0.0007569
2137.31	0.0007723
2148.89	0.0007396
2160.46	0.000743
2172.04	0.0007509
2183.61	0.0007374
2195.18	0.0008119
2206.76	0.00102
2218.33	0.0009248
2229.9	0.0008281
2241.48	0.000926
2253.05	0.00124
2264.63	0.00121
2276.2	0.0009179
2287.77	0.0008375
2299.35	0.0008102
2310.92	0.000851
2322.5	0.0009475
2334.07	0.0009262
2345.64	0.0009099
2357.22	0.0008606
2368.79	0.0008174
2380.36	0.0008143
2391.94	0.0008083
2403.51	0.0008013
2415.09	0.0008265
2426.66	0.0008477
2438.23	0.0008412
2449.81	0.000784
2461.38	0.0007807
2472.96	0.00077
2484.53	0.0007817
2496.1	0.0008053
2507.68	0.0007916
2519.25	0.0008663
2530.82	0.0008388
2542.4	0.0008317
2553.97	0.0007592
2565.55	0.0007987
2577.12	0.0007911
2588.69	0.0008391
2600.27	0.000886
2611.84	0.0008555
2623.41	0.0007868
2634.99	0.000752
2646.56	0.0007425
2658.14	0.0007844
2669.71	0.0007743
2681.28	0.0007383
2692.86	0.0007887
2704.43	0.0008013
2716.01	0.0008096
2727.58	0.0007961
2739.15	0.0008109
2750.73	0.0007796
2762.3	0.0008177
2773.87	0.000806
2785.45	0.0007861
2797.02	0.0008427
2808.6	0.0008486
2820.17	0.000833
2831.74	0.0008269
2843.32	0.0008651
2854.89	0.0008603
2866.47	0.0009043
2878.04	0.0009291
2889.61	0.0009449
2901.19	0.000987
2912.76	0.00103
2924.33	0.00116
2935.91	0.0013
2947.48	0.00115
2959.06	0.0009089
2970.63	0.0009744
2982.2	0.00106
2993.78	0.00111
3005.35	0.00121
3016.92	0.00155
3028.5	0.00233
3040.07	0.00316
3051.65	0.0034
3063.22	0.00444
3074.79	0.00615
3086.37	0.00537
3097.94	0.00409
3109.52	0.00256
3121.09	0.0014
3132.66	0.00105
3144.24	0.0009793
3155.81	0.0009915
3167.38	0.0009744
3178.96	0.0009247
3190.53	0.0008839
3202.11	0.0009232
3213.68	0.0008788
3225.25	0.0008064
3236.83	0.0007179
3248.4	0.0007512
3259.98	0.0007487
3271.55	0.0007189
3283.12	0.0007701
3294.7	0.0007566
3306.27	0.0007965
3317.84	0.0007486
3329.42	0.0007863
3340.99	0.0008453
3352.57	0.0007424
3364.14	0.0008276
3375.71	0.0009123
3387.29	0.00102
3398.86	0.00116
3410.43	0.0013
3422.01	0.00123
3433.58	0.00102
3445.16	0.0009111
3456.73	0.0008771
3468.3	0.0008797
3479.88	0.0009014
3491.45	0.0008556
3503.03	0.0008464
3514.6	0.0008055
3526.17	0.0008017
3537.75	0.0009017
3549.32	0.00105
3560.89	0.000936
3572.47	0.0007533
3584.04	0.0007584
3595.62	0.0007723
3607.19	0.0007649
3618.76	0.0008016
3630.34	0.0008222
3641.91	0.0008657
3653.49	0.0008918
3665.06	0.0008025
3676.63	0.000778
3688.21	0.0008315
3699.78	0.0008543
3711.35	0.0007952
3722.93	0.0007603
3734.5	0.0007737
3746.08	0.0007857
3757.65	0.0007411
3769.22	0.0007388
3780.8	0.0007732
3792.37	0.0007428
3803.94	0.0008073
3815.52	0.0007404
3827.09	0.0007722
3838.67	0.0006966
3850.24	0.0007131
3861.81	0.0007327
3873.39	0.0008004
3884.96	0.000725
3896.54	0.0007595
3908.11	0.0007738
3919.68	0.0008086
3931.26	0.0007723
3942.83	0.0008404
3954.4	0.0008112
3965.98	0.0007742
3977.55	0.0007114
3989.13	0.0006762
4000.7	0.0007629
