Infrared Spectrum: Alpha-BENZIL MONOXIME
Formula: C14 H11 N O2
CAS: 614-28-8
State: SOLID (MINERAL OIL MULL)
Class: COBLENTZ
Instrument: Not specified, most likely a prism, grating, or hybrid spectrometer.
Sampling: TRANSMISSION
Resolution: 4
Origin: WYANDOTTE CHEMICALS CORP., WYANDOTTE, MICHIGAN, USA
MICROMETERS	TRANSMITTANCE
2.02	0.364
2.06092	0.371
2.10183	0.383
2.14275	0.397
2.18367	0.402
2.22459	0.405
2.2655	0.414
2.30642	0.422
2.34734	0.436
2.38825	0.452
2.42917	0.458
2.47009	0.476
2.511	0.493
2.55192	0.508
2.59284	0.52
2.63376	0.535
2.67467	0.553
2.71559	0.57
2.75651	0.599
2.79742	0.626
2.83834	0.638
2.87926	0.558
2.92018	0.386
2.96109	0.142
3.00201	0.169
3.04293	0.296
3.08384	0.356
3.12476	0.395
3.16568	0.414
3.2066	0.429
3.24751	0.412
3.28843	0.351
3.32935	0.229
3.37026	0.03
3.41118	0.035
3.4521	0.058
3.49301	0.07
3.53393	0.363
3.57485	0.58
3.61577	0.614
3.65668	0.601
3.6976	0.611
3.73852	0.618
3.77943	0.636
3.82035	0.648
3.86127	0.66
3.90219	0.679
3.9431	0.695
3.98402	0.703
4.02494	0.715
4.06585	0.719
4.10677	0.724
4.14769	0.729
4.1886	0.734
4.22952	0.738
4.27044	0.738
4.31136	0.741
4.35227	0.744
4.39319	0.77
4.43411	0.775
4.47502	0.775
4.51594	0.78
4.55686	0.784
4.59778	0.789
4.63869	0.799
4.67961	0.804
4.72053	0.815
4.76144	0.818
4.80236	0.821
4.84328	0.825
4.8842	0.83
4.92511	0.833
4.96603	0.837
5.00695	0.839
5.04786	0.839
5.08878	0.844
5.1297	0.842
5.17061	0.832
5.21153	0.875
5.25245	0.873
5.29337	0.851
5.33428	0.873
5.3752	0.893
5.41612	0.907
5.45703	0.904
5.49795	0.905
5.53887	0.907
5.57979	0.922
5.6207	0.922
5.66162	0.902
5.70254	0.922
5.74345	0.917
5.78437	0.94
5.82529	0.948
5.8662	0.926
5.90712	0.938
5.94804	0.885
5.98896	0.717
6.02987	0.448
6.07079	0.13
6.11171	0.529
6.15262	0.614
6.19354	0.664
6.23446	0.549
6.27538	0.674
6.31629	0.66
6.35721	0.767
6.39813	0.803
6.43904	0.806
6.47996	0.816
6.52088	0.832
6.5618	0.845
6.60271	0.849
6.64363	0.777
6.68455	0.681
6.72546	0.717
6.76638	0.47
6.8073	0.251
6.84821	0.299
6.88913	0.229
6.93005	0.445
6.97097	0.72
7.01188	0.779
7.0528	0.791
7.09372	0.777
7.13463	0.734
7.17555	0.616
7.21647	0.369
7.25739	0.164
7.2983	0.174
7.33922	0.332
7.38014	0.452
7.42105	0.535
7.46197	0.577
7.50289	0.529
7.5438	0.397
7.58472	0.546
7.62564	0.445
7.66656	0.27
7.70747	0.5
7.74839	0.535
7.78931	0.568
7.83022	0.65
7.87114	0.693
7.91206	0.736
7.95298	0.78
7.99389	0.784
8.03481	0.791
8.07573	0.821
8.11664	0.818
8.15756	0.71
8.19848	0.609
8.2394	0.45
8.28031	0.549
8.32123	0.691
8.36215	0.773
8.40306	0.796
8.44398	0.816
8.4849	0.83
8.52581	0.849
8.56673	0.852
8.60765	0.854
8.64857	0.856
8.68948	0.88
8.7304	0.905
8.77132	0.919
8.81223	0.924
8.85315	0.933
8.89407	0.936
8.93499	0.936
8.9759	0.94
9.01682	0.893
9.05774	0.89
9.09865	0.926
9.13957	0.912
9.18049	0.917
9.2214	0.869
9.26232	0.804
9.30324	0.804
9.34416	0.821
9.38507	0.849
9.42599	0.919
9.46691	0.938
9.50782	0.938
9.54874	0.929
9.58966	0.904
9.63058	0.849
9.67149	0.741
9.71241	0.539
9.75333	0.505
9.79424	0.566
9.83516	0.398
9.87608	0.159
9.917	0.162
9.95791	0.381
9.99883	0.409
10.0397	0.525
10.0807	0.595
10.1216	0.647
10.1625	0.693
10.2034	0.734
10.2443	0.626
10.2852	0.693
10.3262	0.744
10.3671	0.78
10.408	0.803
10.4489	0.821
10.4898	0.833
10.5308	0.847
10.5717	0.859
10.6126	0.871
10.6535	0.881
10.6944	0.868
10.7353	0.803
10.7763	0.768
10.8172	0.734
10.8581	0.77
10.899	0.833
10.9399	0.864
10.9808	0.89
11.0218	0.909
11.0627	0.916
11.1036	0.928
11.1445	0.938
11.1854	0.941
11.2263	0.941
11.2673	0.936
11.3082	0.922
11.3491	0.856
11.39	0.734
11.4309	0.464
11.4718	0.217
11.5128	0.297
11.5537	0.458
11.5946	0.616
11.6355	0.69
11.6764	0.741
11.7173	0.703
11.7583	0.717
11.7992	0.772
11.8401	0.792
11.881	0.789
11.9219	0.775
11.9628	0.815
12.0038	0.835
12.0447	0.851
12.0856	0.861
12.1265	0.866
12.1674	0.869
12.2084	0.876
12.2493	0.88
12.2902	0.88
12.3311	0.88
12.372	0.881
12.4129	0.88
12.4539	0.859
12.4948	0.844
12.5357	0.816
12.5766	0.799
12.6175	0.839
12.6584	0.859
12.6994	0.859
12.7403	0.861
12.7812	0.857
12.8221	0.851
12.863	0.825
12.9039	0.789
12.9449	0.708
12.9858	0.654
13.0267	0.732
13.0676	0.799
13.1085	0.82
13.1494	0.827
13.1904	0.83
13.2313	0.82
13.2722	0.806
13.3131	0.803
13.354	0.808
13.3949	0.804
13.4359	0.794
13.4768	0.76
13.5177	0.744
13.5586	0.698
13.5995	0.626
13.6404	0.518
13.6814	0.458
13.7223	0.46
13.7632	0.398
13.8041	0.306
13.845	0.327
13.886	0.378
13.9269	0.416
13.9678	0.431
14.0087	0.422
14.0496	0.404
14.0905	0.38
14.1315	0.368
14.1724	0.368
14.2133	0.38
14.2542	0.395
14.2951	0.412
14.336	0.397
14.377	0.333
14.4179	0.25
14.4588	0.179
14.4997	0.14
14.5406	0.157
14.5815	0.21
14.6225	0.303
14.6634	0.371
14.7043	0.428
14.7452	0.457
14.7861	0.476
14.827	0.493
14.868	0.493
14.9089	0.472
14.9498	0.431
14.9907	0.39
15.0316	0.361
15.0725	0.386
15.1135	0.45
15.1544	0.508
15.1953	0.534
15.2362	0.553
15.2771	0.566
15.318	0.571
15.359	0.582
15.3999	0.583
15.4408	0.583
15.4817	0.585
15.5226	0.582
15.5636	0.582
15.6045	0.571
15.6454	0.566
15.6863	0.563
15.7272	0.554
15.7681	0.547
15.8091	0.541
15.85	0.537
15.8909	0.527
15.9318	0.515
15.9727	0.506
