Infrared Spectrum: 2-Chlorophenoxyacetic acid
Formula: C 8 H 7 Cl O 3
CAS: 614-61-9
State: gas
Origin: EPA-IR VAPOR PHASE LIBRARY
1/CM	ABSORBANCE
549.8	0.003673
559.445	0.004013
569.09	0.004503
578.735	0.004133
588.38	0.004343
598.025	0.004703
607.67	0.005133
617.315	0.005423
626.96	0.004823
636.605	0.004433
646.251	0.003703
655.896	0.003303
665.541	0.003173
675.186	0.003743
684.831	0.004493
694.476	0.003973
704.121	0.003303
713.766	0.003143
723.411	0.003523
733.056	0.004653
742.701	0.008613
752.346	0.009393
761.991	0.005283
771.636	0.002283
781.281	0.0013676
790.926	0.001603
800.571	0.001803
810.216	0.002003
819.861	0.002043
829.507	0.002093
839.152	0.002253
848.797	0.002093
858.442	0.002013
868.087	0.001883
877.732	0.001893
887.377	0.001623
897.022	0.0013973
906.667	0.001081
916.312	0.001189
925.957	0.0013361
935.602	0.0015035
945.247	0.0011678
954.892	0.0011326
964.537	0.0012575
974.182	0.0014726
983.827	0.001673
993.472	0.001883
1003.12	0.002413
1012.76	0.002943
1022.41	0.004533
1032.05	0.007053
1041.7	0.009673
1051.34	0.011883
1060.99	0.013623
1070.63	0.016673
1080.28	0.014803
1089.92	0.010593
1099.57	0.007523
1109.21	0.007253
1118.86	0.009823
1128.5	0.012573
1138.15	0.010883
1147.79	0.009613
1157.44	0.008893
1167.08	0.008223
1176.73	0.009173
1186.37	0.017793
1196.02	0.035053
1205.66	0.035353
1215.31	0.034463
1224.95	0.028873
1234.6	0.019813
1244.24	0.014363
1253.89	0.010583
1263.53	0.010673
1273.18	0.011913
1282.82	0.010763
1292.47	0.008973
1302.11	0.006553
1311.76	0.005343
1321.4	0.006053
1331.05	0.007403
1340.69	0.008083
1350.34	0.007553
1359.98	0.006853
1369.63	0.005233
1379.27	0.003793
1388.92	0.003293
1398.56	0.003013
1408.21	0.002613
1417.85	0.002493
1427.5	0.002943
1437.14	0.005103
1446.79	0.006833
1456.43	0.005293
1466.08	0.007083
1475.73	0.016373
1485.37	0.016973
1495.02	0.007033
1504.66	0.003263
1514.31	0.001973
1523.95	0.0012825
1533.6	0.0010776
1543.24	0.0010694
1552.89	0.0012002
1562.53	0.001753
1572.18	0.003323
1581.82	0.005333
1591.47	0.004823
1601.11	0.002363
1610.76	0.001763
1620.4	0.001623
1630.05	0.0014356
1639.69	0.0012331
1649.34	0.0011583
1658.98	0.0011124
1668.63	0.0012186
1678.27	0.0010912
1687.92	0.001143
1697.56	0.001233
1707.21	0.0012545
1716.85	0.0014307
1726.5	0.001793
1736.14	0.002513
1745.79	0.003513
1755.43	0.004963
1765.08	0.007343
1774.72	0.013103
1784.37	0.016503
1794.01	0.015983
1803.66	0.021883
1813.3	0.021153
1822.95	0.011003
1832.59	0.005163
1842.24	0.003253
1851.88	0.002273
1861.53	0.001753
1871.17	0.001385
1880.82	0.0012075
1890.46	0.0011419
1900.11	0.0010393
1909.75	0.0009454
1919.4	0.0009284
1929.04	0.000937
1938.69	0.0009038
1948.33	0.0007695
1957.98	0.0006262
1967.62	0.000725
1977.27	0.0007349
1986.91	0.0006725
1996.56	0.00061898
2006.2	0.0006713
2015.85	0.0006857
2025.49	0.000628
2035.14	0.0006984
2044.78	0.0006789
2054.43	0.0006913
2064.07	0.0006546
2073.72	0.000676
2083.36	0.00062188
2093.01	0.00062194
2102.65	0.0006593
2112.3	0.0006506
2121.94	0.00057753
2131.59	0.00054589
2141.23	0.0004915
2150.88	0.0005076
2160.52	0.0004989
2170.17	0.0004866
2179.81	0.000524599
2189.46	0.0004642
2199.1	0.000465
2208.75	0.0004917
2218.39	0.000412
2228.04	0.0004612
2237.68	0.0004345
2247.33	0.0004938
2256.97	0.0004737
2266.62	0.0004711
2276.26	0.0005033
2285.91	0.000526355
2295.55	0.000494
2305.2	0.0005111
2314.84	0.0004782
2324.49	0.0004975
2334.13	0.0004975
2343.78	0.000422
2353.42	0.00053805
2363.07	0.000479
2372.72	0.000408
2382.36	0.000396
2392.01	0.000382
2401.65	0.00038
2411.3	0.000411
2420.94	0.000306
2430.59	0.00033
2440.23	0.000316
2449.88	0.00034
2459.52	0.000367
2469.17	0.000295
2478.81	0.000409
2488.46	0.000367
2498.1	0.000342
2507.75	0.000289
2517.39	0.000318
2527.04	0.00033
2536.68	0.000386
2546.33	0.000356
2555.97	0.000391
2565.62	0.000292
2575.26	0.000226
2584.91	0.000202
2594.55	0.000125
2604.2	0.000203
2613.84	0.000178
2623.49	0.000168
2633.13	0.000161
2642.78	6.7e-05
2652.42	0.00017
2662.07	0.000103
2671.71	0.000126
2681.36	0.000139
2691	0.000166
2700.65	0.000122
2710.29	9.5e-05
2719.94	4.8e-05
2729.58	7.3e-05
2739.23	2.8e-05
2748.87	0.000114
2758.52	0.000164
2768.16	0.000157
2777.81	5.8e-05
2787.45	7.3e-05
2797.1	9.4e-05
2806.74	0.000118
2816.39	7.4e-05
2826.03	0.000105
2835.68	0.000105
2845.32	0.000228
2854.97	0.000336
2864.61	0.000379
2874.26	0.000341
2883.9	0.000279
2893.55	0.000394
2903.19	0.0004614
2912.84	0.0006393
2922.48	0.0010006
2932.13	0.0014809
2941.77	0.001693
2951.42	0.0014079
2961.06	0.0011364
2970.71	0.000859
2980.35	0.0006493
2990	0.0004699
2999.64	0.000387
3009.29	0.0004
3018.93	0.0004907
3028.58	0.0007115
3038.22	0.0006383
3047.87	0.00060909
3057.51	0.0007977
3067.16	0.001593
3076.8	0.002563
3086.45	0.001993
3096.09	0.0009546
3105.74	0.0004786
3115.38	0.000365
3125.03	0.000347
3134.67	0.000194
3144.32	0.000246
3153.96	0.000175
3163.61	0.000243
3173.25	0.000199
3182.9	0.000288
3192.54	0.000161
3202.19	0.000257
3211.83	9.5e-05
3221.48	0.000232
3231.12	0.00029
3240.77	0.00018
3250.41	0.000241
3260.06	0.000373
3269.7	0.000408
3279.35	0.000322
3289	0.000278
3298.64	0.000287
3308.29	0.000226
3317.93	0.000314
3327.58	0.000388
3337.22	0.00032
3346.87	0.000302
3356.51	0.000363
3366.16	0.000309
3375.8	0.000412
3385.45	0.000298
3395.09	0.0004243
3404.74	0.000343
3414.38	0.0004845
3424.03	0.0004648
3433.67	0.0004512
3443.32	0.00058358
3452.96	0.00058516
3462.61	0.0006315
3472.25	0.00058929
3481.9	0.0009295
3491.54	0.001873
3501.19	0.003203
3510.83	0.004333
3520.48	0.004803
3530.12	0.003573
3539.77	0.002493
3549.41	0.001903
3559.06	0.002543
3568.7	0.006623
3578.35	0.008653
3587.99	0.003963
3597.64	0.0014164
3607.28	0.0010229
3616.93	0.0008484
3626.57	0.00051841
3636.22	0.0004278
3645.86	0.00053426
3655.51	0.000381
3665.15	0.0004548
3674.8	0.000293
3684.44	0.0004663
3694.09	0.000336
3703.73	0.0004744
3713.38	0.000317
3723.02	0.000417
3732.67	0.000364
3742.31	0.000322
3751.96	0.000319
3761.6	0.000362
3771.25	0.000303
3780.89	0.000319
3790.54	0.000251
3800.18	0.000372
3809.83	0.000389
3819.47	0.000326
3829.12	0.000255
3838.76	0.000355
3848.41	0.000241
3858.05	0.000175
3867.7	0.000345
3877.34	0.00026
3886.99	0.000407
3896.63	0.000211
3906.28	0.000268
3915.92	0.00032
3925.57	0.000232
3935.21	0.000201
3944.86	0.000269
3954.5	0.000212
3964.15	0.000199
3973.79	0.00029
3983.44	0.000236
3993.08	0.000141
