Infrared Spectrum: Benzenamine, N-methyl-N-nitroso-
Formula: C7 H8 N2 O
CAS: 614-00-6
State: LIQUID (NEAT)
Class: COBLENTZ III
Instrument: BECKMAN IR-4 (HYBRID PRISM-GRATING)
Sampling: TRANSMISSION
Path length: CAPILLARY
Resolution: 2
Origin: UNIVERSITY OF FLORIDA
1/CM	TRANSMITTANCE
668	0.6839
677	0.6243
686	0.2844
695	0.4262
704	0.7139
713	0.7841
722	0.8002
731	0.8047
740	0.7756
749	0.5691
758	0.1743
767	0.5664
776	0.7944
785	0.843
794	0.8532
803	0.8403
812	0.6188
821	0.6554
830	0.7837
839	0.8365
848	0.8637
857	0.8721
866	0.8781
875	0.8711
884	0.8529
893	0.8292
902	0.7484
911	0.7645
920	0.7917
929	0.7195
938	0.5238
947	0.2992
956	0.3231
965	0.5694
974	0.7729
983	0.8281
992	0.8272
1001	0.7891
1010	0.8295
1019	0.6881
1028	0.5651
1037	0.7853
1046	0.7894
1055	0.7544
1064	0.673
1073	0.474
1082	0.2039
1091	0.1058
1100	0.3503
1109	0.6236
1118	0.7295
1127	0.7568
1136	0.7606
1145	0.7503
1154	0.6972
1163	0.6601
1172	0.5997
1181	0.4547
1190	0.3155
1199	0.166
1208	0.1727
1217	0.3765
1226	0.5096
1235	0.6988
1244	0.7885
1253	0.8169
1262	0.8338
1271	0.8361
1280	0.7717
1289	0.5471
1298	0.6141
1307	0.6702
1316	0.4836
1325	0.5305
1334	0.5454
1343	0.7809
1352	0.8083
1361	0.8083
1370	0.7857
1379	0.7126
1388	0.5517
1397	0.4195
1406	0.6396
1415	0.6595
1424	0.4582
1433	0.1635
1442	0.0716
1451	0.2357
1460	0.2512
1469	0.1417
1478	0.2904
1487	0.4315
1496	0.3022
1505	0.4437
1514	0.5664
1523	0.6694
1532	0.7546
1541	0.7914
1550	0.8261
1559	0.8401
1568	0.8524
1577	0.8478
1586	0.7816
1595	0.5577
1604	0.7879
1613	0.8357
1622	0.8556
1631	0.8682
1640	0.8744
1649	0.8796
1658	0.8843
1667	0.8886
1676	0.8917
1685	0.895
1694	0.899
1703	0.9023
1712	0.9026
1721	0.9002
1730	0.8988
1739	0.8967
1748	0.8952
1757	0.8956
1766	0.8964
1775	0.895
1784	0.894
1793	0.8939
1802	0.8973
1811	0.9017
1820	0.9052
1829	0.9078
1838	0.9102
1847	0.9126
1856	0.9096
1865	0.9036
1874	0.8978
1883	0.895
1892	0.8965
1901	0.8992
1910	0.9045
1919	0.9075
1928	0.9111
1937	0.9112
1946	0.9053
1955	0.9007
1964	0.9017
1973	0.9041
1982	0.9064
1991	0.9088
2000	0.9113
2009	0.9138
2018	0.916
2027	0.9183
2036	0.92
2045	0.9215
2054	0.9231
2063	0.9245
2072	0.9253
2081	0.9261
2090	0.9268
2099	0.9271
2108	0.9276
2117	0.9276
2126	0.927
2135	0.9258
2144	0.9242
2153	0.9226
2162	0.9222
2171	0.925
2180	0.9277
2189	0.9288
2198	0.9303
2207	0.9315
2216	0.9315
2225	0.9312
2234	0.9309
2243	0.9307
2252	0.9304
2261	0.9298
2270	0.9293
2279	0.929
2288	0.9288
2297	0.9286
2306	0.9285
2315	0.9285
2324	0.9285
2333	0.9285
2342	0.9283
2351	0.9277
2360	0.9271
2369	0.9267
2378	0.9263
2387	0.926
2396	0.925
2405	0.9229
2414	0.9215
2423	0.9219
2432	0.923
2441	0.9255
2450	0.9274
2459	0.9272
2468	0.9264
2477	0.9254
2486	0.9243
2495	0.9231
2504	0.9218
2513	0.9212
2522	0.9208
2531	0.9209
2540	0.9212
2549	0.9216
2558	0.922
2567	0.9225
2576	0.923
2585	0.9233
2594	0.9237
2603	0.9241
2612	0.9241
2621	0.9239
2630	0.9226
2639	0.9211
2648	0.9184
2657	0.9168
2666	0.9161
2675	0.9161
2684	0.9163
2693	0.9166
2702	0.9172
2711	0.9178
2720	0.9184
2729	0.919
2738	0.9195
2747	0.9201
2756	0.92
2765	0.9196
2774	0.9184
2783	0.9165
2792	0.9145
2801	0.9133
2810	0.9126
2819	0.9101
2828	0.9062
2837	0.9035
2846	0.9024
2855	0.9016
2864	0.8987
2873	0.8915
2882	0.8827
2891	0.8773
2900	0.8728
2909	0.8673
2918	0.8607
2927	0.853
2936	0.8446
2945	0.8431
2954	0.8487
2963	0.8539
2972	0.8592
2981	0.8621
2990	0.863
2999	0.8627
3008	0.8584
3017	0.8465
3026	0.8337
3035	0.8202
3044	0.8095
3053	0.8083
3062	0.81
3071	0.8205
3080	0.833
3089	0.8454
3098	0.8577
3107	0.87
3116	0.8822
3125	0.8899
3134	0.8945
3143	0.8982
3152	0.9008
3161	0.9023
3170	0.9033
3179	0.9039
3188	0.904
3197	0.906
3206	0.9089
3215	0.9118
3224	0.914
3233	0.9161
3242	0.917
3251	0.9177
3260	0.9178
3269	0.9178
3278	0.9179
3287	0.9179
3296	0.918
3305	0.918
3314	0.9183
3323	0.9193
3332	0.9206
3341	0.9206
3350	0.9205
3359	0.9203
3368	0.9198
3377	0.9193
3386	0.9189
3395	0.9184
3404	0.918
3413	0.9177
3422	0.9175
3431	0.9172
3440	0.9168
3449	0.9163
3458	0.9157
3467	0.9152
3476	0.9146
3485	0.9142
3494	0.9137
3503	0.9134
3512	0.913
3521	0.9127
3530	0.9125
3539	0.9124
3548	0.9123
3557	0.9124
3566	0.9127
3575	0.9132
3584	0.9135
3593	0.9138
3602	0.9138
3611	0.9139
3620	0.9139
3629	0.914
3638	0.9139
3647	0.9139
3656	0.9138
3665	0.9135
3674	0.913
3683	0.9125
3692	0.9123
3701	0.9122
3710	0.9121
3719	0.9121
3728	0.9124
3737	0.9128
3746	0.9131
3755	0.9134
3764	0.9138
3773	0.9142
3782	0.9146
3791	0.915
3800	0.9154
3809	0.9157
3818	0.916
3827	0.9161
3836	0.9163
3845	0.9165
3854	0.9167
3863	0.9168
3872	0.917
3881	0.9172
3890	0.9174
3899	0.9175
3908	0.9177
3917	0.9177
3926	0.9179
3935	0.918
3944	0.9182
3953	0.9183
3962	0.9184
3971	0.9184
3980	0.9184
3989	0.9185
3998	0.9185
