Infrared Spectrum: BUTYRALDEHYDE, 4-CYANO-2,2-DIMETHYL
Formula: C7 H11 N O
CAS: 6140-61-0
Class: COBLENTZ
Instrument: Not specified, most likely a prism, grating, or hybrid spectrometer.
Sampling: TRANSMISSION
Path length: 0.003 CM
Resolution: 4
Origin: TENNESSEE EASTMAN COMPANY, RESEARCH LABORATORIES
MICROMETERS	TRANSMITTANCE
2.033	0.915
2.0727	0.919
2.11239	0.92
2.15209	0.917
2.19179	0.885
2.23148	0.833
2.27118	0.785
2.31088	0.833
2.35057	0.844
2.39027	0.847
2.42997	0.862
2.46966	0.884
2.50936	0.887
2.54906	0.889
2.58875	0.879
2.62845	0.88
2.66815	0.904
2.70784	0.907
2.74754	0.904
2.78724	0.874
2.82693	0.821
2.86663	0.8
2.90633	0.776
2.94602	0.828
2.98572	0.859
3.02542	0.859
3.06511	0.857
3.10481	0.834
3.14451	0.795
3.1842	0.788
3.2239	0.79
3.2636	0.77
3.30329	0.684
3.34299	0.196
3.38269	0.021
3.42238	0.094
3.46208	0.09
3.50178	0.226
3.54147	0.138
3.58117	0.297
3.62087	0.404
3.66056	0.219
3.70026	0.128
3.73996	0.34
3.77965	0.647
3.81935	0.753
3.85905	0.811
3.89874	0.88
3.93844	0.9
3.97814	0.914
4.01783	0.92
4.05753	0.923
4.09723	0.925
4.13692	0.932
4.17662	0.93
4.21632	0.92
4.25601	0.919
4.29571	0.919
4.33541	0.912
4.3751	0.842
4.4148	0.738
4.4545	0.165
4.49419	0.798
4.53389	0.9
4.57359	0.919
4.61328	0.93
4.65298	0.942
4.69268	0.95
4.73237	0.952
4.77207	0.942
4.81177	0.935
4.85146	0.937
4.89116	0.942
4.93086	0.95
4.97055	0.947
5.01025	0.958
5.04995	0.963
5.08964	0.965
5.12934	0.961
5.16904	0.955
5.20873	0.955
5.24843	0.95
5.28813	0.94
5.32782	0.937
5.36752	0.915
5.40722	0.884
5.44691	0.852
5.48661	0.795
5.52631	0.704
5.566	0.573
5.6057	0.409
5.6454	0.242
5.68509	0.208
5.72479	0.095
5.76449	0.026
5.80418	0.021
5.84388	0.038
5.88358	0.142
5.92327	0.244
5.96297	0.411
6.00267	0.54
6.04236	0.644
6.08206	0.715
6.12176	0.776
6.16145	0.816
6.20115	0.834
6.24085	0.859
6.28055	0.88
6.32024	0.894
6.35994	0.874
6.39964	0.829
6.43933	0.847
6.47903	0.796
6.51873	0.809
6.55842	0.771
6.59812	0.743
6.63782	0.699
6.67751	0.573
6.71721	0.319
6.75691	0.057
6.7966	0.038
6.8363	0.067
6.876	0.077
6.91569	0.153
6.95539	0.204
6.99509	0.079
7.03478	0.211
7.07448	0.322
7.11418	0.176
7.15387	0.277
7.19357	0.3
7.23327	0.138
7.27296	0.147
7.31266	0.076
7.35236	0.348
7.39205	0.553
7.43175	0.603
7.47145	0.598
7.51114	0.679
7.55084	0.709
7.59054	0.725
7.63023	0.776
7.66993	0.796
7.70963	0.793
7.74932	0.758
7.78902	0.709
7.82872	0.662
7.86841	0.694
7.90811	0.692
7.94781	0.717
7.9875	0.715
8.0272	0.674
8.0669	0.654
8.10659	0.628
8.14629	0.623
8.18599	0.558
8.22568	0.499
8.26538	0.522
8.30508	0.601
8.34477	0.651
8.38447	0.671
8.42417	0.697
8.46386	0.704
8.50356	0.694
8.54326	0.679
8.58295	0.677
8.62265	0.676
8.66235	0.633
8.70204	0.629
8.74174	0.656
8.78144	0.671
8.82113	0.697
8.86083	0.732
8.90053	0.765
8.94022	0.796
8.97992	0.824
9.01962	0.839
9.05931	0.846
9.09901	0.856
9.13871	0.857
9.1784	0.861
9.2181	0.862
9.2578	0.862
9.29749	0.862
9.33719	0.861
9.37689	0.852
9.41658	0.836
9.45628	0.819
9.49598	0.778
9.53567	0.72
9.57537	0.666
9.61507	0.618
9.65476	0.614
9.69446	0.662
9.73416	0.707
9.77385	0.737
9.81355	0.743
9.85325	0.737
9.89294	0.692
9.93264	0.619
9.97234	0.558
10.012	0.578
10.0517	0.664
10.0914	0.735
10.1311	0.761
10.1708	0.781
10.2105	0.796
10.2502	0.803
10.2899	0.806
10.3296	0.795
10.3693	0.757
10.409	0.697
10.4487	0.639
10.4884	0.6
10.5281	0.588
10.5678	0.575
10.6075	0.542
10.6472	0.495
10.6869	0.428
10.7266	0.371
10.7663	0.383
10.806	0.414
10.8457	0.428
10.8854	0.447
10.9251	0.469
10.9648	0.406
11.0045	0.282
11.0441	0.178
11.0838	0.127
11.1235	0.089
11.1632	0.071
11.2029	0.056
11.2426	0.046
11.2823	0.044
11.322	0.071
11.3617	0.17
11.4014	0.314
11.4411	0.471
11.4808	0.588
11.5205	0.641
11.5602	0.659
11.5999	0.669
11.6396	0.687
11.6793	0.695
11.719	0.689
11.7587	0.646
11.7984	0.662
11.8381	0.723
11.8778	0.771
11.9175	0.793
11.9572	0.8
11.9969	0.798
12.0366	0.788
12.0763	0.771
12.116	0.758
12.1557	0.74
12.1954	0.717
12.235	0.664
12.2747	0.604
12.3144	0.553
12.3541	0.522
12.3938	0.52
12.4335	0.57
12.4732	0.624
12.5129	0.684
12.5526	0.73
12.5923	0.752
12.632	0.757
12.6717	0.743
12.7114	0.714
12.7511	0.652
12.7908	0.557
12.8305	0.461
12.8702	0.386
12.9099	0.385
12.9496	0.451
12.9893	0.482
13.029	0.48
13.0687	0.438
13.1084	0.381
13.1481	0.361
13.1878	0.355
13.2275	0.383
13.2672	0.431
13.3069	0.471
13.3466	0.54
13.3863	0.611
13.4259	0.666
13.4656	0.704
13.5053	0.735
13.545	0.755
13.5847	0.763
13.6244	0.77
13.6641	0.77
13.7038	0.758
13.7435	0.752
13.7832	0.761
13.8229	0.791
13.8626	0.819
13.9023	0.831
13.942	0.838
13.9817	0.841
14.0214	0.841
14.0611	0.838
14.1008	0.836
14.1405	0.838
14.1802	0.846
14.2199	0.851
14.2596	0.857
14.2993	0.861
14.339	0.861
14.3787	0.861
14.4184	0.861
14.4581	0.861
14.4978	0.857
14.5375	0.851
14.5772	0.847
14.6168	0.839
14.6565	0.834
14.6962	0.829
14.7359	0.829
14.7756	0.823
14.8153	0.821
14.855	0.814
14.8947	0.798
14.9344	0.781
14.9741	0.78
15.0138	0.791
15.0535	0.795
15.0932	0.788
15.1329	0.775
15.1726	0.768
15.2123	0.76
15.252	0.753
15.2917	0.738
15.3314	0.733
15.3711	0.727
15.4108	0.72
15.4505	0.71
15.4902	0.702
15.5299	0.697
15.5696	0.692
15.6093	0.689
15.649	0.687
15.6887	0.68
15.7284	0.669
15.7681	0.669
15.8077	0.666
15.8474	0.666
15.8871	0.661
15.9268	0.652
15.9665	0.651
