Infrared Spectrum: 5-Phenylbicyclo[2.2.1]-2-heptene
Formula: C 13 H 14
CAS: 6143-30-2
State: gas
Instrument: HP-GC/MS/IRD
Origin: NIST Mass Spectrometry Data Center
1/CM	ABSORBANCE
550	0.0004988
562	0.0001218
574	0.0001131
586	0.0001682
598	0.0004495
610	0.000957
622	0.0004698
634	0.0005017
646	0.0006786
658	0.0014906
670	0.0021982
682	0.0044022
694	0.0104139
706	0.0135952
718	0.013862
730	0.0070122
742	0.0033234
754	0.0028536
766	0.003248
778	0.0020793
790	0.0010179
802	0.0008323
814	0.001073
826	0.0011977
838	0.0009454
850	0.0006931
862	0.0005974
874	0.0008091
886	0.0014355
898	0.0015892
910	0.0015109
922	0.0008323
934	0.0007279
946	0.0007859
958	0.0005307
970	0.0004002
982	0.0005191
994	0.0009483
1006	0.0013021
1018	0.0011165
1030	0.0014413
1042	0.0008091
1054	0.0004437
1066	0.0006206
1078	0.0007917
1090	0.0008236
1102	0.000899
1114	0.000638
1126	0.0007714
1138	0.0008642
1150	0.0005771
1162	0.0004959
1174	0.0005191
1186	0.0005887
1198	0.0004234
1210	0.0004176
1222	0.0005684
1234	0.0006148
1246	0.0006264
1258	0.0007163
1270	0.0005713
1282	0.0006061
1294	0.0007018
1306	0.0008787
1318	0.0013311
1330	0.0021054
1342	0.0021808
1354	0.0011455
1366	0.0005974
1378	0.0004176
1390	0.0003567
1402	0.0003335
1414	0.0004118
1426	0.0006235
1438	0.0013369
1450	0.0022475
1462	0.0021837
1474	0.0017806
1486	0.002668
1498	0.0036047
1510	0.0014123
1522	0.0004959
1534	0.0004118
1546	0.0003567
1558	0.0005307
1570	0.0010295
1582	0.0014065
1594	0.0027463
1606	0.0027115
1618	0.0012905
1630	0.0007917
1642	0.0004698
1654	0.0003422
1666	0.0003016
1678	0.0002378
1690	0.0001885
1702	0.0001827
1714	0.0002494
1726	0.0002958
1738	0.0002958
1750	0.0002436
1762	0.0002233
1774	0.0003248
1786	0.0005742
1798	0.0006264
1810	0.0003944
1822	0.0003016
1834	0.0002436
1846	0.0002726
1858	0.000348
1870	0.0004495
1882	0.0003683
1894	0.0002117
1906	0.0002001
1918	0.00029
1930	0.0004756
1942	0.00058
1954	0.0004495
1966	0.0001711
1978	9.86e-05
1990	9.57e-05
2002	6.67e-05
2014	4.35e-05
2026	0.0001015
2038	0.0001218
2050	0.0001566
2062	0.0001305
2074	0.0001044
2086	0.0001334
2098	0.000145
2110	0.0001334
2122	0.0001044
2134	0.0001044
2146	0.0001131
2158	0.0001421
2170	0.0001421
2182	0.0001537
2194	0.0001856
2206	0.0001595
2218	0.000116
2230	0.0001102
2242	0.0001131
2254	8.99e-05
2266	0.0001102
2278	0.0001334
2290	0.0001015
2302	0.0001073
2314	0.0001363
2326	9.86e-05
2338	0.000116
2350	0.0001015
2362	0.000116
2374	0.0001044
2386	9.86e-05
2398	0.0001218
2410	9.28e-05
2422	8.41e-05
2434	0.0001102
2446	0.0001015
2458	8.12e-05
2470	0.0001015
2482	5.51e-05
2494	7.83e-05
2506	8.12e-05
2518	5.22e-05
2530	6.38e-05
2542	7.83e-05
2554	7.83e-05
2566	6.38e-05
2578	6.38e-05
2590	0.0001015
2602	9.57e-05
2614	4.64e-05
2626	5.22e-05
2638	6.67e-05
2650	2.9e-05
2662	2.61e-05
2674	3.77e-05
2686	1.45e-05
2698	8.7e-06
2710	5.51e-05
2722	8.12e-05
2734	8.12e-05
2746	6.67e-05
2758	8.41e-05
2770	0.0001044
2782	0.0001073
2794	0.0001334
2806	0.0002088
2818	0.0002059
2830	0.0003567
2842	0.0005017
2854	0.0009947
2866	0.0027782
2878	0.0052171
2890	0.0048169
2902	0.004002
2914	0.0043819
2926	0.0047212
2938	0.0069368
2950	0.0101964
2962	0.0154889
2974	0.0279038
2986	0.021025
2998	0.0054868
3010	0.0028362
3022	0.0042021
3034	0.0055419
3046	0.0053012
3058	0.0081403
3070	0.0113129
3082	0.0062843
3094	0.0037236
3106	0.0022069
3118	0.0012093
3130	0.0008294
3142	0.0007511
3154	0.0004524
3166	0.0002436
3178	0.0001537
3190	0.0001363
3202	0.0001421
3214	0.0001102
3226	9.28e-05
3238	9.57e-05
3250	9.86e-05
3262	7.25e-05
3274	4.35e-05
3286	5.22e-05
3298	4.64e-05
3310	1.45e-05
3322	5.22e-05
3334	8.41e-05
3346	6.67e-05
3358	4.35e-05
3370	4.35e-05
3382	1.45e-05
3394	3.48e-05
3406	1.74e-05
3418	2.61e-05
3430	6.96e-05
3442	0.0001189
3454	9.57e-05
3466	7.25e-05
3478	5.8e-05
3490	4.06e-05
3502	3.77e-05
3514	3.77e-05
3526	2.03e-05
3538	8.7e-06
3550	6.67e-05
3562	8.7e-06
3574	2.61e-05
3586	2.61e-05
3598	4.35e-05
3610	3.19e-05
3622	4.35e-05
3634	5.22e-05
3646	7.83e-05
3658	5.22e-05
3670	4.64e-05
3682	8.12e-05
3694	8.41e-05
3706	6.96e-05
3718	0.0001131
3730	0.0001392
3742	0.0001044
3754	0.0001566
3766	0.0001218
3778	0.0001479
3790	0.0001276
3802	0.0001015
3814	9.86e-05
3826	0.0001363
3838	0.0001653
