Infrared Spectrum: BENZENE, 1-PHENOXY-4-(2-CHLOROETHOXY)-
Formula: C14 H13 Cl O2
CAS: 61435-02-7
State: SOLUTION (10% IN CCl4 FOR 3800-1320, 10% IN CS2 FOR 1320-400 CM^-^1)
Class: COBLENTZ III
Instrument: DOW KBr FOREPRISM-GRATING
Instrument parameters: BLAZED AT 3.5, 12.0, 20.0 MICRON, CHANGED AT 5.0, 7.5, 14.9 MICRON
Sampling: TRANSMISSION
Path length: 0.011, 0.010 CM
Resolution: 4
Origin: DOW CHEMICAL COMPANY
1/CM	TRANSMITTANCE
379.93	0.437
388.631	0.449
397.331	0.512
406.032	0.683
414.733	0.814
423.434	0.858
432.134	0.871
440.835	0.893
449.536	0.904
458.236	0.918
466.937	0.915
475.638	0.895
484.339	0.854
493.039	0.726
501.74	0.717
510.441	0.527
519.141	0.771
527.842	0.907
536.543	0.934
545.244	0.927
553.944	0.896
562.645	0.931
571.346	0.952
580.046	0.97
588.747	0.953
597.448	0.871
606.149	0.94
614.849	0.874
623.55	0.95
632.251	0.934
640.951	0.896
649.652	0.881
658.353	0.871
667.054	0.806
675.754	0.634
684.455	0.54
693.156	0.329
701.856	0.797
710.557	0.822
719.258	0.817
727.959	0.732
736.659	0.618
745.36	0.47
754.061	0.29
762.761	0.438
771.462	0.502
780.163	0.598
788.864	0.636
797.564	0.607
806.265	0.7
814.966	0.677
823.666	0.43
832.367	0.267
841.068	0.189
849.769	0.404
858.469	0.551
867.17	0.348
875.871	0.516
884.571	0.666
893.272	0.585
901.973	0.775
910.673	0.846
919.374	0.844
928.075	0.87
936.776	0.866
945.476	0.851
954.177	0.854
962.878	0.852
971.578	0.811
980.279	0.829
988.98	0.85
997.681	0.836
1006.38	0.607
1015.08	0.712
1023.78	0.519
1032.48	0.427
1041.18	0.201
1049.88	0.592
1058.59	0.752
1067.29	0.611
1075.99	0.574
1084.69	0.731
1093.39	0.761
1102.09	0.453
1110.79	0.817
1119.49	0.856
1128.19	0.867
1136.89	0.852
1145.59	0.798
1154.29	0.621
1162.99	0.44
1171.69	0.694
1180.4	0.546
1189.1	0.231
1197.8	0.182
1206.5	0.145
1215.2	0.006
1223.9	0.006
1232.6	0.014
1241.3	0.122
1250	0.2
1258.7	0.4
1267.4	0.617
1276.1	0.595
1284.8	0.5
1293.5	0.48
1302.21	0.433
1310.91	0.648
1319.61	0.728
1328.31	0.727
1337.01	0.76
1345.71	0.856
1354.41	0.878
1363.11	0.882
1371.81	0.854
1380.51	0.767
1389.21	0.57
1397.91	0.84
1406.61	0.892
1415.31	0.871
1424.02	0.78
1432.72	0.464
1441.42	0.745
1450.12	0.667
1458.82	0.271
1467.52	0.446
1476.22	0.156
1484.92	0.083
1493.62	0.008
1502.32	0.009
1511.02	0.012
1519.72	0.31
1528.42	0.49
1537.12	0.48
1545.83	0.431
1554.53	0.437
1563.23	0.502
1571.93	0.524
1580.63	0.419
1589.33	0.163
1598.03	0.151
1606.73	0.475
1615.43	0.591
1624.13	0.78
1632.83	0.855
1641.53	0.874
1650.23	0.885
1658.93	0.907
1667.64	0.916
1676.34	0.922
1685.04	0.925
1693.74	0.919
1702.44	0.912
1711.14	0.904
1719.84	0.912
1728.54	0.912
1737.24	0.912
1745.94	0.919
1754.64	0.934
1763.34	0.926
1772.04	0.91
1780.74	0.915
1789.45	0.929
1798.15	0.934
1806.85	0.934
1815.55	0.93
1824.25	0.92
1832.95	0.904
1841.65	0.876
1850.35	0.873
1859.05	0.861
1867.75	0.854
1876.45	0.884
1885.15	0.896
1893.85	0.914
1902.55	0.926
1911.26	0.923
1919.96	0.911
1928.66	0.871
1937.36	0.88
1946.06	0.891
1954.76	0.892
1963.46	0.899
1972.16	0.895
1980.86	0.888
1989.56	0.885
1998.26	0.885
2006.96	0.885
2015.66	0.878
2024.36	0.871
2033.07	0.871
2041.77	0.8799
2050.47	0.888
2059.17	0.881
2067.87	0.87
2076.57	0.8778
2085.27	0.8998
2093.97	0.911
2102.67	0.9218
2111.37	0.9269
2120.07	0.931
2128.77	0.933
2137.47	0.935
2146.17	0.938
2154.88	0.9398
2163.58	0.9401
2172.28	0.9382
2180.98	0.937
2189.68	0.937
2198.38	0.937
2207.08	0.9352
2215.78	0.934
2224.48	0.9304
2233.18	0.927
2241.88	0.9233
2250.58	0.92
2259.28	0.9141
2267.98	0.9013
2276.69	0.8973
2285.39	0.8951
2294.09	0.892
2302.79	0.888
2311.49	0.8852
2320.19	0.8877
2328.89	0.888
2337.59	0.889
2346.29	0.892
2354.99	0.8894
2363.69	0.8826
2372.39	0.8802
2381.09	0.877
2389.79	0.8808
2398.5	0.885
2407.2	0.8812
2415.9	0.8732
2424.6	0.8702
2433.3	0.869
2442	0.8614
2450.7	0.8605
2459.4	0.8698
2468.1	0.8768
2476.8	0.8835
2485.5	0.8905
2494.2	0.892
2502.9	0.895
2511.6	0.893
2520.31	0.8967
2529.01	0.899
2537.71	0.899
2546.41	0.897
2555.11	0.897
2563.81	0.9
2572.51	0.897
2581.21	0.8997
2589.91	0.9047
2598.61	0.908
2607.31	0.908
2616.01	0.908
2624.71	0.9117
2633.41	0.912
2642.12	0.912
2650.82	0.912
2659.52	0.912
2668.22	0.911
2676.92	0.9087
2685.62	0.907
2694.32	0.905
2703.02	0.903
2711.72	0.903
2720.42	0.901
2729.12	0.8954
2737.82	0.8884
2746.52	0.8748
2755.22	0.8736
2763.93	0.8942
2772.63	0.9
2781.33	0.8994
2790.03	0.8964
2798.73	0.895
2807.43	0.892
2816.13	0.886
2824.83	0.882
2833.53	0.8723
2842.23	0.847
2850.93	0.8327
2859.63	0.7798
2868.33	0.6884
2877.03	0.7306
2885.74	0.7165
2894.44	0.7429
2903.14	0.7634
2911.84	0.737
2920.54	0.7275
2929.24	0.7056
2937.94	0.6876
2946.64	0.7347
2955.34	0.753
2964.04	0.6617
2972.74	0.6625
2981.44	0.7367
2990.14	0.821
2998.84	0.825
3007.55	0.7836
3016.25	0.76
3024.95	0.768
3033.65	0.7173
3042.35	0.6628
3051.05	0.5948
3059.75	0.6632
3068.45	0.6651
3077.15	0.6712
3085.85	0.7093
3094.55	0.7569
3103.25	0.7878
3111.95	0.8378
3120.65	0.8753
3129.36	0.8897
3138.06	0.8999
3146.76	0.9058
3155.46	0.908
3164.16	0.911
3172.86	0.911
3181.56	0.911
3190.26	0.9114
3198.96	0.915
3207.66	0.916
3216.36	0.9184
3225.06	0.92
3233.76	0.922
3242.46	0.9224
3251.17	0.925
3259.87	0.925
3268.57	0.9264
3277.27	0.9264
3285.97	0.929
3294.67	0.929
3303.37	0.93
3312.07	0.931
3320.77	0.933
3329.47	0.931
3338.17	0.933
3346.87	0.933
3355.57	0.935
3364.27	0.9356
3372.98	0.9386
3381.68	0.942
3390.38	0.942
3399.08	0.9417
3407.78	0.942
3416.48	0.941
3425.18	0.94
3433.88	0.937
3442.58	0.9365
3451.28	0.934
3459.98	0.933
3468.68	0.9325
3477.38	0.9307
3486.08	0.93
3494.79	0.93
3503.49	0.927
3512.19	0.927
3520.89	0.9268
3529.59	0.926
3538.29	0.925
3546.99	0.925
3555.69	0.925
3564.39	0.923
3573.09	0.9228
3581.79	0.9216
3590.49	0.9188
3599.19	0.915
3607.89	0.9108
3616.6	0.9054
3625.3	0.912
3634	0.915
3642.7	0.915
3651.4	0.915
3660.1	0.918
3668.8	0.922
3677.5	0.9217
3686.2	0.9198
3694.9	0.919
3703.6	0.92
3712.3	0.92
3721	0.9233
3729.7	0.9233
3738.41	0.925
3747.11	0.9248
3755.81	0.9261
3764.51	0.9291
3773.21	0.93
3781.91	0.93
3790.61	0.93
