Infrared Spectrum: 1-Chloro-8-phenyloctane
Formula: C 14 H 21 Cl
CAS: 61440-32-2
State: gas
Origin: EPA-IR VAPOR PHASE LIBRARY
1/CM	ABSORBANCE
549.8	0.001421
559.445	0.003701
569.09	0.004991
578.734	0.003971
588.379	0.002881
598.024	0.001891
607.669	0.001431
617.313	0.001941
626.958	0.003121
636.603	0.004891
646.248	0.009041
655.893	0.016421
665.537	0.019661
675.182	0.018501
684.827	0.028661
694.472	0.060841
704.116	0.051481
713.761	0.042241
723.406	0.045731
733.051	0.056781
742.695	0.057301
752.34	0.036031
761.985	0.022321
771.63	0.013751
781.275	0.009061
790.919	0.007711
800.564	0.006291
810.209	0.005631
819.854	0.005131
829.498	0.004631
839.143	0.004131
848.788	0.003931
858.433	0.003621
868.078	0.003451
877.722	0.003971
887.367	0.004521
897.012	0.005021
906.657	0.006111
916.301	0.004951
925.946	0.003851
935.591	0.003681
945.236	0.003291
954.88	0.003741
964.525	0.003501
974.17	0.003931
983.815	0.003541
993.46	0.003851
1003.1	0.003971
1012.75	0.004731
1022.39	0.007801
1032.04	0.012391
1041.68	0.005201
1051.33	0.004641
1060.97	0.006221
1070.62	0.005611
1080.26	0.004711
1089.91	0.003681
1099.55	0.003251
1109.2	0.002501
1118.84	0.002671
1128.49	0.001641
1138.13	0.0006906
1147.78	0.0010822
1157.42	0.001411
1167.07	0.001971
1176.71	0.001831
1186.36	0.002031
1196	0.002661
1205.64	0.002751
1215.29	0.003091
1224.93	0.003541
1234.58	0.005951
1244.22	0.006801
1253.87	0.008861
1263.51	0.011141
1273.16	0.013321
1282.8	0.017631
1292.45	0.021901
1302.09	0.021581
1311.74	0.020421
1321.38	0.017081
1331.03	0.013541
1340.67	0.013421
1350.32	0.015451
1359.96	0.013091
1369.61	0.010041
1379.25	0.006301
1388.9	0.004211
1398.54	0.003721
1408.18	0.004181
1417.83	0.005471
1427.47	0.009111
1437.12	0.017881
1446.76	0.034121
1456.41	0.040681
1466.05	0.029891
1475.7	0.016341
1485.34	0.015291
1494.99	0.029571
1504.63	0.014441
1514.28	0.004811
1523.92	0.003321
1533.57	0.002931
1543.21	0.002531
1552.86	0.002231
1562.5	0.002681
1572.15	0.003751
1581.79	0.006121
1591.44	0.009951
1601.08	0.015291
1610.73	0.009811
1620.37	0.003471
1630.01	0.002141
1639.66	0.001931
1649.3	0.001811
1658.95	0.001481
1668.59	0.001158
1678.24	0.0009891
1687.88	0.0010724
1697.53	0.0012329
1707.17	0.0012109
1716.82	0.001271
1726.46	0.001641
1736.11	0.001691
1745.75	0.001561
1755.4	0.001311
1765.04	0.001321
1774.69	0.001911
1784.33	0.002981
1793.98	0.004531
1803.62	0.002791
1813.27	0.001901
1822.91	0.001551
1832.55	0.001351
1842.2	0.001681
1851.84	0.002171
1861.49	0.002731
1871.13	0.002951
1880.78	0.002351
1890.42	0.001651
1900.07	0.001196
1909.71	0.001321
1919.36	0.001931
1929	0.003131
1938.65	0.003971
1948.29	0.003821
1957.94	0.002471
1967.58	0.0011585
1977.23	0.0009795
1986.87	0.0008683
1996.52	0.0008053
2006.16	0.0009373
2015.81	0.0009885
2025.45	0.0009946
2035.1	0.0011283
2044.74	0.0009995
2054.38	0.0009736
2064.03	0.001058
2073.67	0.0010426
2083.32	0.0010016
2092.96	0.0009933
2102.61	0.0008338
2112.25	0.0008477
2121.9	0.00084
2131.54	0.000889
2141.19	0.0009711
2150.83	0.0009859
2160.48	0.0009801
2170.12	0.0009919
2179.77	0.0009561
2189.41	0.0010065
2199.06	0.0010213
2208.7	0.0011497
2218.35	0.0008968
2227.99	0.0010119
2237.64	0.0010013
2247.28	0.001026
2256.92	0.0010126
2266.57	0.0010941
2276.21	0.0010809
2285.86	0.0011191
2295.5	0.0011984
2305.15	0.001381
2314.79	0.001561
2324.44	0.001411
2334.08	0.001391
2343.73	0.001381
2353.37	0.0012434
2363.02	0.0012348
2372.66	0.0010937
2382.31	0.0011766
2391.95	0.0009949
2401.6	0.0009874
2411.24	0.0010463
2420.89	0.0010057
2430.53	0.0010404
2440.18	0.0010557
2449.82	0.0009366
2459.47	0.0010564
2469.11	0.0010001
2478.75	0.0010898
2488.4	0.0010175
2498.04	0.0011277
2507.69	0.0012089
2517.33	0.001361
2526.98	0.001441
2536.62	0.001461
2546.27	0.001451
2555.91	0.001481
2565.56	0.001451
2575.2	0.001441
2584.85	0.001841
2594.49	0.001981
2604.14	0.002111
2613.78	0.002281
2623.43	0.002271
2633.07	0.002631
2642.72	0.002771
2652.36	0.002871
2662.01	0.003111
2671.65	0.003321
2681.29	0.003481
2690.94	0.003601
2700.58	0.003281
2710.23	0.003101
2719.87	0.003071
2729.52	0.003011
2739.16	0.003241
2748.81	0.003431
2758.45	0.003561
2768.1	0.004121
2777.74	0.004851
2787.39	0.005631
2797.03	0.006911
2806.68	0.008111
2816.32	0.010171
2825.97	0.013671
2835.61	0.019451
2845.26	0.034781
2854.9	0.075911
2864.55	0.117121
2874.19	0.087661
2883.84	0.058401
2893.48	0.055371
2903.12	0.075051
2912.77	0.113201
2922.41	0.185121
2932.06	0.287321
2941.7	0.279031
2951.35	0.157811
2960.99	0.092131
2970.64	0.057151
2980.28	0.035161
2989.93	0.031611
2999.57	0.036231
3009.22	0.027911
3018.86	0.032871
3028.51	0.053011
3038.15	0.046551
3047.8	0.027011
3057.44	0.028681
3067.09	0.046671
3076.73	0.038841
3086.38	0.026741
3096.02	0.018561
3105.67	0.012571
3115.31	0.007911
3124.95	0.004091
3134.6	0.002541
3144.24	0.002051
3153.89	0.002001
3163.53	0.001811
3173.18	0.001301
3182.82	0.0012315
3192.47	0.001281
3202.11	0.0009724
3211.76	0.0009505
3221.4	0.0009614
3231.05	0.0007229
3240.69	0.0007989
3250.34	0.0004422
3259.98	0.0006321
3269.63	0.0006253
3279.27	0.0006779
3288.92	0.000635
3298.56	0.0003989
3308.21	0.0006604
3317.85	0.0005625
3327.49	0.0003697
3337.14	0.0004307
3346.78	0.0001874
3356.43	0.0007273
3366.07	0.0005927
3375.72	0.00028395
3385.36	0.0004503
3395.01	0.0004831
3404.65	0.0002403
3414.3	0.0004246
3423.94	0.0004254
3433.59	0.0006716
3443.23	0.0005692
3452.88	0.000239
3462.52	0.0001685
3472.17	0.0004106
3481.81	0.00028424
3491.46	0.0002376
3501.1	0.0002242
3510.75	0.0003758
3520.39	0.00024108
3530.04	0.000136
3539.68	0.000126
3549.32	0.00026106
3558.97	0.00029687
3568.61	0.0003589
3578.26	0.0002182
3587.9	0.00027863
3597.55	0.0005265
3607.19	0.0003748
3616.84	0.0009248
3626.48	0.0005885
3636.13	0.0007942
3645.77	0.0010197
3655.42	0.0009729
3665.06	0.0007524
3674.71	0.0007279
3684.35	0.0005146
3694	0.0004892
3703.64	0.0007002
3713.29	0.0008379
3722.93	0.0008194
3732.58	0.0006578
3742.22	0.0005003
3751.86	0.0005074
3761.51	0.0006296
3771.15	0.0008384
3780.8	0.0006696
3790.44	0.0005896
3800.09	0.0007096
3809.73	0.0006328
3819.38	0.0005934
3829.02	0.0008858
3838.67	0.0006413
3848.31	0.0005623
3857.96	0.0007267
3867.6	0.0006705
3877.25	0.000822
3886.89	0.0007361
3896.54	0.0006232
3906.18	0.0005276
3915.83	0.000946
3925.47	0.0009137
3935.12	0.0007057
3944.76	0.0007716
3954.41	0.0007073
3964.05	0.0008568
3973.69	0.0008431
3983.34	0.0008066
3992.98	0.0009691
