Infrared Spectrum: 3',4'-DICHLORO-5-ETHYL-2-HYDROXYBENZOPHENONE
Formula: C15 H12 Cl2 O2
CAS: 61466-87-3
State: SOLID (MINERAL OIL MULL)
Class: COBLENTZ
Instrument: Not specified, most likely a prism, grating, or hybrid spectrometer.
Sampling: TRANSMISSION
Resolution: 4
Origin: DOW CHEMICAL COMPANY
MICROMETERS	TRANSMITTANCE
2.034	0.47
2.07318	0.477
2.11235	0.485
2.15153	0.493
2.1907	0.503
2.22988	0.509
2.26905	0.509
2.30823	0.513
2.3474	0.521
2.38658	0.532
2.42576	0.542
2.46493	0.552
2.50411	0.56
2.54328	0.566
2.58246	0.571
2.62163	0.581
2.66081	0.586
2.69998	0.591
2.73916	0.598
2.77834	0.599
2.81751	0.599
2.85669	0.581
2.89586	0.519
2.93504	0.338
2.97421	0.148
3.01339	0.308
3.05256	0.418
3.09174	0.49
3.13092	0.532
3.17009	0.56
3.20927	0.573
3.24844	0.562
3.28762	0.55
3.32679	0.504
3.36597	0.176
3.40515	0.055
3.44432	0.117
3.4835	0.168
3.52267	0.434
3.56185	0.606
3.60102	0.645
3.6402	0.658
3.67937	0.651
3.71855	0.658
3.75773	0.673
3.7969	0.683
3.83608	0.691
3.87525	0.699
3.91443	0.704
3.9536	0.712
3.99278	0.72
4.03195	0.715
4.07113	0.723
4.11031	0.732
4.14948	0.746
4.18866	0.743
4.22783	0.736
4.26701	0.743
4.30618	0.764
4.34536	0.767
4.38453	0.771
4.42371	0.777
4.46289	0.777
4.50206	0.782
4.54124	0.787
4.58041	0.789
4.61959	0.789
4.65876	0.792
4.69794	0.797
4.73711	0.797
4.77629	0.799
4.81547	0.802
4.85464	0.803
4.89382	0.807
4.93299	0.81
4.97217	0.813
5.01134	0.816
5.05052	0.818
5.08969	0.818
5.12887	0.82
5.16805	0.818
5.20722	0.812
5.2464	0.818
5.28557	0.823
5.32475	0.828
5.36392	0.828
5.4031	0.83
5.44228	0.831
5.48145	0.83
5.52063	0.825
5.5598	0.821
5.59898	0.823
5.63815	0.823
5.67733	0.83
5.7165	0.823
5.75568	0.823
5.79486	0.834
5.83403	0.828
5.87321	0.82
5.91238	0.816
5.95156	0.8
5.99073	0.771
6.02991	0.691
6.06908	0.39
6.10826	0.348
6.14744	0.478
6.18661	0.292
6.22579	0.534
6.26496	0.521
6.30414	0.46
6.34331	0.254
6.38249	0.111
6.42166	0.33
6.46084	0.462
6.50002	0.638
6.53919	0.676
6.57837	0.709
6.61754	0.723
6.65672	0.699
6.69589	0.676
6.73507	0.684
6.77424	0.418
6.81342	0.29
6.8526	0.382
6.89177	0.49
6.93095	0.625
6.97012	0.753
7.0093	0.764
7.04847	0.782
7.08765	0.782
7.12682	0.759
7.166	0.714
7.20518	0.527
7.24435	0.464
7.28353	0.594
7.3227	0.633
7.36188	0.653
7.40105	0.718
7.44023	0.727
7.4794	0.707
7.51858	0.573
7.55776	0.56
7.59693	0.459
7.63611	0.194
7.67528	0.155
7.71446	0.238
7.75363	0.468
7.79281	0.562
7.83199	0.578
7.87116	0.482
7.91034	0.321
7.94951	0.356
7.98869	0.2
8.02786	0.243
8.06704	0.488
8.10621	0.531
8.14539	0.37
8.18457	0.194
8.22374	0.326
8.26292	0.506
8.30209	0.629
8.34127	0.674
8.38044	0.72
8.41962	0.732
8.45879	0.633
8.49797	0.557
8.53715	0.601
8.57632	0.678
8.6155	0.725
8.65467	0.72
8.69385	0.709
8.73302	0.75
8.7722	0.715
8.81137	0.633
8.85055	0.684
8.88973	0.71
8.9289	0.625
8.96808	0.465
9.00725	0.452
9.04643	0.64
9.0856	0.759
9.12478	0.789
9.16395	0.81
9.20313	0.816
9.24231	0.821
9.28148	0.82
9.32066	0.816
9.35983	0.779
9.39901	0.75
9.43818	0.782
9.47736	0.813
9.51653	0.83
9.55571	0.825
9.59489	0.779
9.63406	0.661
9.67324	0.642
9.71241	0.772
9.75159	0.828
9.79076	0.844
9.82994	0.862
9.86912	0.867
9.90829	0.87
9.94747	0.874
9.98664	0.874
10.0258	0.852
10.065	0.789
10.1042	0.797
10.1433	0.852
10.1825	0.874
10.2217	0.879
10.2609	0.88
10.3	0.87
10.3392	0.841
10.3784	0.805
10.4176	0.789
10.4567	0.753
10.4959	0.766
10.5351	0.653
10.5743	0.532
10.6135	0.666
10.6526	0.789
10.6918	0.823
10.731	0.833
10.7702	0.836
10.8093	0.823
10.8485	0.776
10.8877	0.689
10.9269	0.648
10.966	0.756
11.0052	0.769
11.0444	0.733
11.0836	0.735
11.1227	0.802
11.1619	0.831
11.2011	0.841
11.2403	0.849
11.2794	0.851
11.3186	0.831
11.3578	0.754
11.397	0.656
11.4361	0.681
11.4753	0.805
11.5145	0.833
11.5537	0.839
11.5928	0.841
11.632	0.843
11.6712	0.833
11.7104	0.821
11.7495	0.805
11.7887	0.813
11.8279	0.81
11.8671	0.769
11.9062	0.678
11.9454	0.55
11.9846	0.55
12.0238	0.54
12.0629	0.439
12.1021	0.535
12.1413	0.694
12.1805	0.771
12.2196	0.789
12.2588	0.795
12.298	0.799
12.3372	0.787
12.3764	0.767
12.4155	0.766
12.4547	0.785
12.4939	0.79
12.5331	0.787
12.5722	0.784
12.6114	0.779
12.6506	0.764
12.6898	0.738
12.7289	0.671
12.7681	0.602
12.8073	0.571
12.8465	0.531
12.8856	0.39
12.9248	0.369
12.964	0.557
13.0032	0.671
13.0423	0.72
13.0815	0.75
13.1207	0.771
13.1599	0.781
13.199	0.784
13.2382	0.787
13.2774	0.787
13.3166	0.784
13.3557	0.779
13.3949	0.774
13.4341	0.764
13.4733	0.748
13.5124	0.705
13.5516	0.674
13.5908	0.697
13.63	0.733
13.6691	0.738
13.7083	0.735
13.7475	0.73
13.7867	0.722
13.8258	0.717
13.865	0.714
13.9042	0.712
13.9434	0.707
13.9826	0.697
14.0217	0.696
14.0609	0.709
14.1001	0.71
14.1393	0.704
14.1784	0.691
14.2176	0.678
14.2568	0.663
14.296	0.65
14.3351	0.635
14.3743	0.625
14.4135	0.619
14.4527	0.614
14.4918	0.616
14.531	0.619
14.5702	0.612
14.6094	0.599
14.6485	0.58
14.6877	0.553
14.7269	0.529
14.7661	0.509
14.8052	0.48
14.8444	0.446
14.8836	0.405
14.9228	0.398
14.9619	0.431
15.0011	0.465
15.0403	0.46
15.0795	0.442
15.1186	0.428
15.1578	0.411
15.197	0.397
15.2362	0.382
15.2753	0.372
15.3145	0.362
15.3537	0.352
15.3929	0.348
15.432	0.344
15.4712	0.338
15.5104	0.323
15.5496	0.313
15.5887	0.305
15.6279	0.3
15.6671	0.303
15.7063	0.308
15.7455	0.313
15.7846	0.316
15.8238	0.32
15.863	0.32
15.9022	0.316
