Infrared Spectrum: 2,4-DINITROPHENYLHYDRAZONE OF 6-METHYL-5-HEPTENONE-2
Formula: C14 H18 N4 O4
CAS: 6147-43-9
State: SOLID (OIL MULL)
Class: COBLENTZ
Instrument: Not specified, most likely a prism, grating, or hybrid spectrometer.
Sampling: TRANSMISSION
Resolution: 4
MICROMETERS	TRANSMITTANCE
2.02	0.451
2.06027	0.456
2.10054	0.462
2.14081	0.474
2.18108	0.482
2.22135	0.484
2.26161	0.495
2.30188	0.5
2.34215	0.504
2.38242	0.512
2.42269	0.517
2.46296	0.523
2.50323	0.532
2.5435	0.538
2.58377	0.545
2.62404	0.557
2.66431	0.558
2.70458	0.565
2.74484	0.565
2.78511	0.565
2.82538	0.568
2.86565	0.575
2.90592	0.581
2.94619	0.586
2.98646	0.446
3.02673	0.497
3.067	0.561
3.10727	0.578
3.14754	0.575
3.1878	0.527
3.22807	0.452
3.26834	0.51
3.30861	0.454
3.34888	0.188
3.38915	0.066
3.42942	0.049
3.46969	0.102
3.50996	0.266
3.55023	0.561
3.5905	0.616
3.63077	0.638
3.67103	0.639
3.7113	0.656
3.75157	0.672
3.79184	0.677
3.83211	0.68
3.87238	0.689
3.91265	0.69
3.95292	0.702
3.99319	0.707
4.03346	0.707
4.07373	0.705
4.11399	0.704
4.15426	0.704
4.19453	0.71
4.2348	0.71
4.27507	0.715
4.31534	0.733
4.35561	0.745
4.39588	0.745
4.43615	0.75
4.47642	0.755
4.51669	0.761
4.55696	0.765
4.59722	0.763
4.63749	0.768
4.67776	0.773
4.71803	0.78
4.7583	0.791
4.79857	0.783
4.83884	0.781
4.87911	0.783
4.91938	0.793
4.95965	0.798
4.99992	0.798
5.04018	0.798
5.08045	0.785
5.12072	0.79
5.16099	0.804
5.20126	0.813
5.24153	0.816
5.2818	0.823
5.32207	0.819
5.36234	0.823
5.40261	0.819
5.44288	0.79
5.48314	0.821
5.52341	0.823
5.56368	0.836
5.60395	0.836
5.64422	0.841
5.68449	0.841
5.72476	0.838
5.76503	0.842
5.8053	0.828
5.84557	0.834
5.88584	0.829
5.92611	0.798
5.96637	0.77
6.00664	0.771
6.04691	0.733
6.08718	0.593
6.12745	0.266
6.16772	0.15
6.20799	0.33
6.24826	0.262
6.28853	0.241
6.3288	0.4
6.36907	0.591
6.40933	0.651
6.4496	0.657
6.48987	0.337
6.53014	0.355
6.57041	0.353
6.61068	0.328
6.65095	0.272
6.69122	0.366
6.73149	0.504
6.77176	0.514
6.81203	0.345
6.8523	0.289
6.89256	0.254
6.93283	0.277
6.9731	0.37
7.01337	0.396
7.05364	0.224
7.09391	0.244
7.13418	0.5
7.17445	0.619
7.21472	0.442
7.25499	0.332
7.29526	0.335
7.33552	0.244
7.37579	0.322
7.41606	0.333
7.45633	0.186
7.4966	0.13
7.53687	0.279
7.57714	0.289
7.61741	0.104
7.65768	0.137
7.69795	0.239
7.73822	0.125
7.77849	0.123
7.81875	0.095
7.85902	0.117
7.89929	0.213
7.93956	0.233
7.97983	0.206
8.0201	0.327
8.06037	0.472
8.10064	0.52
8.14091	0.444
8.18118	0.284
8.22145	0.37
8.26171	0.477
8.30198	0.542
8.34225	0.557
8.38252	0.603
8.42279	0.651
8.46306	0.674
8.50333	0.685
8.5436	0.699
8.58387	0.709
8.62414	0.692
8.66441	0.633
8.70468	0.505
8.74494	0.403
8.78521	0.37
8.82548	0.307
8.86575	0.421
8.90602	0.474
8.94629	0.492
8.98656	0.499
9.02683	0.53
9.0671	0.583
9.10737	0.596
9.14764	0.56
9.1879	0.494
9.22817	0.474
9.26844	0.55
9.30871	0.618
9.34898	0.652
9.38925	0.522
9.42952	0.396
9.46979	0.533
9.51006	0.598
9.55033	0.608
9.5906	0.652
9.63087	0.674
9.67113	0.669
9.7114	0.666
9.75167	0.694
9.79194	0.704
9.83221	0.72
9.87248	0.737
9.91275	0.74
9.95302	0.752
9.99329	0.753
10.0336	0.753
10.0738	0.75
10.1141	0.743
10.1544	0.719
10.1946	0.699
10.2349	0.715
10.2752	0.742
10.3154	0.755
10.3557	0.757
10.396	0.766
10.4362	0.766
10.4765	0.768
10.5168	0.768
10.5571	0.771
10.5973	0.776
10.6376	0.773
10.6779	0.77
10.7181	0.723
10.7584	0.603
10.7987	0.36
10.8389	0.307
10.8792	0.29
10.9195	0.568
10.9597	0.68
11	0.735
11.0403	0.761
11.0806	0.771
11.1208	0.776
11.1611	0.785
11.2014	0.791
11.2416	0.798
11.2819	0.795
11.3222	0.801
11.3624	0.795
11.4027	0.793
11.443	0.793
11.4832	0.783
11.5235	0.785
11.5638	0.788
11.6041	0.791
11.6443	0.773
11.6846	0.737
11.7249	0.704
11.7651	0.705
11.8054	0.714
11.8457	0.719
11.8859	0.649
11.9262	0.522
11.9665	0.241
12.0067	0.404
12.047	0.611
12.0873	0.616
12.1276	0.652
12.1678	0.735
12.2081	0.77
12.2484	0.791
12.2886	0.811
12.3289	0.818
12.3692	0.821
12.4094	0.823
12.4497	0.824
12.49	0.823
12.5302	0.826
12.5705	0.818
12.6108	0.816
12.651	0.814
12.6913	0.823
12.7316	0.821
12.7719	0.823
12.8121	0.823
12.8524	0.819
12.8927	0.819
12.9329	0.813
12.9732	0.809
13.0135	0.803
13.0537	0.783
13.094	0.674
13.1343	0.722
13.1745	0.776
13.2148	0.778
13.2551	0.752
13.2954	0.692
13.3356	0.588
13.3759	0.439
13.4162	0.307
13.4564	0.233
13.4967	0.403
13.537	0.583
13.5772	0.682
13.6175	0.714
13.6578	0.733
13.698	0.702
13.7383	0.588
13.7786	0.504
13.8189	0.568
13.8591	0.636
13.8994	0.694
13.9397	0.732
13.9799	0.757
14.0202	0.771
14.0605	0.783
14.1007	0.788
14.141	0.788
14.1813	0.791
14.2215	0.798
14.2618	0.793
14.3021	0.788
14.3424	0.795
14.3826	0.78
14.4229	0.77
14.4632	0.765
14.5034	0.743
14.5437	0.7
14.584	0.654
14.6242	0.633
14.6645	0.642
14.7048	0.692
14.745	0.717
14.7853	0.735
14.8256	0.75
14.8659	0.752
14.9061	0.75
14.9464	0.752
14.9867	0.755
15.0269	0.757
15.0672	0.743
15.1075	0.737
15.1477	0.71
15.188	0.671
15.2283	0.651
15.2685	0.656
15.3088	0.68
15.3491	0.702
15.3894	0.707
15.4296	0.715
15.4699	0.714
