Infrared Spectrum: Di-allylamine, hydrochloride
Formula: C6 H12 Cl N
CAS: 6147-66-6
State: SOLID (KBr DISC, 0.9% WT.)
Class: COBLENTZ III
Instrument: PERKIN-ELMER 157
Sampling: TRANSMISSION
Resolution: 2
Origin: BRITISH PETROLEUM CO. LTD., ENGLAND
1/CM	TRANSMITTANCE
667	0.7588
676	0.8473
685	0.965
694	0.9845
703	0.9843
712	0.9791
721	0.9667
730	0.9494
739	0.938
748	0.9169
757	0.9081
766	0.8909
775	0.8734
784	0.8561
793	0.8342
802	0.8166
811	0.7945
820	0.7567
829	0.6935
838	0.5587
847	0.5574
856	0.696
865	0.7428
874	0.7128
883	0.6919
892	0.6621
901	0.5796
910	0.4513
919	0.3318
928	0.254
937	0.053
946	0.034
955	0.1716
964	0.3804
973	0.4104
982	0.2425
991	0.0583
1000	0.1462
1009	0.1986
1018	0.2691
1027	0.4176
1036	0.4927
1045	0.5469
1054	0.6384
1063	0.6791
1072	0.6889
1081	0.6951
1090	0.6882
1099	0.6735
1108	0.6476
1117	0.6454
1126	0.6597
1135	0.6831
1144	0.6868
1153	0.6869
1162	0.6859
1171	0.6694
1180	0.6645
1189	0.6818
1198	0.7001
1207	0.6985
1216	0.6894
1225	0.6643
1234	0.6859
1243	0.6877
1252	0.6854
1261	0.6713
1270	0.6474
1279	0.6338
1288	0.6241
1297	0.6042
1306	0.5692
1315	0.5028
1324	0.4756
1333	0.5118
1342	0.5212
1351	0.508
1360	0.5003
1369	0.4782
1378	0.3974
1387	0.4295
1396	0.4032
1405	0.3658
1414	0.2694
1423	0.1479
1432	0.0676
1441	0.0753
1450	0.1441
1459	0.1295
1468	0.1942
1477	0.376
1486	0.4276
1495	0.4536
1504	0.459
1513	0.4576
1522	0.448
1531	0.4348
1540	0.4316
1549	0.4238
1558	0.4077
1567	0.3806
1576	0.3525
1585	0.3177
1594	0.3532
1603	0.411
1612	0.416
1621	0.4154
1630	0.4148
1639	0.4142
1648	0.3984
1657	0.4015
1666	0.448
1675	0.4785
1684	0.5019
1693	0.5254
1702	0.54
1711	0.545
1720	0.5466
1729	0.5488
1738	0.547
1747	0.5415
1756	0.5318
1765	0.5257
1774	0.522
1783	0.5098
1792	0.4873
1801	0.4774
1810	0.4726
1819	0.4729
1828	0.4764
1837	0.4857
1846	0.493
1855	0.4904
1864	0.4855
1873	0.474
1882	0.4557
1891	0.4538
1900	0.4559
1909	0.4703
1918	0.4844
1927	0.491
1936	0.493
1945	0.4909
1954	0.4876
1963	0.4849
1972	0.4743
1981	0.4736
1990	0.4736
1999	0.4733
2008	0.472
2017	0.4688
2026	0.4646
2035	0.4617
2044	0.4582
2053	0.4544
2062	0.4525
2071	0.4512
2080	0.4501
2089	0.4478
2098	0.4434
2107	0.4388
2116	0.4339
2125	0.4321
2134	0.4295
2143	0.4246
2152	0.4189
2161	0.4136
2170	0.4099
2179	0.4066
2188	0.4051
2197	0.4034
2206	0.3985
2215	0.3919
2224	0.3828
2233	0.3778
2242	0.3752
2251	0.3741
2260	0.3731
2269	0.372
2278	0.3656
2287	0.3536
2296	0.3375
2305	0.3216
2314	0.2946
2323	0.2667
2332	0.2355
2341	0.2179
2350	0.2039
2359	0.1893
2368	0.1689
2377	0.1462
2386	0.105
2395	0.0847
2404	0.0715
2413	0.069
2422	0.0772
2431	0.115
2440	0.1582
2449	0.2011
2458	0.2202
2467	0.2205
2476	0.2202
2485	0.2183
2494	0.2083
2503	0.1764
2512	0.1581
2521	0.1398
2530	0.1233
2539	0.1096
2548	0.0936
2557	0.0843
2566	0.0809
2575	0.0795
2584	0.078
2593	0.0693
2602	0.064
2611	0.0572
2620	0.0499
2629	0.0435
2638	0.0389
2647	0.0364
2656	0.0363
2665	0.0365
2674	0.0352
2683	0.0274
2692	0.0201
2701	0.0142
2710	0.0121
2719	0.0119
2728	0.0119
2737	0.0119
2746	0.0122
2755	0.0124
2764	0.0126
2773	0.0129
2782	0.0134
2791	0.014
2800	0.0146
2809	0.0152
2818	0.0156
2827	0.0161
2836	0.0163
2845	0.016
2854	0.0154
2863	0.0142
2872	0.0129
2881	0.0122
2890	0.012
2899	0.0118
2908	0.0118
2917	0.012
2926	0.0123
2935	0.0126
2944	0.0133
2953	0.0141
2962	0.0147
2971	0.0159
2980	0.0172
2989	0.0185
2998	0.0208
3007	0.0237
3016	0.0265
3025	0.03
3034	0.0341
3043	0.0388
3052	0.0465
3061	0.052
3070	0.0566
3079	0.0612
3088	0.0671
3097	0.0785
3106	0.0854
3115	0.0921
3124	0.1093
3133	0.1138
3142	0.1141
3151	0.1147
3160	0.1152
3169	0.1176
3178	0.1216
3187	0.133
3196	0.1389
3205	0.1412
3214	0.142
3223	0.1422
3232	0.1424
3241	0.1425
3250	0.1427
3259	0.1429
3268	0.1429
3277	0.1428
3286	0.1426
3295	0.1424
3304	0.1411
3313	0.138
3322	0.1336
3331	0.129
3340	0.1244
3349	0.1203
3358	0.1178
3367	0.1168
3376	0.1164
3385	0.116
3394	0.1157
3403	0.1156
3412	0.1154
3421	0.1152
3430	0.1144
3439	0.1149
3448	0.1148
3457	0.1147
3466	0.1147
3475	0.1147
3484	0.1147
3493	0.1149
3502	0.1152
3511	0.1165
3520	0.1178
3529	0.12
3538	0.1228
3547	0.1254
3556	0.1255
3565	0.1258
3574	0.1265
3583	0.129
3592	0.132
3601	0.1348
3610	0.1377
3619	0.1406
3628	0.1414
3637	0.1416
3646	0.1417
3655	0.1419
3664	0.1419
3673	0.1418
3682	0.1415
3691	0.1413
3700	0.1411
3709	0.1405
3718	0.1397
3727	0.1388
3736	0.1372
3745	0.1352
3754	0.1335
3763	0.1321
3772	0.1307
3781	0.1295
3790	0.1291
3799	0.1287
3808	0.1284
3817	0.1282
3826	0.128
3835	0.1278
3844	0.1277
3853	0.1274
3862	0.1255
3871	0.1236
3880	0.1207
3889	0.1187
3898	0.1178
3907	0.1174
3916	0.1171
3925	0.1172
3934	0.1172
3943	0.1172
3952	0.1171
3961	0.117
3970	0.1169
3979	0.1168
3988	0.1167
3997	0.1167
