Infrared Spectrum: 4-(4-Nitrophenoxy)aniline
Formula: C 12 H 10 N 2 O 3
CAS: 6149-33-3
State: gas
Origin: EPA-IR VAPOR PHASE LIBRARY
1/CM	ABSORBANCE
549.8	0.005963
559.445	0.007503
569.09	0.006443
578.734	0.005003
588.379	0.004333
598.024	0.004673
607.669	0.005063
617.313	0.006613
626.958	0.008793
636.603	0.013843
646.248	0.021603
655.893	0.020743
665.537	0.019033
675.182	0.018913
684.827	0.016033
694.472	0.012513
704.116	0.010733
713.761	0.009363
723.406	0.008313
733.051	0.009423
742.695	0.012983
752.34	0.014903
761.985	0.009643
771.63	0.006973
781.275	0.005703
790.919	0.006413
800.564	0.008283
810.209	0.011643
819.854	0.016313
829.498	0.022803
839.143	0.024743
848.788	0.031643
858.433	0.026933
868.078	0.033503
877.722	0.048833
887.367	0.010403
897.012	0.004923
906.657	0.003433
916.301	0.003073
925.946	0.003293
935.591	0.002563
945.236	0.002733
954.88	0.003003
964.525	0.002953
974.17	0.003273
983.815	0.003213
993.46	0.002823
1003.1	0.004523
1012.75	0.007773
1022.39	0.003253
1032.04	0.002583
1041.68	0.003083
1051.33	0.003443
1060.97	0.004453
1070.62	0.005483
1080.26	0.007213
1089.91	0.009433
1099.55	0.012123
1109.2	0.023973
1118.84	0.014653
1128.49	0.006413
1138.13	0.005213
1147.78	0.006543
1157.42	0.018223
1167.07	0.027643
1176.71	0.011933
1186.36	0.016753
1196	0.036073
1205.64	0.026573
1215.29	0.029773
1224.93	0.060253
1234.58	0.157793
1244.22	0.270913
1253.87	0.114813
1263.51	0.040933
1273.16	0.026073
1282.8	0.022763
1292.45	0.021233
1302.09	0.017913
1311.74	0.017753
1321.38	0.023003
1331.03	0.027213
1340.67	0.066393
1350.32	0.131053
1359.96	0.043863
1369.61	0.019923
1379.25	0.012073
1388.9	0.009723
1398.54	0.007813
1408.18	0.006893
1417.83	0.009283
1427.47	0.008663
1437.12	0.008313
1446.76	0.009053
1456.41	0.009173
1466.05	0.013703
1475.7	0.031843
1485.34	0.122093
1494.99	0.123923
1504.63	0.126223
1514.28	0.112443
1523.92	0.063033
1533.57	0.085823
1543.21	0.061703
1552.86	0.030423
1562.5	0.023083
1572.15	0.022853
1581.79	0.036463
1591.44	0.068073
1601.08	0.045773
1610.73	0.036023
1620.37	0.036033
1630.01	0.032913
1639.66	0.017443
1649.3	0.009083
1658.95	0.006593
1668.59	0.004793
1678.24	0.003603
1687.88	0.002953
1697.53	0.002683
1707.17	0.002703
1716.82	0.002453
1726.46	0.002473
1736.11	0.002343
1745.75	0.002013
1755.4	0.002133
1765.04	0.002743
1774.69	0.002253
1784.33	0.001513
1793.98	0.001433
1803.62	0.001403
1813.27	0.001383
1822.91	0.001463
1832.55	0.001573
1842.2	0.002013
1851.84	0.002813
1861.49	0.003273
1871.13	0.002683
1880.78	0.002213
1890.42	0.002303
1900.07	0.002833
1909.71	0.003103
1919.36	0.002513
1929	0.001963
1938.65	0.001573
1948.29	0.001493
1957.94	0.001593
1967.58	0.001623
1977.23	0.001853
1986.87	0.002053
1996.52	0.002163
2006.16	0.002203
2015.81	0.002133
2025.45	0.001983
2035.1	0.002223
2044.74	0.002093
2054.38	0.001993
2064.03	0.001933
2073.67	0.002123
2083.32	0.001733
2092.96	0.001423
2102.61	0.001393
2112.25	0.001273
2121.9	0.001138
2131.54	0.0009042
2141.19	0.0007779
2150.83	0.0007327
2160.48	0.0008083
2170.12	0.0008217
2179.77	0.0007089
2189.41	0.0006764
2199.06	0.0007454
2208.7	0.0008315
2218.35	0.0008839
2227.99	0.0008678
2237.64	0.0008729
2247.28	0.0010019
2256.92	0.0010099
2266.57	0.0010186
2276.21	0.0009866
2285.86	0.0008491
2295.5	0.0008473
2305.15	0.0010155
2314.79	0.0010806
2324.44	0.001283
2334.08	0.0011166
2343.73	0.001107
2353.37	0.001443
2363.02	0.001423
2372.66	0.001293
2382.31	0.001453
2391.95	0.001613
2401.6	0.001773
2411.24	0.001743
2420.89	0.001663
2430.53	0.002143
2440.18	0.002433
2449.82	0.002523
2459.47	0.002523
2469.11	0.002163
2478.75	0.001793
2488.4	0.001433
2498.04	0.001243
2507.69	0.0011373
2517.33	0.0010869
2526.98	0.0011447
2536.62	0.0011566
2546.27	0.001193
2555.91	0.0010995
2565.56	0.001173
2575.2	0.0011013
2584.85	0.001283
2594.49	0.001373
2604.14	0.001503
2613.78	0.001343
2623.43	0.001203
2633.07	0.0011222
2642.72	0.001039
2652.36	0.0009393
2662.01	0.0008289
2671.65	0.0008
2681.29	0.0009194
2690.94	0.0010087
2700.58	0.0009259
2710.23	0.0009921
2719.87	0.0009838
2729.52	0.0009052
2739.16	0.0007948
2748.81	0.000777
2758.45	0.0007238
2768.1	0.0007551
2777.74	0.0007033
2787.39	0.0006852
2797.03	0.0006214
2806.68	0.0007823
2816.32	0.0006351
2825.97	0.0009644
2835.61	0.001273
2845.26	0.001353
2854.9	0.001523
2864.55	0.001893
2874.19	0.002073
2883.84	0.001763
2893.48	0.001573
2903.12	0.001253
2912.77	0.0011216
2922.41	0.0011377
2932.06	0.0011153
2941.7	0.001223
2951.35	0.0010206
2960.99	0.0007723
2970.64	0.0006985
2980.28	0.0007221
2989.93	0.0009697
2999.57	0.001733
3009.22	0.004263
3018.86	0.006063
3028.51	0.005353
3038.15	0.008333
3047.8	0.009193
3057.44	0.004143
3067.09	0.003493
3076.73	0.003613
3086.38	0.004023
3096.02	0.002753
3105.67	0.001913
3115.31	0.001603
3124.95	0.0009868
3134.6	0.0006982
3144.24	0.0005219
3153.89	0.0005283
3163.53	0.0005108
3173.18	0.0004914
3182.82	0.0005065
3192.47	0.0005934
3202.11	0.000753
3211.76	0.0010109
3221.4	0.0009513
3231.05	0.0008247
3240.69	0.0010973
3250.34	0.0006149
3259.98	0.0005993
3269.63	0.000586
3279.27	0.0003648
3288.92	0.0002752
3298.56	0.00022433
3308.21	0.000275
3317.85	0.0003222
3327.49	0.00023093
3337.14	0.00025611
3346.78	0.0004168
3356.43	0.0003194
3366.07	0.0007706
3375.72	0.0007835
3385.36	0.001213
3395.01	0.002513
3404.65	0.004853
3414.3	0.005703
3423.94	0.003923
3433.59	0.001653
3443.23	0.0009668
3452.88	0.0009851
3462.52	0.0010103
3472.17	0.001683
3481.81	0.002623
3491.46	0.003013
3501.1	0.002833
3510.75	0.002063
3520.39	0.001373
3530.04	0.0008663
3539.68	0.0005069
3549.32	0.0003693
3558.97	0.0004175
3568.61	0.0003115
3578.26	0.0001972
3587.9	0.0003055
3597.55	0.0003853
3607.19	0.0001627
3616.84	0.00027045
3626.48	0.0002946
3636.13	0.0003224
3645.77	0.0003199
3655.42	0.0003926
3665.06	0.0003051
3674.71	0.00016917
3684.35	0.0004194
3694	0.0004073
3703.64	0.0003406
3713.29	0.0003987
3722.93	0.0003701
3732.58	0.0004793
3742.22	0.0002755
3751.86	0.0002922
3761.51	0.0003741
3771.15	0.00021276
3780.8	0.00020619
3790.44	0.0005012
3800.09	0.0004114
3809.73	0.00021686
3819.38	0.00019557
3829.02	0.0001358
3838.67	9.1e-05
3848.31	0.0003869
3857.96	0.0006323
3867.6	0.0007312
3877.25	0.0006536
3886.89	0.0004786
3896.54	0.000179904
3906.18	0.0003878
3915.83	0.0003405
3925.47	0.0003899
3935.12	0.0004331
3944.76	0.0005048
3954.41	0.0004811
3964.05	0.00019509
3973.69	0.0006102
3983.34	0.0004369
3992.98	0.00020957
