Infrared Spectrum: Ethyl acetopyruvate
Formula: C 7 H 10 O 4
CAS: 615-79-2
State: gas
Origin: EPA-IR VAPOR PHASE LIBRARY
1/CM	ABSORBANCE
549.9	0.01111
559.547	0.01376
569.193	0.01616
578.84	0.01391
588.486	0.00903
598.133	0.00635
607.779	0.00519
617.426	0.00472
627.072	0.00433
636.719	0.00387
646.365	0.00347
656.012	0.00311
665.658	0.00299
675.305	0.00297
684.951	0.00305
694.598	0.00341
704.245	0.00376
713.891	0.00446
723.538	0.00543
733.184	0.00759
742.831	0.01203
752.477	0.01921
762.124	0.02706
771.77	0.03178
781.417	0.02735
791.063	0.0187
800.71	0.01313
810.356	0.01128
820.003	0.01099
829.649	0.0112
839.296	0.01231
848.943	0.01507
858.589	0.01899
868.236	0.0202
877.882	0.01829
887.529	0.01861
897.175	0.02199
906.822	0.02259
916.468	0.01624
926.115	0.01087
935.761	0.00836
945.408	0.00792
955.054	0.00851
964.701	0.01012
974.347	0.013
983.994	0.01714
993.64	0.02077
1003.29	0.02578
1012.93	0.03579
1022.58	0.04526
1032.23	0.04066
1041.87	0.03042
1051.52	0.03068
1061.17	0.03661
1070.81	0.04243
1080.46	0.05256
1090.11	0.07174
1099.75	0.09787
1109.4	0.12857
1119.05	0.11829
1128.69	0.06951
1138.34	0.04814
1147.99	0.04347
1157.63	0.04407
1167.28	0.04891
1176.92	0.05995
1186.57	0.08012
1196.22	0.10067
1205.86	0.1004
1215.51	0.08849
1225.16	0.09103
1234.8	0.11591
1244.45	0.16215
1254.1	0.21592
1263.74	0.25693
1273.39	0.23727
1283.04	0.15861
1292.68	0.10541
1302.33	0.08464
1311.98	0.07025
1321.62	0.05389
1331.27	0.04133
1340.92	0.03668
1350.56	0.04004
1360.21	0.05143
1369.86	0.06415
1379.5	0.05518
1389.15	0.04319
1398.79	0.04234
1408.44	0.04272
1418.09	0.04238
1427.73	0.0409
1437.38	0.03774
1447.03	0.03443
1456.67	0.03159
1466.32	0.03059
1475.97	0.0287
1485.61	0.0241
1495.26	0.02075
1504.91	0.01937
1514.55	0.01941
1524.2	0.02077
1533.85	0.02334
1543.49	0.02717
1553.14	0.03248
1562.79	0.04067
1572.43	0.05422
1582.08	0.07528
1591.73	0.10142
1601.37	0.12183
1611.02	0.12262
1620.67	0.10561
1630.31	0.08902
1639.96	0.08158
1649.6	0.07739
1659.25	0.0686
1668.9	0.05452
1678.54	0.04202
1688.19	0.03614
1697.84	0.03663
1707.48	0.04509
1717.13	0.06624
1726.78	0.10349
1736.42	0.15266
1746.07	0.16295
1755.72	0.12882
1765.36	0.09992
1775.01	0.07898
1784.66	0.0439
1794.3	0.02189
1803.95	0.01345
1813.6	0.00965
1823.24	0.00737
1832.89	0.00609
1842.54	0.00534
1852.18	0.00495
1861.83	0.00476
1871.47	0.00467
1881.12	0.00461
1890.77	0.00438
1900.41	0.00404
1910.06	0.0037
1919.71	0.00348
1929.35	0.00331
1939	0.0032
1948.65	0.00315
1958.29	0.00307
1967.94	0.00301
1977.59	0.003
1987.23	0.00293
1996.88	0.0028062
2006.53	0.0026725
2016.17	0.0026052
2025.82	0.0025588
2035.47	0.002566
2045.11	0.0026219
2054.76	0.0027384
2064.41	0.00291
2074.05	0.00295
2083.7	0.00301
2093.35	0.00315
2102.99	0.00345
2112.64	0.00377
2122.28	0.0042
2131.93	0.00484
2141.58	0.00496
2151.22	0.00451
2160.87	0.00361
2170.52	0.00297
2180.16	0.0028693
2189.81	0.0027013
2199.46	0.0025864
2209.1	0.0024321
2218.75	0.0023623
2228.4	0.0023335
2238.04	0.002316
2247.69	0.0023242
2257.34	0.0022896
2266.98	0.0024071
2276.63	0.002498
2286.28	0.0026494
2295.92	0.0028187
2305.57	0.00311
2315.22	0.00337
2324.86	0.00346
2334.51	0.00333
2344.16	0.00325
2353.8	0.00346
2363.45	0.00377
2373.09	0.0037
2382.74	0.00317
2392.39	0.0028529
2402.03	0.0028505
2411.68	0.0028847
2421.33	0.002843
2430.97	0.0028334
2440.62	0.0027833
2450.27	0.0028826
2459.91	0.00296
2469.56	0.00304
2479.21	0.00311
2488.85	0.00317
2498.5	0.00327
2508.15	0.00328
2517.79	0.00329
2527.44	0.00325
2537.09	0.00319
2546.73	0.0031
2556.38	0.00305
2566.03	0.00295
2575.67	0.0027697
2585.32	0.0026107
2594.96	0.0026294
2604.61	0.0025585
2614.26	0.0026058
2623.9	0.0026163
2633.55	0.0026696
2643.2	0.002764
2652.84	0.0028309
2662.49	0.0028632
2672.14	0.00301
2681.78	0.0031
2691.43	0.00326
2701.08	0.00337
2710.72	0.00349
2720.37	0.00359
2730.02	0.0038
2739.66	0.0038
2749.31	0.00387
2758.96	0.00399
2768.6	0.00427
2778.25	0.00449
2787.9	0.00458
2797.54	0.00464
2807.19	0.00489
2816.84	0.00518
2826.48	0.00552
2836.13	0.00576
2845.77	0.00618
2855.42	0.00659
2865.07	0.00725
2874.71	0.0086
2884.36	0.01052
2894.01	0.0114
2903.65	0.01225
2913.3	0.01391
2922.95	0.01495
2932.59	0.01794
2942.24	0.02385
2951.89	0.02383
2961.53	0.02125
2971.18	0.02568
2980.83	0.0366
2990.47	0.04253
3000.12	0.03252
3009.77	0.02416
3019.41	0.01765
3029.06	0.01239
3038.71	0.00909
3048.35	0.00728
3058	0.00623
3067.64	0.00563
3077.29	0.0053
3086.94	0.00496
3096.58	0.00475
3106.23	0.00462
3115.88	0.00424
3125.52	0.00365
3135.17	0.00334
3144.82	0.00294
3154.46	0.0026395
3164.11	0.0025289
3173.76	0.0022696
3183.4	0.0022289
3193.05	0.0020399
3202.7	0.0020583
3212.34	0.0020825
3221.99	0.0020777
3231.64	0.0020559
3241.28	0.00196985
3250.93	0.0018203
3260.58	0.001689
3270.22	0.001466
3279.87	0.001417
3289.52	0.001301
3299.16	0.001179
3308.81	0.001021
3318.45	0.000972
3328.1	0.000896
3337.75	0.00062
3347.39	0.00059
3357.04	0.00065
3366.69	0.00047
3376.33	0.00046
3385.98	0.00046
3395.63	0.00048
3405.27	0.00053
3414.92	0.00057
3424.57	0.00075
3434.21	0.001114
3443.86	0.00153
3453.51	0.0020819
3463.15	0.0025365
3472.8	0.0026844
3482.45	0.0022537
3492.09	0.001764
3501.74	0.001329
3511.39	0.001236
3521.03	0.001124
3530.68	0.0007
3540.33	0.00043
3549.97	0.00021
3559.62	7e-05
3569.26	2e-05
3578.91	0.00026
3588.56	0.00024
3598.2	0.00013
3607.85	0
3617.5	8e-05
3627.14	1e-05
3636.79	0.00014
3646.44	0.00016
3656.08	0.00031
3665.73	0.00024
3675.38	0.00028
3685.02	0.0003
3694.67	0.0003
3704.32	0.00016
3713.96	0.00026
3723.61	0.00021
3733.26	0.0001
3742.9	0.00024
3752.55	0.00021
3762.2	0.0002
3771.84	0.00016
3781.49	0.00021
3791.13	0.00031
3800.78	0.00037
3810.43	0.00033
3820.07	0.00028
3829.72	0.00037
3839.37	0.00031
3849.01	0.00035
3858.66	0.00033
3868.31	0.00031
3877.95	0.00033
3887.6	0.00032
3897.25	0.00029
3906.89	0.00029
3916.54	0.00035
3926.19	0.00034
3935.83	0.00032
3945.48	0.00032
3955.13	0.0004
3964.77	0.00044
3974.42	0.00043
3984.07	0.00052
3993.71	0.0005
