Infrared Spectrum: N,N'-Dimethyloxamide
Formula: C 4 H 8 N 2 O 2
CAS: 615-35-0
State: gas
Origin: EPA-IR VAPOR PHASE LIBRARY
1/CM	ABSORBANCE
501.5	0.0021112
513.074	0.0035312
524.648	0.0039212
536.222	0.0026112
547.796	0.0018312
559.37	0.0019912
570.944	0.0021312
582.518	0.0023412
594.092	0.0024812
605.666	0.0029812
617.24	0.0029112
628.814	0.0023812
640.388	0.0015912
651.962	0.0009997
663.536	0.0006586
675.11	0.0004198
686.684	0.0003331
698.258	0.000342
709.832	0.0002225
721.406	0.0003223
732.98	0.0003737
744.554	0.0005129
756.128	0.0009691
767.702	0.0010912
779.276	0.0007286
790.85	0.0005643
802.423	0.0004017
813.997	0.0003798
825.571	0.000359
837.145	0.0001881
848.719	0.0001614
860.293	7.711e-05
871.867	2.3934e-05
883.441	0.0001404
895.015	8.305e-05
906.589	9.821e-05
918.163	0.00010036
929.737	6.1e-06
941.311	0.0001814
952.885	0.000224
964.459	0.0006256
976.033	0.0013212
987.607	0.0014212
999.181	0.0006473
1010.76	0.0002883
1022.33	0.0001659
1033.9	0.0001998
1045.48	0.0002505
1057.05	0.0002155
1068.63	0.0002738
1080.2	0.0003154
1091.77	0.0004038
1103.35	0.0006124
1114.92	0.0008143
1126.49	0.0008227
1138.07	0.0008861
1149.64	0.000991
1161.22	0.0012812
1172.79	0.0020812
1184.36	0.0030712
1195.94	0.0050012
1207.51	0.0057812
1219.09	0.0039612
1230.66	0.0018112
1242.23	0.0012812
1253.81	0.0012612
1265.38	0.0008867
1276.96	0.0006297
1288.53	0.0005957
1300.1	0.0005489
1311.68	0.0005094
1323.25	0.0005171
1334.83	0.0005683
1346.4	0.0006122
1357.97	0.0006394
1369.55	0.0007607
1381.12	0.0009929
1392.7	0.0015512
1404.27	0.0031812
1415.84	0.0051712
1427.42	0.0050512
1438.99	0.0028712
1450.57	0.0023512
1462.14	0.0029212
1473.71	0.0045012
1485.29	0.0086612
1496.86	0.0169512
1508.44	0.0224812
1520.01	0.0190612
1531.58	0.0114312
1543.16	0.0058612
1554.73	0.0029712
1566.31	0.0019312
1577.88	0.0016512
1589.45	0.0015312
1601.03	0.0013812
1612.6	0.0011512
1624.18	0.0009899
1635.75	0.0010512
1647.32	0.0013212
1658.9	0.0021512
1670.47	0.0042512
1682.05	0.0092712
1693.62	0.0189612
1705.19	0.0279912
1716.77	0.0275712
1728.34	0.0165212
1739.92	0.0069512
1751.49	0.0025212
1763.06	0.0011612
1774.64	0.0008278
1786.21	0.0007867
1797.79	0.0006776
1809.36	0.0004366
1820.93	0.0002874
1832.51	0.0002639
1844.08	0.0002877
1855.66	0.0002883
1867.23	0.0002947
1878.8	0.0003121
1890.38	0.0002601
1901.95	0.0002096
1913.53	0.0001496
1925.1	0.00010979
1936.67	8.021e-05
1948.25	7.555e-05
1959.82	6.224e-05
1971.4	9.317e-05
1982.97	0.00010218
1994.54	0.00011666
2006.12	0.0001077
2017.69	9.228e-05
2029.27	8.628e-05
2040.84	0.00011397
2052.41	0.0001395
2063.99	0.0002065
2075.56	0.000165
2087.14	9.93e-05
2098.71	7.832e-05
2110.28	4.774e-05
2121.86	5.523e-05
2133.43	4.788e-05
2145.01	6.093e-05
2156.58	8.666e-05
2168.15	7.289e-05
2179.73	6.906e-05
2191.3	6.587e-05
2202.88	0.00010871
2214.45	5.479e-05
2226.02	9.432e-05
2237.6	8.16e-05
2249.17	6.523e-05
2260.74	7.766e-05
2272.32	6.732e-05
2283.89	7.838e-05
2295.47	6.638e-05
2307.04	4.543e-05
2318.61	2.3953e-05
2330.19	5.405e-05
2341.76	4.524e-05
2353.34	3.402e-05
2364.91	0.00011248
2376.48	7.971e-05
2388.06	7.638e-05
2399.63	0.00010962
2411.21	6.357e-05
2422.78	7.58e-05
2434.35	5.078e-05
2445.93	6.061e-05
2457.5	7.102e-05
2469.08	7.944e-05
2480.65	8.305e-05
2492.22	0.00010014
2503.8	0.0001461
2515.37	0.0001563
2526.95	0.0001241
2538.52	0.0001342
2550.09	0.00014
2561.67	0.0002058
2573.24	0.0001701
2584.82	0.0001418
2596.39	0.0001519
2607.96	0.0001519
2619.54	0.0001352
2631.11	0.00010056
2642.69	0.00011212
2654.26	0.00010554
2665.83	0.0001371
2677.41	0.0001235
2688.98	0.0001553
2700.56	0.0001309
2712.13	0.0001387
2723.7	0.0001913
2735.28	0.000176
2746.85	0.0001716
2758.43	0.000173
2770	0.0002326
2781.57	0.0002809
2793.15	0.0002693
2804.72	0.0004895
2816.3	0.0007679
2827.87	0.0007587
2839.44	0.000522
2851.02	0.0005436
2862.59	0.000587
2874.17	0.0008706
2885.74	0.0013612
2897.31	0.0020112
2908.89	0.0022712
2920.46	0.0025312
2932.04	0.0030612
2943.61	0.0039412
2955.18	0.0041312
2966.76	0.0030212
2978.33	0.0017112
2989.91	0.0010712
3001.48	0.0007873
3013.05	0.0007079
3024.63	0.0008099
3036.2	0.0009007
3047.78	0.000865
3059.35	0.0007126
3070.92	0.0006137
3082.5	0.0004816
3094.07	0.0003919
3105.65	0.0003247
3117.22	0.0002427
3128.79	0.0002678
3140.37	0.0002676
3151.94	0.000175
3163.52	0.000214
3175.09	0.0001805
3186.66	0.0001442
3198.24	0.0001591
3209.81	0.0001724
3221.39	0.0001751
3232.96	0.0001656
3244.53	0.000231
3256.11	0.000263
3267.68	0.0003178
3279.26	0.0003309
3290.83	0.0002391
3302.4	0.0001615
3313.98	0.0001188
3325.55	0.0001214
3337.13	0.0001385
3348.7	0.0001453
3360.27	0.000202
3371.85	0.000278
3383.42	0.0005322
3395	0.000993
3406.57	0.0023712
3418.14	0.0059112
3429.72	0.0083412
3441.29	0.0073412
3452.86	0.0031412
3464.44	0.0010158
3476.01	0.0003976
3487.59	0.0003184
3499.16	0.000212
3510.73	0.0002345
3522.31	0.0001711
3533.88	0.0001681
3545.46	0.0001507
3557.03	0.0001658
3568.6	0.0001916
3580.18	0.0003099
3591.75	0.0003117
3603.33	0.00011965
3614.9	0.00010484
3626.47	0.0001273
3638.05	7.656e-05
3649.62	0.00010807
3661.2	9.138e-05
3672.77	0.00011159
3684.34	8.283e-05
3695.92	0.0001291
3707.49	0.0001986
3719.07	0.0001628
3730.64	0.00011797
3742.21	0.00011217
3753.79	0.00010786
3765.36	0.0001961
3776.94	0.0001897
3788.51	0.0001556
3800.08	0.0002707
3811.66	0.0002658
3823.23	0.0001852
3834.81	0.0002019
3846.38	0.0001729
3857.95	0.0001753
3869.53	0.0002227
3881.1	7.087e-05
3892.68	0.0002184
3904.25	0.0001419
3915.82	0.00010708
3927.4	9.699e-05
3938.97	0.00011758
3950.55	0.0001305
3962.12	5.653e-05
3973.69	0.0002309
3985.27	0.000232
3996.84	0.0001603
