Infrared Spectrum: BENZENETHIOL, 2-AMINO-4-CHLORO-, HYDROCHLORIDE
Formula: C6 H7 Cl2 N S
CAS: 615-48-5
State: SOLID (MULL)
Class: COBLENTZ III
Instrument: PERKIN-ELMER 21 (GRATING)
Instrument parameters: NaCl PRISM
Sampling: TRANSMISSION
Resolution: 2
Origin: SMITH KLINE & FRENCH
1/CM	TRANSMITTANCE
4000	0.8462
3991	0.8477
3982	0.8493
3973	0.8508
3964	0.8518
3955	0.853
3946	0.8541
3937	0.8551
3928	0.8553
3919	0.8557
3910	0.856
3901	0.8563
3892	0.8568
3883	0.8573
3874	0.8578
3865	0.8584
3856	0.8595
3847	0.8607
3838	0.862
3829	0.8635
3820	0.865
3811	0.8666
3802	0.8683
3793	0.87
3784	0.8715
3775	0.8731
3766	0.8746
3757	0.8759
3748	0.8764
3739	0.8767
3730	0.8768
3721	0.8768
3712	0.8766
3703	0.8765
3694	0.8764
3685	0.8764
3676	0.8766
3667	0.8768
3658	0.8771
3649	0.8775
3640	0.8773
3631	0.8768
3622	0.8763
3613	0.8758
3604	0.8753
3595	0.8745
3586	0.8731
3577	0.8717
3568	0.8691
3559	0.866
3550	0.8628
3541	0.8597
3532	0.8566
3523	0.8538
3514	0.8511
3505	0.8484
3496	0.8457
3487	0.8428
3478	0.8401
3469	0.8373
3460	0.8346
3451	0.8321
3442	0.8303
3433	0.8284
3424	0.8275
3415	0.8271
3406	0.827
3397	0.8266
3388	0.8262
3379	0.8258
3370	0.825
3361	0.823
3352	0.8175
3343	0.8201
3334	0.8196
3325	0.8199
3316	0.823
3307	0.8264
3298	0.8274
3289	0.828
3280	0.8287
3271	0.8297
3262	0.8321
3253	0.8346
3244	0.8347
3235	0.8325
3226	0.8299
3217	0.8263
3208	0.8185
3199	0.8083
3190	0.8
3181	0.7903
3172	0.7789
3163	0.769
3154	0.7597
3145	0.7504
3136	0.7412
3127	0.7321
3118	0.723
3109	0.7098
3100	0.6957
3091	0.6811
3082	0.6675
3073	0.6568
3064	0.6364
3055	0.612
3046	0.5894
3037	0.5767
3028	0.5639
3019	0.551
3010	0.5383
3001	0.525
2992	0.51
2983	0.4834
2974	0.4628
2965	0.441
2956	0.3756
2947	0.3067
2938	0.2379
2929	0.1692
2920	0.1379
2911	0.1115
2902	0.0982
2893	0.0922
2884	0.0911
2875	0.1107
2866	0.1325
2857	0.1405
2848	0.1411
2839	0.1389
2830	0.1388
2821	0.1626
2812	0.2058
2803	0.2222
2794	0.2307
2785	0.2363
2776	0.2423
2767	0.2534
2758	0.2644
2749	0.2737
2740	0.2853
2731	0.3037
2722	0.3223
2713	0.341
2704	0.36
2695	0.379
2686	0.3982
2677	0.4175
2668	0.4356
2659	0.4424
2650	0.4432
2641	0.4438
2632	0.4457
2623	0.451
2614	0.4634
2605	0.4694
2596	0.4679
2587	0.4533
2578	0.4497
2569	0.4396
2560	0.4285
2551	0.4092
2542	0.3752
2533	0.3609
2524	0.3629
2515	0.3995
2506	0.4314
2497	0.4582
2488	0.4946
2479	0.5212
2470	0.5466
2461	0.5719
2452	0.5948
2443	0.6154
2434	0.6283
2425	0.6412
2416	0.6589
2407	0.6761
2398	0.6933
2389	0.7108
2380	0.7265
2371	0.7344
2362	0.7372
2353	0.7383
2344	0.7389
2335	0.7455
2326	0.7554
2317	0.766
2308	0.7769
2299	0.7865
2290	0.7928
2281	0.7975
2272	0.8014
2263	0.8055
2254	0.8099
2245	0.8142
2236	0.821
2227	0.8278
2218	0.8315
2209	0.8356
2200	0.8424
2191	0.8459
2182	0.8475
2173	0.849
2164	0.8503
2155	0.8518
2146	0.8532
2137	0.855
2128	0.8568
2119	0.8586
2110	0.8604
2101	0.8625
2092	0.8653
2083	0.8668
2074	0.8678
2065	0.8683
2056	0.8677
2047	0.8666
2038	0.8648
2029	0.86
2020	0.8581
2011	0.854
2002	0.8484
1993	0.8425
1984	0.8367
1975	0.8309
1966	0.8268
1957	0.8248
1948	0.8224
1939	0.8144
1930	0.8058
1921	0.7997
1912	0.7968
1903	0.7968
1894	0.7972
1885	0.8048
1876	0.816
1867	0.8253
1858	0.8341
1849	0.8415
1840	0.8475
1831	0.851
1822	0.8543
1813	0.8568
1804	0.8589
1795	0.8605
1786	0.8616
1777	0.8592
1768	0.8535
1759	0.8525
1750	0.86
1741	0.8711
1732	0.8733
1723	0.8733
1714	0.8734
1705	0.8734
1696	0.8734
1687	0.8728
1678	0.8673
1669	0.8634
1660	0.8628
1651	0.8592
1642	0.8507
1633	0.8396
1624	0.8261
1615	0.8028
1606	0.7549
1597	0.627
1588	0.6447
1579	0.6109
1570	0.6226
1561	0.6067
1552	0.637
1543	0.6003
1534	0.6408
1525	0.7165
1516	0.7374
1507	0.7158
1498	0.5347
1489	0.4612
1480	0.5462
1471	0.3489
1462	0.4066
1453	0.536
1444	0.6481
1435	0.7317
1426	0.7883
1417	0.7903
1408	0.775
1399	0.6725
1390	0.7293
1381	0.6928
1372	0.6462
1363	0.7484
1354	0.8082
1345	0.8308
1336	0.8457
1327	0.8571
1318	0.8617
1309	0.8554
1300	0.8527
1291	0.8581
1282	0.81
1273	0.7806
1264	0.8309
1255	0.8557
1246	0.8652
1237	0.8718
1228	0.8775
1219	0.8777
1210	0.8475
1201	0.7105
1192	0.8535
1183	0.8754
1174	0.8781
1165	0.875
1156	0.87
1147	0.8578
1138	0.8028
1129	0.7778
1120	0.6971
1111	0.516
1102	0.4337
1093	0.7018
1084	0.7761
1075	0.785
1066	0.814
1057	0.8399
1048	0.8703
1039	0.8557
1030	0.8867
1021	0.8775
1012	0.8714
1003	0.9021
994	0.9151
985	0.9186
976	0.9198
967	0.9175
958	0.9206
949	0.9302
940	0.9342
931	0.9318
922	0.9385
913	0.9386
904	0.9245
895	0.9314
886	0.7605
877	0.6221
868	0.8833
859	0.9197
850	0.9363
841	0.9399
832	0.8314
823	0.8768
814	0.5598
805	0.8808
796	0.9386
787	0.9407
778	0.9455
769	0.9483
760	0.9528
751	0.951
742	0.943
733	0.9235
724	0.9071
715	0.9101
706	0.8556
697	0.7925
688	0.8577
679	0.8636
670	0.8425
