Infrared Spectrum: DIETHYL DITHIOL OXALATE
Formula: C6 H10 O2 S2
CAS: 615-85-0
Melting point: 25-27 C
Class: COBLENTZ
Instrument: Not specified, most likely a prism, grating, or hybrid spectrometer.
Sampling: TRANSMISSION
Path length: 0.0015 CM
Resolution: 4
Origin: WYANDOTTE CHEMICALS CORP., WYANDOTTE, MICHIGAN, USA
MICROMETERS	TRANSMITTANCE
2	0.92
2.03981	0.92
2.07962	0.92
2.11943	0.915
2.15925	0.865
2.19906	0.83
2.23887	0.885
2.27868	0.861
2.31849	0.903
2.3583	0.903
2.39811	0.881
2.43793	0.881
2.47774	0.898
2.51755	0.913
2.55736	0.926
2.59717	0.9
2.63698	0.905
2.67679	0.893
2.71661	0.888
2.75642	0.883
2.79623	0.881
2.83604	0.883
2.87585	0.87
2.91566	0.861
2.95547	0.85
2.99528	0.691
3.0351	0.761
3.07491	0.818
3.11472	0.841
3.15453	0.848
3.19434	0.86
3.23415	0.85
3.27396	0.81
3.31378	0.426
3.35359	0.186
3.3934	0.153
3.43321	0.461
3.47302	0.351
3.51283	0.73
3.55264	0.758
3.59246	0.885
3.63227	0.905
3.67208	0.888
3.71189	0.903
3.7517	0.931
3.79151	0.945
3.83132	0.948
3.87114	0.951
3.91095	0.951
3.95076	0.95
3.99057	0.943
4.03038	0.906
4.07019	0.901
4.11	0.925
4.14982	0.901
4.18963	0.913
4.22944	0.94
4.26925	0.92
4.30906	0.925
4.34887	0.921
4.38868	0.945
4.4285	0.95
4.46831	0.95
4.50812	0.945
4.54793	0.916
4.58774	0.935
4.62755	0.935
4.66736	0.935
4.70717	0.936
4.74699	0.95
4.7868	0.946
4.82661	0.946
4.86642	0.948
4.90623	0.953
4.94604	0.961
4.98585	0.96
5.02567	0.936
5.06548	0.933
5.10529	0.941
5.1451	0.921
5.18491	0.851
5.22472	0.701
5.26453	0.771
5.30435	0.835
5.34416	0.863
5.38397	0.888
5.42378	0.891
5.46359	0.888
5.5034	0.89
5.54321	0.856
5.58303	0.815
5.62284	0.763
5.66265	0.736
5.70246	0.691
5.74227	0.588
5.78208	0.485
5.82189	0.308
5.86171	0.126
5.90152	0.038
5.94133	0.04
5.98114	0.04
6.02095	0.07
6.06076	0.206
6.10057	0.386
6.14039	0.543
6.1802	0.648
6.22001	0.706
6.25982	0.755
6.29963	0.78
6.33944	0.793
6.37925	0.796
6.41906	0.806
6.45888	0.8
6.49869	0.803
6.5385	0.8
6.57831	0.793
6.61812	0.781
6.65793	0.753
6.69774	0.718
6.73756	0.636
6.77737	0.386
6.81718	0.115
6.85699	0.058
6.8968	0.191
6.93661	0.265
6.97642	0.253
7.01624	0.151
7.05605	0.226
7.09586	0.413
7.13567	0.501
7.17548	0.531
7.21529	0.293
7.2551	0.231
7.29492	0.55
7.33473	0.705
7.37454	0.756
7.41435	0.766
7.45416	0.755
7.49397	0.743
7.53378	0.708
7.5736	0.68
7.61341	0.681
7.65322	0.695
7.69303	0.691
7.73284	0.661
7.77265	0.576
7.81246	0.335
7.85228	0.055
7.89209	0.041
7.9319	0.136
7.97171	0.368
8.01152	0.533
8.05133	0.636
8.09114	0.676
8.13095	0.72
8.17077	0.751
8.21058	0.763
8.25039	0.773
8.2902	0.78
8.33001	0.781
8.36982	0.78
8.40963	0.775
8.44945	0.771
8.48926	0.771
8.52907	0.78
8.56888	0.785
8.60869	0.785
8.6485	0.781
8.68831	0.776
8.72813	0.761
8.76794	0.743
8.80775	0.723
8.84756	0.723
8.88737	0.733
8.92718	0.745
8.96699	0.755
9.00681	0.765
9.04662	0.768
9.08643	0.768
9.12624	0.76
9.16605	0.751
9.20586	0.743
9.24567	0.716
9.28549	0.675
9.3253	0.64
9.36511	0.586
9.40492	0.375
9.44473	0.23
9.48454	0.403
9.52435	0.508
9.56417	0.595
9.60398	0.643
9.64379	0.646
9.6836	0.636
9.72341	0.623
9.76322	0.603
9.80303	0.576
9.84285	0.575
9.88266	0.625
9.92247	0.651
9.96228	0.661
10.0021	0.651
10.0419	0.64
10.0817	0.616
10.1215	0.573
10.1613	0.486
10.2011	0.385
10.241	0.271
10.2808	0.198
10.3206	0.216
10.3604	0.358
10.4002	0.495
10.44	0.593
10.4798	0.666
10.5196	0.71
10.5595	0.74
10.5993	0.755
10.6391	0.765
10.6789	0.771
10.7187	0.778
10.7585	0.778
10.7983	0.776
10.8381	0.776
10.8779	0.77
10.9178	0.763
10.9576	0.746
10.9974	0.726
11.0372	0.693
11.077	0.643
11.1168	0.588
11.1566	0.555
11.1964	0.545
11.2362	0.56
11.2761	0.573
11.3159	0.591
11.3557	0.603
11.3955	0.623
11.4353	0.638
11.4751	0.646
11.5149	0.653
11.5547	0.663
11.5945	0.666
11.6344	0.67
11.6742	0.67
11.714	0.666
11.7538	0.661
11.7936	0.653
11.8334	0.636
11.8732	0.62
11.913	0.596
11.9528	0.566
11.9927	0.531
12.0325	0.48
12.0723	0.435
12.1121	0.371
12.1519	0.311
12.1917	0.223
12.2315	0.136
12.2713	0.066
12.3112	0.04
12.351	0.035
12.3908	0.031
12.4306	0.033
12.4704	0.033
12.5102	0.031
12.55	0.031
12.5898	0.03
12.6296	0.03
12.6695	0.031
12.7093	0.031
12.7491	0.033
12.7889	0.031
12.8287	0.035
12.8685	0.033
12.9083	0.038
12.9481	0.04
12.9879	0.05
13.0278	0.051
13.0676	0.053
13.1074	0.06
13.1472	0.061
13.187	0.06
13.2268	0.058
13.2666	0.06
13.3064	0.071
13.3462	0.098
13.3861	0.133
13.4259	0.176
13.4657	0.216
13.5055	0.263
13.5453	0.311
13.5851	0.343
13.6249	0.378
13.6647	0.41
13.7046	0.44
13.7444	0.463
13.7842	0.485
13.824	0.503
13.8638	0.516
13.9036	0.525
13.9434	0.53
13.9832	0.531
14.023	0.53
14.0629	0.523
14.1027	0.526
14.1425	0.52
14.1823	0.508
14.2221	0.488
14.2619	0.476
14.3017	0.485
14.3415	0.501
14.3813	0.525
14.4212	0.55
14.461	0.563
14.5008	0.573
14.5406	0.571
14.5804	0.563
14.6202	0.546
14.66	0.538
14.6998	0.535
14.7396	0.531
14.7795	0.54
14.8193	0.543
14.8591	0.548
14.8989	0.548
14.9387	0.54
14.9785	0.533
15.0183	0.52
15.0581	0.5
15.0979	0.456
15.1378	0.42
15.1776	0.388
15.2174	0.37
15.2572	0.373
15.297	0.391
15.3368	0.418
15.3766	0.453
15.4164	0.488
15.4563	0.511
15.4961	0.538
15.5359	0.57
15.5757	0.59
15.6155	0.601
15.6553	0.623
15.6951	0.633
15.7349	0.64
15.7747	0.641
15.8146	0.643
15.8544	0.641
15.8942	0.641
15.934	0.643
15.9738	0.641
