Infrared Spectrum: 2-CHLOROBENZOXAZOLE
Formula: C7 H4 Cl N O
CAS: 615-18-9
Melting point: 0.1-5 C
Class: COBLENTZ
Instrument: Not specified, most likely a prism, grating, or hybrid spectrometer.
Sampling: TRANSMISSION
Path length: 0.003 CM
Resolution: 4
Origin: WYANDOTTE CHEMICALS CORP., WYANDOTTE, MICHIGAN, USA
MICROMETERS	TRANSMITTANCE
2.037	0.973
2.07679	0.963
2.11659	0.97
2.15638	0.976
2.19618	0.973
2.23597	0.968
2.27577	0.973
2.31556	0.965
2.35535	0.971
2.39515	0.971
2.43494	0.965
2.47474	0.955
2.51453	0.961
2.55433	0.978
2.59412	0.983
2.63391	0.995
2.67371	0.981
2.7135	0.985
2.7533	0.988
2.79309	0.983
2.83289	0.978
2.87268	0.981
2.91247	0.975
2.95227	0.978
2.99206	0.968
3.03186	0.961
3.07165	0.965
3.11145	0.958
3.15124	0.943
3.19103	0.892
3.23083	0.76
3.27062	0.681
3.31042	0.903
3.35021	0.923
3.39001	0.93
3.4298	0.948
3.46959	0.946
3.50939	0.931
3.54918	0.963
3.58898	0.945
3.62877	0.95
3.66857	0.948
3.70836	0.96
3.74815	0.943
3.78795	0.963
3.82774	0.955
3.86754	0.95
3.90733	0.945
3.94713	0.945
3.98692	0.951
4.02672	0.923
4.06651	0.9
4.1063	0.882
4.1461	0.921
4.18589	0.92
4.22569	0.933
4.26548	0.95
4.30528	0.94
4.34507	0.94
4.38486	0.923
4.42466	0.911
4.46445	0.908
4.50425	0.926
4.54404	0.921
4.58384	0.925
4.62363	0.93
4.66342	0.928
4.70322	0.916
4.74301	0.933
4.78281	0.935
4.8226	0.935
4.8624	0.923
4.90219	0.93
4.94198	0.928
4.98178	0.933
5.02157	0.943
5.06137	0.943
5.10116	0.921
5.14096	0.911
5.18075	0.85
5.22054	0.873
5.26034	0.873
5.30013	0.867
5.33993	0.908
5.37972	0.882
5.41952	0.903
5.45931	0.905
5.4991	0.842
5.5389	0.838
5.57869	0.845
5.61849	0.739
5.65828	0.83
5.69808	0.895
5.73787	0.887
5.77766	0.857
5.81746	0.692
5.85725	0.825
5.89705	0.862
5.93684	0.873
5.97664	0.901
6.01643	0.916
6.05622	0.878
6.09602	0.744
6.13581	0.694
6.17561	0.302
6.2154	0.498
6.2552	0.682
6.29499	0.679
6.33478	0.702
6.37458	0.702
6.41437	0.511
6.45417	0.322
6.49396	0.043
6.53376	0.051
6.57355	0.327
6.61334	0.584
6.65314	0.529
6.69293	0.524
6.73273	0.43
6.77252	0.548
6.81232	0.428
6.85211	0.024
6.8919	0.22
6.9317	0.523
6.97149	0.504
7.01129	0.646
7.05108	0.769
7.09088	0.837
7.13067	0.89
7.17046	0.898
7.21026	0.88
7.25005	0.865
7.28985	0.782
7.32964	0.725
7.36944	0.754
7.40923	0.647
7.44903	0.378
7.48882	0.488
7.52861	0.8
7.56841	0.878
7.6082	0.888
7.648	0.883
7.68779	0.86
7.72759	0.84
7.76738	0.725
7.80717	0.822
7.84697	0.833
7.88676	0.805
7.92656	0.712
7.96635	0.523
8.00615	0.23
8.04594	0.117
8.08573	0.323
8.12553	0.144
8.16532	0.023
8.20512	0.028
8.24491	0.169
8.28471	0.498
8.3245	0.672
8.36429	0.689
8.40409	0.568
8.44388	0.47
8.48368	0.526
8.52347	0.571
8.56327	0.599
8.60306	0.529
8.64285	0.275
8.68265	0.063
8.72244	0.034
8.76224	0.028
8.80203	0.021
8.84183	0.102
8.88162	0.36
8.92141	0.521
8.96121	0.521
9.001	0.294
9.0408	0.019
9.08059	0.041
9.12039	0.225
9.16018	0.601
9.19997	0.727
9.23977	0.8
9.27956	0.822
9.31936	0.843
9.35915	0.852
9.39895	0.862
9.43874	0.865
9.47853	0.855
9.51833	0.847
9.55812	0.805
9.59792	0.772
9.63771	0.779
9.67751	0.812
9.7173	0.84
9.75709	0.833
9.79689	0.802
9.83668	0.75
9.87648	0.689
9.91627	0.529
9.95607	0.328
9.99586	0.646
10.0357	0.78
10.0754	0.774
10.1152	0.762
10.155	0.787
10.1948	0.807
10.2346	0.838
10.2744	0.85
10.3142	0.868
10.354	0.885
10.3938	0.87
10.4336	0.858
10.4734	0.847
10.5132	0.825
10.553	0.76
10.5928	0.538
10.6326	0.209
10.6724	0.064
10.7122	0.292
10.752	0.448
10.7917	0.626
10.8315	0.77
10.8713	0.813
10.9111	0.835
10.9509	0.837
10.9907	0.838
11.0305	0.833
11.0703	0.812
11.1101	0.789
11.1499	0.752
11.1897	0.737
11.2295	0.729
11.2693	0.538
11.3091	0.431
11.3489	0.714
11.3887	0.818
11.4285	0.84
11.4682	0.85
11.508	0.83
11.5478	0.81
11.5876	0.769
11.6274	0.727
11.6672	0.682
11.707	0.669
11.7468	0.672
11.7866	0.712
11.8264	0.787
11.8662	0.822
11.906	0.835
11.9458	0.835
11.9856	0.835
12.0254	0.838
12.0652	0.847
12.105	0.853
12.1448	0.848
12.1845	0.822
12.2243	0.78
12.2641	0.732
12.3039	0.549
12.3437	0.224
12.3835	0.073
12.4233	0.244
12.4631	0.523
12.5029	0.679
12.5427	0.772
12.5825	0.802
12.6223	0.813
12.6621	0.827
12.7019	0.823
12.7417	0.818
12.7815	0.803
12.8213	0.78
12.8611	0.749
12.9008	0.705
12.9406	0.637
12.9804	0.543
13.0202	0.421
13.06	0.25
13.0998	0.134
13.1396	0.066
13.1794	0.044
13.2192	0.043
13.259	0.044
13.2988	0.044
13.3386	0.044
13.3784	0.041
13.4182	0.043
13.458	0.043
13.4978	0.044
13.5376	0.056
13.5773	0.141
13.6171	0.34
13.6569	0.488
13.6967	0.602
13.7365	0.671
13.7763	0.722
13.8161	0.769
13.8559	0.789
13.8957	0.818
13.9355	0.842
13.9753	0.857
14.0151	0.865
14.0549	0.875
14.0947	0.875
14.1345	0.883
14.1743	0.882
14.2141	0.893
14.2539	0.898
14.2936	0.895
14.3334	0.905
14.3732	0.91
14.413	0.91
14.4528	0.905
14.4926	0.908
14.5324	0.906
14.5722	0.908
14.612	0.911
14.6518	0.906
14.6916	0.911
14.7314	0.911
14.7712	0.913
14.811	0.903
14.8508	0.9
14.8906	0.892
14.9304	0.875
14.9701	0.848
15.0099	0.833
15.0497	0.843
15.0895	0.862
15.1293	0.883
15.1691	0.892
15.2089	0.901
15.2487	0.901
15.2885	0.906
15.3283	0.888
15.3681	0.898
15.4079	0.897
15.4477	0.888
15.4875	0.888
15.5273	0.885
15.5671	0.887
15.6069	0.883
15.6467	0.877
15.6864	0.868
15.7262	0.852
15.766	0.852
15.8058	0.857
15.8456	0.853
15.8854	0.845
15.9252	0.832
15.965	0.837
16.0048	0.827
