Infrared Spectrum: 1,2-Diiodbenzene
Formula: C 6 H 4 I 2
CAS: 615-42-9
State: gas
Origin: EPA-IR VAPOR PHASE LIBRARY
1/CM	ABSORBANCE
551.7	0.0004254
563.274	0.0005243
574.848	0.0013287
586.421	0.0014887
597.995	0.0007802
609.569	0.0014787
621.143	0.0080687
632.717	0.0217187
644.291	0.0090787
655.864	0.0040087
667.438	0.0170087
679.012	0.0403987
690.586	0.0171587
702.16	0.0037287
713.734	0.0033187
725.307	0.0210187
736.881	0.139659
748.455	0.100149
760.029	0.0104887
771.603	0.0048587
783.177	0.0052687
794.75	0.0030687
806.324	0.0015587
817.898	0.0015187
829.472	0.0018887
841.046	0.0032287
852.619	0.0011987
864.193	0.0011087
875.767	0.0017787
887.341	0.0014387
898.915	0.0013987
910.489	0.0012287
922.062	0.0019287
933.636	0.0036687
945.21	0.0049087
956.784	0.0056787
968.358	0.0068587
979.932	0.0332987
991.505	0.0686787
1003.08	0.0890787
1014.65	0.0416487
1026.23	0.0211187
1037.8	0.0095587
1049.37	0.0022187
1060.95	0.0018287
1072.52	0.0078587
1084.1	0.0247387
1095.67	0.0105887
1107.24	0.0045987
1118.82	0.0022987
1130.39	0.0017587
1141.97	0.0005365
1153.54	0.0006171
1165.11	0.0007277
1176.69	0.0002362
1188.26	0.0003363
1199.83	0.000455
1211.41	0.0010252
1222.98	0.0015487
1234.56	0.0023987
1246.13	0.0133287
1257.7	0.0215187
1269.28	0.0024587
1280.85	0.0012887
1292.42	0.0005478
1304	0.0002968
1315.57	0.0007277
1327.15	0.0027687
1338.72	0.0026087
1350.29	0.0016387
1361.87	0.0025287
1373.44	0.0035987
1385.02	0.0058387
1396.59	0.0127687
1408.16	0.0211487
1419.74	0.0480287
1431.31	0.0838287
1442.88	0.0824987
1454.46	0.0333287
1466.03	0.0128987
1477.61	0.0043387
1489.18	0.0026887
1500.75	0.0013187
1512.33	0.0011987
1523.9	0.0015187
1535.48	0.0041787
1547.05	0.0143887
1558.62	0.0231687
1570.2	0.0214687
1581.77	0.0102287
1593.34	0.0055687
1604.92	0.0019087
1616.49	0.0006817
1628.07	0.0007754
1639.64	0.000797
1651.21	0.0011187
1662.79	0.0018987
1674.36	0.0035687
1685.93	0.0028587
1697.51	0.0012787
1709.08	0.0015787
1720.66	0.0008796
1732.23	0.0003261
1743.8	0.0003685
1755.38	0.0004718
1766.95	0.0006412
1778.53	0.0021087
1790.1	0.0043987
1801.67	0.0019287
1813.25	0.0017287
1824.82	0.0030387
1836.39	0.0014487
1847.97	0.0005184
1859.54	0.000594
1871.12	0.0016787
1882.69	0.0019487
1894.26	0.0017387
1905.84	0.0049587
1917.41	0.0045087
1928.99	0.0020187
1940.56	0.0036187
1952.13	0.0032187
1963.71	0.0010296
1975.28	0.0007317
1986.85	0.0007775
1998.43	0.0008309
2010	0.0005041
2021.58	0.0003142
2033.15	0.00021
2044.72	0.00016651
2056.3	0.0002169
2067.87	0.0003171
2079.44	0.0003557
2091.02	0.0003349
2102.59	0.0003055
2114.17	0.0003324
2125.74	0.0002304
2137.31	0.00011764
2148.89	4.07e-05
2160.46	3.79e-05
2172.04	5.28e-05
2183.61	0.00010487
2195.18	0.00010332
2206.76	0.00016249
2218.33	0.0002678
2229.9	0.0004113
2241.48	0.0003674
2253.05	0.0003931
2264.63	0.0003069
2276.2	0.0004416
2287.77	0.0004728
2299.35	0.0002408
2310.92	0.0003939
2322.5	0.0013487
2334.07	0.0019987
2345.64	0.0007718
2357.22	0.0002217
2368.79	0.0002834
2380.36	0.0003408
2391.94	0.0003565
2403.51	0.0005248
2415.09	0.0011387
2426.66	0.0006817
2438.23	0.0004053
2449.81	0.000412
2461.38	0.0003221
2472.96	0.0004232
2484.53	0.0006802
2496.1	0.0009574
2507.68	0.0010056
2519.25	0.0007675
2530.82	0.0009258
2542.4	0.0012587
2553.97	0.0014687
2565.55	0.0011787
2577.12	0.0006212
2588.69	0.0003438
2600.27	0.0001854
2611.84	0.00010525
2623.41	8.287e-05
2634.99	8.888e-05
2646.56	0.00014317
2658.14	0.00014838
2669.71	0.0002257
2681.28	0.0003636
2692.86	0.0003633
2704.43	0.0001904
2716.01	0.00011554
2727.58	8.0578e-05
2739.15	7.86286e-05
2750.73	2.84e-05
2762.3	2.78e-05
2773.87	6.46e-05
2785.45	0.0001154
2797.02	0.00015153
2808.6	0.00016338
2820.17	0.0001266
2831.74	0.0001804
2843.32	0.0002025
2854.89	0.00016011
2866.47	5.23e-05
2878.04	3.18e-05
2889.61	1.5e-05
2901.19	6.08e-05
2912.76	0.00010121
2924.33	0.0002028
2935.91	0.0003346
2947.48	0.000562
2959.06	0.0008503
2970.63	0.0009604
2982.2	0.0010109
2993.78	0.0008893
3005.35	0.0007068
3016.92	0.0007171
3028.5	0.0012987
3040.07	0.0044487
3051.65	0.0201587
3063.22	0.0387287
3074.79	0.0218487
3086.37	0.0116787
3097.94	0.0058887
3109.52	0.0074887
3121.09	0.0067987
3132.66	0.0025587
3144.24	0.0006326
3155.81	0.0003275
3167.38	0.0003174
3178.96	0.0004145
3190.53	0.0002971
3202.11	0.0001805
3213.68	9.468e-05
3225.25	6.916e-05
3236.83	5.05e-05
3248.4	0.0001821
3259.98	0.00016963
3271.55	0.00015359
3283.12	0.00017542
3294.7	8.6422e-05
3306.27	0.00012545
3317.84	7.62e-05
3329.42	0.00010244
3340.99	9.186e-05
3352.57	9.584e-05
3364.14	0.0001294
3375.71	0.00011559
3387.29	0.00011604
3398.86	9.254e-05
3410.43	9.223e-05
3422.01	0.00010095
3433.58	0.00012641
3445.16	8.4521e-05
3456.73	9.169e-05
3468.3	0.00011886
3479.88	0.00013225
3491.45	0.00013304
3503.03	9.767e-05
3514.6	0.00013145
3526.17	0.0001835
3537.75	0.0001897
3549.32	7.446e-05
3560.89	0.0001814
3572.47	0.000192
3584.04	0.00010425
3595.62	0.000222
3607.19	0.00017561
3618.76	0.000256
3630.34	0.0002562
3641.91	0.0002485
3653.49	0.0002003
3665.06	0.00017309
3676.63	0.0003668
3688.21	0.0005114
3699.78	0.000646
3711.35	0.0010787
3722.93	0.0008566
3734.5	0.0008902
3746.08	0.0006731
3757.65	0.0004959
3769.22	0.0003502
3780.8	0.0003705
3792.37	0.000357
3803.94	0.0003029
3815.52	0.000271
3827.09	0.0001816
3838.67	0.00017658
3850.24	0.0002187
3861.81	0.0002341
3873.39	0.0002463
3884.96	0.0001959
3896.54	0.000195
3908.11	0.00015422
3919.68	0.00013372
3931.26	0.0002519
3942.83	0.0002898
3954.4	0.000311
3965.98	0.0003394
3977.55	0.0002989
3989.13	0.0002696
4000.7	0.0002191
