Infrared Spectrum: BENZENE, 1-CHLORO-2-IODO-
Formula: C6 H4 Cl I
CAS: 615-41-8
State: SOLUTION (10% IN CCl4 FOR 3800-1333 AND 10% IN CS2 FOR 1333-440 CM^-^1) VS. SOLVENT
Class: COBLENTZ III
Instrument: DOW KBr FOREPRISM-GRATING
Instrument parameters: BLAZED AT 3.5, 12.0, 20.0 MICRON, CHANGED AT 5.0, 7.5, 14.9 MICRON
Sampling: TRANSMISSION
Path length: 0.011, 0.011 CM
Resolution: 4
Origin: DOW CHEMICAL COMPANY
1/CM	TRANSMITTANCE
433.061	0.965
441.761	0.965
450.462	0.965
459.162	0.965
467.863	0.965
476.563	0.965
485.263	0.965
493.964	0.967
502.664	0.976
511.364	0.975
520.065	0.975
528.765	0.975
537.466	0.974
546.166	0.97
554.866	0.985
563.567	0.991
572.267	0.989
580.968	0.993
589.668	0.997
598.368	0.991
607.069	0.983
615.769	0.993
624.47	0.979
633.17	0.914
641.87	0.882
650.571	0.967
659.271	0.983
667.971	0.99
676.672	0.985
685.372	0.96
694.073	0.975
702.773	0.953
711.473	0.785
720.174	0.642
728.874	0.872
737.575	0.693
746.275	0.004
754.975	0.785
763.676	0.952
772.376	0.976
781.076	0.986
789.777	0.987
798.477	0.99
807.178	0.986
815.878	0.987
824.578	0.967
833.279	0.982
841.979	0.978
850.68	0.956
859.38	0.974
868.08	0.989
876.781	0.989
885.481	0.994
894.181	0.995
902.882	0.993
911.582	0.99
920.283	0.979
928.983	0.968
937.683	0.895
946.384	0.968
955.084	0.968
963.785	0.96
972.485	0.955
981.185	0.942
989.886	0.896
998.586	0.878
1007.29	0.561
1015.99	0.27
1024.69	0.918
1033.39	0.5681
1042.09	0.96
1050.79	0.97
1059.49	0.97
1068.19	0.97
1076.89	0.956
1085.59	0.94
1094.29	0.91
1102.99	0.519
1111.69	0.808
1120.39	0.812
1129.09	0.857
1137.79	0.948
1146.49	0.938
1155.19	0.922
1163.89	0.934
1172.59	0.945
1181.29	0.99
1189.99	0.994
1198.7	0.998
1207.4	1.006
1216.1	1.023
1224.8	1.008
1233.5	0.998
1242.2	0.949
1250.9	0.899
1259.6	0.912
1268.3	0.964
1277	0.975
1285.7	0.98
1294.4	0.991
1303.1	0.987
1311.8	0.99
1320.5	0.987
1329.2	0.991
1337.9	0.994
1346.6	0.978
1355.3	0.955
1364	0.975
1372.7	0.982
1381.4	0.967
1390.1	0.976
1398.8	0.91
1407.5	0.929
1416.2	0.936
1424.91	0.733
1433.61	0.763
1442.31	0.676
1451.01	0.081
1459.71	0.895
1468.41	0.91
1477.11	0.862
1485.81	0.963
1494.51	0.968
1503.21	0.975
1511.91	0.971
1520.61	0.978
1529.31	0.974
1538.01	0.964
1546.71	0.956
1555.41	0.936
1564.11	0.813
1572.81	0.783
1581.51	0.975
1590.21	0.976
1598.91	0.944
1607.61	0.975
1616.31	0.983
1625.01	0.982
1633.71	0.964
1642.41	0.963
1651.12	0.972
1659.82	0.982
1668.52	0.978
1677.22	0.98
1685.92	0.959
1694.62	0.983
1703.32	0.985
1712.02	0.986
1720.72	0.991
1729.42	0.994
1738.12	0.997
1746.82	0.993
1755.52	0.997
1764.22	0.998
1772.92	0.998
1781.62	0.99
1790.32	0.952
1799.02	0.971
1807.72	0.993
1816.42	0.995
1825.12	0.975
1833.82	0.983
1842.52	0.997
1851.22	0.998
1859.92	0.998
1868.62	0.995
1877.33	0.983
1886.03	0.986
1894.73	0.997
1903.43	0.985
1912.13	0.93
1920.83	0.98
1929.53	0.997
1938.23	0.993
1946.93	0.953
1955.63	0.979
1964.33	1
1973.03	1
1981.73	1
1990.43	0.998
1999.13	0.995
2007.83	0.993
2016.53	0.991
2025.23	0.982
2033.93	0.9905
2042.63	0.996
2051.33	0.99
2060.03	0.9905
2068.73	0.992
2077.43	0.9935
2086.13	0.9945
2094.83	0.989
2103.54	0.991
2112.24	0.991
2120.94	0.993
2129.64	0.993
2138.34	0.993
2147.04	0.993
2155.74	0.993
2164.44	0.993
2173.14	0.9905
2181.84	0.99
2190.54	0.991
2199.24	0.991
2207.94	0.991
2216.64	0.991
2225.34	0.994
2234.04	0.99
2242.74	0.99
2251.44	0.99
2260.14	0.989
2268.84	0.9894
2277.54	0.99
2286.24	0.985
2294.94	0.985
2303.64	0.989
2312.34	0.987
2321.04	0.9856
2329.75	0.9812
2338.45	0.987
2347.15	0.9773
2355.85	0.9756
2364.55	0.978
2373.25	0.9836
2381.95	0.991
2390.65	0.991
2399.35	0.9918
2408.05	0.9906
2416.75	0.989
2425.45	0.989
2434.15	0.9918
2442.85	0.993
2451.55	0.991
2460.25	0.991
2468.95	0.993
2477.65	0.994
2486.35	0.9944
2495.05	0.994
2503.75	0.9923
2512.45	0.993
2521.15	0.989
2529.85	0.9773
2538.55	0.9837
2547.25	0.99
2555.96	0.991
2564.66	0.9906
2573.36	0.9793
2582.06	0.9767
2590.76	0.9917
2599.46	0.9934
2608.16	0.994
2616.86	0.997
2625.56	0.997
2634.26	0.997
2642.96	0.997
2651.66	0.9977
2660.36	0.998
2669.06	0.9953
2677.76	0.993
2686.46	0.997
2695.16	0.986
2703.86	0.989
2712.56	0.997
2721.26	0.997
2729.96	0.998
2738.66	0.997
2747.36	0.997
2756.06	0.997
2764.76	0.997
2773.46	0.997
2782.17	0.997
2790.87	0.9971
2799.57	0.998
2808.27	0.995
2816.97	0.995
2825.67	0.995
2834.37	0.994
2843.07	0.9931
2851.77	0.99
2860.47	0.993
2869.17	0.993
2877.87	0.993
2886.57	0.991
2895.27	0.9916
2903.97	0.989
2912.67	0.986
2921.37	0.9863
2930.07	0.987
2938.77	0.9903
2947.47	0.9867
2956.17	0.98
2964.87	0.979
2973.57	0.978
2982.27	0.9828
2990.97	0.986
2999.68	0.9845
3008.38	0.9775
3017.08	0.985
3025.78	0.98
3034.48	0.975
3043.18	0.96
3051.88	0.9251
3060.58	0.8526
3069.28	0.8173
3077.98	0.9335
3086.68	0.9709
3095.38	0.9782
3104.08	0.98
3112.78	0.98
3121.48	0.9758
3130.18	0.964
3138.88	0.9797
3147.58	0.985
3156.28	0.986
3164.98	0.986
3173.68	0.985
3182.38	0.985
3191.08	0.9846
3199.78	0.9834
3208.48	0.985
3217.18	0.985
3225.89	0.983
3234.59	0.983
3243.29	0.985
3251.99	0.9846
3260.69	0.982
3269.39	0.98
3278.09	0.979
3286.79	0.978
3295.49	0.978
3304.19	0.976
3312.89	0.9764
3321.59	0.976
3330.29	0.976
3338.99	0.9763
3347.69	0.9758
3356.39	0.974
3365.09	0.974
3373.79	0.974
3382.49	0.974
3391.19	0.974
3399.89	0.974
3408.59	0.9742
3417.29	0.975
3425.99	0.976
3434.69	0.979
3443.39	0.982
3452.1	0.983
3460.8	0.985
3469.5	0.9861
3478.2	0.9873
3486.9	0.99
3495.6	0.99
3504.3	0.991
3513	0.991
3521.7	0.995
3530.4	0.9979
3539.1	0.9971
3547.8	0.997
3556.5	0.998
3565.2	0.998
3573.9	0.998
3582.6	0.998
3591.3	0.998
3600	0.998
3608.7	0.995
3617.4	0.9971
3626.1	0.9971
3634.8	0.997
3643.5	0.998
3652.2	1.0009
3660.9	0.9998
3669.6	0.998
3678.31	0.997
3687.01	0.995
3695.71	0.997
3704.41	0.998
3713.11	0.997
3721.81	0.9929
3730.51	0.9974
3739.21	1.01
3747.91	1.006
3756.61	1.0039
3765.31	0.998
3774.01	1
3782.71	1
