Infrared Spectrum: 3-Chloro-4-methylphenol
Formula: C 7 H 7 Cl O
CAS: 615-62-3
State: gas
Origin: EPA-IR VAPOR PHASE LIBRARY
1/CM	ABSORBANCE
549.8	0.01592
559.445	0.02747
569.09	0.03605
578.734	0.04466
588.379	0.02409
598.024	0.01266
607.669	0.00667
617.313	0.00534
626.958	0.00482
636.603	0.00425
646.248	0.0042
655.893	0.00463
665.537	0.0075
675.182	0.01683
684.827	0.03975
694.472	0.03803
704.116	0.02704
713.761	0.0116
723.406	0.01041
733.051	0.02307
742.695	0.05709
752.34	0.0585
761.985	0.0268
771.63	0.02514
781.275	0.04252
790.919	0.08215
800.564	0.0891
810.209	0.08658
819.854	0.05584
829.498	0.06221
839.143	0.11102
848.788	0.0784
858.433	0.0782
868.078	0.08776
877.722	0.11421
887.367	0.11975
897.012	0.20177
906.657	0.25694
916.301	0.15464
925.946	0.03286
935.591	0.01927
945.236	0.01522
954.88	0.01515
964.525	0.01869
974.17	0.02484
983.815	0.03589
993.46	0.04772
1003.1	0.04263
1012.75	0.02862
1022.39	0.03278
1032.04	0.09638
1041.68	0.20938
1051.33	0.20749
1060.97	0.05495
1070.62	0.02704
1080.26	0.02343
1089.91	0.02364
1099.55	0.02944
1109.2	0.03597
1118.84	0.04692
1128.49	0.06234
1138.13	0.07393
1147.78	0.09117
1157.42	0.15312
1167.07	0.38575
1176.71	0.5306
1186.36	0.4598
1196	0.29157
1205.64	0.19631
1215.29	0.1104
1224.93	0.08375
1234.58	0.09914
1244.22	0.15578
1253.87	0.17359
1263.51	0.13723
1273.16	0.20411
1282.8	0.25079
1292.45	0.18894
1302.09	0.07252
1311.74	0.03128
1321.38	0.0232
1331.03	0.01677
1340.67	0.01309
1350.32	0.01356
1359.96	0.01815
1369.61	0.02728
1379.25	0.03814
1388.9	0.04181
1398.54	0.05127
1408.18	0.09983
1417.83	0.14454
1427.47	0.12139
1437.12	0.075
1446.76	0.07549
1456.41	0.08138
1466.05	0.08213
1475.7	0.11272
1485.34	0.31595
1494.99	0.5439
1504.63	0.44589
1514.28	0.12863
1523.92	0.05504
1533.57	0.03776
1543.21	0.03511
1552.86	0.04414
1562.5	0.0754
1572.15	0.13482
1581.79	0.18575
1591.44	0.19155
1601.08	0.21885
1610.73	0.30542
1620.37	0.2583
1630.01	0.11887
1639.66	0.03582
1649.3	0.02492
1658.95	0.0212
1668.59	0.01663
1678.24	0.01256
1687.88	0.00934
1697.53	0.00889
1707.17	0.01133
1716.82	0.0135
1726.46	0.01368
1736.11	0.01271
1745.75	0.01023
1755.4	0.00672
1765.04	0.00489
1774.69	0.00421
1784.33	0.00377
1793.98	0.00333
1803.62	0.00276
1813.27	0.00267
1822.91	0.00348
1832.55	0.00528
1842.2	0.00726
1851.84	0.00788
1861.49	0.00826
1871.13	0.00896
1880.78	0.00741
1890.42	0.00425
1900.07	0.00283
1909.71	0.00244
1919.36	0.00273
1929	0.00305
1938.65	0.00345
1948.29	0.00364
1957.94	0.00337
1967.58	0.00334
1977.23	0.00362
1986.87	0.004
1996.52	0.00406
2006.16	0.00326
2015.81	0.00234
2025.45	0.00246
2035.1	0.00243
2044.74	0.0022
2054.38	0.00228
2064.03	0.00265
2073.67	0.00337
2083.32	0.00378
2092.96	0.00349
2102.61	0.00291
2112.25	0.00266
2121.9	0.00281
2131.54	0.00331
2141.19	0.00379
2150.83	0.00411
2160.48	0.00383
2170.12	0.00286
2179.77	0.0028
2189.41	0.00277
2199.06	0.00197
2208.7	0.00127
2218.35	0.00103
2227.99	0.00102
2237.64	0.00112
2247.28	0.00137
2256.92	0.00168
2266.57	0.00205
2276.21	0.00239
2285.86	0.00262
2295.5	0.00293
2305.15	0.00333
2314.79	0.00381
2324.44	0.00441
2334.08	0.00484
2343.73	0.00505
2353.37	0.00495
2363.02	0.00441
2372.66	0.00417
2382.31	0.00427
2391.95	0.00462
2401.6	0.00546
2411.24	0.00636
2420.89	0.00742
2430.53	0.00761
2440.18	0.00665
2449.82	0.00624
2459.47	0.00646
2469.11	0.0065
2478.75	0.00626
2488.4	0.00563
2498.04	0.00473
2507.69	0.00443
2517.33	0.00477
2526.98	0.00509
2536.62	0.00467
2546.27	0.00364
2555.91	0.00299
2565.56	0.0029
2575.2	0.00321
2584.85	0.0035
2594.49	0.00338
2604.14	0.00293
2613.78	0.00273
2623.43	0.00269
2633.07	0.00255
2642.72	0.00249
2652.36	0.00254
2662.01	0.00291
2671.65	0.003
2681.29	0.00281
2690.94	0.00269
2700.58	0.00287
2710.23	0.00284
2719.87	0.00281
2729.52	0.00337
2739.16	0.00487
2748.81	0.00678
2758.45	0.00628
2768.1	0.00372
2777.74	0.00312
2787.39	0.00293
2797.03	0.00294
2806.68	0.00326
2816.32	0.00399
2825.97	0.00529
2835.61	0.0072
2845.26	0.01076
2854.9	0.01767
2864.55	0.02761
2874.19	0.03281
2883.84	0.03004
2893.48	0.02705
2903.12	0.02866
2912.77	0.03446
2922.41	0.05084
2932.06	0.07615
2941.7	0.07984
2951.35	0.0614
2960.99	0.04956
2970.64	0.04805
2980.28	0.04907
2989.93	0.04372
2999.57	0.03346
3009.22	0.02952
3018.86	0.04131
3028.51	0.06382
3038.15	0.0678
3047.8	0.05749
3057.44	0.04748
3067.09	0.03836
3076.73	0.03087
3086.38	0.02346
3096.02	0.01594
3105.67	0.01091
3115.31	0.00836
3124.95	0.00599
3134.6	0.00367
3144.24	0.00264
3153.89	0.00217
3163.53	0.00196
3173.18	0.00192
3182.82	0.00155
3192.47	0.00133
3202.11	0.00107
3211.76	0.00103
3221.4	0.0008102
3231.05	0.0009011
3240.69	0.0008321
3250.34	0.0006508
3259.98	0.0006495
3269.63	0.0007279
3279.27	0.0008458
3288.92	0.0009476
3298.56	0.0008636
3308.21	0.0008016
3317.85	0.0007954
3327.49	0.001
3337.14	0.00164
3346.78	0.00312
3356.43	0.00534
3366.07	0.00486
3375.72	0.00459
3385.36	0.005
3395.01	0.00425
3404.65	0.00383
3414.3	0.00376
3423.94	0.00355
3433.59	0.00307
3443.23	0.00233
3452.88	0.00199
3462.52	0.00213
3472.17	0.0023
3481.81	0.0021
3491.46	0.00176
3501.1	0.00172
3510.75	0.00175
3520.39	0.00166
3530.04	0.00123
3539.68	0.000929
3549.32	0.00107
3558.97	0.00106
3568.61	0.00118
3578.26	0.00151
3587.9	0.00218
3597.55	0.00336
3607.19	0.00534
3616.84	0.01015
3626.48	0.02641
3636.13	0.09472
3645.77	0.28293
3655.42	0.30176
3665.06	0.14272
3674.71	0.01879
3684.35	0.00541
3694	0.00296
3703.64	0.00209
3713.29	0.00199
3722.93	0.00211
3732.58	0.00202
3742.22	0.00161
3751.86	0.00146
3761.51	0.00171
3771.15	0.00229
3780.8	0.00283
3790.44	0.00253
3800.09	0.00219
3809.73	0.00237
3819.38	0.00257
3829.02	0.00305
3838.67	0.00335
3848.31	0.00323
3857.96	0.00327
3867.6	0.00347
3877.25	0.00344
3886.89	0.00335
3896.54	0.00332
3906.18	0.00373
3915.83	0.00417
3925.47	0.00342
3935.12	0.00368
3944.76	0.00449
3954.41	0.0038
3964.05	0.00243
3973.69	0.00146
3983.34	0.00125
3992.98	0.000831
