Infrared Spectrum: 3,4-Dibromoaniline
Formula: C 6 H 5 Br 2 N
CAS: 615-55-4
State: gas
Origin: EPA-IR VAPOR PHASE LIBRARY
1/CM	ABSORBANCE
501.5	0.004861
513.074	0.004551
524.648	0.004471
536.222	0.004121
547.796	0.004941
559.37	0.006601
570.944	0.005621
582.518	0.005761
594.092	0.008041
605.666	0.014231
617.24	0.007151
628.814	0.003761
640.388	0.006201
651.962	0.010591
663.536	0.012111
675.11	0.015921
686.684	0.017191
698.258	0.011811
709.832	0.007851
721.406	0.005681
732.98	0.004401
744.554	0.003951
756.128	0.003981
767.702	0.004841
779.276	0.005481
790.85	0.010011
802.423	0.015661
813.997	0.008311
825.571	0.005141
837.145	0.008311
848.719	0.013741
860.293	0.011751
871.867	0.009741
883.441	0.006981
895.015	0.003981
906.589	0.002091
918.163	0.001741
929.737	0.002011
941.311	0.002171
952.885	0.002251
964.459	0.002211
976.033	0.002261
987.607	0.002441
999.181	0.005111
1010.76	0.011381
1022.33	0.005541
1033.9	0.002501
1045.48	0.001861
1057.05	0.001901
1068.63	0.002531
1080.2	0.003221
1091.77	0.005541
1103.35	0.013161
1114.92	0.014101
1126.49	0.004861
1138.07	0.003241
1149.64	0.002691
1161.22	0.0010865
1172.79	0.000932
1184.36	0.0010498
1195.94	0.0012458
1207.51	0.001851
1219.09	0.003301
1230.66	0.006101
1242.23	0.008331
1253.81	0.004741
1265.38	0.009311
1276.96	0.017921
1288.53	0.021891
1300.1	0.008291
1311.68	0.002321
1323.25	0.0012434
1334.83	0.0010233
1346.4	0.001331
1357.97	0.002271
1369.55	0.002451
1381.12	0.002461
1392.7	0.004511
1404.27	0.007401
1415.84	0.007291
1427.42	0.004281
1438.99	0.005181
1450.57	0.016651
1462.14	0.038251
1473.71	0.038301
1485.29	0.017511
1496.86	0.007071
1508.44	0.003211
1520.01	0.002271
1531.58	0.002651
1543.16	0.003641
1554.73	0.006911
1566.31	0.013181
1577.88	0.019521
1589.45	0.025941
1601.03	0.018551
1612.6	0.022041
1624.18	0.038611
1635.75	0.019961
1647.32	0.007691
1658.9	0.003731
1670.47	0.002691
1682.05	0.002641
1693.62	0.002511
1705.19	0.002221
1716.77	0.001861
1728.34	0.001421
1739.92	0.0009396
1751.49	0.0006725
1763.06	0.0006444
1774.64	0.0007083
1786.21	0.0006665
1797.79	0.000629
1809.36	0.0005905
1820.93	0.0006147
1832.51	0.0007087
1844.08	0.0009421
1855.66	0.001511
1867.23	0.001541
1878.8	0.0010928
1890.38	0.0009277
1901.95	0.0008225
1913.53	0.0007328
1925.1	0.0007025
1936.67	0.0007182
1948.25	0.0007343
1959.82	0.0006917
1971.4	0.0006423
1982.97	0.0005691
1994.54	0.0005267
2006.12	0.0005399
2017.69	0.0005418
2029.27	0.0005243
2040.84	0.0004964
2052.41	0.0005826
2063.99	0.0006375
2075.56	0.0005387
2087.14	0.0004716
2098.71	0.0004534
2110.28	0.0005131
2121.86	0.0005448
2133.43	0.0005478
2145.01	0.0005558
2156.58	0.000514
2168.15	0.0004587
2179.73	0.0003945
2191.3	0.00034423
2202.88	0.00033074
2214.45	0.00032055
2226.02	0.000388
2237.6	0.00036511
2249.17	0.0004126
2260.74	0.0003885
2272.32	0.0004177
2283.89	0.0004326
2295.47	0.0004079
2307.04	0.00033673
2318.61	0.00026782
2330.19	0.00034085
2341.76	0.000405
2353.34	0.0003764
2364.91	0.00031959
2376.48	0.00028589
2388.06	0.0003159
2399.63	0.000276664
2411.21	0.00029011
2422.78	0.00029559
2434.35	0.00030466
2445.93	0.00034795
2457.5	0.00032381
2469.08	0.00034921
2480.65	0.00034034
2492.22	0.00036933
2503.8	0.00035441
2515.37	0.00034139
2526.95	0.0004008
2538.52	0.0004013
2550.09	0.000452
2561.67	0.000465
2573.24	0.0004485
2584.82	0.00033576
2596.39	0.0002049
2607.96	0.0002101
2619.54	0.000164
2631.11	0.000194
2642.69	0.0001917
2654.26	0.0002293
2665.83	0.0002245
2677.41	0.00032055
2688.98	0.0003747
2700.56	0.00032176
2712.13	0.00031551
2723.7	0.00033531
2735.28	0.00030597
2746.85	0.0002563
2758.43	0.000257
2770	0.0002438
2781.57	0.0001772
2793.15	0.0001813
2804.72	0.0002564
2816.3	0.00034023
2827.87	0.0004853
2839.44	0.0004892
2851.02	0.00034669
2862.59	0.0002313
2874.17	0.0002282
2885.74	0.0001822
2897.31	0.0001778
2908.89	0.0002388
2920.46	0.00016
2932.04	0.00015
2943.61	0.000156
2955.18	0.000153
2966.76	0.0002418
2978.33	0.0003885
2989.91	0.00035973
3001.48	0.0003839
3013.05	0.0006236
3024.63	0.0012674
3036.2	0.002341
3047.78	0.003411
3059.35	0.004501
3070.92	0.002811
3082.5	0.001381
3094.07	0.0009343
3105.65	0.0004392
3117.22	0.0002947
3128.79	0.000279621
3140.37	0.0002301
3151.94	0.000155
3163.52	0.0001737
3175.09	0.000244
3186.66	0.000139
3198.24	0.00031923
3209.81	0.0005674
3221.39	0.0007605
3232.96	0.0008844
3244.53	0.0006105
3256.11	0.00031003
3267.68	0.0002266
3279.26	9.7e-05
3290.83	0.000109
3302.4	0.000139
3313.98	0.000154
3325.55	9.7e-05
3337.13	0.000103
3348.7	0.0002045
3360.27	0.00032489
3371.85	0.0006208
3383.42	0.0011564
3395	0.002231
3406.57	0.005291
3418.14	0.006441
3429.72	0.005571
3441.29	0.001981
3452.86	0.0007004
3464.44	0.0007883
3476.01	0.001411
3487.59	0.002741
3499.16	0.003461
3510.73	0.002891
3522.31	0.002541
3533.88	0.0008438
3545.46	0.00030389
3557.03	0.0001826
3568.6	0.000133
3580.18	6.7e-05
3591.75	2.2e-05
3603.33	0.000118
3614.9	7.5e-05
3626.47	0.000107
3638.05	0.000126
3649.62	8.5e-05
3661.2	0.000122
3672.77	0.000125
3684.34	0.000151
3695.92	9.4e-05
3707.49	0.0001
3719.07	0.000163
3730.64	0.0001847
3742.21	0.000133
3753.79	8.7e-05
3765.36	0.000165
3776.94	9.1e-05
3788.51	0.000123
3800.08	8e-05
3811.66	0.000118
3823.23	0.0001818
3834.81	0.0002838
3846.38	0.0006444
3857.95	0.0007287
3869.53	0.0001886
3881.1	0.0001778
3892.68	0.00013
3904.25	0.0001873
3915.82	8.5e-05
3927.4	0.000187
3938.97	0.000433
3950.55	0.00037034
3962.12	0.000163
3973.69	0.0001777
3985.27	0.000114
3996.84	0.000198
