Infrared Spectrum: O-Bromoaniline
Formula: C 6 H 6 Br N
CAS: 615-36-1
State: gas
Instrument: HP-GC/MS/IRD
Origin: NIST Mass Spectrometry Data Center
1/CM	ABSORBANCE
550	0.008024
562	0.0076818
574	0.005959
586	0.0076818
598	0.0096524
610	0.0099592
622	0.0096288
634	0.0114342
646	0.0228684
658	0.0366626
670	0.0316358
682	0.0295826
694	0.0302906
706	0.0326152
718	0.0441674
730	0.07434
742	0.0963352
754	0.0518256
766	0.0217828
778	0.0136408
790	0.0107026
802	0.0094046
814	0.0082954
826	0.0076464
838	0.0073396
850	0.0050976
862	0.0041772
874	0.00354
886	0.0025016
898	0.0020532
910	0.0025134
922	0.0037524
934	0.0039058
946	0.0038114
958	0.0035636
970	0.0032922
982	0.0028438
994	0.0041536
1006	0.018408
1018	0.0386804
1030	0.0294292
1042	0.022302
1054	0.0192104
1066	0.017169
1078	0.021417
1090	0.016048
1102	0.0046728
1114	0.0029028
1126	0.0048144
1138	0.0090506
1150	0.0133812
1162	0.0097586
1174	0.0025606
1186	0.0003422
1198	0
1210	5.9e-05
1222	0.0005546
1234	0.0020886
1246	0.006372
1258	0.009617
1270	0.0084134
1282	0.012685
1294	0.0301844
1306	0.0384444
1318	0.02478
1330	0.0053454
1342	0.0008968
1354	0.0011328
1366	0.0025252
1378	0.0022656
1390	0.0011564
1402	0.0008496
1414	0.0012744
1426	0.005133
1438	0.0180658
1450	0.025134
1462	0.031683
1474	0.0684046
1486	0.0866946
1498	0.050327
1510	0.0174168
1522	0.0064546
1534	0.005723
1546	0.0078234
1558	0.013688
1570	0.0190098
1582	0.0206736
1594	0.0316712
1606	0.0732072
1618	0.116395
1630	0.095993
1642	0.038291
1654	0.0140538
1666	0.0084606
1678	0.0057112
1690	0.0043188
1702	0.0036934
1714	0.0030562
1726	0.0027966
1738	0.0030562
1750	0.0038822
1762	0.0037524
1774	0.0025724
1786	0.0023128
1798	0.002242
1810	0.001652
1822	0.0014396
1834	0.0018762
1846	0.002537
1858	0.0026196
1870	0.0031624
1882	0.0041772
1894	0.0035046
1906	0.0033866
1918	0.0041064
1930	0.0028084
1942	0.0018644
1954	0.0018526
1966	0.0019116
1978	0.0019352
1990	0.0019706
2002	0.0018998
2014	0.0018644
2026	0.0018998
2038	0.0019234
2050	0.0019116
2062	0.0019588
2074	0.001888
2086	0.0018644
2098	0.0018762
2110	0.0019706
2122	0.0022066
2134	0.0023128
2146	0.0022656
2158	0.0020886
2170	0.0020414
2182	0.0020296
2194	0.0020532
2206	0.0020768
2218	0.0020532
2230	0.0020532
2242	0.0019824
2254	0.001947
2266	0.0020414
2278	0.0022184
2290	0.0023954
2302	0.0026078
2314	0.0027494
2326	0.0025252
2338	0.0023364
2350	0.002242
2362	0.0021476
2374	0.0020768
2386	0.0020296
2398	0.0020414
2410	0.002183
2422	0.002301
2434	0.0023954
2446	0.0025016
2458	0.0024308
2470	0.0021358
2482	0.001947
2494	0.001947
2506	0.0019942
2518	0.0022538
2530	0.0023954
2542	0.0026196
2554	0.0028438
2566	0.0027258
2578	0.0026314
2590	0.0030208
2602	0.0034456
2614	0.003245
2626	0.0025724
2638	0.0022066
2650	0.0021122
2662	0.0021122
2674	0.0019942
2686	0.0020296
2698	0.0020532
2710	0.0021004
2722	0.0020886
2734	0.0021712
2746	0.002242
2758	0.0022538
2770	0.0022066
2782	0.0021948
2794	0.0020768
2806	0.0019706
2818	0.0018998
2830	0.0019942
2842	0.002065
2854	0.002301
2866	0.0025606
2878	0.0027612
2890	0.0026786
2902	0.0024308
2914	0.0022538
2926	0.0022892
2938	0.0023482
2950	0.00236
2962	0.0024662
2974	0.0024898
2986	0.002655
2998	0.0036698
3010	0.0071626
3022	0.0131098
3034	0.0148562
3046	0.0134048
3058	0.0171454
3070	0.0269748
3082	0.0286976
3094	0.0136998
3106	0.0053336
3118	0.003186
3130	0.0026314
3142	0.0026196
3154	0.0026432
3166	0.0029264
3178	0.003363
3190	0.0037878
3202	0.0036344
3214	0.0031742
3226	0.0027258
3238	0.0024662
3250	0.002419
3262	0.0022892
3274	0.0022066
3286	0.002183
3298	0.0020886
3310	0.002124
3322	0.0021948
3334	0.002242
3346	0.0024426
3358	0.0028202
3370	0.003835
3382	0.0065608
3394	0.0145848
3406	0.021712
3418	0.018526
3430	0.0099002
3442	0.0046138
3454	0.0043542
3466	0.0061242
3478	0.0104666
3490	0.0188918
3502	0.0216294
3514	0.017936
3526	0.0115994
3538	0.0048852
3550	0.0030562
3562	0.0025606
3574	0.0024308
3586	0.0024426
3598	0.0022774
3610	0.0024544
3622	0.0025606
3634	0.0025134
3646	0.0023954
3658	0.0022066
3670	0.0023364
3682	0.0022774
3694	0.002301
3706	0.0023954
3718	0.00236
3730	0.002478
3742	0.002478
3754	0.0024662
3766	0.0023718
3778	0.0024308
3790	0.002419
3802	0.002478
3814	0.0026314
3826	0.0029854
3838	0.003481
