Infrared Spectrum: o-Iodotoluene
Formula: C 7 H 7 I
CAS: 615-37-2
State: gas
Origin: EPA-IR VAPOR PHASE LIBRARY
1/CM	ABSORBANCE
501.5	0.0009665
513.074	0.0007397
524.648	0.0023566
536.222	0.0052666
547.796	0.0026466
559.37	0.0008017
570.944	0.0009136
582.518	0.0006647
594.092	0.0003342
605.666	0.0007935
617.24	0.0016066
628.814	0.0047466
640.388	0.0188666
651.962	0.0216066
663.536	0.0068366
675.11	0.0013366
686.684	0.0012466
698.258	0.0022866
709.832	0.0046066
721.406	0.0252566
732.98	0.0795666
744.554	0.108247
756.128	0.0424766
767.702	0.0074766
779.276	0.0036966
790.85	0.0034666
802.423	0.0024266
813.997	0.0024566
825.571	0.0021566
837.145	0.0014066
848.719	0.0013566
860.293	0.0019766
871.867	0.0013466
883.441	0.0009954
895.015	0.0013466
906.589	0.0018766
918.163	0.0022266
929.737	0.0020866
941.311	0.0018366
952.885	0.0024566
964.459	0.0037166
976.033	0.0095466
987.607	0.0134766
999.181	0.0199166
1010.76	0.0890766
1022.33	0.0880566
1033.9	0.0173866
1045.48	0.0127866
1057.05	0.0077566
1068.63	0.0039566
1080.2	0.0026166
1091.77	0.0017666
1103.35	0.0016666
1114.92	0.0016566
1126.49	0.0020866
1138.07	0.0020766
1149.64	0.0018066
1161.22	0.0016566
1172.79	0.0013766
1184.36	0.0013366
1195.94	0.0020166
1207.51	0.0021966
1219.09	0.0013366
1230.66	0.0011266
1242.23	0.0013466
1253.81	0.0023366
1265.38	0.0042766
1276.96	0.0046466
1288.53	0.0027366
1300.1	0.0015166
1311.68	0.0013066
1323.25	0.0014866
1334.83	0.0020666
1346.4	0.0027166
1357.97	0.0024066
1369.55	0.0035566
1381.12	0.0081566
1392.7	0.0106466
1404.27	0.0077166
1415.84	0.0126366
1427.42	0.0236966
1438.99	0.0289766
1450.57	0.0435466
1462.14	0.0572766
1473.71	0.0563866
1485.29	0.0274866
1496.86	0.0076966
1508.44	0.0044766
1520.01	0.0034466
1531.58	0.0031966
1543.16	0.0048866
1554.73	0.0137266
1566.31	0.0224466
1577.88	0.0191266
1589.45	0.0167266
1601.03	0.0076566
1612.6	0.0026566
1624.18	0.0016166
1635.75	0.0013366
1647.32	0.0013966
1658.9	0.0023466
1670.47	0.0038066
1682.05	0.0028566
1693.62	0.0017366
1705.19	0.0017366
1716.77	0.0012166
1728.34	0.0007357
1739.92	0.0005892
1751.49	0.0005841
1763.06	0.0010562
1774.64	0.0024966
1786.21	0.0030866
1797.79	0.0020966
1809.36	0.0021266
1820.93	0.0025366
1832.51	0.0014966
1844.08	0.0007484
1855.66	0.0011566
1867.23	0.0018366
1878.8	0.0019066
1890.38	0.0027966
1901.95	0.0042666
1913.53	0.0031766
1925.1	0.0021166
1936.67	0.0032766
1948.25	0.0026366
1959.82	0.000855
1971.4	0.0005224
1982.97	0.0005032
1994.54	0.000548
2006.12	0.0004958
2017.69	0.0006108
2029.27	0.0008331
2040.84	0.0005725
2052.41	0.000376
2063.99	0.0004233
2075.56	0.000325
2087.14	0.0002232
2098.71	0.0001455
2110.28	0.00015008
2121.86	0.0001995
2133.43	0.0001849
2145.01	0.00013443
2156.58	0.00015192
2168.15	0.0002862
2179.73	0.0003725
2191.3	0.0002525
2202.88	0.0002096
2214.45	0.00015672
2226.02	0.0001816
2237.6	0.0002696
2249.17	0.0003754
2260.74	0.0004532
2272.32	0.0004624
2283.89	0.0004477
2295.47	0.0004676
2307.04	0.0006435
2318.61	0.0010426
2330.19	0.0007939
2341.76	0.000305
2353.34	0.0002818
2364.91	0.0003902
2376.48	0.0003881
2388.06	0.0004025
2399.63	0.0004628
2411.21	0.0005556
2422.78	0.000703
2434.35	0.0008223
2445.93	0.0006292
2457.5	0.0004312
2469.08	0.0004634
2480.65	0.0004714
2492.22	0.0004109
2503.8	0.0003127
2515.37	0.0004648
2526.95	0.0006644
2538.52	0.0008358
2550.09	0.0008145
2561.67	0.0008534
2573.24	0.0012466
2584.82	0.0013966
2596.39	0.0011666
2607.96	0.0007607
2619.54	0.0003823
2631.11	0.0002186
2642.69	0.0002306
2654.26	0.0002213
2665.83	0.0002187
2677.41	0.00017536
2688.98	0.0002138
2700.56	0.0002609
2712.13	0.0003167
2723.7	0.0004501
2735.28	0.0007691
2746.85	0.0012266
2758.43	0.001058
2770	0.0004896
2781.57	0.0004547
2793.15	0.000576
2804.72	0.0008899
2816.3	0.0013566
2827.87	0.0019966
2839.44	0.0029866
2851.02	0.0045766
2862.59	0.0067466
2874.17	0.0078966
2885.74	0.0072466
2897.31	0.0070666
2908.89	0.0089466
2920.46	0.0146666
2932.04	0.0212166
2943.61	0.0197866
2955.18	0.0156966
2966.76	0.0165166
2978.33	0.0206366
2989.91	0.0204466
3001.48	0.0159666
3013.05	0.0173766
3024.63	0.0149366
3036.2	0.0131266
3047.78	0.0222966
3059.35	0.0414666
3070.92	0.0521666
3082.5	0.0292266
3094.07	0.0123866
3105.65	0.0058466
3117.22	0.0043466
3128.79	0.0036066
3140.37	0.0021566
3151.94	0.0011666
3163.52	0.0008813
3175.09	0.000818
3186.66	0.0006555
3198.24	0.0004526
3209.81	0.0002495
3221.39	0.00012719
3232.96	8.4594e-05
3244.53	7.188e-05
3256.11	0.0001803
3267.68	0.00016076
3279.26	0.00014334
3290.83	0.00010484
3302.4	5.98e-05
3313.98	4.21e-05
3325.55	9.192e-05
3337.13	8.464e-05
3348.7	8.3414e-05
3360.27	8.4874e-05
3371.85	5.67e-05
3383.42	0.00013659
3395	0.00011936
3406.57	5.99e-05
3418.14	2.25e-05
3429.72	0.00010419
3441.29	0.00011107
3452.86	0.00010029
3464.44	0.00014038
3476.01	0.00010135
3487.59	0.0001205
3499.16	4.43e-05
3510.73	3.41e-05
3522.31	6.65e-05
3533.88	0.00011707
3545.46	0.00012606
3557.03	0.0001421
3568.6	7.5906e-05
3580.18	7.6227e-05
3591.75	0.0001952
3603.33	0.00011424
3614.9	9.541e-05
3626.47	0.0001832
3638.05	9.523e-05
3649.62	0.0002108
3661.2	0.0002623
3672.77	0.0001869
3684.34	0.00015296
3695.92	0.0001532
3707.49	0.000285
3719.07	0.0004748
3730.64	0.0003859
3742.21	0.0002474
3753.79	0.00014824
3765.36	0.00011873
3776.94	0.00012538
3788.51	0.0001949
3800.08	0.0002327
3811.66	0.0002289
3823.23	0.000211
3834.81	0.0002794
3846.38	0.0004959
3857.95	0.0007888
3869.53	0.000729
3881.1	0.0003941
3892.68	0.0002523
3904.25	0.0002208
3915.82	0.0001645
3927.4	0.0003145
3938.97	0.0002701
3950.55	0.000297
3962.12	0.0004351
3973.69	0.0003559
3985.27	0.0002523
3996.84	0.0002705
