Infrared Spectrum: 4-Methyl-3-hexanol
Formula: C 7 H 16 O
CAS: 615-29-2
State: gas
Instrument: HP-GC/MS/IRD
Origin: NIST Mass Spectrometry Data Center
1/CM	ABSORBANCE
550	0.00023
562	0.0001978
574	7.13e-05
586	9.43e-05
598	0.0001909
610	0.0002001
622	0.0001449
634	0.0001334
646	0.0001173
658	0.0001426
670	8.97e-05
682	0.0001081
694	5.06e-05
706	5.52e-05
718	0.0001012
730	0.0001219
742	0.0001472
754	0.0001587
766	0.0003335
778	0.0004301
790	0.0004301
802	0.0003611
814	0.0003611
826	0.0003381
838	0.0003519
850	0.0004232
862	0.000483
874	0.0004853
886	0.0004278
898	0.00046
910	0.0007337
922	0.0012236
934	0.00184
946	0.0029463
958	0.0046736
970	0.0056327
982	0.0050117
994	0.0034753
1006	0.0022862
1018	0.0018538
1030	0.0018584
1042	0.0018285
1054	0.0018515
1066	0.0021022
1078	0.0024955
1090	0.0027278
1102	0.0026519
1114	0.0023506
1126	0.0021758
1138	0.0022149
1150	0.0020884
1162	0.0015962
1174	0.0012328
1186	0.001127
1198	0.0013869
1210	0.0017917
1222	0.0022011
1234	0.002254
1246	0.002001
1258	0.0017411
1270	0.0016491
1282	0.0016146
1294	0.0016031
1306	0.0014628
1318	0.0012719
1330	0.001219
1342	0.0012029
1354	0.0015893
1366	0.0022425
1378	0.0032568
1390	0.0033327
1402	0.0020838
1414	0.0012305
1426	0.0010925
1438	0.0014858
1450	0.0027232
1462	0.0037329
1474	0.0030866
1486	0.0016652
1498	0.0008188
1510	0.000322
1522	0.0003151
1534	0.0003289
1546	0.0002668
1558	0.0002001
1570	0.0002875
1582	0.0003013
1594	0.0002507
1606	0.00023
1618	0.0002185
1630	0.0002139
1642	0.0001978
1654	9.89e-05
1666	0.0001449
1678	0.000115
1690	0.0001035
1702	1.38e-05
1714	3.91e-05
1726	0.0001288
1738	6.67e-05
1750	1.38e-05
1762	3.68e-05
1774	4.6e-05
1786	5.29e-05
1798	5.52e-05
1810	9.43e-05
1822	6.9e-05
1834	7.13e-05
1846	4.14e-05
1858	8.74e-05
1870	5.06e-05
1882	9.43e-05
1894	8.74e-05
1906	0.0001035
1918	7.59e-05
1930	0.0001012
1942	8.97e-05
1954	0.0001104
1966	8.74e-05
1978	7.82e-05
1990	5.52e-05
2002	7.36e-05
2014	6.21e-05
2026	8.05e-05
2038	7.13e-05
2050	8.51e-05
2062	6.67e-05
2074	6.67e-05
2086	7.82e-05
2098	6.67e-05
2110	7.59e-05
2122	6.9e-05
2134	7.59e-05
2146	6.67e-05
2158	5.29e-05
2170	5.75e-05
2182	4.37e-05
2194	4.83e-05
2206	6.9e-05
2218	6.67e-05
2230	7.59e-05
2242	5.98e-05
2254	4.6e-05
2266	7.36e-05
2278	6.44e-05
2290	5.75e-05
2302	3.45e-05
2314	6.9e-06
2326	3.91e-05
2338	5.06e-05
2350	4.37e-05
2362	4.14e-05
2374	3.22e-05
2386	0.0001035
2398	0.0001104
2410	0.0001495
2422	0.0001242
2434	0.0001357
2446	0.0001196
2458	9.89e-05
2470	0.0001012
2482	9.66e-05
2494	8.05e-05
2506	7.59e-05
2518	9.66e-05
2530	9.43e-05
2542	0.0001219
2554	0.000138
2566	0.0001748
2578	0.0002231
2590	0.0002507
2602	0.0002668
2614	0.0003013
2626	0.0003197
2638	0.0003197
2650	0.0003105
2662	0.0003312
2674	0.0003726
2686	0.0003864
2698	0.0004209
2710	0.0004646
2722	0.0005474
2734	0.0006302
2746	0.0006923
2758	0.0007015
2770	0.0007199
2782	0.0007935
2794	0.0009269
2806	0.0010649
2818	0.0013386
2830	0.0018262
2842	0.0028451
2854	0.0047081
2866	0.0075302
2878	0.0112125
2890	0.0123855
2902	0.010442
2914	0.0104581
2926	0.0131008
2938	0.0155066
2950	0.0161207
2962	0.0201779
2974	0.0223445
2986	0.0133929
2998	0.0052532
3010	0.0024725
3022	0.0016215
3034	0.0012719
3046	0.0010879
3058	0.0009292
3070	0.000851
3082	0.0007429
3094	0.000644
3106	0.0005842
3118	0.0005221
3130	0.0005037
3142	0.0004255
3154	0.0004531
3166	0.0004094
3178	0.0003496
3190	0.0002576
3202	0.0002277
3214	0.0001587
3226	0.0001587
3238	0.0001104
3250	0.0001173
3262	0.0001127
3274	0.0001127
3286	9.66e-05
3298	0.0001035
3310	8.97e-05
3322	7.36e-05
3334	7.13e-05
3346	9.43e-05
3358	2.99e-05
3370	7.59e-05
3382	9.89e-05
3394	0.000115
3406	0.0001334
3418	0.0001219
3430	0.0001817
3442	0.0001495
3454	0.0001127
3466	0.0001334
3478	0.0001472
3490	0.0001127
3502	0.0001012
3514	0.0001219
3526	8.51e-05
3538	0.000115
3550	8.97e-05
3562	7.36e-05
3574	0.000138
3586	4.37e-05
3598	0.0001656
3610	0.0001541
3622	0.0003496
3634	0.0006555
3646	0.0010925
3658	0.0015157
3670	0.0011063
3682	0.0005267
3694	0.0002898
3706	0.0002024
3718	0.0001863
3730	0.0001334
3742	9.89e-05
3754	0.0001587
3766	0.0001725
3778	0.0001656
3790	0.000207
3802	0.0002024
3814	0.0001909
3826	0.0002553
3838	0.0001817
