Infrared Spectrum: DI-N-PROPYL OXALATE
Formula: C8 H14 O4
CAS: 615-98-5
State: LIQUID
Boiling point: 106-1-8 C AT 12 mmHg
Class: COBLENTZ
Instrument: Not specified, most likely a prism, grating, or hybrid spectrometer.
Sampling: TRANSMISSION
Path length: CAPILLARY LAYER
Resolution: 4
Origin: WYANDOTTE CHEMICALS CORP., WYANDOTTE, MICHIGAN, USA
MICROMETERS	TRANSMITTANCE
2.059	0.988
2.09903	0.988
2.13906	0.99
2.17909	0.975
2.21912	0.963
2.25915	0.963
2.29918	0.978
2.33921	0.97
2.37924	0.98
2.41928	0.98
2.45931	0.98
2.49934	0.98
2.53937	0.983
2.5794	0.995
2.61943	0.981
2.65946	0.995
2.69949	0.973
2.73952	0.973
2.77955	0.951
2.81958	0.933
2.85961	0.915
2.89964	0.921
2.93967	0.946
2.9797	0.941
3.01973	0.943
3.05976	0.938
3.0998	0.933
3.13983	0.925
3.17986	0.923
3.21989	0.93
3.25992	0.911
3.29995	0.862
3.33998	0.433
3.38001	0.47
3.42004	0.616
3.46007	0.609
3.5001	0.779
3.54013	0.88
3.58016	0.916
3.62019	0.938
3.66022	0.935
3.70025	0.94
3.74028	0.946
3.78031	0.956
3.82035	0.955
3.86038	0.958
3.90041	0.956
3.94044	0.955
3.98047	0.956
4.0205	0.95
4.06053	0.94
4.10056	0.94
4.14059	0.953
4.18062	0.955
4.22065	0.96
4.26068	0.95
4.30071	0.956
4.34074	0.976
4.38077	0.983
4.4208	0.975
4.46083	0.968
4.50087	0.965
4.5409	0.971
4.58093	0.971
4.62096	0.965
4.66099	0.963
4.70102	0.97
4.74105	0.973
4.78108	0.97
4.82111	0.96
4.86114	0.956
4.90117	0.961
4.9412	0.963
4.98123	0.966
5.02126	0.965
5.06129	0.965
5.10132	0.966
5.14135	0.97
5.18139	0.961
5.22142	0.958
5.26145	0.955
5.30148	0.95
5.34151	0.933
5.38154	0.918
5.42157	0.918
5.4616	0.89
5.50163	0.86
5.54166	0.799
5.58169	0.687
5.62172	0.455
5.66175	0.199
5.70178	0.136
5.74181	0.137
5.78184	0.207
5.82187	0.475
5.8619	0.627
5.90194	0.754
5.94197	0.8
5.982	0.815
6.02203	0.827
6.06206	0.832
6.10209	0.833
6.14212	0.84
6.18215	0.875
6.22218	0.898
6.26221	0.91
6.30224	0.913
6.34227	0.921
6.3823	0.913
6.42233	0.92
6.46236	0.911
6.50239	0.911
6.54242	0.903
6.58246	0.905
6.62249	0.9
6.66252	0.87
6.70255	0.835
6.74258	0.679
6.78261	0.544
6.82264	0.498
6.86267	0.651
6.9027	0.722
6.94273	0.745
6.98276	0.799
7.02279	0.812
7.06282	0.777
7.10285	0.714
7.14288	0.624
7.18291	0.667
7.22294	0.609
7.26298	0.647
7.30301	0.752
7.34304	0.742
7.38307	0.674
7.4231	0.651
7.46313	0.629
7.50316	0.451
7.54319	0.312
7.58322	0.287
7.62325	0.313
7.66328	0.342
7.70331	0.375
7.74334	0.483
7.78337	0.539
7.8234	0.563
7.86343	0.589
7.90346	0.569
7.94349	0.599
7.98353	0.619
8.02356	0.644
8.06359	0.669
8.10362	0.657
8.14365	0.624
8.18368	0.573
8.22371	0.49
8.26374	0.398
8.30377	0.289
8.3438	0.186
8.38383	0.134
8.42386	0.093
8.46389	0.084
8.50392	0.102
8.54395	0.151
8.58398	0.2
8.62401	0.222
8.66405	0.257
8.70408	0.249
8.74411	0.308
8.78414	0.421
8.82417	0.516
8.8642	0.591
8.90423	0.634
8.94426	0.662
8.98429	0.697
9.02432	0.722
9.06435	0.747
9.10438	0.774
9.14441	0.802
9.18444	0.818
9.22447	0.85
9.2645	0.867
9.30453	0.868
9.34457	0.86
9.3846	0.825
9.42463	0.754
9.46466	0.632
9.50469	0.602
9.54472	0.672
9.58475	0.744
9.62478	0.732
9.66481	0.75
9.70484	0.802
9.74487	0.848
9.7849	0.875
9.82493	0.893
9.86496	0.895
9.90499	0.901
9.94502	0.898
9.98505	0.888
10.0251	0.882
10.0651	0.852
10.1051	0.83
10.1452	0.789
10.1852	0.755
10.2252	0.719
10.2653	0.704
10.3053	0.699
10.3453	0.704
10.3854	0.704
10.4254	0.691
10.4654	0.666
10.5055	0.649
10.5455	0.649
10.5855	0.632
10.6255	0.599
10.6656	0.553
10.7056	0.498
10.7456	0.45
10.7857	0.451
10.8257	0.498
10.8657	0.543
10.9058	0.584
10.9458	0.583
10.9858	0.573
11.0258	0.554
11.0659	0.548
11.1059	0.571
11.1459	0.614
11.186	0.654
11.226	0.677
11.266	0.707
11.3061	0.75
11.3461	0.769
11.3861	0.8
11.4262	0.813
11.4662	0.813
11.5062	0.803
11.5462	0.795
11.5863	0.789
11.6263	0.803
11.6663	0.827
11.7064	0.843
11.7464	0.863
11.7864	0.877
11.8265	0.89
11.8665	0.89
11.9065	0.895
11.9466	0.893
11.9866	0.903
12.0266	0.905
12.0666	0.908
12.1067	0.905
12.1467	0.903
12.1867	0.897
12.2268	0.887
12.2668	0.882
12.3068	0.885
12.3469	0.885
12.3869	0.888
12.4269	0.892
12.467	0.89
12.507	0.89
12.547	0.888
12.587	0.883
12.6271	0.878
12.6671	0.865
12.7071	0.842
12.7472	0.799
12.7872	0.75
12.8272	0.707
12.8673	0.697
12.9073	0.704
12.9473	0.722
12.9873	0.735
13.0274	0.754
13.0674	0.764
13.1074	0.772
13.1475	0.784
13.1875	0.787
13.2275	0.79
13.2676	0.792
13.3076	0.795
13.3476	0.797
13.3877	0.799
13.4277	0.81
13.4677	0.823
13.5077	0.848
13.5478	0.862
13.5878	0.868
13.6278	0.87
13.6679	0.878
13.7079	0.877
13.7479	0.875
13.788	0.882
13.828	0.883
13.868	0.883
13.9081	0.88
13.9481	0.88
13.9881	0.882
14.0281	0.88
14.0682	0.883
14.1082	0.885
14.1482	0.885
14.1883	0.88
14.2283	0.88
14.2683	0.877
14.3084	0.877
14.3484	0.872
14.3884	0.872
14.4284	0.872
14.4685	0.865
14.5085	0.873
14.5485	0.87
14.5886	0.872
14.6286	0.873
14.6686	0.87
14.7087	0.872
14.7487	0.87
14.7887	0.862
14.8288	0.868
14.8688	0.868
14.9088	0.867
14.9488	0.863
14.9889	0.86
15.0289	0.848
15.0689	0.84
15.109	0.835
15.149	0.845
15.189	0.853
15.2291	0.855
15.2691	0.85
15.3091	0.843
15.3492	0.842
15.3892	0.83
15.4292	0.833
15.4692	0.832
15.5093	0.823
15.5493	0.822
15.5893	0.818
15.6294	0.82
15.6694	0.82
15.7094	0.823
15.7495	0.813
15.7895	0.805
15.8295	0.802
15.8695	0.802
15.9096	0.802
15.9496	0.803
15.9896	0.8
