Infrared Spectrum: 6-Aza-2-thiothymine
Formula: C 4 H 5 N 3 O S
CAS: 615-76-9
State: gas
Origin: EPA-IR VAPOR PHASE LIBRARY
1/CM	ABSORBANCE
549.9	0.0011641
559.547	0.0010149
569.193	0.001109
578.84	0.0010512
588.486	0.0011572
598.133	0.001655
607.779	0.002295
617.426	0.002145
627.072	0.001575
636.719	0.0013755
646.365	0.0011939
656.012	0.0013661
665.658	0.001965
675.305	0.002605
684.951	0.003335
694.598	0.004145
704.245	0.003455
713.891	0.002265
723.538	0.0014417
733.184	0.0011634
742.831	0.0011071
752.477	0.0012183
762.124	0.001695
771.77	0.0014715
781.417	0.0011149
791.063	0.0007525
800.71	0.000696
810.356	0.0006966
820.003	0.00059917
829.649	0.0006044
839.296	0.00062591
848.943	0.00060693
858.589	0.00055706
868.236	0.00059961
877.882	0.00056219
887.529	0.0006477
897.175	0.00061911
906.822	0.00063719
916.468	0.0006945
926.115	0.0007042
935.761	0.0008694
945.408	0.0011299
955.054	0.0012134
964.701	0.0009526
974.347	0.0007425
983.994	0.0007594
993.64	0.0010155
1003.29	0.0013103
1012.93	0.001725
1022.58	0.001695
1032.23	0.0012761
1041.87	0.0008739
1051.52	0.0007451
1061.17	0.0008883
1070.81	0.0013493
1080.46	0.001955
1090.11	0.002695
1099.75	0.002785
1109.4	0.001995
1119.05	0.001545
1128.69	0.0014967
1138.34	0.0011393
1147.99	0.0009814
1157.63	0.0013101
1167.28	0.001775
1176.92	0.003455
1186.57	0.009045
1196.22	0.018615
1205.86	0.018205
1215.51	0.008625
1225.16	0.004965
1234.8	0.002925
1244.45	0.001595
1254.1	0.0011872
1263.74	0.001259
1273.39	0.001595
1283.04	0.001905
1292.68	0.001895
1302.33	0.0014487
1311.98	0.0013928
1321.62	0.001865
1331.27	0.002365
1340.92	0.002385
1350.56	0.001805
1360.21	0.002355
1369.86	0.003625
1379.5	0.004835
1389.15	0.004115
1398.79	0.002455
1408.44	0.001765
1418.09	0.002055
1427.73	0.001655
1437.38	0.001895
1447.03	0.001685
1456.67	0.002435
1466.32	0.002145
1475.97	0.002625
1485.61	0.004905
1495.26	0.014145
1504.91	0.025975
1514.55	0.022975
1524.2	0.010485
1533.85	0.005605
1543.49	0.003415
1553.14	0.001665
1562.79	0.0011282
1572.43	0.0009682
1582.08	0.0010724
1591.73	0.0013241
1601.37	0.001575
1611.02	0.001615
1620.67	0.0012743
1630.31	0.000969
1639.96	0.0008082
1649.6	0.0007784
1659.25	0.0006615
1668.9	0.0008549
1678.54	0.0010803
1688.19	0.001555
1697.84	0.002285
1707.48	0.003105
1717.13	0.006255
1726.78	0.014815
1736.42	0.021435
1746.07	0.017485
1755.72	0.005375
1765.36	0.002455
1775.01	0.001595
1784.66	0.0013451
1794.3	0.001137
1803.95	0.0009615
1813.6	0.0007392
1823.24	0.0006764
1832.89	0.00062818
1842.54	0.0007202
1852.18	0.0005905
1861.83	0.00063617
1871.47	0.00060464
1881.12	0.0004842
1890.77	0.0004728
1900.41	0.000429
1910.06	0.0004573
1919.71	0.0005044
1929.35	0.000402
1939	0.000404
1948.65	0.000394
1958.29	0.000398
1967.94	0.0004504
1977.59	0.000334
1987.23	0.000373
1996.88	0.000359
2006.53	0.000379
2016.17	0.000382
2025.82	0.00039
2035.47	0.000382
2045.11	0.000372
2054.76	0.000368
2064.41	0.00044
2074.05	0.000401
2083.7	0.000382
2093.35	0.000365
2102.99	0.000376
2112.64	0.000392
2122.28	0.000392
2131.93	0.000352
2141.58	0.000338
2151.22	0.000357
2160.87	0.000374
2170.52	0.000404
2180.16	0.000395
2189.81	0.000399
2199.46	0.000373
2209.1	0.000375
2218.75	0.000369
2228.4	0.000431
2238.04	0.0004473
2247.69	0.00053906
2257.34	0.0006617
2266.98	0.0006749
2276.63	0.00055548
2286.28	0.000488
2295.92	0.00045
2305.57	0.0004687
2315.22	0.0005213
2324.86	0.00058479
2334.51	0.00058379
2344.16	0.00055624
2353.8	0.00056476
2363.45	0.0006737
2373.09	0.00056319
2382.74	0.000415
2392.39	0.000362
2402.03	0.000366
2411.68	0.000373
2421.33	0.00035
2430.97	0.00029
2440.62	0.000314
2450.27	0.000344
2459.91	0.000324
2469.56	0.000339
2479.21	0.000339
2488.85	0.000318
2498.5	0.000359
2508.15	0.00036
2517.79	0.000337
2527.44	0.000318
2537.09	0.000355
2546.73	0.000345
2556.38	0.000316
2566.03	0.000307
2575.67	0.000296
2585.32	0.000312
2594.96	0.000283
2604.61	0.000293
2614.26	0.000281
2623.9	0.00029
2633.55	0.000301
2643.2	0.000271
2652.84	0.000283
2662.49	0.000334
2672.14	0.000335
2681.78	0.000338
2691.43	0.000357
2701.08	0.000407
2710.72	0.000345
2720.37	0.000376
2730.02	0.000306
2739.66	0.000307
2749.31	0.000272
2758.96	0.000252
2768.6	0.000266
2778.25	0.000239
2787.9	0.000251
2797.54	0.000269
2807.19	0.000298
2816.84	0.000232
2826.48	0.000314
2836.13	0.000315
2845.77	0.000321
2855.42	0.000415
2865.07	0.000405
2874.71	0.0004782
2884.36	0.000398
2894.01	0.000332
2903.65	0.000266
2913.3	0.00027
2922.95	0.000363
2932.59	0.0005302
2942.24	0.00055699
2951.89	0.0004585
2961.53	0.000362
2971.18	0.0004563
2980.83	0.000385
2990.47	0.000354
3000.12	0.000266
3009.77	0.000377
3019.41	0.000279
3029.06	0.000215
3038.71	0.000244
3048.35	0.000142
3058	0.000304
3067.64	0.000229
3077.29	0.000275
3086.94	0.000212
3096.58	0.000188
3106.23	0.000217
3115.88	0.000216
3125.52	0.000212
3135.17	0.000153
3144.82	0.000217
3154.46	0.000144
3164.11	0.000162
3173.76	0.00012
3183.4	0.00016
3193.05	0.000167
3202.7	0.00016
3212.34	0.000209
3221.99	0.000193
3231.64	0.000248
3241.28	0.000268
3250.93	0.000152
3260.58	0.000176
3270.22	0.000116
3279.87	0.000217
3289.52	0.000103
3299.16	0.00015
3308.81	0.000178
3318.45	0.000156
3328.1	0.000273
3337.75	0.000178
3347.39	0.000169
3357.04	0.00026
3366.69	0.00018
3376.33	0.000243
3385.98	0.000388
3395.63	0.0010634
3405.27	0.002355
3414.92	0.003065
3424.57	0.002625
3434.21	0.001352
3443.86	0.001805
3453.51	0.003485
3463.15	0.004555
3472.8	0.003575
3482.45	0.00132
3492.09	0.000436
3501.74	0.000337
3511.39	0.000288
3521.03	0.000224
3530.68	0.000156
3540.33	0.000171
3549.97	0.000261
3559.62	0.000297
3569.26	0.000382
3578.91	0.000258
3588.56	0.0004966
3598.2	0.000209
3607.85	0.000409
3617.5	0.00036
3627.14	0.000386
3636.79	0.000128
3646.44	0.000371
3656.08	0.000321
3665.73	0.000119
3675.38	0.000352
3685.02	0.000181
3694.67	0.000141
3704.32	0.000128
3713.96	0.000294
3723.61	0.00031
3733.26	0.000413
3742.9	0.000367
3752.55	0.000336
3762.2	0.000149
3771.84	0.000104
3781.49	0.000112
3791.13	8.3e-05
3800.78	0.000154
3810.43	5.2e-05
3820.07	0.000187
3829.72	4.5e-05
3839.37	0.000146
3849.01	0.000124
3858.66	7.5e-05
3868.31	0.000247
3877.95	0.000165
3887.6	0.000209
3897.25	0.000167
3906.89	0.000146
3916.54	0.000188
3926.19	0.000179
3935.83	8.2e-05
3945.48	0.000149
3955.13	8.3e-05
3964.77	7.2e-05
3974.42	9.9e-05
3984.07	3.3e-05
3993.71	3.7e-05
