Infrared Spectrum: N,N'-Diethyloxamide
Formula: C 6 H 12 N 2 O 2
CAS: 615-84-9
State: gas
Origin: EPA-IR VAPOR PHASE LIBRARY
1/CM	ABSORBANCE
551.7	0.0071
563.274	0.00549
574.848	0.00504
586.421	0.00598
597.995	0.00743
609.569	0.00815
621.143	0.00707
632.717	0.00564
644.291	0.0042
655.864	0.00307
667.438	0.00226
679.012	0.00182
690.586	0.00147
702.16	0.00124
713.734	0.00118
725.307	0.00139
736.881	0.0019
748.455	0.00197
760.029	0.0016
771.603	0.00136
783.177	0.00121
794.75	0.00167
806.324	0.00245
817.898	0.00428
829.472	0.00414
841.046	0.00227
852.619	0.00106
864.193	0.0008505
875.767	0.0006177
887.341	0.0005021
898.915	0.0003631
910.489	0.0004701
922.062	0.0002583
933.636	0.0004313
945.21	0.0003466
956.784	0.0004629
968.358	0.0004414
979.932	0.0005501
991.505	0.0005813
1003.08	0.0007464
1014.65	0.00103
1026.23	0.00126
1037.8	0.00139
1049.37	0.00137
1060.95	0.00155
1072.52	0.00188
1084.1	0.0019
1095.67	0.00188
1107.24	0.00232
1118.82	0.0022
1130.39	0.00268
1141.97	0.00301
1153.54	0.00406
1165.11	0.0055
1176.69	0.00768
1188.26	0.01012
1199.83	0.01464
1211.41	0.01557
1222.98	0.00901
1234.56	0.0045
1246.13	0.00337
1257.7	0.00299
1269.28	0.00329
1280.85	0.00439
1292.42	0.0073
1304	0.00889
1315.57	0.00621
1327.15	0.00409
1338.72	0.00424
1350.29	0.00695
1361.87	0.00801
1373.44	0.00591
1385.02	0.00865
1396.59	0.00712
1408.16	0.00491
1419.74	0.00513
1431.31	0.00687
1442.88	0.01087
1454.46	0.01504
1466.03	0.0171
1477.61	0.02492
1489.18	0.05363
1500.75	0.09128
1512.33	0.06862
1523.9	0.03778
1535.48	0.02105
1547.05	0.00942
1558.62	0.00525
1570.2	0.00375
1581.77	0.00311
1593.34	0.00263
1604.92	0.00238
1616.49	0.00236
1628.07	0.00252
1639.64	0.0032
1651.21	0.00491
1662.79	0.00863
1674.36	0.01673
1685.93	0.03901
1697.51	0.08158
1709.08	0.08913
1720.66	0.04536
1732.23	0.01846
1743.8	0.00902
1755.38	0.0052
1766.95	0.00343
1778.53	0.00259
1790.1	0.00206
1801.67	0.00171
1813.25	0.0015
1824.82	0.00116
1836.39	0.0009037
1847.97	0.0007036
1859.54	0.0005464
1871.12	0.0004574
1882.69	0.0004282
1894.26	0.0004164
1905.84	0.0003425
1917.41	0.0003304
1928.99	0.0003059
1940.56	0.0003784
1952.13	0.0003466
1963.71	0.0003118
1975.28	0.0002651
1986.85	0.0002549
1998.43	0.0002152
2010	0.0001778
2021.58	0.0001535
2033.15	0.0001517
2044.72	0.0001754
2056.3	0.0001561
2067.87	0.0001446
2079.44	0.0001637
2091.02	0.0001674
2102.59	0.000177
2114.17	0.0001309
2125.74	0.000126
2137.31	0.000124
2148.89	0.0001772
2160.46	0.000177
2172.04	0.0001709
2183.61	0.0002102
2195.18	0.0001588
2206.76	0.0001902
2218.33	0.0001313
2229.9	0.0001342
2241.48	8.999e-05
2253.05	0.0001438
2264.63	0.0001233
2276.2	0.0001356
2287.77	0.0002033
2299.35	0.0001669
2310.92	0.000134
2322.5	0.0001333
2334.07	9.959e-05
2345.64	0.0001868
2357.22	0.0001163
2368.79	0.0001391
2380.36	0.0001124
2391.94	0.0002145
2403.51	0.0002563
2415.09	0.0003097
2426.66	0.0002833
2438.23	0.0001974
2449.81	0.0002248
2461.38	0.0002473
2472.96	0.0002137
2484.53	8.903e-05
2496.1	0.0001211
2507.68	0.0001637
2519.25	0.0001375
2530.82	0.0002022
2542.4	0.0001451
2553.97	0.0002341
2565.55	0.0002491
2577.12	0.0003265
2588.69	0.0003235
2600.27	0.0004238
2611.84	0.0003577
2623.41	0.0003733
2634.99	0.0003382
2646.56	0.0003579
2658.14	0.0002842
2669.71	0.0002626
2681.28	0.0003584
2692.86	0.0005134
2704.43	0.0004761
2716.01	0.0005897
2727.58	0.0006308
2739.15	0.0007273
2750.73	0.0007558
2762.3	0.0007559
2773.87	0.000751
2785.45	0.0007122
2797.02	0.0007698
2808.6	0.0009403
2820.17	0.00112
2831.74	0.00128
2843.32	0.00148
2854.89	0.00195
2866.47	0.00293
2878.04	0.00514
2889.61	0.0073
2901.19	0.00717
2912.76	0.00742
2924.33	0.00866
2935.91	0.01126
2947.48	0.01283
2959.06	0.01135
2970.63	0.01324
2982.2	0.0185
2993.78	0.01338
3005.35	0.00653
3016.92	0.00342
3028.5	0.00203
3040.07	0.00139
3051.65	0.00106
3063.22	0.0008408
3074.79	0.0007722
3086.37	0.0006547
3097.94	0.0006548
3109.52	0.0005804
3121.09	0.0006227
3132.66	0.0005777
3144.24	0.0005132
3155.81	0.0004788
3167.38	0.0004944
3178.96	0.0003727
3190.53	0.0004074
3202.11	0.000277
3213.68	0.0003889
3225.25	0.0003728
3236.83	0.0004588
3248.4	0.0005213
3259.98	0.0004531
3271.55	0.0005339
3283.12	0.0005717
3294.7	0.0006109
3306.27	0.000437
3317.84	0.0003877
3329.42	0.0003667
3340.99	0.0003851
3352.57	0.0006532
3364.14	0.00106
3375.71	0.00187
3387.29	0.00406
3398.86	0.01028
3410.43	0.0207
3422.01	0.02046
3433.58	0.00925
3445.16	0.0033
3456.73	0.00143
3468.3	0.0008768
3479.88	0.0005752
3491.45	0.0004488
3503.03	0.0003435
3514.6	0.0003754
3526.17	0.0002835
3537.75	0.0003477
3549.32	0.0002174
3560.89	0.000218
3572.47	0.0002705
3584.04	0.0002526
3595.62	0.0001652
3607.19	8.394e-05
3618.76	0.0001376
3630.34	0.0001948
3641.91	0.0001491
3653.49	7.086e-05
3665.06	0.0001203
3676.63	0.0001666
3688.21	3.74e-05
3699.78	0.0001584
3711.35	2.592e-05
3722.93	0.0002259
3734.5	0.0002099
3746.08	0.0001783
3757.65	0.0003374
3769.22	5.979e-05
3780.8	7.191e-05
3792.37	0.0001371
3803.94	0.000187
3815.52	0.0002796
3827.09	0.0001077
3838.67	0.0001808
3850.24	0.0001601
3861.81	0.0001661
3873.39	5.637e-05
3884.96	0.0001071
3896.54	0.0001755
3908.11	1.231e-05
3919.68	6.358e-05
3931.26	0.0001114
3942.83	0.000136
3954.4	2.218e-05
3965.98	0.000131
3977.55	0.0001434
3989.13	0.0002701
4000.7	0.0002425
