Infrared Spectrum: 2-methylbenzimidazole
Formula: C 8 H 8 N 2
CAS: 615-15-6
State: gas
Origin: EPA-IR VAPOR PHASE LIBRARY
1/CM	ABSORBANCE
549.8	0.00034429
559.445	0.0009291
569.09	0.0004748
578.734	0.0009161
588.379	0.0005152
598.024	0.0002808
607.669	0.0004215
617.313	0.000297306
626.958	0.00034933
636.603	0.0004186
646.248	0.000888
655.893	0.0010637
665.537	0.0010116
675.182	0.0010015
684.827	0.00035061
694.472	0.00032309
704.116	0.0006238
713.761	0.001848
723.406	0.004688
733.051	0.007518
742.695	0.006918
752.34	0.005048
761.985	0.002198
771.63	0.0011681
781.275	0.00061
790.919	0.00039103
800.564	0.0004806
810.209	0.000666
819.854	0.001318
829.498	0.001478
839.143	0.0012918
848.788	0.002048
858.433	0.003468
868.078	0.003938
877.722	0.003158
887.367	0.002008
897.012	0.001628
906.657	0.001408
916.301	0.0009897
925.946	0.0005933
935.591	0.0005046
945.236	0.0004406
954.88	0.0004459
964.525	0.0005885
974.17	0.0008053
983.815	0.0006494
993.46	0.0009834
1003.1	0.0009998
1012.75	0.001558
1022.39	0.0012317
1032.04	0.0006619
1041.68	0.0006234
1051.33	0.0004963
1060.97	0.00038175
1070.62	0.000623
1080.26	0.0005139
1089.91	0.0004408
1099.55	0.0002146
1109.2	0.00038185
1118.84	0.0005744
1128.49	0.000459
1138.13	0.000535
1147.78	0.0006347
1157.42	0.0004207
1167.07	0.0005539
1176.71	0.0008789
1186.36	0.0012188
1196	0.0009087
1205.64	0.0010444
1215.29	0.0009987
1224.93	0.0012727
1234.58	0.001388
1244.22	0.001708
1253.87	0.005568
1263.51	0.009448
1273.16	0.007568
1282.8	0.0012275
1292.45	0.0009525
1302.09	0.0010039
1311.74	0.0011495
1321.38	0.001458
1331.03	0.001968
1340.67	0.002578
1350.32	0.002838
1359.96	0.002908
1369.61	0.002988
1379.25	0.004388
1388.9	0.007028
1398.54	0.008358
1408.18	0.007158
1417.83	0.004348
1427.47	0.002548
1437.12	0.003898
1446.76	0.007118
1456.41	0.006338
1466.05	0.002588
1475.7	0.0012936
1485.34	0.0010322
1494.99	0.0008885
1504.63	0.000849
1514.28	0.00108
1523.92	0.001598
1533.57	0.003338
1543.21	0.006458
1552.86	0.006738
1562.5	0.003738
1572.15	0.001948
1581.79	0.001378
1591.44	0.0009926
1601.08	0.0009741
1610.73	0.0012438
1620.37	0.001718
1630.01	0.001498
1639.66	0.0008787
1649.3	0.0008695
1658.95	0.0008282
1668.59	0.0007322
1678.24	0.0006389
1687.88	0.0006008
1697.53	0.0005496
1707.17	0.0005458
1716.82	0.0005406
1726.46	0.0004933
1736.11	0.000494
1745.75	0.0005535
1755.4	0.000658
1765.04	0.0006692
1774.69	0.0005052
1784.33	0.00039041
1793.98	0.0005323
1803.62	0.0005166
1813.27	0.00039018
1822.91	0.00038662
1832.55	0.0004392
1842.2	0.0004587
1851.84	0.0005197
1861.49	0.0004665
1871.13	0.0006251
1880.78	0.00061
1890.42	0.0005111
1900.07	0.0004276
1909.71	0.000513
1919.36	0.0006343
1929	0.0004799
1938.65	0.00032957
1948.29	0.00033011
1957.94	0.00033345
1967.58	0.00035034
1977.23	0.0003513
1986.87	0.00031831
1996.52	0.00033967
2006.16	0.0002836
2015.81	0.00039568
2025.45	0.00037367
2035.1	0.00037523
2044.74	0.00035765
2054.38	0.0003194
2064.03	0.00035968
2073.67	0.00037943
2083.32	0.00032266
2092.96	0.000303164
2102.61	0.00030922
2112.25	0.00035883
2121.9	0.00038123
2131.54	0.00031267
2141.19	0.00031847
2150.83	0.00035692
2160.48	0.00033261
2170.12	0.00031105
2179.77	0.00029491
2189.41	0.00033023
2199.06	0.0002751
2208.7	0.00038366
2218.35	0.0002798
2227.99	0.00034061
2237.64	0.00029042
2247.28	0.0002428
2256.92	0.000305985
2266.57	0.0002714
2276.21	0.0004256
2285.86	0.00037356
2295.5	0.00036354
2305.15	0.0002489
2314.79	0.00036166
2324.44	0.00034353
2334.08	0.00033204
2343.73	0.00034136
2353.37	0.00038257
2363.02	0.0004027
2372.66	0.0004428
2382.31	0.00036656
2391.95	0.000419
2401.6	0.00039412
2411.24	0.0003626
2420.89	0.0004489
2430.53	0.000299993
2440.18	0.00035935
2449.82	0.0004581
2459.47	0.00039341
2469.11	0.00037291
2478.75	0.0004182
2488.4	0.0004078
2498.04	0.00037588
2507.69	0.0004266
2517.33	0.00034959
2526.98	0.0004981
2536.62	0.0004277
2546.27	0.0004852
2555.91	0.0005146
2565.56	0.0004374
2575.2	0.0004457
2584.85	0.0004764
2594.49	0.0005185
2604.14	0.0004658
2613.78	0.0004122
2623.43	0.00035631
2633.07	0.000248
2642.72	0.00037747
2652.36	0.0004107
2662.01	0.0004316
2671.65	0.00036838
2681.29	0.00031449
2690.94	0.00035398
2700.58	0.00039374
2710.23	0.00033683
2719.87	0.0002423
2729.52	0.0004331
2739.16	0.0004104
2748.81	0.0004
2758.45	0.00034423
2768.1	0.0003767
2777.74	0.00032697
2787.39	0.0004886
2797.03	0.0004281
2806.68	0.0004596
2816.32	0.00032301
2825.97	0.0004328
2835.61	0.0004984
2845.26	0.0005344
2854.9	0.0004682
2864.55	0.0007198
2874.19	0.0008894
2883.84	0.0009565
2893.48	0.0008399
2903.12	0.0009835
2912.77	0.001267
2922.41	0.001518
2932.06	0.002078
2941.7	0.002208
2951.35	0.001828
2960.99	0.001368
2970.64	0.0010621
2980.28	0.0008699
2989.93	0.0007191
2999.57	0.0006939
3009.22	0.0007353
3018.86	0.0009862
3028.51	0.0012333
3038.15	0.001908
3047.8	0.002558
3057.44	0.003318
3067.09	0.004458
3076.73	0.003958
3086.38	0.002558
3096.02	0.001688
3105.67	0.0010506
3115.31	0.0004192
3124.95	0.00031717
3134.6	0.000412
3144.24	0.00034695
3153.89	0.0002931
3163.53	0.00035203
3173.18	0.00038064
3182.82	0.00037695
3192.47	0.00032605
3202.11	0.00032546
3211.76	0.00029154
3221.4	0.0002656
3231.05	0.000183
3240.69	0.00026
3250.34	0.00035748
3259.98	0.00033161
3269.63	0.0002285
3279.27	0.0002816
3288.92	0.000307478
3298.56	0.00039199
3308.21	0.00030613
3317.85	0.000298056
3327.49	0.0002855
3337.14	0.00034091
3346.78	0.00033527
3356.43	0.0002577
3366.07	0.00035888
3375.72	0.0003997
3385.36	0.0002631
3395.01	0.0002737
3404.65	0.0002138
3414.3	0.00035212
3423.94	0.0005225
3433.59	0.0005674
3443.23	0.0004882
3452.88	0.0006911
3462.52	0.0007876
3472.17	0.001438
3481.81	0.002248
3491.46	0.003608
3501.1	0.005218
3510.75	0.004428
3520.39	0.002368
3530.04	0.0010915
3539.68	0.0004841
3549.32	0.0004255
3558.97	0.00031609
3568.61	0.0002194
3578.26	0.0002313
3587.9	0.000469
3597.55	0.00033743
3607.19	0.0004344
3616.84	0.0004581
3626.48	0.00036455
3636.13	0.00032263
3645.77	0.0002564
3655.42	0.0002781
3665.06	0.00032007
3674.71	0.0005429
3684.35	0.00036273
3694	0.000167
3703.64	0.0003723
3713.29	0.0004491
3722.93	0.0002449
3732.58	0.0004087
3742.22	0.00034042
3751.86	0.0003155
3761.51	0.0002717
3771.15	0.00032656
3780.8	0.0003986
3790.44	0.00038864
3800.09	0.0002111
3809.73	0.0002267
3819.38	0.00037301
3829.02	0.00038229
3838.67	0.000519
3848.31	0.000232
3857.96	0.000467
3867.6	0.0005109
3877.25	0.000401
3886.89	0.0002513
3896.54	0.000412
3906.18	0.00036143
3915.83	0.0004535
3925.47	0.00039531
3935.12	0.0004579
3944.76	0.000412
3954.41	0.00032951
3964.05	0.0002746
3973.69	0.0004109
3983.34	0.0004575
3992.98	0.0004929
