Infrared Spectrum: 4,4'-Diphenyl-2,2'-bipyridine
Formula: C 22 H 16 N 2
CAS: 6153-92-0
State: gas
Origin: EPA-IR VAPOR PHASE LIBRARY
1/CM	ABSORBANCE
501.5	0.00020583
513.074	0.0003953
524.648	0.00024453
536.222	0.0002791
547.796	0.00025039
559.37	0.0001355
570.944	0.0001348
582.518	0.00024058
594.092	0.0003009
605.666	0.0004379
617.24	0.002709
628.814	0.0004365
640.388	0.0002643
651.962	0.0002878
663.536	0.0005269
675.11	0.0010129
686.684	0.001289
698.258	0.001949
709.832	0.0008477
721.406	0.0005913
732.98	0.000707
744.554	0.0010087
756.128	0.002859
767.702	0.001669
779.276	0.000537
790.85	0.0003604
802.423	0.00022996
813.997	0.0002417
825.571	0.0004678
837.145	0.001289
848.719	0.0004986
860.293	0.00025518
871.867	0.00025136
883.441	0.00028
895.015	0.0005135
906.589	0.0004879
918.163	0.0002624
929.737	0.00020885
941.311	0.00015088
952.885	0.0002174
964.459	0.0002791
976.033	0.00020784
987.607	0.0003592
999.181	0.0003408
1010.76	0.0002605
1022.33	0.00033
1033.9	0.0002368
1045.48	0.0006129
1057.05	0.0002999
1068.63	0.0005271
1080.2	0.0004531
1091.77	0.0003686
1103.35	0.0004664
1114.92	0.0002626
1126.49	0.00019624
1138.07	0.00017736
1149.64	0.0001219
1161.22	0.00015777
1172.79	0.0001254
1184.36	0.0004168
1195.94	0.00023999
1207.51	0.00020393
1219.09	0.0002936
1230.66	0.0003476
1242.23	0.0003564
1253.81	0.0002833
1265.38	0.0004383
1276.96	0.0003577
1288.53	0.0003672
1300.1	0.0003843
1311.68	0.0003749
1323.25	0.000375
1334.83	0.0004184
1346.4	0.0005099
1357.97	0.001689
1369.55	0.0011559
1381.12	0.0004755
1392.7	0.0003208
1404.27	0.0002819
1415.84	0.0003345
1427.42	0.0004194
1438.99	0.0006593
1450.57	0.001649
1462.14	0.001919
1473.71	0.0005185
1485.29	0.0006447
1496.86	0.0011571
1508.44	0.0006567
1520.01	0.0006522
1531.58	0.001389
1543.16	0.002369
1554.73	0.001399
1566.31	0.001739
1577.88	0.004049
1589.45	0.007469
1601.03	0.002549
1612.6	0.001259
1624.18	0.0005848
1635.75	0.0004042
1647.32	0.0003186
1658.9	0.0003079
1670.47	0.0003394
1682.05	0.000316
1693.62	0.00024592
1705.19	0.00021696
1716.77	0.00024119
1728.34	0.0002726
1739.92	0.000299
1751.49	0.0002835
1763.06	0.0002826
1774.64	0.00025529
1786.21	0.0002883
1797.79	0.0004014
1809.36	0.0002921
1820.93	0.0002698
1832.51	0.00025243
1844.08	0.00021524
1855.66	0.00024692
1867.23	0.00023662
1878.8	0.0002881
1890.38	0.0002965
1901.95	0.0002742
1913.53	0.0003062
1925.1	0.0003229
1936.67	0.0003128
1948.25	0.0003052
1959.82	0.0003199
1971.4	0.00022823
1982.97	0.00019196
1994.54	0.00018956
2006.12	0.0001847
2017.69	0.0001869
2029.27	0.00018128
2040.84	0.00017577
2052.41	0.00021657
2063.99	0.00018852
2075.56	0.00018689
2087.14	0.00019129
2098.71	0.00017565
2110.28	0.00016764
2121.86	0.00017087
2133.43	0.00018075
2145.01	0.00015422
2156.58	0.000166225
2168.15	0.00019283
2179.73	0.00019581
2191.3	0.00020569
2202.88	0.000165063
2214.45	0.00017465
2226.02	0.00018673
2237.6	0.00017419
2249.17	0.00018365
2260.74	0.00018039
2272.32	0.00017596
2283.89	0.00017255
2295.47	0.00017105
2307.04	0.00016922
2318.61	0.0001935
2330.19	0.0001263
2341.76	0.0001411
2353.34	0.00015595
2364.91	0.0001303
2376.48	0.000158833
2388.06	0.00016118
2399.63	0.00020331
2411.21	0.00017563
2422.78	0.00016203
2434.35	0.0001923
2445.93	0.00019416
2457.5	0.00019072
2469.08	0.00016921
2480.65	0.00015503
2492.22	0.0001402
2503.8	0.00017195
2515.37	0.000168268
2526.95	0.00016754
2538.52	0.00015542
2550.09	0.0001463
2561.67	0.0001485
2573.24	0.000160906
2584.82	0.000159857
2596.39	0.00017142
2607.96	0.000158919
2619.54	0.00016784
2631.11	0.00018717
2642.69	0.00019608
2654.26	0.00015346
2665.83	0.00015287
2677.41	0.00016074
2688.98	0.000148
2700.56	0.000160161
2712.13	0.000159535
2723.7	0.00015126
2735.28	0.00015224
2746.85	0.000172
2758.43	0.00016981
2770	0.00015566
2781.57	0.0001467
2793.15	0.00015623
2804.72	0.000175
2816.3	0.00019502
2827.87	0.00015686
2839.44	0.00015244
2851.02	0.00015263
2862.59	0.00018537
2874.17	0.00018132
2885.74	0.0001707
2897.31	0.0002012
2908.89	0.00019058
2920.46	0.00021558
2932.04	0.000285
2943.61	0.00022543
2955.18	0.00024446
2966.76	0.00020702
2978.33	0.00024667
2989.91	0.0002816
3001.48	0.00037
3013.05	0.0006062
3024.63	0.0010862
3036.2	0.001349
3047.78	0.001169
3059.35	0.001839
3070.92	0.002469
3082.5	0.001219
3094.07	0.0009414
3105.65	0.0005364
3117.22	0.0003311
3128.79	0.00020075
3140.37	0.0002137
3151.94	0.00020644
3163.52	0.00024152
3175.09	0.0001457
3186.66	0.0001306
3198.24	0.0001485
3209.81	0.0001299
3221.39	0.00017483
3232.96	0.00014909
3244.53	0.00017287
3256.11	0.0001162
3267.68	0.000165747
3279.26	0.0001485
3290.83	0.00015192
3302.4	0.0001333
3313.98	0.000168614
3325.55	8.33e-05
3337.13	0.0001265
3348.7	0.0001428
3360.27	0.00015022
3371.85	0.0001378
3383.42	0.0001458
3395	0.00017192
3406.57	0.0001136
3418.14	0.0001055
3429.72	0.00015112
3441.29	8.42e-05
3452.86	0.0001282
3464.44	0.0001215
3476.01	0.000129
3487.59	0.0001246
3499.16	9.38e-05
3510.73	0.0001336
3522.31	0.0001151
3533.88	8.99e-05
3545.46	0.0001877
3557.03	9.42e-05
3568.6	0.0001219
3580.18	0.0001353
3591.75	0.0001465
3603.33	0.0001049
3614.9	0.0001335
3626.47	0.00015082
3638.05	8.1e-05
3649.62	0.00017651
3661.2	0.00018936
3672.77	0.0001402
3684.34	0.0001391
3695.92	0.000138
3707.49	0.000160304
3719.07	0.00017963
3730.64	0.0001234
3742.21	4.1e-05
3753.79	5.2e-05
3765.36	9.92e-05
3776.94	8.82e-05
3788.51	0.0001059
3800.08	9.09e-05
3811.66	0.0001142
3823.23	0.000123
3834.81	7.96e-05
3846.38	0.000129
3857.95	8.46e-05
3869.53	0.0001102
3881.1	0.0001351
3892.68	0.0001074
3904.25	0.000101
3915.82	0.0001228
3927.4	0.0001224
3938.97	0.00018936
3950.55	0.000167598
3962.12	0.00017045
3973.69	0.00019927
3985.27	7.9e-05
3996.84	8.38e-05
