Infrared Spectrum: SACCHARIN - SODIUM SALT
Formula: C7 H4 N Na O3 S
CAS: 6155-57-3
State: SOLID (KBr PELLET)
Class: COBLENTZ
Instrument: Not specified, most likely a prism, grating, or hybrid spectrometer.
Sampling: TRANSMISSION
Resolution: 4
Origin: INFRACORD
MICROMETERS	TRANSMITTANCE
2.542	0.851
2.60068	0.867
2.65936	0.871
2.71805	0.869
2.77673	0.846
2.83541	0.637
2.89409	0.692
2.95277	0.627
3.01146	0.541
3.07014	0.53
3.12882	0.563
3.1875	0.67
3.24618	0.735
3.30487	0.719
3.36355	0.767
3.42223	0.807
3.48091	0.824
3.5396	0.841
3.59828	0.846
3.65696	0.846
3.71564	0.846
3.77432	0.851
3.83301	0.856
3.89169	0.857
3.95037	0.859
4.00905	0.861
4.06773	0.862
4.12642	0.864
4.1851	0.861
4.24378	0.867
4.30246	0.877
4.36114	0.879
4.41983	0.866
4.47851	0.861
4.53719	0.851
4.59587	0.852
4.65455	0.861
4.71324	0.869
4.77192	0.874
4.8306	0.877
4.88928	0.882
4.94796	0.889
5.00665	0.891
5.06533	0.892
5.12401	0.887
5.18269	0.872
5.24138	0.864
5.30006	0.874
5.35874	0.881
5.41742	0.881
5.4761	0.874
5.53479	0.869
5.59347	0.874
5.65215	0.872
5.71083	0.864
5.76951	0.844
5.8282	0.811
5.88688	0.782
5.94556	0.705
6.00424	0.545
6.06292	0.401
6.12161	0.257
6.18029	0.138
6.23897	0.424
6.29765	0.697
6.35633	0.493
6.41502	0.494
6.4737	0.782
6.53238	0.814
6.59106	0.847
6.64974	0.867
6.70843	0.869
6.76711	0.871
6.82579	0.871
6.88447	0.777
6.94316	0.67
7.00184	0.829
7.06052	0.874
7.1192	0.876
7.17788	0.864
7.23657	0.861
7.29525	0.847
7.35393	0.821
7.41261	0.754
7.47129	0.655
7.52998	0.573
7.58866	0.505
7.64734	0.68
7.70602	0.682
7.7647	0.501
7.82339	0.357
7.88207	0.434
7.94075	0.359
7.99943	0.18
8.05811	0.108
8.1168	0.294
8.17548	0.459
8.23416	0.623
8.29284	0.682
8.35152	0.737
8.41021	0.782
8.46889	0.782
8.52757	0.715
8.58625	0.558
8.64494	0.354
8.70362	0.219
8.7623	0.091
8.82098	0.093
8.87966	0.301
8.93835	0.433
8.99703	0.242
9.05571	0.297
9.11439	0.456
9.17307	0.525
9.23176	0.585
9.29044	0.643
9.34912	0.682
9.4078	0.709
9.46648	0.737
9.52517	0.698
9.58385	0.479
9.64253	0.648
9.70121	0.717
9.75989	0.764
9.81858	0.774
9.87726	0.759
9.93594	0.772
9.99462	0.779
10.0533	0.779
10.112	0.775
10.1707	0.779
10.2294	0.628
10.288	0.459
10.3467	0.309
10.4054	0.399
10.4641	0.503
10.5228	0.489
10.5814	0.441
10.6401	0.586
10.6988	0.667
10.7575	0.709
10.8162	0.742
10.8749	0.757
10.9335	0.774
10.9922	0.784
11.0509	0.799
11.1096	0.807
11.1683	0.814
11.2269	0.822
11.2856	0.824
11.3443	0.824
11.403	0.799
11.4617	0.809
11.5204	0.827
11.579	0.837
11.6377	0.849
11.6964	0.852
11.7551	0.854
11.8138	0.861
11.8724	0.861
11.9311	0.864
11.9898	0.864
12.0485	0.864
12.1072	0.864
12.1659	0.864
12.2245	0.864
12.2832	0.864
12.3419	0.861
12.4006	0.856
12.4593	0.842
12.518	0.816
12.5766	0.812
12.6353	0.785
12.694	0.702
12.7527	0.744
12.8114	0.722
12.87	0.603
12.9287	0.461
12.9874	0.453
13.0461	0.633
13.1048	0.682
13.1635	0.682
13.2221	0.595
13.2808	0.419
13.3395	0.351
13.3982	0.272
13.4569	0.347
13.5155	0.533
13.5742	0.615
13.6329	0.645
13.6916	0.648
13.7503	0.642
13.809	0.633
13.8676	0.63
13.9263	0.628
13.985	0.628
14.0437	0.613
14.1024	0.578
14.161	0.553
14.2197	0.513
14.2784	0.528
14.3371	0.595
14.3958	0.638
14.4545	0.655
14.5131	0.667
14.5718	0.675
14.6305	0.677
14.6892	0.653
14.7479	0.566
14.8066	0.414
14.8652	0.274
14.9239	0.341
14.9826	0.466
15.0413	0.668
15.1	0.75
15.1586	0.769
15.2173	0.77
15.276	0.78
15.3347	0.784
15.3934	0.792
15.4521	0.794
15.5107	0.79
15.5694	0.767
15.6281	0.695
15.6868	0.618
15.7455	0.612
15.8041	0.635
15.8628	0.663
15.9215	0.682
15.9802	0.652
16.0389	0.591
16.0976	0.53
16.1562	0.478
16.2149	0.416
16.2736	0.374
16.3323	0.364
16.391	0.404
16.4497	0.466
16.5083	0.526
16.567	0.561
16.6257	0.603
16.6844	0.605
16.7431	0.607
16.8017	0.612
16.8604	0.613
16.9191	0.605
16.9778	0.593
17.0365	0.593
17.0952	0.591
17.1538	0.588
17.2125	0.586
17.2712	0.59
17.3299	0.593
17.3886	0.593
17.4472	0.598
17.5059	0.6
17.5646	0.598
17.6233	0.596
17.682	0.595
17.7407	0.59
17.7993	0.59
17.858	0.588
17.9167	0.585
17.9754	0.578
18.0341	0.565
18.0927	0.528
18.1514	0.483
18.2101	0.426
18.2688	0.389
18.3275	0.369
18.3862	0.386
18.4448	0.429
18.5035	0.464
18.5622	0.446
18.6209	0.416
18.6796	0.369
18.7383	0.334
18.7969	0.322
18.8556	0.331
18.9143	0.366
18.973	0.416
19.0317	0.459
19.0903	0.5
19.149	0.531
19.2077	0.556
19.2664	0.576
19.3251	0.58
19.3838	0.583
19.4424	0.585
19.5011	0.586
19.5598	0.59
19.6185	0.586
19.6772	0.588
19.7358	0.596
19.7945	0.598
19.8532	0.605
19.9119	0.615
19.9706	0.618
20.0293	0.627
20.0879	0.628
20.1466	0.633
20.2053	0.638
20.264	0.642
20.3227	0.655
20.3813	0.665
20.44	0.668
20.4987	0.688
20.5574	0.692
20.6161	0.693
20.6748	0.7
20.7334	0.695
20.7921	0.704
20.8508	0.717
20.9095	0.709
20.9682	0.715
21.0269	0.727
21.0855	0.717
21.1442	0.73
21.2029	0.737
21.2616	0.739
21.3203	0.739
21.3789	0.739
21.4376	0.735
21.4963	0.737
21.555	0.739
21.6137	0.739
21.6724	0.745
21.731	0.752
21.7897	0.754
21.8484	0.755
21.9071	0.759
21.9658	0.765
22.0244	0.765
22.0831	0.775
22.1418	0.774
22.2005	0.775
22.2592	0.78
22.3179	0.784
22.3765	0.784
22.4352	0.79
22.4939	0.799
22.5526	0.807
22.6113	0.804
22.6699	0.804
22.7286	0.801
22.7873	0.802
22.846	0.812
22.9047	0.812
22.9634	0.819
23.022	0.824
23.0807	0.826
23.1394	0.829
23.1981	0.829
23.2568	0.834
23.3155	0.837
23.3741	0.837
23.4328	0.837
23.4915	0.836
23.5502	0.837
23.6089	0.839
23.6675	0.839
23.7262	0.834
23.7849	0.827
23.8436	0.819
23.9023	0.814
23.961	0.795
24.0196	0.795
24.0783	0.779
24.137	0.772
24.1957	0.764
24.2544	0.747
24.313	0.724
24.3717	0.697
24.4304	0.67
24.4891	0.652
24.5478	0.637
24.6065	0.617
24.6651	0.596
24.7238	0.586
24.7825	0.565
24.8412	0.545
24.8999	0.531
24.9586	0.523
