Infrared Spectrum: 1,2-PROPANEDIONE, 1-(p-NITROPHENYL)-
Formula: C9 H7 N O4
CAS: 6159-25-7
State: SOLID (SPLIT MULL)
Class: COBLENTZ III
Instrument: BECKMAN IR-9 (GRATING)
Instrument parameters: ORDER CHANGES: 670, 1200, 2000 CM^-^1
Sampling: TRANSMISSION
Resolution: 2
Origin: DOW CHEMICAL COMPANY
1/CM	TRANSMITTANCE
398	0.4987
407	0.4602
416	0.4833
425	0.5653
434	0.6292
443	0.6646
452	0.6657
461	0.6278
470	0.7022
479	0.7146
488	0.7164
497	0.7601
506	0.7645
515	0.7615
524	0.7342
533	0.7399
542	0.7592
551	0.7607
560	0.7544
569	0.7065
578	0.4936
587	0.3889
596	0.7235
605	0.7643
614	0.7918
623	0.766
632	0.7853
641	0.7991
650	0.7987
659	0.7958
668	0.7601
677	0.793
686	0.7898
695	0.7404
704	0.3398
713	0.5612
722	0.5382
731	0.7147
740	0.7378
749	0.7515
758	0.7151
767	0.7531
776	0.763
785	0.7644
794	0.7633
803	0.7601
812	0.753
821	0.7364
830	0.6894
839	0.6178
848	0.215
857	0.5842
866	0.6256
875	0.7207
884	0.7099
893	0.6185
902	0.4334
911	0.6817
920	0.7505
929	0.7537
938	0.7501
947	0.7447
956	0.7367
965	0.7161
974	0.7139
983	0.7081
992	0.6774
1001	0.5665
1010	0.6999
1019	0.7041
1028	0.7344
1037	0.7299
1046	0.725
1055	0.7197
1064	0.7137
1073	0.7075
1082	0.7018
1091	0.6978
1100	0.6786
1109	0.6571
1118	0.6658
1127	0.656
1136	0.6247
1145	0.5807
1154	0.4517
1163	0.3143
1172	0.4341
1181	0.6783
1190	0.7095
1199	0.7195
1208	0.7065
1217	0.7021
1226	0.6935
1235	0.6801
1244	0.6615
1253	0.6421
1262	0.6181
1271	0.5659
1280	0.4683
1289	0.3466
1298	0.4052
1307	0.5015
1316	0.452
1325	0.495
1334	0.4506
1343	0.3309
1352	0.2004
1361	0.35
1370	0.6889
1379	0.6808
1388	0.6965
1397	0.7361
1406	0.6383
1415	0.6932
1424	0.7225
1433	0.7436
1442	0.7501
1451	0.7408
1460	0.7271
1469	0.7046
1478	0.6678
1487	0.616
1496	0.5526
1505	0.4128
1514	0.1314
1523	0.021
1532	0.4929
1541	0.7262
1550	0.7968
1559	0.8145
1568	0.8184
1577	0.7831
1586	0.7281
1595	0.4529
1604	0.6656
1613	0.8075
1622	0.8008
1631	0.7908
1640	0.7688
1649	0.7275
1658	0.7054
1667	0.6424
1676	0.4464
1685	0.1542
1694	0.1752
1703	0.6243
1712	0.2409
1721	0.7232
1730	0.8666
1739	0.8886
1748	0.8806
1757	0.8697
1766	0.8678
1775	0.8652
1784	0.857
1793	0.8486
1802	0.833
1811	0.8151
1820	0.8242
1829	0.8375
1838	0.8345
1847	0.8334
1856	0.8303
1865	0.8248
1874	0.8206
1883	0.8169
1892	0.8155
1901	0.8142
1910	0.8112
1919	0.8068
1928	0.8007
1937	0.7836
1946	0.7639
1955	0.7893
1964	0.793
1973	0.7905
1982	0.7878
1991	0.7811
2000	0.7739
2009	0.7707
2018	0.7678
2027	0.7644
2036	0.761
2045	0.7578
2054	0.7546
2063	0.7511
2072	0.7478
2081	0.7445
2090	0.7412
2099	0.7378
2108	0.7342
2117	0.7304
2126	0.7267
2135	0.7226
2144	0.7188
2153	0.7148
2162	0.7108
2171	0.7069
2180	0.7031
2189	0.6992
2198	0.6953
2207	0.6912
2216	0.6875
2225	0.6834
2234	0.6793
2243	0.6761
2252	0.673
2261	0.6697
2270	0.6651
2279	0.6601
2288	0.654
2297	0.6489
2306	0.6468
2315	0.6451
2324	0.6434
2333	0.6417
2342	0.6404
2351	0.6396
2360	0.6386
2369	0.6372
2378	0.6375
2387	0.6382
2396	0.6378
2405	0.636
2414	0.6341
2423	0.6315
2432	0.6285
2441	0.6255
2450	0.6227
2459	0.6212
2468	0.6217
2477	0.6227
2486	0.6227
2495	0.6214
2504	0.6197
2513	0.6181
2522	0.6164
2531	0.6147
2540	0.6129
2549	0.611
2558	0.6085
2567	0.6058
2576	0.6031
2585	0.6
2594	0.5969
2603	0.5939
2612	0.5918
2621	0.5905
2630	0.5893
2639	0.5874
2648	0.5854
2657	0.5829
2666	0.5801
2675	0.5773
2684	0.5747
2693	0.5721
2702	0.5696
2711	0.5681
2720	0.5666
2729	0.5646
2738	0.5623
2747	0.5597
2756	0.5566
2765	0.5536
2774	0.551
2783	0.5486
2792	0.5462
2801	0.544
2810	0.5418
2819	0.5395
2828	0.537
2837	0.5331
2846	0.5275
2855	0.5204
2864	0.5076
2873	0.5083
2882	0.5206
2891	0.5209
2900	0.5207
2909	0.5199
2918	0.516
2927	0.5104
2936	0.5065
2945	0.5066
2954	0.5066
2963	0.506
2972	0.5008
2981	0.4966
2990	0.4935
2999	0.4912
3008	0.4903
3017	0.4919
3026	0.4931
3035	0.4827
3044	0.4591
3053	0.4573
3062	0.4806
3071	0.459
3080	0.447
3089	0.4571
3098	0.4539
3107	0.4338
3116	0.4327
3125	0.4465
3134	0.4927
3143	0.4938
3152	0.4926
3161	0.4903
3170	0.4881
3179	0.4856
3188	0.4831
3197	0.4806
3206	0.478
3215	0.4755
3224	0.473
3233	0.471
3242	0.4691
3251	0.4672
3260	0.4653
3269	0.4635
3278	0.4617
3287	0.4599
3296	0.4581
3305	0.456
3314	0.4533
3323	0.4506
3332	0.448
3341	0.445
3350	0.441
3359	0.437
3368	0.4324
3377	0.4307
3386	0.4365
3395	0.4368
3404	0.4343
3413	0.4298
3422	0.4265
3431	0.4245
3440	0.4278
3449	0.4282
3458	0.4286
3467	0.4272
3476	0.4262
3485	0.4254
3494	0.4245
3503	0.4235
3512	0.4226
3521	0.4215
3530	0.4203
3539	0.4191
3548	0.4179
3557	0.4165
3566	0.4152
3575	0.4137
3584	0.4124
3593	0.411
3602	0.4097
3611	0.4084
3620	0.4071
3629	0.4059
3638	0.4049
3647	0.4037
3656	0.4025
3665	0.401
3674	0.3998
3683	0.3984
3692	0.3972
3701	0.3959
3710	0.3947
3719	0.3934
3728	0.3926
3737	0.3916
3746	0.3906
3755	0.3899
3764	0.3893
3773	0.388
3782	0.3868
3791	0.3852
3800	0.3834
3809	0.3812
