Infrared Spectrum: 4-NITRO-ANTHRANILIC ACID
Formula: C7 H6 N2 O4
CAS: 616-79-5
State: SOLID (1.0% IN KBr PELLET)
Class: COBLENTZ
Instrument: Not specified, most likely a prism, grating, or hybrid spectrometer.
Sampling: TRANSMISSION
Path length: 0.0355 CM THICK
Resolution: 4
Origin: ANDERSON PHYSICAL LABORATORY
1/CM	TRANSMITTANCE
668.329	0.781
676.745	0.7541
685.162	0.678
693.578	0.802
701.995	0.803
710.411	0.796
718.828	0.755
727.244	0.4352
735.661	0.5159
744.077	0.779
752.494	0.805
760.91	0.799
769.327	0.766
777.743	0.633
786.16	0.676
794.576	0.744
802.993	0.72
811.409	0.625
819.826	0.233
828.242	0.69
836.658	0.778
845.075	0.767
853.491	0.752
861.908	0.72
870.324	0.6091
878.741	0.555
887.157	0.537
895.574	0.606
903.99	0.648
912.407	0.676
920.823	0.726
929.24	0.761
937.656	0.764
946.073	0.754
954.489	0.766
962.906	0.824
971.322	0.829
979.738	0.829
988.155	0.824
996.571	0.82
1004.99	0.826
1013.4	0.826
1021.82	0.821
1030.24	0.814
1038.65	0.803
1047.07	0.776
1055.49	0.802
1063.9	0.812
1072.32	0.814
1080.74	0.811
1089.15	0.788
1097.57	0.754
1105.99	0.688
1114.4	0.687
1122.82	0.709
1131.24	0.732
1139.65	0.735
1148.07	0.723
1156.48	0.696
1164.9	0.736
1173.32	0.739
1181.73	0.729
1190.15	0.708
1198.57	0.679
1206.98	0.612
1215.4	0.552
1223.82	0.502
1232.23	0.404
1240.65	0.22
1249.07	0.073
1257.48	0.089
1265.9	0.1899
1274.32	0.4109
1282.73	0.567
1291.15	0.501
1299.56	0.594
1307.98	0.526
1316.4	0.252
1324.81	0.39
1333.23	0.434
1341.65	0.35
1350.06	0.2001
1358.48	0.145
1366.9	0.3349
1375.31	0.6489
1383.73	0.684
1392.15	0.672
1400.56	0.616
1408.98	0.57
1417.4	0.526
1425.81	0.371
1434.23	0.342
1442.64	0.5639
1451.06	0.625
1459.48	0.673
1467.89	0.676
1476.31	0.646
1484.73	0.501
1493.14	0.47
1501.56	0.494
1509.98	0.299
1518.39	0.1161
1526.81	0.0679
1535.23	0.1929
1543.64	0.4519
1552.06	0.467
1560.48	0.393
1568.89	0.229
1577.31	0.273
1585.72	0.428
1594.14	0.383
1602.56	0.5799
1610.97	0.618
1619.39	0.5531
1627.81	0.432
1636.22	0.447
1644.64	0.465
1653.06	0.411
1661.47	0.282
1669.89	0.094
1678.31	0.11
1686.72	0.179
1695.14	0.3439
1703.56	0.574
1711.97	0.669
1720.39	0.769
1728.8	0.8
1737.22	0.838
1745.64	0.853
1754.05	0.862
1762.47	0.862
1770.89	0.874
1779.3	0.889
1787.72	0.898
1796.14	0.908
1804.55	0.911
1812.97	0.913
1821.39	0.917
1829.8	0.92
1838.22	0.919
1846.64	0.92
1855.05	0.922
1863.47	0.922
1871.88	0.92
1880.3	0.916
1888.72	0.913
1897.13	0.905
1905.55	0.908
1913.97	0.913
1922.38	0.919
1930.8	0.917
1939.22	0.92
1947.63	0.917
1956.05	0.917
1964.47	0.917
1972.88	0.911
1981.3	0.913
1989.72	0.901
1998.13	0.901
2006.55	0.8953
2014.96	0.893
2023.38	0.892
2031.8	0.8955
2040.21	0.896
2048.63	0.896
2057.05	0.895
2065.46	0.89
2073.88	0.8875
2082.3	0.886
2090.71	0.884
2099.13	0.883
2107.55	0.881
2115.96	0.88
2124.38	0.8777
2132.8	0.8745
2141.21	0.874
2149.63	0.8739
2158.04	0.8705
2166.46	0.8664
2174.88	0.8605
2183.29	0.859
2191.71	0.857
2200.13	0.856
2208.54	0.8545
2216.96	0.854
2225.38	0.8537
2233.79	0.8519
2242.21	0.8484
2250.63	0.8389
2259.04	0.8327
2267.46	0.8309
2275.88	0.8266
2284.29	0.8199
2292.71	0.8141
2301.12	0.8094
2309.54	0.801
2317.96	0.796
2326.37	0.7931
2334.79	0.7875
2343.21	0.7826
2351.62	0.7748
2360.04	0.7688
2368.46	0.7635
2376.87	0.7578
2385.29	0.748
2393.71	0.7464
2402.12	0.7403
2410.54	0.7315
2418.96	0.7206
2427.37	0.7101
2435.79	0.6986
2444.2	0.6799
2452.62	0.6659
2461.04	0.66
2469.45	0.6523
2477.87	0.6439
2486.29	0.6356
2494.7	0.6237
2503.12	0.6138
2511.54	0.6026
2519.95	0.598
2528.37	0.598
2536.79	0.6
2545.2	0.6
2553.62	0.5938
2562.04	0.587
2570.45	0.5795
2578.87	0.573
2587.28	0.5698
2595.7	0.5647
2604.12	0.564
2612.53	0.5612
2620.95	0.5592
2629.37	0.565
2637.78	0.5722
2646.2	0.574
2654.62	0.5619
2663.03	0.5557
2671.45	0.5508
2679.87	0.5491
2688.28	0.5425
2696.7	0.537
2705.12	0.537
2713.53	0.5353
2721.95	0.5337
2730.36	0.5279
2738.78	0.5238
2747.2	0.5116
2755.61	0.5015
2764.03	0.4928
2772.45	0.4771
2780.86	0.4645
2789.28	0.4529
2797.7	0.4479
2806.11	0.4404
2814.53	0.4341
2822.95	0.4307
2831.36	0.4286
2839.78	0.4267
2848.2	0.426
2856.61	0.4247
2865.03	0.4226
2873.44	0.422
2881.86	0.422
2890.28	0.422
2898.69	0.4224
2907.11	0.423
2915.53	0.423
2923.94	0.4199
2932.36	0.4152
2940.78	0.4117
2949.19	0.4052
2957.61	0.404
2966.03	0.402
2974.44	0.401
2982.86	0.3981
2991.28	0.3958
2999.69	0.395
3008.11	0.3923
3016.52	0.392
3024.94	0.392
3033.36	0.392
3041.77	0.3943
3050.19	0.3978
3058.61	0.4012
3067.02	0.4104
3075.44	0.416
3083.86	0.4257
3092.27	0.4295
3100.69	0.443
3109.11	0.456
3117.52	0.4728
3125.94	0.4905
3134.36	0.5017
3142.77	0.5151
3151.19	0.5304
3159.6	0.5482
3168.02	0.5603
3176.44	0.5721
3184.85	0.5789
3193.27	0.5836
3201.69	0.5942
3210.1	0.6075
3218.52	0.6187
3226.94	0.6291
3235.35	0.6378
3243.77	0.6441
3252.19	0.645
3260.6	0.645
3269.02	0.645
3277.44	0.645
3285.85	0.6431
3294.27	0.64
3302.69	0.6352
3311.1	0.6234
3319.52	0.6073
3327.93	0.579
3336.35	0.5521
3344.77	0.5136
3353.18	0.4676
3361.6	0.3878
3370.02	0.3445
3378.43	0.3447
3386.85	0.3718
3395.27	0.502
3403.68	0.623
3412.1	0.624
3420.52	0.622
3428.93	0.6079
3437.35	0.5823
3445.77	0.539
3454.18	0.4776
3462.6	0.4223
3471.01	0.421
3479.43	0.4801
3487.85	0.5434
3496.26	0.6333
3504.68	0.7004
3513.1	0.7697
3521.51	0.7959
3529.93	0.8005
3538.35	0.807
3546.76	0.8113
3555.18	0.823
3563.6	0.8277
3572.01	0.8325
3580.43	0.8368
3588.85	0.842
3597.26	0.845
3605.68	0.847
3614.09	0.847
3622.51	0.845
3630.93	0.845
3639.34	0.845
3647.76	0.845
3656.18	0.845
3664.59	0.844
3673.01	0.842
3681.43	0.8397
3689.84	0.838
3698.26	0.8383
3706.68	0.839
3715.09	0.839
3723.51	0.838
3731.93	0.838
3740.34	0.839
3748.76	0.838
3757.17	0.8349
3765.59	0.833
3774.01	0.832
3782.42	0.83
3790.84	0.83
3799.26	0.83
3807.67	0.83
3816.09	0.829
3824.51	0.8269
3832.92	0.8221
3841.34	0.817
3849.76	0.815
3858.17	0.814
3866.59	0.8134
3875.01	0.811
3883.42	0.809
3891.84	0.808
3900.25	0.8074
3908.67	0.806
3917.09	0.805
3925.5	0.805
3933.92	0.805
3942.34	0.803
3950.75	0.803
3959.17	0.803
3967.59	0.8027
3976	0.8009
3984.42	0.799
