Infrared Spectrum: 1-Penten-2-ol
Formula: C 5 H 10 O
CAS: 616-25-1
State: gas
Instrument: HP-GC/MS/IRD
Origin: NIST Mass Spectrometry Data Center
1/CM	ABSORBANCE
550	0.001215
562	0.0005472
574	0.000756
586	0.000684
598	0.0006282
610	0.000513
622	0.0004086
634	0.000486
646	0.000603
658	0.0010656
670	0.001152
682	0.0011736
694	0.0008442
706	0.000486
718	0.0001998
730	2.7e-05
742	0.0001278
754	0.0001656
766	0.0002988
778	0.0003762
790	0.000342
802	0.0002232
814	0.0003492
826	0.0005796
838	0.0010116
850	0.001386
862	0.0016758
874	0.0017478
886	0.002025
898	0.0034956
910	0.0073242
922	0.0114588
934	0.0123318
946	0.0103608
958	0.0107712
970	0.013167
982	0.0149418
994	0.0142326
1006	0.011412
1018	0.0087804
1030	0.0068346
1042	0.0066348
1054	0.007047
1066	0.0068688
1078	0.0060192
1090	0.0055206
1102	0.0054468
1114	0.0054432
1126	0.005148
1138	0.004635
1150	0.0039348
1162	0.0029916
1174	0.0023958
1186	0.0024102
1198	0.0030186
1210	0.0039726
1222	0.0049194
1234	0.0050724
1246	0.0046926
1258	0.004068
1270	0.003789
1282	0.0037116
1294	0.0036342
1306	0.0035262
1318	0.0034866
1330	0.0036342
1342	0.003897
1354	0.0040338
1366	0.003996
1378	0.0039024
1390	0.0037278
1402	0.0037746
1414	0.0045
1426	0.0047268
1438	0.0042138
1450	0.0035514
1462	0.0032652
1474	0.0026262
1486	0.0016506
1498	0.0009198
1510	0.0006066
1522	0.0004194
1534	0.0003204
1546	0.0003204
1558	0.000297
1570	0.0003438
1582	0.0003654
1594	0.0004068
1606	0.0004194
1618	0.000576
1630	0.0009108
1642	0.001107
1654	0.001026
1666	0.000549
1678	0.0002664
1690	0.0001944
1702	0.0001998
1714	0.0001404
1726	6.84e-05
1738	8.64e-05
1750	1.26e-05
1762	0
1774	1.26e-05
1786	2.88e-05
1798	5.94e-05
1810	9.18e-05
1822	0.000153
1834	0.0005184
1846	0.0008298
1858	0.000801
1870	0.000468
1882	0.0001818
1894	8.82e-05
1906	9.18e-05
1918	0.0001008
1930	8.64e-05
1942	0.0001224
1954	0.0001242
1966	0.0001458
1978	0.0001044
1990	9.36e-05
2002	7.56e-05
2014	5.94e-05
2026	4.14e-05
2038	3.06e-05
2050	2.16e-05
2062	1.98e-05
2074	2.34e-05
2086	1.98e-05
2098	2.16e-05
2110	1.8e-05
2122	2.88e-05
2134	3.06e-05
2146	2.34e-05
2158	7.2e-06
2170	1.8e-05
2182	2.52e-05
2194	2.7e-05
2206	4.14e-05
2218	4.86e-05
2230	2.88e-05
2242	2.7e-05
2254	2.88e-05
2266	3.96e-05
2278	4.86e-05
2290	1.44e-05
2302	7.02e-05
2314	8.64e-05
2326	7.02e-05
2338	4.68e-05
2350	5.58e-05
2362	8.82e-05
2374	5.94e-05
2386	3.96e-05
2398	4.86e-05
2410	9e-05
2422	9.36e-05
2434	7.2e-05
2446	9e-05
2458	5.4e-05
2470	2.16e-05
2482	3.78e-05
2494	2.7e-05
2506	1.98e-05
2518	9e-06
2530	5.58e-05
2542	7.92e-05
2554	0.000108
2566	0.0001098
2578	9.9e-05
2590	0.000189
2602	0.0001782
2614	0.0001548
2626	0.0001242
2638	0.0001278
2650	0.0001692
2662	0.0002106
2674	0.0002574
2686	0.0002556
2698	0.0002628
2710	0.000279
2722	0.0003348
2734	0.0004338
2746	0.0004896
2758	0.0005958
2770	0.0005058
2782	0.0006048
2794	0.0006984
2806	0.0008622
2818	0.0012834
2830	0.0021726
2842	0.0038124
2854	0.0062118
2866	0.0085032
2878	0.010395
2890	0.0103122
2902	0.0093654
2914	0.0095256
2926	0.0126234
2938	0.0152514
2950	0.0153846
2962	0.0160668
2974	0.0177624
2986	0.0148932
2998	0.0092502
3010	0.0055656
3022	0.0037188
3034	0.0027486
3046	0.0021348
3058	0.0023058
3070	0.0032364
3082	0.0045342
3094	0.004329
3106	0.0029358
3118	0.0011556
3130	0.0005958
3142	0.0004356
3154	0.0003546
3166	0.0003366
3178	0.0002952
3190	0.0002484
3202	0.0001998
3214	0.0001674
3226	0.0001278
3238	3.6e-06
3250	4.86e-05
3262	4.32e-05
3274	5.4e-05
3286	7.2e-05
3298	7.2e-05
3310	9.36e-05
3322	3.06e-05
3334	0.0001008
3346	6.12e-05
3358	0.0001224
3370	0.0001728
3382	0.000198
3394	0.0001476
3406	0.0002322
3418	0.0002142
3430	0.0002376
3442	0.0002052
3454	0.000216
3466	0.0002322
3478	0.0001764
3490	0.0001836
3502	0.0002088
3514	0.0001854
3526	0.0001854
3538	0.000216
3550	0.0002196
3562	0.0002466
3574	0.000297
3586	0.0003294
3598	0.0004518
3610	0.0006624
3622	0.0012528
3634	0.0026784
3646	0.003744
3658	0.003618
3670	0.0021798
3682	0.0009486
3694	0.0005202
3706	0.000351
3718	0.000315
3730	0.0002502
3742	0.0002412
3754	0.0002736
3766	0.0002754
3778	0.0001728
3790	0.0002178
3802	0.0002916
3814	0.0003132
3826	0.000306
3838	0.0003042
