Infrared Spectrum: 4,6-Dinitro-m-xylene
Formula: C 8 H 8 N 2 O 4
CAS: 616-72-8
State: solid
Instrument: Bruker Tensor 37 FTIR
Resolution: 0.96450084
Origin: Pacific Northwest National Laboratory Under IARPA Contract
1/cm	Reflectance
7498.99	0.703098
7481.63	0.692373
7464.27	0.646167
7446.91	0.575391
7429.55	0.568195
7412.19	0.582333
7394.84	0.536811
7377.48	0.560607
7360.12	0.556314
7342.76	0.555043
7325.4	0.57983
7308.04	0.62476
7290.68	0.648231
7273.32	0.661891
7255.96	0.627917
7238.6	0.646812
7221.24	0.66389
7203.88	0.677974
7186.52	0.668483
7169.16	0.644189
7151.8	0.650166
7134.44	0.676989
7117.08	0.698337
7099.72	0.709996
7082.36	0.726677
7065	0.731492
7047.64	0.732709
7030.28	0.731247
7012.92	0.717721
6995.56	0.724057
6978.2	0.726121
6960.84	0.722449
6943.48	0.718101
6926.12	0.708607
6908.76	0.702286
6891.4	0.686829
6874.04	0.667268
6856.68	0.63066
6839.32	0.565445
6821.96	0.531607
6804.6	0.454812
6787.24	0.332439
6769.88	0.387666
6752.52	0.376105
6735.16	0.271733
6717.8	0.211021
6700.44	0.327993
6683.08	0.37586
6665.72	0.273897
6648.36	0.220844
6631	0.296363
6613.64	0.384269
6596.28	0.311289
6578.92	0.356554
6561.56	0.476528
6544.2	0.523851
6526.85	0.544319
6509.49	0.548411
6492.13	0.546357
6474.77	0.512685
6457.41	0.502215
6440.05	0.460291
6422.69	0.465663
6405.33	0.537109
6387.97	0.542621
6370.61	0.560209
6353.25	0.569259
6335.89	0.57421
6318.53	0.582414
6301.17	0.551318
6283.81	0.507726
6266.45	0.44981
6249.09	0.393179
6231.73	0.457673
6214.37	0.487583
6197.01	0.50525
6179.65	0.487643
6162.29	0.48725
6144.93	0.442561
6127.57	0.423321
6110.21	0.361393
6092.85	0.323587
6075.49	0.243304
6058.13	0.224836
6040.77	0.203886
6023.41	0.18909
6006.05	0.189605
5988.69	0.165273
5971.33	0.11651
5953.97	0.09738
5936.61	0.102255
5919.25	0.0788742
5901.89	0.133044
5884.53	0.141956
5867.17	0.131199
5849.81	0.155244
5832.45	0.153671
5815.09	0.202511
5797.73	0.161423
5780.37	0.175129
5763.01	0.126501
5745.65	0.0994482
5728.29	0.152946
5710.93	0.167669
5693.57	0.21336
5676.21	0.185239
5658.86	0.183537
5641.5	0.240058
5624.14	0.263587
5606.78	0.226244
5589.42	0.237455
5572.06	0.205501
5554.7	0.232736
5537.34	0.252058
5519.98	0.215391
5502.62	0.219167
5485.26	0.204573
5467.9	0.209182
5450.54	0.200781
5433.18	0.183167
5415.82	0.161975
5398.46	0.149359
5381.1	0.135901
5363.74	0.106391
5346.38	0.081229
5329.02	0.0807369
5311.66	0.0592476
5294.3	0.0543641
5276.94	0.0658304
5259.58	0.0691285
5242.22	0.0503594
5224.86	0.0563359
5207.5	0.060731
5190.14	0.0527565
5172.78	0.0547134
5155.42	0.070288
5138.06	0.0862229
5120.7	0.0573359
5103.34	0.0817675
5085.98	0.0896317
5068.62	0.112088
5051.26	0.0831796
5033.9	0.117163
5016.54	0.0957885
4999.18	0.0855945
4981.82	0.0720209
4964.46	0.0989957
4947.1	0.0834919
4929.74	0.0765637
4912.38	0.132264
4895.02	0.144323
4877.66	0.110999
4860.3	0.139809
4842.94	0.154721
4825.58	0.166246
4808.22	0.118552
4790.86	0.129242
4773.51	0.125626
4756.15	0.134065
4738.79	0.116112
4721.43	0.159026
4704.07	0.119885
4686.71	0.128266
4669.35	0.115057
4651.99	0.0952817
4634.63	0.0966557
4617.27	0.0700794
4599.91	0.0536167
4582.55	0.0476939
4565.19	0.0341906
4547.83	0.0433758
4530.47	0.0347119
4513.11	0.0708631
4495.75	0.05513
4478.39	0.0462279
4461.03	0.0455314
4443.67	0.0323592
4426.31	0.0378386
4408.95	0.0631374
4391.59	0.054817
4374.23	0.0554056
4356.87	0.0573186
4339.51	0.0594761
4322.15	0.0815437
4304.79	0.0797738
4287.43	0.0740909
4270.07	0.0431814
4252.71	0.0484478
4235.35	0.0697745
4217.99	0.0640404
4200.63	0.066305
4183.27	0.0492623
4165.91	0.0611143
4148.55	0.0832053
4131.19	0.0587122
4113.83	0.0503814
4096.47	0.0547575
4079.11	0.0676179
4061.75	0.0746485
4044.39	0.700468
4027.03	0.682962
4009.67	0.632333
3992.31	0.559791
3974.95	0.569292
3957.59	0.570522
3940.23	0.535501
3922.87	0.55027
3905.52	0.552898
3888.16	0.5489
3870.8	0.591795
3853.44	0.635768
3836.08	0.650464
3818.72	0.65587
3801.36	0.624428
3784	0.651853
3766.64	0.672134
3749.28	0.670049
3731.92	0.661599
3714.56	0.630863
3697.2	0.65683
3679.84	0.689411
3662.48	0.707393
3645.12	0.715697
3627.76	0.730989
3610.4	0.735601
3593.04	0.734339
3575.68	0.730861
3558.32	0.710674
3540.96	0.726417
3523.6	0.720851
3506.24	0.718129
3488.88	0.716665
3471.52	0.70507
3454.16	0.69812
3436.8	0.679563
3419.44	0.651614
3402.08	0.611654
3384.72	0.544346
3367.36	0.512877
3350	0.370131
3332.64	0.362698
3315.28	0.380404
3297.92	0.340889
3280.56	0.263425
3263.2	0.176733
3245.84	0.361586
3228.48	0.340606
3211.12	0.228091
3193.76	0.237039
3176.4	0.317922
3159.04	0.368472
3141.68	0.279014
3124.32	0.401293
3106.96	0.482505
3089.6	0.526517
3072.24	0.54192
3054.88	0.538337
3037.53	0.531307
3020.17	0.503349
3002.81	0.48928
2985.45	0.422088
2968.09	0.491002
2950.73	0.537809
2933.37	0.540504
2916.01	0.558636
2898.65	0.565608
2881.29	0.564967
2863.93	0.570312
2846.57	0.53374
2829.21	0.47979
2811.85	0.43867
2794.49	0.367264
2777.13	0.47955
2759.77	0.491237
2742.41	0.494915
2725.05	0.464601
2707.69	0.471933
2690.33	0.405646
2672.97	0.39715
2655.61	0.303716
2638.25	0.310541
2620.89	0.204183
2603.53	0.213873
2586.17	0.18208
2568.81	0.177249
2551.45	0.188717
2534.09	0.14296
2516.73	0.0997478
2499.37	0.107619
2482.01	0.0929891
2464.65	0.101301
2447.29	0.143874
2429.93	0.132781
2412.57	0.127701
2395.21	0.150459
2377.85	0.15815
2360.49	0.188255
2343.13	0.122184
2325.77	0.158224
2308.41	0.122642
2291.05	0.114478
2273.69	0.169478
2256.33	0.173947
2238.97	0.207113
2221.61	0.152511
2204.25	0.1974
2186.89	0.206155
2169.53	0.253359
2152.18	0.238462
2134.82	0.247731
2117.46	0.225608
2100.1	0.239661
2082.74	0.250463
2065.38	0.216117
2048.02	0.225065
2030.66	0.213248
2013.3	0.204477
1995.94	0.199514
1978.58	0.173618
1961.22	0.155718
1943.86	0.142638
1926.5	0.129289
1909.14	0.0904057
1891.78	0.0839752
1874.42	0.0737478
1857.06	0.0550426
1839.7	0.0589044
1822.34	0.0594931
1804.98	0.0594177
1787.62	0.0508147
1770.26	0.0511998
1752.9	0.0564609
1735.54	0.0502199
1718.18	0.0604025
1700.82	0.0754804
1683.46	0.087952
1666.1	0.0653854
1648.74	0.0827467
1631.38	0.107204
1614.02	0.0909281
1596.66	0.0956124
1579.3	0.118458
1561.94	0.106341
1544.58	0.0826442
1527.22	0.095085
1509.86	0.0843842
1492.5	0.0721652
1475.14	0.0711401
1457.78	0.132074
1440.42	0.143765
1423.06	0.11628
1405.7	0.134444
1388.34	0.156458
1370.98	0.111581
1353.62	0.116994
1336.26	0.120741
1318.9	0.133007
1301.54	0.140151
1284.19	0.10881
1266.83	0.171683
1249.47	0.132415
1232.11	0.130617
1214.75	0.0774962
1197.39	0.0810462
1180.03	0.0784639
1162.67	0.0674887
1145.31	0.0552417
1127.95	0.0455127
1110.59	0.0323116
1093.23	0.0443257
1075.87	0.0295724
1058.51	0.0731259
1041.15	0.052236
1023.79	0.0459805
1006.43	0.0450193
989.068	0.0405281
971.709	0.0983735
954.349	0.0609991
936.989	0.0492741
919.629	0.0590327
902.269	0.0578481
884.91	0.0489319
867.55	0.0722027
850.19	0.079464
832.83	0.0659255
815.47	0.0524747
798.111	0.0554784
780.751	0.076413
763.391	0.0456059
746.031	0.0658002
728.671	0.0464828
711.312	0.0860582
693.952	0.0719185
676.592	0.0469003
659.232	0.0539448
641.872	0.0537614
624.513	0.0869255
607.153	0.0675257
