Infrared Spectrum: 4-ETHOXY-2-NITROANILINE
Formula: C8 H10 N2 O3
CAS: 616-86-4
State: SOLID (MINERAL OIL MULL)
Melting point: 111-113 C
Class: COBLENTZ
Instrument: Not specified, most likely a prism, grating, or hybrid spectrometer.
Sampling: TRANSMISSION
Resolution: 4
Origin: WYANDOTTE CHEMICALS CORP., WYANDOTTE, MICHIGAN, USA
MICROMETERS	TRANSMITTANCE
2.031	0.413
2.06817	0.419
2.10534	0.42
2.1425	0.427
2.17967	0.422
2.21684	0.414
2.25401	0.417
2.29118	0.42
2.32834	0.428
2.36551	0.436
2.40268	0.434
2.43985	0.453
2.47702	0.447
2.51418	0.459
2.55135	0.464
2.58852	0.468
2.62569	0.47
2.66286	0.484
2.70003	0.506
2.73719	0.503
2.77436	0.503
2.81153	0.506
2.8487	0.506
2.88587	0.344
2.92303	0.347
2.9602	0.425
2.99737	0.468
3.03454	0.223
3.07171	0.326
3.10887	0.349
3.14604	0.34
3.18321	0.318
3.22038	0.349
3.25755	0.341
3.29471	0.315
3.33188	0.164
3.36905	0.023
3.40622	0.031
3.44339	0.029
3.48055	0.038
3.51772	0.071
3.55489	0.324
3.59206	0.409
3.62923	0.45
3.66639	0.454
3.70356	0.47
3.74073	0.478
3.7779	0.481
3.81507	0.498
3.85223	0.503
3.8894	0.518
3.92657	0.531
3.96374	0.538
4.00091	0.56
4.03808	0.562
4.07524	0.551
4.11241	0.56
4.14958	0.566
4.18675	0.568
4.22392	0.585
4.26108	0.568
4.29825	0.586
4.33542	0.585
4.37259	0.61
4.40976	0.614
4.44692	0.613
4.48409	0.63
4.52126	0.636
4.55843	0.641
4.5956	0.644
4.63276	0.642
4.66993	0.649
4.7071	0.656
4.74427	0.675
4.78144	0.687
4.8186	0.689
4.85577	0.697
4.89294	0.701
4.93011	0.714
4.96728	0.709
5.00444	0.718
5.04161	0.732
5.07878	0.736
5.11595	0.742
5.15312	0.742
5.19028	0.736
5.22745	0.731
5.26462	0.781
5.30179	0.787
5.33896	0.796
5.37613	0.81
5.41329	0.819
5.45046	0.822
5.48763	0.836
5.5248	0.85
5.56197	0.846
5.59913	0.84
5.6363	0.861
5.67347	0.9
5.71064	0.911
5.74781	0.92
5.78497	0.922
5.82214	0.948
5.85931	0.93
5.89648	0.923
5.93365	0.9
5.97081	0.72
6.00798	0.5
6.04515	0.563
6.08232	0.734
6.11949	0.714
6.15665	0.543
6.19382	0.29
6.23099	0.211
6.26816	0.229
6.30533	0.175
6.34249	0.363
6.37966	0.59
6.41683	0.613
6.454	0.489
6.49117	0.31
6.52833	0.204
6.5655	0.155
6.60267	0.215
6.63984	0.29
6.67701	0.377
6.71418	0.34
6.75134	0.222
6.78851	0.091
6.82568	0.142
6.86285	0.211
6.90002	0.33
6.93718	0.444
6.97435	0.381
7.01152	0.201
7.04869	0.122
7.08586	0.152
7.12302	0.184
7.16019	0.091
7.19736	0.104
7.23453	0.125
7.2717	0.243
7.30886	0.293
7.34603	0.495
7.3832	0.486
7.42037	0.149
7.45754	0.192
7.4947	0.374
7.53187	0.512
7.56904	0.538
7.60621	0.534
7.64338	0.524
7.68054	0.456
7.71771	0.29
7.75488	0.231
7.79205	0.388
7.82922	0.389
7.86638	0.346
7.90355	0.279
7.94072	0.215
7.97789	0.149
8.01506	0.189
8.05223	0.178
8.08939	0.111
8.12656	0.08
8.16373	0.074
8.2009	0.086
8.23807	0.097
8.27523	0.107
8.3124	0.128
8.34957	0.149
8.38674	0.155
8.42391	0.178
8.46107	0.225
8.49824	0.321
8.53541	0.197
8.57258	0.159
8.60975	0.201
8.64691	0.223
8.68408	0.251
8.72125	0.295
8.75842	0.327
8.79559	0.364
8.83275	0.399
8.86992	0.427
8.90709	0.363
8.94426	0.343
8.98143	0.302
9.01859	0.211
9.05576	0.18
9.09293	0.187
9.1301	0.184
9.16727	0.19
9.20443	0.218
9.2416	0.251
9.27877	0.29
9.31594	0.321
9.35311	0.349
9.39028	0.366
9.42744	0.377
9.46461	0.262
9.50178	0.11
9.53895	0.145
9.57612	0.194
9.61328	0.231
9.65045	0.268
9.68762	0.282
9.72479	0.305
9.76196	0.327
9.79912	0.344
9.83629	0.358
9.87346	0.369
9.91063	0.389
9.9478	0.4
9.98496	0.408
10.0221	0.425
10.0593	0.433
10.0965	0.436
10.1336	0.448
10.1708	0.459
10.208	0.47
10.2451	0.476
10.2823	0.454
10.3195	0.369
10.3566	0.231
10.3938	0.172
10.431	0.187
10.4681	0.212
10.5053	0.239
10.5425	0.27
10.5797	0.274
10.6168	0.304
10.654	0.324
10.6912	0.333
10.7283	0.343
10.7655	0.35
10.8027	0.358
10.8398	0.374
10.877	0.372
10.9142	0.378
10.9513	0.4
10.9885	0.392
11.0257	0.372
11.0628	0.368
11.1	0.383
11.1372	0.399
11.1743	0.405
11.2115	0.403
11.2487	0.402
11.2858	0.409
11.323	0.419
11.3602	0.419
11.3974	0.417
11.4345	0.425
11.4717	0.43
11.5089	0.431
11.546	0.43
11.5832	0.428
11.6204	0.439
11.6575	0.419
11.6947	0.416
11.7319	0.414
11.769	0.38
11.8062	0.352
11.8434	0.309
11.8805	0.232
11.9177	0.187
11.9549	0.273
11.992	0.349
12.0292	0.313
12.0664	0.229
12.1035	0.236
12.1407	0.312
12.1779	0.285
12.215	0.301
12.2522	0.361
12.2894	0.445
12.3266	0.523
12.3637	0.571
12.4009	0.59
12.4381	0.599
12.4752	0.572
12.5124	0.503
12.5496	0.381
12.5867	0.299
12.6239	0.256
12.6611	0.27
12.6982	0.312
12.7354	0.352
12.7726	0.375
12.8097	0.4
12.8469	0.408
12.8841	0.419
12.9212	0.436
12.9584	0.436
12.9956	0.439
13.0327	0.43
13.0699	0.392
13.1071	0.299
13.1442	0.225
13.1814	0.321
13.2186	0.434
13.2558	0.484
13.2929	0.51
13.3301	0.524
13.3673	0.526
13.4044	0.532
13.4416	0.54
13.4788	0.54
13.5159	0.54
13.5531	0.549
13.5903	0.549
13.6274	0.554
13.6646	0.563
13.7018	0.571
13.7389	0.572
13.7761	0.579
13.8133	0.576
13.8504	0.579
13.8876	0.582
13.9248	0.594
13.9619	0.61
13.9991	0.631
14.0363	0.639
14.0735	0.65
14.1106	0.659
14.1478	0.659
14.185	0.663
14.2221	0.67
14.2593	0.68
14.2965	0.681
14.3336	0.684
14.3708	0.689
14.408	0.686
14.4451	0.67
14.4823	0.673
14.5195	0.678
14.5566	0.689
14.5938	0.687
14.631	0.69
14.6681	0.687
14.7053	0.67
14.7425	0.649
14.7796	0.585
14.8168	0.521
14.854	0.479
14.8911	0.47
14.9283	0.503
14.9655	0.517
15.0027	0.518
15.0398	0.507
15.077	0.517
15.1142	0.538
15.1513	0.563
15.1885	0.572
15.2257	0.588
15.2628	0.58
15.3	0.58
15.3372	0.574
15.3743	0.576
15.4115	0.565
15.4487	0.56
15.4858	0.551
15.523	0.551
15.5602	0.548
15.5973	0.526
15.6345	0.531
15.6717	0.531
15.7088	0.518
15.746	0.513
15.7832	0.5
15.8203	0.495
15.8575	0.489
15.8947	0.482
15.9319	0.481
15.969	0.481
