Infrared Spectrum: 1-Methylhydantoin
Formula: C4 H6 N2 O2
CAS: 616-04-6
State: SOLID (SPLIT MULL)
Melting point: 157 C
Class: COBLENTZ II
Instrument: BECKMAN IR-9 (GRATING)
Instrument parameters: ORDER CHANGES: 670, 1200, 2000 CM^-^1
Sampling: TRANSMISSION
Resolution: 2
Origin: DOW CHEMICAL COMPANY
1/CM	TRANSMITTANCE
3800	0.7083
3791	0.7085
3782	0.7093
3773	0.711
3764	0.7134
3755	0.7158
3746	0.7181
3737	0.7197
3728	0.7204
3719	0.7206
3710	0.7217
3701	0.7231
3692	0.7247
3683	0.7262
3674	0.7278
3665	0.7295
3656	0.7311
3647	0.7326
3638	0.7344
3629	0.736
3620	0.7375
3611	0.7391
3602	0.7414
3593	0.7408
3584	0.7374
3575	0.7397
3566	0.7438
3557	0.7461
3548	0.7475
3539	0.7474
3530	0.7461
3521	0.7447
3512	0.7439
3503	0.7461
3494	0.7488
3485	0.7515
3476	0.7532
3467	0.7548
3458	0.7561
3449	0.7574
3440	0.7588
3431	0.7612
3422	0.764
3413	0.7639
3404	0.7628
3395	0.7648
3386	0.7678
3377	0.7711
3368	0.7731
3359	0.7737
3350	0.7734
3341	0.773
3332	0.7711
3323	0.7695
3314	0.768
3305	0.7635
3296	0.7582
3287	0.7522
3278	0.7421
3269	0.7278
3260	0.7121
3251	0.6986
3242	0.665
3233	0.6406
3224	0.6144
3215	0.579
3206	0.5417
3197	0.497
3188	0.4812
3179	0.4669
3170	0.4543
3161	0.4394
3152	0.4223
3143	0.4123
3134	0.4118
3125	0.4287
3116	0.4412
3107	0.443
3098	0.442
3089	0.4316
3080	0.4118
3071	0.3653
3062	0.3343
3053	0.2973
3044	0.2818
3035	0.2819
3026	0.2934
3017	0.3117
3008	0.3332
2999	0.358
2990	0.3809
2981	0.3903
2972	0.4117
2963	0.431
2954	0.4302
2945	0.4293
2936	0.4302
2927	0.4333
2918	0.4594
2909	0.481
2900	0.4875
2891	0.4879
2882	0.4898
2873	0.4985
2864	0.5003
2855	0.5042
2846	0.5132
2837	0.5212
2828	0.5227
2819	0.5216
2810	0.5266
2801	0.5342
2792	0.527
2783	0.4577
2774	0.3912
2765	0.396
2756	0.4445
2747	0.4806
2738	0.5088
2729	0.5246
2720	0.5462
2711	0.5662
2702	0.5857
2693	0.6026
2684	0.618
2675	0.6289
2666	0.6396
2657	0.6517
2648	0.6619
2639	0.6707
2630	0.6762
2621	0.6818
2612	0.6876
2603	0.6934
2594	0.6997
2585	0.7046
2576	0.7069
2567	0.708
2558	0.7094
2549	0.7125
2540	0.7181
2531	0.7247
2522	0.7341
2513	0.739
2504	0.7404
2495	0.7387
2486	0.7369
2477	0.738
2468	0.7406
2459	0.7437
2450	0.7471
2441	0.7508
2432	0.7556
2423	0.7587
2414	0.7615
2405	0.7612
2396	0.76
2387	0.7607
2378	0.7717
2369	0.7811
2360	0.7814
2351	0.7753
2342	0.7756
2333	0.7737
2324	0.7707
2315	0.7676
2306	0.7643
2297	0.763
2288	0.7682
2279	0.7725
2270	0.7754
2261	0.7775
2252	0.7775
2243	0.7787
2234	0.7864
2225	0.7965
2216	0.8068
2207	0.8168
2198	0.8171
2189	0.8195
2180	0.8248
2171	0.8301
2162	0.8351
2153	0.8399
2144	0.8445
2135	0.8477
2126	0.8502
2117	0.8518
2108	0.8534
2099	0.8545
2090	0.854
2081	0.8544
2072	0.8571
2063	0.8607
2054	0.8642
2045	0.8673
2036	0.87
2027	0.8733
2018	0.8757
2009	0.8773
2000	0.8715
1991	0.8778
1982	0.8813
1973	0.8849
1964	0.8878
1955	0.8916
1946	0.8925
1937	0.8928
1928	0.8921
1919	0.8844
1910	0.8823
1901	0.8855
1892	0.873
1883	0.8671
1874	0.8702
1865	0.8565
1856	0.8485
1847	0.8331
1838	0.8154
1829	0.7924
1820	0.7386
1811	0.6621
1802	0.4657
1793	0.5345
1784	0.5117
1775	0.2252
1766	0.0954
1757	0.2518
1748	0.2418
1739	0.1959
1730	0.0402
1721	0.0435
1712	0.027
1703	0.03
1694	0.0757
1685	0.0938
1676	0.1644
1667	0.2341
1658	0.2979
1649	0.3723
1640	0.4137
1631	0.457
1622	0.4877
1613	0.5149
1604	0.536
1595	0.5503
1586	0.5603
1577	0.5677
1568	0.5725
1559	0.5742
1550	0.5593
1541	0.5605
1532	0.5831
1523	0.5645
1514	0.4612
1505	0.2651
1496	0.1956
1487	0.3536
1478	0.4667
1469	0.4915
1460	0.3484
1451	0.4199
1442	0.5236
1433	0.6342
1424	0.5282
1415	0.2263
1406	0.3822
1397	0.5623
1388	0.6112
1379	0.6336
1370	0.65
1361	0.6401
1352	0.5751
1343	0.1974
1334	0.3408
1325	0.6812
1316	0.729
1307	0.7478
1298	0.7151
1289	0.6796
1280	0.7695
1271	0.8046
1262	0.8128
1253	0.7919
1244	0.5571
1235	0.3394
1226	0.6435
1217	0.7794
1208	0.7936
1199	0.7847
1190	0.7918
1181	0.8101
1172	0.7938
1163	0.74
1154	0.3042
1145	0.3916
1136	0.6222
1127	0.5732
1118	0.6957
1109	0.7668
1100	0.7876
1091	0.7924
1082	0.7908
1073	0.7921
1064	0.7867
1055	0.7638
1046	0.5103
1037	0.6794
1028	0.7489
1019	0.7796
1010	0.7904
1001	0.7984
992	0.8074
983	0.7776
974	0.811
965	0.8108
956	0.8168
947	0.824
938	0.8278
929	0.8293
920	0.8286
911	0.8189
902	0.6412
893	0.75
884	0.8075
875	0.8121
866	0.7954
857	0.7575
848	0.5171
839	0.6269
830	0.581
821	0.5718
812	0.6293
803	0.6861
794	0.7339
785	0.7768
776	0.8011
767	0.7968
758	0.3187
749	0.6204
740	0.8036
731	0.8046
722	0.8078
713	0.7976
704	0.3198
695	0.7136
686	0.8564
677	0.8837
668	0.8743
659	0.8768
650	0.8782
641	0.8773
632	0.8756
623	0.8715
614	0.8627
605	0.8332
596	0.7744
587	0.8539
578	0.8256
569	0.227
560	0.7867
551	0.8434
542	0.847
533	0.8477
524	0.8456
515	0.8359
506	0.8289
497	0.8218
488	0.8148
479	0.8065
470	0.7908
461	0.7728
452	0.7471
443	0.7118
434	0.6685
425	0.527
416	0.3855
407	0.4734
