Infrared Spectrum: 4-Hydroxy-3-nitrobenzoic acid
Formula: C 7 H 5 N O 5
CAS: 616-82-0
State: gas
Origin: EPA-IR VAPOR PHASE LIBRARY
1/CM	ABSORBANCE
501.5	0.0119021
513.074	0.0130721
524.648	0.00738212
536.222	0.00479212
547.796	0.00680212
559.37	0.0103821
570.944	0.0113321
582.518	0.0106721
594.092	0.00803212
605.666	0.0197321
617.24	0.0178421
628.814	0.00682212
640.388	0.00530212
651.962	0.00582212
663.536	0.00824212
675.11	0.0200821
686.684	0.0256021
698.258	0.0126021
709.832	0.00729212
721.406	0.00427212
732.98	0.00292212
744.554	0.00473212
756.128	0.0142621
767.702	0.0173421
779.276	0.00685212
790.85	0.00306212
802.423	0.00246212
813.997	0.00454212
825.571	0.00633212
837.145	0.00618212
848.719	0.00609212
860.293	0.00235212
871.867	0.00123212
883.441	0.00097382
895.015	0.00175212
906.589	0.00447212
918.163	0.00515212
929.737	0.00311212
941.311	0.00147212
952.885	0.00125212
964.459	0.00135212
976.033	0.00151212
987.607	0.00147212
999.181	0.00130212
1010.76	0.00130212
1022.33	0.00202212
1033.9	0.00278212
1045.48	0.00339212
1057.05	0.00576212
1068.63	0.0129421
1080.2	0.0220521
1091.77	0.0252321
1103.35	0.0298221
1114.92	0.0228321
1126.49	0.0194921
1138.07	0.0214121
1149.64	0.0194421
1161.22	0.0354321
1172.79	0.0750421
1184.36	0.0563521
1195.94	0.0251821
1207.51	0.0171421
1219.09	0.0135421
1230.66	0.0112021
1242.23	0.0129421
1253.81	0.0243021
1265.38	0.0341321
1276.96	0.0295721
1288.53	0.0234321
1300.1	0.0207021
1311.68	0.0343821
1323.25	0.0671721
1334.83	0.0594221
1346.4	0.0405121
1357.97	0.0329821
1369.55	0.0324721
1381.12	0.0196721
1392.7	0.0102121
1404.27	0.00873212
1415.84	0.0101921
1427.42	0.0159221
1438.99	0.0174521
1450.57	0.0104921
1462.14	0.00678212
1473.71	0.00795212
1485.29	0.0134021
1496.86	0.0161121
1508.44	0.00807212
1520.01	0.00624212
1531.58	0.0114021
1543.16	0.0287121
1554.73	0.0385621
1566.31	0.0203921
1577.88	0.0153721
1589.45	0.0162221
1601.03	0.0166721
1612.6	0.0253921
1624.18	0.0536021
1635.75	0.0464121
1647.32	0.0120621
1658.9	0.00453212
1670.47	0.00326212
1682.05	0.00319212
1693.62	0.00342212
1705.19	0.00485212
1716.77	0.00625212
1728.34	0.00595212
1739.92	0.0102721
1751.49	0.0448121
1763.06	0.113152
1774.64	0.0494021
1786.21	0.00863212
1797.79	0.00410212
1809.36	0.00499212
1820.93	0.00524212
1832.51	0.00266212
1844.08	0.00152212
1855.66	0.00121212
1867.23	0.00090142
1878.8	0.00071822
1890.38	0.00072732
1901.95	0.00096022
1913.53	0.00108212
1925.1	0.00080152
1936.67	0.00096562
1948.25	0.00096712
1959.82	0.00082452
1971.4	0.00061822
1982.97	0.00051902
1994.54	0.00051452
2006.12	0.00043282
2017.69	0.00036232
2029.27	0.00031292
2040.84	0.00031942
2052.41	0.00034672
2063.99	0.00040892
2075.56	0.00049542
2087.14	0.00057012
2098.71	0.00055282
2110.28	0.00042982
2121.86	0.00034692
2133.43	0.00041702
2145.01	0.00054592
2156.58	0.00059862
2168.15	0.00047932
2179.73	0.00042372
2191.3	0.00041332
2202.88	0.00042972
2214.45	0.00041012
2226.02	0.00040632
2237.6	0.00048752
2249.17	0.00054812
2260.74	0.00047502
2272.32	0.00043892
2283.89	0.00037112
2295.47	0.00036072
2307.04	0.00045912
2318.61	0.00049352
2330.19	0.00061992
2341.76	0.00068642
2353.34	0.00068422
2364.91	0.00068112
2376.48	0.00068782
2388.06	0.00065732
2399.63	0.00064092
2411.21	0.00068342
2422.78	0.00068752
2434.35	0.00070412
2445.93	0.00082892
2457.5	0.00073422
2469.08	0.00062702
2480.65	0.00052652
2492.22	0.00057532
2503.8	0.00062132
2515.37	0.00067012
2526.95	0.00065132
2538.52	0.00066262
2550.09	0.00062872
2561.67	0.00074332
2573.24	0.00087522
2584.82	0.00101212
2596.39	0.00095352
2607.96	0.00084982
2619.54	0.00078882
2631.11	0.00079792
2642.69	0.00079022
2654.26	0.00077102
2665.83	0.00076202
2677.41	0.00081702
2688.98	0.00071662
2700.56	0.00065822
2712.13	0.00067552
2723.7	0.00073452
2735.28	0.00079632
2746.85	0.00097242
2758.43	0.00107212
2770	0.00091152
2781.57	0.00084502
2793.15	0.00092612
2804.72	0.00109212
2816.3	0.00123212
2827.87	0.00127212
2839.44	0.00136212
2851.02	0.00130212
2862.59	0.00132212
2874.17	0.00145212
2885.74	0.00148212
2897.31	0.00152212
2908.89	0.00149212
2920.46	0.00136212
2932.04	0.00140212
2943.61	0.00135212
2955.18	0.00130212
2966.76	0.00123212
2978.33	0.00125212
2989.91	0.00122212
3001.48	0.00116212
3013.05	0.00109212
3024.63	0.00109212
3036.2	0.00107212
3047.78	0.00103212
3059.35	0.00106212
3070.92	0.00135212
3082.5	0.00231212
3094.07	0.00312212
3105.65	0.00243212
3117.22	0.00173212
3128.79	0.00160212
3140.37	0.00166212
3151.94	0.00183212
3163.52	0.00244212
3175.09	0.00315212
3186.66	0.00399212
3198.24	0.00518212
3209.81	0.00687212
3221.39	0.00841212
3232.96	0.00937212
3244.53	0.00965212
3256.11	0.00945212
3267.68	0.00903212
3279.26	0.00820212
3290.83	0.00738212
3302.4	0.00677212
3313.98	0.00629212
3325.55	0.00598212
3337.13	0.00549212
3348.7	0.00504212
3360.27	0.00454212
3371.85	0.00411212
3383.42	0.00361212
3395	0.00327212
3406.57	0.00293212
3418.14	0.00255212
3429.72	0.00247212
3441.29	0.00229212
3452.86	0.00223212
3464.44	0.00216212
3476.01	0.00211212
3487.59	0.00212212
3499.16	0.00237212
3510.73	0.00266212
3522.31	0.00230212
3533.88	0.00208212
3545.46	0.00209212
3557.03	0.00246212
3568.6	0.00758212
3580.18	0.0359821
3591.75	0.0252921
3603.33	0.00327212
3614.9	0.00135212
3626.47	0.00097322
3638.05	0.00090632
3649.62	0.00075512
3661.2	0.00054642
3672.77	0.00039112
3684.34	0.00033482
3695.92	0.00045532
3707.49	0.00034872
3719.07	0.00032192
3730.64	0.00031672
3742.21	0.00024542
3753.79	0.00020532
3765.36	0.00020872
3776.94	0.00012562
3788.51	3.071e-05
3800.08	8.021e-05
3811.66	5.106e-05
3823.23	8.865e-05
3834.81	0.00012752
3846.38	0.00016332
3857.95	0.00023702
3869.53	0
3881.1	7.283e-05
3892.68	0.00014092
3904.25	0.00018822
3915.82	0.00012052
3927.4	0.00015022
3938.97	1.747e-05
3950.55	0.00017982
3962.12	0.00011822
3973.69	0.00015222
3985.27	0.00018152
3996.84	0.00011292
