Infrared Spectrum: trans-3-Methyl-2-pentene
Formula: C 6 H 12
CAS: 616-12-6
State: gas
Instrument: HP-GC/MS/IRD
Origin: NIST Mass Spectrometry Data Center
1/CM	ABSORBANCE
550	0.0013104
562	0.0013767
574	0.0007254
586	0.0001638
598	0.0003042
610	0.0001092
622	0.0001092
634	0.0001092
646	8.58e-05
658	0.0002067
670	0.0001833
682	0.0001248
694	1.56e-05
706	0.000195
718	0.0003081
730	0.000468
742	0.0006942
754	0.0009009
766	0.0008346
778	0.0010842
790	0.0016653
802	0.0027924
814	0.0041691
826	0.0046878
838	0.0036855
850	0.0019461
862	0.0009594
874	0.0005421
886	0.0005577
898	0.0006396
910	0.000858
922	0.0009633
934	0.0009243
946	0.0009477
958	0.0014742
970	0.0020826
982	0.0026364
994	0.0026715
1006	0.0022581
1018	0.0017394
1030	0.0015795
1042	0.001482
1054	0.0016497
1066	0.0020826
1078	0.0020397
1090	0.00156
1102	0.0016497
1114	0.0018993
1126	0.001677
1138	0.0008775
1150	0.0004992
1162	0.0004953
1174	0.0006084
1186	0.0009555
1198	0.001404
1210	0.0014079
1222	0.0009594
1234	0.0006747
1246	0.000663
1258	0.0006045
1270	0.0006474
1282	0.000741
1294	0.0009945
1306	0.0014508
1318	0.0019383
1330	0.0022269
1342	0.0023751
1354	0.0029367
1366	0.0041028
1378	0.0057954
1390	0.006162
1402	0.0046293
1414	0.0034008
1426	0.0036816
1438	0.0049062
1450	0.006357
1462	0.0064428
1474	0.0052611
1486	0.0036738
1498	0.0026013
1510	0.0022425
1522	0.0020982
1534	0.0020085
1546	0.0018369
1558	0.00156
1570	0.0012792
1582	0.0010335
1594	0.000858
1606	0.0007605
1618	0.00078
1630	0.0008034
1642	0.0008814
1654	0.0009672
1666	0.0009594
1678	0.0007995
1690	0.000507
1702	0.0002496
1714	0.0002106
1726	0.0001755
1738	0.0001443
1750	0.0001443
1762	0.0001677
1774	0.0002028
1786	0.0002106
1798	0.0002457
1810	0.0002691
1822	0.0003588
1834	0.0004407
1846	0.0004914
1858	0.0004212
1870	0.0002808
1882	0.0001872
1894	0.0001677
1906	0.0001209
1918	8.58e-05
1930	8.19e-05
1942	7.41e-05
1954	5.46e-05
1966	5.07e-05
1978	7.41e-05
1990	5.46e-05
2002	6.24e-05
2014	6.63e-05
2026	0.0001014
2038	8.58e-05
2050	7.02e-05
2062	4.29e-05
2074	1.95e-05
2086	3.9e-05
2098	5.07e-05
2110	4.29e-05
2122	7.41e-05
2134	5.85e-05
2146	3.9e-05
2158	5.46e-05
2170	4.29e-05
2182	0
2194	2.73e-05
2206	2.34e-05
2218	3.12e-05
2230	4.29e-05
2242	2.73e-05
2254	4.68e-05
2266	4.68e-05
2278	7.41e-05
2290	7.02e-05
2302	8.19e-05
2314	0.0001014
2326	0.0001326
2338	0.0001482
2350	0.0001365
2362	0.0001677
2374	0.0001911
2386	0.0001755
2398	0.0001482
2410	0.0001599
2422	0.0001755
2434	0.0001677
2446	0.0001794
2458	0.000156
2470	0.000195
2482	0.0001794
2494	0.0001638
2506	0.000156
2518	0.0001482
2530	0.0001521
2542	0.0001755
2554	0.000195
2566	0.0002028
2578	0.0001872
2590	0.0001911
2602	0.0001794
2614	0.0002106
2626	0.0002457
2638	0.0003315
2650	0.0003471
2662	0.0003471
2674	0.000429
2686	0.0004329
2698	0.0005304
2710	0.0008385
2722	0.0010881
2734	0.0013182
2746	0.0014586
2758	0.0015951
2770	0.001638
2782	0.0017277
2794	0.0019812
2806	0.0024726
2818	0.003627
2830	0.005811
2842	0.0096954
2854	0.0153192
2866	0.0218166
2878	0.0264342
2890	0.0286611
2902	0.0288405
2914	0.032526
2926	0.0368784
2938	0.0374595
2950	0.0333879
2962	0.037323
2974	0.0388362
2986	0.0318786
2998	0.0213174
3010	0.0165711
3022	0.0143988
3034	0.0122733
3046	0.0093483
3058	0.0064857
3070	0.0044733
3082	0.0031239
3094	0.0022503
3106	0.0017589
3118	0.0014586
3130	0.0012597
3142	0.0011076
3154	0.0009243
3166	0.0007683
3178	0.0006045
3190	0.0005148
3202	0.00039
3214	0.0003003
3226	0.0002769
3238	0.0002652
3250	0.0002457
3262	0.0001638
3274	0.0001872
3286	0.0001794
3298	0.0001755
3310	0.0001638
3322	0.0001482
3334	0.0001365
3346	0.0001638
3358	9.75e-05
3370	0.0001209
3382	0.0001248
3394	0.0001053
3406	0.0001209
3418	0.000117
3430	9.75e-05
3442	0.000117
3454	9.75e-05
3466	9.75e-05
3478	8.97e-05
3490	0.0001209
3502	7.02e-05
3514	9.75e-05
3526	6.24e-05
3538	6.24e-05
3550	1.17e-05
3562	7.02e-05
3574	7.41e-05
3586	9.36e-05
3598	3.51e-05
3610	1.56e-05
3622	8.19e-05
3634	6.63e-05
3646	0.0001053
3658	0.000117
3670	0.0001053
3682	9.75e-05
3694	0.0001677
3706	0.0001209
3718	0.0001872
3730	0.0001053
3742	0.0001638
3754	0.0002106
3766	0.0001209
3778	0.0001794
3790	0.0002028
3802	0.0001716
3814	0.0001716
3826	0.0001638
3838	0.0001677
