Infrared Spectrum: Benzylmalonic acid
Formula: C 10 H 10 O 4
CAS: 616-75-1
State: gas
Instrument: HP-GC/MS/IRD
Origin: NIST Mass Spectrometry Data Center
1/CM	ABSORBANCE
550	0.0051552
562	0.009018
574	0.0068796
586	0.0057996
598	0.0051552
610	0.0052704
622	0.0054936
634	0.00513
646	0.0040896
658	0.0030888
670	0.0045972
682	0.005202
694	0.0082188
706	0.0067392
718	0.0041292
730	0.0036324
742	0.004248
754	0.0035352
766	0.0023508
778	0.001566
790	0.0011952
802	0.0010908
814	0.0004896
826	0.0001116
838	0
850	1.44e-05
862	6.12e-05
874	0.0001692
886	0.0003456
898	0.0004716
910	0.0004896
922	0.0004932
934	0.000756
946	0.0010548
958	0.0009432
970	0.0009036
982	0.0009468
994	0.0012492
1006	0.0016092
1018	0.0020556
1030	0.002988
1042	0.0025344
1054	0.0029412
1066	0.004914
1078	0.0065124
1090	0.008694
1102	0.0144072
1114	0.0247032
1126	0.0257688
1138	0.0151704
1150	0.009756
1162	0.0069264
1174	0.0060336
1186	0.0061704
1198	0.0058464
1210	0.0046836
1222	0.0037188
1234	0.0031248
1246	0.0028476
1258	0.00297
1270	0.0029988
1282	0.0028152
1294	0.0025992
1306	0.002466
1318	0.002412
1330	0.0024732
1342	0.0028224
1354	0.0036432
1366	0.0046944
1378	0.005706
1390	0.0048132
1402	0.0027108
1414	0.0021492
1426	0.0024804
1438	0.0028008
1450	0.0030636
1462	0.0023292
1474	0.0011916
1486	0.0016596
1498	0.0030888
1510	0.001062
1522	0.0003492
1534	0.000252
1546	0.000234
1558	0.0002592
1570	0.0003168
1582	0.0005976
1594	0.0011772
1606	0.0015624
1618	0.0006156
1630	0.000252
1642	0.0002268
1654	0.0003024
1666	0.0003168
1678	0.0004284
1690	0.000648
1702	0.0011088
1714	0.0019404
1726	0.003546
1738	0.0067788
1750	0.0121104
1762	0.0219132
1774	0.0346896
1786	0.0309744
1798	0.0169992
1810	0.0084276
1822	0.0039456
1834	0.0019188
1846	0.0011808
1858	0.000882
1870	0.0007524
1882	0.0005328
1894	0.0003852
1906	0.0003456
1918	0.0004032
1930	0.0005004
1942	0.00054
1954	0.000486
1966	0.0002232
1978	0.0001224
1990	0.0001044
2002	7.92e-05
2014	9e-05
2026	5.04e-05
2038	5.04e-05
2050	4.32e-05
2062	1.44e-05
2074	1.44e-05
2086	0
2098	3.24e-05
2110	3.24e-05
2122	5.4e-05
2134	3.96e-05
2146	5.04e-05
2158	5.04e-05
2170	5.76e-05
2182	9.36e-05
2194	9.36e-05
2206	0.000126
2218	0.0001296
2230	0.0001548
2242	0.0001872
2254	0.0002268
2266	0.0002736
2278	0.0005148
2290	0.001062
2302	0.0020736
2314	0.0033804
2326	0.0041652
2338	0.003834
2350	0.0031788
2362	0.005364
2374	0.0039492
2386	0.0009432
2398	0.00018
2410	0.0001224
2422	7.92e-05
2434	7.2e-05
2446	0.0001008
2458	9.72e-05
2470	5.4e-05
2482	3.6e-05
2494	5.4e-05
2506	2.52e-05
2518	2.88e-05
2530	5.04e-05
2542	3.6e-05
2554	4.32e-05
2566	2.52e-05
2578	5.4e-05
2590	2.52e-05
2602	6.84e-05
2614	3.24e-05
2626	2.52e-05
2638	3.24e-05
2650	4.68e-05
2662	2.16e-05
2674	3.6e-05
2686	5.76e-05
2698	5.76e-05
2710	3.24e-05
2722	1.08e-05
2734	4.68e-05
2746	5.04e-05
2758	3.96e-05
2770	7.2e-05
2782	0.0001044
2794	0.000144
2806	0.0001692
2818	0.0001872
2830	0.00027
2842	0.0003924
2854	0.0006192
2866	0.0009324
2878	0.0011124
2890	0.001008
2902	0.0010944
2914	0.0016452
2926	0.0028116
2938	0.0037656
2950	0.0034632
2962	0.0028332
2974	0.0022608
2986	0.0017424
2998	0.0016344
3010	0.0020664
3022	0.0037044
3034	0.0058248
3046	0.0043668
3058	0.003582
3070	0.0054576
3082	0.0042552
3094	0.0027
3106	0.0017424
3118	0.0009072
3130	0.0003492
3142	0.0001764
3154	0.0001188
3166	0.0001404
3178	9.36e-05
3190	3.6e-05
3202	6.84e-05
3214	4.68e-05
3226	0.000126
3238	6.48e-05
3250	7.2e-05
3262	4.32e-05
3274	6.12e-05
3286	3.6e-05
3298	4.68e-05
3310	3.6e-06
3322	6.12e-05
3334	3.6e-06
3346	2.52e-05
3358	0.0001008
3370	5.76e-05
3382	5.04e-05
3394	6.48e-05
3406	0.0001404
3418	8.28e-05
3430	0.0001044
3442	0.0001044
3454	0.000126
3466	0.0001152
3478	0.0001692
3490	0.0002268
3502	0.0003024
3514	0.0004536
3526	0.0007056
3538	0.0010008
3550	0.0015552
3562	0.0049248
3574	0.0147132
3586	0.006894
3598	0.0015912
3610	0.0007272
3622	0.000504
3634	0.0004248
3646	0.0003888
3658	0.0002124
3670	0.0001728
3682	0.000198
3694	0.0002088
3706	0.0001908
3718	0.0001908
3730	0.0002556
3742	0.0002484
3754	0.000216
3766	0.0001656
3778	0.0001332
3790	0.0001296
3802	0.000144
3814	0.000162
3826	0.0001512
3838	0.0001332
