Infrared Spectrum: Di-N-octyl phenyl phosphate
Formula: C 22 H 39 O 4 P
CAS: 6161-81-5
State: gas
Origin: EPA-IR VAPOR PHASE LIBRARY
1/CM	ABSORBANCE
549.9	0.01407
559.547	0.00942
569.193	0.00695
578.84	0.00639
588.486	0.00539
598.133	0.00368
607.779	0.00298
617.426	0.00337
627.072	0.0024476
636.719	0.0022389
646.365	0.002289
656.012	0.00269
665.658	0.0033
675.305	0.0047
684.951	0.00919
694.598	0.00843
704.245	0.0064
713.891	0.00705
723.538	0.00766
733.184	0.00864
742.831	0.01124
752.477	0.01663
762.124	0.02011
771.77	0.01689
781.417	0.01189
791.063	0.00981
800.71	0.00894
810.356	0.00839
820.003	0.00869
829.649	0.00848
839.296	0.00858
848.943	0.00921
858.589	0.0097
868.236	0.01011
877.882	0.01039
887.529	0.01104
897.175	0.01437
906.822	0.01805
916.468	0.02587
926.115	0.04691
935.761	0.0788
945.408	0.09091
955.054	0.06022
964.701	0.03791
974.347	0.03746
983.994	0.04311
993.64	0.0513
1003.29	0.0696
1012.93	0.08777
1022.58	0.10973
1032.23	0.10392
1041.87	0.09029
1051.52	0.0805
1061.17	0.07504
1070.81	0.06915
1080.46	0.05274
1090.11	0.0335
1099.75	0.02019
1109.4	0.01426
1119.05	0.01231
1128.69	0.01148
1138.34	0.01012
1147.99	0.00895
1157.63	0.00988
1167.28	0.01275
1176.92	0.00969
1186.57	0.01133
1196.22	0.01742
1205.86	0.03483
1215.51	0.06265
1225.16	0.04341
1234.8	0.02898
1244.45	0.01679
1254.1	0.01284
1263.74	0.01298
1273.39	0.01811
1283.04	0.03039
1292.68	0.03604
1302.33	0.03597
1311.98	0.03267
1321.62	0.0195
1331.27	0.01175
1340.92	0.00825
1350.56	0.00667
1360.21	0.00589
1369.86	0.00546
1379.5	0.00643
1389.15	0.0078
1398.79	0.0057
1408.44	0.00379
1418.09	0.00359
1427.73	0.00442
1437.38	0.00668
1447.03	0.00924
1456.67	0.01316
1466.32	0.01515
1475.97	0.01651
1485.61	0.02906
1495.26	0.03889
1504.91	0.01261
1514.55	0.00598
1524.2	0.00397
1533.85	0.00297
1543.49	0.0026
1553.14	0.00273
1562.79	0.00351
1572.43	0.0058
1582.08	0.01091
1591.73	0.01809
1601.37	0.01451
1611.02	0.005
1620.67	0.0025436
1630.31	0.0018421
1639.96	0.00159472
1649.6	0.0015304
1659.25	0.001466
1668.9	0.0014
1678.54	0.001431
1688.19	0.001463
1697.84	0.00155
1707.48	0.0016716
1717.13	0.0017378
1726.78	0.001692
1736.42	0.00157682
1746.07	0.00158342
1755.72	0.0016843
1765.36	0.0018853
1775.01	0.0020873
1784.66	0.0018899
1794.3	0.001732
1803.95	0.00161228
1813.6	0.0015153
1823.24	0.0015354
1832.89	0.00157313
1842.54	0.0017108
1852.18	0.0018931
1861.83	0.0019545
1871.47	0.0019493
1881.12	0.0017772
1890.77	0.00165749
1900.41	0.00163651
1910.06	0.0016873
1919.71	0.0018167
1929.35	0.0020801
1939	0.0020025
1948.65	0.0019385
1958.29	0.00157386
1967.94	0.001433
1977.59	0.001372
1987.23	0.001343
1996.88	0.001165
2006.53	0.00107
2016.17	0.001053
2025.82	0.001048
2035.47	0.00101
2045.11	0.000922
2054.76	0.000894
2064.41	0.000869
2074.05	0.00086
2083.7	0.000837
2093.35	0.000783
2102.99	0.000829
2112.64	0.000799
2122.28	0.000778
2131.93	0.000784
2141.58	0.00078
2151.22	0.000824
2160.87	0.000795
2170.52	0.000886
2180.16	0.00082
2189.81	0.000824
2199.46	0.000847
2209.1	0.000874
2218.75	0.000882
2228.4	0.000961
2238.04	0.000916
2247.69	0.000903
2257.34	0.000908
2266.98	0.000911
2276.63	0.000885
2286.28	0.000887
2295.92	0.000907
2305.57	0.000979
2315.22	0.000991
2324.86	0.000972
2334.51	0.000936
2344.16	0.000951
2353.8	0.000916
2363.45	0.000948
2373.09	0.000963
2382.74	0.000953
2392.39	0.000959
2402.03	0.001026
2411.68	0.001083
2421.33	0.001159
2430.97	0.001191
2440.62	0.001075
2450.27	0.000971
2459.91	0.00085
2469.56	0.000845
2479.21	0.000814
2488.85	0.000883
2498.5	0.000882
2508.15	0.000895
2517.79	0.000956
2527.44	0.000998
2537.09	0.001042
2546.73	0.001046
2556.38	0.001123
2566.03	0.001099
2575.67	0.001095
2585.32	0.001154
2594.96	0.001095
2604.61	0.00121
2614.26	0.001242
2623.9	0.001252
2633.55	0.001284
2643.2	0.001335
2652.84	0.00143
2662.49	0.0015342
2672.14	0.00158817
2681.78	0.00164561
2691.43	0.0017475
2701.08	0.0017003
2710.72	0.0017835
2720.37	0.00166899
2730.02	0.001832
2739.66	0.0020256
2749.31	0.0022444
2758.96	0.0023246
2768.6	0.0024692
2778.25	0.0025654
2787.9	0.00292
2797.54	0.00328
2807.19	0.00394
2816.84	0.00497
2826.48	0.00644
2836.13	0.00914
2845.77	0.01523
2855.42	0.02944
2865.07	0.04213
2874.71	0.03732
2884.36	0.03285
2894.01	0.03089
2903.65	0.04124
2913.3	0.05788
2922.95	0.08273
2932.59	0.10891
2942.24	0.09543
2951.89	0.06923
2961.53	0.06879
2971.18	0.06451
2980.83	0.03412
2990.47	0.01703
3000.12	0.01008
3009.77	0.00708
3019.41	0.00575
3029.06	0.00561
3038.71	0.00595
3048.35	0.00673
3058	0.0058
3067.64	0.00639
3077.29	0.00844
3086.94	0.00566
3096.58	0.00362
3106.23	0.00263
3115.88	0.0017786
3125.52	0.001141
3135.17	0.000947
3144.82	0.00075
3154.46	0.000769
3164.11	0.000639
3173.76	0.000606
3183.4	0.000584
3193.05	0.00046
3202.7	0.00041
3212.34	0.00028
3221.99	0.00029
3231.64	0.00016
3241.28	0.00021
3250.93	0.00013
3260.58	9e-05
3270.22	7e-05
3279.87	0.00012
3289.52	0.00016
3299.16	0.00016
3308.81	0.00012
3318.45	0.0001
3328.1	0.00022
3337.75	0.00012
3347.39	0.00015
3357.04	7e-05
3366.69	0.0001
3376.33	0.00019
3385.98	0.00029
3395.63	0.00024
3405.27	0.00012
3414.92	0.00018
3424.57	6e-05
3434.21	0.00013
3443.86	0.00028
3453.51	0.00014
3463.15	0.00021
3472.8	0.0001
3482.45	0.00026
3492.09	0.00013
3501.74	0.00022
3511.39	0.00025
3521.03	0.00012
3530.68	0.00033
3540.33	0.00023
3549.97	0.00021
3559.62	0.00028
3569.26	0.00032
3578.91	0.00026
3588.56	0.00054
3598.2	0.00035
3607.85	0.00034
3617.5	0.00053
3627.14	0.00041
3636.79	0.00056
3646.44	0.000589
3656.08	0.00056
3665.73	0.00066
3675.38	0.000623
3685.02	0.00065
3694.67	0.000574
3704.32	0.00052
3713.96	0.00062
3723.61	0.00055
3733.26	0.000593
3742.9	0.000623
3752.55	0.000601
3762.2	0.000619
3771.84	0.000665
3781.49	0.000654
3791.13	0.000732
3800.78	0.000698
3810.43	0.000698
3820.07	0.000652
3829.72	0.000682
3839.37	0.000632
3849.01	0.000716
3858.66	0.000713
3868.31	0.000837
3877.95	0.000791
3887.6	0.000765
3897.25	0.000799
3906.89	0.000834
3916.54	0.00082
3926.19	0.000859
3935.83	0.000803
3945.48	0.000857
3955.13	0.000915
3964.77	0.000926
3974.42	0.000957
3984.07	0.000991
3993.71	0.001002
