Infrared Spectrum: Phosphonic acid, ethyl-, dimethyl ester
Formula: C4 H11 O3 P
CAS: 6163-75-3
State: LIQUID (NEAT)
Class: COBLENTZ III
Instrument: PERKIN-ELMER 21 (GRATING)
Instrument parameters: FILTER CHANGE ABOUT 1075 CM^-^1
Sampling: TRANSMISSION
Path length: CAPILLARY
Resolution: 2
Origin: SOUTHERN RESEARCH INSTITUTE
1/CM	TRANSMITTANCE
599.2	0.804
608.241	0.809
617.282	0.8165
626.324	0.8273
635.365	0.8597
644.406	0.8699
653.447	0.8909
662.489	0.9078
671.53	0.9172
680.571	0.9188
689.612	0.9148
698.653	0.8993
707.695	0.8666
716.736	0.8255
725.777	0.7845
734.818	0.7434
743.859	0.7075
752.901	0.7459
761.942	0.7947
770.983	0.7887
780.024	0.7599
789.066	0.6865
798.107	0.5461
807.148	0.4892
816.189	0.4682
825.23	0.4343
834.272	0.3827
843.313	0.4231
852.354	0.5062
861.395	0.6944
870.437	0.7706
879.478	0.7802
888.519	0.7779
897.56	0.7703
906.601	0.7574
915.643	0.7385
924.684	0.7034
933.725	0.6258
942.766	0.4848
951.807	0.377
960.849	0.2734
969.89	0.1705
978.931	0.1466
987.972	0.214
997.014	0.3743
1006.05	0.3841
1015.1	0.2134
1024.14	0.0213
1033.18	0.0093
1042.22	0.0129
1051.26	0.0231
1060.3	0.1079
1069.34	0.1899
1078.38	0.2709
1087.43	0.3654
1096.47	0.4073
1105.51	0.4194
1114.55	0.5479
1123.59	0.6183
1132.63	0.6379
1141.67	0.6372
1150.71	0.6255
1159.76	0.5948
1168.8	0.461
1177.84	0.5353
1186.88	0.5784
1195.92	0.6033
1204.96	0.6693
1214	0.6943
1223.04	0.6849
1232.09	0.6559
1241.13	0.574
1250.17	0.4002
1259.21	0.199
1268.25	0.1222
1277.29	0.1275
1286.33	0.2342
1295.37	0.3682
1304.41	0.5086
1313.46	0.6343
1322.5	0.684
1331.54	0.7356
1340.58	0.7447
1349.62	0.7523
1358.66	0.747
1367.7	0.7179
1376.74	0.6631
1385.79	0.6986
1394.83	0.601
1403.87	0.6096
1412.91	0.7159
1421.95	0.7286
1430.99	0.7165
1440.03	0.6754
1449.07	0.6191
1458.12	0.6177
1467.16	0.6356
1476.2	0.6465
1485.24	0.6542
1494.28	0.7268
1503.32	0.7455
1512.36	0.7579
1521.4	0.7622
1530.45	0.7681
1539.49	0.7685
1548.53	0.7676
1557.57	0.7664
1566.61	0.7684
1575.65	0.7674
1584.69	0.7675
1593.73	0.7703
1602.78	0.7667
1611.82	0.7607
1620.86	0.755
1629.9	0.7514
1638.94	0.7445
1647.98	0.7484
1657.02	0.7531
1666.06	0.7607
1675.1	0.7622
1684.15	0.7582
1693.19	0.7661
1702.23	0.7644
1711.27	0.7625
1720.31	0.7601
1729.35	0.7564
1738.39	0.7519
1747.43	0.748
1756.48	0.745
1765.52	0.7446
1774.56	0.7479
1783.6	0.7548
1792.64	0.7603
1801.68	0.7638
1810.72	0.7643
1819.76	0.7618
1828.81	0.7567
1837.85	0.752
1846.89	0.7517
1855.93	0.7545
1864.97	0.7535
1874.01	0.7501
1883.05	0.7541
1892.09	0.7542
1901.14	0.7549
1910.18	0.7566
1919.22	0.7589
1928.26	0.7621
1937.3	0.7647
1946.34	0.7644
1955.38	0.7665
1964.42	0.7665
1973.47	0.7647
1982.51	0.7681
1991.55	0.7701
2000.59	0.767
2009.63	0.7643
2018.67	0.7668
2027.71	0.7643
2036.75	0.7639
2045.79	0.7679
2054.84	0.7703
2063.88	0.77
2072.92	0.7697
2081.96	0.7688
2091	0.7681
2100.04	0.7667
2109.08	0.7642
2118.12	0.7622
2127.17	0.7603
2136.21	0.7664
2145.25	0.7657
2154.29	0.7612
2163.33	0.76
2172.37	0.7614
2181.41	0.7641
2190.45	0.7649
2199.5	0.7641
2208.54	0.7627
2217.58	0.7613
2226.62	0.7623
2235.66	0.7638
2244.7	0.7631
2253.74	0.763
2262.78	0.7629
2271.83	0.7619
2280.87	0.7614
2289.91	0.7627
2298.95	0.7673
2307.99	0.7691
2317.03	0.7657
2326.07	0.7611
2335.11	0.7597
2344.15	0.7592
2353.2	0.7588
2362.24	0.7511
2371.28	0.7453
2380.32	0.7457
2389.36	0.7478
2398.4	0.7495
2407.44	0.7481
2416.48	0.747
2425.53	0.746
2434.57	0.7473
2443.61	0.7495
2452.65	0.7514
2461.69	0.7531
2470.73	0.7543
2479.77	0.7548
2488.81	0.7558
2497.86	0.7568
2506.9	0.7578
2515.94	0.7585
2524.98	0.7589
2534.02	0.7593
2543.06	0.7601
2552.1	0.7609
2561.14	0.7615
2570.19	0.762
2579.23	0.7622
2588.27	0.7611
2597.31	0.7601
2606.35	0.7588
2615.39	0.7575
2624.43	0.7561
2633.47	0.7551
2642.52	0.7541
2651.56	0.753
2660.6	0.7518
2669.64	0.7508
2678.68	0.7501
2687.72	0.7494
2696.76	0.7496
2705.8	0.7495
2714.84	0.7484
2723.89	0.7466
2732.93	0.7445
2741.97	0.7417
2751.01	0.7456
2760.05	0.7506
2769.09	0.7497
2778.13	0.7464
2787.17	0.7393
2796.22	0.7361
2805.26	0.7337
2814.3	0.7291
2823.34	0.7145
2832.38	0.6992
2841.42	0.6721
2850.46	0.6565
2859.5	0.6524
2868.55	0.6471
2877.59	0.64
2886.63	0.6274
2895.67	0.6011
2904.71	0.5639
2913.75	0.5583
2922.79	0.5448
2931.83	0.5268
2940.88	0.5176
2949.92	0.4902
2958.96	0.4639
2968	0.4358
2977.04	0.4005
2986.08	0.4188
2995.12	0.5032
3004.16	0.5868
3013.21	0.6406
3022.25	0.6696
3031.29	0.6783
3040.33	0.6857
3049.37	0.6976
3058.41	0.7037
3067.45	0.7182
3076.49	0.7219
3085.53	0.7239
3094.58	0.7249
3103.62	0.7254
3112.66	0.7274
3121.7	0.7274
3130.74	0.7267
3139.78	0.7272
3148.82	0.7279
3157.86	0.7289
3166.91	0.7288
3175.95	0.7285
3184.99	0.7279
3194.03	0.7273
3203.07	0.727
3212.11	0.7268
3221.15	0.7262
3230.19	0.7254
3239.24	0.7247
3248.28	0.7239
3257.32	0.722
3266.36	0.7202
3275.4	0.7185
3284.44	0.717
3293.48	0.7151
3302.52	0.713
3311.57	0.7122
3320.61	0.7102
3329.65	0.7078
3338.69	0.7119
3347.73	0.7083
3356.77	0.7057
3365.81	0.7045
3374.85	0.7005
3383.89	0.6917
3392.94	0.6867
3401.98	0.6778
3411.02	0.668
3420.06	0.6591
3429.1	0.6525
3438.14	0.6506
3447.18	0.6431
3456.22	0.634
3465.27	0.6282
3474.31	0.6259
3483.35	0.6253
3492.39	0.625
3501.43	0.6248
3510.47	0.625
3519.51	0.6218
3528.55	0.6227
3537.6	0.6281
3546.64	0.6311
3555.68	0.6418
3564.72	0.6542
3573.76	0.6595
3582.8	0.6689
3591.84	0.6805
3600.88	0.6883
3609.93	0.6962
3618.97	0.7029
3628.01	0.7061
3637.05	0.7073
3646.09	0.7083
3655.13	0.7179
3664.17	0.7207
3673.21	0.7238
3682.26	0.7267
3691.3	0.7291
3700.34	0.7311
3709.38	0.7324
3718.42	0.7336
3727.46	0.7347
3736.5	0.7349
3745.54	0.7328
3754.58	0.7315
3763.63	0.7321
3772.67	0.7343
3781.71	0.7374
3790.75	0.7395
3799.79	0.7408
3808.83	0.7403
3817.87	0.7382
3826.91	0.7407
3835.96	0.7438
3845	0.7424
3854.04	0.7394
3863.08	0.7378
3872.12	0.7371
3881.16	0.7366
3890.2	0.7366
3899.24	0.736
3908.29	0.7355
3917.33	0.7339
3926.37	0.729
3935.41	0.7251
3944.45	0.7241
3953.49	0.7259
3962.53	0.7277
3971.57	0.7283
3980.62	0.7338
3989.66	0.7301
3998.7	0.7253
4007.74	0.7254
4016.78	0.7266
4025.82	0.7285
4034.86	0.7305
4043.9	0.7354
4052.95	0.737
4061.99	0.7517
