Infrared Spectrum: Methyl pyrazine-2-carboxylate
Formula: C 6 H 6 N 2 O 2
CAS: 6164-79-0
State: gas
Origin: EPA-IR VAPOR PHASE LIBRARY
1/CM	ABSORBANCE
549.9	0.0002653
559.547	5.3e-05
569.193	0.0002559
578.84	0.000174
588.486	0.000187
598.133	0.000116
607.779	0.0002419
617.426	0.000218
627.072	0.000165
636.719	0.000133
646.365	0.000113
656.012	0.0002
665.658	0.000206
675.305	0.000168
684.951	0.000117
694.598	0.000149
704.245	0.000147
713.891	0.0003067
723.538	0.0009669
733.184	0.001246
742.831	0.0006255
752.477	0.0006981
762.124	0.0011256
771.77	0.001952
781.417	0.001512
791.063	0.0009468
800.71	0.0005947
810.356	0.0005775
820.003	0.0008436
829.649	0.0012049
839.296	0.0010978
848.943	0.0008648
858.589	0.0009496
868.236	0.0007371
877.882	0.0004669
887.529	0.00031317
897.175	0.0002595
906.822	0.000228
916.468	0.0002639
926.115	0.000212
935.761	0.000229
945.408	0.0003055
955.054	0.0005692
964.701	0.0008944
974.347	0.000906
983.994	0.0006548
993.64	0.0007133
1003.29	0.001782
1012.93	0.003082
1022.58	0.003062
1032.23	0.001392
1041.87	0.001562
1051.52	0.001592
1061.17	0.0011438
1070.81	0.0009564
1080.46	0.0011066
1090.11	0.001672
1099.75	0.002972
1109.4	0.005862
1119.05	0.011542
1128.69	0.018492
1138.34	0.018332
1147.99	0.011272
1157.63	0.006252
1167.28	0.003812
1176.92	0.002652
1186.57	0.002732
1196.22	0.002932
1205.86	0.002212
1215.51	0.0010062
1225.16	0.0006427
1234.8	0.0005961
1244.45	0.0008012
1254.1	0.0013189
1263.74	0.002982
1273.39	0.005702
1283.04	0.008402
1292.68	0.012962
1302.33	0.018282
1311.98	0.014732
1321.62	0.005632
1331.27	0.002492
1340.92	0.001562
1350.56	0.0011468
1360.21	0.0008601
1369.86	0.0007985
1379.5	0.0010693
1389.15	0.001822
1398.79	0.002232
1408.44	0.001822
1418.09	0.0012793
1427.73	0.001542
1437.38	0.002952
1447.03	0.003062
1456.67	0.001502
1466.32	0.0011313
1475.97	0.000881
1485.61	0.0006767
1495.26	0.0005592
1504.91	0.0005033
1514.55	0.0004699
1524.2	0.0005231
1533.85	0.0004734
1543.49	0.0004365
1553.14	0.0004705
1562.79	0.0005861
1572.43	0.0006436
1582.08	0.0004811
1591.73	0.00037095
1601.37	0.00034661
1611.02	0.00038152
1620.67	0.0004262
1630.31	0.0004441
1639.96	0.0005014
1649.6	0.0005167
1659.25	0.0004795
1668.9	0.0005161
1678.54	0.0005042
1688.19	0.0006248
1697.84	0.0009382
1707.48	0.001332
1717.13	0.002092
1726.78	0.004312
1736.42	0.008912
1746.07	0.010172
1755.72	0.008982
1765.36	0.007012
1775.01	0.006152
1784.66	0.005342
1794.3	0.002382
1803.95	0.0011659
1813.6	0.000732
1823.24	0.0005715
1832.89	0.0004501
1842.54	0.00037923
1852.18	0.0002893
1861.83	0.0003065
1871.47	0.0002907
1881.12	0.00036158
1890.77	0.0003771
1900.41	0.00034124
1910.06	0.00038661
1919.71	0.0004354
1929.35	0.0004844
1939	0.0004652
1948.65	0.0004337
1958.29	0.00040382
1967.94	0.0003069
1977.59	0.0002756
1987.23	0.0002721
1996.88	0.0002508
2006.53	0.0002455
2016.17	0.0002741
2025.82	0.0002337
2035.47	0.0002451
2045.11	0.0002334
2054.76	0.000163
2064.41	0.0002283
2074.05	0.0002465
2083.7	0.000274
2093.35	0.0002921
2102.99	0.00031579
2112.64	0.0002759
2122.28	0.00031897
2131.93	0.0003103
2141.58	0.000242
2151.22	0.0003001
2160.87	0.0002341
2170.52	0.0002356
2180.16	0.000214
2189.81	0.0002305
2199.46	0.000229
2209.1	0.000172
2218.75	0.0002308
2228.4	0.0002643
2238.04	0.0002329
2247.69	0.000259
2257.34	0.0002644
2266.98	0.0002728
2276.63	0.0002923
2286.28	0.0002569
2295.92	0.0002525
2305.57	0.0002819
2315.22	0.0002433
2324.86	0.0002394
2334.51	0.0002836
2344.16	0.00022
2353.8	0.0002683
2363.45	0.0002711
2373.09	0.0002622
2382.74	0.0002295
2392.39	0.0002729
2402.03	0.000262
2411.68	0.0002745
2421.33	0.0002784
2430.97	0.0002945
2440.62	0.0002483
2450.27	0.0002683
2459.91	0.0002514
2469.56	0.0002769
2479.21	0.000215
2488.85	0.0002539
2498.5	0.0002695
2508.15	0.0002994
2517.79	0.0002611
2527.44	0.0002609
2537.09	0.0002854
2546.73	0.0002429
2556.38	0.0003116
2566.03	0.0002587
2575.67	0.0003042
2585.32	0.0003388
2594.96	0.0003084
2604.61	0.000323136
2614.26	0.0002741
2623.9	0.0002942
2633.55	0.0002656
2643.2	0.0002927
2652.84	0.0002755
2662.49	0.0002837
2672.14	0.0002386
2681.78	0.0002775
2691.43	0.0003046
2701.08	0.0003092
2710.72	0.0002663
2720.37	0.0002693
2730.02	0.00031667
2739.66	0.0002883
2749.31	0.0002906
2758.96	0.0003366
2768.6	0.0003036
2778.25	0.0003068
2787.9	0.00031656
2797.54	0.0002648
2807.19	0.000322362
2816.84	0.00036819
2826.48	0.00039695
2836.13	0.0004977
2845.77	0.0006521
2855.42	0.0007738
2865.07	0.0007076
2874.71	0.0005047
2884.36	0.0005379
2894.01	0.0006766
2903.65	0.0006737
2913.3	0.0008017
2922.95	0.0008287
2932.59	0.0008611
2942.24	0.0010332
2951.89	0.002002
2961.53	0.003302
2971.18	0.002532
2980.83	0.0010953
2990.47	0.0010434
3000.12	0.0011717
3009.77	0.0011225
3019.41	0.0011307
3029.06	0.0010688
3038.71	0.001322
3048.35	0.001862
3058	0.002582
3067.64	0.002442
3077.29	0.001792
3086.94	0.0012035
3096.58	0.0007986
3106.23	0.0005813
3115.88	0.0005262
3125.52	0.0004226
3135.17	0.0003203
3144.82	0.000328703
3154.46	0.0002622
3164.11	0.0002785
3173.76	0.0002532
3183.4	0.000184
3193.05	0.000188
3202.7	0.0002683
3212.34	0.000291
3221.99	0.000113
3231.64	0.0002882
3241.28	0.00017
3250.93	0.000169
3260.58	0.0002398
3270.22	0.00028
3279.87	0.000191
3289.52	0.00013
3299.16	1.3e-05
3308.81	0.0002812
3318.45	0.000125
3328.1	0.000139
3337.75	0.0002539
3347.39	0.0002407
3357.04	0.000204
3366.69	0.000154
3376.33	0.0002223
3385.98	0.000116
3395.63	0.000113
3405.27	0.000164
3414.92	0.000115
3424.57	0.00019
3434.21	7.4e-05
3443.86	9.3e-05
3453.51	0.000194
3463.15	0.000143
3472.8	0.0002373
3482.45	0.000212
3492.09	0.0002554
3501.74	0.000211
3511.39	0.000169
3521.03	0.000199
3530.68	0.000161
3540.33	0.000112
3549.97	0.000173
3559.62	0.000164
3569.26	0.000151
3578.91	0.000199
3588.56	0.000166
3598.2	6.7e-05
3607.85	0.000107
3617.5	0.000125
3627.14	0.000112
3636.79	7.8e-05
3646.44	0.000144
3656.08	0.00014
3665.73	0.0002295
3675.38	0.000169
3685.02	0.00013
3694.67	0.000191
3704.32	0.000151
3713.96	0.000152
3723.61	0.000195
3733.26	0.000124
3742.9	0.0002363
3752.55	0.0002732
3762.2	0.000138
3771.84	0.0003009
3781.49	0.000207
3791.13	0.0002395
3800.78	0.0002616
3810.43	0.0002806
3820.07	0.0002764
3829.72	0.0002675
3839.37	0.000119
3849.01	0.00033706
3858.66	0.000233
3868.31	0.000282
3877.95	0.0002368
3887.6	0.0002782
3897.25	0.000222
3906.89	0.0002601
3916.54	0.0002845
3926.19	0.0002503
3935.83	0.0002753
3945.48	0.000205
3955.13	0.0002643
3964.77	0.00031727
3974.42	0.000245
3984.07	0.000166
3993.71	0.000194
