Infrared Spectrum: 2,4,6,8,10,12-HEXAMETHYLCYCLOHEXASILOXANE
Formula: C6 H24 O6 Si6
CAS: 6166-87-6
State: SOLUTION (5% IN CCl4 FOR 3800-1300, 1% IN CS2 FOR 1300-630, AND 5% IN CCl4 FOR 630-290 CM^-^1) VS. SOLVENT
Boiling point: 93 C
Class: COBLENTZ III
Instrument: PERKIN-ELMER 521 (GRATING)
Instrument parameters: FILTERS AT 3150, 2500, 2000, 1150, 700, 410. GRATING CHANGES: 2000, 630 CM^-^1
Sampling: TRANSMISSION
Path length: 0.011 CM, 0.011 CM, AND 0.021 CM
Resolution: 2
Origin: DOW CORNING CORP.
1/CM	TRANSMITTANCE
285.648	0.754
294.87	0.742
304.092	0.65
313.314	0.608
322.536	0.58
331.758	0.538
340.98	0.495
350.201	0.464
359.423	0.431
368.645	0.393
377.867	0.362
387.089	0.349
396.311	0.354
405.533	0.425
414.755	0.553
423.977	0.654
433.199	0.714
442.421	0.786
451.643	0.833
460.864	0.842
470.086	0.851
479.308	0.853
488.53	0.851
497.752	0.848
506.974	0.827
516.196	0.809
525.418	0.784
534.64	0.75
543.862	0.732
553.084	0.693
562.306	0.675
571.528	0.709
580.749	0.748
589.971	0.776
599.193	0.779
608.415	0.771
617.637	0.761
626.859	0.773
636.081	0.877
645.303	0.877
654.525	0.877
663.747	0.877
672.969	0.877
682.191	0.873
691.413	0.862
700.634	0.834
709.856	0.827
719.078	0.832
728.3	0.835
737.522	0.825
746.744	0.756
755.966	0.59
765.188	0.467
774.41	0.433
783.632	0.636
792.854	0.743
802.076	0.77
811.297	0.784
820.519	0.81
829.741	0.792
838.963	0.739
848.185	0.659
857.407	0.532
866.629	0.096
875.851	0.184
885.073	0.406
894.295	0.295
903.517	0.5
912.739	0.599
921.961	0.605
931.182	0.68
940.404	0.787
949.626	0.827
958.848	0.839
968.07	0.842
977.292	0.841
986.514	0.836
995.736	0.823
1004.96	0.791
1014.18	0.766
1023.4	0.73
1032.62	0.656
1041.85	0.586
1051.07	0.509
1060.29	0.404
1069.51	0.261
1078.73	0.157
1087.96	0.161
1097.18	0.197
1106.4	0.256
1115.62	0.342
1124.84	0.442
1134.06	0.543
1143.29	0.638
1152.51	0.694
1161.73	0.75
1170.95	0.78
1180.17	0.816
1189.4	0.835
1198.62	0.851
1207.84	0.858
1217.06	0.859
1226.28	0.856
1235.51	0.847
1244.73	0.816
1253.95	0.5997
1263.17	0.5992
1272.39	0.825
1281.62	0.861
1290.84	0.872
1300.06	0.765
1309.28	0.765
1318.5	0.765
1327.73	0.764
1336.95	0.764
1346.17	0.764
1355.39	0.763
1364.61	0.757
1373.83	0.74
1383.06	0.719
1392.28	0.701
1401.5	0.619
1410.72	0.5921
1419.94	0.6701
1429.17	0.706
1438.39	0.722
1447.61	0.732
1456.83	0.737
1466.05	0.754
1475.28	0.773
1484.5	0.786
1493.72	0.795
1502.94	0.801
1512.16	0.81
1521.39	0.822
1530.61	0.825
1539.83	0.827
1549.05	0.83
1558.27	0.83
1567.49	0.828
1576.72	0.822
1585.94	0.805
1595.16	0.797
1604.38	0.795
1613.6	0.794
1622.83	0.792
1632.05	0.791
1641.27	0.789
1650.49	0.788
1659.71	0.792
1668.94	0.795
1678.16	0.795
1687.38	0.795
1696.6	0.797
1705.82	0.803
1715.05	0.811
1724.27	0.818
1733.49	0.818
1742.71	0.818
1751.93	0.818
1761.16	0.818
1770.38	0.819
1779.6	0.819
1788.82	0.819
1798.04	0.819
1807.26	0.819
1816.49	0.823
1825.71	0.83
1834.93	0.831
1844.15	0.832
1853.37	0.834
1862.6	0.841
1871.82	0.847
1881.04	0.851
1890.26	0.855
1899.48	0.856
1908.71	0.856
1917.93	0.856
1927.15	0.855
1936.37	0.854
1945.59	0.854
1954.82	0.854
1964.04	0.853
1973.26	0.851
1982.48	0.851
1991.7	0.854
2000.93	0.8155
2010.15	0.845
2019.37	0.857
2028.59	0.858
2037.81	0.8604
2047.03	0.862
2056.26	0.861
2065.48	0.8552
2074.7	0.851
2083.92	0.8461
2093.14	0.836
2102.37	0.8017
2111.59	0.7787
2120.81	0.7207
2130.03	0.6293
2139.25	0.4699
2148.48	0.2956
2157.7	0.1217
2166.92	0.048
2176.14	0.0559
2185.36	0.1258
2194.59	0.2103
2203.81	0.3658
2213.03	0.515
2222.25	0.6447
2231.47	0.7179
2240.7	0.776
2249.92	0.8071
2259.14	0.8238
2268.36	0.8339
2277.58	0.8539
2286.8	0.858
2296.03	0.8631
2305.25	0.8641
2314.47	0.866
2323.69	0.8674
2332.91	0.8713
2342.14	0.874
2351.36	0.876
2360.58	0.876
2369.8	0.877
2379.02	0.877
2388.25	0.877
2397.47	0.878
2406.69	0.878
2415.91	0.878
2425.13	0.878
2434.36	0.878
2443.58	0.878
2452.8	0.878
2462.02	0.878
2471.24	0.878
2480.47	0.878
2489.69	0.878
2498.91	0.878
2508.13	0.878
2517.35	0.878
2526.57	0.878
2535.8	0.879
2545.02	0.879
2554.24	0.879
2563.46	0.879
2572.68	0.879
2581.91	0.879
2591.13	0.878
2600.35	0.878
2609.57	0.878
2618.79	0.877
2628.02	0.877
2637.24	0.877
2646.46	0.877
2655.68	0.877
2664.9	0.876
2674.13	0.874
2683.35	0.874
2692.57	0.874
2701.79	0.874
2711.01	0.874
2720.24	0.874
2729.46	0.874
2738.68	0.874
2747.9	0.8735
2757.12	0.872
2766.34	0.87
2775.57	0.8678
2784.79	0.8653
2794.01	0.865
2803.23	0.864
2812.45	0.8632
2821.68	0.863
2830.9	0.864
2840.12	0.8611
2849.34	0.855
2858.56	0.8499
2867.79	0.8469
2877.01	0.8405
2886.23	0.8308
2895.45	0.8117
2904.67	0.81
2913.9	0.812
2923.12	0.8086
2932.34	0.8001
2941.56	0.7925
2950.78	0.7451
2960	0.5955
2969.23	0.4797
2978.45	0.642
2987.67	0.7988
2996.89	0.8312
3006.11	0.8487
3015.34	0.8559
3024.56	0.857
3033.78	0.857
3043	0.858
3052.22	0.859
3061.45	0.861
3070.67	0.861
3079.89	0.8605
3089.11	0.863
3098.33	0.866
3107.56	0.866
3116.78	0.8664
3126	0.874
3135.22	0.876
3144.44	0.876
3153.67	0.877
3162.89	0.877
3172.11	0.878
3181.33	0.878
3190.55	0.878
3199.77	0.878
3209	0.878
3218.22	0.878
3227.44	0.878
3236.66	0.8781
3245.88	0.879
3255.11	0.8792
3264.33	0.88
3273.55	0.8803
3282.77	0.881
3291.99	0.881
3301.22	0.882
3310.44	0.882
3319.66	0.882
3328.88	0.884
3338.1	0.886
3347.33	0.887
3356.55	0.887
3365.77	0.887
3374.99	0.888
3384.21	0.888
3393.44	0.888
3402.66	0.888
3411.88	0.889
3421.1	0.8901
3430.32	0.892
3439.54	0.892
3448.77	0.892
3457.99	0.892
3467.21	0.892
3476.43	0.892
3485.65	0.892
3494.88	0.892
3504.1	0.892
3513.32	0.892
3522.54	0.892
3531.76	0.892
3540.99	0.892
3550.21	0.893
3559.43	0.893
3568.65	0.893
3577.87	0.894
3587.1	0.894
3596.32	0.894
3605.54	0.894
3614.76	0.8929
3623.98	0.89
3633.21	0.889
3642.43	0.888
3651.65	0.8877
3660.87	0.887
3670.09	0.887
3679.31	0.8884
3688.54	0.89
3697.76	0.89
3706.98	0.89
3716.2	0.89
3725.42	0.89
3734.65	0.89
3743.87	0.8948
3753.09	0.897
3762.31	0.897
3771.53	0.895
3780.76	0.894
3789.98	0.894
