Infrared Spectrum: 2,4,6,8,10-PENTAMETHYLCYCLOPENTASILOXANE
Formula: C5 H20 O5 Si5
CAS: 6166-86-5
State: SOLUTION (5% IN CCl4 FOR 3800-1310, 2% IN CS2 FOR 1310-600, AND 5% IN CCl4 FOR 600-250 CM^-^1) VS. SOLVENT
Boiling point: 168.7 C
Class: COBLENTZ III
Instrument: PERKIN-ELMER 521 (GRATING)
Instrument parameters: FILTERS AT 3150, 2500, 2000, 1150, 700, 410. GRATING CHANGES: 2000, 630 CM^-^1
Sampling: TRANSMISSION
Path length: 0.011 CM, 0.011 CM, AND 0.021 CM
Resolution: 2
Origin: DOW CORNING CORP.
1/CM	TRANSMITTANCE
220.889	0.771
230.122	0.769
239.354	0.763
248.587	0.75
257.819	0.741
267.052	0.731
276.284	0.716
285.517	0.687
294.75	0.628
303.982	0.572
313.215	0.529
322.447	0.469
331.68	0.427
340.912	0.378
350.145	0.345
359.378	0.323
368.61	0.32
377.843	0.336
387.075	0.359
396.308	0.422
405.54	0.53
414.773	0.662
424.006	0.753
433.238	0.804
442.471	0.827
451.703	0.84
460.936	0.848
470.168	0.842
479.401	0.838
488.634	0.834
497.866	0.824
507.099	0.804
516.331	0.75
525.564	0.725
534.796	0.733
544.029	0.729
553.262	0.691
562.494	0.691
571.727	0.725
580.959	0.761
590.192	0.787
599.424	0.819
608.657	0.833
617.89	0.833
627.122	0.833
636.355	0.833
645.587	0.833
654.82	0.833
664.052	0.833
673.285	0.83
682.518	0.809
691.75	0.787
700.983	0.752
710.215	0.756
719.448	0.762
728.68	0.755
737.913	0.695
747.146	0.514
756.378	0.353
765.611	0.231
774.843	0.3051
784.076	0.632
793.308	0.706
802.541	0.738
811.774	0.745
821.006	0.741
830.239	0.707
839.471	0.657
848.704	0.562
857.936	0.3369
867.169	0.037
876.401	0.059
885.634	0.144
894.867	0.2261
904.099	0.454
913.332	0.429
922.564	0.485
931.797	0.659
941.029	0.729
950.262	0.754
959.495	0.769
968.727	0.771
977.96	0.769
987.192	0.758
996.425	0.734
1005.66	0.702
1014.89	0.654
1024.12	0.601
1033.36	0.536
1042.59	0.45
1051.82	0.331
1061.05	0.171
1070.29	0.056
1079.52	0.039
1088.75	0.037
1097.98	0.051
1107.22	0.117
1116.45	0.212
1125.68	0.354
1134.91	0.458
1144.15	0.545
1153.38	0.619
1162.61	0.676
1171.84	0.724
1181.08	0.762
1190.31	0.784
1199.54	0.794
1208.77	0.8
1218.01	0.797
1227.24	0.785
1236.47	0.734
1245.7	0.626
1254.94	0.125
1264.17	0.738
1273.4	0.792
1282.63	0.792
1291.87	0.792
1301.1	0.792
1310.33	0.793
1319.56	0.793
1328.8	0.793
1338.03	0.793
1347.26	0.792
1356.5	0.791
1365.73	0.783
1374.96	0.754
1384.19	0.733
1393.43	0.692
1402.66	0.652
1411.89	0.699
1421.12	0.776
1430.36	0.781
1439.59	0.786
1448.82	0.795
1458.05	0.795
1467.29	0.796
1476.52	0.808
1485.75	0.808
1494.98	0.815
1504.22	0.816
1513.45	0.816
1522.68	0.816
1531.91	0.817
1541.15	0.819
1550.38	0.822
1559.61	0.823
1568.84	0.819
1578.08	0.809
1587.31	0.796
1596.54	0.794
1605.77	0.795
1615.01	0.796
1624.24	0.799
1633.47	0.795
1642.7	0.795
1651.94	0.797
1661.17	0.804
1670.4	0.814
1679.64	0.819
1688.87	0.82
1698.1	0.818
1707.33	0.818
1716.57	0.817
1725.8	0.816
1735.03	0.818
1744.26	0.823
1753.5	0.827
1762.73	0.828
1771.96	0.828
1781.19	0.826
1790.43	0.825
1799.66	0.822
1808.89	0.822
1818.12	0.827
1827.36	0.83
1836.59	0.83
1845.82	0.83
1855.05	0.835
1864.29	0.846
1873.52	0.849
1882.75	0.85
1891.98	0.855
1901.22	0.855
1910.45	0.856
1919.68	0.856
1928.91	0.855
1938.15	0.854
1947.38	0.853
1956.61	0.851
1965.84	0.85
1975.08	0.853
1984.31	0.851
1993.54	0.85
2002.78	0.8505
2012.01	0.8521
2021.24	0.854
2030.47	0.855
2039.71	0.855
2048.94	0.855
2058.17	0.854
2067.4	0.8501
2076.64	0.8421
2085.87	0.8311
2095.1	0.812
2104.33	0.7777
2113.57	0.7321
2122.8	0.6434
2132.03	0.5322
2141.26	0.3448
2150.5	0.1194
2159.73	0.0532
2168.96	0.0492
2178.19	0.0754
2187.43	0.1364
2196.66	0.2624
2205.89	0.4362
2215.12	0.5783
2224.36	0.6808
2233.59	0.7474
2242.82	0.7851
2252.05	0.8115
2261.29	0.8238
2270.52	0.8389
2279.75	0.848
2288.98	0.854
2298.22	0.8621
2307.45	0.8701
2316.68	0.872
2325.92	0.873
2335.15	0.873
2344.38	0.873
2353.61	0.872
2362.85	0.871
2372.08	0.8695
2381.31	0.869
2390.54	0.8679
2399.78	0.867
2409.01	0.869
2418.24	0.871
2427.47	0.873
2436.71	0.873
2445.94	0.872
2455.17	0.872
2464.4	0.874
2473.64	0.874
2482.87	0.871
2492.1	0.869
2501.33	0.866
2510.57	0.866
2519.8	0.866
2529.03	0.866
2538.26	0.866
2547.5	0.867
2556.73	0.8679
2565.96	0.869
2575.19	0.869
2584.43	0.869
2593.66	0.869
2602.89	0.867
2612.12	0.8685
2621.36	0.872
2630.59	0.869
2639.82	0.8672
2649.05	0.8661
2658.29	0.866
2667.52	0.866
2676.75	0.866
2685.99	0.866
2695.22	0.867
2704.45	0.867
2713.68	0.867
2722.92	0.867
2732.15	0.869
2741.38	0.866
2750.61	0.864
2759.85	0.8635
2769.08	0.8602
2778.31	0.8547
2787.54	0.854
2796.78	0.853
2806.01	0.853
2815.24	0.854
2824.47	0.854
2833.71	0.854
2842.94	0.854
2852.17	0.85
2861.4	0.8409
2870.64	0.8359
2879.87	0.8308
2889.1	0.8216
2898.33	0.815
2907.57	0.8173
2916.8	0.823
2926.03	0.8186
2935.26	0.8058
2944.5	0.7834
2953.73	0.6859
2962.96	0.487
2972.19	0.5486
2981.43	0.7599
2990.66	0.8066
2999.89	0.8378
3009.13	0.8459
3018.36	0.848
3027.59	0.849
3036.82	0.85
3046.06	0.851
3055.29	0.851
3064.52	0.851
3073.75	0.851
3082.99	0.851
3092.22	0.851
3101.45	0.851
3110.68	0.851
3119.92	0.8571
3129.15	0.865
3138.38	0.8635
3147.61	0.864
3156.85	0.865
3166.08	0.866
3175.31	0.866
3184.54	0.866
3193.78	0.866
3203.01	0.866
3212.24	0.865
3221.47	0.865
3230.71	0.864
3239.94	0.864
3249.17	0.863
3258.4	0.863
3267.64	0.864
3276.87	0.864
3286.1	0.864
3295.33	0.864
3304.57	0.864
3313.8	0.864
3323.03	0.865
3332.27	0.865
3341.5	0.865
3350.73	0.865
3359.96	0.865
3369.2	0.865
3378.43	0.865
3387.66	0.865
3396.89	0.865
3406.13	0.865
3415.36	0.865
3424.59	0.867
3433.82	0.87
3443.06	0.87
3452.29	0.869
3461.52	0.869
3470.75	0.87
3479.99	0.871
3489.22	0.871
3498.45	0.871
3507.68	0.871
3516.92	0.87
3526.15	0.87
3535.38	0.8707
3544.61	0.871
3553.85	0.871
3563.08	0.871
3572.31	0.871
3581.54	0.87
3590.78	0.87
3600.01	0.87
3609.24	0.87
3618.47	0.87
3627.71	0.87
3636.94	0.87
3646.17	0.8668
3655.41	0.865
3664.64	0.863
3673.87	0.8568
3683.1	0.8549
3692.34	0.8645
3701.57	0.866
3710.8	0.865
3720.03	0.8634
3729.27	0.8589
3738.5	0.857
3747.73	0.8618
3756.96	0.8648
3766.2	0.871
3775.43	0.872
3784.66	0.872
3793.89	0.872
