Infrared Spectrum: D-2-Octanol
Formula: C 8 H 18 O
CAS: 6169-06-8
State: gas
Origin: EPA-IR VAPOR PHASE LIBRARY
1/CM	ABSORBANCE
549.8	0.00135
559.445	0.0009931
569.09	0.0009722
578.734	0.00102
588.379	0.00106
598.024	0.00123
607.669	0.0009236
617.313	0.0009972
626.958	0.0009185
636.603	0.000739
646.248	0.0008067
655.893	0.0008415
665.537	0.000936
675.182	0.00104
684.827	0.0009745
694.472	0.00127
704.116	0.00168
713.761	0.00244
723.406	0.00287
733.051	0.00268
742.695	0.00216
752.34	0.00199
761.985	0.00189
771.63	0.00163
781.275	0.00169
790.919	0.00181
800.564	0.00203
810.209	0.00221
819.854	0.00271
829.498	0.00342
839.143	0.0043
848.788	0.00445
858.433	0.00419
868.078	0.0039
877.722	0.00403
887.367	0.0045
897.012	0.00522
906.657	0.00681
916.301	0.00895
925.946	0.01064
935.591	0.01118
945.236	0.00961
954.88	0.008
964.525	0.00799
974.17	0.00893
983.815	0.00914
993.46	0.00878
1003.1	0.00878
1012.75	0.00917
1022.39	0.01067
1032.04	0.01324
1041.68	0.01626
1051.33	0.01809
1060.97	0.01877
1070.62	0.01879
1080.26	0.01932
1089.91	0.02043
1099.55	0.01973
1109.2	0.01835
1118.84	0.01814
1128.49	0.01955
1138.13	0.01835
1147.78	0.01468
1157.42	0.01035
1167.07	0.00825
1176.71	0.00801
1186.36	0.00855
1196	0.00933
1205.64	0.00957
1215.29	0.01055
1224.93	0.01208
1234.58	0.0143
1244.22	0.01559
1253.87	0.0142
1263.51	0.01187
1273.16	0.01005
1282.8	0.00893
1292.45	0.00818
1302.09	0.00804
1311.74	0.00787
1321.38	0.00817
1331.03	0.00935
1340.67	0.01144
1350.32	0.01352
1359.96	0.01598
1369.61	0.02037
1379.25	0.02488
1388.9	0.02237
1398.54	0.01544
1408.18	0.01052
1417.83	0.00809
1427.47	0.00784
1437.12	0.0098
1446.76	0.01357
1456.41	0.01746
1466.05	0.0173
1475.7	0.0121
1485.34	0.00686
1494.99	0.00403
1504.63	0.0027
1514.28	0.00209
1523.92	0.00171
1533.57	0.00143
1543.21	0.00114
1552.86	0.00103
1562.5	0.0009065
1572.15	0.0008679
1581.79	0.0008044
1591.44	0.0007925
1601.08	0.0007742
1610.73	0.0007353
1620.37	0.0006785
1630.01	0.0006717
1639.66	0.0006189
1649.3	0.0005795
1658.95	0.0006273
1668.59	0.0005979
1678.24	0.0006267
1687.88	0.0006307
1697.53	0.000707
1707.17	0.0006878
1716.82	0.0005608
1726.46	0.0004251
1736.11	0.0003948
1745.75	0.0004197
1755.4	0.0004068
1765.04	0.0004567
1774.69	0.000383
1784.33	0.0003956
1793.98	0.0003648
1803.62	0.0003964
1813.27	0.0003819
1822.91	0.0003903
1832.55	0.0003526
1842.2	0.0003466
1851.84	0.0003462
1861.49	0.0003629
1871.13	0.0003581
1880.78	0.0003429
1890.42	0.00035
1900.07	0.0003486
1909.71	0.0003039
1919.36	0.0003471
1929	0.0003167
1938.65	0.0002773
1948.29	0.0002855
1957.94	0.0003438
1967.58	0.0003196
1977.23	0.0003345
1986.87	0.0003001
1996.52	0.0003044
2006.16	0.0002943
2015.81	0.0003419
2025.45	0.0003786
2035.1	0.0003989
2044.74	0.0003941
2054.38	0.0003765
2064.03	0.0003317
2073.67	0.0003253
2083.32	0.0003329
2092.96	0.0003134
2102.61	0.0003646
2112.25	0.0003002
2121.9	0.00031
2131.54	0.0003242
2141.19	0.0003621
2150.83	0.00036
2160.48	0.0004268
2170.12	0.0004034
2179.77	0.0004273
2189.41	0.0004454
2199.06	0.0003918
2208.7	0.000454
2218.35	0.0004532
2227.99	0.0004199
2237.64	0.0004302
2247.28	0.0003664
2256.92	0.0003882
2266.57	0.0003897
2276.21	0.0004766
2285.86	0.0004582
2295.5	0.000481
2305.15	0.0004514
2314.79	0.0005124
2324.44	0.0005327
2334.08	0.0005534
2343.73	0.0005839
2353.37	0.0006316
2363.02	0.0005709
2372.66	0.0005991
2382.31	0.0006085
2391.95	0.0006299
2401.6	0.0006261
2411.24	0.0006924
2420.89	0.0006295
2430.53	0.0006315
2440.18	0.0006177
2449.82	0.0005532
2459.47	0.0005782
2469.11	0.0005431
2478.75	0.0005818
2488.4	0.0005888
2498.04	0.0006243
2507.69	0.0006231
2517.33	0.0006872
2526.98	0.0006912
2536.62	0.0007686
2546.27	0.0007922
2555.91	0.0008484
2565.56	0.0009788
2575.2	0.00108
2584.85	0.00125
2594.49	0.00133
2604.14	0.00148
2613.78	0.00158
2623.43	0.00178
2633.07	0.00195
2642.72	0.00214
2652.36	0.00234
2662.01	0.0025
2671.65	0.00265
2681.29	0.00254
2690.94	0.00249
2700.58	0.00245
2710.23	0.00241
2719.87	0.00256
2729.52	0.00286
2739.16	0.00323
2748.81	0.0034
2758.45	0.00348
2768.1	0.00364
2777.74	0.00405
2787.39	0.00482
2797.03	0.00576
2806.68	0.00708
2816.32	0.00878
2825.97	0.01144
2835.61	0.0166
2845.26	0.02724
2854.9	0.04565
2864.55	0.06351
2874.19	0.06957
2883.84	0.06677
2893.48	0.06074
2903.12	0.06663
2912.77	0.09116
2922.41	0.13224
2932.06	0.16684
2941.7	0.15507
2951.35	0.1166
2960.99	0.10549
2970.64	0.10854
2980.28	0.0793
2989.93	0.04168
2999.57	0.02033
3009.22	0.01242
3018.86	0.00882
3028.51	0.00671
3038.15	0.00532
3047.8	0.00435
3057.44	0.00373
3067.09	0.00328
3076.73	0.0029
3086.38	0.00272
3096.02	0.00251
3105.67	0.00216
3115.31	0.00197
3124.95	0.00181
3134.6	0.00174
3144.24	0.00156
3153.89	0.00148
3163.53	0.00148
3173.18	0.00141
3182.82	0.00133
3192.47	0.0013
3202.11	0.00109
3211.76	0.0009419
3221.4	0.0006485
3231.05	0.0005541
3240.69	0.0004123
3250.34	0.0004533
3259.98	0.0003778
3269.63	0.0003063
3279.27	0.0003051
3288.92	0.0003538
3298.56	0.0002464
3308.21	0.0003006
3317.85	0.0002222
3327.49	0.0002958
3337.14	0.0002907
3346.78	0.0003958
3356.43	0.0004106
3366.07	0.0004388
3375.72	0.0005389
3385.36	0.0005552
3395.01	0.0005467
3404.65	0.0005665
3414.3	0.0006243
3423.94	0.0007029
3433.59	0.0006426
3443.23	0.0007321
3452.88	0.0006242
3462.52	0.0005415
3472.17	0.0005134
3481.81	0.0004815
3491.46	0.0003819
3501.1	0.0003456
3510.75	0.0002952
3520.39	0.0003556
3530.04	0.0002932
3539.68	0.000292
3549.32	0.0003327
3558.97	0.0003997
3568.61	0.0005284
3578.26	0.0003978
3587.9	0.0005548
3597.55	0.0005609
3607.19	0.000938
3616.84	0.00155
3626.48	0.00276
3636.13	0.0045
3645.77	0.00718
3655.42	0.00906
3665.06	0.00649
3674.71	0.0032
3684.35	0.00172
3694	0.00115
3703.64	0.0008503
3713.29	0.0007272
3722.93	0.0005181
3732.58	0.0006168
3742.22	0.0004767
3751.86	0.0005279
3761.51	0.0005117
3771.15	0.0005857
3780.8	0.0004795
3790.44	0.0005644
3800.09	0.0005441
3809.73	0.0006652
3819.38	0.0005483
3829.02	0.0006682
3838.67	0.0006536
3848.31	0.0007397
3857.96	0.0007132
3867.6	0.0006303
3877.25	0.0005398
3886.89	0.0004186
3896.54	0.0006236
3906.18	0.0005436
3915.83	0.0005478
3925.47	0.0004929
3935.12	0.0004538
3944.76	0.000476
3954.41	0.0004992
3964.05	0.0003963
3973.69	0.0005754
3983.34	0.0005596
3992.98	0.0005429
