Infrared Spectrum: Carbanilide, 2,2'-dimethyl-
Formula: C15 H16 N2 O
CAS: 617-07-2
State: SOLID (OIL MULL)
Melting point: 255 C DECOMP.
Class: COBLENTZ III
Instrument: BAIRD (GRATING)
Instrument parameters: NaCl PRISM
Sampling: TRANSMISSION
Resolution: 2
Origin: WYANDOTTE CHEMICALS CORP..
1/CM	TRANSMITTANCE
626	0.7247
635	0.7429
644	0.751
653	0.7259
662	0.6531
671	0.614
680	0.7054
689	0.8653
698	0.9284
707	0.9312
716	0.8897
725	0.7801
734	0.7917
743	0.6097
752	0.5085
761	0.7095
770	0.9679
779	0.9833
788	0.9853
797	0.9857
806	0.9831
815	0.9803
824	0.9737
833	0.9559
842	0.9493
851	0.9289
860	0.9727
869	0.9798
878	0.9829
887	0.9612
896	0.9225
905	0.9156
914	0.8937
923	0.9064
932	0.959
941	0.9613
950	0.9789
959	0.971
968	0.9629
977	0.9569
986	0.9523
995	0.9381
1004	0.9119
1013	0.8633
1022	0.8849
1031	0.8811
1040	0.8306
1049	0.7766
1058	0.9058
1067	0.9072
1076	0.8969
1085	0.8907
1094	0.8852
1103	0.8678
1112	0.8097
1121	0.801
1130	0.8388
1139	0.8073
1148	0.7736
1157	0.7208
1166	0.6552
1175	0.5453
1184	0.5614
1193	0.7402
1202	0.7359
1211	0.6339
1220	0.6352
1229	0.743
1238	0.7241
1247	0.5166
1256	0.5613
1265	0.7881
1274	0.8196
1283	0.7993
1292	0.6139
1301	0.582
1310	0.7034
1319	0.8128
1328	0.8136
1337	0.8103
1346	0.8088
1355	0.8046
1364	0.7263
1373	0.6355
1382	0.5817
1391	0.7491
1400	0.8371
1409	0.8327
1418	0.8038
1427	0.7684
1436	0.7189
1445	0.6014
1454	0.4349
1463	0.3131
1472	0.3171
1481	0.502
1490	0.5993
1499	0.6269
1508	0.6463
1517	0.6358
1526	0.602
1535	0.4899
1544	0.3786
1553	0.2721
1562	0.2588
1571	0.3493
1580	0.4641
1589	0.5272
1598	0.4312
1607	0.3991
1616	0.5569
1625	0.5365
1634	0.4904
1643	0.341
1652	0.2442
1661	0.5981
1670	0.7415
1679	0.8455
1688	0.8955
1697	0.9247
1706	0.9228
1715	0.9174
1724	0.9094
1733	0.8957
1742	0.8705
1751	0.8354
1760	0.8225
1769	0.8776
1778	0.9225
1787	0.9385
1796	0.9482
1805	0.9531
1814	0.9559
1823	0.9574
1832	0.9577
1841	0.9573
1850	0.9562
1859	0.9544
1868	0.9512
1877	0.9485
1886	0.9473
1895	0.9461
1904	0.9449
1913	0.9435
1922	0.9421
1931	0.9412
1940	0.9403
1949	0.939
1958	0.9362
1967	0.9328
1976	0.9331
1985	0.9331
1994	0.9328
2003	0.9322
2012	0.9315
2021	0.9299
2030	0.9282
2039	0.9253
2048	0.9216
2057	0.9187
2066	0.9174
2075	0.9162
2084	0.9158
2093	0.9152
2102	0.9136
2111	0.9098
2120	0.9064
2129	0.9044
2138	0.9024
2147	0.9013
2156	0.8971
2165	0.8937
2174	0.8912
2183	0.8887
2192	0.8864
2201	0.8842
2210	0.8822
2219	0.8804
2228	0.8792
2237	0.8783
2246	0.8772
2255	0.876
2264	0.8739
2273	0.8712
2282	0.8648
2291	0.859
2300	0.8559
2309	0.8532
2318	0.8514
2327	0.8498
2336	0.8485
2345	0.8472
2354	0.8459
2363	0.8444
2372	0.8431
2381	0.8423
2390	0.8435
2399	0.8446
2408	0.8416
2417	0.8366
2426	0.8324
2435	0.831
2444	0.8297
2453	0.8287
2462	0.8278
2471	0.8271
2480	0.8255
2489	0.8221
2498	0.8174
2507	0.8128
2516	0.8085
2525	0.8042
2534	0.8
2543	0.7962
2552	0.7926
2561	0.7889
2570	0.7861
2579	0.7833
2588	0.7806
2597	0.778
2606	0.7759
2615	0.7742
2624	0.7724
2633	0.7692
2642	0.7659
2651	0.7627
2660	0.7595
2669	0.7561
2678	0.7528
2687	0.7497
2696	0.7471
2705	0.7446
2714	0.7422
2723	0.7397
2732	0.738
2741	0.7364
2750	0.7348
2759	0.7337
2768	0.7311
2777	0.7197
2786	0.7032
2795	0.6902
2804	0.6758
2813	0.6581
2822	0.6355
2831	0.6094
2840	0.4777
2849	0.3699
2858	0.2629
2867	0.1687
2876	0.1556
2885	0.1547
2894	0.1537
2903	0.15
2912	0.1251
2921	0.0988
2930	0.0727
2939	0.0543
2948	0.0522
2957	0.0522
2966	0.0561
2975	0.0729
2984	0.106
2993	0.1509
3002	0.2701
3011	0.3952
3020	0.4648
3029	0.4937
3038	0.5151
3047	0.5281
3056	0.5376
3065	0.5466
3074	0.5526
3083	0.5577
3092	0.5612
3101	0.5618
3110	0.5615
3119	0.5606
3128	0.5586
3137	0.5566
3146	0.5541
3155	0.5497
3164	0.5449
3173	0.5392
3182	0.533
3191	0.5262
3200	0.5194
3209	0.5098
3218	0.4955
3227	0.4808
3236	0.4658
3245	0.4503
3254	0.429
3263	0.3996
3272	0.3704
3281	0.3413
3290	0.3135
3299	0.3092
3308	0.3296
3317	0.3912
3326	0.4525
3335	0.5134
3344	0.5741
3353	0.6193
3362	0.633
3371	0.6426
3380	0.6469
3389	0.6494
3398	0.6503
3407	0.6506
3416	0.6507
3425	0.6507
3434	0.6503
3443	0.6496
3452	0.6489
3461	0.6483
3470	0.6474
3479	0.646
3488	0.6446
3497	0.6432
3506	0.6417
3515	0.6404
3524	0.6394
3533	0.6383
3542	0.6372
3551	0.6362
3560	0.6352
3569	0.6341
3578	0.6332
3587	0.6323
3596	0.6314
3605	0.6304
3614	0.6291
3623	0.6276
3632	0.6261
3641	0.6246
3650	0.6232
3659	0.6217
3668	0.6203
3677	0.6189
3686	0.6177
3695	0.6165
3704	0.6152
3713	0.614
3722	0.6128
3731	0.6116
3740	0.6104
3749	0.6092
3758	0.608
3767	0.6068
3776	0.6055
3785	0.6038
3794	0.602
3803	0.6003
3812	0.5985
3821	0.5968
3830	0.5951
3839	0.5933
3848	0.5913
3857	0.5889
3866	0.5866
3875	0.5843
3884	0.5819
3893	0.5797
3902	0.5775
3911	0.576
3920	0.5745
3929	0.573
3938	0.5716
3947	0.57
3956	0.5686
3965	0.5672
3974	0.5656
3983	0.5642
3992	0.563
