Infrared Spectrum: 2,3-BUTANEDIONE-2-METHOXIME
Formula: C5 H9 N O2
CAS: 617-32-3
State: LIQUID
Boiling point: 125-127 C
Class: COBLENTZ
Instrument: Not specified, most likely a prism, grating, or hybrid spectrometer.
Sampling: TRANSMISSION
Path length: 0.003 CM
Resolution: 4
Origin: WYANDOTTE CHEMICALS CORP., WYANDOTTE, MICHIGAN, USA
MICROMETERS	TRANSMITTANCE
2.035	0.975
2.07492	0.97
2.11484	0.971
2.15476	0.956
2.19469	0.923
2.23461	0.94
2.27453	0.958
2.31445	0.963
2.35437	0.958
2.39429	0.951
2.43422	0.956
2.47414	0.96
2.51406	0.963
2.55398	0.973
2.5939	0.976
2.63382	0.978
2.67375	0.973
2.71367	0.958
2.75359	0.963
2.79351	0.958
2.83343	0.961
2.87335	0.961
2.91327	0.956
2.9532	0.943
2.99312	0.897
3.03304	0.946
3.07296	0.953
3.11288	0.948
3.1528	0.932
3.19273	0.908
3.23265	0.887
3.27257	0.829
3.31249	0.538
3.35241	0.414
3.39233	0.315
3.43226	0.57
3.47218	0.737
3.5121	0.799
3.55202	0.696
3.59194	0.913
3.63186	0.946
3.67178	0.953
3.71171	0.96
3.75163	0.958
3.79155	0.953
3.83147	0.958
3.87139	0.961
3.91131	0.971
3.95124	0.975
3.99116	0.968
4.03108	0.968
4.071	0.961
4.11092	0.971
4.15084	0.97
4.19077	0.963
4.23069	0.96
4.27061	0.961
4.31053	0.961
4.35045	0.968
4.39037	0.963
4.43029	0.973
4.47022	0.978
4.51014	0.975
4.55006	0.966
4.58998	0.971
4.6299	0.981
4.66982	0.981
4.70975	0.98
4.74967	0.97
4.78959	0.973
4.82951	0.96
4.86943	0.956
4.90935	0.958
4.94928	0.961
4.9892	0.975
5.02912	0.971
5.06904	0.95
5.10896	0.925
5.14888	0.877
5.1888	0.892
5.22873	0.955
5.26865	0.961
5.30857	0.961
5.34849	0.961
5.38841	0.96
5.42833	0.953
5.46826	0.941
5.50818	0.927
5.5481	0.932
5.58802	0.935
5.62794	0.93
5.66786	0.92
5.70779	0.903
5.74771	0.867
5.78763	0.744
5.82755	0.489
5.86747	0.059
5.90739	0.081
5.94732	0.414
5.98724	0.674
6.02716	0.688
6.06708	0.809
6.107	0.786
6.14692	0.53
6.18684	0.33
6.22677	0.668
6.26669	0.832
6.30661	0.839
6.34653	0.83
6.38645	0.81
6.42637	0.817
6.4663	0.817
6.50622	0.807
6.54614	0.802
6.58606	0.791
6.62598	0.777
6.6659	0.749
6.70583	0.686
6.74575	0.59
6.78567	0.429
6.82559	0.378
6.86551	0.359
6.90543	0.29
6.94535	0.288
6.98528	0.276
7.0252	0.31
7.06512	0.426
7.10504	0.54
7.14496	0.583
7.18488	0.592
7.22481	0.547
7.26473	0.381
7.30465	0.091
7.34457	0.051
7.38449	0.212
7.42441	0.573
7.46434	0.698
7.50426	0.723
7.54418	0.62
7.5841	0.378
7.62402	0.111
7.66394	0.273
7.70386	0.524
7.74379	0.626
7.78371	0.684
7.82363	0.709
7.86355	0.761
7.90347	0.827
7.94339	0.883
7.98332	0.905
8.02324	0.915
8.06316	0.918
8.10308	0.922
8.143	0.922
8.18292	0.918
8.22285	0.908
8.26277	0.912
8.30269	0.907
8.34261	0.895
8.38253	0.873
8.42245	0.86
8.46237	0.88
8.5023	0.893
8.54222	0.888
8.58214	0.878
8.62206	0.845
8.66198	0.809
8.7019	0.784
8.74183	0.724
8.78175	0.592
8.82167	0.366
8.86159	0.079
8.90151	0.046
8.94143	0.145
8.98136	0.373
9.02128	0.543
9.0612	0.626
9.10112	0.648
9.14104	0.638
9.18096	0.605
9.22088	0.543
9.26081	0.487
9.30073	0.393
9.34065	0.258
9.38057	0.132
9.42049	0.038
9.46041	0.031
9.50034	0.028
9.54026	0.029
9.58018	0.029
9.6201	0.036
9.66002	0.072
9.69994	0.174
9.73987	0.276
9.77979	0.356
9.81971	0.389
9.85963	0.389
9.89955	0.381
9.93947	0.399
9.97939	0.417
10.0193	0.461
10.0592	0.56
10.0992	0.633
10.1391	0.698
10.179	0.749
10.2189	0.782
10.2588	0.8
10.2988	0.817
10.3387	0.824
10.3786	0.827
10.4185	0.827
10.4585	0.815
10.4984	0.794
10.5383	0.741
10.5782	0.678
10.6181	0.645
10.6581	0.636
10.698	0.613
10.7379	0.557
10.7778	0.494
10.8177	0.363
10.8577	0.215
10.8976	0.102
10.9375	0.061
10.9774	0.074
11.0174	0.154
11.0573	0.296
11.0972	0.472
11.1371	0.623
11.177	0.714
11.217	0.777
11.2569	0.82
11.2968	0.847
11.3367	0.868
11.3767	0.887
11.4166	0.898
11.4565	0.903
11.4964	0.913
11.5363	0.918
11.5763	0.922
11.6162	0.922
11.6561	0.925
11.696	0.927
11.7359	0.928
11.7759	0.927
11.8158	0.928
11.8557	0.93
11.8956	0.932
11.9356	0.932
11.9755	0.93
12.0154	0.932
12.0553	0.933
12.0952	0.932
12.1352	0.935
12.1751	0.936
12.215	0.938
12.2549	0.938
12.2948	0.936
12.3348	0.935
12.3747	0.933
12.4146	0.93
12.4545	0.927
12.4945	0.92
12.5344	0.915
12.5743	0.898
12.6142	0.882
12.6541	0.862
12.6941	0.827
12.734	0.741
12.7739	0.588
12.8138	0.334
12.8537	0.205
12.8937	0.306
12.9336	0.495
12.9735	0.689
13.0134	0.797
13.0534	0.842
13.0933	0.875
13.1332	0.89
13.1731	0.898
13.213	0.905
13.253	0.91
13.2929	0.915
13.3328	0.92
13.3727	0.925
13.4127	0.922
13.4526	0.92
13.4925	0.925
13.5324	0.928
13.5723	0.93
13.6123	0.936
13.6522	0.93
13.6921	0.933
13.732	0.936
13.7719	0.936
13.8119	0.938
13.8518	0.935
13.8917	0.933
13.9316	0.932
13.9716	0.935
14.0115	0.935
14.0514	0.933
14.0913	0.932
14.1312	0.932
14.1712	0.932
14.2111	0.932
14.251	0.93
14.2909	0.923
14.3308	0.92
14.3708	0.925
14.4107	0.918
14.4506	0.917
14.4905	0.913
14.5305	0.912
14.5704	0.908
14.6103	0.905
14.6502	0.902
14.6901	0.897
14.7301	0.893
14.77	0.892
14.8099	0.89
14.8498	0.887
14.8897	0.885
14.9297	0.882
14.9696	0.878
15.0095	0.862
15.0494	0.839
15.0894	0.819
15.1293	0.842
15.1692	0.859
15.2091	0.862
15.249	0.857
15.289	0.849
15.3289	0.842
15.3688	0.837
15.4087	0.835
15.4487	0.827
15.4886	0.822
15.5285	0.817
15.5684	0.815
15.6083	0.805
15.6483	0.802
15.6882	0.799
15.7281	0.797
15.768	0.792
15.8079	0.782
15.8479	0.779
15.8878	0.776
15.9277	0.769
15.9676	0.759
