Infrared Spectrum: Diethyl cyanamide
Formula: C 5 H 10 N 2
CAS: 617-83-4
State: gas
Origin: EPA-IR VAPOR PHASE LIBRARY
1/CM	ABSORBANCE
501.5	0.0004393
513.074	0.001287
524.648	0.002197
536.222	0.002117
547.796	0.001227
559.37	0.0005788
570.944	0.000306
582.518	0.0001925
594.092	0.0002907
605.666	0.0003428
617.24	0.0004444
628.814	0.0005541
640.388	0.0004261
651.962	0.0002297
663.536	0.00011756
675.11	0.0001412
686.684	0.0002178
698.258	0.0003705
709.832	0.000617
721.406	0.0006825
732.98	0.0004292
744.554	0.0002834
756.128	0.0003466
767.702	0.0004574
779.276	0.0008889
790.85	0.001337
802.423	0.001427
813.997	0.001117
825.571	0.0006397
837.145	0.0004116
848.719	0.0001957
860.293	0.00014675
871.867	0.00014474
883.441	4.9234e-05
895.015	4.216e-05
906.589	7.007e-05
918.163	0.0001566
929.737	0.0002393
941.311	0.0001912
952.885	0.0002768
964.459	0.0003278
976.033	0.0003732
987.607	0.0004568
999.181	0.0004539
1010.76	0.0007584
1022.33	0.0010113
1033.9	0.001907
1045.48	0.003487
1057.05	0.005867
1068.63	0.008827
1080.2	0.010827
1091.77	0.011137
1103.35	0.009797
1114.92	0.007247
1126.49	0.005317
1138.07	0.004417
1149.64	0.004507
1161.22	0.005887
1172.79	0.007827
1184.36	0.008277
1195.94	0.006977
1207.51	0.006507
1219.09	0.007907
1230.66	0.008427
1242.23	0.006907
1253.81	0.004947
1265.38	0.003797
1276.96	0.003507
1288.53	0.004147
1300.1	0.004927
1311.68	0.005687
1323.25	0.006317
1334.83	0.007027
1346.4	0.007607
1357.97	0.007527
1369.55	0.007727
1381.12	0.009177
1392.7	0.009377
1404.27	0.007017
1415.84	0.004227
1427.42	0.003537
1438.99	0.003977
1450.57	0.004757
1462.14	0.004797
1473.71	0.004007
1485.29	0.002797
1496.86	0.001897
1508.44	0.001337
1520.01	0.0009831
1531.58	0.0007316
1543.16	0.0005359
1554.73	0.0004003
1566.31	0.0003172
1577.88	0.0002849
1589.45	0.0002647
1601.03	0.0002615
1612.6	0.000262
1624.18	0.0002462
1635.75	0.0002616
1647.32	0.0002374
1658.9	0.0002312
1670.47	0.0001902
1682.05	0.0001654
1693.62	0.0001611
1705.19	0.0001522
1716.77	0.00013974
1728.34	0.00010836
1739.92	0.00010509
1751.49	0.00011345
1763.06	0.00011859
1774.64	0.00014481
1786.21	0.0001461
1797.79	0.0001541
1809.36	0.00013464
1820.93	0.00011411
1832.51	8.715e-05
1844.08	8.853e-05
1855.66	9.208e-05
1867.23	0.00010633
1878.8	0.00012645
1890.38	0.0001553
1901.95	0.00013211
1913.53	7.667e-05
1925.1	4.7813e-05
1936.67	5.6083e-05
1948.25	5.1776e-05
1959.82	4.239e-05
1971.4	7.312e-05
1982.97	9.427e-05
1994.54	0.00011165
2006.12	0.00010951
2017.69	0.00011872
2029.27	0.00013134
2040.84	0.00014226
2052.41	0.00014307
2063.99	0.00013831
2075.56	0.0001698
2087.14	0.0002035
2098.71	0.0002144
2110.28	0.0002653
2121.86	0.000336
2133.43	0.000525
2145.01	0.0008635
2156.58	0.001447
2168.15	0.002437
2179.73	0.004787
2191.3	0.010947
2202.88	0.023847
2214.45	0.036537
2226.02	0.035797
2237.6	0.019487
2249.17	0.005887
2260.74	0.002647
2272.32	0.001757
2283.89	0.001387
2295.47	0.001177
2307.04	0.0010058
2318.61	0.0008448
2330.19	0.0006877
2341.76	0.0005842
2353.34	0.0005341
2364.91	0.0004724
2376.48	0.0004239
2388.06	0.000364
2399.63	0.0003353
2411.21	0.0002978
2422.78	0.00031
2434.35	0.0003023
2445.93	0.0003261
2457.5	0.000319
2469.08	0.0002609
2480.65	0.0002302
2492.22	0.0002191
2503.8	0.000174
2515.37	0.00013735
2526.95	0.00013013
2538.52	0.0001475
2550.09	0.0001626
2561.67	0.0001672
2573.24	0.00013215
2584.82	0.0001739
2596.39	0.0001949
2607.96	0.0001653
2619.54	0.0002117
2631.11	0.0002159
2642.69	0.0002503
2654.26	0.0002853
2665.83	0.0003354
2677.41	0.0003556
2688.98	0.0004467
2700.56	0.0004828
2712.13	0.0005678
2723.7	0.0005998
2735.28	0.0007186
2746.85	0.0008082
2758.43	0.0008874
2770	0.0009865
2781.57	0.001157
2793.15	0.001357
2804.72	0.001587
2816.3	0.001927
2827.87	0.002397
2839.44	0.003327
2851.02	0.005237
2862.59	0.008587
2874.17	0.012537
2885.74	0.013907
2897.31	0.012387
2908.89	0.010607
2920.46	0.010237
2932.04	0.012217
2943.61	0.014577
2955.18	0.015107
2966.76	0.016517
2978.33	0.022477
2989.91	0.023627
3001.48	0.015337
3013.05	0.007117
3024.63	0.003667
3036.2	0.002277
3047.78	0.001567
3059.35	0.001127
3070.92	0.0008599
3082.5	0.0007116
3094.07	0.0006312
3105.65	0.0005563
3117.22	0.0005427
3128.79	0.0005283
3140.37	0.0004926
3151.94	0.0005238
3163.52	0.0005196
3175.09	0.000516
3186.66	0.0005384
3198.24	0.0005386
3209.81	0.0004074
3221.39	0.0003304
3232.96	0.0002796
3244.53	0.0002257
3256.11	0.0002148
3267.68	0.000243
3279.26	0.0002869
3290.83	0.0002907
3302.4	0.0003086
3313.98	0.0002778
3325.55	0.000234
3337.13	0.0001774
3348.7	0.0001884
3360.27	0.00013056
3371.85	7.236e-05
3383.42	0.0001198
3395	0.00014341
3406.57	0.00013953
3418.14	0.0001648
3429.72	0.0002486
3441.29	0.0003163
3452.86	0.0003084
3464.44	0.0002103
3476.01	0.0001735
3487.59	0.0001299
3499.16	0.0001608
3510.73	0.00013434
3522.31	0.00011964
3533.88	0.00014309
3545.46	0.00013645
3557.03	0.0001735
3568.6	0.000186
3580.18	0.0002055
3591.75	0.0001704
3603.33	0.0001594
3614.9	0.00011412
3626.47	0.00012351
3638.05	0.00012635
3649.62	7.704e-05
3661.2	6.727e-05
3672.77	5.2891e-05
3684.34	7.476e-05
3695.92	7.111e-05
3707.49	0.00010914
3719.07	7.719e-05
3730.64	0.00011372
3742.21	0.0001395
3753.79	0.00011873
3765.36	7.541e-05
3776.94	7.25e-05
3788.51	9.32e-05
3800.08	8.143e-05
3811.66	7.899e-05
3823.23	8.492e-05
3834.81	4.437e-05
3846.38	4.5e-05
3857.95	8.278e-05
3869.53	0.00010099
3881.1	5.0572e-05
3892.68	0.00010666
3904.25	0.0001046
3915.82	7.734e-05
3927.4	0.0001475
3938.97	0.00012762
3950.55	0.0001425
3962.12	0.000186
3973.69	0.0001826
3985.27	0.0002564
3996.84	0.0002329
