Infrared Spectrum: Silane, triethyl-,
Formula: C6 H16 Si
CAS: 617-86-7
State: SOLUTION (11% CCl4 FOR 3800-1300, 2% CS2 FOR 1300-600, AND 11% CCl4 FOR 600-250)
Boiling point: 109 C
Class: COBLENTZ III
Instrument: PERKIN-ELMER 521 (GRATING)
Instrument parameters: FILTERS AT 3150, 2500, 2000, 1150, 700, 410. GRATING CHANGES: 2000, 630
Path length: 0.010 CM, 0.010 CM, AND 0.019 CM
Resolution: 2
Origin: DOW CORNING CORP.
1/CM	TRANSMITTANCE
230	0.8042
239	0.8071
248	0.8069
257	0.8069
266	0.8049
275	0.7988
284	0.7926
293	0.7992
302	0.8004
311	0.7956
320	0.7954
329	0.8028
338	0.8001
347	0.7968
356	0.7851
365	0.7691
374	0.7165
383	0.7566
392	0.7573
401	0.7267
410	0.7657
419	0.801
428	0.8217
437	0.8301
446	0.8324
455	0.829
464	0.827
473	0.8348
482	0.8354
491	0.8327
500	0.8298
509	0.8272
518	0.8262
527	0.8261
536	0.8244
545	0.8177
554	0.8142
563	0.7933
572	0.7472
581	0.662
590	0.6035
599	0.753
608	0.807
617	0.8349
626	0.8251
635	0.8227
644	0.8188
653	0.8113
662	0.7912
671	0.804
680	0.7895
689	0.774
698	0.6909
707	0.6068
716	0.6366
725	0.5706
734	0.7749
743	0.8213
752	0.8342
761	0.8305
770	0.8207
779	0.7988
788	0.7416
797	0.5814
806	0.2348
815	0.2046
824	0.5965
833	0.7702
842	0.8203
851	0.832
860	0.8397
869	0.8482
878	0.855
887	0.861
896	0.8666
905	0.87
914	0.8672
923	0.8596
932	0.849
941	0.8385
950	0.8241
959	0.744
968	0.6116
977	0.6617
986	0.7903
995	0.7449
1004	0.6265
1013	0.5613
1022	0.7235
1031	0.8325
1040	0.8393
1049	0.8394
1058	0.8384
1067	0.84
1076	0.8452
1085	0.8527
1094	0.8618
1103	0.8673
1112	0.8628
1121	0.8575
1130	0.8716
1139	0.8822
1148	0.8853
1157	0.8827
1166	0.8747
1175	0.8699
1184	0.8701
1193	0.8635
1202	0.8543
1211	0.8416
1220	0.7933
1229	0.7522
1238	0.779
1247	0.8377
1256	0.8467
1265	0.8547
1274	0.8546
1283	0.8585
1292	0.8599
1301	0.846
1310	0.8418
1319	0.8419
1328	0.8404
1337	0.8375
1346	0.8341
1355	0.823
1364	0.7989
1373	0.6909
1382	0.5924
1391	0.7234
1400	0.6919
1409	0.5036
1418	0.3041
1427	0.6452
1436	0.6827
1445	0.6212
1454	0.4034
1463	0.2199
1472	0.4842
1481	0.7236
1490	0.7964
1499	0.8243
1508	0.842
1517	0.8608
1526	0.8729
1535	0.8828
1544	0.8877
1553	0.8874
1562	0.8844
1571	0.8788
1580	0.8722
1589	0.8634
1598	0.851
1607	0.8439
1616	0.8402
1625	0.8409
1634	0.8439
1643	0.8482
1652	0.8532
1661	0.8556
1670	0.8574
1679	0.8577
1688	0.8592
1697	0.8619
1706	0.8642
1715	0.8646
1724	0.8636
1733	0.8636
1742	0.8646
1751	0.8653
1760	0.8625
1769	0.8575
1778	0.8516
1787	0.85
1796	0.8503
1805	0.8512
1814	0.8516
1823	0.8573
1832	0.8638
1841	0.8656
1850	0.8669
1859	0.8678
1868	0.865
1877	0.8618
1886	0.8593
1895	0.8623
1904	0.8615
1913	0.859
1922	0.8566
1931	0.8553
1940	0.8575
1949	0.8525
1958	0.8593
1967	0.8612
1976	0.862
1985	0.8625
1994	0.8667
2003	0.8507
2012	0.8418
2021	0.8262
2030	0.797
2039	0.7612
2048	0.7177
2057	0.6745
2066	0.6089
2075	0.3841
2084	0.1536
2093	0.0033
2102	0.0086
2111	0.0351
2120	0.1546
2129	0.3558
2138	0.5759
2147	0.6866
2156	0.746
2165	0.7723
2174	0.7918
2183	0.8076
2192	0.8141
2201	0.8252
2210	0.8371
2219	0.8434
2228	0.8484
2237	0.8527
2246	0.8561
2255	0.8591
2264	0.8618
2273	0.8635
2282	0.865
2291	0.8656
2300	0.8663
2309	0.8667
2318	0.8672
2327	0.8675
2336	0.8676
2345	0.8672
2354	0.8661
2363	0.8576
2372	0.85
2381	0.8461
2390	0.8517
2399	0.8566
2408	0.8557
2417	0.855
2426	0.855
2435	0.8572
2444	0.8607
2453	0.8633
2462	0.8647
2471	0.8642
2480	0.8639
2489	0.8638
2498	0.8636
2507	0.8634
2516	0.8632
2525	0.8628
2534	0.8626
2543	0.8613
2552	0.8598
2561	0.8583
2570	0.8568
2579	0.8545
2588	0.8519
2597	0.8487
2606	0.8456
2615	0.8429
2624	0.8406
2633	0.8348
2642	0.8309
2651	0.8407
2660	0.8404
2669	0.8373
2678	0.8296
2687	0.8182
2696	0.8151
2705	0.8227
2714	0.8264
2723	0.8147
2732	0.7829
2741	0.7346
2750	0.8083
2759	0.8089
2768	0.8007
2777	0.7801
2786	0.7509
2795	0.7074
2804	0.6289
2813	0.5518
2822	0.6001
2831	0.6142
2840	0.602
2849	0.6124
2858	0.547
2867	0.4455
2876	0.2217
2885	0.0085
2894	0.0484
2903	0.0724
2912	0.0558
2921	0.0099
2930	0.095
2939	0.0808
2948	0.0381
2957	0.0018
2966	0.0018
2975	0.0835
2984	0.2668
2993	0.4665
3002	0.5621
3011	0.6483
3020	0.6887
3029	0.7188
3038	0.735
3047	0.7471
3056	0.7594
3065	0.7698
3074	0.779
3083	0.7846
3092	0.7879
3101	0.7909
3110	0.7933
3119	0.7971
3128	0.806
3137	0.8098
3146	0.8124
3155	0.8139
3164	0.8152
3173	0.8177
3182	0.8247
3191	0.8325
3200	0.8394
3209	0.8428
3218	0.8469
3227	0.8506
3236	0.8538
3245	0.8563
3254	0.8586
3263	0.86
3272	0.8612
3281	0.8613
3290	0.8615
3299	0.8616
3308	0.8618
3317	0.8622
3326	0.863
3335	0.8636
3344	0.8643
3353	0.865
3362	0.8656
3371	0.8662
3380	0.8669
3389	0.8674
3398	0.868
3407	0.8683
3416	0.8687
3425	0.869
3434	0.8694
3443	0.8697
3452	0.8697
3461	0.8698
3470	0.8699
3479	0.8698
3488	0.8692
3497	0.8685
3506	0.8678
3515	0.8677
3524	0.8677
3533	0.8684
3542	0.8697
3551	0.871
3560	0.8729
3569	0.8749
3578	0.8774
3587	0.8804
3596	0.8815
3605	0.8774
3614	0.8754
3623	0.876
3632	0.8798
3641	0.8838
3650	0.8778
3659	0.8803
3668	0.8868
3677	0.876
3686	0.8919
3695	0.8778
3704	0.8893
3713	0.8794
3722	0.8779
3731	0.8817
3740	0.8859
3749	0.8938
3758	0.9059
3767	0.9041
3776	0.886
3785	0.8787
3794	0.8787
3803	0.8801
3812	0.8822
