Infrared Spectrum: 2-Methyl-3-hexanol
Formula: C7 H16 O
CAS: 617-29-8
State: SOLUTION (10% CCl4 FOR 3800-1335, 10% CS2 FOR 1335-460 CM^-^1) VS SOLVENT
Class: COBLENTZ III
Instrument: DOW KBr FOREPRISM-GRATING
Instrument parameters: BLAZED AT 3.5, 12.0, 20.0 MICRON AND CHANGED AT 5.0, 7.5, 14.9 MICRON
Sampling: TRANSMISSION
Path length: 0.011 CM, 0.011 CM
Resolution: 2
Origin: DOW CHEMICAL COMPANY
1/CM	TRANSMITTANCE
460	0.8125
469	0.7928
478	0.7721
487	0.7592
496	0.7412
505	0.7412
514	0.7568
523	0.7543
532	0.7356
541	0.741
550	0.7392
559	0.7585
568	0.7606
577	0.7471
586	0.7618
595	0.7611
604	0.7646
613	0.7478
622	0.7771
631	0.7908
640	0.7968
649	0.8111
658	0.8268
667	0.852
676	0.84
685	0.8483
694	0.861
703	0.8768
712	0.8925
721	0.8924
730	0.8893
739	0.8567
748	0.8558
757	0.9197
766	0.9225
775	0.913
784	0.9351
793	0.9168
802	0.8836
811	0.8675
820	0.853
829	0.8128
838	0.8671
847	0.7907
856	0.6628
865	0.8083
874	0.8671
883	0.8865
892	0.842
901	0.8224
910	0.7353
919	0.7258
928	0.7003
937	0.8331
946	0.843
955	0.7008
964	0.6861
973	0.3597
982	0.1163
991	0.3347
1000	0.4723
1009	0.4041
1018	0.4245
1027	0.5352
1036	0.7593
1045	0.6884
1054	0.6326
1063	0.4631
1072	0.4146
1081	0.6131
1090	0.6219
1099	0.5187
1108	0.518
1117	0.4981
1126	0.5948
1135	0.5933
1144	0.5494
1153	0.5242
1162	0.7415
1171	0.7167
1180	0.6812
1189	0.7761
1198	0.7826
1207	0.7145
1216	0.6464
1225	0.6306
1234	0.6768
1243	0.6791
1252	0.63
1261	0.6019
1270	0.5947
1279	0.5765
1288	0.6185
1297	0.6574
1306	0.6426
1315	0.6371
1324	0.6494
1333	0.6499
1342	0.6481
1351	0.653
1360	0.6148
1369	0.3462
1378	0.4144
1387	0.293
1396	0.4656
1405	0.5569
1414	0.6041
1423	0.6422
1432	0.613
1441	0.576
1450	0.451
1459	0.2447
1468	0.095
1477	0.3662
1486	0.6726
1495	0.7508
1504	0.8028
1513	0.8373
1522	0.8651
1531	0.8674
1540	0.8864
1549	0.905
1558	0.9039
1567	0.8951
1576	0.8864
1585	0.8838
1594	0.8791
1603	0.8715
1612	0.8621
1621	0.8537
1630	0.8506
1639	0.8574
1648	0.8644
1657	0.8686
1666	0.8662
1675	0.8678
1684	0.8664
1693	0.8645
1702	0.863
1711	0.8411
1720	0.8278
1729	0.8601
1738	0.8692
1747	0.8731
1756	0.8757
1765	0.8801
1774	0.8823
1783	0.8837
1792	0.8852
1801	0.8874
1810	0.8874
1819	0.8884
1828	0.8902
1837	0.8923
1846	0.8932
1855	0.893
1864	0.8928
1873	0.893
1882	0.8931
1891	0.8927
1900	0.8921
1909	0.8914
1918	0.8909
1927	0.8909
1936	0.8908
1945	0.8906
1954	0.8893
1963	0.8988
1972	0.8892
1981	0.8896
1990	0.8906
1999	0.8916
2008	0.9414
2017	0.9425
2026	0.944
2035	0.9462
2044	0.9425
2053	0.9428
2062	0.9439
2071	0.9445
2080	0.9427
2089	0.9435
2098	0.9443
2107	0.944
2116	0.9436
2125	0.9421
2134	0.9409
2143	0.9398
2152	0.9387
2161	0.9366
2170	0.9334
2179	0.9321
2188	0.9307
2197	0.9294
2206	0.9288
2215	0.9273
2224	0.9257
2233	0.9235
2242	0.9208
2251	0.9182
2260	0.916
2269	0.914
2278	0.912
2287	0.9107
2296	0.9101
2305	0.9105
2314	0.9121
2323	0.914
2332	0.9148
2341	0.9118
2350	0.912
2359	0.9167
2368	0.9133
2377	0.9067
2386	0.9023
2395	0.8995
2404	0.8996
2413	0.9038
2422	0.9048
2431	0.901
2440	0.8991
2449	0.8992
2458	0.9013
2467	0.9023
2476	0.9018
2485	0.9006
2494	0.8995
2503	0.8983
2512	0.8944
2521	0.8912
2530	0.8906
2539	0.8917
2548	0.8903
2557	0.8875
2566	0.8818
2575	0.8749
2584	0.8682
2593	0.8614
2602	0.8549
2611	0.8517
2620	0.8507
2629	0.8513
2638	0.8525
2647	0.8518
2656	0.8505
2665	0.8475
2674	0.8414
2683	0.8363
2692	0.8328
2701	0.8295
2710	0.8235
2719	0.8142
2728	0.8003
2737	0.7918
2746	0.8017
2755	0.8122
2764	0.81
2773	0.8025
2782	0.7937
2791	0.7818
2800	0.7634
2809	0.7371
2818	0.6976
2827	0.6565
2836	0.585
2845	0.4736
2854	0.3132
2863	0.1827
2872	0.0368
2881	0.0503
2890	0.1168
2899	0.1154
2908	0.1025
2917	0.0732
2926	0.0669
2935	0.0203
2944	0.0373
2953	0.0331
2962	0.0001
2971	0.0022
2980	0.0471
2989	0.2296
2998	0.493
3007	0.5939
3016	0.6775
3025	0.7408
3034	0.7707
3043	0.7893
3052	0.8065
3061	0.8198
3070	0.8282
3079	0.8349
3088	0.8392
3097	0.8414
3106	0.846
3115	0.8439
3124	0.842
3133	0.8366
3142	0.8316
3151	0.8247
3160	0.8167
3169	0.8089
3178	0.8017
3187	0.7933
3196	0.7853
3205	0.778
3214	0.7708
3223	0.7611
3232	0.7501
3241	0.7356
3250	0.7147
3259	0.6921
3268	0.6667
3277	0.6394
3286	0.6131
3295	0.5896
3304	0.5698
3313	0.5432
3322	0.5184
3331	0.4947
3340	0.4633
3349	0.4344
3358	0.4139
3367	0.403
3376	0.3964
3385	0.3912
3394	0.3882
3403	0.3884
3412	0.39
3421	0.3932
3430	0.3977
3439	0.403
3448	0.4084
3457	0.4152
3466	0.4235
3475	0.4296
3484	0.4344
3493	0.4419
3502	0.4548
3511	0.4766
3520	0.5067
3529	0.5345
3538	0.5665
3547	0.6018
3556	0.6426
3565	0.6918
3574	0.7445
3583	0.7724
3592	0.7745
3601	0.7418
3610	0.6938
3619	0.6155
3628	0.5708
3637	0.5369
3646	0.6455
3655	0.793
3664	0.8325
3673	0.8292
3682	0.8328
3691	0.8546
3700	0.8678
3709	0.8738
3718	0.8787
3727	0.88
3736	0.8785
3745	0.8816
3754	0.8803
3763	0.8794
3772	0.8785
3781	0.8771
3790	0.8774
3799	0.8777
