Infrared Spectrum: Ethyl pyruvate
Formula: C 5 H 8 O 3
CAS: 617-35-6
State: gas
Origin: EPA-IR VAPOR PHASE LIBRARY
1/CM	ABSORBANCE
501.5	0.0009413
513.074	0.0008431
524.648	0.001322
536.222	0.001742
547.796	0.002092
559.37	0.003262
570.944	0.005762
582.518	0.014232
594.092	0.031872
605.666	0.033052
617.24	0.015302
628.814	0.006152
640.388	0.002382
651.962	0.0010849
663.536	0.0006923
675.11	0.0006555
686.684	0.0008693
698.258	0.001452
709.832	0.002842
721.406	0.004792
732.98	0.005892
744.554	0.005692
756.128	0.005112
767.702	0.004822
779.276	0.004712
790.85	0.004352
802.423	0.003792
813.997	0.003742
825.571	0.004552
837.145	0.006872
848.719	0.010692
860.293	0.012032
871.867	0.008302
883.441	0.004092
895.015	0.002612
906.589	0.002212
918.163	0.002342
929.737	0.003072
941.311	0.004942
952.885	0.010282
964.459	0.018162
976.033	0.019492
987.607	0.016122
999.181	0.020642
1010.76	0.034112
1022.33	0.046502
1033.9	0.046092
1045.48	0.036722
1057.05	0.027852
1068.63	0.021202
1080.2	0.023072
1091.77	0.039102
1103.35	0.083072
1114.92	0.185182
1126.49	0.299172
1138.07	0.287452
1149.64	0.161332
1161.22	0.074362
1172.79	0.042872
1184.36	0.027832
1195.94	0.018012
1207.51	0.015582
1219.09	0.019192
1230.66	0.027892
1242.23	0.041372
1253.81	0.056012
1265.38	0.070832
1276.96	0.092902
1288.53	0.115972
1300.1	0.109462
1311.68	0.068212
1323.25	0.036752
1334.83	0.023932
1346.4	0.023482
1357.97	0.029992
1369.55	0.030872
1381.12	0.023622
1392.7	0.020492
1404.27	0.019242
1415.84	0.019162
1427.42	0.020302
1438.99	0.020002
1450.57	0.018552
1462.14	0.016992
1473.71	0.015392
1485.29	0.011802
1496.86	0.008032
1508.44	0.005912
1520.01	0.005102
1531.58	0.004782
1543.16	0.004592
1554.73	0.004382
1566.31	0.004132
1577.88	0.003902
1589.45	0.003752
1601.03	0.003742
1612.6	0.003752
1624.18	0.003912
1635.75	0.004172
1647.32	0.004762
1658.9	0.005962
1670.47	0.008442
1682.05	0.013462
1693.62	0.023492
1705.19	0.043772
1716.77	0.087332
1728.34	0.172682
1739.92	0.254982
1751.49	0.258272
1763.06	0.168972
1774.64	0.101972
1786.21	0.058202
1797.79	0.023722
1809.36	0.010042
1820.93	0.005832
1832.51	0.004152
1844.08	0.003402
1855.66	0.003132
1867.23	0.003152
1878.8	0.003122
1890.38	0.002802
1901.95	0.002322
1913.53	0.001892
1925.1	0.001572
1936.67	0.001442
1948.25	0.001442
1959.82	0.001562
1971.4	0.001622
1982.97	0.001592
1994.54	0.001422
2006.12	0.001152
2017.69	0.0009616
2029.27	0.0008907
2040.84	0.0008535
2052.41	0.0008445
2063.99	0.000945
2075.56	0.001112
2087.14	0.001212
2098.71	0.001242
2110.28	0.001202
2121.86	0.001192
2133.43	0.001252
2145.01	0.001222
2156.58	0.0010212
2168.15	0.0006885
2179.73	0.0004316
2191.3	0.0002777
2202.88	0.0003403
2214.45	0.0004843
2226.02	0.0006935
2237.6	0.0007309
2249.17	0.0006687
2260.74	0.0005736
2272.32	0.0004885
2283.89	0.0004331
2295.47	0.0004334
2307.04	0.0005105
2318.61	0.00065
2330.19	0.000768
2341.76	0.0008222
2353.34	0.0008301
2364.91	0.0008734
2376.48	0.0008888
2388.06	0.0009605
2399.63	0.0010657
2411.21	0.001172
2422.78	0.001212
2434.35	0.0010347
2445.93	0.0008203
2457.5	0.00068
2469.08	0.0006202
2480.65	0.0006561
2492.22	0.0007044
2503.8	0.0006687
2515.37	0.000617
2526.95	0.0004832
2538.52	0.0004191
2550.09	0.000468
2561.67	0.0004923
2573.24	0.0005862
2584.82	0.0006523
2596.39	0.0006065
2607.96	0.0004964
2619.54	0.0003317
2631.11	0.000202
2642.69	0.00015326
2654.26	0.00014474
2665.83	0.0001924
2677.41	0.00017951
2688.98	0.0002224
2700.56	0.000373
2712.13	0.0005255
2723.7	0.0006377
2735.28	0.0006778
2746.85	0.0006838
2758.43	0.0007801
2770	0.0010171
2781.57	0.001122
2793.15	0.001122
2804.72	0.001222
2816.3	0.001432
2827.87	0.001812
2839.44	0.002162
2851.02	0.002742
2862.59	0.003762
2874.17	0.005702
2885.74	0.008052
2897.31	0.009752
2908.89	0.011082
2920.46	0.012332
2932.04	0.015992
2943.61	0.022102
2955.18	0.023472
2966.76	0.024592
2978.33	0.037122
2989.91	0.045032
3001.48	0.039152
3013.05	0.026362
3024.63	0.017112
3036.2	0.009082
3047.78	0.005162
3059.35	0.003672
3070.92	0.003072
3082.5	0.002802
3094.07	0.002702
3105.65	0.002612
3117.22	0.002402
3128.79	0.001912
3140.37	0.001522
3151.94	0.001212
3163.52	0.0009496
3175.09	0.0007992
3186.66	0.0007127
3198.24	0.0006035
3209.81	0.0005419
3221.39	0.000505
3232.96	0.0003493
3244.53	0.0002384
3256.11	0.00018106
3267.68	0.00013751
3279.26	8.882e-05
3290.83	9.075e-05
3302.4	8.6e-05
3313.98	8.546e-05
3325.55	9.6549e-05
3337.13	0.00010979
3348.7	0.0002114
3360.27	0.00014737
3371.85	0.0002333
3383.42	0.0003046
3395	0.000384
3406.57	0.0004917
3418.14	0.0008104
3429.72	0.001262
3441.29	0.002092
3452.86	0.003212
3464.44	0.004062
3476.01	0.004342
3487.59	0.003652
3499.16	0.002672
3510.73	0.001932
3522.31	0.001582
3533.88	0.001192
3545.46	0.000822
3557.03	0.0004757
3568.6	0.0003228
3580.18	0.00013237
3591.75	9.8429e-05
3603.33	0.00012635
3614.9	0.00019031
3626.47	9.1116e-05
3638.05	0.00010862
3649.62	9.7064e-05
3661.2	4.61e-05
3672.77	4.87e-05
3684.34	2.93e-05
3695.92	0.00010422
3707.49	1.45e-05
3719.07	7.61e-05
3730.64	7.42e-05
3742.21	0.00014726
3753.79	9.19628e-05
3765.36	0.00015754
3776.94	0.00013268
3788.51	0.00011431
3800.08	0.0001964
3811.66	0.00018732
3823.23	0.0001341
3834.81	0.0001384
3846.38	0.00014466
3857.95	0.0002443
3869.53	0.0002063
3881.1	0.0002373
3892.68	0.00015848
3904.25	0.00017653
3915.82	0.00015793
3927.4	0.0001958
3938.97	0.000245
3950.55	0.0002938
3962.12	0.000358
3973.69	0.0003461
3985.27	0.0003945
3996.84	0.0003719
