Infrared Spectrum: Ethyl oxamate
Formula: C 4 H 7 N O 3
CAS: 617-36-7
State: gas
Origin: EPA-IR VAPOR PHASE LIBRARY
1/CM	ABSORBANCE
501.5	0.001682
513.074	0.001292
524.648	0.0008649
536.222	0.0007286
547.796	0.0006301
559.37	0.0007494
570.944	0.0007392
582.518	0.0007606
594.092	0.0009788
605.666	0.0011144
617.24	0.0012016
628.814	0.002262
640.388	0.002862
651.962	0.001742
663.536	0.0008915
675.11	0.0006401
686.684	0.000576
698.258	0.0005787
709.832	0.0006419
721.406	0.0007366
732.98	0.0007855
744.554	0.0009678
756.128	0.0010419
767.702	0.0011836
779.276	0.001242
790.85	0.001272
802.423	0.001422
813.997	0.001452
825.571	0.001522
837.145	0.001662
848.719	0.002022
860.293	0.002272
871.867	0.002152
883.441	0.001852
895.015	0.001632
906.589	0.001452
918.163	0.001422
929.737	0.001342
941.311	0.001382
952.885	0.001372
964.459	0.001272
976.033	0.001262
987.607	0.001462
999.181	0.002092
1010.76	0.003302
1022.33	0.003962
1033.9	0.002892
1045.48	0.001632
1057.05	0.0012048
1068.63	0.0011983
1080.2	0.001392
1091.77	0.002072
1103.35	0.002682
1114.92	0.002602
1126.49	0.002442
1138.07	0.003452
1149.64	0.005122
1161.22	0.006312
1172.79	0.006772
1184.36	0.007582
1195.94	0.009762
1207.51	0.014212
1219.09	0.020252
1230.66	0.022662
1242.23	0.017682
1253.81	0.009512
1265.38	0.004322
1276.96	0.002602
1288.53	0.002182
1300.1	0.002282
1311.68	0.002212
1323.25	0.002102
1334.83	0.002352
1346.4	0.002322
1357.97	0.001852
1369.55	0.001792
1381.12	0.001932
1392.7	0.001582
1404.27	0.0012056
1415.84	0.0010113
1427.42	0.000908
1438.99	0.0009344
1450.57	0.0009986
1462.14	0.0010931
1473.71	0.0011086
1485.29	0.0009154
1496.86	0.0006905
1508.44	0.0005249
1520.01	0.0005303
1531.58	0.0006876
1543.16	0.0011772
1554.73	0.002892
1566.31	0.006462
1577.88	0.007432
1589.45	0.004322
1601.03	0.001842
1612.6	0.0009562
1624.18	0.0005183
1635.75	0.000123
1647.32	4.4e-05
1658.9	0.0003448
1670.47	0.000739
1682.05	0.001302
1693.62	0.002562
1705.19	0.005142
1716.77	0.010292
1728.34	0.020862
1739.92	0.027922
1751.49	0.028132
1763.06	0.018882
1774.64	0.011722
1786.21	0.007072
1797.79	0.004902
1809.36	0.002582
1820.93	0.001352
1832.51	0.0007934
1844.08	0.0005426
1855.66	0.0004656
1867.23	0.0004236
1878.8	0.0003933
1890.38	0.0003645
1901.95	0.00030231
1913.53	0.00024434
1925.1	0.00022302
1936.67	0.00023404
1948.25	0.00022266
1959.82	0.0002117
1971.4	0.0002142
1982.97	0.0002183
1994.54	0.0001906
2006.12	0.0002111
2017.69	0.0001981
2029.27	0.0001983
2040.84	0.000193
2052.41	0.0001939
2063.99	0.0002171
2075.56	0.000238832
2087.14	0.0002256
2098.71	0.0002141
2110.28	0.0002085
2121.86	0.0001935
2133.43	0.0001702
2145.01	0.0001479
2156.58	0.0001503
2168.15	0.0001488
2179.73	0.0001457
2191.3	0.0001576
2202.88	0.0001654
2214.45	0.0001335
2226.02	0.0001456
2237.6	0.00013
2249.17	0.0001386
2260.74	0.000112
2272.32	0.000122
2283.89	0.000123
2295.47	0.0001
2307.04	0.0001398
2318.61	0.000121
2330.19	0.000117
2341.76	0.0001344
2353.34	0.000121
2364.91	0.000118
2376.48	0.000125
2388.06	0.0001621
2399.63	0.0001391
2411.21	0.0001701
2422.78	0.0001548
2434.35	0.0001985
2445.93	0.0001814
2457.5	0.0002028
2469.08	0.0001696
2480.65	0.0001578
2492.22	0.0001643
2503.8	0.000142
2515.37	0.000124
2526.95	0.0001703
2538.52	0.0001745
2550.09	0.000149
2561.67	0.000126
2573.24	0.0001511
2584.82	0.0001621
2596.39	0.0001458
2607.96	0.0001708
2619.54	0.0001529
2631.11	0.0001391
2642.69	0.0001427
2654.26	0.000102
2665.83	0.000109
2677.41	0.000126
2688.98	0.000127
2700.56	0.000131
2712.13	9.2e-05
2723.7	8.4e-05
2735.28	0.0001479
2746.85	0.0001456
2758.43	0.0001564
2770	0.0001632
2781.57	0.0001838
2793.15	0.00024403
2804.72	0.00027254
2816.3	0.00023869
2827.87	0.0002738
2839.44	0.00031631
2851.02	0.0003672
2862.59	0.0004305
2874.17	0.0004855
2885.74	0.0006625
2897.31	0.0007511
2908.89	0.0008757
2920.46	0.0009566
2932.04	0.0012029
2943.61	0.001562
2955.18	0.001722
2966.76	0.001712
2978.33	0.002542
2989.91	0.003122
3001.48	0.002802
3013.05	0.001732
3024.63	0.0010597
3036.2	0.000674
3047.78	0.0004365
3059.35	0.00031034
3070.92	0.00025581
3082.5	0.00027318
3094.07	0.00032484
3105.65	0.00032953
3117.22	0.00031759
3128.79	0.00034
3140.37	0.00027994
3151.94	0.00023372
3163.52	0.00025972
3175.09	0.00022451
3186.66	0.0002098
3198.24	0.0001878
3209.81	0.0001373
3221.39	0.0001689
3232.96	0.0001626
3244.53	0.0001715
3256.11	0.0001588
3267.68	0.000188
3279.26	0.00022707
3290.83	0.0001522
3302.4	0.0002013
3313.98	0.00024545
3325.55	0.0002456
3337.13	0.00030643
3348.7	0.0001991
3360.27	0.00024593
3371.85	0.00026576
3383.42	0.0004104
3395	0.0006278
3406.57	0.0012232
3418.14	0.002342
3429.72	0.003182
3441.29	0.002582
3452.86	0.001342
3464.44	0.000815
3476.01	0.0006293
3487.59	0.0007333
3499.16	0.0008629
3510.73	0.001242
3522.31	0.001872
3533.88	0.002712
3545.46	0.003902
3557.03	0.003872
3568.6	0.002262
3580.18	0.0007379
3591.75	0.0003652
3603.33	0.00028347
3614.9	0.0002538
3626.47	0.00029833
3638.05	0.0002012
3649.62	0.000231468
3661.2	0.0001644
3672.77	0.00026693
3684.34	0.0002205
3695.92	0.0001763
3707.49	0.000108
3719.07	0.00022923
3730.64	0.0001995
3742.21	0.0001682
3753.79	0.00026027
3765.36	0.0001954
3776.94	0.00028298
3788.51	0.0002073
3800.08	0.0002071
3811.66	0.0002742
3823.23	0.00022344
3834.81	0.00027935
3846.38	0.00031227
3857.95	0.0002001
3869.53	0.0001735
3881.1	0.00026596
3892.68	0.00024966
3904.25	0.0001541
3915.82	0.000199
3927.4	0.0001765
3938.97	0.0001623
3950.55	0.0001852
3962.12	0.0001324
3973.69	0.000114
3985.27	0.0001548
3996.84	0.0001895
