Infrared Spectrum: CARBONIC ACID, DI-o-TOLYL ESTER
Formula: C15 H14 O3
CAS: 617-09-4
State: SOLUTION (CCl4 FOR 2-9.0, CS2 FOR 9.0-16 MICRON)
Melting point: 56-57.5 C
Class: COBLENTZ III
Instrument: BAIRD (PRISM)
Instrument parameters: NaCl PRISM
Sampling: TRANSMISSION
Path length: 0.010 CM, 0.010 CM
Resolution: 2
Origin: WYANDOTTE CHEMICALS CORP.
MICROMETERS	TRANSMITTANCE
1.978	0.899
2.01711	0.899
2.05621	0.889
2.09532	0.888
2.13442	0.891
2.17353	0.889
2.21263	0.88
2.25174	0.878
2.29084	0.875
2.32995	0.878
2.36905	0.884
2.40816	0.888
2.44726	0.891
2.48637	0.89
2.52547	0.889
2.56458	0.9
2.60368	0.902
2.64279	0.914
2.68189	0.912
2.721	0.914
2.7601	0.916
2.79921	0.902
2.83831	0.891
2.87742	0.911
2.91652	0.916
2.95563	0.92
2.99473	0.925
3.03384	0.926
3.07294	0.923
3.11205	0.917
3.15115	0.901
3.19026	0.89
3.22936	0.802
3.26847	0.46
3.30757	0.423
3.34668	0.513
3.38578	0.46
3.42489	0.455
3.46399	0.67
3.5031	0.668
3.5422	0.842
3.58131	0.898
3.62041	0.894
3.65952	0.898
3.69862	0.901
3.73773	0.929
3.77683	0.928
3.81594	0.932
3.85504	0.922
3.89415	0.907
3.93325	0.915
3.97236	0.926
4.01146	0.928
4.05057	0.912
4.08967	0.88
4.12878	0.874
4.16788	0.882
4.20699	0.894
4.24609	0.893
4.2852	0.905
4.3243	0.914
4.36341	0.916
4.40251	0.917
4.44162	0.916
4.48072	0.901
4.51983	0.853
4.55893	0.739
4.59804	0.815
4.63714	0.888
4.67625	0.91
4.71535	0.9
4.75446	0.92
4.79356	0.9
4.83267	0.899
4.87177	0.904
4.91088	0.904
4.94998	0.888
4.98909	0.894
5.02819	0.894
5.0673	0.889
5.1064	0.862
5.14551	0.869
5.18461	0.868
5.22372	0.832
5.26282	0.862
5.30193	0.761
5.34103	0.855
5.38014	0.839
5.41924	0.812
5.45835	0.803
5.49745	0.748
5.53656	0.606
5.57566	0.273
5.61477	0.047
5.65387	0.023
5.69298	0.023
5.73208	0.13
5.77119	0.45
5.81029	0.621
5.8494	0.697
5.8885	0.759
5.92761	0.77
5.96671	0.816
6.00582	0.841
6.04492	0.852
6.08403	0.855
6.12313	0.85
6.16224	0.759
6.20134	0.7
6.24045	0.578
6.27955	0.323
6.31866	0.601
6.35776	0.654
6.39687	0.647
6.43597	0.61
6.47508	0.601
6.51418	0.61
6.55329	0.614
6.59239	0.414
6.6315	0.191
6.6706	0.046
6.70971	0.063
6.74881	0.259
6.78792	0.205
6.82702	0.083
6.86613	0.183
6.90523	0.251
6.94434	0.379
6.98344	0.492
7.02255	0.587
7.06165	0.658
7.10076	0.707
7.13986	0.73
7.17897	0.716
7.21807	0.597
7.25718	0.492
7.29628	0.7
7.33539	0.744
7.37449	0.755
7.4136	0.757
7.4527	0.738
7.49181	0.685
7.53091	0.632
7.57002	0.603
7.60912	0.566
7.64823	0.506
7.68733	0.35
7.72644	0.238
7.76554	0.313
7.80465	0.309
7.84375	0.27
7.88286	0.173
7.92196	0.049
7.96107	0.024
8.00017	0.017
8.03928	0.017
8.07838	0.017
8.11749	0.017
8.15659	0.015
8.1957	0.014
8.2348	0.014
8.27391	0.019
8.31301	0.045
8.35212	0.088
8.39122	0.137
8.43033	0.144
8.46943	0.125
8.50854	0.09
8.54764	0.045
8.58675	0.019
8.62585	0.018
8.66496	0.019
8.70406	0.055
8.74317	0.223
8.78227	0.269
8.82138	0.308
8.86048	0.353
8.89959	0.351
8.93869	0.133
8.9778	0.071
9.01691	0.018
9.05601	0.015
9.09512	0.02
9.13422	0.082
9.17333	0.205
9.21243	0.334
9.25154	0.431
9.29064	0.477
9.32975	0.485
9.36885	0.477
9.40796	0.47
9.44706	0.47
9.48617	0.49
9.52527	0.477
9.56438	0.371
9.60348	0.191
9.64259	0.12
9.68169	0.224
9.7208	0.396
9.7599	0.49
9.79901	0.523
9.83811	0.52
9.87722	0.422
9.91632	0.169
9.95543	0.025
9.99453	0.036
10.0336	0.167
10.0727	0.217
10.1118	0.219
10.151	0.228
10.1901	0.3
10.2292	0.406
10.2683	0.474
10.3074	0.525
10.3465	0.587
10.3856	0.64
10.4247	0.67
10.4638	0.696
10.5029	0.712
10.542	0.722
10.5811	0.718
10.6202	0.699
10.6593	0.628
10.6984	0.523
10.7375	0.374
10.7766	0.434
10.8157	0.573
10.8548	0.727
10.8939	0.781
10.9331	0.799
10.9722	0.807
11.0113	0.807
11.0504	0.799
11.0895	0.785
11.1286	0.762
11.1677	0.714
11.2068	0.633
11.2459	0.465
11.285	0.202
11.3241	0.13
11.3632	0.217
11.4023	0.361
11.4414	0.5
11.4805	0.597
11.5196	0.664
11.5587	0.686
11.5978	0.684
11.6369	0.66
11.676	0.615
11.7152	0.581
11.7543	0.557
11.7934	0.547
11.8325	0.556
11.8716	0.624
11.9107	0.676
11.9498	0.696
11.9889	0.695
12.028	0.658
12.0671	0.554
12.1062	0.371
12.1453	0.31
12.1844	0.427
12.2235	0.536
12.2626	0.6
12.3017	0.617
12.3408	0.63
12.3799	0.638
12.419	0.635
12.4581	0.613
12.4973	0.565
12.5364	0.472
12.5755	0.346
12.6146	0.192
12.6537	0.127
12.6928	0.114
12.7319	0.125
12.771	0.119
12.8101	0.109
12.8492	0.121
12.8883	0.121
12.9274	0.094
12.9665	0.07
13.0056	0.054
13.0447	0.049
13.0838	0.051
13.1229	0.058
13.162	0.056
13.2011	0.046
13.2402	0.038
13.2794	0.034
13.3185	0.03
13.3576	0.03
13.3967	0.029
13.4358	0.028
13.4749	0.033
13.514	0.033
13.5531	0.034
13.5922	0.038
13.6313	0.044
13.6704	0.062
13.7095	0.068
13.7486	0.067
13.7877	0.068
13.8268	0.16
13.8659	0.265
13.905	0.361
13.9441	0.432
13.9832	0.449
14.0223	0.406
14.0615	0.377
14.1006	0.394
14.1397	0.364
14.1788	0.232
14.2179	0.105
14.257	0.131
14.2961	0.248
14.3352	0.389
14.3743	0.495
14.4134	0.563
14.4525	0.599
14.4916	0.621
14.5307	0.621
14.5698	0.589
14.6089	0.523
14.648	0.448
14.6871	0.468
14.7262	0.536
14.7653	0.626
14.8044	0.695
14.8436	0.737
14.8827	0.755
14.9218	0.775
14.9609	0.789
15	0.799
15.0391	0.796
15.0782	0.78
15.1173	0.775
15.1564	0.78
15.1955	0.797
15.2346	0.799
15.2737	0.791
15.3128	0.775
15.3519	0.757
15.391	0.739
15.4301	0.728
15.4692	0.728
15.5083	0.724
15.5474	0.708
15.5865	0.69
15.6257	0.67
15.6648	0.667
15.7039	0.674
15.743	0.694
15.7821	0.71
15.8212	0.719
15.8603	0.724
15.8994	0.724
15.9385	0.723
15.9776	0.722
