Infrared Spectrum: 2-AMINOPROPANE-1,3-DICARBOXYLIC ACID
Formula: C5 H9 N O4
CAS: 617-65-2
State: SOLID (NUJOL MULL)
Class: COBLENTZ
Instrument: Not specified, most likely a grating spectrometer.
Sampling: TRANSMISSION
Path length: (CsBr PLATES)
Resolution: 4
Origin: STANDARD OIL OF OHIO
1/CM	TRANSMITTANCE
244.695	0.886
254.176	0.886
263.657	0.886
273.138	0.883
282.618	0.88
292.099	0.876
301.58	0.866
311.061	0.844
320.542	0.81
330.023	0.802
339.504	0.78
348.984	0.777
358.465	0.773
367.946	0.699
377.427	0.5421
386.908	0.548
396.389	0.592
405.87	0.535
415.35	0.548
424.831	0.52
434.312	0.599
443.793	0.7169
453.274	0.758
462.755	0.77
472.236	0.792
481.716	0.81
491.197	0.81
500.678	0.785
510.159	0.685
519.64	0.709
529.121	0.782
538.602	0.7041
548.082	0.587
557.563	0.815
567.044	0.839
576.525	0.837
586.006	0.834
595.487	0.837
604.968	0.837
614.448	0.836
623.929	0.832
633.41	0.829
642.891	0.819
652.372	0.81
661.853	0.788
671.334	0.697
680.814	0.733
690.295	0.78
699.776	0.6821
709.257	0.599
718.738	0.476
728.219	0.6749
737.699	0.733
747.18	0.751
756.661	0.731
766.142	0.716
775.623	0.733
785.104	0.719
794.585	0.672
804.065	0.4711
813.546	0.521
823.027	0.775
832.508	0.792
841.989	0.775
851.47	0.753
860.951	0.699
870.431	0.527
879.912	0.75
889.393	0.733
898.874	0.714
908.355	0.679
917.836	0.648
927.317	0.679
936.797	0.652
946.278	0.4914
955.759	0.648
965.24	0.63
974.721	0.633
984.202	0.631
993.683	0.616
1003.16	0.597
1012.64	0.584
1022.13	0.564
1031.61	0.538
1041.09	0.498
1050.57	0.447
1060.05	0.434
1069.53	0.4541
1079.01	0.43
1088.49	0.461
1097.97	0.491
1107.45	0.478
1116.93	0.434
1126.41	0.346
1135.9	0.4659
1145.38	0.474
1154.86	0.429
1164.34	0.496
1173.82	0.479
1183.3	0.454
1192.78	0.429
1202.26	0.39
1211.74	0.342
1221.22	0.342
1230.7	0.309
1240.18	0.31
1249.67	0.364
1259.15	0.322
1268.63	0.4069
1278.11	0.586
1287.59	0.562
1297.07	0.469
1306.55	0.395
1316.03	0.354
1325.51	0.4959
1334.99	0.451
1344.47	0.375
1353.96	0.329
1363.44	0.364
1372.92	0.353
1382.4	0.3461
1391.88	0.494
1401.36	0.525
1410.84	0.418
1420.32	0.395
1429.8	0.442
1439.28	0.361
1448.76	0.344
1458.24	0.263
1467.73	0.255
1477.21	0.369
1486.69	0.38
1496.17	0.353
1505.65	0.312
1515.13	0.268
1524.61	0.293
1534.09	0.378
1543.57	0.442
1553.05	0.452
1562.53	0.456
1572.01	0.454
1581.5	0.451
1590.98	0.452
1600.46	0.457
1609.94	0.447
1619.42	0.447
1628.9	0.447
1638.38	0.359
1647.86	0.364
1657.34	0.398
1666.82	0.386
1676.3	0.408
1685.79	0.461
1695.27	0.489
1704.75	0.513
1714.23	0.528
1723.71	0.547
1733.19	0.548
1742.67	0.564
1752.15	0.574
1761.63	0.577
1771.11	0.579
1780.59	0.574
1790.07	0.57
1799.56	0.569
1809.04	0.567
1818.52	0.562
1828	0.559
1837.48	0.559
1846.96	0.565
1856.44	0.572
1865.92	0.577
1875.4	0.579
1884.88	0.582
1894.36	0.586
1903.84	0.584
1913.33	0.586
1922.81	0.587
1932.29	0.589
1941.77	0.592
1951.25	0.592
1960.73	0.592
1970.21	0.592
1979.69	0.596
1989.17	0.601
1998.65	0.609
2008.13	0.616
2017.61	0.627
2027.1	0.631
2036.58	0.637
2046.06	0.641
2055.54	0.643
2065.02	0.6399
2074.5	0.632
2083.98	0.63
2093.46	0.6417
2102.94	0.6771
2112.42	0.6956
2121.9	0.7041
2131.39	0.7115
2140.87	0.7141
2150.35	0.719
2159.83	0.719
2169.31	0.719
2178.79	0.719
2188.27	0.7201
2197.75	0.7209
2207.23	0.7164
2216.71	0.7138
2226.19	0.712
2235.67	0.712
2245.16	0.7114
2254.64	0.7058
2264.12	0.702
2273.6	0.699
2283.08	0.6958
2292.56	0.689
2302.04	0.6844
2311.52	0.6748
2321	0.6708
2330.48	0.6679
2339.96	0.6624
2349.44	0.6579
2358.93	0.6538
2368.41	0.653
2377.89	0.652
2387.37	0.6476
2396.85	0.6404
2406.33	0.6359
2415.81	0.635
2425.29	0.6327
2434.77	0.6287
2444.25	0.623
2453.73	0.623
2463.22	0.6227
2472.7	0.6167
2482.18	0.6081
2491.66	0.595
2501.14	0.5984
2510.62	0.6166
2520.1	0.6188
2529.58	0.616
2539.06	0.6107
2548.54	0.6066
2558.02	0.604
2567.5	0.6016
2576.99	0.5868
2586.47	0.576
2595.95	0.576
2605.43	0.576
2614.91	0.5736
2624.39	0.5654
2633.87	0.5512
2643.35	0.5306
2652.83	0.528
2662.31	0.528
2671.79	0.5331
2681.27	0.5477
2690.76	0.552
2700.24	0.548
2709.72	0.5415
2719.2	0.5273
2728.68	0.4993
2738.16	0.489
2747.64	0.4932
2757.12	0.5038
2766.6	0.5188
2776.08	0.5235
2785.56	0.5207
2795.05	0.5137
2804.53	0.4914
2814.01	0.4574
2823.49	0.4237
2832.97	0.3706
2842.45	0.2704
2851.93	0.1539
2861.41	0.103
2870.89	0.1385
2880.37	0.1585
2889.85	0.1687
2899.33	0.1294
2908.82	0.0978
2918.3	0.069
2927.78	0.05
2937.26	0.0579
2946.74	0.0851
2956.22	0.087
2965.7	0.0997
2975.18	0.1659
2984.66	0.2583
2994.14	0.3109
3003.62	0.3362
3013.1	0.346
3022.59	0.3487
3032.07	0.347
3041.55	0.347
3051.03	0.351
3060.51	0.354
3069.99	0.3571
3079.47	0.3686
3088.95	0.3896
3098.43	0.4183
3107.91	0.4485
3117.39	0.4731
3126.88	0.4955
3136.36	0.5028
3145.84	0.518
3155.32	0.5292
3164.8	0.5551
3174.28	0.585
3183.76	0.6169
3193.24	0.6509
3202.72	0.686
3212.2	0.7101
3221.68	0.7269
3231.16	0.7389
3240.65	0.7542
3250.13	0.7658
3259.61	0.7774
3269.09	0.7971
3278.57	0.8074
3288.05	0.8199
3297.53	0.8299
3307.01	0.8369
3316.49	0.841
3325.97	0.8469
3335.45	0.851
3344.93	0.851
3354.42	0.8519
3363.9	0.854
3373.38	0.854
3382.86	0.856
3392.34	0.856
3401.82	0.856
3411.3	0.858
3420.78	0.858
3430.26	0.859
3439.74	0.859
3449.22	0.86
3458.71	0.861
3468.19	0.863
3477.67	0.863
3487.15	0.864
3496.63	0.864
3506.11	0.868
3515.59	0.868
3525.07	0.869
3534.55	0.869
3544.03	0.869
3553.51	0.869
3562.99	0.87
3572.48	0.871
3581.96	0.871
3591.44	0.869
3600.92	0.869
3610.4	0.869
3619.88	0.869
3629.36	0.869
3638.84	0.869
3648.32	0.869
3657.8	0.871
3667.28	0.869
3676.76	0.869
3686.25	0.869
3695.73	0.8721
3705.21	0.8729
3714.69	0.8721
3724.17	0.868
3733.65	0.868
3743.13	0.868
3752.61	0.868
3762.09	0.8639
3771.57	0.863
3781.05	0.861
3790.53	0.863
3800.02	0.863
3809.5	0.861
3818.98	0.859
3828.46	0.859
3837.94	0.859
3847.42	0.859
3856.9	0.8608
3866.38	0.8555
3875.86	0.854
3885.34	0.854
