Infrared Spectrum: 5-TERT-BUTYL-2',4'-DICHLORO-2-HYDROXYBENZOPHENONE
Formula: C17 H16 Cl2 O2
CAS: 61709-37-3
State: SOLID (MINERAL OIL MULL)
Class: COBLENTZ
Instrument: Not specified, most likely a prism, grating, or hybrid spectrometer.
Sampling: TRANSMISSION
Resolution: 4
Origin: DOW CHEMICAL COMPANY
MICROMETERS	TRANSMITTANCE
2.025	0.301
2.06427	0.31
2.10355	0.316
2.14282	0.324
2.1821	0.331
2.22137	0.336
2.26065	0.344
2.29992	0.352
2.3392	0.363
2.37847	0.375
2.41775	0.387
2.45702	0.405
2.49629	0.422
2.53557	0.435
2.57484	0.443
2.61412	0.451
2.65339	0.462
2.69267	0.47
2.73194	0.48
2.77122	0.49
2.81049	0.498
2.84977	0.493
2.88904	0.436
2.92832	0.243
2.96759	0.068
3.00686	0.125
3.04614	0.212
3.08541	0.279
3.12469	0.331
3.16396	0.375
3.20324	0.407
3.24251	0.407
3.28179	0.42
3.32106	0.394
3.36034	0.214
3.39961	0.053
3.43888	0.099
3.47816	0.147
3.51743	0.339
3.55671	0.498
3.59598	0.54
3.63526	0.545
3.67453	0.535
3.71381	0.55
3.75308	0.55
3.79236	0.566
3.83163	0.566
3.87091	0.569
3.91018	0.577
3.94945	0.581
3.98873	0.586
4.028	0.602
4.06728	0.594
4.10655	0.587
4.14583	0.61
4.1851	0.623
4.22438	0.612
4.26365	0.612
4.30293	0.634
4.3422	0.652
4.38147	0.657
4.42075	0.662
4.46002	0.665
4.4993	0.67
4.53857	0.675
4.57785	0.678
4.61712	0.68
4.6564	0.68
4.69567	0.68
4.73495	0.681
4.77422	0.685
4.81349	0.691
4.85277	0.701
4.89204	0.709
4.93132	0.714
4.97059	0.712
5.00987	0.715
5.04914	0.719
5.08842	0.724
5.12769	0.722
5.16697	0.717
5.20624	0.709
5.24552	0.714
5.28479	0.728
5.32406	0.738
5.36334	0.741
5.40261	0.745
5.44189	0.753
5.48116	0.75
5.52044	0.753
5.55971	0.741
5.59899	0.737
5.63826	0.746
5.67754	0.759
5.71681	0.754
5.75608	0.746
5.79536	0.741
5.83463	0.75
5.87391	0.751
5.91318	0.745
5.95246	0.701
5.99173	0.634
6.03101	0.485
6.07028	0.129
6.10956	0.355
6.14883	0.48
6.18811	0.37
6.22738	0.165
6.26665	0.209
6.30593	0.038
6.3452	0.055
6.38448	0.115
6.42375	0.25
6.46303	0.35
6.5023	0.519
6.54158	0.561
6.58085	0.386
6.62013	0.36
6.6594	0.561
6.69867	0.589
6.73795	0.576
6.77722	0.412
6.8165	0.29
6.85577	0.34
6.89505	0.383
6.93432	0.532
6.9736	0.652
7.01287	0.672
7.05215	0.686
7.09142	0.686
7.13069	0.652
7.16997	0.564
7.20924	0.412
7.24852	0.253
7.28779	0.259
7.32707	0.417
7.36634	0.514
7.40562	0.6
7.44489	0.6
7.48417	0.558
7.52344	0.496
7.56272	0.323
7.60199	0.097
7.64126	0.172
7.68054	0.102
7.71981	0.074
7.75909	0.129
7.79836	0.168
7.83764	0.206
7.87691	0.253
7.91619	0.319
7.95546	0.376
7.99474	0.363
8.03401	0.329
8.07328	0.332
8.11256	0.22
8.15183	0.097
8.19111	0.09
8.23038	0.201
8.26966	0.319
8.30893	0.412
8.34821	0.472
8.38748	0.504
8.42676	0.527
8.46603	0.467
8.50531	0.42
8.54458	0.548
8.58385	0.556
8.62313	0.394
8.6624	0.129
8.70168	0.108
8.74095	0.254
8.78023	0.357
8.8195	0.498
8.85878	0.553
8.89805	0.577
8.93733	0.577
8.9766	0.522
9.01587	0.439
9.05515	0.357
9.09442	0.43
9.1337	0.574
9.17297	0.621
9.21225	0.65
9.25152	0.672
9.2908	0.683
9.33007	0.688
9.36935	0.688
9.40862	0.662
9.44789	0.59
9.48717	0.576
9.52644	0.678
9.56572	0.715
9.60499	0.732
9.64427	0.741
9.68354	0.748
9.72282	0.754
9.76209	0.758
9.80137	0.762
9.84064	0.764
9.87992	0.766
9.91919	0.771
9.95846	0.775
9.99774	0.78
10.037	0.782
10.0763	0.785
10.1156	0.785
10.1548	0.785
10.1941	0.784
10.2334	0.779
10.2727	0.772
10.3119	0.762
10.3512	0.759
10.3905	0.74
10.4298	0.62
10.469	0.626
10.5083	0.715
10.5476	0.753
10.5869	0.756
10.6261	0.732
10.6654	0.649
10.7047	0.456
10.744	0.191
10.7832	0.232
10.8225	0.519
10.8618	0.621
10.9011	0.657
10.9403	0.694
10.9796	0.714
11.0189	0.725
11.0582	0.732
11.0974	0.737
11.1367	0.738
11.176	0.741
11.2153	0.745
11.2545	0.746
11.2938	0.748
11.3331	0.75
11.3723	0.748
11.4116	0.743
11.4509	0.735
11.4902	0.707
11.5294	0.623
11.5687	0.475
11.608	0.405
11.6473	0.519
11.6865	0.462
11.7258	0.293
11.7651	0.305
11.8044	0.555
11.8436	0.659
11.8829	0.678
11.9222	0.67
11.9615	0.633
12.0007	0.55
12.04	0.417
12.0793	0.308
12.1186	0.349
12.1578	0.438
12.1971	0.508
12.2364	0.594
12.2757	0.644
12.3149	0.67
12.3542	0.676
12.3935	0.675
12.4328	0.655
12.472	0.623
12.5113	0.53
12.5506	0.407
12.5899	0.376
12.6291	0.5
12.6684	0.607
12.7077	0.657
12.747	0.678
12.7862	0.685
12.8255	0.681
12.8648	0.659
12.9041	0.582
12.9433	0.431
12.9826	0.31
13.0219	0.36
13.0612	0.556
13.1004	0.647
13.1397	0.681
13.179	0.698
13.2183	0.704
13.2575	0.707
13.2968	0.709
13.3361	0.709
13.3754	0.709
13.4146	0.702
13.4539	0.696
13.4932	0.689
13.5325	0.686
13.5717	0.681
13.611	0.676
13.6503	0.668
13.6895	0.655
13.7288	0.637
13.7681	0.6
13.8074	0.568
13.8466	0.569
13.8859	0.6
13.9252	0.62
13.9645	0.623
14.0037	0.621
14.043	0.615
14.0823	0.607
14.1216	0.594
14.1608	0.579
14.2001	0.564
14.2394	0.537
14.2787	0.504
14.3179	0.465
14.3572	0.423
14.3965	0.384
14.4358	0.362
14.475	0.379
14.5143	0.413
14.5536	0.446
14.5929	0.459
14.6321	0.462
14.6714	0.459
14.7107	0.451
14.75	0.441
14.7892	0.433
14.8285	0.42
14.8678	0.405
14.9071	0.381
14.9463	0.363
14.9856	0.366
15.0249	0.36
15.0642	0.34
15.1034	0.321
15.1427	0.31
15.182	0.303
15.2213	0.297
15.2605	0.29
15.2998	0.285
15.3391	0.275
15.3784	0.258
15.4176	0.227
15.4569	0.217
15.4962	0.222
15.5355	0.241
15.5747	0.261
15.614	0.274
15.6533	0.28
15.6926	0.282
15.7318	0.284
15.7711	0.285
15.8104	0.285
15.8497	0.285
15.8889	0.287
15.9282	0.287
