Infrared Spectrum: Methylenebis(ethyl thioglycolate)
Formula: C 9 H 16 O 4 S 2
CAS: 61713-23-3
State: gas
Origin: EPA-IR VAPOR PHASE LIBRARY
1/CM	ABSORBANCE
549.8	0.003207
559.445	0.003427
569.09	0.007757
578.734	0.009867
588.379	0.011007
598.024	0.007627
607.669	0.004467
617.313	0.004497
626.958	0.003107
636.603	0.003477
646.248	0.004277
655.893	0.005127
665.537	0.006157
675.182	0.008997
684.827	0.014227
694.472	0.018947
704.116	0.020437
713.761	0.025917
723.406	0.034127
733.051	0.031027
742.695	0.022177
752.34	0.016617
761.985	0.016047
771.63	0.016727
781.275	0.017597
790.919	0.018867
800.564	0.021427
810.209	0.019917
819.854	0.017217
829.498	0.016817
839.143	0.017417
848.788	0.017997
858.433	0.016327
868.078	0.014327
877.722	0.012797
887.367	0.014487
897.012	0.018747
906.657	0.025617
916.301	0.031647
925.946	0.033927
935.591	0.029127
945.236	0.019807
954.88	0.012797
964.525	0.009727
974.17	0.009357
983.815	0.011607
993.46	0.017567
1003.1	0.029087
1012.75	0.058427
1022.39	0.117297
1032.04	0.178107
1041.68	0.135377
1051.33	0.066697
1060.97	0.043927
1070.62	0.040177
1080.26	0.050427
1089.91	0.083627
1099.55	0.138917
1109.2	0.223917
1118.84	0.325377
1128.49	0.351257
1138.13	0.330427
1147.78	0.309807
1157.42	0.263547
1167.07	0.208477
1176.71	0.170307
1186.36	0.157017
1196	0.168097
1205.64	0.151897
1215.29	0.130287
1224.93	0.143297
1234.58	0.166507
1244.22	0.228497
1253.87	0.337567
1263.51	0.422677
1273.16	0.421917
1282.8	0.361207
1292.45	0.258027
1302.09	0.159907
1311.74	0.099457
1321.38	0.059177
1331.03	0.036287
1340.67	0.026167
1350.32	0.024937
1359.96	0.036917
1369.61	0.060707
1379.25	0.047807
1388.9	0.049787
1398.54	0.058777
1408.18	0.062997
1417.83	0.054217
1427.47	0.037787
1437.12	0.030617
1446.76	0.031147
1456.41	0.033187
1466.05	0.037847
1475.7	0.035857
1485.34	0.024237
1494.99	0.015917
1504.63	0.012127
1514.28	0.009947
1523.92	0.008277
1533.57	0.007857
1543.21	0.006987
1552.86	0.007007
1562.5	0.006657
1572.15	0.006597
1581.79	0.006367
1591.44	0.006267
1601.08	0.006267
1610.73	0.006607
1620.37	0.007027
1630.01	0.007177
1639.66	0.007677
1649.3	0.007827
1658.95	0.008537
1668.59	0.010007
1678.24	0.013357
1687.88	0.019007
1697.53	0.028437
1707.17	0.043897
1716.82	0.071967
1726.46	0.131807
1736.11	0.266337
1745.75	0.440137
1755.4	0.512087
1765.04	0.337547
1774.69	0.158587
1784.33	0.072607
1793.98	0.038757
1803.62	0.024257
1813.27	0.016907
1822.91	0.012517
1832.55	0.010567
1842.2	0.009377
1851.84	0.008277
1861.49	0.007797
1871.13	0.007507
1880.78	0.007047
1890.42	0.006607
1900.07	0.005917
1909.71	0.005697
1919.36	0.005337
1929	0.005377
1938.65	0.006027
1948.29	0.006257
1957.94	0.006297
1967.58	0.005917
1977.23	0.005427
1986.87	0.004857
1996.52	0.004507
2006.16	0.004397
2015.81	0.004527
2025.45	0.004197
2035.1	0.004377
2044.74	0.004167
2054.38	0.004257
2064.03	0.004217
2073.67	0.003977
2083.32	0.004107
2092.96	0.004057
2102.61	0.003887
2112.25	0.003777
2121.9	0.003747
2131.54	0.003307
2141.19	0.002897
2150.83	0.002957
2160.48	0.003177
2170.12	0.003017
2179.77	0.003127
2189.41	0.003147
2199.06	0.003297
2208.7	0.003417
2218.35	0.003257
2227.99	0.002607
2237.64	0.002317
2247.28	0.002417
2256.92	0.002077
2266.57	0.001897
2276.21	0.002107
2285.86	0.002307
2295.5	0.002407
2305.15	0.002487
2314.79	0.002907
2324.44	0.002667
2334.08	0.002667
2343.73	0.002057
2353.37	0.001967
2363.02	0.001967
2372.66	0.001947
2382.31	0.002047
2391.95	0.002417
2401.6	0.002317
2411.24	0.002707
2420.89	0.002657
2430.53	0.002457
2440.18	0.002477
2449.82	0.002377
2459.47	0.002447
2469.11	0.001997
2478.75	0.002347
2488.4	0.002087
2498.04	0.001977
2507.69	0.001727
2517.33	0.001867
2526.98	0.001647
2536.62	0.001547
2546.27	0.0012744
2555.91	0.001407
2565.56	0.0013242
2575.2	0.0013761
2584.85	0.001517
2594.49	0.001407
2604.14	0.001847
2613.78	0.001637
2623.43	0.001977
2633.07	0.001897
2642.72	0.001577
2652.36	0.001927
2662.01	0.001867
2671.65	0.001477
2681.29	0.001957
2690.94	0.001587
2700.58	0.001657
2710.23	0.001527
2719.87	0.001907
2729.52	0.002117
2739.16	0.002387
2748.81	0.002367
2758.45	0.002627
2768.1	0.003847
2777.74	0.004287
2787.39	0.004037
2797.03	0.004637
2806.68	0.005077
2816.32	0.005347
2825.97	0.005967
2835.61	0.006227
2845.26	0.006727
2854.9	0.008607
2864.55	0.011237
2874.19	0.016587
2883.84	0.023787
2893.48	0.027697
2903.12	0.033967
2912.77	0.046067
2922.41	0.056897
2932.06	0.068997
2941.7	0.081557
2951.35	0.071127
2960.99	0.062897
2970.64	0.079467
2980.28	0.117727
2989.93	0.131357
2999.57	0.086167
3009.22	0.057707
3018.86	0.035277
3028.51	0.021307
3038.15	0.013917
3047.8	0.009917
3057.44	0.007687
3067.09	0.006417
3076.73	0.005577
3086.38	0.005037
3096.02	0.004677
3105.67	0.004147
3115.31	0.004087
3124.95	0.004167
3134.6	0.003487
3144.24	0.003527
3153.89	0.002907
3163.53	0.003217
3173.18	0.002717
3182.82	0.001997
3192.47	0.002227
3202.11	0.001997
3211.76	0.002207
3221.4	0.0013192
3231.05	0.0011746
3240.69	0.0013463
3250.34	0.0011416
3259.98	0.001467
3269.63	0.0009847
3279.27	0.0012419
3288.92	0.0007838
3298.56	0.0013362
3308.21	0.0007526
3317.85	0.0007877
3327.49	0.0007554
3337.14	0.0006981
3346.78	0.0005834
3356.43	0.0005588
3366.07	0.0007088
3375.72	0.0004953
3385.36	0.0010561
3395.01	0.0010384
3404.65	0.000925
3414.3	0.001597
3423.94	0.001457
3433.59	0.001497
3443.23	0.002297
3452.88	0.002287
3462.52	0.003297
3472.17	0.003997
3481.81	0.004997
3491.46	0.005607
3501.1	0.004587
3510.75	0.003397
3520.39	0.002047
3530.04	0.0012229
3539.68	0.0009214
3549.32	0.0008591
3558.97	0.0004682
3568.61	0.0006106
3578.26	0.000739
3587.9	0.0005736
3597.55	0.0008618
3607.19	0.0009065
3616.84	0.0006094
3626.48	0.00042234
3636.13	0.00042371
3645.77	0.0003581
3655.42	0.0003704
3665.06	0.0006847
3674.71	0.0006233
3684.35	0.0005699
3694	0.0008072
3703.64	0.0009244
3713.29	0.0007457
3722.93	0.0007296
3732.58	0.0006806
3742.22	0.000164
3751.86	0.0011183
3761.51	0.0009015
3771.15	0.0007973
3780.8	0.000904
3790.44	0.0009311
3800.09	0.0009032
3809.73	0.0007979
3819.38	0.0010565
3829.02	0.001055
3838.67	0.0005032
3848.31	0.0008055
3857.96	0.001447
3867.6	0.0007988
3877.25	0.0008735
3886.89	0.0013718
3896.54	0.001013
3906.18	0.0007709
3915.83	0.0006455
3925.47	0.0003244
3935.12	0.0009191
3944.76	0.0008968
3954.41	0.0007247
3964.05	0.000162
3973.69	0.0012684
3983.34	0.0013663
3992.98	0.0012855
