Infrared Spectrum: Tetraethyl ethylenetetracarboxylate
Formula: C 14 H 20 O 8
CAS: 6174-95-4
State: gas
Origin: EPA-IR VAPOR PHASE LIBRARY
1/CM	ABSORBANCE
549.8	0.00385
559.445	0.00437
569.09	0.00535
578.735	0.00782
588.38	0.01095
598.025	0.01214
607.67	0.0102
617.315	0.00802
626.96	0.00637
636.605	0.00493
646.251	0.0039
655.896	0.00347
665.541	0.00348
675.186	0.00364
684.831	0.0048
694.476	0.00689
704.121	0.01025
713.766	0.0152
723.411	0.01352
733.056	0.00754
742.701	0.00547
752.346	0.00573
761.991	0.00718
771.636	0.00942
781.281	0.0113
790.926	0.01186
800.571	0.01098
810.216	0.0093
819.861	0.00859
829.507	0.00852
839.152	0.01007
848.797	0.0154
858.442	0.02793
868.087	0.02957
877.732	0.01517
887.377	0.00766
897.022	0.00552
906.667	0.00498
916.312	0.00494
925.957	0.00532
935.602	0.00682
945.247	0.00979
954.892	0.0112
964.537	0.01098
974.182	0.0126
983.827	0.01479
993.472	0.01722
1003.12	0.02369
1012.76	0.0396
1022.41	0.07877
1032.05	0.15348
1041.7	0.2216
1051.34	0.18892
1060.99	0.09229
1070.63	0.05892
1080.28	0.06115
1089.92	0.08674
1099.57	0.099
1109.21	0.06566
1118.86	0.04077
1128.5	0.03038
1138.15	0.02631
1147.79	0.02675
1157.44	0.03095
1167.08	0.03861
1176.73	0.05067
1186.37	0.0709
1196.02	0.11292
1205.66	0.20156
1215.31	0.3593
1224.95	0.55233
1234.6	0.66887
1244.24	0.57914
1253.89	0.37901
1263.53	0.22681
1273.18	0.15169
1282.82	0.12281
1292.47	0.11407
1302.11	0.11378
1311.76	0.08967
1321.4	0.05369
1331.05	0.0324
1340.69	0.02245
1350.34	0.01929
1359.98	0.02838
1369.63	0.06156
1379.27	0.0336
1388.92	0.0239
1398.56	0.02281
1408.21	0.01961
1417.85	0.01671
1427.5	0.01611
1437.14	0.01831
1446.79	0.02219
1456.43	0.02446
1466.08	0.03058
1475.73	0.03243
1485.37	0.01883
1495.02	0.01157
1504.66	0.00892
1514.31	0.0076
1523.95	0.00702
1533.6	0.00662
1543.24	0.00628
1552.89	0.00614
1562.53	0.00591
1572.18	0.00565
1581.82	0.00546
1591.47	0.00535
1601.11	0.0055
1610.76	0.00593
1620.4	0.00674
1630.05	0.00878
1639.69	0.01184
1649.34	0.0126
1658.98	0.01149
1668.63	0.0117
1678.27	0.0133
1687.92	0.01652
1697.56	0.0227
1707.21	0.03354
1716.85	0.05091
1726.5	0.09146
1736.14	0.20302
1745.79	0.38616
1755.43	0.40211
1765.08	0.25896
1774.72	0.11973
1784.37	0.06126
1794.01	0.03793
1803.66	0.02521
1813.3	0.01694
1822.95	0.01196
1832.59	0.00904
1842.24	0.00734
1851.88	0.00625
1861.53	0.00572
1871.17	0.00551
1880.82	0.00532
1890.46	0.00511
1900.11	0.00491
1909.75	0.00447
1919.4	0.00392
1929.04	0.00336
1938.69	0.00305
1948.33	0.00303
1957.98	0.00304
1967.62	0.00286
1977.27	0.00259
1986.91	0.0023821
1996.56	0.0023368
2006.2	0.0023342
2015.85	0.0024461
2025.49	0.0024148
2035.14	0.0025
2044.78	0.0026
2054.43	0.00275
2064.07	0.00293
2073.72	0.00334
2083.36	0.00365
2093.01	0.0038
2102.65	0.00368
2112.3	0.00329
2121.94	0.00277
2131.59	0.002392
2141.23	0.0020636
2150.88	0.0019619
2160.52	0.0018403
2170.17	0.0017774
2179.81	0.0017666
2189.46	0.0018216
2199.1	0.001826
2208.75	0.0018087
2218.39	0.0019321
2228.04	0.0020623
2237.68	0.0020121
2247.33	0.0019972
2256.97	0.0020091
2266.62	0.0020042
2276.26	0.0018701
2285.91	0.001801
2295.55	0.0017573
2305.2	0.0017384
2314.84	0.0017988
2324.49	0.0020428
2334.13	0.0021923
2343.78	0.0021451
2353.42	0.0019337
2363.07	0.0018949
2372.72	0.001818
2382.36	0.0017644
2392.01	0.0018169
2401.65	0.0018549
2411.3	0.0019176
2420.94	0.001791
2430.59	0.0018036
2440.23	0.0018322
2449.88	0.001828
2459.52	0.0020536
2469.17	0.0019841
2478.81	0.001936
2488.46	0.0017067
2498.1	0.0014653
2507.75	0.0013521
2517.39	0.001309
2527.04	0.001331
2536.68	0.001237
2546.33	0.001169
2555.97	0.001046
2565.62	0.000929
2575.26	0.000964
2584.91	0.000902
2594.55	0.000976
2604.2	0.001069
2613.84	0.001179
2623.49	0.001108
2633.13	0.000846
2642.78	0.000691
2652.42	0.000593
2662.07	0.000607
2671.71	0.000627
2681.36	0.000571
2691	0.00078
2700.65	0.000789
2710.29	0.000904
2719.94	0.001172
2729.58	0.00150528
2739.23	0.00147529
2748.87	0.00146301
2758.52	0.0016725
2768.16	0.0019973
2777.81	0.0024116
2787.45	0.0022065
2797.1	0.0022506
2806.74	0.002369
2816.39	0.00283
2826.03	0.00352
2835.68	0.00389
2845.32	0.00434
2854.97	0.00555
2864.61	0.00719
2874.26	0.01073
2883.9	0.01654
2893.55	0.01648
2903.19	0.01949
2912.84	0.0241
2922.48	0.02306
2932.13	0.02979
2941.77	0.05109
2951.42	0.04447
2961.06	0.03665
2970.71	0.05133
2980.35	0.07989
2990	0.09531
2999.64	0.05803
3009.29	0.03881
3018.93	0.02372
3028.58	0.01404
3038.22	0.009
3047.87	0.00652
3057.51	0.00491
3067.16	0.00396
3076.8	0.00329
3086.45	0.00259
3096.09	0.0023673
3105.74	0.0022562
3115.38	0.002199
3125.03	0.0019829
3134.67	0.0019364
3144.32	0.0016492
3153.96	0.0015593
3163.61	0.0013926
3173.25	0.001195
3182.9	0.001167
3192.54	0.00096
3202.19	0.000937
3211.83	0.000633
3221.48	0.000519
3231.12	0.000515
3240.77	0.00041
3250.41	0.00027
3260.06	0.00013
3269.7	0.00019
3279.35	0.00017
3289	0.00013
3298.64	0.00013
3308.29	0.00016
3317.93	0.0002
3327.58	0.00022
3337.22	0.00026
3346.87	0.00023
3356.51	0.0002
3366.16	0.00024
3375.8	0.00048
3385.45	0.000567
3395.09	0.00062
3404.74	0.000582
3414.38	0.000584
3424.03	0.000765
3433.67	0.00108
3443.32	0.001266
3452.96	0.0018098
3462.61	0.00249
3472.25	0.00328
3481.9	0.00381
3491.54	0.00342
3501.19	0.00265
3510.83	0.0017044
3520.48	0.0013526
3530.12	0.001013
3539.77	0.000736
3549.41	0.000635
3559.06	0.000512
3568.7	0.00034
3578.35	0.000509
3587.99	0.00029
3597.64	0.00028
3607.28	0.0004
3616.93	0.00035
3626.57	0.00028
3636.22	0.00031
3645.86	0.00039
3655.51	0.00031
3665.15	0.00018
3674.8	0.00031
3684.44	0.0003
3694.09	0.00041
3703.73	0.00037
3713.38	0.00042
3723.02	0.00036
3732.67	0.00029
3742.31	0.00045
3751.96	0.000574
3761.6	0.000621
3771.25	0.000676
3780.89	0.000749
3790.54	0.000597
3800.18	0.000726
3809.83	0.000684
3819.47	0.000682
3829.12	0.000656
3838.76	0.000656
3848.41	0.000661
3858.05	0.000682
3867.7	0.000722
3877.34	0.000665
3886.99	0.000691
3896.63	0.000535
3906.28	0.00042
3915.92	0.000617
3925.57	0.000701
3935.21	0.000606
3944.86	0.000843
3954.5	0.000738
3964.15	0.000694
3973.79	0.000964
3983.44	0.000918
3993.08	0.000918
