Infrared Spectrum: 2-Dodecanone
Formula: C 12 H 24 O
CAS: 6175-49-1
State: gas
Instrument: HP-GC/MS/IRD
Origin: NIST Mass Spectrometry Data Center
1/CM	ABSORBANCE
550	0.0005264
562	0.0003472
574	0.0004816
586	0.000644
598	0.0006552
610	0.0003584
622	0.000112
634	6.72e-05
646	4.48e-05
658	8.96e-05
670	0.0001288
682	0.0002632
694	0.0004536
706	0.0009072
718	0.0012376
730	0.0010136
742	0.0007168
754	0.0005264
766	0.0004984
778	0.0004648
790	0.000392
802	0.000336
814	0.0003584
826	0.0002912
838	0.0002856
850	0.0003752
862	0.00042
874	0.0004872
886	0.0005712
898	0.0005992
910	0.0006664
922	0.0007784
934	0.0009912
946	0.0011984
958	0.0012264
970	0.001148
982	0.0010472
994	0.0009856
1006	0.0009576
1018	0.0008624
1030	0.0008344
1042	0.0006328
1054	0.00056
1066	0.0005376
1078	0.0004592
1090	0.0004704
1102	0.0007224
1114	0.0010752
1126	0.0014448
1138	0.0024472
1150	0.004844
1162	0.0060984
1174	0.0048384
1186	0.0037464
1198	0.003304
1210	0.00322
1222	0.003136
1234	0.0025312
1246	0.0020272
1258	0.0018592
1270	0.0018984
1282	0.0019432
1294	0.0021056
1306	0.0022624
1318	0.0024976
1330	0.003108
1342	0.0050288
1354	0.008316
1366	0.008652
1378	0.0050232
1390	0.0031976
1402	0.0025536
1414	0.002912
1426	0.0031248
1438	0.00364
1450	0.0047488
1462	0.0055944
1474	0.0038584
1486	0.001848
1498	0.001232
1510	0.0012432
1522	0.001064
1534	0.0008176
1546	0.0007672
1558	0.0009016
1570	0.0005096
1582	0.0003864
1594	0.0003472
1606	0.0003416
1618	0.0004536
1630	0.0003976
1642	0.0005544
1654	0.0009408
1666	0.0010696
1678	0.0017528
1690	0.0030856
1702	0.005768
1714	0.0103208
1726	0.0168784
1738	0.0156184
1750	0.0079016
1762	0.0037464
1774	0.0018424
1786	0.0009744
1798	0.0006328
1810	0.0003864
1822	0.0003024
1834	0.0002464
1846	0.0002744
1858	0.0001568
1870	0.0001904
1882	0.0001176
1894	0.0001288
1906	0.0001008
1918	0.000112
1930	7.28e-05
1942	0.0001008
1954	5.6e-05
1966	6.16e-05
1978	2.8e-05
1990	6.16e-05
2002	4.48e-05
2014	7.84e-05
2026	7.84e-05
2038	8.96e-05
2050	7.84e-05
2062	0.0001064
2074	9.52e-05
2086	8.96e-05
2098	7.28e-05
2110	6.72e-05
2122	7.84e-05
2134	8.4e-05
2146	7.84e-05
2158	7.28e-05
2170	5.6e-05
2182	4.48e-05
2194	5.04e-05
2206	5.6e-05
2218	3.92e-05
2230	3.92e-05
2242	5.6e-05
2254	6.16e-05
2266	5.6e-05
2278	6.16e-05
2290	8.4e-05
2302	8.4e-05
2314	0.000112
2326	0.0001288
2338	0.000112
2350	0.0001008
2362	0.0001512
2374	0.0001008
2386	6.72e-05
2398	2.8e-05
2410	3.92e-05
2422	4.48e-05
2434	3.92e-05
2446	4.48e-05
2458	1.12e-05
2470	3.36e-05
2482	5.04e-05
2494	7.84e-05
2506	9.52e-05
2518	0.0001008
2530	0.0001232
2542	0.0001568
2554	0.0001456
2566	0.0001624
2578	0.0001848
2590	0.0001848
2602	0.0002464
2614	0.0002688
2626	0.000308
2638	0.0003808
2650	0.00042
2662	0.0004872
2674	0.0005544
2686	0.0005712
2698	0.00056
2710	0.0005264
2722	0.0005376
2734	0.0006272
2746	0.0007056
2758	0.0007728
2770	0.0008736
2782	0.0010696
2794	0.0014392
2806	0.0018984
2818	0.0025872
2830	0.0036736
2842	0.0062272
2854	0.014224
2866	0.021112
2878	0.016828
2890	0.0147336
2902	0.017892
2914	0.02772
2926	0.04844
2938	0.0533792
2950	0.0340816
2962	0.024024
2974	0.0169456
2986	0.0079352
2998	0.0048328
3010	0.0037576
3022	0.0027384
3034	0.0019656
3046	0.0015736
3058	0.0013328
3070	0.0011592
3082	0.0009576
3094	0.000812
3106	0.0007056
3118	0.0005824
3130	0.0004928
3142	0.00042
3154	0.000392
3166	0.000336
3178	0.0003304
3190	0.0002576
3202	0.0002296
3214	0.0002296
3226	0.0001904
3238	0.0001288
3250	0.0001176
3262	0.0001512
3274	0.0001232
3286	0.00014
3298	0.0001008
3310	0.0001176
3322	0.0001232
3334	0.0001288
3346	8.96e-05
3358	0.000168
3370	0.0001288
3382	0.0001568
3394	0.0001232
3406	0.0002016
3418	0.000252
3430	0.0003136
3442	0.0004032
3454	0.0003248
3466	0.0002128
3478	0.0001624
3490	0.0001064
3502	0.0001008
3514	7.28e-05
3526	0.0001064
3538	2.8e-05
3550	5.6e-05
3562	3.92e-05
3574	2.24e-05
3586	0.000196
3598	5.04e-05
3610	0.000224
3622	0.0001568
3634	0.0001064
3646	0.0001848
3658	0.0001008
3670	0.0002352
3682	8.96e-05
3694	9.52e-05
3706	8.4e-05
3718	9.52e-05
3730	0.0001736
3742	0.0002464
3754	0.0002016
3766	7.28e-05
3778	3.92e-05
3790	1.68e-05
3802	0.0001232
3814	0.0001008
3826	5.6e-05
3838	0.0002296
