Infrared Spectrum: 2,4-Nonanedione
Formula: C 9 H 16 O 2
CAS: 6175-23-1
State: gas
Origin: EPA-IR VAPOR PHASE LIBRARY
1/CM	ABSORBANCE
549.8	0.006245
559.445	0.005205
569.09	0.004145
578.735	0.002925
588.38	0.002475
598.025	0.002165
607.67	0.002005
617.315	0.002075
626.96	0.002355
636.605	0.002105
646.251	0.002265
655.896	0.0018329
665.541	0.001876
675.186	0.0017361
684.831	0.0019132
694.476	0.002115
704.121	0.002505
713.766	0.002985
723.411	0.003845
733.056	0.004945
742.701	0.006015
752.346	0.008715
761.991	0.013215
771.636	0.014095
781.281	0.009495
790.926	0.005855
800.571	0.004055
810.216	0.003255
819.861	0.003065
829.507	0.003365
839.152	0.003905
848.797	0.004625
858.442	0.005635
868.087	0.007015
877.732	0.008925
887.377	0.009995
897.022	0.011075
906.667	0.012595
916.312	0.014145
925.957	0.014405
935.602	0.013135
945.247	0.012415
954.892	0.011345
964.537	0.010395
974.182	0.009965
983.827	0.009865
993.472	0.009565
1003.12	0.008765
1012.76	0.007775
1022.41	0.007375
1032.05	0.007375
1041.7	0.007725
1051.34	0.008765
1060.99	0.010715
1070.63	0.012785
1080.28	0.014655
1089.92	0.015355
1099.57	0.014565
1109.21	0.014355
1118.86	0.016175
1128.5	0.019355
1138.15	0.023785
1147.79	0.030485
1157.44	0.031505
1167.08	0.024985
1176.73	0.020715
1186.37	0.020775
1196.02	0.022965
1205.66	0.025585
1215.31	0.029585
1224.95	0.033105
1234.6	0.034785
1244.24	0.033525
1253.89	0.030875
1263.53	0.029005
1273.18	0.028915
1282.82	0.030045
1292.47	0.031525
1302.11	0.031355
1311.76	0.029425
1321.4	0.027765
1331.05	0.027725
1340.69	0.029985
1350.34	0.034015
1359.98	0.039575
1369.63	0.036935
1379.27	0.030125
1388.92	0.027225
1398.56	0.026955
1408.21	0.029795
1417.85	0.032985
1427.5	0.034895
1437.14	0.035455
1446.79	0.035545
1456.43	0.035735
1466.08	0.033785
1475.73	0.028865
1485.37	0.024665
1495.02	0.022785
1504.66	0.022505
1514.31	0.023245
1523.95	0.024605
1533.6	0.026265
1543.24	0.028515
1552.89	0.032045
1562.53	0.037795
1572.18	0.046795
1581.82	0.060245
1591.47	0.078395
1601.11	0.097655
1610.76	0.108315
1620.4	0.103585
1630.05	0.089085
1639.69	0.072115
1649.34	0.055985
1658.98	0.042705
1668.63	0.033835
1678.27	0.029515
1687.92	0.030105
1697.56	0.038605
1707.21	0.056885
1716.85	0.072415
1726.5	0.066615
1736.14	0.048275
1745.79	0.033585
1755.43	0.022805
1765.08	0.015815
1774.72	0.011435
1784.37	0.008705
1794.01	0.007025
1803.66	0.006005
1813.3	0.005285
1822.95	0.004835
1832.59	0.004445
1842.24	0.004205
1851.88	0.004015
1861.53	0.003775
1871.17	0.003685
1880.82	0.003455
1890.46	0.003335
1900.11	0.003285
1909.75	0.003235
1919.4	0.003165
1929.04	0.003125
1938.69	0.003105
1948.33	0.003025
1957.98	0.002995
1967.62	0.002965
1977.27	0.002935
1986.91	0.002855
1996.56	0.002845
2006.2	0.002795
2015.85	0.002755
2025.49	0.002745
2035.14	0.002755
2044.78	0.002695
2054.43	0.002665
2064.07	0.002675
2073.72	0.002665
2083.36	0.002705
2093.01	0.002685
2102.65	0.002635
2112.3	0.002595
2121.94	0.002635
2131.59	0.002685
2141.23	0.002635
2150.88	0.002625
2160.52	0.002665
2170.17	0.002635
2179.81	0.002605
2189.46	0.002615
2199.1	0.002605
2208.75	0.002605
2218.39	0.002625
2228.04	0.002595
2237.68	0.002605
2247.33	0.002635
2256.97	0.002675
2266.62	0.002605
2276.26	0.002595
2285.91	0.002715
2295.55	0.002715
2305.2	0.002715
2314.84	0.002775
2324.49	0.002795
2334.13	0.002905
2343.78	0.002895
2353.42	0.002895
2363.07	0.002935
2372.72	0.002935
2382.36	0.002985
2392.01	0.002965
2401.65	0.002905
2411.3	0.002805
2420.94	0.002925
2430.59	0.002975
2440.23	0.002895
2449.88	0.002885
2459.52	0.002915
2469.17	0.002955
2478.81	0.002965
2488.46	0.003055
2498.1	0.003135
2507.75	0.003235
2517.39	0.003295
2527.04	0.003375
2536.68	0.003405
2546.33	0.003385
2555.97	0.003305
2565.62	0.003315
2575.26	0.003345
2584.91	0.003325
2594.55	0.003345
2604.2	0.003435
2613.84	0.003485
2623.49	0.003635
2633.13	0.003785
2642.78	0.003825
2652.42	0.003935
2662.07	0.004115
2671.71	0.004255
2681.36	0.004315
2691	0.004275
2700.65	0.004355
2710.29	0.004485
2719.94	0.004515
2729.58	0.004685
2739.23	0.004895
2748.87	0.004905
2758.52	0.005095
2768.16	0.005225
2777.81	0.005465
2787.45	0.005865
2797.1	0.006375
2806.74	0.006995
2816.39	0.007915
2826.03	0.009105
2835.68	0.011205
2845.32	0.014995
2854.97	0.022315
2864.61	0.032225
2874.26	0.037835
2883.9	0.038465
2893.55	0.034965
2903.19	0.036155
2912.84	0.044785
2922.48	0.060885
2932.13	0.079565
2941.77	0.085355
2951.42	0.075825
2961.06	0.074655
2970.71	0.072275
2980.35	0.044445
2990	0.024235
2999.64	0.016425
3009.29	0.013045
3018.93	0.011165
3028.58	0.009305
3038.22	0.007985
3047.87	0.007075
3057.51	0.006615
3067.16	0.006245
3076.8	0.006025
3086.45	0.005475
3096.09	0.005045
3105.74	0.004445
3115.38	0.003905
3125.03	0.003655
3134.67	0.003285
3144.32	0.003085
3153.96	0.002865
3163.61	0.002755
3173.25	0.002575
3182.9	0.002445
3192.54	0.002425
3202.19	0.002295
3211.83	0.002125
3221.48	0.002075
3231.12	0.002005
3240.77	0.001975
3250.41	0.0018274
3260.06	0.0016422
3269.7	0.0015252
3279.35	0.0014994
3289	0.0013093
3298.64	0.0011606
3308.29	0.0011458
3317.93	0.0010997
3327.58	0.00096024
3337.22	0.0008572
3346.87	0.00097356
3356.51	0.00100194
3366.16	0.000762
3375.8	0.00091753
3385.45	0.000741
3395.09	0.000823
3404.74	0.00098671
3414.38	0.0011252
3424.03	0.0014053
3433.67	0.0017711
3443.32	0.0014146
3452.96	0.001233
3462.61	0.000755
3472.25	0.000667
3481.9	0.000489
3491.54	0.000445
3501.19	0.000305
3510.83	0.000363
3520.48	0.000333
3530.12	0.000113
3539.77	0.000287
3549.41	0.000252
3559.06	7.6e-05
3568.7	0.000167
3578.35	0.00011
3587.99	0.000206
3597.64	0.000163
3607.28	0.000214
3616.93	0.000174
3626.57	0.000287
3636.22	0.00023
3645.86	0.000102
3655.51	0.000143
3665.15	0.00013
3674.8	0.00013
3684.44	0.000157
3694.09	0.000128
3703.73	0.000237
3713.38	0.000105
3723.02	7.7e-05
3732.67	0.000154
3742.31	0.000117
3751.96	0.000157
3761.6	0.000164
3771.25	0.000249
3780.89	0.000181
3790.54	0.000307
3800.18	0.000253
3809.83	0.000293
3819.47	0.000281
3829.12	0.00041
3838.76	0.000132
3848.41	0.000388
3858.05	0.00025
3867.7	0.000136
3877.34	0.000163
3886.99	0.000354
3896.63	0.000164
3906.28	0.00032
3915.92	0.00039
3925.57	9.5e-05
3935.21	0.000227
3944.86	0.000294
3954.5	0.000354
3964.15	0.000415
3973.79	0.000621
3983.44	0.000506
3993.08	0.00029
