Infrared Spectrum: (2,4,5-TRICHLOROPHENOXY)ACETIC ACID, SEC-BUTYL ESTER
Formula: C12 H13 Cl3 O3
CAS: 61792-07-2
State: SOLUTION (10% CCl4 FOR 5000-1330, 10% CS2 FOR 1330-625 CM^-^1)
Class: COBLENTZ
Instrument: Not specified, most likely a prism, grating, or hybrid spectrometer.
Sampling: TRANSMISSION
Path length: 0.0123 CM, 0.0123 CM
Resolution: 4
Origin: DOW CHEMICAL COMPANY
MICROMETERS	TRANSMITTANCE
2.041	0.855
2.08208	0.855
2.12315	0.855
2.16423	0.853
2.20531	0.844
2.24638	0.836
2.28746	0.833
2.32853	0.839
2.36961	0.839
2.41069	0.844
2.45176	0.85
2.49284	0.862
2.53392	0.862
2.57499	0.862
2.61607	0.862
2.65714	0.862
2.69822	0.862
2.7393	0.862
2.78037	0.867
2.82145	0.87
2.86253	0.868
2.9036	0.87
2.94468	0.868
2.98575	0.867
3.02683	0.86
3.06791	0.856
3.10898	0.85
3.15006	0.846
3.19114	0.822
3.23221	0.822
3.27329	0.821
3.31436	0.683
3.35544	0.41
3.39652	0.572
3.43759	0.71
3.47867	0.79
3.51975	0.833
3.56082	0.851
3.6019	0.855
3.64298	0.848
3.68405	0.855
3.72513	0.86
3.7662	0.86
3.80728	0.86
3.84836	0.86
3.88943	0.86
3.93051	0.858
3.97159	0.862
4.01266	0.863
4.05374	0.865
4.09481	0.863
4.13589	0.856
4.17697	0.862
4.21804	0.865
4.25912	0.868
4.3002	0.87
4.34127	0.87
4.38235	0.872
4.42342	0.872
4.4645	0.87
4.50558	0.868
4.54665	0.867
4.58773	0.862
4.62881	0.856
4.66988	0.858
4.71096	0.863
4.75203	0.863
4.79311	0.873
4.83419	0.872
4.87526	0.875
4.91634	0.872
4.95742	0.872
4.99849	0.873
5.03957	0.872
5.08065	0.87
5.12172	0.873
5.1628	0.872
5.20387	0.872
5.24495	0.87
5.28603	0.868
5.3271	0.862
5.36818	0.853
5.40926	0.853
5.45033	0.848
5.49141	0.829
5.53248	0.807
5.57356	0.744
5.61464	0.56
5.65571	0.173
5.69679	0.071
5.73787	0.139
5.77894	0.303
5.82002	0.562
5.86109	0.698
5.90217	0.754
5.94325	0.798
5.98432	0.822
6.0254	0.834
6.06648	0.844
6.10755	0.86
6.14863	0.863
6.1897	0.86
6.23078	0.809
6.27186	0.621
6.31293	0.507
6.35401	0.691
6.39509	0.752
6.43616	0.788
6.47724	0.807
6.51832	0.817
6.55939	0.817
6.60047	0.793
6.64154	0.693
6.68262	0.534
6.7237	0.267
6.76477	0.037
6.80585	0.1
6.84693	0.132
6.888	0.265
6.92908	0.33
6.97015	0.596
7.01123	0.698
7.05231	0.742
7.09338	0.734
7.13446	0.684
7.17554	0.521
7.21661	0.315
7.25769	0.345
7.29876	0.465
7.33984	0.367
7.38092	0.281
7.42199	0.458
7.46307	0.505
7.50415	0.662
7.54522	0.683
7.5863	0.58
7.62737	0.48
7.66845	0.366
7.70953	0.252
7.7506	0.202
7.79168	0.235
7.83276	0.287
7.87383	0.361
7.91491	0.347
7.95598	0.272
7.99706	0.277
8.03814	0.287
8.07921	0.25
8.12029	0.262
8.16137	0.299
8.20244	0.204
8.24352	0.056
8.2846	0.006
8.32567	0.02
8.36675	0.209
8.40782	0.362
8.4489	0.47
8.48998	0.494
8.53105	0.562
8.57213	0.623
8.61321	0.65
8.65428	0.643
8.69536	0.579
8.73643	0.448
8.77751	0.24
8.81859	0.19
8.85966	0.245
8.90074	0.258
8.94182	0.349
8.98289	0.342
9.02397	0.315
9.06504	0.367
9.10612	0.291
9.1472	0.097
9.18827	0.01
9.22935	0.01
9.27043	0.148
9.3115	0.332
9.35258	0.34
9.39365	0.306
9.43473	0.321
9.47581	0.434
9.51688	0.514
9.55796	0.574
9.59904	0.623
9.64011	0.649
9.68119	0.628
9.72227	0.551
9.76334	0.519
9.80442	0.594
9.84549	0.681
9.88657	0.712
9.92765	0.727
9.96872	0.713
10.0098	0.666
10.0509	0.594
10.092	0.575
10.133	0.589
10.1741	0.62
10.2152	0.65
10.2563	0.667
10.2973	0.626
10.3384	0.548
10.3795	0.553
10.4206	0.654
10.4616	0.717
10.5027	0.724
10.5438	0.722
10.5849	0.686
10.6259	0.635
10.667	0.604
10.7081	0.596
10.7492	0.643
10.7902	0.732
10.8313	0.768
10.8724	0.776
10.9135	0.763
10.9546	0.71
10.9956	0.703
11.0367	0.754
11.0778	0.781
11.1189	0.792
11.1599	0.79
11.201	0.77
11.2421	0.737
11.2832	0.693
11.3242	0.638
11.3653	0.54
11.4064	0.367
11.4475	0.206
11.4885	0.264
11.5296	0.459
11.5707	0.526
11.6118	0.592
11.6529	0.647
11.6939	0.713
11.735	0.744
11.7761	0.758
11.8172	0.751
11.8582	0.724
11.8993	0.684
11.9404	0.623
11.9815	0.555
12.0225	0.521
12.0636	0.562
12.1047	0.683
12.1458	0.751
12.1868	0.775
12.2279	0.79
12.269	0.793
12.3101	0.793
12.3511	0.793
12.3922	0.792
12.4333	0.788
12.4744	0.787
12.5155	0.785
12.5565	0.79
12.5976	0.79
12.6387	0.778
12.6798	0.752
12.7208	0.727
12.7619	0.715
12.803	0.713
12.8441	0.734
12.8851	0.752
12.9262	0.77
12.9673	0.775
13.0084	0.776
13.0494	0.778
13.0905	0.775
13.1316	0.775
13.1727	0.771
13.2137	0.77
13.2548	0.77
13.2959	0.768
13.337	0.751
13.3781	0.735
13.4191	0.713
13.4602	0.696
13.5013	0.669
13.5424	0.614
13.5834	0.522
13.6245	0.432
13.6656	0.356
13.7067	0.335
13.7477	0.395
13.7888	0.495
13.8299	0.582
13.871	0.654
13.912	0.701
13.9531	0.734
13.9942	0.761
14.0353	0.78
14.0764	0.787
14.1174	0.797
14.1585	0.8
14.1996	0.802
14.2407	0.802
14.2817	0.798
14.3228	0.797
14.3639	0.795
14.405	0.793
14.446	0.783
14.4871	0.766
14.5282	0.727
14.5693	0.652
14.6103	0.55
14.6514	0.463
14.6925	0.417
14.7336	0.439
14.7746	0.517
14.8157	0.596
14.8568	0.662
14.8979	0.698
14.939	0.729
14.98	0.756
15.0211	0.781
15.0622	0.795
15.1033	0.8
15.1443	0.8
15.1854	0.8
15.2265	0.798
15.2676	0.798
15.3086	0.797
15.3497	0.795
15.3908	0.795
15.4319	0.795
15.4729	0.795
15.514	0.795
15.5551	0.788
15.5962	0.788
15.6373	0.787
15.6783	0.785
15.7194	0.78
15.7605	0.776
15.8016	0.776
15.8426	0.776
15.8837	0.766
