Infrared Spectrum: 3-Amino-5-nitrobenzoic acid
Formula: C 7 H 6 N 2 O 4
CAS: 618-84-8
State: gas
Origin: EPA-IR VAPOR PHASE LIBRARY
1/CM	ABSORBANCE
551.7	0.002602
563.274	0.002952
574.848	0.003752
586.421	0.004962
597.995	0.003742
609.569	0.002502
621.143	0.001952
632.717	0.002252
644.291	0.005302
655.864	0.008102
667.438	0.003932
679.012	0.003882
690.586	0.002922
702.16	0.002342
713.734	0.002442
725.307	0.003072
736.881	0.004792
748.455	0.003452
760.029	0.003302
771.603	0.005462
783.177	0.003672
794.75	0.001932
806.324	0.001742
817.898	0.001622
829.472	0.001542
841.046	0.001482
852.619	0.001552
864.193	0.001822
875.767	0.002452
887.341	0.002632
898.915	0.002772
910.489	0.001902
922.062	0.001382
933.636	0.001422
945.21	0.001632
956.784	0.002202
968.358	0.002092
979.932	0.001472
991.505	0.001632
1003.08	0.001682
1014.65	0.001272
1026.23	0.001192
1037.8	0.0011262
1049.37	0.001282
1060.95	0.001622
1072.52	0.002162
1084.1	0.003662
1095.67	0.006192
1107.24	0.005612
1118.82	0.004752
1130.39	0.003652
1141.97	0.004392
1153.54	0.006932
1165.11	0.009622
1176.69	0.008142
1188.26	0.003752
1199.83	0.002202
1211.41	0.001832
1222.98	0.001732
1234.56	0.001742
1246.13	0.001912
1257.7	0.002032
1269.28	0.002292
1280.85	0.002802
1292.42	0.003102
1304	0.003682
1315.57	0.005562
1327.15	0.007942
1338.72	0.010162
1350.29	0.011142
1361.87	0.009002
1373.44	0.005842
1385.02	0.004282
1396.59	0.002392
1408.16	0.001972
1419.74	0.001902
1431.31	0.002052
1442.88	0.002842
1454.46	0.003572
1466.03	0.003102
1477.61	0.002412
1489.18	0.002032
1500.75	0.002422
1512.33	0.002802
1523.9	0.003022
1535.48	0.005792
1547.05	0.013802
1558.62	0.012592
1570.2	0.005492
1581.77	0.005062
1593.34	0.005202
1604.92	0.003492
1616.49	0.004152
1628.07	0.006452
1639.64	0.005672
1651.21	0.002732
1662.79	0.001862
1674.36	0.001642
1685.93	0.001502
1697.51	0.001512
1709.08	0.001902
1720.66	0.002442
1732.23	0.002282
1743.8	0.003172
1755.38	0.011322
1766.95	0.020222
1778.53	0.006722
1790.1	0.002432
1801.67	0.002152
1813.25	0.002222
1824.82	0.001442
1836.39	0.0010323
1847.97	0.0009452
1859.54	0.0009375
1871.12	0.0008605
1882.69	0.0008326
1894.26	0.0008263
1905.84	0.0008244
1917.41	0.0007913
1928.99	0.0007409
1940.56	0.00074
1952.13	0.0007154
1963.71	0.0007029
1975.28	0.0007175
1986.85	0.0007035
1998.43	0.0006709
2010	0.0006576
2021.58	0.0006333
2033.15	0.000583
2044.72	0.0005858
2056.3	0.0005682
2067.87	0.0005341
2079.44	0.0004968
2091.02	0.0004776
2102.59	0.0004446
2114.17	0.0004396
2125.74	0.000434
2137.31	0.0004236
2148.89	0.0003995
2160.46	0.0004011
2172.04	0.0004073
2183.61	0.0004239
2195.18	0.0004213
2206.76	0.0004374
2218.33	0.0004324
2229.9	0.000414
2241.48	0.0004278
2253.05	0.0004242
2264.63	0.0004111
2276.2	0.0004054
2287.77	0.0003849
2299.35	0.0003853
2310.92	0.0003937
2322.5	0.000414
2334.07	0.0003975
2345.64	0.0003927
2357.22	0.0004031
2368.79	0.0003685
2380.36	0.0003947
2391.94	0.0003879
2403.51	0.0003918
2415.09	0.0004026
2426.66	0.0004208
2438.23	0.0004213
2449.81	0.0004104
2461.38	0.0003731
2472.96	0.0004015
2484.53	0.0003647
2496.1	0.0003389
2507.68	0.0003435
2519.25	0.0003317
2530.82	0.0003444
2542.4	0.0003157
2553.97	0.000339
2565.55	0.0003313
2577.12	0.0003377
2588.69	0.0003656
2600.27	0.0003231
2611.84	0.0003334
2623.41	0.0003632
2634.99	0.000366
2646.56	0.0004489
2658.14	0.0004151
2669.71	0.0003677
2681.28	0.0003792
2692.86	0.0003436
2704.43	0.0003746
2716.01	0.0003203
2727.58	0.0003298
2739.15	0.000374
2750.73	0.0003047
2762.3	0.000312
2773.87	0.0003263
2785.45	0.0002986
2797.02	0.000316
2808.6	0.0003063
2820.17	0.0003573
2831.74	0.0003796
2843.32	0.0003972
2854.89	0.0003551
2866.47	0.0003929
2878.04	0.0004451
2889.61	0.0004594
2901.19	0.0005112
2912.76	0.0004605
2924.33	0.000436
2935.91	0.0004662
2947.48	0.0004147
2959.06	0.000359
2970.63	0.0003076
2982.2	0.0003086
2993.78	0.0003586
3005.35	0.0003356
3016.92	0.000376
3028.5	0.0004315
3040.07	0.0005556
3051.65	0.0005962
3063.22	0.0006574
3074.79	0.0006685
3086.37	0.0005712
3097.94	0.0006944
3109.52	0.0007333
3121.09	0.0006197
3132.66	0.00037
3144.24	0.0003039
3155.81	0.0002826
3167.38	0.0003027
3178.96	0.0002586
3190.53	0.0002423
3202.11	0.0002508
3213.68	0.0002713
3225.25	0.0002971
3236.83	0.0002233
3248.4	0.00021159
3259.98	0.00020525
3271.55	0.00017487
3283.12	0.00024009
3294.7	0.00019596
3306.27	0.00019672
3317.84	0.00020832
3329.42	0.000276
3340.99	0.00019015
3352.57	0.00024106
3364.14	0.0002463
3375.71	0.0002738
3387.29	0.0003626
3398.86	0.0005546
3410.43	0.0008812
3422.01	0.001362
3433.58	0.001332
3445.16	0.0007793
3456.73	0.000456
3468.3	0.0003424
3479.88	0.00048
3491.45	0.0006387
3503.03	0.0008565
3514.6	0.0009866
3526.17	0.0008458
3537.75	0.000521
3549.32	0.0004082
3560.89	0.000718
3572.47	0.003582
3584.04	0.007342
3595.62	0.001952
3607.19	0.0003641
3618.76	0.0002766
3630.34	0.00021145
3641.91	0.00018644
3653.49	0.00017392
3665.06	0.00020163
3676.63	0.00021757
3688.21	0.000148754
3699.78	0.0001068
3711.35	0.00013473
3722.93	0.000144275
3734.5	0.000131
3746.08	0.0001252
3757.65	0.0001138
3769.22	6.31e-05
3780.8	0.00014825
3792.37	6.9e-05
3803.94	0.000125
3815.52	0.0001173
3827.09	0.0001299
3838.67	0.00015612
3850.24	0.0002093
3861.81	0.00013441
3873.39	0.000150236
3884.96	7.66e-05
3896.54	0.0001002
3908.11	6.19e-05
3919.68	1e-06
3931.26	3.8e-05
3942.83	0.000142505
3954.4	5.82e-05
3965.98	8.27e-05
3977.55	7.07e-05
3989.13	4.1e-05
4000.7	9.68e-05
