Infrared Spectrum: m-Nitrobenzhydrazide
Formula: C 7 H 7 N 3 O 3
CAS: 618-94-0
State: gas
Origin: EPA-IR VAPOR PHASE LIBRARY
1/CM	ABSORBANCE
549.8	0.00116
559.445	0.00101
569.09	0.0006944
578.734	0.0009224
588.379	0.00101
598.024	0.0011
607.669	0.0006732
617.313	0.0006556
626.958	0.0008872
636.603	0.0009383
646.248	0.00106
655.893	0.00145
665.537	0.00151
675.182	0.00187
684.827	0.00175
694.472	0.00221
704.116	0.00402
713.761	0.00981
723.406	0.01214
733.051	0.0058
742.695	0.00225
752.34	0.00146
761.985	0.00126
771.63	0.00125
781.275	0.00102
790.919	0.00106
800.564	0.002
810.209	0.00279
819.854	0.00222
829.498	0.00162
839.143	0.0023
848.788	0.00323
858.433	0.00283
868.078	0.00262
877.722	0.00265
887.367	0.00333
897.012	0.00392
906.657	0.00359
916.301	0.00276
925.946	0.00334
935.591	0.00541
945.236	0.00766
954.88	0.00637
964.525	0.00315
974.17	0.00184
983.815	0.00135
993.46	0.0008559
1003.1	0.0008544
1012.75	0.0006974
1022.39	0.0003229
1032.04	0.0003944
1041.68	0.0005267
1051.33	0.00107
1060.97	0.00106
1070.62	0.00191
1080.26	0.00222
1089.91	0.00198
1099.55	0.00239
1109.2	0.00178
1118.84	0.0009537
1128.49	0.000682
1138.13	0.000733
1147.78	0.0006431
1157.42	0.00135
1167.07	0.00184
1176.71	0.00128
1186.36	0.00117
1196	0.00107
1205.64	0.0005783
1215.29	0.00121
1224.93	0.00153
1234.58	0.00155
1244.22	0.00205
1253.87	0.00344
1263.51	0.00727
1273.16	0.00902
1282.8	0.00783
1292.45	0.00863
1302.09	0.00745
1311.74	0.00504
1321.38	0.00382
1331.03	0.00506
1340.67	0.01068
1350.32	0.02143
1359.96	0.01848
1369.61	0.00591
1379.25	0.00264
1388.9	0.00193
1398.54	0.00195
1408.18	0.00256
1417.83	0.00393
1427.47	0.00632
1437.12	0.00912
1446.76	0.01203
1456.41	0.01108
1466.05	0.00863
1475.7	0.00762
1485.34	0.00952
1494.99	0.01025
1504.63	0.00833
1514.28	0.00629
1523.92	0.00647
1533.57	0.01156
1543.21	0.02366
1552.86	0.02314
1562.5	0.01037
1572.15	0.00625
1581.79	0.0056
1591.44	0.00521
1601.08	0.00481
1610.73	0.00575
1620.37	0.00685
1630.01	0.0067
1639.66	0.00597
1649.3	0.00428
1658.95	0.00362
1668.59	0.00388
1678.24	0.00497
1687.88	0.00716
1697.53	0.01629
1707.17	0.02373
1716.82	0.01289
1726.46	0.00641
1736.11	0.00465
1745.75	0.0027
1755.4	0.00152
1765.04	0.0009519
1774.69	0.0007652
1784.33	0.000583
1793.98	0.0006878
1803.62	0.0006277
1813.27	0.0006215
1822.91	0.0006213
1832.55	0.0004864
1842.2	0.0005579
1851.84	0.0005722
1861.49	0.0004807
1871.13	0.0003517
1880.78	0.0004502
1890.42	0.0004634
1900.07	0.0004602
1909.71	0.0004197
1919.36	0.0004479
1929	0.0004387
1938.65	0.0004111
1948.29	0.000431
1957.94	0.0005119
1967.58	0.0003465
1977.23	0.0004839
1986.87	0.000297
1996.52	0.0002705
2006.16	0.0002318
2015.81	0.0002419
2025.45	0.000234
2035.1	0.0002822
2044.74	0.0002807
2054.38	0.0002239
2064.03	0.0001605
2073.67	0.0002659
2083.32	0.0002384
2092.96	0.0002125
2102.61	0.0003105
2112.25	0.0002656
2121.9	0.0002051
2131.54	0.0001945
2141.19	0.0002703
2150.83	0.0003154
2160.48	0.0002308
2170.12	0.0002711
2179.77	0.0002585
2189.41	0.0002454
2199.06	0.0002749
2208.7	0.0002605
2218.35	0.0003146
2227.99	0.0002548
2237.64	0.0002927
2247.28	0.0003091
2256.92	0.000315
2266.57	0.000231
2276.21	0.0002506
2285.86	0.0002549
2295.5	0.0003282
2305.15	0.0002691
2314.79	0.0002537
2324.44	0.0004786
2334.08	0.0003373
2343.73	0.0004158
2353.37	0.0005317
2363.02	0.0002765
2372.66	0.0002915
2382.31	0.000457
2391.95	0.000384
2401.6	0.0003571
2411.24	0.0003758
2420.89	0.0003028
2430.53	0.000302
2440.18	0.000387
2449.82	0.0002554
2459.47	0.0003649
2469.11	0.0003709
2478.75	0.0003304
2488.4	0.0002906
2498.04	0.0003418
2507.69	0.0003736
2517.33	0.0003289
2526.98	0.0003114
2536.62	0.0004242
2546.27	0.0002996
2555.91	0.0004829
2565.56	0.0004102
2575.2	0.0004505
2584.85	0.0004907
2594.49	0.0004011
2604.14	0.0003329
2613.78	0.00034
2623.43	0.0003871
2633.07	0.0003599
2642.72	0.0003775
2652.36	0.0002204
2662.01	0.0003372
2671.65	0.0004417
2681.29	0.0004224
2690.94	0.0005126
2700.58	0.0004317
2710.23	0.0005142
2719.87	0.0003471
2729.52	0.0005138
2739.16	0.0003508
2748.81	0.0004179
2758.45	0.0004381
2768.1	0.0003586
2777.74	0.000507
2787.39	0.0003806
2797.03	0.0006078
2806.68	0.0005281
2816.32	0.000326
2825.97	0.0005145
2835.61	0.0005283
2845.26	0.0005148
2854.9	0.0005767
2864.55	0.0004923
2874.19	0.0007035
2883.84	0.0007134
2893.48	0.0009135
2903.12	0.0008965
2912.77	0.0005518
2922.41	0.0006885
2932.06	0.0004877
2941.7	0.0006404
2951.35	0.0003634
2960.99	0.0004845
2970.64	0.0004269
2980.28	0.0003374
2989.93	0.0004757
2999.57	0.0003705
3009.22	0.0004547
3018.86	0.0003629
3028.51	0.0004407
3038.15	0.000567
3047.8	0.0005714
3057.44	0.0006309
3067.09	0.0009601
3076.73	0.0016
3086.38	0.0019
3096.02	0.00157
3105.67	0.0007746
3115.31	0.000525
3124.95	0.0003113
3134.6	0.0003926
3144.24	0.0005322
3153.89	0.000537
3163.53	0.0004843
3173.18	0.0004855
3182.82	0.0005279
3192.47	0.0006407
3202.11	0.0005055
3211.76	0.0006169
3221.4	0.0007491
3231.05	0.0006129
3240.69	0.0004289
3250.34	0.0003946
3259.98	0.0004282
3269.63	0.0004776
3279.27	0.0004259
3288.92	0.0003903
3298.56	0.0006152
3308.21	0.0005822
3317.85	0.000649
3327.49	0.0007438
3337.14	0.0009002
3346.78	0.000819
3356.43	0.0007134
3366.07	0.0006826
3375.72	0.0005922
3385.36	0.0005819
3395.01	0.0009728
3404.65	0.0007516
3414.3	0.0008972
3423.94	0.000804
3433.59	0.00121
3443.23	0.00168
3452.88	0.00226
3462.52	0.0032
3472.17	0.00391
3481.81	0.00301
3491.46	0.00153
3501.1	0.00125
3510.75	0.000732
3520.39	0.0006738
3530.04	0.0005854
3539.68	0.000572
3549.32	0.000354
3558.97	0.0004045
3568.61	0.0003687
3578.26	0.000684
3587.9	0.0001685
3597.55	0.0004193
3607.19	0.0002637
3616.84	0.0004557
3626.48	0.0005332
3636.13	0.0005358
3645.77	0.0001658
3655.42	0.0004946
3665.06	0.0004995
3674.71	0.0002832
3684.35	0.0003123
3694	0.0002815
3703.64	0.0003761
3713.29	0.0005705
3722.93	0.0005168
3732.58	0.0001484
3742.22	0.0004416
3751.86	0.0004872
3761.51	0.0006297
3771.15	0.0007307
3780.8	0.0006309
3790.44	0.0006746
3800.09	0.0006658
3809.73	0.000788
3819.38	0.0004776
3829.02	0.0005307
3838.67	0.0005724
3848.31	0.0005046
3857.96	0.000639
3867.6	0.0003385
3877.25	0.0004356
3886.89	0.0003898
3896.54	0.0008295
3906.18	0.0005308
3915.83	0.0004209
3925.47	0.0005179
3935.12	0.000479
3944.76	0.0006023
3954.41	0.0006461
3964.05	0.0007321
3973.69	0.0006345
3983.34	0.0004276
3992.98	0.0005302
