Infrared Spectrum: m-Toluamide
Formula: C 8 H 9 N O
CAS: 618-47-3
State: gas
Origin: EPA-IR VAPOR PHASE LIBRARY
1/CM	ABSORBANCE
549.8	0.005349
559.445	0.003579
569.09	0.002349
578.734	0.002339
588.379	0.001889
598.024	0.003129
607.669	0.006509
617.313	0.008889
626.958	0.007109
636.603	0.003569
646.248	0.003439
655.893	0.003449
665.537	0.003879
675.182	0.004629
684.827	0.005539
694.472	0.005639
704.116	0.006119
713.761	0.007879
723.406	0.012859
733.051	0.019959
742.695	0.020929
752.34	0.013629
761.985	0.008259
771.63	0.006169
781.275	0.006109
790.919	0.006879
800.564	0.007279
810.209	0.006399
819.854	0.005669
829.498	0.004699
839.143	0.004389
848.788	0.004359
858.433	0.004429
868.078	0.004419
877.722	0.004589
887.367	0.003929
897.012	0.003809
906.657	0.003879
916.301	0.003829
925.946	0.003279
935.591	0.003119
945.236	0.002959
954.88	0.002549
964.525	0.002459
974.17	0.002199
983.815	0.002039
993.46	0.002489
1003.1	0.002089
1012.75	0.001979
1022.39	0.001929
1032.04	0.002059
1041.68	0.002519
1051.33	0.004199
1060.97	0.005279
1070.62	0.005809
1080.26	0.004649
1089.91	0.003789
1099.55	0.002889
1109.2	0.003229
1118.84	0.002249
1128.49	0.002689
1138.13	0.002189
1147.78	0.001809
1157.42	0.001939
1167.07	0.001899
1176.71	0.002219
1186.36	0.002539
1196	0.003529
1205.64	0.005749
1215.29	0.006539
1224.93	0.004349
1234.58	0.003599
1244.22	0.003579
1253.87	0.004029
1263.51	0.004589
1273.16	0.004839
1282.8	0.005349
1292.45	0.005919
1302.09	0.007929
1311.74	0.011919
1321.38	0.019819
1331.03	0.040529
1340.67	0.062269
1350.32	0.053029
1359.96	0.024079
1369.61	0.010789
1379.25	0.007449
1388.9	0.005689
1398.54	0.004259
1408.18	0.004069
1417.83	0.004719
1427.47	0.005299
1437.12	0.005409
1446.76	0.004569
1456.41	0.003409
1466.05	0.003309
1475.7	0.003639
1485.34	0.003909
1494.99	0.003349
1504.63	0.002879
1514.28	0.002679
1523.92	0.003009
1533.57	0.003649
1543.21	0.004599
1552.86	0.006059
1562.5	0.010019
1572.15	0.023199
1581.79	0.041359
1591.44	0.040259
1601.08	0.022159
1610.73	0.012639
1620.37	0.008159
1630.01	0.005319
1639.66	0.004139
1649.3	0.004059
1658.95	0.004639
1668.59	0.006839
1678.24	0.010929
1687.88	0.016229
1697.53	0.023219
1707.17	0.054149
1716.82	0.088479
1726.46	0.084059
1736.11	0.029749
1745.75	0.015399
1755.4	0.013339
1765.04	0.007959
1774.69	0.003989
1784.33	0.002459
1793.98	0.001959
1803.62	0.001629
1813.27	0.001299
1822.91	0.0011843
1832.55	0.0010507
1842.2	0.0011176
1851.84	0.0011726
1861.49	0.0010761
1871.13	0.0011091
1880.78	0.001259
1890.42	0.0011696
1900.07	0.0009528
1909.71	0.0007852
1919.36	0.0006991
1929	0.000838
1938.65	0.0009944
1948.29	0.000976
1957.94	0.0007699
1967.58	0.0006217
1977.23	0.0005761
1986.87	0.0004716
1996.52	0.0004214
2006.16	0.0004675
2015.81	0.0003193
2025.45	0.0003827
2035.1	0.0003455
2044.74	0.0003729
2054.38	0.0003774
2064.03	0.0004096
2073.67	0.0003711
2083.32	0.00028487
2092.96	0.00028876
2102.61	0.0002932
2112.25	0.000192794
2121.9	0.0002907
2131.54	0.00026451
2141.19	0.00021075
2150.83	0.0001157
2160.48	0.0002788
2170.12	0.00022737
2179.77	0.0003605
2189.41	0.0003195
2199.06	0.0003368
2208.7	0.0003218
2218.35	0.0003431
2227.99	0.00018005
2237.64	0.0002259
2247.28	0.00021164
2256.92	0.0002881
2266.57	0.0003088
2276.21	0.00028249
2285.86	0.0003834
2295.5	0.00027595
2305.15	0.0003132
2314.79	0.00025344
2324.44	0.0003092
2334.08	0.000317
2343.73	0.0003374
2353.37	0.0003512
2363.02	0.000192925
2372.66	0.00018735
2382.31	0.0003165
2391.95	0.0004395
2401.6	0.0003659
2411.24	0.0004393
2420.89	0.0004517
2430.53	0.0003572
2440.18	0.00027327
2449.82	0.0003097
2459.47	0.0003787
2469.11	0.0003128
2478.75	0.00027957
2488.4	0.0003009
2498.04	0.0002879
2507.69	0.0001135
2517.33	0.000198887
2526.98	0.0001787
2536.62	0.000195641
2546.27	0.00021381
2555.91	0.00023422
2565.56	0.0001704
2575.2	0.00025839
2584.85	0.0002546
2594.49	0.0003495
2604.14	0.0003798
2613.78	0.0003491
2623.43	0.0002983
2633.07	0.00026376
2642.72	0.0003064
2652.36	0.00021298
2662.01	0.0001564
2671.65	0.0003439
2681.29	0.00025018
2690.94	0.0004687
2700.58	0.00021039
2710.23	0.00021887
2719.87	0.0003585
2729.52	0.00022448
2739.16	0.0005514
2748.81	0.0006263
2758.45	0.0004072
2768.1	0.0004638
2777.74	0.0004843
2787.39	0.0006185
2797.03	0.0005976
2806.68	0.0005989
2816.32	0.0006582
2825.97	0.0005958
2835.61	0.0007803
2845.26	0.001074
2854.9	0.001459
2864.55	0.002439
2874.19	0.003339
2883.84	0.003309
2893.48	0.003179
2903.12	0.003339
2912.77	0.004189
2922.41	0.006189
2932.06	0.007489
2941.7	0.006489
2951.35	0.004399
2960.99	0.003219
2970.64	0.002339
2980.28	0.002149
2989.93	0.002819
2999.57	0.003369
3009.22	0.004039
3018.86	0.005229
3028.51	0.006789
3038.15	0.007979
3047.8	0.007619
3057.44	0.007619
3067.09	0.006929
3076.73	0.005359
3086.38	0.003519
3096.02	0.002659
3105.67	0.001779
3115.31	0.001489
3124.95	0.0008629
3134.6	0.0008487
3144.24	0.0006994
3153.89	0.0006334
3163.53	0.0005868
3173.18	0.0005698
3182.82	0.0005403
3192.47	0.0004833
3202.11	0.0003597
3211.76	0.00025782
3221.4	0.0004202
3231.05	0.00022644
3240.69	0.00024461
3250.34	0.00022093
3259.98	0.00027452
3269.63	0.0002651
3279.27	0.0003673
3288.92	0.0004312
3298.56	0.0005895
3308.21	0.0005811
3317.85	0.0004084
3327.49	0.0003663
3337.14	0.0002923
3346.78	0.0004401
3356.43	0.0003318
3366.07	0.000501
3375.72	0.0007284
3385.36	0.001209
3395.01	0.001739
3404.65	0.002759
3414.3	0.004689
3423.94	0.007479
3433.59	0.009349
3443.23	0.007019
3452.88	0.003259
3462.52	0.001839
3472.17	0.0010775
3481.81	0.0009819
3491.46	0.001219
3501.1	0.0010837
3510.75	0.001779
3520.39	0.002879
3530.04	0.004339
3539.68	0.006269
3549.32	0.007889
3558.97	0.006529
3568.61	0.003429
3578.26	0.001289
3587.9	0.0007575
3597.55	0.0006793
3607.19	0.0005764
3616.84	0.0005214
3626.48	0.0003152
3636.13	0.0004302
3645.77	0.0001208
3655.42	0.0003761
3665.06	0.0001684
3674.71	0.0001559
3684.35	0.0004699
3694	0.000345
3703.64	0.0002791
3713.29	0.0004957
3722.93	0.00023171
3732.58	0.0003991
3742.22	0.0003844
3751.86	0.0003449
3761.51	0.0004489
3771.15	0.0001449
3780.8	0.0002993
3790.44	0.0003181
3800.09	0.0002937
3809.73	0.0003414
3819.38	0.0002955
3829.02	0.00024342
3838.67	6.1e-05
3848.31	0.0003238
3857.96	0.0003256
3867.6	0.000169
3877.25	0.00025976
3886.89	0.0003089
3896.54	0.0003167
3906.18	0.0003015
3915.83	0.00028336
3925.47	0.0004024
3935.12	0.0004522
3944.76	0.000194848
3954.41	0.0001064
3964.05	0.0001558
3973.69	0.0004015
3983.34	0.0003037
3992.98	0.0004912
