Infrared Spectrum: m-NITROPHENYLARSONIC ACID
Formula: C6 H6 N O5 As
CAS: 618-07-5
State: SOLID (MINERAL OIL MULL)
Class: COBLENTZ
Instrument: Not specified, most likely a prism, grating, or hybrid spectrometer.
Sampling: TRANSMISSION
Resolution: 4
Origin: WYANDOTTE CHEMICALS CORP., WYANDOTTE, MICHIGAN, USA
MICROMETERS	TRANSMITTANCE
2.019	0.752
2.05613	0.751
2.09327	0.755
2.1304	0.754
2.16753	0.752
2.20467	0.746
2.2418	0.737
2.27894	0.741
2.31607	0.749
2.3532	0.763
2.39034	0.777
2.42747	0.799
2.4646	0.81
2.50174	0.827
2.53887	0.833
2.576	0.852
2.61314	0.86
2.65027	0.878
2.68741	0.892
2.72454	0.9
2.76167	0.902
2.79881	0.905
2.83594	0.909
2.87307	0.912
2.91021	0.916
2.94734	0.912
2.98447	0.912
3.02161	0.892
3.05874	0.841
3.09588	0.73
3.13301	0.623
3.17014	0.52
3.20728	0.376
3.24441	0.312
3.28154	0.25
3.31868	0.136
3.35581	0.026
3.39294	0.018
3.43008	0.02
3.46721	0.018
3.50435	0.026
3.54148	0.099
3.57861	0.143
3.61575	0.166
3.65288	0.172
3.69001	0.177
3.72715	0.188
3.76428	0.2
3.80141	0.213
3.83855	0.22
3.87568	0.236
3.91282	0.251
3.94995	0.265
3.98708	0.283
4.02422	0.304
4.06135	0.314
4.09848	0.332
4.13562	0.339
4.17275	0.337
4.20988	0.309
4.24702	0.278
4.28415	0.278
4.32128	0.278
4.35842	0.281
4.39555	0.292
4.43269	0.29
4.46982	0.293
4.50695	0.309
4.54409	0.317
4.58122	0.328
4.61835	0.329
4.65549	0.345
4.69262	0.374
4.72975	0.404
4.76689	0.441
4.80402	0.477
4.84116	0.505
4.87829	0.53
4.91542	0.544
4.95256	0.562
4.98969	0.576
5.02682	0.583
5.06396	0.592
5.10109	0.611
5.13822	0.623
5.17536	0.625
5.21249	0.637
5.24963	0.643
5.28676	0.65
5.32389	0.654
5.36103	0.65
5.39816	0.65
5.43529	0.639
5.47243	0.636
5.50956	0.64
5.54669	0.639
5.58383	0.645
5.62096	0.651
5.6581	0.651
5.69523	0.64
5.73236	0.64
5.7695	0.65
5.80663	0.64
5.84376	0.646
5.8809	0.657
5.91803	0.656
5.95516	0.665
5.9923	0.67
6.02943	0.676
6.06657	0.678
6.1037	0.671
6.14083	0.567
6.17797	0.345
6.2151	0.59
6.25223	0.653
6.28937	0.562
6.3265	0.636
6.36363	0.578
6.40077	0.433
6.4379	0.203
6.47504	0.059
6.51217	0.172
6.5493	0.39
6.58644	0.466
6.62357	0.519
6.6607	0.525
6.69784	0.51
6.73497	0.371
6.7721	0.105
6.80924	0.088
6.84637	0.152
6.88351	0.253
6.92064	0.402
6.95777	0.491
6.99491	0.513
7.03204	0.567
7.06917	0.679
7.10631	0.727
7.14344	0.734
7.18057	0.609
7.21771	0.371
7.25484	0.273
7.29198	0.381
7.32911	0.129
7.36624	0.023
7.40338	0.115
7.44051	0.317
7.47764	0.468
7.51478	0.572
7.55191	0.618
7.58904	0.592
7.62618	0.636
7.66331	0.67
7.70045	0.682
7.73758	0.699
7.77471	0.527
7.81185	0.511
7.84898	0.696
7.88611	0.741
7.92325	0.768
7.96038	0.771
7.99751	0.765
8.03465	0.749
8.07178	0.72
8.10892	0.679
8.14605	0.611
8.18318	0.55
8.22032	0.483
8.25745	0.461
8.29458	0.471
8.33172	0.508
8.36885	0.553
8.40598	0.594
8.44312	0.603
8.48025	0.587
8.51738	0.583
8.55452	0.6
8.59165	0.601
8.62879	0.581
8.66592	0.555
8.70305	0.539
8.74019	0.533
8.77732	0.497
8.81445	0.454
8.85159	0.493
8.88872	0.576
8.92585	0.632
8.96299	0.681
9.00012	0.687
9.03726	0.597
9.07439	0.604
9.11152	0.569
9.14866	0.493
9.18579	0.547
9.22292	0.634
9.26006	0.671
9.29719	0.612
9.33432	0.528
9.37146	0.665
9.40859	0.772
9.44573	0.83
9.48286	0.863
9.51999	0.886
9.55713	0.905
9.59426	0.912
9.63139	0.93
9.66853	0.93
9.70566	0.934
9.74279	0.942
9.77993	0.953
9.81706	0.959
9.8542	0.961
9.89133	0.954
9.92846	0.912
9.9656	0.768
10.0027	0.844
10.0399	0.889
10.077	0.898
10.1141	0.88
10.1513	0.842
10.1884	0.796
10.2255	0.743
10.2627	0.682
10.2998	0.625
10.3369	0.567
10.3741	0.497
10.4112	0.426
10.4483	0.37
10.4855	0.332
10.5226	0.318
10.5597	0.332
10.5969	0.362
10.634	0.401
10.6711	0.44
10.7083	0.426
10.7454	0.48
10.7825	0.533
10.8197	0.558
10.8568	0.573
10.8939	0.555
10.9311	0.506
10.9682	0.41
11.0053	0.423
11.0425	0.499
11.0796	0.488
11.1167	0.435
11.1539	0.377
11.191	0.401
11.2281	0.477
11.2653	0.499
11.3024	0.503
11.3395	0.491
11.3767	0.391
11.4138	0.283
11.4509	0.317
11.4881	0.376
11.5252	0.421
11.5623	0.461
11.5995	0.466
11.6366	0.455
11.6737	0.443
11.7109	0.424
11.748	0.393
11.7851	0.345
11.8223	0.312
11.8594	0.298
11.8965	0.314
11.9337	0.365
11.9708	0.429
12.0079	0.472
12.0451	0.51
12.0822	0.522
12.1193	0.497
12.1565	0.402
12.1936	0.351
12.2307	0.357
12.2679	0.367
12.305	0.371
12.3421	0.292
12.3793	0.286
12.4164	0.256
12.4535	0.205
12.4907	0.175
12.5278	0.178
12.565	0.181
12.6021	0.192
12.6392	0.214
12.6764	0.225
12.7135	0.203
12.7506	0.161
12.7878	0.115
12.8249	0.074
12.862	0.048
12.8992	0.035
12.9363	0.037
12.9734	0.04
13.0106	0.065
13.0477	0.115
13.0848	0.172
13.122	0.216
13.1591	0.253
13.1962	0.273
13.2334	0.289
13.2705	0.298
13.3076	0.306
13.3448	0.317
13.3819	0.325
13.419	0.325
13.4562	0.331
13.4933	0.312
13.5304	0.267
13.5676	0.219
13.6047	0.178
13.6418	0.143
13.679	0.094
13.7161	0.052
13.7532	0.08
13.7904	0.153
13.8275	0.256
13.8646	0.309
13.9018	0.342
13.9389	0.37
13.976	0.399
14.0132	0.424
14.0503	0.44
14.0874	0.46
14.1246	0.471
14.1617	0.485
14.1988	0.5
14.236	0.513
14.2731	0.522
14.3102	0.531
14.3474	0.552
14.3845	0.555
14.4216	0.566
14.4588	0.576
14.4959	0.584
14.533	0.589
14.5702	0.595
14.6073	0.6
14.6444	0.609
14.6816	0.615
14.7187	0.62
14.7558	0.626
14.793	0.631
14.8301	0.631
14.8672	0.631
14.9044	0.608
14.9415	0.542
14.9786	0.449
15.0158	0.371
15.0529	0.328
15.09	0.337
15.1272	0.376
15.1643	0.441
15.2014	0.496
15.2386	0.545
15.2757	0.584
15.3128	0.592
15.35	0.584
15.3871	0.553
15.4242	0.53
15.4614	0.552
15.4985	0.589
15.5356	0.626
15.5728	0.634
15.6099	0.631
15.647	0.642
15.6842	0.645
15.7213	0.64
15.7584	0.637
15.7956	0.637
15.8327	0.634
15.8698	0.631
15.907	0.614
15.9441	0.604
15.9812	0.603
