Infrared Spectrum: BENZOYL BROMIDE
Formula: C7 H5 Br O
CAS: 618-32-6
State: SOLUTION (10% CCl4 FOR 3800-1330, 10% CS2 FOR 1330-450)
Class: COBLENTZ III
Instrument: DOW KBr FOREPRISM-GRATING
Instrument parameters: BLAZED AT 3.5, 12.0, 20.0 MICRON AND CHANGED AT 5.0, 7.5, 14.9 MICRON
Sampling: TRANSMISSION
Path length: 0.011 CM, 0.011 CM
Resolution: 2
Origin: DOW CHEMICAL COMPANY
1/CM	TRANSMITTANCE
3762	0.8918
3753	0.8939
3744	0.8965
3735	0.8986
3726	0.8978
3717	0.8958
3708	0.895
3699	0.8943
3690	0.8947
3681	0.8951
3672	0.8947
3663	0.8942
3654	0.8939
3645	0.8942
3636	0.8947
3627	0.8967
3618	0.8989
3609	0.9003
3600	0.8987
3591	0.8942
3582	0.8939
3573	0.8948
3564	0.8834
3555	0.8699
3546	0.854
3537	0.8406
3528	0.8647
3519	0.886
3510	0.8982
3501	0.9013
3492	0.8891
3483	0.8905
3474	0.8989
3465	0.9073
3456	0.9131
3447	0.9186
3438	0.9228
3429	0.9259
3420	0.929
3411	0.9314
3402	0.9315
3393	0.9282
3384	0.9249
3375	0.9225
3366	0.9224
3357	0.925
3348	0.9278
3339	0.9289
3330	0.9295
3321	0.9297
3312	0.9299
3303	0.9297
3294	0.9294
3285	0.9271
3276	0.9243
3267	0.9228
3258	0.9237
3249	0.9236
3240	0.9228
3231	0.9212
3222	0.9189
3213	0.9165
3204	0.9147
3195	0.913
3186	0.912
3177	0.9108
3168	0.9051
3159	0.9033
3150	0.9086
3141	0.9084
3132	0.9078
3123	0.907
3114	0.9054
3105	0.8988
3096	0.8759
3087	0.8327
3078	0.828
3069	0.6843
3060	0.7887
3051	0.846
3042	0.8652
3033	0.8643
3024	0.8695
3015	0.8881
3006	0.8842
2997	0.8956
2988	0.9007
2979	0.8991
2970	0.8928
2961	0.8907
2952	0.8968
2943	0.8985
2934	0.9012
2925	0.907
2916	0.9106
2907	0.9074
2898	0.9048
2889	0.9058
2880	0.9032
2871	0.9043
2862	0.9075
2853	0.9089
2844	0.9084
2835	0.9087
2826	0.9091
2817	0.9085
2808	0.9025
2799	0.8971
2790	0.8925
2781	0.8923
2772	0.8928
2763	0.8752
2754	0.8909
2745	0.8962
2736	0.901
2727	0.9039
2718	0.9057
2709	0.907
2700	0.9071
2691	0.9059
2682	0.9
2673	0.8945
2664	0.8985
2655	0.9007
2646	0.8936
2637	0.8816
2628	0.8896
2619	0.901
2610	0.8983
2601	0.8948
2592	0.8936
2583	0.8989
2574	0.9037
2565	0.9044
2556	0.9053
2547	0.906
2538	0.9068
2529	0.9075
2520	0.9084
2511	0.9084
2502	0.9082
2493	0.9078
2484	0.9077
2475	0.908
2466	0.9083
2457	0.9086
2448	0.9088
2439	0.909
2430	0.9091
2421	0.9091
2412	0.9089
2403	0.9073
2394	0.9004
2385	0.8973
2376	0.9013
2367	0.8999
2358	0.9032
2349	0.8947
2340	0.884
2331	0.8873
2322	0.8931
2313	0.8964
2304	0.894
2295	0.892
2286	0.8905
2277	0.8925
2268	0.8964
2259	0.9005
2250	0.9054
2241	0.9104
2232	0.9128
2223	0.9116
2214	0.9106
2205	0.9123
2196	0.9137
2187	0.9149
2178	0.9142
2169	0.9132
2160	0.9128
2151	0.9124
2142	0.912
2133	0.9077
2124	0.9083
2115	0.9102
2106	0.9109
2097	0.9112
2088	0.9117
2079	0.9118
2070	0.9108
2061	0.8987
2052	0.878
2043	0.8665
2034	0.8703
2025	0.8666
2016	0.8761
2007	0.8885
1998	0.8731
1989	0.8778
1980	0.8723
1971	0.8686
1962	0.858
1953	0.8975
1944	0.8964
1935	0.8893
1926	0.8573
1917	0.8827
1908	0.8441
1899	0.8666
1890	0.8999
1881	0.8923
1872	0.8925
1863	0.8758
1854	0.8357
1845	0.8425
1836	0.8043
1827	0.7695
1818	0.6986
1809	0.6275
1800	0.5222
1791	0.1576
1782	0.004
1773	0.0017
1764	0.0169
1755	0.4427
1746	0.6287
1737	0.6815
1728	0.7431
1719	0.76
1710	0.6193
1701	0.5589
1692	0.7106
1683	0.7864
1674	0.8278
1665	0.8755
1656	0.8821
1647	0.916
1638	0.9156
1629	0.8983
1620	0.8277
1611	0.7825
1602	0.6698
1593	0.3608
1584	0.2405
1575	0.5639
1566	0.5283
1557	0.4702
1548	0.4442
1539	0.5171
1530	0.6119
1521	0.6611
1512	0.7086
1503	0.7681
1494	0.8096
1485	0.8346
1476	0.8885
1467	0.8685
1458	0.743
1449	0.0387
1440	0.8468
1431	0.883
1422	0.9099
1413	0.9202
1404	0.92
1395	0.8987
1386	0.9163
1377	0.9315
1368	0.9344
1359	0.9342
1350	0.894
1341	0.7993
1332	0.8731
1323	0.8651
1314	0.6157
1305	0.776
1296	0.8875
1287	0.9021
1278	0.9102
1269	0.909
1260	0.8446
1251	0.8814
1242	0.8324
1233	0.8687
1224	0.8718
1215	0.827
1206	0.6377
1197	0.0697
1188	0.2767
1179	0.2023
1170	0.0003
1161	0.5435
1152	0.77
1143	0.853
1134	0.8904
1125	0.9099
1116	0.9097
1107	0.8981
1098	0.8178
1089	0.8959
1080	0.9071
1071	0.8313
1062	0.9218
1053	0.931
1044	0.9332
1035	0.9282
1026	0.7569
1017	0.9023
1008	0.9092
999	0.6092
990	0.9125
981	0.9212
972	0.9124
963	0.9268
954	0.9312
945	0.9147
936	0.8645
927	0.8291
918	0.8032
909	0.8832
900	0.8857
891	0.853
882	0.7718
873	0.7033
864	0.5344
855	0.06
846	0.0001
837	0.1192
828	0.3727
819	0.603
810	0.7881
801	0.7328
792	0.8331
783	0.8596
774	0.7582
765	0.0226
756	0.8671
747	0.9153
738	0.9243
729	0.9227
720	0.9148
711	0.8935
702	0.8121
693	0.7124
684	0.2056
675	0.3898
666	0.4991
657	0.0006
648	0.5353
639	0.659
630	0.0244
621	0.5921
612	0.7957
603	0.8528
594	0.8459
585	0.8512
576	0.8839
567	0.8945
558	0.8975
549	0.8955
540	0.888
531	0.8716
522	0.8557
513	0.8466
504	0.8456
495	0.8483
486	0.8418
477	0.8277
468	0.8172
459	0.8064
