Infrared Spectrum: 3-Chlorobenzamide
Formula: C 7 H 6 Cl N O
CAS: 618-48-4
State: gas
Origin: EPA-IR VAPOR PHASE LIBRARY
1/CM	ABSORBANCE
549.8	0.01515
559.445	0.01212
569.09	0.00863
578.734	0.00631
588.379	0.0058
598.024	0.00829
607.669	0.01814
617.313	0.02304
626.958	0.01372
636.603	0.00702
646.248	0.00752
655.893	0.01046
665.537	0.01816
675.182	0.03456
684.827	0.03666
694.472	0.02099
704.116	0.01539
713.761	0.01628
723.406	0.02369
733.051	0.04129
742.695	0.05819
752.34	0.0408
761.985	0.02416
771.63	0.0188
781.275	0.01989
790.919	0.02372
800.564	0.02908
810.209	0.03379
819.854	0.03054
829.498	0.01878
839.143	0.01203
848.788	0.0099
858.433	0.00957
868.078	0.01101
877.722	0.01318
887.367	0.01301
897.012	0.01227
906.657	0.012
916.301	0.01051
925.946	0.00847
935.591	0.00723
945.236	0.00639
954.88	0.00576
964.525	0.00536
974.17	0.00529
983.815	0.00538
993.46	0.00575
1003.1	0.00619
1012.75	0.00537
1022.39	0.00516
1032.04	0.00513
1041.68	0.00669
1051.33	0.01033
1060.97	0.01553
1070.62	0.01926
1080.26	0.02078
1089.91	0.01887
1099.55	0.01354
1109.2	0.01029
1118.84	0.01012
1128.49	0.01451
1138.13	0.01983
1147.78	0.01599
1157.42	0.00864
1167.07	0.00622
1176.71	0.00551
1186.36	0.00535
1196	0.00564
1205.64	0.00549
1215.29	0.00548
1224.93	0.00594
1234.58	0.00743
1244.22	0.0091
1253.87	0.01229
1263.51	0.01635
1273.16	0.01715
1282.8	0.01841
1292.45	0.02406
1302.09	0.03023
1311.74	0.03718
1321.38	0.05535
1331.03	0.11685
1340.67	0.18312
1350.32	0.14289
1359.96	0.0594
1369.61	0.02347
1379.25	0.01356
1388.9	0.00966
1398.54	0.0113
1408.18	0.02079
1417.83	0.02999
1427.47	0.02396
1437.12	0.01153
1446.76	0.00757
1456.41	0.00732
1466.05	0.01113
1475.7	0.01499
1485.34	0.01184
1494.99	0.00688
1504.63	0.00506
1514.28	0.0043
1523.92	0.00474
1533.57	0.007
1543.21	0.0127
1552.86	0.02485
1562.5	0.04405
1572.15	0.07753
1581.79	0.12164
1591.44	0.10486
1601.08	0.05534
1610.73	0.02883
1620.37	0.01639
1630.01	0.01163
1639.66	0.00948
1649.3	0.009
1658.95	0.00965
1668.59	0.01252
1678.24	0.02165
1687.88	0.03563
1697.53	0.04652
1707.17	0.08281
1716.82	0.21626
1726.46	0.246
1736.11	0.10676
1745.75	0.04529
1755.4	0.04046
1765.04	0.02628
1774.69	0.01159
1784.33	0.00555
1793.98	0.00415
1803.62	0.00356
1813.27	0.00318
1822.91	0.00282
1832.55	0.00251
1842.2	0.00214
1851.84	0.00232
1861.49	0.00289
1871.13	0.0034
1880.78	0.00331
1890.42	0.00272
1900.07	0.00214
1909.71	0.0016
1919.36	0.00156
1929	0.00179
1938.65	0.00192
1948.29	0.00184
1957.94	0.00159
1967.58	0.00122
1977.23	0.0008526
1986.87	0.0006051
1996.52	0.0005439
2006.16	0.0005382
2015.81	0.0005148
2025.45	0.000591
2035.1	0.0005524
2044.74	0.0003242
2054.38	0.0002459
2064.03	0.0002591
2073.67	0.0002599
2083.32	0.0003977
2092.96	0.0003236
2102.61	0.0003045
2112.25	0.0003088
2121.9	0.0002875
2131.54	0.0003248
2141.19	0.0003727
2150.83	0.0004694
2160.48	0.0004989
2170.12	0.0004381
2179.77	0.0003707
2189.41	0.0003735
2199.06	0.00038
2208.7	0.0003521
2218.35	0.0002924
2227.99	0.000296
2237.64	0.0002793
2247.28	0.0002965
2256.92	0.0002282
2266.57	0.0001825
2276.21	0.0001618
2285.86	8.492e-05
2295.5	5.977e-05
2305.15	0.0001017
2314.79	0.0001468
2324.44	0.0002563
2334.08	0.0003579
2343.73	0.0003118
2353.37	0.0002744
2363.02	0.0002493
2372.66	0.0003247
2382.31	0.0004674
2391.95	0.0005757
2401.6	0.0006606
2411.24	0.0007333
2420.89	0.0006139
2430.53	0.000508
2440.18	0.000327
2449.82	0.0002741
2459.47	0.0002159
2469.11	0.0001577
2478.75	0.0001635
2488.4	0.0001313
2498.04	7.04e-05
2507.69	0.0001219
2517.33	0.0001783
2526.98	0.0001964
2536.62	0.0002299
2546.27	0.000176
2555.91	0.0001541
2565.56	0.0002261
2575.2	0.000288
2584.85	0.0002464
2594.49	0.0002344
2604.14	0.0001833
2613.78	3.811e-05
2623.43	0.0001124
2633.07	0.000137
2642.72	0.0001701
2652.36	0.0002257
2662.01	0.0001445
2671.65	0.0001744
2681.29	0.0001798
2690.94	0.0001582
2700.58	0.0002237
2710.23	0.0002614
2719.87	0.0003455
2729.52	0.0004176
2739.16	0.0003291
2748.81	0.0002913
2758.45	0.0002815
2768.1	0.0003741
2777.74	0.0004983
2787.39	0.0005945
2797.03	0.0006167
2806.68	0.000417
2816.32	0.0003946
2825.97	0.0002731
2835.61	0.0003292
2845.26	0.0001832
2854.9	9.616e-05
2864.55	0.0002245
2874.19	0.0002065
2883.84	0.0001419
2893.48	0.0001913
2903.12	0.0002876
2912.77	0.0004716
2922.41	0.0006519
2932.06	0.000832
2941.7	0.0006393
2951.35	0.0004208
2960.99	0.0002481
2970.64	0.000126
2980.28	0.0001763
2989.93	0.0003619
2999.57	0.0003274
3009.22	0.0008215
3018.86	0.00151
3028.51	0.00213
3038.15	0.00243
3047.8	0.00258
3057.44	0.00418
3067.09	0.00846
3076.73	0.01094
3086.38	0.00889
3096.02	0.00464
3105.67	0.00226
3115.31	0.00118
3124.95	0.0008436
3134.6	0.000827
3144.24	0.001
3153.89	0.00105
3163.53	0.0008745
3173.18	0.0006771
3182.82	0.0004417
3192.47	0.000344
3202.11	0.0002376
3211.76	0.0001878
3221.4	0.0002091
3231.05	0.0001605
3240.69	0.0001173
3250.34	0.0001594
3259.98	0.000186
3269.63	0.0002394
3279.27	0.0003279
3288.92	0.0006021
3298.56	0.0007866
3308.21	0.0008438
3317.85	0.0006311
3327.49	0.0004211
3337.14	0.0003777
3346.78	0.0004867
3356.43	0.000451
3366.07	0.0007058
3375.72	0.00142
3385.36	0.0024
3395.01	0.00429
3404.65	0.0068
3414.3	0.01248
3423.94	0.02241
3433.59	0.02882
3443.23	0.02116
3452.88	0.00926
3462.52	0.00477
3472.17	0.00307
3481.81	0.00248
3491.46	0.00248
3501.1	0.00331
3510.75	0.00492
3520.39	0.00747
3530.04	0.01146
3539.68	0.01738
3549.32	0.02163
3558.97	0.01721
3568.61	0.008
3578.26	0.00339
3587.9	0.00204
3597.55	0.00106
3607.19	0.0006878
3616.84	0.0004864
3626.48	0.0002633
3636.13	0.0003001
3645.77	0.0001761
3655.42	0.000201
3665.06	0.0001966
3674.71	0.0002807
3684.35	0.0003269
3694	0.0005091
3703.64	0.0004822
3713.29	0.000429
3722.93	0.0003362
3732.58	0.0002822
3742.22	0.0002941
3751.86	0.000366
3761.51	0.0003892
3771.15	0.000355
3780.8	0.0002975
3790.44	0.0002162
3800.09	0.0002091
3809.73	0.0002322
3819.38	0.0003175
3829.02	0.0001915
3838.67	0.0002221
3848.31	0.0003037
3857.96	0.0002995
3867.6	0.0001485
3877.25	0.0002881
3886.89	0.0002951
3896.54	0.000271
3906.18	0.0002347
3915.83	0.0002092
3925.47	0.0003054
3935.12	0.0002284
3944.76	0.0002199
3954.41	0.000224
3964.05	0.0002444
3973.69	0.0001506
3983.34	0.000173
3992.98	0.0001873
