Infrared Spectrum: 3,5-Dibromobenzoic acid
Formula: C 7 H 4 Br 2 O 2
CAS: 618-58-6
State: gas
Origin: EPA-IR VAPOR PHASE LIBRARY
1/CM	ABSORBANCE
549.8	0.014033
559.445	0.014183
569.09	0.015553
578.734	0.031603
588.379	0.020213
598.024	0.010813
607.669	0.006033
617.313	0.003913
626.958	0.005713
636.603	0.019723
646.248	0.058043
655.893	0.011783
665.537	0.005383
675.182	0.002353
684.827	0.001463
694.472	0.001126
704.116	0.002133
713.761	0.004493
723.406	0.007273
733.051	0.013613
742.695	0.042193
752.34	0.034833
761.985	0.027823
771.63	0.017633
781.275	0.005603
790.919	0.003673
800.564	0.002333
810.209	0.001683
819.854	0.001353
829.498	0.001763
839.143	0.001863
848.788	0.001853
858.433	0.002823
868.078	0.009803
877.722	0.009023
887.367	0.002003
897.012	0.001883
906.657	0.003123
916.301	0.002273
925.946	0.001453
935.591	0.0011432
945.236	0.0012539
954.88	0.001014
964.525	0.0005985
974.17	0.0012654
983.815	0.001413
993.46	0.001523
1003.1	0.001643
1012.75	0.001983
1022.39	0.001973
1032.04	0.002083
1041.68	0.003013
1051.33	0.003653
1060.97	0.004333
1070.62	0.005463
1080.26	0.013473
1089.91	0.033733
1099.55	0.035693
1109.2	0.043293
1118.84	0.031533
1128.49	0.020823
1138.13	0.011263
1147.78	0.009793
1157.42	0.015163
1167.07	0.040783
1176.71	0.101423
1186.36	0.088723
1196	0.022073
1205.64	0.012393
1215.29	0.013003
1224.93	0.012483
1234.58	0.011243
1244.22	0.012613
1253.87	0.008313
1263.51	0.006673
1273.16	0.007093
1282.8	0.010003
1292.45	0.012843
1302.09	0.018743
1311.74	0.030463
1321.38	0.046333
1331.03	0.027983
1340.67	0.010603
1350.32	0.011303
1359.96	0.016513
1369.61	0.026263
1379.25	0.023273
1388.9	0.007513
1398.54	0.007193
1408.18	0.015463
1417.83	0.028763
1427.47	0.029353
1437.12	0.009053
1446.76	0.004093
1456.41	0.002423
1466.05	0.002623
1475.7	0.002393
1485.34	0.002143
1494.99	0.001503
1504.63	0.0012947
1514.28	0.001693
1523.92	0.003893
1533.57	0.008243
1543.21	0.015393
1552.86	0.039303
1562.5	0.045683
1572.15	0.015993
1581.79	0.009583
1591.44	0.004073
1601.08	0.001763
1610.73	0.00118
1620.37	0.0012373
1630.01	0.001363
1639.66	0.001583
1649.3	0.001533
1658.95	0.001383
1668.59	0.001943
1678.24	0.001933
1687.88	0.001573
1697.53	0.001753
1707.17	0.003353
1716.82	0.009433
1726.46	0.010933
1736.11	0.007663
1745.75	0.013373
1755.4	0.048753
1765.04	0.197203
1774.69	0.074793
1784.33	0.011453
1793.98	0.007983
1803.62	0.010123
1813.27	0.014413
1822.91	0.005733
1832.55	0.001783
1842.2	0.0011218
1851.84	0.0009944
1861.49	0.0009981
1871.13	0.0009158
1880.78	0.001463
1890.42	0.001543
1900.07	0.0007947
1909.71	0.0006288
1919.36	0.0008437
1929	0.0007201
1938.65	0.0005383
1948.29	0.0006601
1957.94	0.0006754
1967.58	0.0006302
1977.23	0.0006128
1986.87	0.0006754
1996.52	0.0008229
2006.16	0.0009297
2015.81	0.0006574
2025.45	0.0006576
2035.1	0.00036207
2044.74	0.0004914
2054.38	0.000514
2064.03	0.0005111
2073.67	0.000501
2083.32	0.0004563
2092.96	0.0004336
2102.61	0.00037118
2112.25	0.00034469
2121.9	0.0005055
2131.54	0.0003901
2141.19	0.0005467
2150.83	0.000749
2160.48	0.0005203
2170.12	0.0004895
2179.77	0.000744
2189.41	0.000681
2199.06	0.0005792
2208.7	0.0006364
2218.35	0.0004728
2227.99	0.0005113
2237.64	0.00041162
2247.28	0.0004561
2256.92	0.0005536
2266.57	0.0004998
2276.21	0.00041051
2285.86	0.0004816
2295.5	0.00035386
2305.15	0.0005064
2314.79	0.00039845
2324.44	0.0004783
2334.08	0.000615
2343.73	0.0006054
2353.37	0.0006278
2363.02	0.0008037
2372.66	0.0006217
2382.31	0.0006654
2391.95	0.0006039
2401.6	0.0005117
2411.24	0.0006491
2420.89	0.0005511
2430.53	0.0005135
2440.18	0.0005784
2449.82	0.0004502
2459.47	0.0004784
2469.11	0.0005229
2478.75	0.0006598
2488.4	0.0005065
2498.04	0.0004962
2507.69	0.0005183
2517.33	0.0004861
2526.98	0.0004722
2536.62	0.000627
2546.27	0.0006279
2555.91	0.00039709
2565.56	0.0006764
2575.2	0.0005622
2584.85	0.0005186
2594.49	0.0004956
2604.14	0.0004266
2613.78	0.00038785
2623.43	0.00035215
2633.07	0.0002443
2642.72	0.0002655
2652.36	0.00039892
2662.01	0.00037777
2671.65	0.0005052
2681.29	0.0004945
2690.94	0.00033929
2700.58	0.00041063
2710.23	0.0004762
2719.87	0.0004976
2729.52	0.00038646
2739.16	0.00038498
2748.81	0.000545
2758.45	0.0005692
2768.1	0.000623
2777.74	0.000591
2787.39	0.00041937
2797.03	0.00045
2806.68	0.00035895
2816.32	0.0004917
2825.97	0.0006193
2835.61	0.0006689
2845.26	0.000872
2854.9	0.0008631
2864.55	0.0006945
2874.19	0.0005322
2883.84	0.0005608
2893.48	0.0002813
2903.12	0.0003793
2912.77	0.0004865
2922.41	0.0004396
2932.06	0.0004269
2941.7	0.0005332
2951.35	0.0004262
2960.99	0.0005158
2970.64	0.0005148
2980.28	0.0004409
2989.93	0.0006159
2999.57	0.000923
3009.22	0.0007746
3018.86	0.0004514
3028.51	0.0005625
3038.15	0.0004439
3047.8	0.00033327
3057.44	0.0005759
3067.09	0.0007757
3076.73	0.001533
3086.38	0.003303
3096.02	0.001833
3105.67	0.0006229
3115.31	0.000301
3124.95	0.0005126
3134.6	0.0005701
3144.24	0.0006642
3153.89	0.00039763
3163.53	0.0005065
3173.18	0.0005384
3182.82	0.0002512
3192.47	0.0006489
3202.11	0.00041998
3211.76	0.000139
3221.4	0.00040253
3231.05	0.0002265
3240.69	0.0004491
3250.34	0.0003111
3259.98	0.000184
3269.63	7.1e-05
3279.27	0.00041831
3288.92	0.00033739
3298.56	0.0004842
3308.21	0.00037153
3317.85	0.0004528
3327.49	0.0004991
3337.14	0.0002947
3346.78	0.0004594
3356.43	0.0002835
3366.07	0.0003107
3375.72	0.0003077
3385.36	0.0004695
3395.01	0.0005029
3404.65	0.00040966
3414.3	0.0002405
3423.94	0.0004622
3433.59	0.0004478
3443.23	0.00037013
3452.88	0.000513
3462.52	0.000669
3472.17	0.0009285
3481.81	0.000725
3491.46	0.0005173
3501.1	0.0011234
3510.75	0.001713
3520.39	0.001893
3530.04	0.0010498
3539.68	0.0009659
3549.32	0.0012999
3558.97	0.002973
3568.61	0.015223
3578.26	0.060053
3587.9	0.045073
3597.55	0.004493
3607.19	0.0010826
3616.84	0.0007257
3626.48	0.0009689
3636.13	0.0006714
3645.77	0.000887
3655.42	0.0007227
3665.06	0.0007081
3674.71	0.0006026
3684.35	0.0009421
3694	0.0006667
3703.64	0.0005647
3713.29	0.0005792
3722.93	0.0006797
3732.58	0.00034809
3742.22	0.0006247
3751.86	0.000196
3761.51	0.00040621
3771.15	0.0003875
3780.8	0.0004314
3790.44	0.00032074
3800.09	0.000161
3809.73	0.00038709
3819.38	0.000536
3829.02	0.0004996
3838.67	0.00031503
3848.31	0.0004421
3857.96	0.0002687
3867.6	0.00035085
3877.25	0.000312
3886.89	0.000499
3896.54	0.0005587
3906.18	0.0005253
3915.83	0.00039523
3925.47	0.0004769
3935.12	0.0002525
3944.76	0.0005781
3954.41	9e-05
3964.05	0.0004313
3973.69	0.000222
3983.34	0.00036944
3992.98	0.0005148
