Infrared Spectrum: Ethyl 3,5-dinitrobenzoate
Formula: C 9 H 8 N 2 O 6
CAS: 618-71-3
State: gas
Origin: EPA-IR VAPOR PHASE LIBRARY
1/CM	ABSORBANCE
549.9	0.0021656
559.547	0.001909
569.193	0.00175
578.84	0.001574
588.486	0.001392
598.133	0.001267
607.779	0.00125
617.426	0.001116
627.072	0.001405
636.719	0.001445
646.365	0.0020137
656.012	0.0029586
665.658	0.00338
675.305	0.0029932
684.951	0.00332
694.598	0.0046
704.245	0.01039
713.891	0.03577
723.538	0.08422
733.184	0.05886
742.831	0.0123
752.477	0.00572
762.124	0.00504
771.77	0.0081
781.417	0.00608
791.063	0.00452
800.71	0.0038
810.356	0.0036
820.003	0.00533
829.649	0.00926
839.296	0.00702
848.943	0.00715
858.589	0.01037
868.236	0.00852
877.882	0.00456
887.529	0.00388
897.175	0.00455
906.822	0.00979
916.468	0.0212
926.115	0.0193
935.761	0.00846
945.408	0.00426
955.054	0.00362
964.701	0.00406
974.347	0.00449
983.994	0.00519
993.64	0.00748
1003.29	0.01435
1012.93	0.02637
1022.58	0.0312
1032.23	0.01678
1041.87	0.00938
1051.52	0.00786
1061.17	0.01267
1070.81	0.02778
1080.46	0.02735
1090.11	0.02059
1099.75	0.01929
1109.4	0.01418
1119.05	0.0124
1128.69	0.01498
1138.34	0.02254
1147.99	0.04941
1157.63	0.10532
1167.28	0.10087
1176.92	0.05119
1186.57	0.02449
1196.22	0.01331
1205.86	0.01121
1215.51	0.01235
1225.16	0.01403
1234.8	0.0171
1244.45	0.02607
1254.1	0.05651
1263.74	0.15742
1273.39	0.25153
1283.04	0.1258
1292.68	0.05536
1302.33	0.03721
1311.98	0.0374
1321.62	0.03173
1331.27	0.04701
1340.92	0.13879
1350.56	0.13603
1360.21	0.04976
1369.86	0.02899
1379.5	0.0173
1389.15	0.01144
1398.79	0.01097
1408.44	0.01245
1418.09	0.01241
1427.73	0.01077
1437.38	0.01017
1447.03	0.01198
1456.67	0.01805
1466.32	0.01777
1475.97	0.01602
1485.61	0.0132
1495.26	0.01319
1504.91	0.01848
1514.55	0.02997
1524.2	0.02416
1533.85	0.02182
1543.49	0.0497
1553.14	0.17594
1562.79	0.18742
1572.43	0.03868
1582.08	0.02431
1591.73	0.03125
1601.37	0.03246
1611.02	0.01774
1620.67	0.02303
1630.31	0.02548
1639.96	0.01162
1649.6	0.00683
1659.25	0.0054
1668.9	0.00538
1678.54	0.00481
1688.19	0.00507
1697.84	0.00671
1707.48	0.00956
1717.13	0.01131
1726.78	0.01476
1736.42	0.03129
1746.07	0.11264
1755.72	0.11124
1765.36	0.02449
1775.01	0.01129
1784.66	0.00977
1794.3	0.00713
1803.95	0.00467
1813.6	0.00388
1823.24	0.00394
1832.89	0.00418
1842.54	0.00433
1852.18	0.00429
1861.83	0.00399
1871.47	0.00368
1881.12	0.0030466
1890.77	0.0022738
1900.41	0.001752
1910.06	0.001504
1919.71	0.001441
1929.35	0.001466
1939	0.001524
1948.65	0.001587
1958.29	0.001577
1967.94	0.001466
1977.59	0.001353
1987.23	0.001319
1996.88	0.001332
2006.53	0.001464
2016.17	0.001638
2025.82	0.001645
2035.47	0.001529
2045.11	0.00145
2054.76	0.001369
2064.41	0.001402
2074.05	0.001471
2083.7	0.001533
2093.35	0.001493
2102.99	0.00139
2112.64	0.001336
2122.28	0.001334
2131.93	0.001367
2141.58	0.001343
2151.22	0.001268
2160.87	0.001209
2170.52	0.001242
2180.16	0.001247
2189.81	0.001307
2199.46	0.001233
2209.1	0.001138
2218.75	0.001102
2228.4	0.001114
2238.04	0.001114
2247.69	0.001079
2257.34	0.001099
2266.98	0.00112
2276.63	0.001146
2286.28	0.001144
2295.92	0.001126
2305.57	0.001256
2315.22	0.001323
2324.86	0.00136
2334.51	0.001253
2344.16	0.001215
2353.8	0.001158
2363.45	0.001119
2373.09	0.001214
2382.74	0.001233
2392.39	0.001179
2402.03	0.001122
2411.68	0.001151
2421.33	0.001222
2430.97	0.001233
2440.62	0.001204
2450.27	0.001214
2459.91	0.001264
2469.56	0.00146
2479.21	0.001316
2488.85	0.00105
2498.5	0.00105
2508.15	0.001102
2517.79	0.00102
2527.44	0.00096
2537.09	0.00099
2546.73	0.00093
2556.38	0.00088
2566.03	0.00085
2575.67	0.00079
2585.32	0.00087
2594.96	0.00092
2604.61	0.00098
2614.26	0.00106
2623.9	0.00111
2633.55	0.00095
2643.2	0.00091
2652.84	0.00091
2662.49	0.00097
2672.14	0.001234
2681.78	0.001591
2691.43	0.00176
2701.08	0.001446
2710.72	0.001168
2720.37	0.001068
2730.02	0.001116
2739.66	0.001161
2749.31	0.001223
2758.96	0.001122
2768.6	0.001244
2778.25	0.001287
2787.9	0.001228
2797.54	0.00111
2807.19	0.001114
2816.84	0.001341
2826.48	0.001572
2836.13	0.00169
2845.77	0.001847
2855.42	0.0022809
2865.07	0.0027395
2874.71	0.00356
2884.36	0.00559
2894.01	0.00718
2903.65	0.00662
2913.3	0.00615
2922.95	0.00578
2932.59	0.00606
2942.24	0.00845
2951.89	0.00853
2961.53	0.00647
2971.18	0.00904
2980.83	0.01441
2990.47	0.02098
3000.12	0.01312
3009.77	0.00844
3019.41	0.00572
3029.06	0.00342
3038.71	0.0023894
3048.35	0.001694
3058	0.001428
3067.64	0.001695
3077.29	0.0023005
3086.94	0.00453
3096.58	0.01174
3106.23	0.02121
3115.88	0.0138
3125.52	0.0023887
3135.17	0.00094
3144.82	0.0005
3154.46	0.00051
3164.11	0.00046
3173.76	0.00033
3183.4	0.00076
3193.05	0.00052
3202.7	0.00022
3212.34	0.00025
3221.99	0.00019
3231.64	3e-05
3241.28	1e-05
3250.93	0.00017
3260.58	7e-05
3270.22	8e-05
3279.87	0.00017
3289.52	6e-05
3299.16	0.00015
3308.81	7e-05
3318.45	7e-05
3328.1	0.00019
3337.75	0.00023
3347.39	0.00015
3357.04	0.00034
3366.69	0.0003
3376.33	0.00035
3385.98	0.00043
3395.63	0.0005
3405.27	0.00058
3414.92	0.00054
3424.57	0.00056
3434.21	0.00044
3443.86	0.00058
3453.51	0.00083
3463.15	0.00086
3472.8	0.001316
3482.45	0.001881
3492.09	0.00134
3501.74	0.00099
3511.39	0.0009
3521.03	0.00076
3530.68	0.00062
3540.33	0.00074
3549.97	0.00079
3559.62	0.00072
3569.26	0.00085
3578.91	0.00078
3588.56	0.00085
3598.2	0.0007
3607.85	0.00089
3617.5	0.00092
3627.14	0.00083
3636.79	0.00088
3646.44	0.00092
3656.08	0.00084
3665.73	0.00093
3675.38	0.00072
3685.02	0.00085
3694.67	0.001
3704.32	0.00094
3713.96	0.00093
3723.61	0.001
3733.26	0.00096
3742.9	0.001145
3752.55	0.00091
3762.2	0.00099
3771.84	0.00092
3781.49	0.00101
3791.13	0.00092
3800.78	0.00106
3810.43	0.00105
3820.07	0.001067
3829.72	0.00101
3839.37	0.00096
3849.01	0.00099
3858.66	0.00096
3868.31	0.00106
3877.95	0.00094
3887.6	0.00102
3897.25	0.00088
3906.89	0.00095
3916.54	0.00099
3926.19	0.00099
3935.83	0.00101
3945.48	0.00094
3955.13	0.00101
3964.77	0.00097
3974.42	0.00092
3984.07	0.00097
3993.71	0.00102
