Infrared Spectrum: METHYL M-BROMO BENZOATE
Formula: C8 H7 Br O2
CAS: 618-89-3
State: SOLID (MULL)
Boiling point: 28-29 C
Class: COBLENTZ
Instrument: Not specified, most likely a prism, grating, or hybrid spectrometer.
Sampling: TRANSMISSION
Resolution: 4
Origin: WYANDOTTE CHEMICALS CORP., WYANDOTTE, MICHIGAN, USA
MICROMETERS	TRANSMITTANCE
2.031	0.841
2.07081	0.828
2.11063	0.828
2.15044	0.805
2.19026	0.801
2.23007	0.806
2.26989	0.81
2.3097	0.798
2.34951	0.8
2.38933	0.795
2.42914	0.818
2.46896	0.82
2.50877	0.825
2.54859	0.836
2.5884	0.84
2.62821	0.83
2.66803	0.84
2.70784	0.84
2.74766	0.845
2.78747	0.835
2.82729	0.815
2.8671	0.811
2.90692	0.775
2.94673	0.745
2.98654	0.775
3.02636	0.767
3.06617	0.752
3.10599	0.75
3.1458	0.745
3.18562	0.722
3.22543	0.685
3.26524	0.555
3.30506	0.437
3.34487	0.449
3.38469	0.242
3.4245	0.264
3.46432	0.347
3.50413	0.362
3.54394	0.547
3.58376	0.763
3.62357	0.801
3.66339	0.81
3.7032	0.808
3.74302	0.813
3.78283	0.815
3.82264	0.821
3.86246	0.82
3.90227	0.813
3.94209	0.8
3.9819	0.811
4.02172	0.848
4.06153	0.851
4.10134	0.856
4.14116	0.846
4.18097	0.863
4.22079	0.848
4.2606	0.81
4.30042	0.8
4.34023	0.826
4.38005	0.865
4.41986	0.9
4.45967	0.878
4.49949	0.881
4.5393	0.878
4.57912	0.886
4.61893	0.893
4.65875	0.901
4.69856	0.906
4.73837	0.888
4.77819	0.883
4.818	0.861
4.85782	0.866
4.89763	0.881
4.93745	0.898
4.97726	0.888
5.01707	0.903
5.05689	0.923
5.0967	0.925
5.13652	0.878
5.17633	0.732
5.21615	0.87
5.25596	0.885
5.29577	0.868
5.33559	0.905
5.3754	0.918
5.41522	0.935
5.45503	0.838
5.49485	0.871
5.53466	0.851
5.57448	0.783
5.61429	0.683
5.6541	0.685
5.69392	0.801
5.73373	0.57
5.77355	0.186
5.81336	0.138
5.85318	0.274
5.89299	0.371
5.9328	0.442
5.97262	0.514
6.01243	0.529
6.05225	0.557
6.09206	0.683
6.13188	0.665
6.17169	0.648
6.2115	0.605
6.25132	0.362
6.29113	0.519
6.33095	0.166
6.37076	0.234
6.41058	0.391
6.45039	0.564
6.4902	0.723
6.53002	0.753
6.56983	0.782
6.60965	0.78
6.64946	0.755
6.68928	0.663
6.72909	0.351
6.7689	0.191
6.80872	0.193
6.84853	0.189
6.88835	0.201
6.92816	0.179
6.96798	0.173
7.00779	0.229
7.04761	0.191
7.08742	0.242
7.12723	0.314
7.16705	0.489
7.20686	0.569
7.24668	0.475
7.28649	0.497
7.32631	0.557
7.36612	0.594
7.40593	0.58
7.44575	0.534
7.48556	0.429
7.52538	0.387
7.56519	0.349
7.60501	0.321
7.64482	0.217
7.68463	0.149
7.72445	0.126
7.76426	0.118
7.80408	0.128
7.84389	0.153
7.88371	0.193
7.92352	0.136
7.96333	0.123
8.00315	0.161
8.04296	0.207
8.08278	0.256
8.12259	0.297
8.16241	0.379
8.20222	0.429
8.24203	0.427
8.28185	0.366
8.32166	0.332
8.36148	0.277
8.40129	0.174
8.44111	0.189
8.48092	0.307
8.52074	0.409
8.56055	0.445
8.60036	0.454
8.64018	0.485
8.67999	0.489
8.71981	0.484
8.75962	0.477
8.79944	0.46
8.83925	0.372
8.87906	0.224
8.91888	0.149
8.95869	0.144
8.99851	0.171
9.03832	0.161
9.07814	0.163
9.11795	0.219
9.15776	0.279
9.19758	0.272
9.23739	0.166
9.27721	0.247
9.31702	0.334
9.35684	0.171
9.39665	0.181
9.43646	0.324
9.47628	0.494
9.51609	0.574
9.55591	0.612
9.59572	0.63
9.63554	0.633
9.67535	0.61
9.71516	0.607
9.75498	0.652
9.79479	0.665
9.83461	0.652
9.87442	0.58
9.91424	0.645
9.95405	0.663
9.99387	0.357
10.0337	0.307
10.0735	0.569
10.1133	0.612
10.1531	0.633
10.1929	0.617
10.2328	0.545
10.2726	0.519
10.3124	0.504
10.3522	0.477
10.392	0.442
10.4318	0.424
10.4716	0.437
10.5115	0.477
10.5513	0.539
10.5911	0.577
10.6309	0.615
10.6707	0.63
10.7105	0.65
10.7503	0.672
10.7902	0.682
10.83	0.687
10.8698	0.657
10.9096	0.542
10.9494	0.657
10.9892	0.7
11.029	0.712
11.0689	0.677
11.1087	0.647
11.1485	0.607
11.1883	0.467
11.2281	0.231
11.2679	0.239
11.3077	0.487
11.3476	0.608
11.3874	0.683
11.4272	0.713
11.467	0.728
11.5068	0.743
11.5466	0.748
11.5864	0.752
11.6263	0.755
11.6661	0.753
11.7059	0.752
11.7457	0.742
11.7855	0.733
11.8253	0.708
11.8651	0.688
11.905	0.698
11.9448	0.7
11.9846	0.67
12.0244	0.64
12.0642	0.637
12.104	0.683
12.1438	0.695
12.1837	0.672
12.2235	0.652
12.2633	0.652
12.3031	0.638
12.3429	0.587
12.3827	0.422
12.4225	0.217
12.4624	0.289
12.5022	0.534
12.542	0.658
12.5818	0.72
12.6216	0.737
12.6614	0.737
12.7012	0.732
12.7411	0.727
12.7809	0.715
12.8207	0.69
12.8605	0.67
12.9003	0.66
12.9401	0.653
12.9799	0.64
13.0198	0.622
13.0596	0.592
13.0994	0.557
13.1392	0.504
13.179	0.42
13.2188	0.357
13.2586	0.331
13.2985	0.282
13.3383	0.209
13.3781	0.169
13.4179	0.139
13.4577	0.124
13.4975	0.113
13.5373	0.101
13.5772	0.118
13.617	0.144
13.6568	0.164
13.6966	0.224
13.7364	0.321
13.7762	0.379
13.816	0.371
13.8559	0.267
13.8957	0.186
13.9355	0.151
13.9753	0.176
14.0151	0.249
14.0549	0.387
14.0947	0.489
14.1346	0.574
14.1744	0.637
14.2142	0.677
14.254	0.708
14.2938	0.723
14.3336	0.737
14.3734	0.75
14.4133	0.77
14.4531	0.777
14.4929	0.792
14.5327	0.798
14.5725	0.797
14.6123	0.788
14.6521	0.778
14.692	0.762
14.7318	0.745
14.7716	0.727
14.8114	0.69
14.8512	0.653
14.891	0.589
14.9308	0.477
14.9707	0.367
15.0105	0.319
15.0503	0.317
15.0901	0.407
15.1299	0.544
15.1697	0.63
15.2095	0.687
15.2494	0.71
15.2892	0.723
15.329	0.708
15.3688	0.66
15.4086	0.599
15.4484	0.577
15.4882	0.6
15.5281	0.642
15.5679	0.688
15.6077	0.703
15.6475	0.707
15.6873	0.708
15.7271	0.708
15.7669	0.703
15.8068	0.703
15.8466	0.703
15.8864	0.698
15.9262	0.695
15.966	0.69
16.0058	0.685
