Infrared Spectrum: 3,5-DIIODO-4-HYDROXY-BENZOIC ACID
Formula: C7 H4 I2 O3
CAS: 618-76-8
State: SOLID (MINERAL OIL MULL)
Melting point: 274 C (DECOMPOSE)
Class: COBLENTZ
Instrument: Not specified, most likely a prism, grating, or hybrid spectrometer.
Sampling: TRANSMISSION
Resolution: 4
Origin: WYANDOTTE CHEMICALS CORP., WYANDOTTE, MICHIGAN, USA
MICROMETERS	TRANSMITTANCE
2.012	0.311
2.04914	0.311
2.08627	0.314
2.12341	0.32
2.16055	0.324
2.19768	0.324
2.23482	0.327
2.27195	0.328
2.30909	0.33
2.34623	0.333
2.38336	0.336
2.4205	0.344
2.45764	0.348
2.49477	0.348
2.53191	0.348
2.56904	0.353
2.60618	0.362
2.64332	0.368
2.68045	0.37
2.71759	0.372
2.75473	0.373
2.79186	0.373
2.829	0.37
2.86613	0.31
2.90327	0.207
2.94041	0.255
2.97754	0.32
3.01468	0.33
3.05182	0.317
3.08895	0.297
3.12609	0.263
3.16322	0.248
3.20036	0.22
3.2375	0.167
3.27463	0.125
3.31177	0.119
3.34891	0.04
3.38604	0.02
3.42318	0.02
3.46032	0.026
3.49745	0.026
3.53459	0.069
3.57172	0.153
3.60886	0.17
3.646	0.209
3.68313	0.217
3.72027	0.22
3.75741	0.207
3.79454	0.203
3.83168	0.198
3.86881	0.21
3.90595	0.223
3.94309	0.231
3.98022	0.213
4.01736	0.217
4.0545	0.231
4.09163	0.255
4.12877	0.28
4.1659	0.294
4.20304	0.311
4.24018	0.313
4.27731	0.316
4.31445	0.337
4.35159	0.359
4.38872	0.389
4.42586	0.398
4.46299	0.404
4.50013	0.413
4.53727	0.417
4.5744	0.423
4.61154	0.431
4.64868	0.435
4.68581	0.444
4.72295	0.455
4.76008	0.474
4.79722	0.485
4.83436	0.497
4.87149	0.503
4.90863	0.5
4.94577	0.506
4.9829	0.506
5.02004	0.527
5.05718	0.533
5.09431	0.536
5.13145	0.542
5.16858	0.551
5.20572	0.55
5.24286	0.551
5.27999	0.558
5.31713	0.565
5.35427	0.565
5.3914	0.578
5.42854	0.579
5.46567	0.579
5.50281	0.576
5.53995	0.575
5.57708	0.555
5.61422	0.586
5.65136	0.613
5.68849	0.654
5.72563	0.688
5.76276	0.747
5.7999	0.711
5.83704	0.417
5.87417	0.223
5.91131	0.119
5.94845	0.072
5.98558	0.083
6.02272	0.158
6.05985	0.286
6.09699	0.362
6.13413	0.4
6.17126	0.472
6.2084	0.519
6.24554	0.5
6.28267	0.161
6.31981	0.241
6.35695	0.358
6.39408	0.435
6.43122	0.24
6.46835	0.296
6.50549	0.437
6.54263	0.496
6.57976	0.534
6.6169	0.592
6.65404	0.593
6.69117	0.581
6.72831	0.513
6.76544	0.291
6.80258	0.182
6.83972	0.24
6.87685	0.311
6.91399	0.4
6.95113	0.451
6.98826	0.449
7.0254	0.322
7.06253	0.148
7.09967	0.1
7.13681	0.12
7.17394	0.111
7.21108	0.141
7.24822	0.153
7.28535	0.299
7.32249	0.407
7.35962	0.503
7.39676	0.53
7.4339	0.556
7.47103	0.48
7.50817	0.381
7.54531	0.337
7.58244	0.283
7.61958	0.294
7.65672	0.215
7.69385	0.144
7.73099	0.1
7.76812	0.094
7.80526	0.116
7.8424	0.082
7.87953	0.065
7.91667	0.072
7.95381	0.136
7.99094	0.203
8.02808	0.1
8.06521	0.093
8.10235	0.13
8.13949	0.153
8.17662	0.223
8.21376	0.314
8.2509	0.368
8.28803	0.423
8.32517	0.452
8.3623	0.468
8.39944	0.39
8.43658	0.417
8.47371	0.499
8.51085	0.553
8.54799	0.589
8.58512	0.615
8.62226	0.539
8.65939	0.372
8.69653	0.313
8.73367	0.258
8.7708	0.221
8.80794	0.184
8.84508	0.156
8.88221	0.144
8.91935	0.186
8.95648	0.252
8.99362	0.322
9.03076	0.375
9.06789	0.415
9.10503	0.444
9.14217	0.465
9.1793	0.488
9.21644	0.502
9.25358	0.511
9.29071	0.542
9.32785	0.55
9.36498	0.576
9.40212	0.584
9.43926	0.582
9.47639	0.589
9.51353	0.59
9.55067	0.609
9.5878	0.615
9.62494	0.623
9.66207	0.618
9.69921	0.627
9.73635	0.629
9.77348	0.641
9.81062	0.649
9.84776	0.651
9.88489	0.654
9.92203	0.658
9.95916	0.66
9.9963	0.66
10.0334	0.658
10.0706	0.655
10.1077	0.652
10.1448	0.649
10.182	0.643
10.2191	0.632
10.2563	0.624
10.2934	0.612
10.3305	0.606
10.3677	0.6
10.4048	0.593
10.4419	0.579
10.4791	0.573
10.5162	0.559
10.5533	0.544
10.5905	0.519
10.6276	0.503
10.6648	0.491
10.7019	0.483
10.739	0.482
10.7762	0.469
10.8133	0.475
10.8504	0.469
10.8876	0.46
10.9247	0.426
10.9618	0.393
10.999	0.364
11.0361	0.356
11.0733	0.333
11.1104	0.364
11.1475	0.41
11.1847	0.438
11.2218	0.479
11.2589	0.516
11.2961	0.519
11.3332	0.5
11.3703	0.516
11.4075	0.553
11.4446	0.578
11.4818	0.59
11.5189	0.598
11.556	0.61
11.5932	0.621
11.6303	0.643
11.6674	0.657
11.7046	0.672
11.7417	0.685
11.7788	0.7
11.816	0.713
11.8531	0.734
11.8903	0.745
11.9274	0.759
11.9645	0.768
12.0017	0.775
12.0388	0.781
12.0759	0.795
12.1131	0.798
12.1502	0.798
12.1873	0.809
12.2245	0.817
12.2616	0.818
12.2988	0.824
12.3359	0.831
12.373	0.834
12.4102	0.844
12.4473	0.858
12.4844	0.855
12.5216	0.857
12.5587	0.868
12.5958	0.869
12.633	0.877
12.6701	0.866
12.7072	0.835
12.7444	0.82
12.7815	0.843
12.8187	0.858
12.8558	0.855
12.8929	0.82
12.9301	0.755
12.9672	0.595
13.0043	0.42
13.0415	0.311
13.0786	0.269
13.1157	0.441
13.1529	0.644
13.19	0.776
13.2272	0.846
13.2643	0.872
13.3014	0.88
13.3386	0.899
13.3757	0.925
13.4128	0.936
13.45	0.941
13.4871	0.939
13.5242	0.941
13.5614	0.936
13.5985	0.931
13.6357	0.925
13.6728	0.927
13.7099	0.922
13.7471	0.93
13.7842	0.931
13.8213	0.93
13.8585	0.917
13.8956	0.902
13.9327	0.88
13.9699	0.801
14.007	0.658
14.0442	0.506
14.0813	0.489
14.1184	0.514
14.1556	0.44
14.1927	0.365
14.2298	0.418
14.267	0.514
14.3041	0.62
14.3412	0.703
14.3784	0.762
14.4155	0.803
14.4527	0.829
14.4898	0.84
14.5269	0.852
14.5641	0.868
14.6012	0.886
14.6383	0.894
14.6755	0.902
14.7126	0.91
14.7497	0.914
14.7869	0.917
14.824	0.924
14.8612	0.928
14.8983	0.92
14.9354	0.919
14.9726	0.888
15.0097	0.838
15.0468	0.734
15.084	0.658
15.1211	0.634
15.1582	0.62
15.1954	0.561
15.2325	0.483
15.2697	0.396
15.3068	0.333
15.3439	0.31
15.3811	0.31
15.4182	0.328
15.4553	0.373
15.4925	0.415
15.5296	0.465
15.5667	0.499
15.6039	0.517
15.641	0.542
15.6782	0.548
15.7153	0.553
15.7524	0.558
15.7896	0.558
15.8267	0.556
15.8638	0.548
15.901	0.537
15.9381	0.53
15.9752	0.522
