Infrared Spectrum: Benzoyl iodide
Formula: C7 H5 I O
CAS: 618-38-2
State: SOLUTION (2% CCl4 FOR 4000-1325, 2% CS2 FOR 1325-450 CM^-^1)
Class: COBLENTZ III
Instrument: DOW KBr FOREPRISM-GRATING
Instrument parameters: BLAZED AT 3.5, 12.0, 20.0 MICRON AND CHANGED AT 5.0, 7.5, 14.9 MICRON
Sampling: TRANSMISSION
Path length: 0.011 CM, 0.012 CM
Resolution: 2
Origin: DOW CHEMICAL COMPANY
1/CM	TRANSMITTANCE
3800	0.9095
3791	0.9204
3782	0.9896
3773	0.9432
3764	0.9557
3755	0.9561
3746	0.958
3737	0.9589
3728	0.9581
3719	0.9565
3710	0.9592
3701	0.9604
3692	0.9597
3683	0.96
3674	0.9628
3665	0.9611
3656	0.9592
3647	0.9577
3638	0.9566
3629	0.9564
3620	0.9586
3611	0.959
3602	0.9583
3593	0.9595
3584	0.9571
3575	0.9556
3566	0.9561
3557	0.9557
3548	0.9568
3539	0.9546
3530	0.9538
3521	0.9505
3512	0.9498
3503	0.9492
3494	0.9511
3485	0.9533
3476	0.9561
3467	0.959
3458	0.9619
3449	0.9641
3440	0.9663
3431	0.9684
3422	0.9703
3413	0.972
3404	0.9737
3395	0.975
3386	0.9757
3377	0.9764
3368	0.9765
3359	0.9763
3350	0.9762
3341	0.9762
3332	0.9761
3323	0.976
3314	0.9765
3305	0.9786
3296	0.9772
3287	0.9769
3278	0.9777
3269	0.9775
3260	0.9767
3251	0.9758
3242	0.9748
3233	0.9741
3224	0.9735
3215	0.973
3206	0.9708
3197	0.9708
3188	0.9702
3179	0.9678
3170	0.9668
3161	0.9668
3152	0.9668
3143	0.9644
3134	0.9659
3125	0.966
3116	0.9651
3107	0.9633
3098	0.9602
3089	0.9547
3080	0.945
3071	0.9349
3062	0.9158
3053	0.9314
3044	0.9485
3035	0.9579
3026	0.9529
3017	0.9558
3008	0.9544
2999	0.9545
2990	0.9561
2981	0.9561
2972	0.9581
2963	0.9595
2954	0.9596
2945	0.9588
2936	0.9593
2927	0.9541
2918	0.9485
2909	0.9459
2900	0.9454
2891	0.945
2882	0.9446
2873	0.9453
2864	0.9459
2855	0.9465
2846	0.9471
2837	0.9476
2828	0.9466
2819	0.9485
2810	0.9475
2801	0.95
2792	0.9503
2783	0.9502
2774	0.9517
2765	0.9519
2756	0.9521
2747	0.9515
2738	0.9513
2729	0.9512
2720	0.9509
2711	0.951
2702	0.9512
2693	0.9515
2684	0.9512
2675	0.9507
2666	0.9503
2657	0.9516
2648	0.9502
2639	0.9493
2630	0.9498
2621	0.9515
2612	0.9519
2603	0.9515
2594	0.9513
2585	0.9507
2576	0.9506
2567	0.9502
2558	0.9498
2549	0.9495
2540	0.9491
2531	0.9487
2522	0.9483
2513	0.9477
2504	0.9473
2495	0.9466
2486	0.9462
2477	0.9478
2468	0.9477
2459	0.9477
2450	0.9462
2441	0.9478
2432	0.948
2423	0.9482
2414	0.9484
2405	0.9507
2396	0.9513
2387	0.9533
2378	0.9578
2369	0.9574
2360	0.955
2351	0.955
2342	0.9511
2333	0.9466
2324	0.9465
2315	0.9454
2306	0.9475
2297	0.9503
2288	0.9497
2279	0.9477
2270	0.9443
2261	0.9424
2252	0.9407
2243	0.9394
2234	0.9396
2225	0.9415
2216	0.9413
2207	0.9418
2198	0.9424
2189	0.9411
2180	0.9415
2171	0.9436
2162	0.9421
2153	0.9423
2144	0.9425
2135	0.9427
2126	0.9429
2117	0.9431
2108	0.9432
2099	0.9434
2090	0.9437
2081	0.9441
2072	0.9443
2063	0.9419
2054	0.9438
2045	0.9423
2036	0.9411
2027	0.9398
2018	0.9355
2009	0.9302
2000	0.9249
1991	0.9316
1982	0.9367
1973	0.9413
1964	0.9425
1955	0.9509
1946	0.9502
1937	0.9475
1928	0.9452
1919	0.9427
1910	0.9383
1901	0.9389
1892	0.9427
1883	0.9438
1874	0.9447
1865	0.9434
1856	0.9422
1847	0.9381
1838	0.9339
1829	0.9281
1820	0.9147
1811	0.8994
1802	0.9004
1793	0.891
1784	0.8173
1775	0.5871
1766	0.3632
1757	0.2984
1748	0.7279
1739	0.8426
1730	0.8876
1721	0.8947
1712	0.9069
1703	0.8926
1694	0.8835
1685	0.911
1676	0.9216
1667	0.9163
1658	0.9309
1649	0.954
1640	0.967
1631	0.9646
1622	0.9578
1613	0.9601
1604	0.9592
1595	0.8435
1586	0.9104
1577	0.861
1568	0.9094
1559	0.9108
1550	0.9019
1541	0.8484
1532	0.8983
1523	0.9126
1514	0.9221
1505	0.9032
1496	0.9257
1487	0.9357
1478	0.9606
1469	0.9597
1460	0.9571
1451	0.7377
1442	0.8166
1433	0.9564
1424	0.9638
1415	0.9571
1406	0.9699
1397	0.9773
1388	0.9805
1379	0.986
1370	0.9842
1361	0.9825
1352	0.9738
1343	0.9548
1334	0.9474
1325	0.9376
1316	0.8749
1307	0.9085
1298	0.9299
1289	0.9279
1280	0.9351
1271	0.9456
1262	0.9557
1253	0.9588
1244	0.9608
1235	0.9595
1226	0.9688
1217	0.9566
1208	0.9075
1199	0.9411
1190	0.5408
1181	0.8752
1172	0.7283
1163	0.3123
1154	0.8123
1145	0.9031
1136	0.9571
1127	0.9675
1118	0.967
1109	0.9732
1100	0.9538
1091	0.9605
1082	0.9613
1073	0.9476
1064	0.9517
1055	0.9604
1046	0.9644
1037	0.9652
1028	0.9443
1019	0.9537
1010	0.9575
1001	0.9085
992	0.9502
983	0.9569
974	0.9576
965	0.9575
956	0.9592
947	0.9572
938	0.9499
929	0.9256
920	0.9426
911	0.9494
902	0.9472
893	0.937
884	0.9236
875	0.8538
866	0.8776
857	0.8767
848	0.8325
839	0.5652
830	0.2594
821	0.7291
812	0.8508
803	0.8909
794	0.8785
785	0.925
776	0.933
767	0.7343
758	0.8673
749	0.9347
740	0.9427
731	0.9419
722	0.9408
713	0.9194
704	0.9258
695	0.9226
686	0.8471
677	0.6711
668	0.9102
659	0.9152
650	0.7925
641	0.7058
632	0.8846
623	0.9051
614	0.7308
605	0.7092
596	0.9125
587	0.9227
578	0.9343
569	0.9402
560	0.9412
551	0.9401
542	0.9412
533	0.9447
524	0.9437
515	0.9375
506	0.9312
497	0.9251
488	0.9191
479	0.9139
470	0.9074
461	0.8994
452	0.8891
