Infrared Spectrum: BENZOTHIAZOLE, 2-AMINO-6-CHLORO-, HYDROCHLORIDE
Formula: C7 H6 Cl2 N2 S
CAS: 61827-71-2
State: SOLID (OIL MULL)
Class: COBLENTZ III
Instrument: PERKIN-ELMER 21 (GRATING)
Instrument parameters: NaCl PRISM
Sampling: TRANSMISSION
Resolution: 2
Origin: SMITH KLINE & FRENCH LABS.
MICROMETERS	TRANSMITTANCE
1.99	0.285
2.02433	0.288
2.05865	0.299
2.09298	0.311
2.12731	0.324
2.16163	0.34
2.19596	0.339
2.23028	0.36
2.26461	0.369
2.29894	0.38
2.33326	0.389
2.36759	0.399
2.40192	0.409
2.43624	0.427
2.47057	0.432
2.5049	0.451
2.53922	0.471
2.57355	0.477
2.60788	0.479
2.6422	0.494
2.67653	0.503
2.71085	0.51
2.74518	0.529
2.77951	0.549
2.81383	0.557
2.84816	0.551
2.88249	0.472
2.91681	0.543
2.95114	0.568
2.98547	0.582
3.01979	0.571
3.05412	0.494
3.08845	0.488
3.12277	0.428
3.1571	0.321
3.19142	0.219
3.22575	0.181
3.26008	0.157
3.2944	0.148
3.32873	0.103
3.36306	0.052
3.39738	0.019
3.43171	0.012
3.46604	0.013
3.50036	0.029
3.53469	0.065
3.56902	0.18
3.60334	0.188
3.63767	0.179
3.67199	0.173
3.70632	0.181
3.74065	0.178
3.77497	0.178
3.8093	0.201
3.84363	0.239
3.87795	0.289
3.91228	0.361
3.94661	0.387
3.98093	0.409
4.01526	0.429
4.04958	0.47
4.08391	0.489
4.11824	0.518
4.15256	0.542
4.18689	0.553
4.22122	0.571
4.25554	0.56
4.28987	0.564
4.3242	0.579
4.35852	0.6
4.39285	0.625
4.42718	0.632
4.4615	0.643
4.49583	0.647
4.53015	0.643
4.56448	0.644
4.59881	0.664
4.63313	0.664
4.66746	0.68
4.70179	0.688
4.73611	0.691
4.77044	0.697
4.80477	0.702
4.83909	0.703
4.87342	0.713
4.90775	0.716
4.94207	0.725
4.9764	0.726
5.01072	0.728
5.04505	0.733
5.07938	0.741
5.1137	0.748
5.14803	0.749
5.18236	0.754
5.21668	0.752
5.25101	0.757
5.28534	0.764
5.31966	0.753
5.35399	0.747
5.38832	0.763
5.42264	0.771
5.45697	0.78
5.49129	0.778
5.52562	0.785
5.55995	0.786
5.59427	0.797
5.6286	0.794
5.66293	0.802
5.69725	0.802
5.73158	0.802
5.76591	0.805
5.80023	0.783
5.83456	0.786
5.86888	0.791
5.90321	0.789
5.93754	0.783
5.97186	0.73
6.00619	0.456
6.04052	0.155
6.07484	0.053
6.10917	0.153
6.1435	0.291
6.17782	0.482
6.21215	0.485
6.24648	0.341
6.2808	0.203
6.31513	0.402
6.34945	0.315
6.38378	0.456
6.41811	0.506
6.45243	0.534
6.48676	0.448
6.52109	0.321
6.55541	0.454
6.58974	0.572
6.62407	0.59
6.65839	0.619
6.69272	0.604
6.72705	0.592
6.76137	0.514
6.7957	0.261
6.83002	0.092
6.86435	0.175
6.89868	0.194
6.933	0.229
6.96733	0.41
7.00166	0.505
7.03598	0.523
7.07031	0.514
7.10464	0.504
7.13896	0.462
7.17329	0.456
7.20762	0.448
7.24194	0.35
7.27627	0.302
7.31059	0.382
7.34492	0.422
7.37925	0.442
7.41357	0.415
7.4479	0.398
7.48223	0.412
7.51655	0.45
7.55088	0.478
7.58521	0.485
7.61953	0.493
7.65386	0.455
7.68818	0.485
7.72251	0.545
7.75684	0.573
7.79116	0.487
7.82549	0.5
7.85982	0.54
7.89414	0.605
7.92847	0.435
7.9628	0.559
7.99712	0.625
8.03145	0.525
8.06578	0.632
8.1001	0.658
8.13443	0.673
8.16875	0.673
8.20308	0.697
8.23741	0.698
8.27173	0.711
8.30606	0.737
8.34039	0.741
8.37471	0.744
8.40904	0.749
8.44337	0.753
8.47769	0.754
8.51202	0.754
8.54635	0.749
8.58067	0.755
8.615	0.754
8.64932	0.747
8.68365	0.754
8.71798	0.755
8.7523	0.695
8.78663	0.641
8.82096	0.652
8.85528	0.724
8.88961	0.735
8.92394	0.746
8.95826	0.738
8.99259	0.702
9.02692	0.665
9.06124	0.631
9.09557	0.621
9.12989	0.61
9.16422	0.614
9.19855	0.704
9.23287	0.744
9.2672	0.753
9.30153	0.763
9.33585	0.766
9.37018	0.766
9.40451	0.769
9.43883	0.772
9.47316	0.749
9.50748	0.742
9.54181	0.754
9.57614	0.77
9.61046	0.776
9.64479	0.783
9.67912	0.78
9.71344	0.782
9.74777	0.782
9.7821	0.787
9.81642	0.783
9.85075	0.787
9.88508	0.786
9.9194	0.789
9.95373	0.792
9.98805	0.792
10.0224	0.793
10.0567	0.8
10.091	0.802
10.1254	0.799
10.1597	0.794
10.194	0.792
10.2283	0.791
10.2627	0.788
10.297	0.787
10.3313	0.789
10.3656	0.794
10.4	0.793
10.4343	0.794
10.4686	0.797
10.503	0.793
10.5373	0.797
10.5716	0.805
10.6059	0.796
10.6403	0.789
10.6746	0.787
10.7089	0.788
10.7432	0.794
10.7776	0.802
10.8119	0.807
10.8462	0.809
10.8805	0.809
10.9149	0.808
10.9492	0.81
10.9835	0.818
11.0178	0.815
11.0522	0.822
11.0865	0.825
11.1208	0.818
11.1552	0.809
11.1895	0.763
11.2238	0.725
11.2581	0.764
11.2925	0.794
11.3268	0.803
11.3611	0.804
11.3954	0.797
11.4298	0.803
11.4641	0.807
11.4984	0.803
11.5327	0.764
11.5671	0.592
11.6014	0.589
11.6357	0.665
11.67	0.732
11.7044	0.764
11.7387	0.792
11.773	0.797
11.8074	0.798
11.8417	0.799
11.876	0.794
11.9103	0.792
11.9447	0.791
11.979	0.786
12.0133	0.775
12.0476	0.748
12.082	0.681
12.1163	0.654
12.1506	0.671
12.1849	0.648
12.2193	0.588
12.2536	0.401
12.2879	0.241
12.3223	0.227
12.3566	0.355
12.3909	0.557
12.4252	0.708
12.4596	0.752
12.4939	0.764
12.5282	0.761
12.5625	0.753
12.5969	0.737
12.6312	0.702
12.6655	0.671
12.6998	0.658
12.7342	0.632
12.7685	0.623
12.8028	0.622
12.8371	0.622
12.8715	0.631
12.9058	0.621
12.9401	0.582
12.9745	0.521
13.0088	0.511
13.0431	0.501
13.0774	0.478
13.1118	0.472
13.1461	0.521
13.1804	0.582
13.2147	0.622
13.2491	0.655
13.2834	0.686
13.3177	0.71
13.352	0.715
13.3864	0.724
13.4207	0.725
13.455	0.721
13.4893	0.71
13.5237	0.714
13.558	0.705
13.5923	0.698
13.6267	0.687
13.661	0.671
13.6953	0.652
13.7296	0.621
13.764	0.59
13.7983	0.547
13.8326	0.512
13.8669	0.481
13.9013	0.463
13.9356	0.471
13.9699	0.478
14.0042	0.412
14.0386	0.363
14.0729	0.363
14.1072	0.437
14.1416	0.467
14.1759	0.466
14.2102	0.462
14.2445	0.449
14.2789	0.452
14.3132	0.46
14.3475	0.479
14.3818	0.5
14.4162	0.52
14.4505	0.537
14.4848	0.553
14.5191	0.561
14.5535	0.57
14.5878	0.575
14.6221	0.577
14.6564	0.571
14.6908	0.577
14.7251	0.572
14.7594	0.56
14.7938	0.55
14.8281	0.536
14.8624	0.507
14.8967	0.506
14.9311	0.505
14.9654	0.504
