Infrared Spectrum: 1-Methylamino-1-methylthio-2-nitroethylene
Formula: C 4 H 8 N 2 O 2 S
CAS: 61832-41-5
State: gas
Origin: EPA-IR VAPOR PHASE LIBRARY
1/CM	ABSORBANCE
549.9	0.00595
559.547	0.00621
569.193	0.00696
578.84	0.00722
588.486	0.00659
598.133	0.00593
607.779	0.00552
617.426	0.00494
627.072	0.00544
636.719	0.00732
646.365	0.01053
656.012	0.01364
665.658	0.01742
675.305	0.01834
684.951	0.0165
694.598	0.01314
704.245	0.00939
713.891	0.00925
723.538	0.01061
733.184	0.00947
742.831	0.00791
752.477	0.01079
762.124	0.01609
771.77	0.01161
781.417	0.00781
791.063	0.00728
800.71	0.00975
810.356	0.01025
820.003	0.00664
829.649	0.00398
839.296	0.00314
848.943	0.00257
858.589	0.00262
868.236	0.0028
877.882	0.00356
887.529	0.0056
897.175	0.00829
906.822	0.00943
916.468	0.00802
926.115	0.00606
935.761	0.00572
945.408	0.00759
955.054	0.0099
964.701	0.01027
974.347	0.00915
983.994	0.00778
993.64	0.00657
1003.29	0.00653
1012.93	0.00901
1022.58	0.01527
1032.23	0.02199
1041.87	0.02243
1051.52	0.01715
1061.17	0.01314
1070.81	0.01307
1080.46	0.01528
1090.11	0.01678
1099.75	0.01504
1109.4	0.01222
1119.05	0.01157
1128.69	0.01394
1138.34	0.01869
1147.99	0.02306
1157.63	0.02096
1167.28	0.01596
1176.92	0.01399
1186.57	0.01401
1196.22	0.01559
1205.86	0.01932
1215.51	0.02277
1225.16	0.02367
1234.8	0.02714
1244.45	0.03747
1254.1	0.04963
1263.74	0.05576
1273.39	0.05142
1283.04	0.04291
1292.68	0.03635
1302.33	0.03307
1311.98	0.03151
1321.62	0.03145
1331.27	0.03286
1340.92	0.03881
1350.56	0.05333
1360.21	0.07049
1369.86	0.07862
1379.5	0.07982
1389.15	0.07931
1398.79	0.06877
1408.44	0.05157
1418.09	0.03967
1427.73	0.03653
1437.38	0.03574
1447.03	0.0314
1456.67	0.02502
1466.32	0.02014
1475.97	0.01847
1485.61	0.01895
1495.26	0.02462
1504.91	0.04369
1514.55	0.06553
1524.2	0.06246
1533.85	0.04072
1543.49	0.03865
1553.14	0.05697
1562.79	0.09362
1572.43	0.13911
1582.08	0.17039
1591.73	0.15992
1601.37	0.11753
1611.02	0.08069
1620.67	0.06479
1630.31	0.05764
1639.96	0.04491
1649.6	0.02842
1659.25	0.01455
1668.9	0.00929
1678.54	0.00705
1688.19	0.00556
1697.84	0.0044
1707.48	0.00332
1717.13	0.00286
1726.78	0.00241
1736.42	0.0022712
1746.07	0.00223
1755.72	0.0019362
1765.36	0.001633
1775.01	0.0014389
1784.66	0.001138
1794.3	0.001084
1803.95	0.00096
1813.6	0.000929
1823.24	0.000943
1832.89	0.000927
1842.54	0.000944
1852.18	0.000946
1861.83	0.000884
1871.47	0.000879
1881.12	0.000787
1890.77	0.000765
1900.41	0.000815
1910.06	0.000899
1919.71	0.000995
1929.35	0.00091
1939	0.000881
1948.65	0.000983
1958.29	0.000926
1967.94	0.000914
1977.59	0.000907
1987.23	0.001032
1996.88	0.001074
2006.53	0.001093
2016.17	0.000973
2025.82	0.001037
2035.47	0.000889
2045.11	0.000894
2054.76	0.000771
2064.41	0.000789
2074.05	0.000762
2083.7	0.000731
2093.35	0.000725
2102.99	0.000677
2112.64	0.000803
2122.28	0.000778
2131.93	0.000635
2141.58	0.000618
2151.22	0.00055
2160.87	0.000557
2170.52	0.000523
2180.16	0.000578
2189.81	0.000612
2199.46	0.000741
2209.1	0.000831
2218.75	0.001035
2228.4	0.001198
2238.04	0.0013038
2247.69	0.0014407
2257.34	0.0015686
2266.98	0.001669
2276.63	0.0018727
2286.28	0.0019692
2295.92	0.0017587
2305.57	0.0019265
2315.22	0.0018781
2324.86	0.0018192
2334.51	0.0016779
2344.16	0.0014972
2353.8	0.0014677
2363.45	0.0016252
2373.09	0.0014446
2382.74	0.001089
2392.39	0.001001
2402.03	0.000983
2411.68	0.000852
2421.33	0.00078
2430.97	0.000584
2440.62	0.000585
2450.27	0.000544
2459.91	0.000599
2469.56	0.000648
2479.21	0.000616
2488.85	0.000427
2498.5	0.00026
2508.15	0.00026
2517.79	0.00035
2527.44	0.000408
2537.09	0.000419
2546.73	0.000593
2556.38	0.000518
2566.03	0.000407
2575.67	0.00033
2585.32	0.00022
2594.96	0.00014
2604.61	0.00011
2614.26	0.00015
2623.9	0.0001
2633.55	0.00013
2643.2	0.00016
2652.84	0.00022
2662.49	0.0002
2672.14	0.00024
2681.78	0.000343
2691.43	0.000565
2701.08	0.000841
2710.72	0.001054
2720.37	0.0012864
2730.02	0.00133728
2739.66	0.0012847
2749.31	0.0015612
2758.96	0.0017423
2768.6	0.0022248
2778.25	0.00257
2787.9	0.00264
2797.54	0.00243
2807.19	0.0022212
2816.84	0.00277
2826.48	0.00323
2836.13	0.00448
2845.77	0.00603
2855.42	0.00764
2865.07	0.00906
2874.71	0.00968
2884.36	0.00993
2894.01	0.01085
2903.65	0.01288
2913.3	0.01477
2922.95	0.01741
2932.59	0.02378
2942.24	0.02645
2951.89	0.02179
2961.53	0.01493
2971.18	0.01129
2980.83	0.01023
2990.47	0.00992
3000.12	0.00975
3009.77	0.00893
3019.41	0.00698
3029.06	0.00522
3038.71	0.00409
3048.35	0.00309
3058	0.00245
3067.64	0.0017579
3077.29	0.0014717
3086.94	0.001213
3096.58	0.001028
3106.23	0.00104
3115.88	0.001015
3125.52	0.000934
3135.17	0.0015284
3144.82	0.0023192
3154.46	0.00271
3164.11	0.0023063
3173.76	0.0019365
3183.4	0.0019126
3193.05	0.0022825
3202.7	0.00247
3212.34	0.00298
3221.99	0.00364
3231.64	0.0038
3241.28	0.00409
3250.93	0.00432
3260.58	0.00429
3270.22	0.00417
3279.87	0.00348
3289.52	0.00299
3299.16	0.00277
3308.81	0.0021821
3318.45	0.0020304
3328.1	0.0014769
3337.75	0.001077
3347.39	0.001129
3357.04	0.000875
3366.69	0.000973
3376.33	0.000714
3385.98	0.000598
3395.63	0.000552
3405.27	0.000427
3414.92	0.000388
3424.57	0.00055
3434.21	0.000723
3443.86	0.000447
3453.51	0.000333
3463.15	0.00011
3472.8	0.000414
3482.45	0.000409
3492.09	0.00017
3501.74	0.000404
3511.39	0.00015
3521.03	0.000437
3530.68	0.000479
3540.33	0.00029
3549.97	0.00018
3559.62	0.00016
3569.26	0.0003
3578.91	0.00017
3588.56	0.000329
3598.2	0.000388
3607.85	0.00031
3617.5	0.00039
3627.14	0.000408
3636.79	0.00036
3646.44	0.0003
3656.08	0.000572
3665.73	0.00029
3675.38	0.0003
3685.02	0.00017
3694.67	0.000423
3704.32	0.000461
3713.96	0.00031
3723.61	0.000418
3733.26	0.000438
3742.9	0.000405
3752.55	0.00024
3762.2	0.00022
3771.84	0.000372
3781.49	0.000332
3791.13	0.00022
3800.78	0.000363
3810.43	0.000359
3820.07	0.00027
3829.72	0.00026
3839.37	0.00039
3849.01	0.0002
3858.66	0.00023
3868.31	0.000373
3877.95	0.00027
3887.6	0.00031
3897.25	0.00029
3906.89	0.000346
3916.54	0.00024
3926.19	0.00029
3935.83	0.000323
3945.48	0.000342
3955.13	0.000583
3964.77	0.000335
3974.42	0.000457
3984.07	0.000329
3993.71	0.000326
