Infrared Spectrum: 5-ETHYL-5-(4-HYDROXYPHENYL) HYDANTOIN
Formula: C11 H12 N2 O3
CAS: 61837-66-9
State: SOLID (MINERAL OIL MULL)
Class: COBLENTZ
Instrument: Not specified, most likely a prism, grating, or hybrid spectrometer.
Sampling: TRANSMISSION
Resolution: 4
Origin: DOW CHEMICAL COMPANY
MICROMETERS	TRANSMITTANCE
2.029	0.687
2.06811	0.69
2.10722	0.692
2.14632	0.695
2.18543	0.698
2.22454	0.7
2.26365	0.695
2.30275	0.69
2.34186	0.693
2.38097	0.698
2.42008	0.706
2.45918	0.711
2.49829	0.721
2.5374	0.724
2.57651	0.722
2.61561	0.724
2.65472	0.734
2.69383	0.729
2.73294	0.734
2.77204	0.717
2.81115	0.705
2.85026	0.695
2.88937	0.67
2.92847	0.641
2.96758	0.594
3.00669	0.491
3.0458	0.32
3.0849	0.319
3.12401	0.364
3.16312	0.345
3.20223	0.366
3.24133	0.403
3.28044	0.411
3.31955	0.453
3.35866	0.356
3.39776	0.082
3.43687	0.102
3.47598	0.188
3.51509	0.303
3.55419	0.562
3.5933	0.611
3.63241	0.641
3.67152	0.664
3.71062	0.682
3.74973	0.7
3.78884	0.716
3.82795	0.724
3.86705	0.745
3.90616	0.755
3.94527	0.761
3.98438	0.761
4.02348	0.774
4.06259	0.776
4.1017	0.782
4.14081	0.792
4.17991	0.795
4.21902	0.786
4.25813	0.797
4.29724	0.808
4.33634	0.815
4.37545	0.816
4.41456	0.816
4.45367	0.82
4.49277	0.815
4.53188	0.823
4.57099	0.818
4.6101	0.818
4.6492	0.824
4.68831	0.821
4.72742	0.824
4.76653	0.823
4.80563	0.816
4.84474	0.813
4.88385	0.818
4.92296	0.826
4.96206	0.829
5.00117	0.834
5.04028	0.837
5.07939	0.839
5.11849	0.837
5.1576	0.841
5.19671	0.837
5.23582	0.831
5.27492	0.82
5.31403	0.836
5.35314	0.831
5.39225	0.836
5.43135	0.823
5.47046	0.823
5.50957	0.82
5.54868	0.79
5.58778	0.73
5.62689	0.635
5.666	0.423
5.70511	0.226
5.74421	0.186
5.78332	0.051
5.82243	0.142
5.86154	0.358
5.90065	0.604
5.93975	0.683
5.97886	0.742
6.01797	0.75
6.05708	0.76
6.09618	0.774
6.13529	0.742
6.1744	0.651
6.21351	0.682
6.25261	0.666
6.29172	0.752
6.33083	0.769
6.36994	0.784
6.40904	0.792
6.44815	0.795
6.48726	0.792
6.52637	0.747
6.56547	0.575
6.60458	0.492
6.64369	0.722
6.6828	0.735
6.7219	0.706
6.76101	0.565
6.80012	0.408
6.83923	0.372
6.87833	0.421
6.91744	0.447
6.95655	0.479
6.99566	0.482
7.03476	0.526
7.07387	0.589
7.11298	0.651
7.15209	0.68
7.19119	0.63
7.2303	0.547
7.26941	0.604
7.30852	0.667
7.34762	0.721
7.38673	0.726
7.42584	0.735
7.46495	0.734
7.50405	0.719
7.54316	0.735
7.58227	0.69
7.62138	0.658
7.66048	0.698
7.69959	0.661
7.7387	0.672
7.77781	0.726
7.81691	0.696
7.85602	0.651
7.89513	0.602
7.93424	0.564
7.97334	0.502
8.01245	0.447
8.05156	0.447
8.09067	0.56
8.12977	0.653
8.16888	0.675
8.20799	0.636
8.2471	0.635
8.2862	0.721
8.32531	0.755
8.36442	0.677
8.40353	0.576
8.44263	0.742
8.48174	0.782
8.52085	0.829
8.55996	0.828
8.59906	0.834
8.63817	0.833
8.67728	0.824
8.71639	0.824
8.75549	0.836
8.7946	0.846
8.83371	0.852
8.87282	0.85
8.91192	0.844
8.95103	0.834
8.99014	0.829
9.02925	0.858
9.06835	0.854
9.10746	0.85
9.14657	0.847
9.18568	0.829
9.22478	0.777
9.26389	0.745
9.303	0.8
9.34211	0.834
9.38121	0.857
9.42032	0.868
9.45943	0.865
9.49854	0.86
9.53764	0.847
9.57675	0.795
9.61586	0.771
9.65497	0.821
9.69408	0.842
9.73318	0.826
9.77229	0.769
9.8114	0.755
9.85051	0.829
9.88961	0.88
9.92872	0.899
9.96783	0.912
10.0069	0.93
10.046	0.931
10.0852	0.94
10.1243	0.943
10.1634	0.938
10.2025	0.935
10.2416	0.918
10.2807	0.905
10.3198	0.93
10.3589	0.923
10.398	0.935
10.4371	0.94
10.4762	0.948
10.5153	0.948
10.5544	0.944
10.5935	0.936
10.6327	0.92
10.6718	0.907
10.7109	0.909
10.75	0.901
10.7891	0.888
10.8282	0.881
10.8673	0.886
10.9064	0.897
10.9455	0.905
10.9846	0.91
11.0237	0.914
11.0628	0.909
11.1019	0.902
11.1411	0.899
11.1802	0.899
11.2193	0.896
11.2584	0.891
11.2975	0.891
11.3366	0.888
11.3757	0.888
11.4148	0.883
11.4539	0.881
11.493	0.873
11.5321	0.868
11.5712	0.86
11.6103	0.855
11.6495	0.85
11.6886	0.839
11.7277	0.821
11.7668	0.797
11.8059	0.76
11.845	0.7
11.8841	0.617
11.9232	0.526
11.9623	0.478
12.0014	0.47
12.0405	0.542
12.0796	0.636
12.1187	0.696
12.1578	0.716
12.197	0.721
12.2361	0.721
12.2752	0.716
12.3143	0.7
12.3534	0.669
12.3925	0.625
12.4316	0.568
12.4707	0.562
12.5098	0.615
12.5489	0.667
12.588	0.692
12.6271	0.706
12.6662	0.713
12.7054	0.716
12.7445	0.721
12.7836	0.724
12.8227	0.727
12.8618	0.724
12.9009	0.711
12.94	0.693
12.9791	0.662
13.0182	0.646
13.0573	0.661
13.0964	0.68
13.1355	0.683
13.1746	0.675
13.2138	0.659
13.2529	0.659
13.292	0.683
13.3311	0.703
13.3702	0.721
13.4093	0.726
13.4484	0.73
13.4875	0.726
13.5266	0.721
13.5657	0.717
13.6048	0.711
13.6439	0.693
13.683	0.667
13.7222	0.64
13.7613	0.63
13.8004	0.646
13.8395	0.661
13.8786	0.672
13.9177	0.682
13.9568	0.685
13.9959	0.687
14.035	0.682
14.0741	0.679
14.1132	0.679
14.1523	0.682
14.1914	0.687
14.2305	0.69
14.2697	0.69
14.3088	0.69
14.3479	0.688
14.387	0.688
14.4261	0.683
14.4652	0.68
14.5043	0.677
14.5434	0.677
14.5825	0.672
14.6216	0.667
14.6607	0.662
14.6998	0.654
14.7389	0.646
14.7781	0.633
14.8172	0.617
14.8563	0.601
14.8954	0.581
14.9345	0.572
14.9736	0.594
15.0127	0.615
15.0518	0.591
15.0909	0.559
15.13	0.534
15.1691	0.515
15.2082	0.499
15.2473	0.479
15.2865	0.47
15.3256	0.47
15.3647	0.474
15.4038	0.481
15.4429	0.486
15.482	0.491
15.5211	0.491
15.5602	0.489
15.5993	0.486
15.6384	0.484
15.6775	0.487
15.7166	0.492
15.7557	0.492
15.7948	0.495
15.834	0.495
15.8731	0.497
