Infrared Spectrum: 2-Ethyl-4-methyl-1-pentene
Formula: C 8 H 16
CAS: 61847-80-1
State: gas
Instrument: HP-GC/MS/IRD
Origin: NIST Mass Spectrometry Data Center
1/CM	ABSORBANCE
550	0.0004368
562	0.0001608
574	0.000216
586	0.0001944
598	0.0001992
610	0.000168
622	0.0001896
634	0.0002184
646	6.24e-05
658	2.88e-05
670	4.08e-05
682	0.0001128
694	9.84e-05
706	0.0001104
718	3.84e-05
730	4.8e-06
742	0.0001272
754	0.0001224
766	0.0001824
778	0.0002736
790	0.0004128
802	0.0003744
814	0.0003768
826	0.0004464
838	0.0003408
850	0.0003696
862	0.0006456
874	0.0019536
886	0.0047016
898	0.0055248
910	0.0026112
922	0.0008832
934	0.0004368
946	0.0002736
958	0.0002592
970	0.0002592
982	0.0002592
994	0.0002976
1006	0.0003576
1018	0.0003
1030	0.0002688
1042	0.0003336
1054	0.0004776
1066	0.000492
1078	0.0004008
1090	0.0004176
1102	0.0004632
1114	0.0004968
1126	0.0003432
1138	0.000312
1150	0.000528
1162	0.0008736
1174	0.0007752
1186	0.0003552
1198	0.0004128
1210	0.0004488
1222	0.0004392
1234	0.000396
1246	0.000456
1258	0.0004752
1270	0.0004728
1282	0.000516
1294	0.0004776
1306	0.0004488
1318	0.0004896
1330	0.0007416
1342	0.0009528
1354	0.0012144
1366	0.001956
1378	0.0025368
1390	0.0022032
1402	0.0013248
1414	0.0011904
1426	0.001584
1438	0.002232
1450	0.0031248
1462	0.0036936
1474	0.0029952
1486	0.0015336
1498	0.0007416
1510	0.0004392
1522	0.0003456
1534	0.0002736
1546	0.0002352
1558	0.000216
1570	0.0002328
1582	0.0002688
1594	0.0003144
1606	0.0004392
1618	0.0008664
1630	0.0018936
1642	0.0025752
1654	0.0018216
1666	0.000672
1678	0.0002856
1690	0.000204
1702	0.0001848
1714	0.0001248
1726	9.6e-05
1738	0.0001008
1750	9.6e-05
1762	0.0001104
1774	0.0002136
1786	0.0003768
1798	0.0004032
1810	0.0002376
1822	0.0001008
1834	8.16e-05
1846	4.32e-05
1858	5.28e-05
1870	4.32e-05
1882	8.4e-05
1894	3.6e-05
1906	4.32e-05
1918	3.84e-05
1930	1.68e-05
1942	3.36e-05
1954	2.64e-05
1966	1.92e-05
1978	9.6e-06
1990	1.68e-05
2002	1.68e-05
2014	1.92e-05
2026	3.12e-05
2038	2.4e-05
2050	3.36e-05
2062	1.92e-05
2074	3.84e-05
2086	4.08e-05
2098	2.16e-05
2110	2.4e-05
2122	2.64e-05
2134	2.64e-05
2146	1.44e-05
2158	2.4e-05
2170	2.4e-05
2182	3.12e-05
2194	2.64e-05
2206	1.68e-05
2218	3.12e-05
2230	7.2e-06
2242	3.12e-05
2254	3.84e-05
2266	4.08e-05
2278	2.64e-05
2290	6e-05
2302	6e-05
2314	4.08e-05
2326	2.64e-05
2338	5.76e-05
2350	6e-05
2362	6e-05
2374	7.68e-05
2386	6.96e-05
2398	5.04e-05
2410	6.48e-05
2422	6.96e-05
2434	0.0001056
2446	5.76e-05
2458	7.92e-05
2470	6.72e-05
2482	7.44e-05
2494	7.44e-05
2506	9.12e-05
2518	9.36e-05
2530	0.0001032
2542	9.84e-05
2554	0.0001176
2566	0.0001416
2578	0.0001608
2590	0.0001632
2602	0.0001752
2614	0.0001776
2626	0.0002064
2638	0.0002136
2650	0.0002136
2662	0.0002376
2674	0.0002328
2686	0.00024
2698	0.0002688
2710	0.0003504
2722	0.0004536
2734	0.0005376
2746	0.0005352
2758	0.00054
2770	0.0005688
2782	0.0006384
2794	0.0007848
2806	0.0009696
2818	0.001356
2830	0.002028
2842	0.0030168
2854	0.0041088
2866	0.0060456
2878	0.008892
2890	0.0102072
2902	0.0111744
2914	0.0130488
2926	0.014304
2938	0.0149208
2950	0.0173232
2962	0.0231408
2974	0.0212064
2986	0.0111168
2998	0.0049536
3010	0.0027216
3022	0.0017952
3034	0.0013464
3046	0.001212
3058	0.0015408
3070	0.0027288
3082	0.0034392
3094	0.0022272
3106	0.0009432
3118	0.0005688
3130	0.0004728
3142	0.0004248
3154	0.0003936
3166	0.000408
3178	0.0004248
3190	0.0004152
3202	0.000336
3214	0.0003
3226	0.0002304
3238	0.000168
3250	0.0001608
3262	0.000168
3274	0.0001344
3286	0.000132
3298	0.0001272
3310	0.0001008
3322	0.0001032
3334	8.64e-05
3346	9.6e-05
3358	0.0001056
3370	8.16e-05
3382	0.0001104
3394	6.96e-05
3406	8.4e-05
3418	6.96e-05
3430	6e-05
3442	3.6e-05
3454	7.68e-05
3466	9.36e-05
3478	6.72e-05
3490	6.96e-05
3502	5.76e-05
3514	6e-05
3526	3.12e-05
3538	3.12e-05
3550	5.76e-05
3562	4.8e-05
3574	3.36e-05
3586	4.32e-05
3598	2.64e-05
3610	1.2e-05
3622	7.68e-05
3634	6.24e-05
3646	6.96e-05
3658	5.76e-05
3670	4.32e-05
3682	2.64e-05
3694	2.64e-05
3706	4.8e-05
3718	6e-05
3730	8.16e-05
3742	2.4e-06
3754	5.76e-05
3766	7.2e-05
3778	0.0001104
3790	6.24e-05
3802	6.48e-05
3814	8.4e-05
3826	8.16e-05
3838	5.04e-05
