Infrared Spectrum: HYDANTOIN, 1-ETHYL-
Formula: C5 H8 N2 O2
CAS: 61893-09-2
State: SOLID (KBr DISC)
Class: COBLENTZ
Instrument: PERKIN-ELMER 21 (GRATING)
Instrument parameters: FILTER AT ABOUT 10 MICRONS
Sampling: TRANSMISSION
Resolution: 2
1/CM	TRANSMITTANCE
4000	0.7365
3991	0.7368
3982	0.7374
3973	0.7378
3964	0.7384
3955	0.7389
3946	0.7394
3937	0.7399
3928	0.7403
3919	0.7407
3910	0.7411
3901	0.7415
3892	0.7419
3883	0.7424
3874	0.7426
3865	0.7431
3856	0.7434
3847	0.7437
3838	0.744
3829	0.7443
3820	0.7446
3811	0.7449
3802	0.7451
3793	0.7453
3784	0.7453
3775	0.7454
3766	0.7454
3757	0.7455
3748	0.7453
3739	0.7451
3730	0.745
3721	0.7449
3712	0.7447
3703	0.7445
3694	0.7441
3685	0.7436
3676	0.7431
3667	0.7425
3658	0.7421
3649	0.7415
3640	0.7403
3631	0.739
3622	0.7378
3613	0.7364
3604	0.7343
3595	0.7321
3586	0.73
3577	0.7265
3568	0.7222
3559	0.7176
3550	0.7126
3541	0.7075
3532	0.7025
3523	0.6968
3514	0.6908
3505	0.6858
3496	0.6811
3487	0.6761
3478	0.671
3469	0.6658
3460	0.6608
3451	0.6561
3442	0.6521
3433	0.6496
3424	0.649
3415	0.6494
3406	0.6507
3397	0.6515
3388	0.6524
3379	0.6524
3370	0.6517
3361	0.6501
3352	0.6475
3343	0.6439
3334	0.6378
3325	0.6305
3316	0.623
3307	0.6151
3298	0.6071
3289	0.5989
3280	0.5903
3271	0.5803
3262	0.5681
3253	0.5358
3244	0.5131
3235	0.5001
3226	0.4866
3217	0.4781
3208	0.4728
3199	0.4684
3190	0.4658
3181	0.4653
3172	0.4662
3163	0.4702
3154	0.4774
3145	0.4851
3136	0.4921
3127	0.4955
3118	0.4956
3109	0.4878
3100	0.4735
3091	0.4639
3082	0.4508
3073	0.4431
3064	0.4423
3055	0.4451
3046	0.4544
3037	0.4669
3028	0.4768
3019	0.4884
3010	0.491
3001	0.4944
2992	0.5055
2983	0.5146
2974	0.5173
2965	0.5192
2956	0.5257
2947	0.5376
2938	0.5521
2929	0.5666
2920	0.5767
2911	0.5844
2902	0.5914
2893	0.5971
2884	0.6024
2875	0.6072
2866	0.6124
2857	0.617
2848	0.6207
2839	0.6239
2830	0.6272
2821	0.6309
2812	0.6336
2803	0.6312
2794	0.6196
2785	0.6077
2776	0.6039
2767	0.6067
2758	0.6228
2749	0.6384
2740	0.6557
2731	0.6685
2722	0.6819
2713	0.695
2704	0.7128
2695	0.7254
2686	0.7333
2677	0.7396
2668	0.7451
2659	0.7506
2650	0.756
2641	0.7611
2632	0.7658
2623	0.7699
2614	0.7747
2605	0.7795
2596	0.7825
2587	0.7828
2578	0.7832
2569	0.7843
2560	0.7876
2551	0.7904
2542	0.7911
2533	0.7937
2524	0.7981
2515	0.8005
2506	0.8005
2497	0.7987
2488	0.7957
2479	0.7932
2470	0.7912
2461	0.7917
2452	0.7976
2443	0.8033
2434	0.808
2425	0.8088
2416	0.8096
2407	0.81
2398	0.8087
2389	0.8058
2380	0.8035
2371	0.8032
2362	0.8032
2353	0.8035
2344	0.8037
2335	0.8037
2326	0.8049
2317	0.8068
2308	0.7988
2299	0.8003
2290	0.8048
2281	0.8098
2272	0.8128
2263	0.8125
2254	0.8111
2245	0.8075
2236	0.8017
2227	0.7996
2218	0.7996
2209	0.8001
2200	0.8011
2191	0.8022
2182	0.8026
2173	0.8025
2164	0.8018
2155	0.8001
2146	0.7983
2137	0.7949
2128	0.7935
2119	0.7922
2110	0.7911
2101	0.7883
2092	0.7836
2083	0.7767
2074	0.7692
2065	0.7607
2056	0.7558
2047	0.7557
2038	0.7548
2029	0.753
2020	0.7499
2011	0.746
2002	0.7411
1993	0.7317
1984	0.7301
1975	0.7264
1966	0.7181
1957	0.7095
1948	0.7008
1939	0.6924
1930	0.6849
1921	0.6778
1912	0.6706
1903	0.6615
1894	0.6497
1885	0.6411
1876	0.6315
1867	0.6146
1858	0.5958
1849	0.577
1840	0.5534
1831	0.5225
1822	0.4916
1813	0.4536
1804	0.4129
1795	0.3736
1786	0.3025
1777	0.3159
1768	0.367
1759	0.3127
1750	0.2402
1741	0.1873
1732	0.1856
1723	0.1979
1714	0.2306
1705	0.3032
1696	0.3591
1687	0.413
1678	0.4598
1669	0.4884
1660	0.5081
1651	0.5276
1642	0.5492
1633	0.569
1624	0.587
1615	0.6001
1606	0.6104
1597	0.6198
1588	0.6264
1579	0.6312
1570	0.6306
1561	0.6331
1552	0.6414
1543	0.6324
1534	0.624
1525	0.6034
1516	0.5891
1507	0.5608
1498	0.4449
1489	0.2879
1480	0.3164
1471	0.435
1462	0.5249
1453	0.4215
1444	0.5038
1435	0.4656
1426	0.4364
1417	0.5597
1408	0.6336
1399	0.6415
1390	0.5929
1381	0.5892
1372	0.6422
1363	0.5231
1354	0.3858
1345	0.5102
1336	0.5081
1327	0.4852
1318	0.5177
1309	0.6021
1300	0.6571
1291	0.6908
1282	0.7097
1273	0.7168
1264	0.7143
1255	0.6655
1246	0.5208
1237	0.3808
1228	0.4396
1219	0.5139
1210	0.6428
1201	0.6786
1192	0.6049
1183	0.7022
1174	0.7365
1165	0.7365
1156	0.5981
1147	0.3866
1138	0.4871
1129	0.6084
1120	0.669
1111	0.6932
1102	0.7118
1093	0.7074
1084	0.5495
1075	0.6608
1066	0.5407
1057	0.5939
1048	0.6865
1039	0.7182
1030	0.7334
1021	0.7439
1012	0.7558
1003	0.7611
994	0.7608
985	0.7701
976	0.7606
967	0.6288
958	0.7501
949	0.7745
940	0.7865
931	0.7882
922	0.7864
913	0.7643
904	0.6686
895	0.6294
886	0.7369
877	0.7596
868	0.761
859	0.7598
850	0.7417
841	0.7193
832	0.6312
823	0.4462
814	0.5721
805	0.5506
796	0.4579
787	0.5573
778	0.6142
769	0.6732
760	0.3559
751	0.5674
742	0.639
733	0.6818
724	0.7106
715	0.7361
706	0.7289
697	0.4876
688	0.5904
679	0.6688
670	0.6995
661	0.7047
