Infrared Spectrum: p-Toluamide
Formula: C 8 H 9 N O
CAS: 619-55-6
State: gas
Origin: EPA-IR VAPOR PHASE LIBRARY
1/CM	ABSORBANCE
549.8	0.0009298
559.445	0.000969
569.09	0.00236
578.734	0.00309
588.379	0.00206
598.024	0.00152
607.669	0.0015
617.313	0.00155
626.958	0.00163
636.603	0.00152
646.248	0.0013314
655.893	0.00176
665.537	0.00187
675.182	0.00222
684.827	0.00281
694.472	0.00305
704.116	0.00287
713.761	0.00228
723.406	0.00251
733.051	0.00436
742.695	0.00608
752.34	0.00582
761.985	0.00433
771.63	0.00283
781.275	0.00213
790.919	0.0024
800.564	0.00256
810.209	0.00276
819.854	0.00333
829.498	0.00339
839.143	0.00332
848.788	0.0026
858.433	0.00219
868.078	0.00172
877.722	0.00149
887.367	0.00168
897.012	0.00138
906.657	0.001352
916.301	0.0011455
925.946	0.00138
935.591	0.0013373
945.236	0.0013616
954.88	0.0012365
964.525	0.0013057
974.17	0.0012956
983.815	0.00139
993.46	0.00139
1003.1	0.0011876
1012.75	0.00201
1022.39	0.00199
1032.04	0.00144
1041.68	0.0014
1051.33	0.00173
1060.97	0.00251
1070.62	0.00277
1080.26	0.00246
1089.91	0.0009731
1099.55	0.0011324
1109.2	0.0011549
1118.84	0.0011414
1128.49	0.00192
1138.13	0.0010544
1147.78	0.0007885
1157.42	0.0009703
1167.07	0.00142
1176.71	0.00175
1186.36	0.00249
1196	0.0022
1205.64	0.00156
1215.29	0.00187
1224.93	0.00194
1234.58	0.0017
1244.22	0.00163
1253.87	0.00169
1263.51	0.00232
1273.16	0.00241
1282.8	0.00249
1292.45	0.00264
1302.09	0.00288
1311.74	0.00383
1321.38	0.00663
1331.03	0.01569
1340.67	0.02592
1350.32	0.02153
1359.96	0.00819
1369.61	0.00425
1379.25	0.00309
1388.9	0.00257
1398.54	0.00245
1408.18	0.00242
1417.83	0.00199
1427.47	0.00146
1437.12	0.001283
1446.76	0.0011409
1456.41	0.0012579
1466.05	0.0012775
1475.7	0.0012287
1485.34	0.0012509
1494.99	0.00139
1504.63	0.00178
1514.28	0.0019
1523.92	0.0016
1533.57	0.00157
1543.21	0.00197
1552.86	0.00264
1562.5	0.00449
1572.15	0.00798
1581.79	0.0129
1591.44	0.01351
1601.08	0.0095
1610.73	0.00726
1620.37	0.0056
1630.01	0.00326
1639.66	0.00244
1649.3	0.0023
1658.95	0.00237
1668.59	0.00323
1678.24	0.00435
1687.88	0.00591
1697.53	0.01035
1707.17	0.02233
1716.82	0.03335
1726.46	0.03115
1736.11	0.01204
1745.75	0.00537
1755.4	0.004
1765.04	0.00295
1774.69	0.00192
1784.33	0.0011954
1793.98	0.0010371
1803.62	0.0009313
1813.27	0.000856
1822.91	0.0006937
1832.55	0.0006262
1842.2	0.0006122
1851.84	0.0006284
1861.49	0.0006185
1871.13	0.0005969
1880.78	0.0005858
1890.42	0.0006289
1900.07	0.0006896
1909.71	0.0007387
1919.36	0.0006589
1929	0.0005939
1938.65	0.000592
1948.29	0.0005683
1957.94	0.0005166
1967.58	0.0005045
1977.23	0.0005279
1986.87	0.0003597
1996.52	0.0005192
2006.16	0.000371432
2015.81	0.0004821
2025.45	0.00046512
2035.1	0.0005132
2044.74	0.00044694
2054.38	0.0004712
2064.03	0.0005708
2073.67	0.00046704
2083.32	0.0004286
2092.96	0.00042751
2102.61	0.00041241
2112.25	0.0004217
2121.9	0.00046454
2131.54	0.0003558
2141.19	0.000372042
2150.83	0.00044893
2160.48	0.000376905
2170.12	0.00042161
2179.77	0.0003436
2189.41	0.00041519
2199.06	0.00038116
2208.7	0.00042589
2218.35	0.000397
2227.99	0.00040053
2237.64	0.0002917
2247.28	0.0004859
2256.92	0.00039172
2266.57	0.0003502
2276.21	0.0004802
2285.86	0.00045305
2295.5	0.000376087
2305.15	0.00043021
2314.79	0.00042082
2324.44	0.00045454
2334.08	0.0003486
2343.73	0.00036567
2353.37	0.00041554
2363.02	0.0004735
2372.66	0.0003509
2382.31	0.00040019
2391.95	0.0003334
2401.6	0.00045106
2411.24	0.00043922
2420.89	0.00043958
2430.53	0.00042733
2440.18	0.000376563
2449.82	0.0004198
2459.47	0.00045916
2469.11	0.000375145
2478.75	0.00042323
2488.4	0.00040534
2498.04	0.00041208
2507.69	0.000377246
2517.33	0.0003113
2526.98	0.0004689
2536.62	0.00042049
2546.27	0.00042357
2555.91	0.0003097
2565.56	0.00045391
2575.2	0.00039525
2584.85	0.0005317
2594.49	0.0005136
2604.14	0.00045191
2613.78	0.00036318
2623.43	0.000369767
2633.07	0.00039202
2642.72	0.00045865
2652.36	0.00040675
2662.01	0.00038798
2671.65	0.00045929
2681.29	0.0005262
2690.94	0.0003555
2700.58	0.00036252
2710.23	0.00042457
2719.87	0.00045495
2729.52	0.0004979
2739.16	0.00038813
2748.81	0.0005599
2758.45	0.00039554
2768.1	0.000548
2777.74	0.0004974
2787.39	0.0005228
2797.03	0.00038231
2806.68	0.00045034
2816.32	0.0003279
2825.97	0.00042884
2835.61	0.0005774
2845.26	0.0005844
2854.9	0.0009585
2864.55	0.0011213
2874.19	0.00151
2883.84	0.00163
2893.48	0.0015
2903.12	0.00151
2912.77	0.00178
2922.41	0.00227
2932.06	0.00314
2941.7	0.00285
2951.35	0.00188
2960.99	0.001333
2970.64	0.0012926
2980.28	0.00138
2989.93	0.00145
2999.57	0.00165
3009.22	0.002
3018.86	0.00253
3028.51	0.00352
3038.15	0.00359
3047.8	0.00294
3057.44	0.00239
3067.09	0.00208
3076.73	0.00169
3086.38	0.00147
3096.02	0.0011933
3105.67	0.0011207
3115.31	0.0007398
3124.95	0.0006659
3134.6	0.0006994
3144.24	0.0005233
3153.89	0.000379603
3163.53	0.0003106
3173.18	0.00038948
3182.82	0.00042507
3192.47	0.00039354
3202.11	0.0005684
3211.76	0.000378865
3221.4	0.000262
3231.05	0.000484
3240.69	0.00041227
3250.34	0.00045926
3259.98	0.00044949
3269.63	0.00044752
3279.27	0.00039934
3288.92	0.0003339
3298.56	0.000678
3308.21	0.00036111
3317.85	0.0003402
3327.49	0.00044941
3337.14	0.0005093
3346.78	0.000547
3356.43	0.0004781
3366.07	0.00043208
3375.72	0.0006359
3385.36	0.0006835
3395.01	0.0008859
3404.65	0.00144
3414.3	0.00216
3423.94	0.0032
3433.59	0.00366
3443.23	0.00282
3452.88	0.00145
3462.52	0.0010484
3472.17	0.0007379
3481.81	0.0006002
3491.46	0.0006713
3501.1	0.0006576
3510.75	0.0010925
3520.39	0.00139
3530.04	0.00204
3539.68	0.00252
3549.32	0.00301
3558.97	0.00255
3568.61	0.00144
3578.26	0.0007328
3587.9	0.000594
3597.55	0.000373303
3607.19	0.0004868
3616.84	0.000307
3626.48	0.0003503
3636.13	0.000252
3645.77	0.00044119
3655.42	0.0002908
3665.06	0.00038079
3674.71	0.0005077
3684.35	0.0002946
3694	0.0002837
3703.64	0.0004891
3713.29	0.00038301
3722.93	0.0003052
3732.58	0.000266
3742.22	0.0003569
3751.86	0.0003159
3761.51	0.00038467
3771.15	0.00038799
3780.8	0.0003879
3790.44	0.0005078
3800.09	0.00042463
3809.73	0.0006081
3819.38	0.0005236
3829.02	0.0003387
3838.67	0.00044219
3848.31	0.000212
3857.96	0.000369709
3867.6	0.00040434
3877.25	0.0002911
3886.89	0.0005494
3896.54	0.000313
3906.18	0.0002937
3915.83	0.000253
3925.47	0.0003271
3935.12	0.00038316
3944.76	0.00024
3954.41	0.00042542
3964.05	0
3973.69	0.000269
3983.34	0.000214
3992.98	0.000138
