Infrared Spectrum: p-Nitrocinnamic acid
Formula: C 9 H 7 N O 4
CAS: 619-89-6
State: gas
Origin: EPA-IR VAPOR PHASE LIBRARY
1/CM	ABSORBANCE
549.8	0.002507
559.445	0.003027
569.09	0.002857
578.734	0.002567
588.379	0.002067
598.024	0.002317
607.669	0.004077
617.313	0.001517
626.958	0.0009467
636.603	0.0008044
646.248	0.0007836
655.893	0.0007264
665.537	0.0014985
675.182	0.002957
684.827	0.002627
694.472	0.0010582
704.116	0.0008075
713.761	0.0007968
723.406	0.0007796
733.051	0.0006394
742.695	0.0009067
752.34	0.001617
761.985	0.0014575
771.63	0.000952
781.275	0.0007606
790.919	0.0007474
800.564	0.0010174
810.209	0.0012807
819.854	0.002027
829.498	0.003167
839.143	0.002977
848.788	0.003107
858.433	0.003467
868.078	0.002147
877.722	0.0009968
887.367	0.0008468
897.012	0.0010343
906.657	0.0010292
916.301	0.0008784
925.946	0.0009621
935.591	0.0009127
945.236	0.0011189
954.88	0.001265
964.525	0.0012478
974.17	0.002147
983.815	0.002037
993.46	0.0011489
1003.1	0.0011661
1012.75	0.0011453
1022.39	0.0009122
1032.04	0.00059122
1041.68	0.000117
1051.33	0.0001
1060.97	0.00054977
1070.62	0.0008877
1080.26	0.0012412
1089.91	0.002347
1099.55	0.003947
1109.2	0.007827
1118.84	0.015017
1128.49	0.010247
1138.13	0.005427
1147.78	0.006017
1157.42	0.007147
1167.07	0.003377
1176.71	0.0013875
1186.36	0.0009168
1196	0.0013692
1205.64	0.001098
1215.29	0.0008815
1224.93	0.0008686
1234.58	0.0013071
1244.22	0.0014965
1253.87	0.001877
1263.51	0.002607
1273.16	0.002747
1282.8	0.002887
1292.45	0.003027
1302.09	0.002767
1311.74	0.002857
1321.38	0.003297
1331.03	0.004927
1340.67	0.010227
1350.32	0.014807
1359.96	0.011027
1369.61	0.005357
1379.25	0.002437
1388.9	0.001567
1398.54	0.0013995
1408.18	0.001707
1417.83	0.001577
1427.47	0.0011803
1437.12	0.0009795
1446.76	0.0008719
1456.41	0.0008008
1466.05	0.000839
1475.7	0.000981
1485.34	0.0014653
1494.99	0.002367
1504.63	0.001837
1514.28	0.002467
1523.92	0.004667
1533.57	0.007857
1543.21	0.008157
1552.86	0.004867
1562.5	0.002537
1572.15	0.001987
1581.79	0.002367
1591.44	0.003687
1601.08	0.004057
1610.73	0.002777
1620.37	0.001777
1630.01	0.002017
1639.66	0.003407
1649.3	0.003467
1658.95	0.001677
1668.59	0.0011279
1678.24	0.0010533
1687.88	0.0010663
1697.53	0.0011599
1707.17	0.0014406
1716.82	0.001887
1726.46	0.002497
1736.11	0.003887
1745.75	0.008417
1755.4	0.015327
1765.04	0.013727
1774.69	0.006617
1784.33	0.003767
1793.98	0.002747
1803.62	0.001957
1813.27	0.0013558
1822.91	0.0011177
1832.55	0.0009546
1842.2	0.0008476
1851.84	0.0007177
1861.49	0.0006892
1871.13	0.0006539
1880.78	0.0007151
1890.42	0.0007192
1900.07	0.0006939
1909.71	0.0007221
1919.36	0.0006524
1929	0.0007259
1938.65	0.0006676
1948.29	0.0006192
1957.94	0.0006687
1967.58	0.0006755
1977.23	0.00055922
1986.87	0.00053247
1996.52	0.00055054
2006.16	0.0006255
2015.81	0.00061229
2025.45	0.00057897
2035.1	0.00057039
2044.74	0.0006377
2054.38	0.0006274
2064.03	0.00056832
2073.67	0.0005554
2083.32	0.00057582
2092.96	0.00055478
2102.61	0.00056199
2112.25	0.00053772
2121.9	0.00060415
2131.54	0.0005392
2141.19	0.00056292
2150.83	0.00052772
2160.48	0.00053687
2170.12	0.000520406
2179.77	0.00055166
2189.41	0.00060379
2199.06	0.00059823
2208.7	0.00059965
2218.35	0.00053007
2227.99	0.0006605
2237.64	0.0006646
2247.28	0.00056476
2256.92	0.00061473
2266.57	0.00059419
2276.21	0.00060061
2285.86	0.00059723
2295.5	0.00058722
2305.15	0.00058459
2314.79	0.0006234
2324.44	0.00055884
2334.08	0.00053805
2343.73	0.0006428
2353.37	0.0006361
2363.02	0.0006317
2372.66	0.00057683
2382.31	0.00056049
2391.95	0.00060093
2401.6	0.0006581
2411.24	0.00057626
2420.89	0.0006341
2430.53	0.0006296
2440.18	0.0006453
2449.82	0.0006498
2459.47	0.0006242
2469.11	0.00060841
2478.75	0.0006293
2488.4	0.00058034
2498.04	0.0007167
2507.69	0.0005895
2517.33	0.0006404
2526.98	0.00053182
2536.62	0.00054514
2546.27	0.00060647
2555.91	0.0006537
2565.56	0.00056762
2575.2	0.0006242
2584.85	0.0006253
2594.49	0.0006369
2604.14	0.0006458
2613.78	0.0004914
2623.43	0.00056107
2633.07	0.0006214
2642.72	0.000626
2652.36	0.000722
2662.01	0.0005057
2671.65	0.0006416
2681.29	0.0006194
2690.94	0.0006844
2700.58	0.00057415
2710.23	0.0007659
2719.87	0.0006344
2729.52	0.0006906
2739.16	0.0006735
2748.81	0.0006602
2758.45	0.00054398
2768.1	0.0006622
2777.74	0.0006961
2787.39	0.0007215
2797.03	0.0006402
2806.68	0.00051321
2816.32	0.00057002
2825.97	0.0007274
2835.61	0.0007223
2845.26	0.000725
2854.9	0.0007381
2864.55	0.0006913
2874.19	0.0006755
2883.84	0.0008602
2893.48	0.00061567
2903.12	0.0007456
2912.77	0.0007294
2922.41	0.00055954
2932.06	0.0007648
2941.7	0.0007928
2951.35	0.0006223
2960.99	0.0007312
2970.64	0.0006776
2980.28	0.0006825
2989.93	0.0007489
2999.57	0.0006697
3009.22	0.0007377
3018.86	0.0006734
3028.51	0.0006952
3038.15	0.0006989
3047.8	0.0008188
3057.44	0.0010393
3067.09	0.0010072
3076.73	0.0009905
3086.38	0.0009489
3096.02	0.0007101
3105.67	0.00060931
3115.31	0.0006704
3124.95	0.0007274
3134.6	0.000661
3144.24	0.0006674
3153.89	0.0006254
3163.53	0.0006333
3173.18	0.0006591
3182.82	0.0007577
3192.47	0.00061678
3202.11	0.0007959
3211.76	0.0007072
3221.4	0.0006432
3231.05	0.0007616
3240.69	0.0007093
3250.34	0.00056839
3259.98	0.0006834
3269.63	0.00058216
3279.27	0.0006448
3288.92	0.0006778
3298.56	0.000521458
3308.21	0.0007188
3317.85	0.0006537
3327.49	0.0007787
3337.14	0.0008481
3346.78	0.0006772
3356.43	0.0007726
3366.07	0.00058883
3375.72	0.0004942
3385.36	0.0006381
3395.01	0.0007536
3404.65	0.0007065
3414.3	0.0006488
3423.94	0.0007459
3433.59	0.0006811
3443.23	0.0006736
3452.88	0.0007155
3462.52	0.0006019
3472.17	0.0008989
3481.81	0.0008749
3491.46	0.0009923
3501.1	0.0008301
3510.75	0.0008023
3520.39	0.0008375
3530.04	0.0007012
3539.68	0.0007592
3549.32	0.0007534
3558.97	0.0007813
3568.61	0.001727
3578.26	0.007817
3587.9	0.005707
3597.55	0.0011475
3607.19	0.0006893
3616.84	0.0007696
3626.48	0.0007686
3636.13	0.0008043
3645.77	0.0006757
3655.42	0.0008005
3665.06	0.0008862
3674.71	0.0007073
3684.35	0.0006837
3694	0.00054176
3703.64	0.0008059
3713.29	0.000499
3722.93	0.0006595
3732.58	0.0008397
3742.22	0.0007899
3751.86	0.0006594
3761.51	0.0006214
3771.15	0.0008168
3780.8	0.0007695
3790.44	0.0007892
3800.09	0.0008204
3809.73	0.0006306
3819.38	0.0006731
3829.02	0.00057136
3838.67	0.0006763
3848.31	0.00061661
3857.96	0.0007497
3867.6	0.0009301
3877.25	0.0007589
3886.89	0.0007143
3896.54	0.00052843
3906.18	0.00061325
3915.83	0.0006687
3925.47	0.0004894
3935.12	0.0006729
3944.76	0.000804
3954.41	0.0006182
3964.05	0.0008613
3973.69	0.0006789
3983.34	0.00057232
3992.98	0.0009107
