Infrared Spectrum: BENZOIC ACID, p-NITRO-, METHYL ESTER
Formula: C8 H7 N O4
CAS: 619-50-1
State: SOLID (SPLIT MULL)
Melting point: 95 C
Class: COBLENTZ III
Instrument: DOW KBr FOREPRISM-GRATING
Instrument parameters: BLAZED AT 3.5, 12.0, 20.0 MICRON AND CHANGED AT 5.0, 7.5, 14.9 MICRON
Sampling: TRANSMISSION
Resolution: 2
Origin: DOW CHEMICAL COMPANY
1/CM	TRANSMITTANCE
450	0.8128
459	0.8135
468	0.8268
477	0.8424
486	0.836
495	0.8154
504	0.7121
513	0.7964
522	0.835
531	0.8352
540	0.8312
549	0.8543
558	0.8664
567	0.8725
576	0.8765
585	0.8782
594	0.8783
603	0.878
612	0.8782
621	0.8705
630	0.8794
639	0.8818
648	0.8788
657	0.8718
666	0.857
675	0.8463
684	0.8341
693	0.8105
702	0.7362
711	0.467
720	0.1045
729	0.6601
738	0.7584
747	0.7918
756	0.7995
765	0.8028
774	0.7995
783	0.4372
792	0.8001
801	0.7926
810	0.7515
819	0.3926
828	0.7956
837	0.7067
846	0.7824
855	0.3866
864	0.7956
873	0.3516
882	0.7647
891	0.7903
900	0.8064
909	0.8047
918	0.8008
927	0.7925
936	0.7744
945	0.7345
954	0.538
963	0.6503
972	0.7754
981	0.7486
990	0.7925
999	0.7799
1008	0.53
1017	0.7908
1026	0.7798
1035	0.7687
1044	0.7561
1053	0.7414
1062	0.7201
1071	0.6712
1080	0.6468
1089	0.5718
1098	0.3148
1107	0.5136
1116	0.2502
1125	0.7785
1134	0.7676
1143	0.7456
1152	0.7207
1161	0.6901
1170	0.6645
1179	0.7114
1188	0.6745
1197	0.541
1206	0.675
1215	0.6594
1224	0.6136
1233	0.5456
1242	0.4346
1251	0.3882
1260	0.361
1269	0.1714
1278	0.0471
1287	0.0779
1296	0.4217
1305	0.3593
1314	0.4265
1323	0.2906
1332	0.3862
1341	0.2857
1350	0.1963
1359	0.5786
1368	0.6839
1377	0.785
1386	0.7468
1395	0.7518
1404	0.7778
1413	0.6254
1422	0.7675
1431	0.7048
1440	0.2692
1449	0.7265
1458	0.77
1467	0.7725
1476	0.7568
1485	0.7197
1494	0.6643
1503	0.592
1512	0.4672
1521	0.1734
1530	0.1873
1539	0.699
1548	0.8928
1557	0.8644
1566	0.8015
1575	0.8104
1584	0.7501
1593	0.5799
1602	0.6419
1611	0.699
1620	0.8714
1629	0.8594
1638	0.8412
1647	0.8192
1656	0.7962
1665	0.7686
1674	0.7233
1683	0.6824
1692	0.6017
1701	0.4909
1710	0.2574
1719	0.0359
1728	0.4691
1737	0.7484
1746	0.8873
1755	0.9267
1764	0.9428
1773	0.9333
1782	0.9295
1791	0.9288
1800	0.9158
1809	0.8953
1818	0.8957
1827	0.9118
1836	0.9143
1845	0.9064
1854	0.9015
1863	0.902
1872	0.902
1881	0.8971
1890	0.8912
1899	0.8858
1908	0.8795
1917	0.8748
1926	0.8728
1935	0.8612
1944	0.8468
1953	0.8428
1962	0.8605
1971	0.8701
1980	0.87
1989	0.8588
1998	0.8609
2007	0.8661
2016	0.8642
2025	0.8612
2034	0.8578
2043	0.8535
2052	0.8486
2061	0.842
2070	0.84
2079	0.839
2088	0.8374
2097	0.8354
2106	0.8335
2115	0.8306
2124	0.8274
2133	0.8242
2142	0.8202
2151	0.8161
2160	0.8121
2169	0.8078
2178	0.8034
2187	0.7989
2196	0.7944
2205	0.7898
2214	0.7851
2223	0.7805
2232	0.7758
2241	0.7711
2250	0.7665
2259	0.7618
2268	0.7574
2277	0.7531
2286	0.7488
2295	0.7455
2304	0.7425
2313	0.7405
2322	0.739
2331	0.738
2340	0.7378
2349	0.7371
2358	0.7347
2367	0.7315
2376	0.7322
2385	0.7358
2394	0.7382
2403	0.7381
2412	0.7365
2421	0.7333
2430	0.7306
2439	0.7288
2448	0.7301
2457	0.7312
2466	0.7315
2475	0.7303
2484	0.7292
2493	0.7271
2502	0.725
2511	0.7225
2520	0.7201
2529	0.7182
2538	0.7175
2547	0.7208
2556	0.7222
2565	0.7204
2574	0.718
2583	0.7155
2592	0.713
2601	0.7108
2610	0.7087
2619	0.7067
2628	0.7047
2637	0.7025
2646	0.7001
2655	0.6978
2664	0.6955
2673	0.6931
2682	0.6905
2691	0.6878
2700	0.6849
2709	0.6805
2718	0.6761
2727	0.6718
2736	0.6684
2745	0.6655
2754	0.6626
2763	0.6597
2772	0.6568
2781	0.6541
2790	0.6575
2799	0.6568
2808	0.6521
2817	0.6448
2826	0.6355
2835	0.6201
2844	0.6006
2853	0.581
2862	0.6001
2871	0.6146
2880	0.6171
2889	0.6109
2898	0.6033
2907	0.5953
2916	0.5858
2925	0.5815
2934	0.579
2943	0.5741
2952	0.5602
2961	0.5141
2970	0.601
2979	0.6119
2988	0.6079
2997	0.5947
3006	0.5818
3015	0.5771
3024	0.5785
3033	0.5784
3042	0.5769
3051	0.561
3060	0.5222
3069	0.5425
3078	0.4672
3087	0.4939
3096	0.5777
3105	0.5654
3114	0.4701
3123	0.5319
3132	0.6104
3141	0.6075
3150	0.6017
3159	0.5962
3168	0.5936
3177	0.5909
3186	0.5892
3195	0.588
3204	0.5867
3213	0.5852
3222	0.5836
3231	0.5814
3240	0.579
3249	0.5764
3258	0.5739
3267	0.5714
3276	0.5688
3285	0.5662
3294	0.5636
3303	0.5604
3312	0.5574
3321	0.5547
3330	0.5526
3339	0.5504
3348	0.5483
3357	0.5451
3366	0.5423
3375	0.5397
3384	0.5376
3393	0.5356
3402	0.5316
3411	0.5271
3420	0.5173
3429	0.5102
3438	0.5212
3447	0.5285
3456	0.5284
3465	0.5276
3474	0.5272
3483	0.5272
3492	0.527
3501	0.5262
3510	0.5254
3519	0.5243
3528	0.5231
3537	0.522
3546	0.5217
3555	0.5212
3564	0.5204
3573	0.5183
3582	0.5147
3591	0.5137
3600	0.5139
3609	0.5134
3618	0.5127
3627	0.512
3636	0.5114
3645	0.5108
3654	0.5102
3663	0.5096
3672	0.5092
3681	0.5086
3690	0.5062
3699	0.504
3708	0.5047
3717	0.5037
3726	0.5026
3735	0.5012
3744	0.4998
3753	0.4983
3762	0.496
3771	0.4942
3780	0.4928
3789	0.491
3798	0.4893
3807	0.4877
3816	0.4862
