Infrared Spectrum: 4-Chlorobenzamide
Formula: C 7 H 6 Cl N O
CAS: 619-56-7
State: gas
Instrument: HP-GC/MS/IRD
Origin: NIST Mass Spectrometry Data Center
1/CM	ABSORBANCE
550	0.0016
562	0.00053
574	0.00036
586	7e-05
598	0.00036
610	0.0009
622	0.00164
634	0.00228
646	0.00269
658	0.00289
670	0.00411
682	0.00516
694	0.00447
706	0.00305
718	0.00252
730	0.00417
742	0.00958
754	0.01598
766	0.01937
778	0.01158
790	0.00624
802	0.0058
814	0.00631
826	0.00803
838	0.01126
850	0.01078
862	0.00607
874	0.00347
886	0.00282
898	0.00233
910	0.00203
922	0.00199
934	0.00186
946	0.00147
958	0.00142
970	0.00156
982	0.00153
994	0.00163
1006	0.0073
1018	0.01278
1030	0.00222
1042	0.00172
1054	0.00322
1066	0.00712
1078	0.01003
1090	0.02596
1102	0.01961
1114	0.00609
1126	0.00518
1138	0.00154
1150	0.00034
1162	0.00042
1174	0.00151
1186	0.00144
1198	0.00139
1210	0.00209
1222	0.00249
1234	0.00221
1246	0.00262
1258	0.0038
1270	0.00538
1282	0.00708
1294	0.00682
1306	0.00728
1318	0.0119
1330	0.03194
1342	0.07428
1354	0.05193
1366	0.01376
1378	0.00886
1390	0.01038
1402	0.00864
1414	0.0039
1426	0.003
1438	0.00194
1450	0.00134
1462	0.00142
1474	0.00353
1486	0.01226
1498	0.0098
1510	0.00203
1522	0.0017
1534	0.00234
1546	0.00413
1558	0.00792
1570	0.01545
1582	0.03331
1594	0.05365
1606	0.03647
1618	0.01048
1630	0.00542
1642	0.00477
1654	0.00482
1666	0.00597
1678	0.00942
1690	0.01471
1702	0.03184
1714	0.0837
1726	0.09777
1738	0.0379
1750	0.01443
1762	0.00957
1774	0.00502
1786	0.00238
1798	0.0013
1810	0.00085
1822	0.00064
1834	0.00066
1846	0.00058
1858	0.00054
1870	0.00065
1882	0.00091
1894	0.00117
1906	0.00095
1918	0.00069
1930	0.00057
1942	0.0004
1954	0.00022
1966	0.00014
1978	0.00017
1990	0.00027
2002	0.00015
2014	8e-05
2026	0.00011
2038	9e-05
2050	6e-05
2062	2e-05
2074	0
2086	2e-05
2098	7e-05
2110	0.00016
2122	0.00014
2134	0.0001
2146	8e-05
2158	8e-05
2170	8e-05
2182	0.00012
2194	0.00015
2206	0.00011
2218	0.00013
2230	0.00016
2242	0.00015
2254	0.00014
2266	0.0001
2278	0.00016
2290	0.00019
2302	0.00016
2314	9e-05
2326	7e-05
2338	7e-05
2350	0.00012
2362	0.00018
2374	0.0002
2386	0.00019
2398	0.00025
2410	0.00027
2422	0.00025
2434	0.00014
2446	0.00011
2458	0.00012
2470	8e-05
2482	0.00011
2494	7e-05
2506	8e-05
2518	0.00012
2530	0.00019
2542	0.00026
2554	0.00028
2566	0.00021
2578	0.0002
2590	0.00014
2602	0.00015
2614	0.00015
2626	0.00011
2638	0.00011
2650	0.00012
2662	0.00015
2674	0.00016
2686	0.00017
2698	0.00016
2710	0.00019
2722	0.00018
2734	0.00012
2746	9e-05
2758	0.00013
2770	0.00024
2782	0.00031
2794	0.00027
2806	0.00018
2818	0.00014
2830	0.00017
2842	0.00011
2854	8e-05
2866	6e-05
2878	8e-05
2890	0.00012
2902	0.00015
2914	0.0002
2926	0.00028
2938	0.0003
2950	0.00019
2962	0.0001
2974	0.00011
2986	0.00016
2998	0.0002
3010	0.0003
3022	0.00061
3034	0.00135
3046	0.00165
3058	0.0016
3070	0.00147
3082	0.00175
3094	0.00198
3106	0.00121
3118	0.0005
3130	0.0004
3142	0.00039
3154	0.00035
3166	0.00034
3178	0.00024
3190	0.0002
3202	0.00019
3214	0.0001
3226	9e-05
3238	8e-05
3250	0.00011
3262	9e-05
3274	0.00016
3286	0.00025
3298	0.00042
3310	0.00043
3322	0.00027
3334	0.00022
3346	0.00023
3358	0.00028
3370	0.00049
3382	0.00093
3394	0.0016
3406	0.00321
3418	0.0066
3430	0.01125
3442	0.00967
3454	0.00364
3466	0.00159
3478	0.00115
3490	0.00107
3502	0.00145
3514	0.00221
3526	0.00381
3538	0.00649
3550	0.00846
3562	0.00552
3574	0.00183
3586	0.00082
3598	0.00041
3610	0.00028
3622	0.00022
3634	0.00017
3646	0.0001
3658	0.00013
3670	0.00019
3682	0.00013
3694	0.00013
3706	0.0001
3718	0.00021
3730	0.0002
3742	0.00013
3754	5e-05
3766	0.00011
3778	5e-05
3790	0.00012
3802	7e-05
3814	6e-05
3826	9e-05
3838	0.0001
