Infrared Spectrum: p-Nitrobenzylalcohol
Formula: C 7 H 7 N O 3
CAS: 619-73-8
State: gas
Instrument: HP-GC/MS/IRD
Origin: NIST Mass Spectrometry Data Center
1/CM	ABSORBANCE
550	0.000592
562	3.7e-05
574	2.22e-05
586	6.66e-05
598	0.0001184
610	0.000185
622	0.0003108
634	0.0003774
646	0.00037
658	0.0003034
670	0.0009176
682	0.0025456
694	0.0034336
706	0.0033374
718	0.0041218
730	0.0069486
742	0.0085766
754	0.004847
766	0.0020868
778	0.0038776
790	0.0083842
802	0.006253
814	0.0068894
826	0.0080882
838	0.0123432
850	0.0208236
862	0.0169534
874	0.0034706
886	0.001665
898	0.0012358
910	0.0012876
922	0.0015762
934	0.0018796
946	0.0024716
958	0.0032116
970	0.003996
982	0.0049432
994	0.0070226
1006	0.0130018
1018	0.017131
1030	0.0169164
1042	0.0199652
1054	0.0149702
1066	0.0091316
1078	0.0051652
1090	0.0034632
1102	0.0045658
1114	0.0045214
1126	0.0023902
1138	0.002368
1150	0.0031154
1162	0.0043956
1174	0.0074814
1186	0.0084138
1198	0.0081474
1210	0.0058312
1222	0.0043734
1234	0.0039516
1246	0.0038258
1258	0.0039368
1270	0.0041958
1282	0.0047286
1294	0.0057646
1306	0.0075628
1318	0.0106412
1330	0.0220224
1342	0.0568542
1354	0.0709438
1366	0.0326858
1378	0.0142154
1390	0.0092352
1402	0.0071114
1414	0.0056092
1426	0.0044178
1438	0.003626
1450	0.0033078
1462	0.0042032
1474	0.0052392
1486	0.0075924
1498	0.0104118
1510	0.0139342
1522	0.0322714
1534	0.0615532
1546	0.0631442
1558	0.0321086
1570	0.0129204
1582	0.0097236
1594	0.0124912
1606	0.0149332
1618	0.0087838
1630	0.0032486
1642	0.0017094
1654	0.0016132
1666	0.0015836
1678	0.0012284
1690	0.0007474
1702	0.0003922
1714	0.0003182
1726	0.0003848
1738	0.0003034
1750	0.0002516
1762	0.000259
1774	0.0004218
1786	0.0009768
1798	0.0010508
1810	0.000407
1822	0.0001406
1834	5.92e-05
1846	4.44e-05
1858	3.7e-05
1870	8.88e-05
1882	0.0001332
1894	0.0003182
1906	0.0006956
1918	0.0009842
1930	0.000814
1942	0.0003996
1954	0.0001998
1966	0.0001554
1978	0.0001258
1990	0.0001036
2002	8.14e-05
2014	0.0001184
2026	0.000148
2038	0.0001554
2050	0.000148
2062	0.0001702
2074	0.0001628
2086	0.0001924
2098	0.0001332
2110	0.0001184
2122	0.0001184
2134	6.66e-05
2146	4.44e-05
2158	7.4e-06
2170	1.48e-05
2182	2.22e-05
2194	5.92e-05
2206	0.0001554
2218	0.0001628
2230	0.0001332
2242	8.14e-05
2254	7.4e-05
2266	0.0001628
2278	0.000222
2290	0.0002516
2302	0.0001998
2314	0.000148
2326	0.0001332
2338	0.0001184
2350	9.62e-05
2362	9.62e-05
2374	0.0002072
2386	0.000259
2398	0.000259
2410	0.0001998
2422	0.0001554
2434	0.0002072
2446	0.0003404
2458	0.0004144
2470	0.0003108
2482	0.0001702
2494	9.62e-05
2506	8.88e-05
2518	0.0001036
2530	0.000111
2542	4.44e-05
2554	3.7e-05
2566	2.22e-05
2578	5.92e-05
2590	9.62e-05
2602	0.0001776
2614	0.0002368
2626	0.0001628
2638	0.000148
2650	0.0001406
2662	0.0002072
2674	0.0002812
2686	0.00037
2698	0.0005106
2710	0.0005846
2722	0.0005624
2734	0.0003922
2746	0.0003774
2758	0.0004366
2770	0.0005698
2782	0.00074
2794	0.000888
2806	0.0010286
2818	0.0011988
2830	0.0016502
2842	0.0024272
2854	0.003589
2866	0.0051134
2878	0.0070966
2890	0.0077256
2902	0.0068006
2914	0.0061716
2926	0.0060828
2938	0.0058312
2950	0.00518
2962	0.0039738
2974	0.0026566
2986	0.0017242
2998	0.00111
3010	0.0009472
3022	0.0011026
3034	0.001554
3046	0.0022422
3058	0.0026122
3070	0.002405
3082	0.002035
3094	0.0010064
3106	0.0003256
3118	0.0001776
3130	5.18e-05
3142	5.18e-05
3154	9.62e-05
3166	5.92e-05
3178	6.66e-05
3190	9.62e-05
3202	0.0001628
3214	0.000185
3226	0.0001036
3238	1.48e-05
3250	5.92e-05
3262	5.92e-05
3274	3.7e-05
3286	4.44e-05
3298	5.92e-05
3310	9.62e-05
3322	8.14e-05
3334	7.4e-05
3346	0.000111
3358	7.4e-05
3370	9.62e-05
3382	0.0001628
3394	0.000185
3406	0.0001628
3418	0.0002368
3430	0.0002738
3442	0.0002516
3454	0.0003108
3466	0.0002516
3478	0.0002664
3490	0.0002516
3502	0.0002368
3514	0.0002886
3526	0.0002886
3538	0.0002812
3550	0.000296
3562	0.0002812
3574	0.0003034
3586	0.0004736
3598	0.0004958
3610	0.0007992
3622	0.0014134
3634	0.0022348
3646	0.0036408
3658	0.0061346
3670	0.0062826
3682	0.0041292
3694	0.0021386
3706	0.001147
3718	0.0007326
3730	0.0005624
3742	0.0004736
3754	0.0003774
3766	0.0003034
3778	0.0002294
3790	0.0002442
3802	0.0002294
3814	0.0002516
3826	0.0003182
3838	0.0003256
