Infrared Spectrum: 4-Nitrobenzamide
Formula: C 7 H 6 N 2 O 3
CAS: 619-80-7
State: gas
Origin: EPA-IR VAPOR PHASE LIBRARY
1/CM	ABSORBANCE
549.8	0.0011723
559.445	0.0012011
569.09	0.0015012
578.734	0.00054866
588.379	0.000537602
598.024	0.0010323
607.669	0.0006568
617.313	0.0011792
626.958	0.0012366
636.603	0.0014293
646.248	0.0014119
655.893	0.0012122
665.537	0.0015126
675.182	0.001728
684.827	0.0012911
694.472	0.001878
704.116	0.003178
713.761	0.004828
723.406	0.004788
733.051	0.003348
742.695	0.002208
752.34	0.003748
761.985	0.003338
771.63	0.001938
781.275	0.001938
790.919	0.001798
800.564	0.001828
810.209	0.001998
819.854	0.001938
829.498	0.002288
839.143	0.002508
848.788	0.004998
858.433	0.006158
868.078	0.003768
877.722	0.002408
887.367	0.001738
897.012	0.0011862
906.657	0.0014836
916.301	0.0012628
925.946	0.0011869
935.591	0.0010565
945.236	0.001268
954.88	0.0009417
964.525	0.0010122
974.17	0.0009829
983.815	0.0008601
993.46	0.001166
1003.1	0.0010125
1012.75	0.002188
1022.39	0.001898
1032.04	0.0008528
1041.68	0.0013509
1051.33	0.0011802
1060.97	0.0013316
1070.62	0.002008
1080.26	0.0012344
1089.91	0.001568
1099.55	0.0010476
1109.2	0.0013841
1118.84	0.0009879
1128.49	0.0008757
1138.13	0.0008369
1147.78	0
1157.42	0.0007663
1167.07	0.0010007
1176.71	0.0013845
1186.36	0.0008195
1196	0.0006445
1205.64	0.0012768
1215.29	0.0010231
1224.93	0.0008064
1234.58	0.001548
1244.22	0.0014003
1253.87	0.0014715
1263.51	0.001628
1273.16	0.002028
1282.8	0.002798
1292.45	0.003558
1302.09	0.004358
1311.74	0.005078
1321.38	0.007148
1331.03	0.014948
1340.67	0.025538
1350.32	0.020198
1359.96	0.010088
1369.61	0.005288
1379.25	0.003418
1388.9	0.003018
1398.54	0.002528
1408.18	0.002168
1417.83	0.001748
1427.47	0.0011824
1437.12	0.0010567
1446.76	0.0009615
1456.41	0.0008442
1466.05	0.0010979
1475.7	0.0011578
1485.34	0.001788
1494.99	0.002108
1504.63	0.002538
1514.28	0.003268
1523.92	0.005348
1533.57	0.009918
1543.21	0.013228
1552.86	0.011138
1562.5	0.006048
1572.15	0.005338
1581.79	0.009038
1591.44	0.012178
1601.08	0.009518
1610.73	0.006268
1620.37	0.003678
1630.01	0.002258
1639.66	0.001658
1649.3	0.001558
1658.95	0.001399
1668.59	0.001668
1678.24	0.002108
1687.88	0.003358
1697.53	0.004578
1707.17	0.007208
1716.82	0.015408
1726.46	0.020008
1736.11	0.012558
1745.75	0.005468
1755.4	0.003698
1765.04	0.002558
1774.69	0.0014993
1784.33	0.0010867
1793.98	0.0010192
1803.62	0.0008864
1813.27	0.0008801
1822.91	0.0007994
1832.55	0.0008047
1842.2	0.0006961
1851.84	0.0007423
1861.49	0.0006585
1871.13	0.0007888
1880.78	0.0007432
1890.42	0.0006935
1900.07	0.0008276
1909.71	0.0007477
1919.36	0.0007558
1929	0.0007436
1938.65	0.0006768
1948.29	0.0006899
1957.94	0.0007091
1967.58	0.0006979
1977.23	0.00061004
1986.87	0.00057328
1996.52	0.000645
2006.16	0.0006657
2015.81	0.000547811
2025.45	0.0006615
2035.1	0.00060384
2044.74	0.00062458
2054.38	0.00059733
2064.03	0.00061444
2073.67	0.00063671
2083.32	0.00062713
2092.96	0.00060013
2102.61	0.00058584
2112.25	0.00061292
2121.9	0.00055317
2131.54	0.0006458
2141.19	0.00056663
2150.83	0.00063171
2160.48	0.0006559
2170.12	0.00060803
2179.77	0.00056811
2189.41	0.00056537
2199.06	0.00061146
2208.7	0.0005236
2218.35	0.00058111
2227.99	0.0004527
2237.64	0.0006533
2247.28	0.00062307
2256.92	0.00062194
2266.57	0.0006452
2276.21	0.0007252
2285.86	0.00058382
2295.5	0.00059479
2305.15	0.00060461
2314.79	0.000625
2324.44	0.00060959
2334.08	0.00059834
2343.73	0.0005267
2353.37	0.0005183
2363.02	0.00056805
2372.66	0.00060967
2382.31	0.00060409
2391.95	0.00055827
2401.6	0.0006588
2411.24	0.0006594
2420.89	0.0005165
2430.53	0.0007461
2440.18	0.0006656
2449.82	0.0006651
2459.47	0.0006582
2469.11	0.0007162
2478.75	0.00053683
2488.4	0.0006855
2498.04	0.00059515
2507.69	0.0005002
2517.33	0.00060834
2526.98	0.00062455
2536.62	0.00052861
2546.27	0.00063431
2555.91	0.00062648
2565.56	0.0006637
2575.2	0.0005203
2584.85	0.00057069
2594.49	0.0006848
2604.14	0.00055026
2613.78	0.00058614
2623.43	0.0006406
2633.07	0.00058872
2642.72	0.00059533
2652.36	0.0007718
2662.01	0.0007163
2671.65	0.0007065
2681.29	0.00063628
2690.94	0.0007272
2700.58	0.0006517
2710.23	0.0007725
2719.87	0.0005217
2729.52	0.00065
2739.16	0.0006405
2748.81	0.0006427
2758.45	0.00058079
2768.1	0.00063581
2777.74	0.00060761
2787.39	0.00057645
2797.03	0.0007604
2806.68	0.0007694
2816.32	0.0007675
2825.97	0.0005041
2835.61	0.000769
2845.26	0.0006713
2854.9	0.0007573
2864.55	0.0008017
2874.19	0.0008739
2883.84	0.0008015
2893.48	0.0009209
2903.12	0.0006934
2912.77	0.000719
2922.41	0.0006264
2932.06	0.0007852
2941.7	0.0006938
2951.35	0.000697
2960.99	0.0008039
2970.64	0.0006515
2980.28	0.0005078
2989.93	0.0006553
2999.57	0.0006465
3009.22	0.0004991
3018.86	0.00058294
3028.51	0.00058236
3038.15	0.0007447
3047.8	0.0006596
3057.44	0.0009604
3067.09	0.0013088
3076.73	0.0010722
3086.38	0.0007996
3096.02	0.0007786
3105.67	0.00057201
3115.31	0.00057751
3124.95	0.0006411
3134.6	0.0006621
3144.24	0.0007809
3153.89	0.00062082
3163.53	0.0007121
3173.18	0.0006444
3182.82	0.00061961
3192.47	0.0006462
3202.11	0.00061893
3211.76	0.0004597
3221.4	0.000404
3231.05	0.0007238
3240.69	0.00055289
3250.34	0.000282
3259.98	0.00059442
3269.63	0.0007297
3279.27	0.00056708
3288.92	0.0005623
3298.56	0.00056195
3308.21	0.0007627
3317.85	0.0007131
3327.49	0.00057606
3337.14	0.0007364
3346.78	0.00062791
3356.43	0.0004848
3366.07	0.0007563
3375.72	0.0005588
3385.36	0.0006391
3395.01	0.0008776
3404.65	0.0011795
3414.3	0.001778
3423.94	0.002708
3433.59	0.003448
3443.23	0.002508
3452.88	0.0015048
3462.52	0.0009609
3472.17	0.000891
3481.81	0.0007853
3491.46	0.000915
3501.1	0.0008947
3510.75	0.0010308
3520.39	0.0013111
3530.04	0.001578
3539.68	0.001858
3549.32	0.002328
3558.97	0.001798
3568.61	0.0011241
3578.26	0.0010654
3587.9	0.0008052
3597.55	0.00060764
3607.19	0.00058258
3616.84	0.0006651
3626.48	0.00057238
3636.13	0.00063761
3645.77	0.00063698
3655.42	0.0006481
3665.06	0.0007182
3674.71	0.0006499
3684.35	0.0006725
3694	0.00062279
3703.64	0.0007167
3713.29	0.0004924
3722.93	0.0007291
3732.58	0.0006874
3742.22	0.0006717
3751.86	0.0004745
3761.51	0.0006992
3771.15	0.00055775
3780.8	0.00058209
3790.44	0.000837
3800.09	0.000538903
3809.73	0.0005986
3819.38	0.00061502
3829.02	0.00062442
3838.67	0.00060672
3848.31	0.00060226
3857.96	0.0006968
3867.6	0.00056052
3877.25	0.0006984
3886.89	0.0007024
3896.54	0.0006425
3906.18	0.00058
3915.83	0.00063538
3925.47	0.0005209
3935.12	0.0006898
3944.76	0.0008625
3954.41	0.00056726
3964.05	0.000463
3973.69	0.0006474
3983.34	0.0008604
3992.98	0.0009229
