Infrared Spectrum: Toluene, Alpha-chloro-m-nitro-
Formula: C7 H6 Cl N O2
CAS: 619-23-8
State: SOLUTION (10% CCl4 FOR 3800-1330, 10% CS2 FOR 1330-400 CM^-^1)
Class: COBLENTZ III
Instrument: DOW KBr FOREPRISM-GRATING
Instrument parameters: BLAZED AT 3.5, 12.0, 20.0 MICRON AND CHANGED AT 5.0, 7.5, 14.9 MICRON
Sampling: TRANSMISSION
Path length: 0.011 CM, 0.011 CM
Resolution: 2
Origin: DOW CHEMICAL COMPANY
1/CM	TRANSMITTANCE
453	0.8768
462	0.8897
471	0.8934
480	0.9037
489	0.9375
498	0.9547
507	0.9543
516	0.9432
525	0.9271
534	0.9254
543	0.9337
552	0.9405
561	0.9314
570	0.8286
579	0.8577
588	0.969
597	0.989
606	0.9929
615	0.9885
624	0.9799
633	0.9576
642	0.9237
651	0.872
660	0.8246
669	0.7144
678	0.3964
687	0.632
696	0.6272
705	0.2544
714	0.03
723	0.2231
732	0.5676
741	0.6961
750	0.6443
759	0.7947
768	0.8691
777	0.9013
786	0.8931
795	0.8625
804	0.6646
813	0.3522
822	0.8001
831	0.8947
840	0.8976
849	0.8515
858	0.7776
867	0.7946
876	0.8107
885	0.8015
894	0.7616
903	0.7157
912	0.6998
921	0.6901
930	0.5661
939	0.8404
948	0.8922
957	0.9161
966	0.9229
975	0.9172
984	0.9075
993	0.9235
1002	0.9027
1011	0.9297
1020	0.9305
1029	0.9244
1038	0.9172
1047	0.9092
1056	0.9004
1065	0.8661
1074	0.7222
1083	0.701
1092	0.6654
1101	0.4591
1110	0.8433
1119	0.9197
1128	0.9418
1137	0.9239
1146	0.9065
1155	0.8867
1164	0.8507
1173	0.8762
1182	0.8933
1191	0.9123
1200	0.9083
1209	0.8828
1218	0.8456
1227	0.8881
1236	0.9049
1245	0.8998
1254	0.8505
1263	0.5483
1272	0.4715
1281	0.7435
1290	0.7373
1299	0.6339
1308	0.6338
1317	0.3858
1326	0.3658
1335	0.4337
1344	0.3136
1353	0.0104
1362	0.191
1371	0.5066
1380	0.7186
1389	0.7764
1398	0.7986
1407	0.7964
1416	0.7891
1425	0.764
1434	0.7127
1443	0.5982
1452	0.6243
1461	0.7284
1470	0.6937
1479	0.5556
1488	0.524
1497	0.592
1506	0.514
1515	0.4362
1524	0.1091
1533	0.0088
1542	0.0405
1551	0.1499
1560	0.2509
1569	0.3803
1578	0.4654
1587	0.4249
1596	0.6021
1605	0.6577
1614	0.6503
1623	0.7438
1632	0.8352
1641	0.8561
1650	0.859
1659	0.8456
1668	0.8398
1677	0.8399
1686	0.8406
1695	0.8415
1704	0.8436
1713	0.8373
1722	0.8245
1731	0.811
1740	0.8158
1749	0.8317
1758	0.8434
1767	0.8465
1776	0.8429
1785	0.8374
1794	0.8266
1803	0.8342
1812	0.8369
1821	0.8385
1830	0.8414
1839	0.844
1848	0.839
1857	0.8352
1866	0.8445
1875	0.8526
1884	0.8526
1893	0.8471
1902	0.8286
1911	0.8291
1920	0.8486
1929	0.8582
1938	0.8591
1947	0.8536
1956	0.8379
1965	0.835
1974	0.8508
1983	0.8562
1992	0.8568
2001	0.8534
2010	0.8534
2019	0.8541
2028	0.855
2037	0.8571
2046	0.8612
2055	0.8627
2064	0.8614
2073	0.8598
2082	0.8598
2091	0.8599
2100	0.8583
2109	0.8601
2118	0.8645
2127	0.865
2136	0.8653
2145	0.8651
2154	0.8644
2163	0.8632
2172	0.8621
2181	0.8608
2190	0.8593
2199	0.858
2208	0.8616
2217	0.8636
2226	0.8613
2235	0.858
2244	0.8533
2253	0.8486
2262	0.8448
2271	0.8416
2280	0.8388
2289	0.8367
2298	0.8363
2307	0.8381
2316	0.8416
2325	0.8338
2334	0.8297
2343	0.8337
2352	0.8443
2361	0.8526
2370	0.8527
2379	0.8509
2388	0.848
2397	0.8494
2406	0.8555
2415	0.8581
2424	0.8552
2433	0.8506
2442	0.8455
2451	0.8451
2460	0.8513
2469	0.8577
2478	0.8616
2487	0.862
2496	0.8624
2505	0.8618
2514	0.8612
2523	0.8607
2532	0.8616
2541	0.8616
2550	0.8587
2559	0.856
2568	0.8543
2577	0.8566
2586	0.8595
2595	0.8609
2604	0.8613
2613	0.8605
2622	0.8591
2631	0.8581
2640	0.8575
2649	0.857
2658	0.8568
2667	0.8566
2676	0.8564
2685	0.8561
2694	0.8559
2703	0.8559
2712	0.8567
2721	0.8577
2730	0.8594
2739	0.8597
2748	0.8587
2757	0.8571
2766	0.8545
2775	0.8519
2784	0.8484
2793	0.8445
2802	0.845
2811	0.847
2820	0.8441
2829	0.8332
2838	0.8322
2847	0.8291
2856	0.814
2865	0.7865
2874	0.7522
2883	0.7644
2892	0.8163
2901	0.8385
2910	0.8399
2919	0.8378
2928	0.8233
2937	0.8075
2946	0.7949
2955	0.7738
2964	0.7512
2973	0.7665
2982	0.8159
2991	0.8349
3000	0.8366
3009	0.832
3018	0.8261
3027	0.8305
3036	0.8321
3045	0.8319
3054	0.8303
3063	0.7997
3072	0.704
3081	0.7214
3090	0.7603
3099	0.7354
3108	0.8137
3117	0.837
3126	0.8513
3135	0.8598
3144	0.8646
3153	0.8679
3162	0.8711
3171	0.8739
3180	0.877
3189	0.8798
3198	0.8823
3207	0.8848
3216	0.8876
3225	0.8905
3234	0.8934
3243	0.8963
3252	0.8993
3261	0.9019
3270	0.9045
3279	0.9069
3288	0.9091
3297	0.9112
3306	0.9132
3315	0.9139
3324	0.9145
3333	0.9145
3342	0.9147
3351	0.9166
3360	0.9195
3369	0.9218
3378	0.9241
3387	0.9258
3396	0.9272
3405	0.9266
3414	0.9222
3423	0.9182
3432	0.9147
3441	0.9122
3450	0.91
3459	0.9081
3468	0.9063
3477	0.9044
3486	0.9023
3495	0.9002
3504	0.8983
3513	0.8965
3522	0.896
3531	0.8954
3540	0.8948
3549	0.8939
3558	0.893
3567	0.8921
3576	0.8912
3585	0.8904
3594	0.8895
3603	0.8889
3612	0.8889
3621	0.8888
3630	0.8887
3639	0.8886
3648	0.8887
3657	0.8888
3666	0.8889
3675	0.889
3684	0.8891
3693	0.8892
3702	0.8893
3711	0.8894
3720	0.8895
3729	0.8898
3738	0.8902
3747	0.8905
3756	0.8911
3765	0.8918
3774	0.8926
3783	0.8934
3792	0.8939
