Infrared Spectrum: 4-Ethylbenzoic acid
Formula: C 9 H 10 O 2
CAS: 619-64-7
State: gas
Origin: EPA-IR VAPOR PHASE LIBRARY
1/CM	ABSORBANCE
549.8	0.004142
559.445	0.005612
569.09	0.006882
578.735	0.006482
588.38	0.008202
598.025	0.006522
607.67	0.002502
617.315	0.0015214
626.96	0.0014854
636.605	0.001427
646.251	0.0011462
655.896	0.0011385
665.541	0.0013911
675.186	0.0017636
684.831	0.003722
694.476	0.006942
704.121	0.009742
713.766	0.007902
723.411	0.005012
733.056	0.004202
742.701	0.004472
752.346	0.004932
761.991	0.005492
771.636	0.005632
781.281	0.004632
790.926	0.003732
800.571	0.002672
810.216	0.001872
819.861	0.0016746
829.507	0.0017238
839.152	0.002612
848.797	0.003642
858.442	0.003132
868.087	0.001842
877.732	0.0012751
887.377	0.0011173
897.022	0.0010311
906.667	0.0010279
916.312	0.0011533
925.957	0.0010594
935.602	0.0009347
945.247	0.00083583
954.892	0.0011168
964.537	0.0013089
974.182	0.0013401
983.827	0.0012281
993.472	0.0014024
1003.12	0.002122
1012.76	0.005012
1022.41	0.005892
1032.05	0.003612
1041.7	0.004502
1051.34	0.006462
1060.99	0.010172
1070.63	0.020252
1080.28	0.032092
1089.92	0.023882
1099.57	0.008642
1109.21	0.004652
1118.86	0.003922
1128.5	0.004072
1138.15	0.004352
1147.79	0.005982
1157.44	0.011552
1167.08	0.026442
1176.73	0.028172
1186.37	0.016092
1196.02	0.011842
1205.66	0.005962
1215.31	0.004012
1224.95	0.003602
1234.6	0.003692
1244.24	0.004182
1253.89	0.005122
1263.53	0.006172
1273.18	0.006092
1282.82	0.005692
1292.47	0.005692
1302.11	0.006102
1311.76	0.006992
1321.4	0.008032
1331.05	0.008492
1340.69	0.008512
1350.34	0.009562
1359.98	0.012292
1369.63	0.009192
1379.27	0.004042
1388.92	0.002872
1398.56	0.003202
1408.21	0.004462
1417.85	0.004622
1427.5	0.003332
1437.14	0.002502
1446.79	0.002282
1456.43	0.002422
1466.08	0.002552
1475.73	0.002142
1485.37	0.001822
1495.02	0.001756
1504.66	0.001992
1514.31	0.001922
1523.95	0.0015451
1533.6	0.0013911
1543.24	0.0013841
1552.89	0.0014591
1562.53	0.001862
1572.18	0.002322
1581.82	0.002302
1591.47	0.002832
1601.11	0.005012
1610.76	0.008012
1620.4	0.006582
1630.05	0.002592
1639.69	0.0015742
1649.34	0.001463
1658.98	0.0015166
1668.63	0.001725
1678.27	0.001952
1687.92	0.002382
1697.56	0.002822
1707.21	0.003202
1716.85	0.003672
1726.5	0.004932
1736.14	0.010462
1745.79	0.029252
1755.43	0.062762
1765.08	0.056332
1774.72	0.018602
1784.37	0.006892
1794.01	0.004022
1803.66	0.003312
1813.3	0.002922
1822.95	0.002462
1832.59	0.0018018
1842.24	0.0013457
1851.88	0.0011173
1861.53	0.0011788
1871.17	0.0011923
1880.82	0.0012339
1890.46	0.0012707
1900.11	0.0012092
1909.75	0.0014218
1919.4	0.0014959
1929.04	0.0015285
1938.69	0.0013772
1948.33	0.0011663
1957.98	0.0010674
1967.62	0.0010706
1977.27	0.0010772
1986.91	0.0009987
1996.56	0.0009447
2006.2	0.0009415
2015.85	0.00088016
2025.49	0.00093
2035.14	0.0009195
2044.78	0.00085059
2054.43	0.00089009
2064.07	0.0009043
2073.72	0.0009146
2083.36	0.00088011
2093.01	0.00088275
2102.65	0.00088446
2112.3	0.00089251
2121.94	0.0009172
2131.59	0.00088835
2141.23	0.0009381
2150.88	0.00091095
2160.52	0.0009581
2170.17	0.00091032
2179.81	0.00090804
2189.46	0.000815254
2199.1	0.000820738
2208.75	0.00080451
2218.39	0.0008015
2228.04	0.00082639
2237.68	0.00084955
2247.33	0.00080343
2256.97	0.0009035
2266.62	0.00087063
2276.26	0.0008017
2285.91	0.00085568
2295.55	0.00083668
2305.2	0.0007993
2314.84	0.00087127
2324.49	0.0009445
2334.13	0.0009183
2343.78	0.00084845
2353.42	0.00083238
2363.07	0.0007871
2372.72	0.00079
2382.36	0.00080856
2392.01	0.00087568
2401.65	0.00088273
2411.3	0.00088731
2420.94	0.00093
2430.59	0.00090604
2440.23	0.00083603
2449.88	0.0008397
2459.52	0.0007931
2469.17	0.0007567
2478.81	0.0007696
2488.46	0.000736
2498.1	0.000657
2507.75	0.0007613
2517.39	0.000786
2527.04	0.00081077
2536.68	0.0007703
2546.33	0.0007532
2555.97	0.0007945
2565.62	0.0007717
2575.26	0.0007423
2584.91	0.0007
2594.55	0.000697
2604.2	0.000697
2613.84	0.000612
2623.49	0.000658
2633.13	0.0007321
2642.78	0.000634
2652.42	0.000689
2662.07	0.0007348
2671.71	0.000647
2681.36	0.000616
2691	0.000669
2700.65	0.000643
2710.29	0.000609
2719.94	0.000717
2729.58	0.000599
2739.23	0.0007165
2748.87	0.00068
2758.52	0.0007293
2768.16	0.0007351
2777.81	0.0007164
2787.45	0.0007784
2797.1	0.00088167
2806.74	0.00091118
2816.39	0.000919
2826.03	0.0009365
2835.68	0.0012282
2845.32	0.0013099
2854.97	0.001577
2864.61	0.002232
2874.26	0.003072
2883.9	0.003722
2893.55	0.003812
2903.19	0.003422
2912.84	0.003292
2922.48	0.003392
2932.13	0.004592
2941.77	0.006102
2951.42	0.006032
2961.06	0.005532
2970.71	0.009622
2980.35	0.010262
2990	0.004712
2999.64	0.002952
3009.29	0.002522
3018.93	0.002332
3028.58	0.002502
3038.22	0.003102
3047.87	0.002722
3057.51	0.002032
3067.16	0.0016559
3076.8	0.0016631
3086.45	0.0014642
3096.09	0.0014294
3105.74	0.0009979
3115.38	0.0010141
3125.03	0.000687
3134.67	0.0007263
3144.32	0.000656
3153.96	0.000497
3163.61	0.00058
3173.25	0.00053
3182.9	0.000468
3192.54	0.000352
3202.19	0.000426
3211.83	0.000327
3221.48	0.000396
3231.12	0.000278
3240.77	0.000347
3250.41	0.000348
3260.06	0.000575
3269.7	0.000367
3279.35	0.000206
3289	0.000344
3298.64	0.000411
3308.29	0.000458
3317.93	0.000413
3327.58	0.000334
3337.22	0.000346
3346.87	0.000296
3356.51	0.000401
3366.16	0.000259
3375.8	0.000339
3385.45	0.00031
3395.09	0.000424
3404.74	0.000454
3414.38	0.000417
3424.03	0.000257
3433.67	0.000466
3443.32	0.000416
3452.96	0.000259
3462.61	0.000561
3472.25	0.000397
3481.9	0.000401
3491.54	0.0007839
3501.19	0.000701
3510.83	0.000532
3520.48	0.000341
3530.12	0.000444
3539.77	0.000422
3549.41	0.000638
3559.06	0.0011173
3568.7	0.004052
3578.35	0.017672
3587.99	0.018712
3597.64	0.003592
3607.28	0.00080665
3616.93	0.00084677
3626.57	0.000392
3636.22	0.000307
3645.86	0.000396
3655.51	0.000504
3665.15	0.000296
3674.8	0.00042
3684.44	0.000307
3694.09	0.000236
3703.73	0.000188
3713.38	0.000252
3723.02	0.0003
3732.67	0.000223
3742.31	0.000281
3751.96	0.000211
3761.6	0.00038
3771.25	0.000432
3780.89	0.000436
3790.54	0.000283
3800.18	0.000325
3809.83	0.000303
3819.47	0.000287
3829.12	0.000233
3838.76	7.6e-05
3848.41	0.000246
3858.05	0.0002
3867.7	5.6e-05
3877.34	0.0002
3886.99	0.00014
3896.63	0.000265
3906.28	0.000237
3915.92	0.000166
3925.57	0.000204
3935.21	0.000206
3944.86	0.000281
3954.5	0.000476
3964.15	0.000321
3973.79	0.000233
3983.44	0.000123
3993.08	0.000249
