Infrared Spectrum: 3-Ethylhexane
Formula: C 8 H 18
CAS: 619-99-8
State: gas
Instrument: HP-GC/MS/IRD
Origin: NIST Mass Spectrometry Data Center
1/CM	ABSORBANCE
550	0.0002112
562	0.0001012
574	0.0001276
586	0.0001144
598	0.0001364
610	0.0002024
622	9.68e-05
634	4.4e-05
646	7.04e-05
658	0.0001144
670	0.0001628
682	0.0001144
694	0.0001408
706	0.0002156
718	0.0003168
730	0.0004752
742	0.0005324
754	0.000506
766	0.000616
778	0.000704
790	0.0005588
802	0.000374
814	0.0003916
826	0.0003872
838	0.0003564
850	0.0003036
862	0.000396
874	0.0005852
886	0.0006952
898	0.0006116
910	0.00055
922	0.000594
934	0.0004444
946	0.000308
958	0.0003036
970	0.0002288
982	0.0002288
994	0.0002244
1006	0.0003608
1018	0.0004796
1030	0.0005852
1042	0.0006512
1054	0.0005984
1066	0.0005368
1078	0.0005148
1090	0.0004576
1102	0.0003696
1114	0.0003784
1126	0.0005104
1138	0.0005588
1150	0.0004884
1162	0.0003564
1174	0.0002596
1186	0.0002376
1198	0.00022
1210	0.0002464
1222	0.0003608
1234	0.000484
1246	0.0005896
1258	0.0006072
1270	0.0006776
1282	0.0007656
1294	0.0008316
1306	0.0008668
1318	0.0008316
1330	0.0009328
1342	0.000946
1354	0.00121
1366	0.0017512
1378	0.002926
1390	0.0030712
1402	0.0015752
1414	0.00099
1426	0.001166
1438	0.00187
1450	0.004114
1462	0.0060808
1474	0.0048884
1486	0.0024464
1498	0.0011528
1510	0.0004664
1522	0.0004576
1534	0.0004708
1546	0.0003872
1558	0.0002552
1570	0.0004136
1582	0.0004796
1594	0.0004444
1606	0.000418
1618	0.0003388
1630	0.000352
1642	0.000286
1654	0.0001056
1666	0.0002244
1678	0.0001892
1690	0.000176
1702	3.52e-05
1714	7.04e-05
1726	0.0001892
1738	5.72e-05
1750	2.64e-05
1762	0.00011
1774	7.04e-05
1786	0.0001188
1798	0.0001188
1810	0.0001584
1822	0.0001408
1834	0.0001584
1846	9.24e-05
1858	0.0001364
1870	0.0001188
1882	0.000176
1894	0.000154
1906	0.0001628
1918	0.0001276
1930	0.0001364
1942	0.0001188
1954	0.0001408
1966	0.0001276
1978	0.0001364
1990	0.0001012
2002	0.0001584
2014	0.0001452
2026	0.0001584
2038	0.0001452
2050	0.0001584
2062	0.0001452
2074	0.0001276
2086	0.0001408
2098	0.000132
2110	0.0001056
2122	0.0001276
2134	0.000132
2146	0.0001056
2158	0.0001276
2170	0.0001056
2182	0.0001056
2194	0.0001188
2206	0.0001408
2218	0.00011
2230	0.0001012
2242	0.0001056
2254	0.0001012
2266	8.8e-05
2278	6.6e-05
2290	5.72e-05
2302	4.84e-05
2314	1.76e-05
2326	1.32e-05
2338	3.96e-05
2350	5.72e-05
2362	1.32e-05
2374	7.48e-05
2386	0.0001452
2398	0.0001848
2410	0.0001892
2422	0.0001628
2434	0.0001496
2446	0.0001276
2458	0.0001364
2470	0.0001452
2482	0.0001496
2494	0.0001672
2506	0.0001584
2518	0.0001364
2530	0.0001804
2542	0.0001848
2554	0.0002376
2566	0.0002684
2578	0.0003872
2590	0.0004092
2602	0.0004356
2614	0.0004488
2626	0.0004268
2638	0.0004488
2650	0.0004664
2662	0.000528
2674	0.000528
2686	0.0005984
2698	0.0006424
2710	0.0007084
2722	0.0007744
2734	0.0009504
2746	0.0010692
2758	0.0010428
2770	0.0010912
2782	0.0012452
2794	0.0015224
2806	0.0018568
2818	0.00231
2830	0.0030096
2842	0.0047784
2854	0.0094204
2866	0.016742
2878	0.0226468
2890	0.021186
2902	0.0194304
2914	0.0260964
2926	0.034914
2938	0.036234
2950	0.033198
2962	0.041536
2974	0.0384032
2986	0.017138
2998	0.006908
3010	0.0041976
3022	0.0031064
3034	0.0025476
3046	0.0020944
3058	0.0017776
3070	0.0015356
3082	0.001364
3094	0.0012188
3106	0.0011132
3118	0.0009592
3130	0.00088
3142	0.0007788
3154	0.000704
3166	0.0006424
3178	0.0005588
3190	0.000506
3202	0.0004092
3214	0.0003432
3226	0.0002904
3238	0.0002244
3250	0.0001936
3262	0.0002464
3274	0.0002024
3286	0.0002112
3298	0.0002288
3310	0.00022
3322	0.0002024
3334	0.000176
3346	0.0001848
3358	0.0001892
3370	0.000198
3382	0.0001848
3394	0.000198
3406	0.0002156
3418	0.0002112
3430	0.0001672
3442	0.0001496
3454	0.0001584
3466	0.0001496
3478	0.0001232
3490	0.0001716
3502	7.04e-05
3514	0.0001452
3526	6.6e-05
3538	0.000154
3550	0.0001056
3562	0.00011
3574	0.0002068
3586	5.72e-05
3598	0.000176
3610	7.04e-05
3622	0.0002112
3634	0.0001848
3646	0.0001848
3658	0.0002772
3670	0.0001716
3682	0.0002596
3694	0.000242
3706	0.000308
3718	0.0002376
3730	0.0002596
3742	0.000132
3754	0.0002244
3766	0.0003212
3778	0.0003344
3790	0.000374
3802	0.0002684
3814	0.0003168
3826	0.0003564
3838	0.0002508
