Infrared Spectrum: METHYL P-BROMO BENZOATE
Formula: C8 H7 Br O2
CAS: 619-42-1
State: SOLID (MULL)
Boiling point: 78-80 C
Class: COBLENTZ
Instrument: Not specified, most likely a prism, grating, or hybrid spectrometer.
Sampling: TRANSMISSION
Resolution: 4
Origin: WYANDOTTE CHEMICALS CORP., WYANDOTTE, MICHIGAN, USA
MICROMETERS	TRANSMITTANCE
2.031	0.511
2.07081	0.506
2.11063	0.513
2.15044	0.513
2.19026	0.509
2.23007	0.509
2.26989	0.514
2.3097	0.519
2.34951	0.519
2.38933	0.526
2.42914	0.543
2.46896	0.541
2.50877	0.551
2.54859	0.561
2.5884	0.566
2.62822	0.563
2.66803	0.568
2.70784	0.573
2.74766	0.583
2.78747	0.578
2.82729	0.578
2.8671	0.588
2.90692	0.573
2.94673	0.538
2.98654	0.549
3.02636	0.563
3.06617	0.566
3.10599	0.569
3.1458	0.564
3.18562	0.558
3.22543	0.549
3.26524	0.523
3.30506	0.475
3.34487	0.119
3.38469	0.028
3.4245	0.033
3.46432	0.056
3.50413	0.046
3.54395	0.32
3.58376	0.418
3.62357	0.441
3.66339	0.431
3.7032	0.438
3.74302	0.438
3.78283	0.448
3.82265	0.45
3.86246	0.451
3.90227	0.455
3.94209	0.461
3.9819	0.48
4.02172	0.496
4.06153	0.5
4.10135	0.508
4.14116	0.513
4.18097	0.518
4.22079	0.506
4.2606	0.496
4.30042	0.504
4.34023	0.518
4.38005	0.529
4.41986	0.546
4.45968	0.541
4.49949	0.548
4.5393	0.553
4.57912	0.563
4.61893	0.579
4.65875	0.581
4.69856	0.599
4.73838	0.599
4.77819	0.601
4.818	0.596
4.85782	0.606
4.89763	0.607
4.93745	0.621
4.97726	0.637
5.01708	0.639
5.05689	0.656
5.0967	0.667
5.13652	0.686
5.17633	0.681
5.21615	0.579
5.25596	0.674
5.29578	0.692
5.33559	0.729
5.37541	0.747
5.41522	0.774
5.45503	0.787
5.49485	0.807
5.53466	0.792
5.57448	0.795
5.61429	0.857
5.65411	0.895
5.69392	0.965
5.73373	0.828
5.77355	0.272
5.81336	0.043
5.85318	0.043
5.89299	0.109
5.93281	0.174
5.97262	0.244
6.01243	0.355
6.05225	0.403
6.09206	0.456
6.13188	0.504
6.17169	0.546
6.21151	0.617
6.25132	0.091
6.29114	0.33
6.33095	0.425
6.37076	0.47
6.41058	0.509
6.45039	0.514
6.49021	0.563
6.53002	0.588
6.56984	0.573
6.60965	0.609
6.64946	0.654
6.68928	0.543
6.72909	0.345
6.76891	0.28
6.80872	0.116
6.84854	0.093
6.88835	0.091
6.92816	0.053
6.96798	0.247
7.00779	0.446
7.04761	0.541
7.08742	0.544
7.12724	0.277
7.16705	0.137
7.20687	0.312
7.24668	0.23
7.28649	0.192
7.32631	0.4
7.36612	0.611
7.40594	0.636
7.44575	0.573
7.48557	0.418
7.52538	0.322
7.56519	0.373
7.60501	0.327
7.64482	0.194
7.68464	0.098
7.72445	0.098
7.76427	0.029
7.80408	0.028
7.84389	0.026
7.88371	0.033
7.92352	0.069
7.96334	0.126
8.00315	0.116
8.04297	0.167
8.08278	0.24
8.1226	0.315
8.16241	0.373
8.20222	0.44
8.24204	0.478
8.28185	0.461
8.32167	0.353
8.36148	0.111
8.4013	0.303
8.44111	0.463
8.48092	0.45
8.52074	0.164
8.56055	0.4
8.60037	0.466
8.64018	0.541
8.68	0.571
8.71981	0.583
8.75962	0.593
8.79944	0.669
8.83925	0.687
8.87907	0.558
8.91888	0.181
8.9587	0.029
8.99851	0.054
9.03833	0.044
9.07814	0.119
9.11795	0.149
9.15777	0.107
9.19758	0.222
9.2374	0.34
9.27721	0.348
9.31703	0.121
9.35684	0.275
9.39665	0.365
9.43647	0.408
9.47628	0.443
9.5161	0.458
9.55591	0.478
9.59573	0.508
9.63554	0.541
9.67535	0.578
9.71517	0.612
9.75498	0.647
9.7948	0.679
9.83461	0.531
9.87443	0.139
9.91424	0.106
9.95406	0.24
9.99387	0.335
10.0337	0.408
10.0735	0.453
10.1133	0.49
10.1531	0.509
10.1929	0.526
10.2328	0.528
10.2726	0.496
10.3124	0.524
10.3522	0.498
10.392	0.352
10.4318	0.335
10.4716	0.244
10.5115	0.323
10.5513	0.383
10.5911	0.421
10.6309	0.456
10.6707	0.466
10.7105	0.5
10.7503	0.511
10.7902	0.533
10.83	0.546
10.8698	0.559
10.9096	0.566
10.9494	0.578
10.9892	0.593
11.029	0.606
11.0689	0.614
11.1087	0.622
11.1485	0.626
11.1883	0.629
11.2281	0.631
11.2679	0.629
11.3077	0.627
11.3476	0.636
11.3874	0.642
11.4272	0.641
11.467	0.637
11.5068	0.641
11.5466	0.632
11.5864	0.624
11.6263	0.601
11.6661	0.504
11.7059	0.345
11.7457	0.35
11.7855	0.249
11.8253	0.124
11.8651	0.242
11.905	0.602
11.9448	0.704
11.9846	0.727
12.0244	0.656
12.0642	0.4
12.104	0.249
12.1438	0.315
12.1837	0.367
12.2235	0.418
12.2633	0.478
12.3031	0.544
12.3429	0.581
12.3827	0.614
12.4225	0.627
12.4624	0.641
12.5022	0.647
12.542	0.649
12.5818	0.649
12.6216	0.656
12.6614	0.649
12.7012	0.646
12.7411	0.639
12.7809	0.632
12.8207	0.634
12.8605	0.621
12.9003	0.599
12.9401	0.578
12.9799	0.534
13.0198	0.475
13.0596	0.385
13.0994	0.234
13.1392	0.084
13.179	0.029
13.2188	0.053
13.2586	0.151
13.2985	0.337
13.3383	0.461
13.3781	0.516
13.4179	0.593
13.4577	0.641
13.4975	0.666
13.5373	0.677
13.5772	0.682
13.617	0.699
13.6568	0.704
13.6966	0.707
13.7364	0.712
13.7762	0.717
13.816	0.714
13.8559	0.715
13.8957	0.722
13.9355	0.73
13.9753	0.749
14.0151	0.767
14.0549	0.767
14.0947	0.745
14.1346	0.682
14.1744	0.646
14.2142	0.689
14.254	0.727
14.2938	0.749
14.3336	0.754
14.3734	0.749
14.4133	0.737
14.4531	0.72
14.4929	0.697
14.5327	0.642
14.5725	0.518
14.6123	0.401
14.6521	0.345
14.692	0.401
14.7318	0.543
14.7716	0.602
14.8114	0.656
14.8512	0.692
14.891	0.707
14.9308	0.727
14.9707	0.719
15.0105	0.687
15.0503	0.647
15.0901	0.656
15.1299	0.694
15.1697	0.72
15.2095	0.719
15.2494	0.699
15.2892	0.691
15.329	0.684
15.3688	0.666
15.4086	0.654
15.4484	0.647
15.4882	0.631
15.5281	0.629
15.5679	0.627
15.6077	0.616
15.6475	0.607
15.6873	0.601
15.7271	0.583
15.7669	0.578
15.8068	0.558
15.8466	0.544
15.8864	0.536
15.9262	0.518
15.966	0.486
