Infrared Spectrum: 3-Hydroxy-4-nitrobenzoic acid
Formula: C 7 H 5 N O 5
CAS: 619-14-7
State: gas
Origin: EPA-IR VAPOR PHASE LIBRARY
1/CM	ABSORBANCE
549.8	0.0013632
559.445	0.0014224
569.09	0.001889
578.735	0.0013812
588.38	0.001739
598.025	0.002339
607.67	0.002219
617.315	0.0014675
626.96	0.0010887
636.605	0.0012703
646.251	0.0014014
655.896	0.002269
665.541	0.001819
675.186	0.001589
684.831	0.001569
694.476	0.0012027
704.121	0.0010661
713.766	0.0010458
723.411	0.002589
733.056	0.003769
742.701	0.002829
752.346	0.002619
761.991	0.001769
771.636	0.0012339
781.281	0.0012085
790.926	0.0015238
800.571	0.002589
810.216	0.003139
819.861	0.002519
829.507	0.002479
839.152	0.003179
848.797	0.002669
858.442	0.001669
868.087	0.0014793
877.732	0.0013662
887.377	0.001649
897.022	0.002059
906.667	0.001549
916.312	0.0010348
925.957	0.0010939
935.602	0.001789
945.247	0.001729
954.892	0.0009594
964.537	0.0008034
974.182	0.0006913
983.827	0.00062332
993.472	0.000656
1003.12	0.0008732
1012.76	0.0011108
1022.41	0.001679
1032.05	0.002779
1041.7	0.003419
1051.34	0.003229
1060.99	0.004209
1070.63	0.005129
1080.28	0.005019
1089.92	0.005669
1099.57	0.004859
1109.21	0.003369
1118.86	0.002369
1128.5	0.002509
1138.15	0.003829
1147.79	0.005659
1157.44	0.006909
1167.08	0.006119
1176.73	0.004559
1186.37	0.003909
1196.02	0.003859
1205.66	0.003549
1215.31	0.002919
1224.95	0.003299
1234.6	0.003839
1244.24	0.003439
1253.89	0.003299
1263.53	0.004209
1273.18	0.004169
1282.82	0.003809
1292.47	0.004239
1302.11	0.003909
1311.76	0.004729
1321.4	0.006549
1331.05	0.007159
1340.69	0.005189
1350.34	0.003509
1359.98	0.003369
1369.63	0.003049
1379.27	0.002519
1388.92	0.001879
1398.56	0.0012696
1408.21	0.0008821
1417.85	0.0009858
1427.5	0.001599
1437.14	0.002229
1446.79	0.002649
1456.43	0.002079
1466.08	0.001729
1475.73	0.002949
1485.37	0.003539
1495.02	0.002249
1504.66	0.001589
1514.31	0.0013444
1523.95	0.001096
1533.6	0.0015049
1543.24	0.002079
1552.89	0.001969
1562.53	0.0013879
1572.18	0.0015204
1581.82	0.003009
1591.47	0.004179
1601.11	0.003489
1610.76	0.002379
1620.4	0.002889
1630.05	0.002909
1639.69	0.001549
1649.34	0.0008639
1658.98	0.00054662
1668.63	0.0004935
1678.27	0.0004357
1687.92	0.0004598
1697.56	0.00049
1707.21	0.00061868
1716.85	0.0011061
1726.5	0.002469
1736.14	0.001699
1745.79	0.0014029
1755.43	0.004369
1765.08	0.010759
1774.72	0.008859
1784.37	0.002539
1794.01	0.0013677
1803.66	0.0013519
1813.3	0.0013233
1822.95	0.0008375
1832.59	0.00055372
1842.24	0.000407
1851.88	0.000408
1861.53	0.000391
1871.17	0.000371
1880.82	0.000374
1890.46	0.000371
1900.11	0.000325
1909.75	0.000345
1919.4	0.000353
1929.04	0.000346
1938.69	0.00032
1948.33	0.000269
1957.98	0.000278
1967.62	0.000252
1977.27	0.000286
1986.91	0.000292
1996.56	0.000292
2006.2	0.000311
2015.85	0.000286
2025.49	0.000329
2035.14	0.000294
2044.78	0.000344
2054.43	0.000286
2064.07	0.000277
2073.72	0.000258
2083.36	0.000257
2093.01	0.000258
2102.65	0.000362
2112.3	0.000347
2121.94	0.000352
2131.59	0.000349
2141.23	0.000288
2150.88	0.000371
2160.52	0.000396
2170.17	0.000373
2179.81	0.000357
2189.46	0.000379
2199.1	0.000353
2208.75	0.000364
2218.39	0.000372
2228.04	0.000332
2237.68	0.000317
2247.33	0.000319
2256.97	0.000383
2266.62	0.000386
2276.26	0.000372
2285.91	0.000353
2295.55	0.000343
2305.2	0.000426
2314.84	0.00042
2324.49	0.000418
2334.13	0.000368
2343.78	0.000421
2353.42	0.000341
2363.07	0.000425
2372.72	0.0004315
2382.36	0.000405
2392.01	0.0004451
2401.65	0.000427
2411.3	0.000389
2420.94	0.000394
2430.59	0.000373
2440.23	0.0004495
2449.88	0.000369
2459.52	0.000349
2469.17	0.00039
2478.81	0.000382
2488.46	0.000374
2498.1	0.000405
2507.75	0.000354
2517.39	0.000379
2527.04	0.00039
2536.68	0.000401
2546.33	0.000426
2555.97	0.0004527
2565.62	0.0004321
2575.26	0.000396
2584.91	0.00039
2594.55	0.000422
2604.2	0.0004345
2613.84	0.0004491
2623.49	0.000355
2633.13	0.000429
2642.78	0.000401
2652.42	0.0004428
2662.07	0.000386
2671.71	0.000395
2681.36	0.0004752
2691	0.000406
2700.65	0.000369
2710.29	0.00042
2719.94	0.0004495
2729.58	0.000349
2739.23	0.0004651
2748.87	0.0005156
2758.52	0.000363
2768.16	0.00044
2777.81	0.0004746
2787.45	0.0004574
2797.1	0.000391
2806.74	0.000482
2816.39	0.0004544
2826.03	0.00039
2835.68	0.000425
2845.32	0.000372
2854.97	0.00058226
2864.61	0.0006364
2874.26	0.00055652
2883.9	0.0004913
2893.55	0.00055636
2903.19	0.0007854
2912.84	0.0011
2922.48	0.0011472
2932.13	0.0009956
2941.77	0.000891
2951.42	0.0009468
2961.06	0.0009851
2970.71	0.0013146
2980.35	0.0008319
2990	0.0004924
2999.64	0.00056692
3009.29	0.000389
3018.93	0.000334
3028.58	0.000422
3038.22	0.0004633
3047.87	0.0004573
3057.51	0.00054339
3067.16	0.0005475
3076.8	0.00056216
3086.45	0.000502
3096.09	0.000426
3105.74	0.000291
3115.38	0.000329
3125.03	0.000242
3134.67	0.000395
3144.32	0.000379
3153.96	0.000251
3163.61	0.000216
3173.25	0.000341
3182.9	0.000419
3192.54	0.000291
3202.19	0.000329
3211.83	0.000315
3221.48	0.00048
3231.12	0.0004954
3240.77	0.0006243
3250.41	0.0008239
3260.06	0.0009356
3269.7	0.0011402
3279.35	0.0011022
3289	0.0010685
3298.64	0.0010586
3308.29	0.0009058
3317.93	0.000899
3327.58	0.0007402
3337.22	0.0007817
3346.87	0.0007091
3356.51	0.0006868
3366.16	0.00062262
3375.8	0.00058971
3385.45	0.00060365
3395.09	0.0004505
3404.74	0.0004729
3414.38	0.000397
3424.03	0.0004623
3433.67	0.000425
3443.32	0.000396
3452.96	0.000262
3462.61	0.000224
3472.25	0.000331
3481.9	0.000299
3491.54	0.000256
3501.19	0.000322
3510.83	0.000416
3520.48	0.0004568
3530.12	0.000407
3539.77	0.000281
3549.41	0.000389
3559.06	0.00056542
3568.7	0.001799
3578.35	0.004939
3587.99	0.002969
3597.64	0.000528618
3607.28	0.000355
3616.93	0.00027
3626.57	0.000166
3636.22	0.000413
3645.86	0.000426
3655.51	0.000332
3665.15	0.000309
3674.8	0.000229
3684.44	0.000288
3694.09	0.000342
3703.73	0
3713.38	0.000261
3723.02	0.000127
3732.67	0.000245
3742.31	0.000109
3751.96	0.000135
3761.6	0.000206
3771.25	0.000244
3780.89	0.000131
3790.54	0.000226
3800.18	0.000185
3809.83	0.000217
3819.47	0.000323
3829.12	0.000189
3838.76	0.00032
3848.41	0.000148
3858.05	0.00022
3867.7	0.00026
3877.34	0.000224
3886.99	8.3e-05
3896.63	0.000157
3906.28	0.000214
3915.92	0.000113
3925.57	0.000221
3935.21	0.00031
3944.86	0.000294
3954.5	0.000174
3964.15	0.000304
3973.79	0.000416
3983.44	0.000295
3993.08	0.000226
