Infrared Spectrum: 2-NORBORNANONE, 3-CHLORO-
Formula: C7 H9 Cl O
CAS: 61914-03-2
State: SOLUTION (10% CCl4 FOR 4000-1340, 10% CS2 FOR 1340-450 CM^-^1) VS SOLVENT
Class: COBLENTZ III
Instrument: CARY 90 (GRATING)
Instrument parameters: ORDER CHANGES: 3000, 2000, 1200 CM^-^1
Sampling: TRANSMISSION
Path length: 0.010 CM, AND 0.011 CM
Resolution: 2
Origin: WESTERN REGIONAL RES. USDA
1/CM	TRANSMITTANCE
3998	0.9164
3989	0.917
3980	0.9177
3971	0.9182
3962	0.9187
3953	0.9184
3944	0.9182
3935	0.918
3926	0.919
3917	0.92
3908	0.9228
3899	0.9268
3890	0.9318
3881	0.9368
3872	0.9405
3863	0.9425
3854	0.9444
3845	0.9454
3836	0.9465
3827	0.9471
3818	0.9473
3809	0.9465
3800	0.945
3791	0.943
3782	0.9408
3773	0.939
3764	0.9373
3755	0.9347
3746	0.9321
3737	0.9298
3728	0.9275
3719	0.9251
3710	0.9225
3701	0.9209
3692	0.922
3683	0.9238
3674	0.9255
3665	0.9265
3656	0.9236
3647	0.9196
3638	0.9156
3629	0.9111
3620	0.9068
3611	0.9027
3602	0.8985
3593	0.8935
3584	0.8897
3575	0.8865
3566	0.8828
3557	0.8777
3548	0.8716
3539	0.8643
3530	0.8552
3521	0.8363
3512	0.7901
3503	0.8078
3494	0.8335
3485	0.8471
3476	0.8498
3467	0.8508
3458	0.8513
3449	0.8508
3440	0.8506
3431	0.8504
3422	0.8502
3413	0.8501
3404	0.8507
3395	0.8513
3386	0.8521
3377	0.854
3368	0.8567
3359	0.8583
3350	0.8597
3341	0.861
3332	0.8623
3323	0.8635
3314	0.8648
3305	0.866
3296	0.8668
3287	0.8678
3278	0.8687
3269	0.8696
3260	0.8704
3251	0.8713
3242	0.8718
3233	0.8723
3224	0.8731
3215	0.8746
3206	0.8762
3197	0.8784
3188	0.8808
3179	0.8831
3170	0.8864
3161	0.8897
3152	0.8917
3143	0.8934
3134	0.8937
3125	0.8936
3116	0.8933
3107	0.893
3098	0.8927
3089	0.8918
3080	0.8906
3071	0.8882
3062	0.8852
3053	0.8792
3044	0.8712
3035	0.8583
3026	0.8398
3017	0.7635
3008	0.6553
2999	0.547
2990	0.4388
2981	0.3305
2972	0.2282
2963	0.2374
2954	0.3629
2945	0.4909
2936	0.5667
2927	0.6705
2918	0.6072
2909	0.7505
2900	0.6817
2891	0.493
2882	0.3343
2873	0.6394
2864	0.8258
2855	0.8678
2846	0.8818
2837	0.8892
2828	0.8941
2819	0.8968
2810	0.8997
2801	0.9018
2792	0.9031
2783	0.9043
2774	0.9053
2765	0.9057
2756	0.9062
2747	0.9067
2738	0.9071
2729	0.9075
2720	0.9083
2711	0.9092
2702	0.9102
2693	0.9111
2684	0.9121
2675	0.913
2666	0.9139
2657	0.9149
2648	0.9158
2639	0.9167
2630	0.9175
2621	0.9185
2612	0.9193
2603	0.9193
2594	0.9192
2585	0.9192
2576	0.9192
2567	0.9192
2558	0.9192
2549	0.9192
2540	0.9194
2531	0.9197
2522	0.92
2513	0.9202
2504	0.9206
2495	0.9208
2486	0.9211
2477	0.9213
2468	0.9216
2459	0.9216
2450	0.9215
2441	0.9215
2432	0.9207
2423	0.9198
2414	0.9192
2405	0.9203
2396	0.9214
2387	0.9256
2378	0.9315
2369	0.9283
2360	0.9175
2351	0.9125
2342	0.9114
2333	0.9131
2324	0.9161
2315	0.9182
2306	0.9193
2297	0.9198
2288	0.9203
2279	0.917
2270	0.9137
2261	0.9121
2252	0.9141
2243	0.9181
2234	0.9212
2225	0.9237
2216	0.9233
2207	0.9225
2198	0.9216
2189	0.9208
2180	0.92
2171	0.9194
2162	0.919
2153	0.9184
2144	0.9178
2135	0.917
2126	0.9161
2117	0.9151
2108	0.9142
2099	0.9137
2090	0.9132
2081	0.9125
2072	0.9121
2063	0.9118
2054	0.9125
2045	0.9131
2036	0.9127
2027	0.9106
2018	0.9081
2009	0.9055
2000	0.9015
1991	0.8947
1982	0.8904
1973	0.8868
1964	0.8885
1955	0.8918
1946	0.8942
1937	0.89
1928	0.8827
1919	0.8887
1910	0.8955
1901	0.8967
1892	0.8906
1883	0.8847
1874	0.8792
1865	0.8743
1856	0.8692
1847	0.8633
1838	0.8511
1829	0.7711
1820	0.7015
1811	0.7831
1802	0.7438
1793	0.6469
1784	0.3546
1775	0.0814
1766	0.0052
1757	0.0228
1748	0.4708
1739	0.5907
1730	0.6622
1721	0.7355
1712	0.7801
1703	0.8383
1694	0.8543
1685	0.8357
1676	0.8582
1667	0.8687
1658	0.8651
1649	0.8648
1640	0.8701
1631	0.8677
1622	0.8536
1613	0.826
1604	0.823
1595	0.8475
1586	0.8618
1577	0.8739
1568	0.8778
1559	0.8908
1550	0.901
1541	0.9025
1532	0.9005
1523	0.8984
1514	0.8894
1505	0.875
1496	0.8727
1487	0.849
1478	0.7151
1469	0.7925
1460	0.5682
1451	0.6338
1442	0.8
1433	0.8339
1424	0.8517
1415	0.8583
1406	0.8647
1397	0.8717
1388	0.88
1379	0.8824
1370	0.8845
1361	0.8781
1352	0.8746
1343	0.8787
1334	0.8762
1325	0.8568
1316	0.8025
1307	0.4655
1298	0.6611
1289	0.6895
1280	0.7038
1271	0.7875
1262	0.7468
1253	0.7456
1244	0.7471
1235	0.6285
1226	0.7094
1217	0.6878
1208	0.7349
1199	0.5619
1190	0.6396
1181	0.6654
1172	0.3908
1163	0.7382
1154	0.7842
1145	0.7253
1136	0.8157
1127	0.8228
1118	0.7015
1109	0.5376
1100	0.828
1091	0.8237
1082	0.7671
1073	0.2424
1064	0.6047
1055	0.8146
1046	0.8246
1037	0.8175
1028	0.7292
1019	0.8053
1010	0.8418
1001	0.8647
992	0.8645
983	0.8585
974	0.8475
965	0.7261
956	0.6633
947	0.7462
938	0.3142
929	0.7305
920	0.8405
911	0.6725
902	0.7648
893	0.8471
884	0.8178
875	0.5766
866	0.77
857	0.7918
848	0.6865
839	0.327
830	0.7832
821	0.8287
812	0.7858
803	0.6624
794	0.8165
785	0.8459
776	0.8625
767	0.8599
758	0.8074
749	0.2557
740	0.6536
731	0.8304
722	0.8395
713	0.8169
704	0.728
695	0.4652
686	0.5199
677	0.8078
668	0.8497
659	0.8072
650	0.5155
641	0.616
632	0.8025
623	0.8558
614	0.8771
605	0.8882
596	0.8925
587	0.8924
578	0.8889
569	0.8711
560	0.8821
551	0.8355
542	0.7604
533	0.8937
524	0.8897
515	0.9078
506	0.8921
497	0.8614
488	0.82
479	0.5023
470	0.9496
