Infrared Spectrum: P-TOLUENE SULFONIC ACID MONOHYDRATE
Formula: C7 H8 O3 S  * H2 O
CAS: 6192-52-5
State: SOLID (MINERAL OIL MULL)
Class: COBLENTZ
Instrument: Not specified, most likely a prism, grating, or hybrid spectrometer.
Sampling: TRANSMISSION
Resolution: 4
Origin: WYANDOTTE CHEMICALS CORP., WYANDOTTE, MICHIGAN, USA
MICROMETERS	TRANSMITTANCE
2.034	0.783
2.0748	0.809
2.11559	0.829
2.15639	0.843
2.19719	0.853
2.23799	0.86
2.27878	0.887
2.31958	0.906
2.36038	0.925
2.40117	0.935
2.44197	0.947
2.48277	0.962
2.52356	0.962
2.56436	0.989
2.60516	0.994
2.64596	1.01
2.68675	1.003
2.72755	0.991
2.76835	0.945
2.80914	0.858
2.84994	0.764
2.89074	0.698
2.93154	0.632
2.97233	0.601
3.01313	0.645
3.05393	0.671
3.09472	0.659
3.13552	0.654
3.17632	0.616
3.21712	0.56
3.25791	0.495
3.29871	0.41
3.33951	0.202
3.3803	0.054
3.4211	0.054
3.4619	0.069
3.50269	0.069
3.54349	0.195
3.58429	0.26
3.62509	0.272
3.66588	0.267
3.70668	0.258
3.74748	0.258
3.78827	0.26
3.82907	0.252
3.86987	0.253
3.91067	0.265
3.95146	0.275
3.99226	0.281
4.03306	0.287
4.07385	0.291
4.11465	0.298
4.15545	0.311
4.19625	0.333
4.23704	0.356
4.27784	0.364
4.31864	0.395
4.35943	0.393
4.40023	0.333
4.44103	0.286
4.48182	0.272
4.52262	0.264
4.56342	0.26
4.60422	0.264
4.64501	0.269
4.68581	0.279
4.72661	0.296
4.7674	0.31
4.8082	0.328
4.849	0.345
4.8898	0.352
4.93059	0.361
4.97139	0.376
5.01219	0.39
5.05298	0.4
5.09378	0.403
5.13458	0.402
5.17537	0.398
5.21617	0.374
5.25697	0.349
5.29777	0.347
5.33856	0.339
5.37936	0.328
5.42016	0.321
5.46095	0.32
5.50175	0.325
5.54255	0.335
5.58335	0.347
5.62414	0.359
5.66494	0.367
5.70574	0.393
5.74653	0.417
5.78733	0.424
5.82813	0.425
5.86893	0.431
5.90972	0.432
5.95052	0.419
5.99132	0.398
6.03211	0.403
6.07291	0.442
6.11371	0.536
6.1545	0.611
6.1953	0.522
6.2361	0.62
6.2769	0.676
6.31769	0.7
6.35849	0.706
6.39929	0.73
6.44008	0.737
6.48088	0.749
6.52168	0.735
6.56248	0.737
6.60327	0.689
6.64407	0.579
6.68487	0.654
6.72566	0.568
6.76646	0.388
6.80726	0.294
6.84805	0.354
6.88885	0.49
6.92965	0.626
6.97045	0.712
7.01124	0.739
7.05204	0.732
7.09284	0.63
7.13363	0.667
7.17443	0.703
7.21523	0.57
7.25603	0.621
7.29682	0.708
7.33762	0.771
7.37842	0.793
7.41921	0.824
7.46001	0.833
7.50081	0.846
7.54161	0.834
7.5824	0.816
7.6232	0.79
7.664	0.812
7.70479	0.788
7.74559	0.77
7.78639	0.763
7.82718	0.73
7.86798	0.686
7.90878	0.637
7.94958	0.586
7.99037	0.538
8.03117	0.497
8.07197	0.442
8.11276	0.371
8.15356	0.299
8.19436	0.235
8.23516	0.182
8.27595	0.141
8.31675	0.107
8.35755	0.095
8.39834	0.088
8.43914	0.09
8.47994	0.093
8.52074	0.109
8.56153	0.114
8.60233	0.143
8.64313	0.146
8.68392	0.139
8.72472	0.122
8.76552	0.097
8.80631	0.076
8.84711	0.071
8.88791	0.078
8.92871	0.083
8.9695	0.08
9.0103	0.088
9.0511	0.09
9.09189	0.11
9.13269	0.117
9.17349	0.137
9.21429	0.16
9.25508	0.19
9.29588	0.221
9.33668	0.247
9.37747	0.264
9.41827	0.274
9.45907	0.252
9.49986	0.201
9.54066	0.132
9.58146	0.097
9.62226	0.088
9.66305	0.115
9.70385	0.218
9.74465	0.344
9.78544	0.403
9.82624	0.252
9.86704	0.107
9.90784	0.097
9.94863	0.141
9.98943	0.204
10.0302	0.265
10.071	0.32
10.1118	0.376
10.1526	0.419
10.1934	0.456
10.2342	0.487
10.275	0.514
10.3158	0.543
10.3566	0.563
10.3974	0.584
10.4382	0.603
10.479	0.611
10.5198	0.606
10.5606	0.625
10.6014	0.65
10.6422	0.66
10.683	0.672
10.7238	0.686
10.7646	0.693
10.8054	0.701
10.8462	0.706
10.887	0.725
10.9278	0.737
10.9686	0.746
11.0094	0.749
11.0502	0.764
11.091	0.768
11.1317	0.771
11.1725	0.776
11.2133	0.783
11.2541	0.788
11.2949	0.79
11.3357	0.798
11.3765	0.8
11.4173	0.802
11.4581	0.802
11.4989	0.802
11.5397	0.792
11.5805	0.79
11.6213	0.78
11.6621	0.783
11.7029	0.758
11.7437	0.686
11.7845	0.742
11.8253	0.72
11.8661	0.732
11.9069	0.793
11.9477	0.79
11.9885	0.79
12.0293	0.776
12.0701	0.763
12.1109	0.737
12.1517	0.683
12.1925	0.551
12.2333	0.328
12.2741	0.252
12.3149	0.373
12.3557	0.614
12.3965	0.695
12.4373	0.734
12.4781	0.751
12.5188	0.759
12.5596	0.758
12.6004	0.749
12.6412	0.749
12.682	0.744
12.7228	0.739
12.7636	0.741
12.8044	0.741
12.8452	0.742
12.886	0.747
12.9268	0.741
12.9676	0.735
13.0084	0.724
13.0492	0.713
13.09	0.698
13.1308	0.686
13.1716	0.696
13.2124	0.703
13.2532	0.698
13.294	0.698
13.3348	0.698
13.3756	0.691
13.4164	0.689
13.4572	0.679
13.498	0.676
13.5388	0.681
13.5796	0.681
13.6204	0.684
13.6612	0.693
13.702	0.696
13.7428	0.696
13.7836	0.698
13.8244	0.698
13.8652	0.693
13.9059	0.686
13.9467	0.676
13.9875	0.662
14.0283	0.64
14.0691	0.594
14.1099	0.558
14.1507	0.521
14.1915	0.516
14.2323	0.551
14.2731	0.599
14.3139	0.625
14.3547	0.643
14.3955	0.647
14.4363	0.638
14.4771	0.616
14.5179	0.582
14.5587	0.541
14.5995	0.502
14.6403	0.453
14.6811	0.398
14.7219	0.356
14.7627	0.318
14.8035	0.299
14.8443	0.289
14.8851	0.298
14.9259	0.328
14.9667	0.357
15.0075	0.385
15.0483	0.429
15.0891	0.488
15.1299	0.531
15.1707	0.55
15.2115	0.565
15.2523	0.574
15.293	0.586
15.3338	0.582
15.3746	0.582
15.4154	0.582
15.4562	0.58
15.497	0.575
15.5378	0.575
15.5786	0.57
15.6194	0.567
15.6602	0.563
15.701	0.551
15.7418	0.538
15.7826	0.528
15.8234	0.519
15.8642	0.516
15.905	0.507
15.9458	0.497
15.9866	0.48
