Infrared Spectrum: 2-Amino-3,4,5-trimethoxybenzoic acid
Formula: C 10 H 13 N O 5
CAS: 61948-85-4
State: gas
Origin: EPA-IR VAPOR PHASE LIBRARY
1/CM	ABSORBANCE
549.8	0.01699
559.445	0.01097
569.09	0.00782
578.734	0.00702
588.379	0.00904
598.024	0.00934
607.669	0.00744
617.313	0.00607
626.958	0.00844
636.603	0.01617
646.248	0.02547
655.893	0.01918
665.537	0.01189
675.182	0.00987
684.827	0.0112
694.472	0.01333
704.116	0.01509
713.761	0.01434
723.406	0.00928
733.051	0.00703
742.695	0.00681
752.34	0.00744
761.985	0.00832
771.63	0.01036
781.275	0.01267
790.919	0.01768
800.564	0.01354
810.209	0.00805
819.854	0.00673
829.498	0.00631
839.143	0.00731
848.788	0.00729
858.433	0.00743
868.078	0.00643
877.722	0.00652
887.367	0.0061
897.012	0.00659
906.657	0.00815
916.301	0.01125
925.946	0.01149
935.591	0.00775
945.236	0.00691
954.88	0.00733
964.525	0.01086
974.17	0.02024
983.815	0.02488
993.46	0.01591
1003.1	0.01412
1012.75	0.02394
1022.39	0.04398
1032.04	0.03933
1041.68	0.03425
1051.33	0.05578
1060.97	0.06625
1070.62	0.05073
1080.26	0.04493
1089.91	0.04686
1099.55	0.04166
1109.2	0.03667
1118.84	0.0432
1128.49	0.07772
1138.13	0.14517
1147.78	0.15063
1157.42	0.08334
1167.07	0.04908
1176.71	0.03762
1186.36	0.03556
1196	0.03895
1205.64	0.03426
1215.29	0.02608
1224.93	0.02475
1234.58	0.02347
1244.22	0.01983
1253.87	0.02223
1263.51	0.03174
1273.16	0.04342
1282.8	0.048
1292.45	0.03232
1302.09	0.02163
1311.74	0.01969
1321.38	0.02007
1331.03	0.01969
1340.67	0.02131
1350.32	0.02519
1359.96	0.03395
1369.61	0.04953
1379.25	0.04935
1388.9	0.0301
1398.54	0.01801
1408.18	0.01664
1417.83	0.03034
1427.47	0.05031
1437.12	0.04499
1446.76	0.03439
1456.41	0.05243
1466.05	0.07234
1475.7	0.06423
1485.34	0.06115
1494.99	0.03495
1504.63	0.016
1514.28	0.0117
1523.92	0.01276
1533.57	0.01921
1543.21	0.03429
1552.86	0.03936
1562.5	0.02524
1572.15	0.01953
1581.79	0.02858
1591.44	0.04047
1601.08	0.03198
1610.73	0.02503
1620.37	0.02119
1630.01	0.01146
1639.66	0.00701
1649.3	0.00614
1658.95	0.00644
1668.59	0.00667
1678.24	0.00777
1687.88	0.00955
1697.53	0.01459
1707.17	0.03319
1716.82	0.10635
1726.46	0.12939
1736.11	0.05421
1745.75	0.0356
1755.4	0.01564
1765.04	0.0085
1774.69	0.00682
1784.33	0.00671
1793.98	0.00587
1803.62	0.00385
1813.27	0.00258
1822.91	0.00227
1832.55	0.00214
1842.2	0.00199
1851.84	0.00177
1861.49	0.00178
1871.13	0.00169
1880.78	0.00166
1890.42	0.00172
1900.07	0.00163
1909.71	0.00196
1919.36	0.0018
1929	0.00201
1938.65	0.00232
1948.29	0.00203
1957.94	0.00195
1967.58	0.00187
1977.23	0.0017
1986.87	0.0018
1996.52	0.00186
2006.16	0.00194
2015.81	0.00187
2025.45	0.00189
2035.1	0.00198
2044.74	0.00183
2054.38	0.00178
2064.03	0.00157
2073.67	0.00156
2083.32	0.00152
2092.96	0.00132
2102.61	0.00156
2112.25	0.00169
2121.9	0.00155
2131.54	0.00167
2141.19	0.00169
2150.83	0.00157
2160.48	0.00148
2170.12	0.00152
2179.77	0.00145
2189.41	0.00142
2199.06	0.00157
2208.7	0.00125
2218.35	0.0009837
2227.99	0.0007871
2237.64	0.0009496
2247.28	0.0008237
2256.92	0.0009367
2266.57	0.0008881
2276.21	0.000733
2285.86	0.00113
2295.5	0.00121
2305.15	0.00137
2314.79	0.00144
2324.44	0.00158
2334.08	0.0014
2343.73	0.00127
2353.37	0.00127
2363.02	0.00154
2372.66	0.0015
2382.31	0.00128
2391.95	0.00111
2401.6	0.00118
2411.24	0.0009558
2420.89	0.0011
2430.53	0.0009589
2440.18	0.00124
2449.82	0.00108
2459.47	0.0012
2469.11	0.00101
2478.75	0.00104
2488.4	0.00105
2498.04	0.00106
2507.69	0.00113
2517.33	0.00109
2526.98	0.00127
2536.62	0.00101
2546.27	0.0009197
2555.91	0.0009793
2565.56	0.0009203
2575.2	0.0009074
2584.85	0.00102
2594.49	0.00125
2604.14	0.00126
2613.78	0.00118
2623.43	0.00116
2633.07	0.00133
2642.72	0.00123
2652.36	0.00146
2662.01	0.0013
2671.65	0.00124
2681.29	0.00128
2690.94	0.00119
2700.58	0.00135
2710.23	0.00147
2719.87	0.00144
2729.52	0.00137
2739.16	0.00132
2748.81	0.00148
2758.45	0.00144
2768.1	0.00165
2777.74	0.00183
2787.39	0.0021
2797.03	0.00274
2806.68	0.00357
2816.32	0.00541
2825.97	0.00936
2835.61	0.01624
2845.26	0.01646
2854.9	0.01171
2864.55	0.00992
2874.19	0.00982
2883.84	0.01105
2893.48	0.01196
2903.12	0.01225
2912.77	0.01366
2922.41	0.01585
2932.06	0.02226
2941.7	0.03686
2951.35	0.03624
2960.99	0.02311
2970.64	0.01842
2980.28	0.01752
2989.93	0.01799
2999.57	0.02174
3009.22	0.01785
3018.86	0.00982
3028.51	0.00702
3038.15	0.00587
3047.8	0.00529
3057.44	0.00463
3067.09	0.0045
3076.73	0.00423
3086.38	0.00408
3096.02	0.00344
3105.67	0.00287
3115.31	0.00253
3124.95	0.00173
3134.6	0.00154
3144.24	0.00131
3153.89	0.00141
3163.53	0.00101
3173.18	0.0008916
3182.82	0.0009942
3192.47	0.0008189
3202.11	0.0007189
3211.76	0.0006224
3221.4	0.0005239
3231.05	0.0002588
3240.69	0.0006991
3250.34	0.000643
3259.98	0.000417
3269.63	0.0005867
3279.27	0.00051
3288.92	0.0005061
3298.56	0.000984
3308.21	0.00152
3317.85	0.0009556
3327.49	0.0008722
3337.14	0.0005633
3346.78	0.0007636
3356.43	0.0013
3366.07	0.00242
3375.72	0.00599
3385.36	0.0163
3395.01	0.01779
3404.65	0.0073
3414.3	0.00405
3423.94	0.00379
3433.59	0.00301
3443.23	0.00196
3452.88	0.0015
3462.52	0.00164
3472.17	0.00236
3481.81	0.0039
3491.46	0.0067
3501.1	0.01427
3510.75	0.02259
3520.39	0.01697
3530.04	0.00851
3539.68	0.00471
3549.32	0.00221
3558.97	0.00265
3568.61	0.00842
3578.26	0.03176
3587.9	0.04619
3597.55	0.00754
3607.19	0.00126
3616.84	0.000746
3626.48	0.0008793
3636.13	0.0006161
3645.77	0.0008438
3655.42	0.0005139
3665.06	0.0004408
3674.71	0.0003219
3684.35	0.0003019
3694	0.0003119
3703.64	0.0003852
3713.29	0.0003637
3722.93	0.0005897
3732.58	0.0003008
3742.22	0.0005932
3751.86	0.0003504
3761.51	0.0003636
3771.15	0.000425
3780.8	0.0005458
3790.44	0.0003504
3800.09	0.0005562
3809.73	0.0002801
3819.38	0.0003953
3829.02	0.0003694
3838.67	0.0002216
3848.31	0.0002484
3857.96	0.0003603
3867.6	0.0005645
3877.25	0.0004446
3886.89	0.0001664
3896.54	0.0002471
3906.18	0.0004002
3915.83	0.0002751
3925.47	0.0004507
3935.12	0.0003056
3944.76	0.000179
3954.41	0.0007636
3964.05	0.0005045
3973.69	0.0004862
3983.34	0.0006804
3992.98	0.0005522
