Infrared Spectrum: 3-Ethyl-3-methyl-1-pentene
Formula: C 8 H 16
CAS: 6196-60-7
State: gas
Instrument: HP-GC/MS/IRD
Origin: NIST Mass Spectrometry Data Center
1/CM	ABSORBANCE
550	6.75e-05
562	4.5e-05
574	1e-05
586	5.75e-05
598	5e-05
610	0.0001125
622	0.0001575
634	0.000145
646	0.0002575
658	0.00053
670	0.0008825
682	0.00085
694	0.0004825
706	0.000235
718	0.00011
730	0.0001275
742	0.0001525
754	0.0002825
766	0.0005425
778	0.0007375
790	0.000745
802	0.000475
814	0.0002975
826	0.0002525
838	0.00029
850	0.00035
862	0.000505
874	0.0007875
886	0.00113
898	0.00257
910	0.00493
922	0.004155
934	0.0015125
946	0.000925
958	0.00093
970	0.001
982	0.00136
994	0.00259
1006	0.0032875
1018	0.00214
1030	0.001085
1042	0.00086
1054	0.00071
1066	0.0007175
1078	0.000715
1090	0.000495
1102	0.00026
1114	0.0002325
1126	0.0002675
1138	0.0004075
1150	0.0005625
1162	0.0006375
1174	0.0006125
1186	0.0004925
1198	0.0002975
1210	0.0002175
1222	0.000175
1234	0.0001825
1246	0.0001575
1258	0.0002025
1270	0.00028
1282	0.00037
1294	0.0004
1306	0.00039
1318	0.000395
1330	0.0004625
1342	0.000575
1354	0.0008425
1366	0.0016375
1378	0.002785
1390	0.00253
1402	0.0016925
1414	0.00166
1426	0.00146
1438	0.00145
1450	0.00257
1462	0.003515
1474	0.0028775
1486	0.001455
1498	0.0006225
1510	0.000345
1522	0.000275
1534	0.0002375
1546	0.00025
1558	0.000345
1570	0.0004
1582	0.0004625
1594	0.00044
1606	0.00047
1618	0.0009075
1630	0.001645
1642	0.0016875
1654	0.0008125
1666	0.0003675
1678	0.000265
1690	0.0001975
1702	0.000155
1714	0.0001075
1726	8.5e-05
1738	6.25e-05
1750	7e-05
1762	7.5e-05
1774	9.5e-05
1786	0.0001
1798	9.5e-05
1810	0.00021
1822	0.000455
1834	0.0005175
1846	0.0002925
1858	0.00012
1870	7.75e-05
1882	7e-05
1894	5.25e-05
1906	5e-05
1918	4.25e-05
1930	4.25e-05
1942	4e-05
1954	4.75e-05
1966	5.25e-05
1978	5.5e-05
1990	7e-05
2002	5.5e-05
2014	4e-05
2026	4.5e-05
2038	4.5e-05
2050	3.25e-05
2062	5e-05
2074	5.25e-05
2086	4e-05
2098	4.25e-05
2110	2.25e-05
2122	1.25e-05
2134	2e-05
2146	0
2158	3.5e-05
2170	1.75e-05
2182	0
2194	1.5e-05
2206	1.25e-05
2218	1.5e-05
2230	2.75e-05
2242	2.5e-05
2254	1e-05
2266	2.75e-05
2278	1.75e-05
2290	3.5e-05
2302	2.25e-05
2314	2.75e-05
2326	4.25e-05
2338	7e-05
2350	6.75e-05
2362	5e-05
2374	7.25e-05
2386	5.75e-05
2398	6.5e-05
2410	6e-05
2422	3.75e-05
2434	3e-05
2446	4.5e-05
2458	5.25e-05
2470	3e-05
2482	3.25e-05
2494	2.75e-05
2506	4.25e-05
2518	5.75e-05
2530	5.25e-05
2542	4.5e-05
2554	5.75e-05
2566	4.75e-05
2578	7.75e-05
2590	0.0001025
2602	0.000125
2614	0.00015
2626	0.0001725
2638	0.0001925
2650	0.000205
2662	0.00019
2674	0.000195
2686	0.0001825
2698	0.000155
2710	0.000185
2722	0.00026
2734	0.00035
2746	0.0004325
2758	0.0004575
2770	0.0004375
2782	0.0005175
2794	0.0005875
2806	0.0006925
2818	0.0008825
2830	0.0012025
2842	0.00202
2854	0.0037725
2866	0.0058225
2878	0.0080425
2890	0.0094825
2902	0.0098925
2914	0.01225
2926	0.0157325
2938	0.0163225
2950	0.0157175
2962	0.02036
2974	0.025
2986	0.01683
2998	0.0074625
3010	0.0043075
3022	0.002605
3034	0.0017125
3046	0.00154
3058	0.00171
3070	0.0023725
3082	0.0032125
3094	0.0029375
3106	0.00151
3118	0.0007375
3130	0.000555
3142	0.000455
3154	0.0004275
3166	0.0003825
3178	0.0003525
3190	0.0003075
3202	0.000265
3214	0.000225
3226	0.00019
3238	0.00018
3250	0.0001325
3262	0.000135
3274	0.0001175
3286	9e-05
3298	0.0001025
3310	0.0001
3322	9.25e-05
3334	6.75e-05
3346	9.25e-05
3358	6.75e-05
3370	6e-05
3382	3.25e-05
3394	6.25e-05
3406	4.75e-05
3418	4e-05
3430	5.5e-05
3442	7.5e-05
3454	7e-05
3466	1e-05
3478	8e-05
3490	3e-05
3502	3.75e-05
3514	4.5e-05
3526	3.75e-05
3538	1.5e-05
3550	2e-05
3562	3.25e-05
3574	2e-05
3586	3.5e-05
3598	2.75e-05
3610	3.25e-05
3622	4.5e-05
3634	4e-05
3646	7.5e-05
3658	4.75e-05
3670	4.5e-05
3682	4.5e-05
3694	5e-05
3706	4.25e-05
3718	7.25e-05
3730	5e-05
3742	3.25e-05
3754	5.25e-05
3766	6.75e-05
3778	4.5e-05
3790	1.75e-05
3802	5.25e-05
3814	3.75e-05
3826	5.5e-05
3838	7.75e-05
