Infrared Spectrum: 1-Acetyl-5-iodoindoline
Formula: C10 H10 I N O
CAS: 61995-51-5
State: SOLID (SPLIT MULL)
Class: COBLENTZ III
Instrument: DOW KBr FOREPRISM-GRATING
Instrument parameters: BLAZED AT 3.5, 12.0, 20.0 MICRON AND CHANGED AT 5.0, 7.5, 14.9 MICRON
Sampling: TRANSMISSION
Resolution: 2
Origin: DOW CHEMICAL COMPANY
1/CM	TRANSMITTANCE
471	0.8915
480	0.8878
489	0.871
498	0.9001
507	0.9164
516	0.9148
525	0.9112
534	0.8933
543	0.8318
552	0.9206
561	0.9224
570	0.922
579	0.9252
588	0.9302
597	0.9186
606	0.8775
615	0.9282
624	0.9504
633	0.9554
642	0.9553
651	0.9416
660	0.913
669	0.8781
678	0.9136
687	0.9463
696	0.9554
705	0.9341
714	0.9435
723	0.9228
732	0.9036
741	0.9271
750	0.9554
759	0.9539
768	0.9551
777	0.9618
786	0.9616
795	0.9546
804	0.9347
813	0.7075
822	0.8891
831	0.9268
840	0.9211
849	0.9186
858	0.9399
867	0.9521
876	0.9534
885	0.9462
894	0.9439
903	0.9371
912	0.8717
921	0.7517
930	0.8971
939	0.9014
948	0.9275
957	0.9378
966	0.9378
975	0.9361
984	0.9317
993	0.9385
1002	0.9321
1011	0.9107
1020	0.8775
1029	0.8704
1038	0.8895
1047	0.8985
1056	0.851
1065	0.9366
1074	0.941
1083	0.9389
1092	0.9328
1101	0.8666
1110	0.9424
1119	0.9463
1128	0.9298
1137	0.956
1146	0.9383
1155	0.8989
1164	0.7853
1173	0.9256
1182	0.9348
1191	0.9387
1200	0.9368
1209	0.9245
1218	0.8911
1227	0.8845
1236	0.8466
1245	0.6546
1254	0.7639
1263	0.8692
1272	0.8452
1281	0.7817
1290	0.6661
1299	0.8083
1308	0.76
1317	0.6351
1326	0.1577
1335	0.7018
1344	0.7714
1353	0.4862
1362	0.6028
1371	0.4377
1380	0.2733
1389	0.2029
1398	0.536
1407	0.815
1416	0.5356
1425	0.6528
1434	0.7718
1443	0.6955
1452	0.7261
1461	0.4395
1470	0.3566
1479	0.2693
1488	0.6132
1497	0.9506
1506	0.965
1515	0.9637
1524	0.9457
1533	0.9321
1542	0.9318
1551	0.9105
1560	0.8837
1569	0.8317
1578	0.7397
1587	0.7444
1596	0.878
1605	0.8568
1614	0.8291
1623	0.7753
1632	0.6911
1641	0.5648
1650	0.3247
1659	0.1198
1668	0.7001
1677	0.9166
1686	0.9751
1695	0.9854
1704	0.9778
1713	0.9643
1722	0.9553
1731	0.9517
1740	0.9436
1749	0.9328
1758	0.9236
1767	0.9278
1776	0.9267
1785	0.923
1794	0.9183
1803	0.9147
1812	0.9106
1821	0.9018
1830	0.8913
1839	0.8838
1848	0.8837
1857	0.8874
1866	0.8841
1875	0.8808
1884	0.8745
1893	0.8868
1902	0.8832
1911	0.8812
1920	0.8846
1929	0.882
1938	0.8778
1947	0.8741
1956	0.8748
1965	0.8656
1974	0.8606
1983	0.8581
1992	0.8561
2001	0.8546
2010	0.8534
2019	0.8516
2028	0.8497
2037	0.8449
2046	0.8388
2055	0.8341
2064	0.8305
2073	0.827
2082	0.8233
2091	0.8196
2100	0.8158
2109	0.8118
2118	0.8078
2127	0.8038
2136	0.7997
2145	0.7956
2154	0.7915
2163	0.7875
2172	0.783
2181	0.7783
2190	0.7736
2199	0.7688
2208	0.7637
2217	0.7581
2226	0.7525
2235	0.7467
2244	0.7408
2253	0.735
2262	0.7294
2271	0.7238
2280	0.7184
2289	0.7135
2298	0.7087
2307	0.7049
2316	0.7015
2325	0.6985
2334	0.6956
2343	0.6948
2352	0.6965
2361	0.6993
2370	0.7021
2379	0.7034
2388	0.7047
2397	0.705
2406	0.7047
2415	0.7034
2424	0.7018
2433	0.6998
2442	0.6978
2451	0.696
2460	0.6949
2469	0.6938
2478	0.6925
2487	0.6908
2496	0.6894
2505	0.6878
2514	0.686
2523	0.684
2532	0.6819
2541	0.68
2550	0.678
2559	0.6758
2568	0.6739
2577	0.6718
2586	0.6698
2595	0.6668
2604	0.6641
2613	0.6612
2622	0.6584
2631	0.6556
2640	0.6528
2649	0.6501
2658	0.6475
2667	0.645
2676	0.6424
2685	0.6399
2694	0.638
2703	0.636
2712	0.634
2721	0.6317
2730	0.6289
2739	0.626
2748	0.6233
2757	0.6205
2766	0.6177
2775	0.6143
2784	0.6106
2793	0.6069
2802	0.6033
2811	0.5995
2820	0.5957
2829	0.5919
2838	0.5882
2847	0.5836
2856	0.5771
2865	0.5771
2874	0.5762
2883	0.5677
2892	0.5583
2901	0.5524
2910	0.548
2919	0.5451
2928	0.5426
2937	0.541
2946	0.5443
2955	0.5435
2964	0.5332
2973	0.5275
2982	0.5509
2991	0.5591
3000	0.5528
3009	0.5404
3018	0.5272
3027	0.5157
3036	0.5245
3045	0.5434
3054	0.5375
3063	0.5316
3072	0.5402
3081	0.5618
3090	0.566
3099	0.5557
3108	0.5291
3117	0.5651
3126	0.5662
3135	0.5641
3144	0.561
3153	0.5582
3162	0.5554
3171	0.5527
3180	0.5503
3189	0.5479
3198	0.5455
3207	0.543
3216	0.5406
3225	0.5381
3234	0.5357
3243	0.5334
3252	0.5312
3261	0.5291
3270	0.527
3279	0.5249
3288	0.5232
3297	0.5215
3306	0.5198
3315	0.518
3324	0.5167
3333	0.5155
3342	0.5145
3351	0.5133
3360	0.5123
3369	0.5114
3378	0.5105
3387	0.5096
3396	0.5088
3405	0.5078
3414	0.5062
3423	0.5047
3432	0.5031
3441	0.5015
3450	0.5
3459	0.4983
3468	0.4967
3477	0.4951
3486	0.4935
3495	0.4918
3504	0.4902
3513	0.4887
3522	0.4873
3531	0.4858
3540	0.4844
3549	0.4829
3558	0.4815
3567	0.48
3576	0.4787
3585	0.4773
3594	0.476
3603	0.4747
3612	0.4734
3621	0.472
3630	0.4707
3639	0.4693
3648	0.468
3657	0.4666
3666	0.4653
3675	0.4636
3684	0.4618
3693	0.4601
3702	0.4583
3711	0.4566
3720	0.4551
3729	0.4536
3738	0.4523
3747	0.4509
3756	0.4492
3765	0.4475
3774	0.4464
3783	0.4457
3792	0.4451
