Infrared Spectrum: 5-Methyl-1-hexyn-3-ol
Formula: C 7 H 12 O
CAS: 61996-79-0
State: gas
Origin: EPA-IR VAPOR PHASE LIBRARY
1/CM	ABSORBANCE
549.8	0.007237
559.445	0.007397
569.09	0.006517
578.734	0.003417
588.379	0.002967
598.024	0.002657
607.669	0.006617
617.313	0.016127
626.958	0.034307
636.603	0.044347
646.248	0.034227
655.893	0.038197
665.537	0.025927
675.182	0.012717
684.827	0.004997
694.472	0.003607
704.116	0.001897
713.761	0.001887
723.406	0.002477
733.051	0.0015648
742.695	0.0010026
752.34	0.0016832
761.985	0.002547
771.63	0.003087
781.275	0.002327
790.919	0.002257
800.564	0.003187
810.209	0.002737
819.854	0.002407
829.498	0.004477
839.143	0.004767
848.788	0.003917
858.433	0.003217
868.078	0.002547
877.722	0.003187
887.367	0.003627
897.012	0.003937
906.657	0.005717
916.301	0.008647
925.946	0.011607
935.591	0.010497
945.236	0.009397
954.88	0.009027
964.525	0.008307
974.17	0.007567
983.815	0.011107
993.46	0.017727
1003.1	0.024557
1012.75	0.032317
1022.39	0.037497
1032.04	0.036717
1041.68	0.032057
1051.33	0.026137
1060.97	0.019347
1070.62	0.014247
1080.26	0.010877
1089.91	0.006687
1099.55	0.008987
1109.2	0.012767
1118.84	0.014867
1128.49	0.014127
1138.13	0.011617
1147.78	0.008057
1157.42	0.008927
1167.07	0.008717
1176.71	0.007657
1186.36	0.004597
1196	0.004587
1205.64	0.003827
1215.29	0.005657
1224.93	0.006037
1234.58	0.007807
1244.22	0.014767
1253.87	0.018587
1263.51	0.015707
1273.16	0.011207
1282.8	0.009317
1292.45	0.009437
1302.09	0.009607
1311.74	0.011877
1321.38	0.014187
1331.03	0.015267
1340.67	0.016137
1350.32	0.017827
1359.96	0.020607
1369.61	0.022537
1379.25	0.021837
1388.9	0.018307
1398.54	0.012837
1408.18	0.008267
1417.83	0.006277
1427.47	0.005997
1437.12	0.007007
1446.76	0.008527
1456.41	0.010227
1466.05	0.011877
1475.7	0.011047
1485.34	0.007557
1494.99	0.004177
1504.63	0.002907
1514.28	0.002347
1523.92	0.002417
1533.57	0.001907
1543.21	0.001887
1552.86	0.002127
1562.5	0.001526
1572.15	0.001447
1581.79	0.0011405
1591.44	0.0014459
1601.08	0.0007492
1610.73	0.00090542
1620.37	0.0007329
1630.01	0.000531
1639.66	0.00072
1649.3	0.00090361
1658.95	0.000389
1668.59	0.000507
1678.24	0.000602
1687.88	0.000403
1697.53	0.000549
1707.17	0.000598
1716.82	0.000649
1726.46	0.000699
1736.11	2.5e-05
1745.75	0.000461
1755.4	0.000284
1765.04	0.000507
1774.69	0.000577
1784.33	0.00049
1793.98	0.000604
1803.62	0.000688
1813.27	0.000721
1822.91	0.000579
1832.55	0.000823
1842.2	0.0007315
1851.84	0.00089041
1861.49	0.00084761
1871.13	0.0010581
1880.78	0.001005
1890.42	0.0011515
1900.07	0.0010561
1909.71	0.00085969
1919.36	0.000695
1929	0.0010319
1938.65	0.00056
1948.29	0.000694
1957.94	0.0010275
1967.58	0.0009652
1977.23	0.0007902
1986.87	0.0007892
1996.52	0.0007902
2006.16	0.0010944
2015.81	0.00091025
2025.45	0.0011052
2035.1	0.0011111
2044.74	0.0010354
2054.38	0.0009523
2064.03	0.0009699
2073.67	0.00084423
2083.32	0.0010614
2092.96	0.0011324
2102.61	0.0012477
2112.25	0.0013434
2121.9	0.0014937
2131.54	0.0012075
2141.19	0.00091256
2150.83	0.0009784
2160.48	0.001292
2170.12	0.0010761
2179.77	0.0009916
2189.41	0.0010921
2199.06	0.000962
2208.7	0.0010661
2218.35	0.0011692
2227.99	0.00087346
2237.64	0.0009955
2247.28	0.0009896
2256.92	0.0010175
2266.57	0.0011438
2276.21	0.0010477
2285.86	0.001089
2295.5	0.0013469
2305.15	0.0011526
2314.79	0.00091551
2324.44	0.0012871
2334.08	0.001273
2343.73	0.0013323
2353.37	0.0011482
2363.02	0.0011438
2372.66	0.0010534
2382.31	0.0012199
2391.95	0.0009325
2401.6	0.0009921
2411.24	0.0016166
2420.89	0.0017482
2430.53	0.0012445
2440.18	0.0018181
2449.82	0.00088724
2459.47	0.0013161
2469.11	0.001224
2478.75	0.0012483
2488.4	0.0015683
2498.04	0.0011975
2507.69	0.0015224
2517.33	0.0011512
2526.98	0.0013618
2536.62	0.0015709
2546.27	0.0016344
2555.91	0.0012906
2565.56	0.0009581
2575.2	0.0016291
2584.85	0.001857
2594.49	0.0016667
2604.14	0.0017144
2613.78	0.0017276
2623.43	0.002157
2633.07	0.0015737
2642.72	0.0016242
2652.36	0.001917
2662.01	0.002287
2671.65	0.001917
2681.29	0.0014809
2690.94	0.002197
2700.58	0.001987
2710.23	0.0018268
2719.87	0.002377
2729.52	0.003027
2739.16	0.003017
2748.81	0.002707
2758.45	0.002257
2768.1	0.002467
2777.74	0.002547
2787.39	0.002477
2797.03	0.003257
2806.68	0.003607
2816.32	0.003727
2825.97	0.005187
2835.61	0.005257
2845.26	0.007567
2854.9	0.009857
2864.55	0.015297
2874.19	0.025037
2883.84	0.030487
2893.48	0.029927
2903.12	0.030457
2912.77	0.035437
2922.41	0.043587
2932.06	0.053677
2941.7	0.057237
2951.35	0.063997
2960.99	0.082987
2970.64	0.076637
2980.28	0.043657
2989.93	0.016067
2999.57	0.007477
3009.22	0.005827
3018.86	0.003907
3028.51	0.003117
3038.15	0.002267
3047.8	0.002397
3057.44	0.002437
3067.09	0.002047
3076.73	0.001937
3086.38	0.002127
3096.02	0.0012137
3105.67	0.002207
3115.31	0.002407
3124.95	0.0016686
3134.6	0.001927
3144.24	0.0015464
3153.89	0.001927
3163.53	0.002257
3173.18	0.002157
3182.82	0.001907
3192.47	0.0014209
3202.11	0.0014289
3211.76	0.0014963
3221.4	0.0017229
3231.05	0.0017026
3240.69	0.0013231
3250.34	0.002147
3259.98	0.002387
3269.63	0.002697
3279.27	0.004117
3288.92	0.006817
3298.56	0.012337
3308.21	0.016497
3317.85	0.031967
3327.49	0.030727
3337.14	0.019907
3346.78	0.005807
3356.43	0.003587
3366.07	0.002567
3375.72	0.002357
3385.36	0.002027
3395.01	0.00118
3404.65	0.0013479
3414.3	0.0011856
3423.94	0.0017479
3433.59	0.0012796
3443.23	0.0009844
3452.88	0.0012596
3462.52	0.0011951
3472.17	0.0007655
3481.81	0.0010376
3491.46	0.0014383
3501.1	0.00090536
3510.75	0.0016184
3520.39	0.000652
3530.04	0.0015472
3539.68	0.0015693
3549.32	0.0014338
3558.97	0.0014328
3568.61	0.0012643
3578.26	0.0015749
3587.9	0.001215
3597.55	0.000372
3607.19	0.0015649
3616.84	0.002207
3626.48	0.003947
3636.13	0.010267
3645.77	0.015447
3655.42	0.015287
3665.06	0.006257
3674.71	0.003557
3684.35	0.002257
3694	0.0016549
3703.64	0.0013056
3713.29	0.0011696
3722.93	0.00071
3732.58	0.0014759
3742.22	0.0016888
3751.86	0.00127
3761.51	0.0010148
3771.15	0.0015345
3780.8	0.0012854
3790.44	0.0014776
3800.09	0.0018061
3809.73	0.0007671
3819.38	0.001857
3829.02	0.0017879
3838.67	0.0011833
3848.31	0.0015833
3857.96	0.0013847
3867.6	0.001109
3877.25	0.0010238
3886.89	0.00085546
3896.54	0.001458
3906.18	0.0016213
3915.83	0.0013191
3925.47	0.00088572
3935.12	0.0008133
3944.76	0.002197
3954.41	0.0012314
3964.05	0.0016179
3973.69	0.0014903
3983.34	0.0009716
3992.98	0.0009951
