Infrared Spectrum: PHENYL MERCURIE ACETATE
Formula: C8 H8 O2 Hg
CAS: 62-38-4
State: SOLID (KBr PELLET)
Class: COBLENTZ
Instrument: Not specified, most likely a prism, grating, or hybrid spectrometer.
Sampling: TRANSMISSION
Resolution: 4
Origin: TENNESSEE EASTMAN COMPANY, RESEARCH LABORATORIES
MICROMETERS	TRANSMITTANCE
2.02	0.75
2.05973	0.761
2.09947	0.774
2.1392	0.779
2.17894	0.786
2.21867	0.791
2.25841	0.796
2.29814	0.802
2.33787	0.807
2.37761	0.811
2.41734	0.819
2.45708	0.822
2.49681	0.827
2.53655	0.832
2.57628	0.839
2.61601	0.841
2.65575	0.842
2.69548	0.844
2.73522	0.819
2.77495	0.763
2.81469	0.701
2.85442	0.635
2.89415	0.567
2.93389	0.509
2.97362	0.486
3.01336	0.481
3.05309	0.491
3.09283	0.506
3.13256	0.533
3.17229	0.569
3.21203	0.605
3.25176	0.634
3.2915	0.617
3.33123	0.652
3.37097	0.677
3.4107	0.713
3.45043	0.776
3.49017	0.794
3.5299	0.827
3.56964	0.852
3.60937	0.864
3.64911	0.874
3.68884	0.88
3.72857	0.89
3.76831	0.899
3.80804	0.902
3.84778	0.907
3.88751	0.913
3.92725	0.913
3.96698	0.915
4.00671	0.918
4.04645	0.918
4.08618	0.92
4.12592	0.922
4.16565	0.923
4.20539	0.923
4.24512	0.922
4.28485	0.922
4.32459	0.922
4.36432	0.927
4.40406	0.93
4.44379	0.932
4.48353	0.933
4.52326	0.933
4.56299	0.94
4.60273	0.942
4.64246	0.943
4.6822	0.945
4.72193	0.947
4.76167	0.948
4.8014	0.951
4.84113	0.953
4.88087	0.953
4.9206	0.956
4.96034	0.96
5.00007	0.965
5.03981	0.96
5.07954	0.95
5.11927	0.935
5.15901	0.956
5.19874	0.963
5.23848	0.963
5.27821	0.956
5.31795	0.932
5.35768	0.953
5.39741	0.966
5.43715	0.966
5.47688	0.958
5.51662	0.951
5.55635	0.955
5.59609	0.961
5.63582	0.953
5.67555	0.935
5.71529	0.92
5.75502	0.917
5.79476	0.892
5.83449	0.855
5.87423	0.814
5.91396	0.766
5.95369	0.745
5.99343	0.723
6.03316	0.701
6.0729	0.687
6.11263	0.637
6.15237	0.538
6.1921	0.392
6.23183	0.173
6.27157	0.079
6.3113	0.041
6.35104	0.048
6.39077	0.11
6.43051	0.251
6.47024	0.374
6.50997	0.498
6.54971	0.581
6.58944	0.647
6.62918	0.688
6.66891	0.711
6.70865	0.713
6.74838	0.503
6.78811	0.682
6.82785	0.687
6.86758	0.604
6.90732	0.498
6.94705	0.331
6.98679	0.193
7.02652	0.215
7.06625	0.157
7.10599	0.167
7.14572	0.293
7.18546	0.483
7.22519	0.596
7.26493	0.649
7.30466	0.701
7.34439	0.735
7.38413	0.761
7.42386	0.759
7.4636	0.733
7.50333	0.768
7.54307	0.741
7.5828	0.822
7.62253	0.837
7.66227	0.837
7.702	0.826
7.74174	0.859
7.78147	0.874
7.82121	0.882
7.86094	0.89
7.90067	0.89
7.94041	0.884
7.98014	0.884
8.01988	0.884
8.05961	0.887
8.09935	0.892
8.13908	0.903
8.17881	0.908
8.21855	0.91
8.25828	0.907
8.29802	0.912
8.33775	0.89
8.37749	0.889
8.41722	0.89
8.45695	0.895
8.49669	0.899
8.53642	0.894
8.57616	0.88
8.61589	0.87
8.65563	0.89
8.69536	0.894
8.73509	0.894
8.77483	0.895
8.81456	0.88
8.8543	0.887
8.89403	0.889
8.93377	0.887
8.9735	0.887
9.01323	0.88
9.05297	0.875
9.0927	0.879
9.13244	0.86
9.17217	0.869
9.2119	0.874
9.25164	0.874
9.29137	0.877
9.33111	0.87
9.37084	0.819
9.41058	0.814
9.45031	0.821
9.49004	0.807
9.52978	0.796
9.56951	0.798
9.60925	0.819
9.64898	0.837
9.68872	0.824
9.72845	0.778
9.76818	0.675
9.80792	0.43
9.84765	0.67
9.88739	0.728
9.92712	0.773
9.96686	0.784
10.0066	0.63
10.0463	0.832
10.0861	0.869
10.1258	0.869
10.1655	0.884
10.2053	0.902
10.245	0.903
10.2847	0.9
10.3245	0.91
10.3642	0.915
10.4039	0.912
10.4437	0.91
10.4834	0.913
10.5231	0.92
10.5629	0.91
10.6026	0.903
10.6423	0.91
10.6821	0.908
10.7218	0.889
10.7615	0.864
10.8013	0.827
10.841	0.784
10.8807	0.784
10.9205	0.836
10.9602	0.88
10.9999	0.89
11.0397	0.9
11.0794	0.922
11.1192	0.925
11.1589	0.923
11.1986	0.92
11.2384	0.928
11.2781	0.932
11.3178	0.932
11.3576	0.928
11.3973	0.928
11.437	0.93
11.4768	0.93
11.5165	0.928
11.5562	0.932
11.596	0.937
11.6357	0.935
11.6754	0.93
11.7152	0.93
11.7549	0.933
11.7946	0.93
11.8344	0.927
11.8741	0.92
11.9138	0.922
11.9536	0.925
11.9933	0.925
12.033	0.922
12.0728	0.918
12.1125	0.922
12.1522	0.92
12.192	0.92
12.2317	0.912
12.2714	0.908
12.3112	0.912
12.3509	0.91
12.3906	0.905
12.4304	0.899
12.4701	0.897
12.5099	0.897
12.5496	0.894
12.5893	0.88
12.6291	0.874
12.6688	0.879
12.7085	0.882
12.7483	0.88
12.788	0.874
12.8277	0.865
12.8675	0.862
12.9072	0.862
12.9469	0.862
12.9867	0.862
13.0264	0.857
13.0661	0.855
13.1059	0.859
13.1456	0.857
13.1853	0.846
13.2251	0.832
13.2648	0.817
13.3045	0.811
13.3443	0.806
13.384	0.802
13.4237	0.794
13.4635	0.789
13.5032	0.788
13.5429	0.779
13.5827	0.761
13.6224	0.708
13.6621	0.548
13.7019	0.302
13.7416	0.245
13.7813	0.284
13.8211	0.481
13.8608	0.716
13.9006	0.791
13.9403	0.801
13.98	0.807
14.0198	0.806
14.0595	0.801
14.0992	0.793
14.139	0.779
14.1787	0.768
14.2184	0.753
14.2582	0.73
14.2979	0.695
14.3376	0.639
14.3774	0.528
14.4171	0.418
14.4568	0.384
14.4966	0.456
14.5363	0.574
14.576	0.672
14.6158	0.718
14.6555	0.74
14.6952	0.75
14.735	0.75
14.7747	0.746
14.8144	0.733
14.8542	0.728
14.8939	0.726
14.9336	0.73
14.9734	0.718
15.0131	0.695
15.0528	0.69
15.0926	0.69
15.1323	0.677
15.172	0.663
15.2118	0.657
15.2515	0.65
15.2913	0.64
15.331	0.629
15.3707	0.617
15.4105	0.604
15.4502	0.599
15.4899	0.6
15.5297	0.607
15.5694	0.62
15.6091	0.635
15.6489	0.653
15.6886	0.668
15.7283	0.677
15.7681	0.683
15.8078	0.688
15.8475	0.687
15.8873	0.685
15.927	0.688
15.9667	0.69
