Infrared Spectrum: ACETANILIDE, p-ETHOXY-
Formula: C10 H13 N O2
CAS: 62-44-2
State: SOLID (KBr DISC)
Melting point: 134-135 C
Class: COBLENTZ III
Instrument: PERKIN-ELMER 21 (GRATING)
Instrument parameters: FILTER AT ABOUT 10 MICRONS
Sampling: TRANSMISSION
Resolution: 2
1/CM	TRANSMITTANCE
4000	0.6073
3991	0.6081
3982	0.6089
3973	0.6098
3964	0.6108
3955	0.6118
3946	0.6129
3937	0.614
3928	0.615
3919	0.616
3910	0.6171
3901	0.6182
3892	0.6192
3883	0.6203
3874	0.6214
3865	0.6224
3856	0.6235
3847	0.6246
3838	0.6256
3829	0.6267
3820	0.6278
3811	0.6287
3802	0.6296
3793	0.6305
3784	0.6314
3775	0.6323
3766	0.6331
3757	0.634
3748	0.6348
3739	0.6356
3730	0.6365
3721	0.6373
3712	0.6381
3703	0.639
3694	0.6398
3685	0.6407
3676	0.6414
3667	0.6421
3658	0.6426
3649	0.6434
3640	0.6441
3631	0.6447
3622	0.6451
3613	0.6445
3604	0.6439
3595	0.6433
3586	0.6421
3577	0.6403
3568	0.6385
3559	0.6366
3550	0.6348
3541	0.6328
3532	0.6307
3523	0.6285
3514	0.6266
3505	0.6256
3496	0.6248
3487	0.6247
3478	0.6246
3469	0.6245
3460	0.6244
3451	0.6231
3442	0.6206
3433	0.6181
3424	0.6155
3415	0.6129
3406	0.6102
3397	0.6075
3388	0.6046
3379	0.6017
3370	0.598
3361	0.5909
3352	0.5803
3343	0.542
3334	0.4896
3325	0.4369
3316	0.3839
3307	0.3306
3298	0.277
3289	0.2231
3280	0.1903
3271	0.1863
3262	0.1859
3253	0.1949
3244	0.2225
3235	0.255
3226	0.2877
3217	0.3206
3208	0.3537
3199	0.3732
3190	0.3752
3181	0.3789
3172	0.3878
3163	0.4073
3154	0.427
3145	0.4318
3136	0.4283
3127	0.4186
3118	0.4185
3109	0.4249
3100	0.4316
3091	0.4383
3082	0.4408
3073	0.4365
3064	0.4267
3055	0.4238
3046	0.4415
3037	0.4684
3028	0.4955
3019	0.5227
3010	0.5428
3001	0.5445
2992	0.5083
2983	0.457
2974	0.4142
2965	0.4352
2956	0.4755
2947	0.5147
2938	0.5229
2929	0.503
2920	0.4805
2911	0.4779
2902	0.4936
2893	0.5096
2884	0.5257
2875	0.533
2866	0.5347
2857	0.5392
2848	0.5502
2839	0.566
2830	0.5838
2821	0.603
2812	0.6172
2803	0.6236
2794	0.6254
2785	0.6272
2776	0.629
2767	0.6418
2758	0.6525
2749	0.6618
2740	0.6704
2731	0.6785
2722	0.6862
2713	0.6924
2704	0.6971
2695	0.7021
2686	0.7069
2677	0.7111
2668	0.7154
2659	0.7196
2650	0.7228
2641	0.7254
2632	0.728
2623	0.7303
2614	0.7315
2605	0.7328
2596	0.7341
2587	0.7353
2578	0.7365
2569	0.7374
2560	0.7382
2551	0.739
2542	0.7397
2533	0.7405
2524	0.7414
2515	0.7425
2506	0.7434
2497	0.7441
2488	0.7446
2479	0.745
2470	0.7455
2461	0.7458
2452	0.7468
2443	0.7492
2434	0.7528
2425	0.7562
2416	0.7596
2407	0.7622
2398	0.7633
2389	0.7639
2380	0.7648
2371	0.7668
2362	0.7688
2353	0.7703
2344	0.7705
2335	0.7706
2326	0.7705
2317	0.7704
2308	0.7703
2299	0.7715
2290	0.7738
2281	0.776
2272	0.7781
2263	0.7803
2254	0.7824
2245	0.7846
2236	0.7867
2227	0.7887
2218	0.7907
2209	0.7918
2200	0.7925
2191	0.7933
2182	0.7938
2173	0.7942
2164	0.7946
2155	0.7954
2146	0.7965
2137	0.7987
2128	0.8008
2119	0.8018
2110	0.8008
2101	0.7996
2092	0.7982
2083	0.7965
2074	0.7982
2065	0.8019
2056	0.8053
2047	0.8075
2038	0.8074
2029	0.7931
2020	0.7831
2011	0.7878
2002	0.7965
1993	0.8047
1984	0.8081
1975	0.8039
1966	0.7985
1957	0.7991
1948	0.8053
1939	0.8107
1930	0.8148
1921	0.8176
1912	0.8183
1903	0.8115
1894	0.8108
1885	0.7646
1876	0.7639
1867	0.7901
1858	0.7938
1849	0.8099
1840	0.8204
1831	0.8198
1822	0.8178
1813	0.8144
1804	0.8125
1795	0.8118
1786	0.8114
1777	0.8094
1768	0.8044
1759	0.7821
1750	0.7808
1741	0.7805
1732	0.7771
1723	0.764
1714	0.7403
1705	0.7083
1696	0.6646
1687	0.6023
1678	0.4453
1669	0.2227
1660	0.0513
1651	0.0777
1642	0.1546
1633	0.3878
1624	0.4125
1615	0.317
1606	0.2821
1597	0.3504
1588	0.5365
1579	0.559
1570	0.2863
1561	0.117
1552	0.0781
1543	0.1672
1534	0.1742
1525	0.1896
1516	0.0825
1507	0.0572
1498	0.238
1489	0.3293
1480	0.1519
1471	0.3714
1462	0.4125
1453	0.3344
1444	0.2807
1435	0.4429
1426	0.5086
1417	0.3293
1408	0.2777
1399	0.3948
1390	0.3384
1381	0.5231
1372	0.258
1363	0.3266
1354	0.5547
1345	0.6034
1336	0.5394
1327	0.4455
1318	0.4529
1309	0.574
1300	0.524
1291	0.6917
1282	0.6561
1273	0.4029
1264	0.1302
1255	0.2573
1246	0.0497
1237	0.0567
1228	0.2082
1219	0.3101
1210	0.4007
1201	0.5369
1192	0.6208
1183	0.6461
1174	0.2164
1165	0.5349
1156	0.6282
1147	0.6155
1138	0.6732
1129	0.6687
1120	0.6019
1111	0.4032
1102	0.4653
1093	0.6608
1084	0.7057
1075	0.7287
1066	0.7049
1057	0.5637
1048	0.1903
1039	0.2779
1030	0.5118
1021	0.5476
1012	0.4733
1003	0.6694
994	0.715
985	0.7361
976	0.7433
967	0.5958
958	0.7365
949	0.7075
940	0.7824
931	0.7406
922	0.4329
913	0.6945
904	0.7612
895	0.7798
886	0.7839
877	0.7953
868	0.7895
859	0.7531
850	0.6835
841	0.3855
832	0.3244
823	0.2638
814	0.6015
805	0.7019
796	0.7421
787	0.5389
778	0.5941
769	0.6742
760	0.6114
751	0.4996
742	0.4353
733	0.4825
724	0.5708
715	0.6396
706	0.6594
697	0.6996
688	0.7171
679	0.7317
670	0.7437
661	0.7401
