Infrared Spectrum: N-(2-AMINOETHYL) MERCAPTOACETAMIDE
Formula: C4 H10 N2 O S
CAS: 62-47-5
State: SOLID(MINERAL OIL MULL)
Melting point: 120-122 C
Class: COBLENTZ
Instrument: Not specified, most likely a prism, grating, or hybrid spectrometer.
Sampling: TRANSMISSION
Resolution: 4
Origin: ARTHUR D. LITTLE, INC.
1/CM	TRANSMITTANCE
652.941	0.636
660.89	0.643
668.839	0.645
676.788	0.641
684.737	0.62
692.687	0.522
700.636	0.429
708.585	0.567
716.534	0.68
724.483	0.712
732.432	0.718
740.381	0.718
748.33	0.71
756.279	0.688
764.229	0.579
772.178	0.671
780.127	0.733
788.076	0.737
796.025	0.732
803.974	0.729
811.923	0.72
819.872	0.712
827.822	0.689
835.771	0.625
843.72	0.68
851.669	0.692
859.618	0.672
867.567	0.584
875.516	0.453
883.465	0.681
891.414	0.684
899.364	0.671
907.313	0.629
915.262	0.643
923.211	0.673
931.16	0.667
939.109	0.657
947.058	0.652
955.007	0.647
962.956	0.64
970.906	0.633
978.855	0.625
986.804	0.616
994.753	0.596
1002.7	0.561
1010.65	0.519
1018.6	0.567
1026.55	0.547
1034.5	0.501
1042.45	0.437
1050.4	0.558
1058.35	0.602
1066.29	0.602
1074.24	0.598
1082.19	0.59
1090.14	0.582
1098.09	0.588
1106.04	0.59
1113.99	0.582
1121.94	0.575
1129.89	0.553
1137.84	0.529
1145.79	0.501
1153.74	0.505
1161.68	0.534
1169.63	0.482
1177.58	0.416
1185.53	0.542
1193.48	0.571
1201.43	0.572
1209.38	0.563
1217.33	0.546
1225.28	0.513
1233.23	0.464
1241.18	0.327
1249.12	0.359
1257.07	0.537
1265.02	0.554
1272.97	0.551
1280.92	0.537
1288.87	0.502
1296.82	0.428
1304.77	0.457
1312.72	0.53
1320.67	0.527
1328.62	0.521
1336.56	0.506
1344.51	0.496
1352.46	0.461
1360.41	0.385
1368.36	0.327
1376.31	0.354
1384.26	0.351
1392.21	0.364
1400.16	0.46
1408.11	0.529
1416.06	0.51
1424.01	0.488
1431.95	0.472
1439.9	0.38
1447.85	0.472
1455.8	0.401
1463.75	0.399
1471.7	0.511
1479.65	0.542
1487.6	0.501
1495.55	0.419
1503.5	0.335
1511.45	0.354
1519.39	0.328
1527.34	0.221
1535.29	0.242
1543.24	0.326
1551.19	0.366
1559.14	0.388
1567.09	0.364
1575.04	0.334
1582.99	0.282
1590.94	0.262
1598.89	0.293
1606.83	0.271
1614.78	0.318
1622.73	0.31
1630.68	0.271
1638.63	0.519
1646.58	0.675
1654.53	0.734
1662.48	0.751
1670.43	0.774
1678.38	0.801
1686.33	0.811
1694.27	0.816
1702.22	0.818
1710.17	0.824
1718.12	0.826
1726.07	0.824
1734.02	0.826
1741.97	0.826
1749.92	0.827
1757.87	0.828
1765.82	0.83
1773.77	0.83
1781.72	0.83
1789.66	0.83
1797.61	0.83
1805.56	0.83
1813.51	0.83
1821.46	0.83
1829.41	0.83
1837.36	0.828
1845.31	0.828
1853.26	0.828
1861.21	0.828
1869.16	0.827
1877.1	0.827
1885.05	0.827
1893	0.827
1900.95	0.826
1908.9	0.826
1916.85	0.826
1924.8	0.826
1932.75	0.823
1940.7	0.822
1948.65	0.819
1956.6	0.818
1964.54	0.815
1972.49	0.814
1980.44	0.811
1988.39	0.807
1996.34	0.803
2004.29	0.798
2012.24	0.793
2020.19	0.77
2028.14	0.765
2036.09	0.761
2044.04	0.749
2051.99	0.736
2059.93	0.72
2067.88	0.704
2075.83	0.687
2083.78	0.663
2091.73	0.636
2099.68	0.611
2107.63	0.606
2115.58	0.611
2123.53	0.62
2131.48	0.631
2139.43	0.651
2147.37	0.667
2155.32	0.69
2163.27	0.714
2171.22	0.725
2179.17	0.726
2187.12	0.729
2195.07	0.73
2203.02	0.726
2210.97	0.717
2218.92	0.706
2226.87	0.69
2234.81	0.683
2242.76	0.681
2250.71	0.676
2258.66	0.66
2266.61	0.653
2274.56	0.649
2282.51	0.636
2290.46	0.616
2298.41	0.607
2306.36	0.6
2314.31	0.579
2322.26	0.559
2330.2	0.535
2338.15	0.523
2346.1	0.515
2354.05	0.501
2362	0.494
2369.95	0.493
2377.9	0.492
2385.85	0.49
2393.8	0.482
2401.75	0.461
2409.7	0.442
2417.64	0.424
2425.59	0.412
2433.54	0.404
2441.49	0.391
2449.44	0.387
2457.39	0.38
2465.34	0.374
2473.29	0.372
2481.24	0.374
2489.19	0.38
2497.14	0.385
2505.08	0.395
2513.03	0.401
2520.98	0.404
2528.93	0.407
2536.88	0.408
2544.83	0.409
2552.78	0.409
2560.73	0.409
2568.68	0.408
2576.63	0.407
2584.58	0.405
2592.52	0.407
2600.47	0.412
2608.42	0.433
2616.37	0.441
2624.32	0.442
2632.27	0.442
2640.22	0.442
2648.17	0.44
2656.12	0.435
2664.07	0.429
2672.02	0.419
2679.97	0.4
2687.91	0.392
2695.86	0.385
2703.81	0.383
2711.76	0.38
2719.71	0.377
2727.66	0.377
2735.61	0.38
2743.56	0.388
2751.51	0.405
2759.46	0.419
2767.41	0.428
2775.35	0.424
2783.3	0.42
2791.25	0.412
2799.2	0.405
2807.15	0.397
2815.1	0.399
2823.05	0.392
2831	0.371
2838.95	0.295
2846.9	0.23
2854.85	0.23
2862.79	0.242
2870.74	0.254
2878.69	0.251
2886.64	0.228
2894.59	0.21
2902.54	0.185
2910.49	0.155
2918.44	0.151
2926.39	0.171
2934.34	0.2
2942.29	0.216
2950.24	0.222
2958.18	0.251
2966.13	0.294
2974.08	0.348
2982.03	0.38
2989.98	0.393
2997.93	0.399
3005.88	0.401
3013.83	0.404
3021.78	0.412
3029.73	0.427
3037.68	0.448
3045.62	0.478
3053.57	0.534
3061.52	0.576
3069.47	0.616
3077.42	0.649
3085.37	0.673
3093.32	0.687
3101.27	0.701
3109.22	0.712
3117.17	0.73
3125.12	0.751
3133.06	0.773
3141.01	0.786
3148.96	0.798
3156.91	0.806
3164.86	0.801
3172.81	0.798
3180.76	0.794
3188.71	0.791
3196.66	0.79
3204.61	0.779
3212.56	0.765
3220.5	0.74
3228.45	0.688
3236.4	0.606
3244.35	0.506
3252.3	0.417
3260.25	0.392
3268.2	0.543
3276.15	0.745
3284.1	0.842
3292.05	0.883
3300	0.899
3307.95	0.904
3315.89	0.911
3323.84	0.909
3331.79	0.908
3339.74	0.909
3347.69	0.912
3355.64	0.913
3363.59	0.909
3371.54	0.913
3379.49	0.908
3387.44	0.904
3395.39	0.901
