Infrared Spectrum: N,N'-BIS(MERCAPTOACETYL) HYDRAZINE
Formula: C4 H8 N2 S2 O2
CAS: 62-48-6
State: SOLID (MINERAL OIL MULL)
Melting point: 155-157 C
Class: COBLENTZ
Instrument: Not specified, most likely a prism, grating, or hybrid spectrometer.
Sampling: TRANSMISSION
Resolution: 4
Origin: ARTHUR D. LITTLE, INC.
MICROMETERS	TRANSMITTANCE
2.495	0.762
2.52797	0.762
2.56093	0.765
2.5939	0.774
2.62686	0.777
2.65983	0.779
2.69279	0.782
2.72576	0.785
2.75873	0.787
2.79169	0.789
2.82466	0.793
2.85762	0.808
2.89059	0.812
2.92355	0.805
2.95652	0.79
2.98949	0.766
3.02245	0.654
3.05542	0.552
3.08838	0.371
3.12135	0.18
3.15432	0.139
3.18728	0.213
3.22025	0.409
3.25321	0.424
3.28618	0.306
3.31914	0.369
3.35211	0.415
3.38508	0.306
3.41804	0.155
3.45101	0.178
3.48397	0.266
3.51694	0.31
3.5499	0.623
3.58287	0.709
3.61584	0.739
3.6488	0.771
3.68177	0.766
3.71473	0.771
3.7477	0.773
3.78066	0.773
3.81363	0.772
3.8466	0.762
3.87956	0.785
3.91253	0.747
3.94549	0.755
3.97846	0.79
4.01142	0.81
4.04439	0.825
4.07736	0.83
4.11032	0.836
4.14329	0.839
4.17625	0.842
4.20922	0.845
4.24219	0.847
4.27515	0.849
4.30812	0.852
4.34108	0.856
4.37405	0.858
4.40701	0.861
4.43998	0.864
4.47295	0.866
4.50591	0.867
4.53888	0.867
4.57184	0.868
4.60481	0.871
4.63777	0.873
4.67074	0.875
4.70371	0.877
4.73667	0.88
4.76964	0.882
4.8026	0.886
4.83557	0.889
4.86853	0.891
4.9015	0.887
4.93447	0.889
4.96743	0.898
5.0004	0.899
5.03336	0.901
5.06633	0.901
5.09929	0.9
5.13226	0.9
5.16523	0.9
5.19819	0.901
5.23116	0.903
5.26412	0.905
5.29709	0.906
5.33006	0.906
5.36302	0.904
5.39599	0.903
5.42895	0.901
5.46192	0.9
5.49488	0.903
5.52785	0.903
5.56082	0.896
5.59378	0.886
5.62675	0.879
5.65971	0.885
5.69268	0.887
5.72564	0.882
5.75861	0.869
5.79158	0.858
5.82454	0.847
5.85751	0.835
5.89047	0.825
5.92344	0.808
5.9564	0.772
5.98937	0.748
6.02234	0.692
6.0553	0.666
6.08827	0.576
6.12123	0.502
6.1542	0.412
6.18717	0.328
6.22013	0.232
6.2531	0.157
6.28606	0.075
6.31903	0.068
6.35199	0.112
6.38496	0.166
6.41793	0.251
6.45089	0.306
6.48386	0.386
6.51682	0.459
6.54979	0.486
6.58275	0.504
6.61572	0.498
6.64869	0.355
6.68165	0.257
6.71462	0.222
6.74758	0.31
6.78055	0.418
6.81351	0.481
6.84648	0.429
6.87945	0.399
6.91241	0.44
6.94538	0.478
6.97834	0.553
7.01131	0.625
7.04427	0.677
7.07724	0.61
7.11021	0.518
7.14317	0.672
7.17614	0.699
7.2091	0.709
7.24207	0.674
7.27504	0.604
7.308	0.59
7.34097	0.645
7.37393	0.689
7.4069	0.715
7.43986	0.717
7.47283	0.715
7.5058	0.713
7.53876	0.708
7.57173	0.699
7.60469	0.68
7.63766	0.66
7.67062	0.645
7.70359	0.612
7.73656	0.593
7.76952	0.614
7.80249	0.653
7.83545	0.699
7.86842	0.712
7.90138	0.726
7.93435	0.735
7.96732	0.735
8.00028	0.728
8.03325	0.72
8.06621	0.71
8.09918	0.701
8.13214	0.62
8.16511	0.528
8.19808	0.555
8.23104	0.622
8.26401	0.654
8.29697	0.698
8.32994	0.724
8.36291	0.742
8.39587	0.76
8.42884	0.778
8.4618	0.801
8.49477	0.814
8.52773	0.82
8.5607	0.811
8.59367	0.789
8.62663	0.674
8.6596	0.526
8.69256	0.363
8.72553	0.27
8.75849	0.354
8.79146	0.502
8.82443	0.627
8.85739	0.677
8.89036	0.696
8.92332	0.717
8.95629	0.745
8.98925	0.755
9.02222	0.775
9.05519	0.786
9.08815	0.793
9.12112	0.8
9.15408	0.815
9.18705	0.823
9.22001	0.831
9.25298	0.835
9.28595	0.837
9.31891	0.84
9.35188	0.843
9.38484	0.845
9.41781	0.848
9.45078	0.848
9.48374	0.849
9.51671	0.85
9.54967	0.851
9.58264	0.855
9.6156	0.857
9.64857	0.856
9.68154	0.857
9.7145	0.856
9.74747	0.856
9.78043	0.858
9.8134	0.858
9.84636	0.861
9.87933	0.866
9.9123	0.87
9.94526	0.868
9.97823	0.867
10.0112	0.861
10.0442	0.855
10.0771	0.848
10.1101	0.846
10.1431	0.839
10.176	0.843
10.209	0.846
10.242	0.849
10.2749	0.851
10.3079	0.855
10.3409	0.856
10.3738	0.859
10.4068	0.862
10.4397	0.864
10.4727	0.867
10.5057	0.868
10.5386	0.866
10.5716	0.862
10.6046	0.857
10.6375	0.837
10.6705	0.802
10.7035	0.752
10.7364	0.669
10.7694	0.73
10.8024	0.815
10.8353	0.856
10.8683	0.87
10.9013	0.889
10.9342	0.897
10.9672	0.903
11.0002	0.907
11.0331	0.908
11.0661	0.91
11.0991	0.912
11.132	0.917
11.165	0.92
11.198	0.923
11.2309	0.922
11.2639	0.922
11.2969	0.925
11.3298	0.93
11.3628	0.934
11.3958	0.935
11.4287	0.936
11.4617	0.938
11.4947	0.94
11.5276	0.94
11.5606	0.94
11.5935	0.938
11.6265	0.938
11.6595	0.938
11.6924	0.94
11.7254	0.941
11.7584	0.942
11.7913	0.944
11.8243	0.944
11.8573	0.944
11.8902	0.947
11.9232	0.95
11.9562	0.95
11.9891	0.955
12.0221	0.955
12.0551	0.954
12.088	0.956
12.121	0.958
12.154	0.957
12.1869	0.957
12.2199	0.955
12.2529	0.954
12.2858	0.952
12.3188	0.948
12.3518	0.945
12.3847	0.942
12.4177	0.931
12.4507	0.913
12.4836	0.898
12.5166	0.898
12.5496	0.921
12.5825	0.925
12.6155	0.934
12.6485	0.94
12.6814	0.942
12.7144	0.943
12.7474	0.949
12.7803	0.955
12.8133	0.957
12.8462	0.955
12.8792	0.949
12.9122	0.946
12.9451	0.943
12.9781	0.941
13.0111	0.938
13.044	0.936
13.077	0.934
13.11	0.933
13.1429	0.93
13.1759	0.925
13.2089	0.92
13.2418	0.908
13.2748	0.884
13.3078	0.86
13.3407	0.842
13.3737	0.832
13.4067	0.835
13.4396	0.846
13.4726	0.85
13.5056	0.864
13.5385	0.877
13.5715	0.877
13.6045	0.879
13.6374	0.884
13.6704	0.884
13.7034	0.881
13.7363	0.877
13.7693	0.875
13.8023	0.871
13.8352	0.868
13.8682	0.861
13.9012	0.852
13.9341	0.835
13.9671	0.839
14.0001	0.834
14.033	0.824
14.066	0.796
14.0989	0.767
14.1319	0.73
14.1649	0.689
14.1978	0.652
14.2308	0.642
14.2638	0.647
14.2967	0.669
14.3297	0.709
14.3627	0.738
14.3956	0.757
14.4286	0.781
14.4616	0.793
14.4945	0.8
14.5275	0.805
14.5605	0.803
14.5934	0.799
14.6264	0.796
14.6594	0.79
14.6923	0.781
14.7253	0.769
14.7583	0.757
14.7912	0.739
14.8242	0.734
14.8572	0.709
14.8901	0.696
14.9231	0.677
14.9561	0.659
14.989	0.633
