Infrared Spectrum: Alanine, 2-methyl-,
Formula: C4 H9 N O2
CAS: 62-57-7
State: SOLID (NUJOL MULL)
Class: COBLENTZ III
Instrument: PERKIN-ELMER 21 (GRATING)
Instrument parameters: FILTER AT ABOUT 10 MICRONS
Resolution: 2
Origin: ABBOTT LABORATORIES
1/CM	TRANSMITTANCE
667	0.7193
676	0.7336
685	0.7488
694	0.7496
703	0.7389
712	0.7105
721	0.6829
730	0.7101
739	0.7331
748	0.7398
757	0.7251
766	0.6862
775	0.6621
784	0.3508
793	0.6652
802	0.7075
811	0.7795
820	0.7802
829	0.7766
838	0.7723
847	0.7648
856	0.7529
865	0.7337
874	0.6981
883	0.5778
892	0.4757
901	0.7221
910	0.7474
919	0.7217
928	0.7192
937	0.6422
946	0.7144
955	0.7467
964	0.7353
973	0.7408
982	0.7472
991	0.7391
1000	0.7282
1009	0.7366
1018	0.7323
1027	0.7265
1036	0.7142
1045	0.6986
1054	0.7038
1063	0.7071
1072	0.6817
1081	0.5602
1090	0.6703
1099	0.6764
1108	0.6649
1117	0.6527
1126	0.6338
1135	0.604
1144	0.5826
1153	0.565
1162	0.5183
1171	0.4575
1180	0.3535
1189	0.2228
1198	0.4806
1207	0.5947
1216	0.5899
1225	0.5767
1234	0.5508
1243	0.4892
1252	0.3813
1261	0.2579
1270	0.3639
1279	0.3571
1288	0.4036
1297	0.5588
1306	0.5594
1315	0.5267
1324	0.4647
1333	0.3968
1342	0.3142
1351	0.1204
1360	0.0861
1369	0.1935
1378	0.4127
1387	0.3871
1396	0.2413
1405	0.2058
1414	0.3554
1423	0.3251
1432	0.2178
1441	0.1274
1450	0.0749
1459	0.0841
1468	0.2077
1477	0.3517
1486	0.3606
1495	0.3511
1504	0.2977
1513	0.224
1522	0.1512
1531	0.1005
1540	0.1022
1549	0.1842
1558	0.2223
1567	0.1527
1576	0.1417
1585	0.1979
1594	0.2811
1603	0.2711
1612	0.2226
1621	0.1597
1630	0.133
1639	0.1869
1648	0.3254
1657	0.3645
1666	0.4397
1675	0.4819
1684	0.5146
1693	0.5274
1702	0.5367
1711	0.5645
1720	0.5841
1729	0.6066
1738	0.6416
1747	0.6687
1756	0.6725
1765	0.6818
1774	0.7175
1783	0.7427
1792	0.7536
1801	0.768
1810	0.7848
1819	0.7901
1828	0.7947
1837	0.7967
1846	0.7981
1855	0.7997
1864	0.8002
1873	0.8072
1882	0.7976
1891	0.7961
1900	0.7947
1909	0.7924
1918	0.7899
1927	0.7877
1936	0.7878
1945	0.7889
1954	0.789
1963	0.7822
1972	0.7739
1981	0.7651
1990	0.7553
1999	0.7457
2008	0.7363
2017	0.7263
2026	0.7136
2035	0.7015
2044	0.6899
2053	0.6784
2062	0.6685
2071	0.6599
2080	0.6567
2089	0.6591
2098	0.6754
2107	0.701
2116	0.7055
2125	0.7078
2134	0.7259
2143	0.7346
2152	0.7343
2161	0.7322
2170	0.7366
2179	0.7474
2188	0.7504
2197	0.7506
2206	0.7504
2215	0.7492
2224	0.7475
2233	0.7451
2242	0.7411
2251	0.7353
2260	0.7285
2269	0.7212
2278	0.7112
2287	0.6991
2296	0.6871
2305	0.6716
2314	0.6603
2323	0.6575
2332	0.6565
2341	0.6553
2350	0.6541
2359	0.6527
2368	0.6501
2377	0.6365
2386	0.619
2395	0.6136
2404	0.6092
2413	0.6032
2422	0.5954
2431	0.5815
2440	0.5635
2449	0.5534
2458	0.547
2467	0.5441
2476	0.5411
2485	0.5379
2494	0.5286
2503	0.5087
2512	0.4887
2521	0.4635
2530	0.4431
2539	0.4236
2548	0.4046
2557	0.386
2566	0.3532
2575	0.3253
2584	0.3178
2593	0.3172
2602	0.3191
2611	0.353
2620	0.4138
2629	0.4195
2638	0.4129
2647	0.3978
2656	0.3775
2665	0.3575
2674	0.3378
2683	0.3342
2692	0.3342
2701	0.3344
2710	0.3348
2719	0.3349
2728	0.3299
2737	0.3161
2746	0.2992
2755	0.276
2764	0.2532
2773	0.2311
2782	0.2056
2791	0.1676
2800	0.1297
2809	0.0921
2818	0.0547
2827	0.0273
2836	0.0171
2845	0.014
2854	0.012
2863	0.0107
2872	0.0096
2881	0.0092
2890	0.0093
2899	0.01
2908	0.0118
2917	0.0142
2926	0.0174
2935	0.0216
2944	0.0269
2953	0.0469
2962	0.0678
2971	0.0886
2980	0.1108
2989	0.124
2998	0.1261
3007	0.1274
3016	0.1283
3025	0.1301
3034	0.1389
3043	0.1573
3052	0.1813
3061	0.2115
3070	0.246
3079	0.2694
3088	0.2999
3097	0.3249
3106	0.3423
3115	0.3527
3124	0.3627
3133	0.3833
3142	0.4049
3151	0.4265
3160	0.4478
3169	0.4692
3178	0.4903
3187	0.5113
3196	0.5323
3205	0.5623
3214	0.5807
3223	0.5933
3232	0.6054
3241	0.618
3250	0.6554
3259	0.6737
3268	0.6902
3277	0.7071
3286	0.7229
3295	0.7344
3304	0.7479
3313	0.7614
3322	0.7718
3331	0.7793
3340	0.7845
3349	0.7892
3358	0.7932
3367	0.7974
3376	0.8015
3385	0.8048
3394	0.8079
3403	0.8105
3412	0.8124
3421	0.8144
3430	0.8163
3439	0.8178
3448	0.8192
3457	0.8207
3466	0.8219
3475	0.8228
3484	0.8237
3493	0.8238
3502	0.8234
3511	0.8231
3520	0.8225
3529	0.8217
3538	0.8208
3547	0.8197
3556	0.819
3565	0.8184
3574	0.8185
3583	0.8188
3592	0.8191
3601	0.8197
3610	0.8203
3619	0.8205
3628	0.8205
3637	0.8204
3646	0.8193
3655	0.8176
3664	0.8153
3673	0.8128
3682	0.8104
3691	0.8081
3700	0.8058
3709	0.8037
3718	0.802
3727	0.8003
3736	0.7991
3745	0.798
3754	0.797
3763	0.7961
3772	0.7955
3781	0.7948
3790	0.7944
3799	0.7941
3808	0.7937
3817	0.7931
3826	0.7922
3835	0.7913
3844	0.7905
3853	0.7895
3862	0.7879
3871	0.7863
3880	0.7851
3889	0.7839
3898	0.7827
3907	0.7815
3916	0.7802
3925	0.7789
3934	0.7776
3943	0.7762
3952	0.7743
3961	0.7724
3970	0.7704
3979	0.7685
3988	0.7666
3997	0.7649
