Infrared Spectrum: ACETIC ACID, CALCIUM SALT
Formula: C4 H6 O4 Ca
CAS: 62-54-4
State: SOLID (MINERAL OIL MULL)
Class: COBLENTZ
Instrument: Not specified, most likely a prism, grating, or hybrid spectrometer.
Sampling: TRANSMISSION
Resolution: 4
Origin: TENNESSEE EASTMAN COMPANY, RESEARCH LABORATORIES
MICROMETERS	TRANSMITTANCE
2.04	0.953
2.07983	0.956
2.11966	0.963
2.15949	0.968
2.19931	0.966
2.23914	0.941
2.27897	0.913
2.3188	0.912
2.35863	0.915
2.39846	0.918
2.43829	0.922
2.47811	0.93
2.51794	0.935
2.55777	0.936
2.5976	0.938
2.63743	0.938
2.67726	0.938
2.71709	0.932
2.75691	0.82
2.79674	0.804
2.83657	0.819
2.8764	0.855
2.91623	0.854
2.95606	0.824
2.99589	0.81
3.03571	0.796
3.07554	0.741
3.11537	0.691
3.1552	0.668
3.19503	0.665
3.23486	0.665
3.27469	0.638
3.31452	0.383
3.35434	0.028
3.39417	0.044
3.434	0.063
3.47383	0.237
3.51366	0.623
3.55349	0.756
3.59332	0.805
3.63314	0.809
3.67297	0.81
3.7128	0.825
3.75263	0.827
3.79246	0.84
3.83229	0.849
3.87212	0.864
3.91194	0.887
3.95177	0.902
3.9916	0.91
4.03143	0.913
4.07126	0.918
4.11109	0.925
4.15092	0.928
4.19074	0.93
4.23057	0.928
4.2704	0.923
4.31023	0.915
4.35006	0.92
4.38989	0.927
4.42972	0.927
4.46954	0.925
4.50937	0.93
4.5492	0.935
4.58903	0.936
4.62886	0.938
4.66869	0.94
4.70852	0.94
4.74834	0.94
4.78817	0.94
4.828	0.94
4.86783	0.936
4.90766	0.932
4.94749	0.93
4.98732	0.936
5.02714	0.932
5.06697	0.928
5.1068	0.925
5.14663	0.918
5.18646	0.912
5.22629	0.91
5.26612	0.908
5.30595	0.905
5.34577	0.9
5.3856	0.89
5.42543	0.882
5.46526	0.875
5.50509	0.872
5.54492	0.86
5.58475	0.849
5.62457	0.834
5.6644	0.822
5.70423	0.807
5.74406	0.786
5.78389	0.772
5.82372	0.741
5.86355	0.723
5.90337	0.698
5.9432	0.668
5.98303	0.646
6.02286	0.631
6.06269	0.568
6.10252	0.499
6.14235	0.356
6.18217	0.169
6.222	0.203
6.26183	0.339
6.30166	0.281
6.34149	0.175
6.38132	0.164
6.42115	0.145
6.46097	0.132
6.5008	0.124
6.54063	0.167
6.58046	0.212
6.62029	0.271
6.66012	0.33
6.69995	0.338
6.73977	0.237
6.7796	0.107
6.81943	0.094
6.85926	0.074
6.89909	0.126
6.93892	0.182
6.97875	0.202
7.01857	0.222
7.0584	0.265
7.09823	0.336
7.13806	0.396
7.17789	0.381
7.21772	0.268
7.25755	0.28
7.29738	0.383
7.3372	0.461
7.37703	0.522
7.41686	0.547
7.45669	0.598
7.49652	0.645
7.53635	0.676
7.57618	0.686
7.616	0.698
7.65583	0.706
7.69566	0.721
7.73549	0.739
7.77532	0.756
7.81515	0.766
7.85498	0.779
7.8948	0.792
7.93463	0.8
7.97446	0.804
8.01429	0.81
8.05412	0.814
8.09395	0.815
8.13378	0.82
8.1736	0.829
8.21343	0.834
8.25326	0.832
8.29309	0.835
8.33292	0.837
8.37275	0.835
8.41258	0.839
8.4524	0.834
8.49223	0.82
8.53206	0.81
8.57189	0.814
8.61172	0.814
8.65155	0.81
8.69138	0.817
8.7312	0.825
8.77103	0.832
8.81086	0.839
8.85069	0.842
8.89052	0.844
8.93035	0.844
8.97018	0.845
9.01	0.844
9.04983	0.842
9.08966	0.84
9.12949	0.834
9.16932	0.825
9.20915	0.817
9.24898	0.807
9.2888	0.797
9.32863	0.784
9.36846	0.726
9.40829	0.656
9.44812	0.658
9.48795	0.671
9.52778	0.701
9.56761	0.713
9.60743	0.676
9.64726	0.547
9.68709	0.49
9.72692	0.575
9.76675	0.635
9.80658	0.665
9.84641	0.681
9.88623	0.689
9.92606	0.713
9.96589	0.742
10.0057	0.762
10.0455	0.772
10.0854	0.781
10.1252	0.787
10.165	0.791
10.2049	0.791
10.2447	0.782
10.2845	0.784
10.3243	0.784
10.3642	0.769
10.404	0.747
10.4438	0.752
10.4837	0.723
10.5235	0.693
10.5633	0.693
10.6031	0.742
10.643	0.774
10.6828	0.791
10.7226	0.797
10.7625	0.804
10.8023	0.802
10.8421	0.802
10.8819	0.812
10.9218	0.819
10.9616	0.832
11.0014	0.839
11.0413	0.842
11.0811	0.844
11.1209	0.844
11.1607	0.842
11.2006	0.84
11.2404	0.84
11.2802	0.842
11.3201	0.844
11.3599	0.844
11.3997	0.844
11.4395	0.844
11.4794	0.842
11.5192	0.842
11.559	0.839
11.5989	0.832
11.6387	0.832
11.6785	0.827
11.7183	0.822
11.7582	0.822
11.798	0.822
11.8378	0.822
11.8777	0.825
11.9175	0.827
11.9573	0.829
11.9971	0.832
12.037	0.834
12.0768	0.835
12.1166	0.837
12.1565	0.84
12.1963	0.842
12.2361	0.842
12.2759	0.844
12.3158	0.844
12.3556	0.844
12.3954	0.844
12.4353	0.844
12.4751	0.844
12.5149	0.844
12.5548	0.844
12.5946	0.844
12.6344	0.844
12.6742	0.842
12.7141	0.839
12.7539	0.835
12.7937	0.832
12.8336	0.827
12.8734	0.822
12.9132	0.812
12.953	0.81
12.9929	0.807
13.0327	0.81
13.0725	0.805
13.1124	0.805
13.1522	0.802
13.192	0.797
13.2318	0.794
13.2717	0.787
13.3115	0.786
13.3513	0.776
13.3912	0.771
13.431	0.762
13.4708	0.746
13.5106	0.737
13.5505	0.731
13.5903	0.728
13.6301	0.723
13.67	0.719
13.7098	0.716
13.7496	0.709
13.7894	0.704
13.8293	0.701
13.8691	0.708
13.9089	0.718
13.9488	0.731
13.9886	0.739
14.0284	0.744
14.0682	0.747
14.1081	0.751
14.1479	0.751
14.1877	0.751
14.2276	0.751
14.2674	0.751
14.3072	0.749
14.347	0.746
14.3869	0.744
14.4267	0.739
14.4665	0.729
14.5064	0.724
14.5462	0.716
14.586	0.701
14.6258	0.688
14.6657	0.663
14.7055	0.636
14.7453	0.593
14.7852	0.545
14.825	0.504
14.8648	0.49
14.9046	0.48
14.9445	0.484
14.9843	0.497
15.0241	0.537
15.064	0.558
15.1038	0.558
15.1436	0.548
15.1834	0.542
15.2233	0.548
15.2631	0.568
15.3029	0.588
15.3428	0.593
15.3826	0.592
15.4224	0.578
15.4622	0.565
15.5021	0.543
15.5419	0.535
15.5817	0.527
15.6216	0.529
15.6614	0.54
15.7012	0.555
15.741	0.565
15.7809	0.573
15.8207	0.577
15.8605	0.57
15.9004	0.565
15.9402	0.56
15.98	0.56
