Infrared Spectrum: Pentanoic acid,2,2-diphenyl-,diethylaminoethyl ester, hydrochloride
Formula: C23 H32 Cl N O2
CAS: 62-68-0
State: SOLID (OIL MULL)
Class: COBLENTZ III
Instrument: PERKIN-ELMER 21 (GRATING)
Instrument parameters: NaCl PRISM
Sampling: TRANSMISSION
Resolution: 2
Origin: SMITH KLINE & FRENCH LABS.
1/CM	TRANSMITTANCE
657	0.6566
666	0.6842
675	0.7374
684	0.7011
693	0.4091
702	0.3977
711	0.572
720	0.5079
729	0.7183
738	0.7649
747	0.7138
756	0.3958
765	0.7861
774	0.8635
783	0.8937
792	0.9024
801	0.8819
810	0.9052
819	0.897
828	0.8377
837	0.7251
846	0.8977
855	0.9061
864	0.8736
873	0.8944
882	0.8806
891	0.8597
900	0.6848
909	0.8429
918	0.7929
927	0.7904
936	0.7354
945	0.8281
954	0.7193
963	0.774
972	0.7978
981	0.7855
990	0.7759
999	0.6685
1008	0.5052
1017	0.6517
1026	0.4804
1035	0.6284
1044	0.6688
1053	0.7308
1062	0.6139
1071	0.6647
1080	0.6827
1089	0.7626
1098	0.6846
1107	0.5982
1116	0.3818
1125	0.5995
1134	0.7625
1143	0.6751
1152	0.559
1161	0.4284
1170	0.5778
1179	0.5358
1188	0.2849
1197	0.2683
1206	0.3352
1215	0.5325
1224	0.6946
1233	0.7546
1242	0.7199
1251	0.4482
1260	0.6644
1269	0.7051
1278	0.73
1287	0.718
1296	0.6742
1305	0.5706
1314	0.6378
1323	0.6756
1332	0.7042
1341	0.6811
1350	0.6249
1359	0.4907
1368	0.3844
1377	0.3405
1386	0.5852
1395	0.475
1404	0.7153
1413	0.7245
1422	0.6814
1431	0.3747
1440	0.2345
1449	0.1406
1458	0.15
1467	0.2738
1476	0.4682
1485	0.5292
1494	0.5305
1503	0.7675
1512	0.7849
1521	0.7883
1530	0.7787
1539	0.7829
1548	0.7803
1557	0.7792
1566	0.7795
1575	0.757
1584	0.7314
1593	0.6997
1602	0.7635
1611	0.7751
1620	0.7745
1629	0.7652
1638	0.757
1647	0.7429
1656	0.7324
1665	0.7062
1674	0.6495
1683	0.635
1692	0.6035
1701	0.5126
1710	0.2936
1719	0.1024
1728	0.3529
1737	0.6685
1746	0.8452
1755	0.8771
1764	0.8748
1773	0.8695
1782	0.8618
1791	0.8492
1800	0.836
1809	0.8287
1818	0.8332
1827	0.8415
1836	0.837
1845	0.8345
1854	0.8316
1863	0.8201
1872	0.8097
1881	0.8026
1890	0.7984
1899	0.7979
1908	0.7973
1917	0.7956
1926	0.7922
1935	0.7889
1944	0.7868
1953	0.7846
1962	0.7832
1971	0.7831
1980	0.785
1989	0.7871
1998	0.7865
2007	0.7828
2016	0.7786
2025	0.7752
2034	0.7761
2043	0.7759
2052	0.775
2061	0.7738
2070	0.7718
2079	0.7699
2088	0.7667
2097	0.7629
2106	0.7591
2115	0.7554
2124	0.7508
2133	0.7458
2142	0.7409
2151	0.736
2160	0.7309
2169	0.7244
2178	0.7181
2187	0.7116
2196	0.7032
2205	0.6948
2214	0.6865
2223	0.6777
2232	0.6685
2241	0.6594
2250	0.6504
2259	0.6406
2268	0.6293
2277	0.6182
2286	0.6079
2295	0.5976
2304	0.5871
2313	0.5767
2322	0.5644
2331	0.5507
2340	0.5396
2349	0.5294
2358	0.516
2367	0.4992
2376	0.481
2385	0.4624
2394	0.4273
2403	0.4069
2412	0.3874
2421	0.3668
2430	0.3462
2439	0.3212
2448	0.3011
2457	0.3
2466	0.3172
2475	0.3765
2484	0.4335
2493	0.4382
2502	0.4177
2511	0.3911
2520	0.3675
2529	0.3464
2538	0.3095
2547	0.2861
2556	0.289
2565	0.3187
2574	0.3532
2583	0.3874
2592	0.4214
2601	0.4552
2610	0.4759
2619	0.4798
2628	0.507
2637	0.5542
2646	0.5714
2655	0.5825
2664	0.5896
2673	0.5866
2682	0.5763
2691	0.5699
2700	0.5695
2709	0.5792
2718	0.5929
2727	0.6136
2736	0.6209
2745	0.6175
2754	0.5954
2763	0.5522
2772	0.4424
2781	0.3334
2790	0.225
2799	0.1247
2808	0.0929
2817	0.085
2826	0.0808
2835	0.0785
2844	0.0763
2853	0.0739
2862	0.0703
2871	0.0655
2880	0.0619
2889	0.0608
2898	0.0607
2907	0.0628
2916	0.0696
2925	0.1065
2934	0.1762
2943	0.2457
2952	0.3144
2961	0.4096
2970	0.4363
2979	0.4553
2988	0.4679
2997	0.4738
3006	0.4777
3015	0.4837
3024	0.4956
3033	0.5112
3042	0.5287
3051	0.5472
3060	0.5638
3069	0.5677
3078	0.5693
3087	0.5694
3096	0.5668
3105	0.5639
3114	0.5706
3123	0.5765
3132	0.5796
3141	0.5789
3150	0.5795
3159	0.5794
3168	0.5785
3177	0.5775
3186	0.5764
3195	0.575
3204	0.5737
3213	0.5723
3222	0.571
3231	0.5697
3240	0.5686
3249	0.5675
3258	0.5665
3267	0.5655
3276	0.5644
3285	0.5636
3294	0.5629
3303	0.5622
3312	0.5615
3321	0.5609
3330	0.5602
3339	0.5596
3348	0.5598
3357	0.56
3366	0.5602
3375	0.561
3384	0.5617
3393	0.5625
3402	0.5634
3411	0.5642
3420	0.5651
3429	0.5656
3438	0.566
3447	0.5664
3456	0.5668
3465	0.5672
3474	0.5669
3483	0.5662
3492	0.5655
3501	0.5648
3510	0.5641
3519	0.5633
3528	0.563
3537	0.5628
3546	0.5627
3555	0.5624
3564	0.5622
3573	0.5616
3582	0.5608
3591	0.5599
3600	0.56
3609	0.5611
3618	0.5619
3627	0.5624
3636	0.5615
3645	0.5605
3654	0.5591
3663	0.5568
3672	0.5544
3681	0.552
3690	0.5504
3699	0.5487
3708	0.5472
3717	0.5455
3726	0.5441
3735	0.5443
3744	0.5446
3753	0.5448
3762	0.5451
3771	0.5454
3780	0.5456
3789	0.5458
3798	0.5459
3807	0.5461
3816	0.5463
3825	0.5456
3834	0.5448
3843	0.5439
3852	0.5429
3861	0.5382
3870	0.5334
3879	0.5301
3888	0.5281
3897	0.5281
3906	0.5286
3915	0.5291
3924	0.5284
3933	0.5226
3942	0.5171
3951	0.5116
3960	0.5074
3969	0.5045
3978	0.5016
3987	0.4993
3996	0.4983
