Infrared Spectrum: Dichlorvos
Formula: C 4 H 7 Cl 2 O 4 P
CAS: 62-73-7
State: gas
Instrument: HP-GC/MS/IRD
Origin: NIST Mass Spectrometry Data Center
1/CM	ABSORBANCE
550	0.0173604
562	0.0121693
574	0.0048507
586	0.0017871
598	0.0005957
610	0.0001702
622	0.0007659
634	0.0029785
646	0.007659
658	0.013616
670	0.0118289
682	0.0068931
694	0.0045954
706	0.0040848
718	0.0049358
730	0.0080845
742	0.0174455
754	0.0396566
766	0.0590594
778	0.0531875
790	0.0446775
802	0.055315
814	0.0772708
826	0.120076
838	0.23394
850	0.435797
862	0.331209
874	0.099567
886	0.0428053
898	0.0273171
910	0.0222111
922	0.021275
934	0.0262108
946	0.0464646
958	0.113523
970	0.271554
982	0.300658
994	0.122374
1006	0.0721648
1018	0.0988011
1030	0.202027
1042	0.454859
1054	0.77041
1066	0.832193
1078	0.562851
1090	0.276235
1102	0.188922
1114	0.169009
1126	0.169009
1138	0.222196
1150	0.429585
1162	0.470858
1174	0.173434
1186	0.0975246
1198	0.0746327
1210	0.0580382
1222	0.052762
1234	0.0491878
1246	0.0447626
1258	0.0429755
1270	0.0568468
1282	0.12331
1294	0.188667
1306	0.17871
1318	0.219303
1330	0.185688
1342	0.0786324
1354	0.0321678
1366	0.0199985
1378	0.0160839
1390	0.0142117
1402	0.0129352
1414	0.0115736
1426	0.0106375
1438	0.0126799
1450	0.022126
1462	0.0266363
1474	0.0193177
1486	0.0130203
1498	0.0097865
1510	0.0084249
1522	0.0082547
1534	0.0086802
1546	0.0090206
1558	0.0088504
1570	0.00851
1582	0.0087653
1594	0.0108928
1606	0.0154882
1618	0.0240833
1630	0.0416139
1642	0.0593147
1654	0.0447626
1666	0.0177859
1678	0.0074888
1690	0.0046805
1702	0.0034891
1714	0.0029785
1726	0.0019573
1738	0.0011063
1750	0.0007659
1762	0.0006808
1774	0.0009361
1786	0.0017871
1798	0.0033189
1810	0.005106
1822	0.0062974
1834	0.0057868
1846	0.0039997
1858	0.0028083
1870	0.0026381
1882	0.003404
1894	0.0047656
1906	0.0064676
1918	0.0068931
1930	0.0054464
1942	0.0031487
1954	0.0017871
1966	0.0011914
1978	0.0010212
1990	0.0013616
2002	0.0021275
2014	0.0026381
2026	0.0018722
2038	0.0011914
2050	0.0010212
2062	0.0007659
2074	0.0007659
2086	0.0006808
2098	0.0006808
2110	0.0005106
2122	0.0004255
2134	0.0003404
2146	0.0002553
2158	8.51e-05
2170	0.0001702
2182	8.51e-05
2194	0.0005106
2206	0.0009361
2218	0.0014467
2230	0.0012765
2242	0.0006808
2254	0.0006808
2266	0.0010212
2278	0.0016169
2290	0.0024679
2302	0.0031487
2314	0.002553
2326	0.0011914
2338	0.0004255
2350	0.0002553
2362	0.0001702
2374	0.0002553
2386	8.51e-05
2398	0
2410	0
2422	0
2434	8.51e-05
2446	0.0001702
2458	0.0001702
2470	0
2482	0.0002553
2494	8.51e-05
2506	8.51e-05
2518	0.0001702
2530	8.51e-05
2542	8.51e-05
2554	0.0002553
2566	0.0004255
2578	0.0005106
2590	0.0006808
2602	0.0006808
2614	0.0007659
2626	0.000851
2638	0.000851
2650	0.000851
2662	0.0005957
2674	0.0004255
2686	0.0005106
2698	0.0004255
2710	0.0005106
2722	0.0005957
2734	0.0005106
2746	0.0006808
2758	0.0009361
2770	0.0013616
2782	0.0020424
2794	0.002553
2806	0.0028083
2818	0.0033189
2830	0.0049358
2842	0.0083398
2854	0.0180412
2866	0.0365079
2878	0.0222111
2890	0.0119991
2902	0.0115736
2914	0.0142968
2926	0.0176157
2938	0.0205942
2950	0.034891
2962	0.0840788
2974	0.0782069
2986	0.0361675
2998	0.0292744
3010	0.028934
3022	0.0273171
3034	0.0240833
3046	0.0182114
3058	0.0169349
3070	0.0245088
3082	0.0450179
3094	0.0219558
3106	0.0099567
3118	0.0068931
3130	0.0047656
3142	0.0033189
3154	0.0023828
3166	0.0016169
3178	0.0011063
3190	0.0007659
3202	0.0006808
3214	0.0004255
3226	0.0005106
3238	0.0005957
3250	0.0006808
3262	0.0007659
3274	0.0007659
3286	0.0006808
3298	0.0004255
3310	0.0004255
3322	0.0002553
3334	0.0002553
3346	0.0002553
3358	0.0001702
3370	0.0002553
3382	0.0002553
3394	0.0002553
3406	0.0002553
3418	0.0002553
3430	0.0002553
3442	0.0002553
3454	0.0002553
3466	0.0001702
3478	0.0002553
3490	0.0002553
3502	0.0001702
3514	0.0001702
3526	0.0001702
3538	8.51e-05
3550	0.0001702
3562	0.0002553
3574	0.0002553
3586	0.0001702
3598	8.51e-05
3610	0.0002553
3622	0.0002553
3634	8.51e-05
3646	0.0001702
3658	8.51e-05
3670	8.51e-05
3682	0.0001702
3694	0.0002553
3706	0.0001702
3718	0.0002553
3730	0.0003404
3742	0.0005106
3754	0.0003404
3766	0.0001702
3778	8.51e-05
3790	0.0002553
3802	0.0002553
3814	0.0001702
3826	0.0003404
3838	0.0003404
