Infrared Spectrum: 4-ANDROSTENE-17-Beta-OL-3-ONE, 19-NOR-Delta-, PHENYLPROPIONATE
Formula: C27 H34 O3
CAS: 62-90-8
State: SOLID (KBr DISC) VS KBr
Class: COBLENTZ III
Instrument: PERKIN-ELMER 21 (GRATING)
Instrument parameters: FILTER AT ABOUT 10 MICRONS
Sampling: TRANSMISSION
Resolution: 2
1/CM	TRANSMITTANCE
4000	0.8545
3991	0.8551
3982	0.8557
3973	0.8563
3964	0.8568
3955	0.8575
3946	0.8581
3937	0.8587
3928	0.8592
3919	0.8597
3910	0.8603
3901	0.8609
3892	0.8614
3883	0.862
3874	0.8625
3865	0.8631
3856	0.8637
3847	0.8642
3838	0.8646
3829	0.8649
3820	0.8653
3811	0.8656
3802	0.8661
3793	0.8664
3784	0.8668
3775	0.8671
3766	0.8675
3757	0.8678
3748	0.8683
3739	0.8686
3730	0.8689
3721	0.8692
3712	0.8695
3703	0.8699
3694	0.8701
3685	0.8702
3676	0.8703
3667	0.8704
3658	0.8704
3649	0.8704
3640	0.8704
3631	0.8702
3622	0.8701
3613	0.8686
3604	0.8661
3595	0.8634
3586	0.8608
3577	0.8581
3568	0.8554
3559	0.8535
3550	0.8517
3541	0.8499
3532	0.848
3523	0.8464
3514	0.8449
3505	0.8433
3496	0.8418
3487	0.8408
3478	0.8399
3469	0.839
3460	0.8385
3451	0.8383
3442	0.8399
3433	0.8435
3424	0.8468
3415	0.8494
3406	0.852
3397	0.8546
3388	0.8571
3379	0.8597
3370	0.8621
3361	0.8646
3352	0.8671
3343	0.8696
3334	0.8721
3325	0.8747
3316	0.8771
3307	0.8796
3298	0.8818
3289	0.8843
3280	0.886
3271	0.8868
3262	0.8878
3253	0.8887
3244	0.8894
3235	0.8897
3226	0.8901
3217	0.8905
3208	0.8909
3199	0.8909
3190	0.8908
3181	0.8906
3172	0.89
3163	0.8893
3154	0.8885
3145	0.8861
3136	0.8823
3127	0.8763
3118	0.8698
3109	0.8633
3100	0.8584
3091	0.8565
3082	0.8375
3073	0.8158
3064	0.7996
3055	0.7947
3046	0.7928
3037	0.7912
3028	0.7595
3019	0.7185
3010	0.6625
3001	0.6062
2992	0.5497
2983	0.4927
2974	0.4355
2965	0.3778
2956	0.3482
2947	0.348
2938	0.4064
2929	0.4856
2920	0.5432
2911	0.5501
2902	0.5439
2893	0.5183
2884	0.5081
2875	0.5125
2866	0.5784
2857	0.6542
2848	0.7271
2839	0.7585
2830	0.7983
2821	0.8252
2812	0.8408
2803	0.8516
2794	0.8578
2785	0.8633
2776	0.8664
2767	0.8696
2758	0.8721
2749	0.8738
2740	0.8754
2731	0.8771
2722	0.8787
2713	0.8804
2704	0.8818
2695	0.883
2686	0.8842
2677	0.8854
2668	0.8866
2659	0.8877
2650	0.889
2641	0.8904
2632	0.8917
2623	0.8931
2614	0.8945
2605	0.8959
2596	0.8973
2587	0.8987
2578	0.9004
2569	0.9055
2560	0.9097
2551	0.911
2542	0.911
2533	0.911
2524	0.9109
2515	0.9112
2506	0.9118
2497	0.9124
2488	0.913
2479	0.9137
2470	0.9149
2461	0.9162
2452	0.9175
2443	0.919
2434	0.9207
2425	0.9224
2416	0.9228
2407	0.922
2398	0.9211
2389	0.92
2380	0.9188
2371	0.9178
2362	0.9175
2353	0.9171
2344	0.9177
2335	0.9188
2326	0.9208
2317	0.9231
2308	0.9255
2299	0.9274
2290	0.9293
2281	0.9313
2272	0.9325
2263	0.9335
2254	0.9345
2245	0.9355
2236	0.9364
2227	0.9374
2218	0.9383
2209	0.939
2200	0.9397
2191	0.9405
2182	0.9412
2173	0.9418
2164	0.9425
2155	0.9433
2146	0.9439
2137	0.9446
2128	0.9455
2119	0.9463
2110	0.9471
2101	0.948
2092	0.9489
2083	0.9498
2074	0.9506
2065	0.9515
2056	0.9524
2047	0.9534
2038	0.9544
2029	0.9542
2020	0.9539
2011	0.953
2002	0.9513
1993	0.9473
1984	0.9414
1975	0.9402
1966	0.9483
1957	0.9558
1948	0.958
1939	0.9585
1930	0.9585
1921	0.9577
1912	0.9564
1903	0.9548
1894	0.9531
1885	0.9524
1876	0.9559
1867	0.9581
1858	0.9536
1849	0.9489
1840	0.943
1831	0.9371
1822	0.9324
1813	0.932
1804	0.9273
1795	0.9133
1786	0.8908
1777	0.8594
1768	0.7825
1759	0.6398
1750	0.4662
1741	0.2252
1732	0.3334
1723	0.5698
1714	0.6921
1705	0.4568
1696	0.2819
1687	0.1895
1678	0.2834
1669	0.4562
1660	0.6307
1651	0.7281
1642	0.7478
1633	0.6961
1624	0.6569
1615	0.689
1606	0.801
1597	0.8591
1588	0.8727
1579	0.9033
1570	0.9096
1561	0.918
1552	0.9214
1543	0.9321
1534	0.9304
1525	0.9278
1516	0.9232
1507	0.7755
1498	0.8184
1489	0.8716
1480	0.8111
1471	0.778
1462	0.6728
1453	0.5866
1444	0.7549
1435	0.7404
1426	0.7061
1417	0.806
1408	0.8573
1399	0.7978
1390	0.7388
1381	0.7572
1372	0.6995
1363	0.6921
1354	0.7368
1345	0.6682
1336	0.6264
1327	0.7218
1318	0.7595
1309	0.7025
1300	0.5468
1291	0.503
1282	0.5396
1273	0.5539
1264	0.4347
1255	0.4447
1246	0.3894
1237	0.4383
1228	0.5833
1219	0.6043
1210	0.501
1201	0.5159
1192	0.5665
1183	0.4594
1174	0.4114
1165	0.4505
1156	0.4915
1147	0.5384
1138	0.678
1129	0.6997
1120	0.7433
1111	0.7654
1102	0.8437
1093	0.8324
1084	0.7611
1075	0.8028
1066	0.8217
1057	0.6851
1048	0.5864
1039	0.6519
1030	0.6126
1021	0.6686
1012	0.7315
1003	0.6795
994	0.7403
985	0.831
976	0.7858
967	0.7071
958	0.745
949	0.8413
940	0.8954
931	0.8768
922	0.8492
913	0.8573
904	0.8487
895	0.903
886	0.8144
877	0.7
868	0.8561
859	0.8448
850	0.8832
841	0.9015
832	0.873
823	0.9003
814	0.8918
805	0.911
796	0.9292
787	0.8558
778	0.828
769	0.8339
760	0.6812
751	0.6621
742	0.7581
733	0.8333
724	0.8803
715	0.8503
706	0.6043
697	0.7262
688	0.8884
679	0.9196
670	0.9102
661	0.9288
