Infrared Spectrum: OXALIC ACID, DICYCLOHEXYL ESTER
Formula: C14 H22 O4
CAS: 620-82-6
State: SOLID (MINERAL OIL MULL)
Melting point: 42-43 C
Class: COBLENTZ
Instrument: Not specified, most likely a prism, grating, or hybrid spectrometer.
Sampling: TRANSMISSION
Resolution: 4
Origin: WYANDOTTE CHEMICALS CORP., WYANDOTTE, MICHIGAN, USA
MICROMETERS	TRANSMITTANCE
2.014	0.67
2.05489	0.677
2.09579	0.67
2.13668	0.677
2.17758	0.66
2.21847	0.641
2.25937	0.641
2.30026	0.651
2.34115	0.65
2.38205	0.677
2.42294	0.68
2.46384	0.686
2.50473	0.697
2.54563	0.711
2.58652	0.701
2.62741	0.726
2.66831	0.728
2.7092	0.721
2.7501	0.738
2.79099	0.728
2.83189	0.715
2.87278	0.68
2.91367	0.686
2.95457	0.704
2.99546	0.709
3.03636	0.713
3.07725	0.713
3.11815	0.699
3.15904	0.701
3.19993	0.699
3.24083	0.672
3.28172	0.614
3.32262	0.377
3.36351	0.037
3.40441	0.047
3.4453	0.059
3.48619	0.059
3.52709	0.313
3.56798	0.622
3.60888	0.733
3.64977	0.757
3.69067	0.738
3.73156	0.718
3.77245	0.728
3.81335	0.778
3.85424	0.778
3.89514	0.798
3.93603	0.808
3.97693	0.805
4.01782	0.776
4.05871	0.761
4.09961	0.808
4.1405	0.817
4.1814	0.837
4.22229	0.831
4.26319	0.832
4.30408	0.849
4.34497	0.88
4.38587	0.878
4.42676	0.848
4.46766	0.87
4.50855	0.86
4.54945	0.873
4.59034	0.875
4.63123	0.875
4.67213	0.889
4.71302	0.882
4.75392	0.892
4.79481	0.882
4.83571	0.895
4.8766	0.892
4.91749	0.889
4.95839	0.902
4.99928	0.911
5.04018	0.914
5.08107	0.921
5.12197	0.911
5.16286	0.918
5.20375	0.909
5.24465	0.901
5.28554	0.897
5.32644	0.887
5.36733	0.843
5.40823	0.813
5.44912	0.791
5.49001	0.73
5.53091	0.633
5.5718	0.559
5.6127	0.418
5.65359	0.262
5.69449	0.143
5.73538	0.087
5.77627	0.087
5.81717	0.283
5.85806	0.353
5.89896	0.448
5.93985	0.554
5.98075	0.621
6.02164	0.675
6.06253	0.73
6.10343	0.761
6.14432	0.812
6.18522	0.817
6.22611	0.839
6.26701	0.858
6.3079	0.868
6.34879	0.863
6.38969	0.877
6.43058	0.851
6.47148	0.856
6.51237	0.839
6.55327	0.844
6.59416	0.812
6.63505	0.817
6.67595	0.81
6.71684	0.745
6.75774	0.501
6.79863	0.215
6.83953	0.177
6.88042	0.127
6.92131	0.255
6.96221	0.621
7.0031	0.711
7.044	0.749
7.08489	0.733
7.12579	0.715
7.16668	0.648
7.20757	0.464
7.24847	0.331
7.28936	0.317
7.33026	0.465
7.37115	0.496
7.41205	0.581
7.45294	0.602
7.49383	0.614
7.53473	0.61
7.57562	0.462
7.61652	0.554
7.65741	0.518
7.69831	0.532
7.7392	0.534
7.78009	0.529
7.82099	0.496
7.86188	0.445
7.90278	0.291
7.94367	0.31
7.98457	0.281
8.02546	0.22
8.06635	0.262
8.10725	0.233
8.14814	0.197
8.18904	0.17
8.22993	0.151
8.27083	0.124
8.31172	0.11
8.35261	0.076
8.39351	0.073
8.4344	0.063
8.4753	0.063
8.51619	0.076
8.55709	0.11
8.59798	0.15
8.63887	0.201
8.67977	0.146
8.72066	0.114
8.76156	0.156
8.80245	0.209
8.84335	0.233
8.88424	0.255
8.92513	0.274
8.96603	0.331
9.00692	0.36
9.04782	0.392
9.08871	0.3
9.12961	0.298
9.1705	0.435
9.2114	0.486
9.25229	0.465
9.29318	0.58
9.33408	0.614
9.37497	0.643
9.41587	0.631
9.45676	0.68
9.49766	0.718
9.53855	0.674
9.57944	0.453
9.62034	0.276
9.66123	0.298
9.70213	0.469
9.74302	0.558
9.78392	0.476
9.82481	0.3
9.8657	0.167
9.9066	0.121
9.94749	0.119
9.98839	0.165
10.0293	0.213
10.0702	0.269
10.1111	0.3
10.152	0.351
10.1929	0.39
10.2338	0.424
10.2746	0.448
10.3155	0.472
10.3564	0.488
10.3973	0.506
10.4382	0.52
10.4791	0.54
10.52	0.559
10.5609	0.593
10.6018	0.607
10.6427	0.605
10.6836	0.595
10.7245	0.523
10.7654	0.324
10.8063	0.189
10.8472	0.237
10.8881	0.145
10.929	0.165
10.9698	0.22
11.0107	0.254
11.0516	0.242
11.0925	0.141
11.1334	0.163
11.1743	0.177
11.2152	0.156
11.2561	0.363
11.297	0.529
11.3379	0.587
11.3788	0.616
11.4197	0.629
11.4606	0.638
11.5015	0.639
11.5424	0.66
11.5833	0.672
11.6242	0.682
11.6651	0.694
11.7059	0.708
11.7468	0.715
11.7877	0.715
11.8286	0.706
11.8695	0.578
11.9104	0.361
11.9513	0.5
11.9922	0.61
12.0331	0.663
12.074	0.697
12.1149	0.711
12.1558	0.723
12.1967	0.715
12.2376	0.689
12.2785	0.544
12.3194	0.281
12.3603	0.307
12.4011	0.496
12.442	0.604
12.4829	0.656
12.5238	0.686
12.5647	0.699
12.6056	0.704
12.6465	0.699
12.6874	0.67
12.7283	0.704
12.7692	0.738
12.8101	0.754
12.851	0.759
12.8919	0.769
12.9328	0.759
12.9737	0.767
13.0146	0.732
13.0555	0.59
13.0964	0.39
13.1372	0.489
13.1781	0.622
13.219	0.689
13.2599	0.704
13.3008	0.721
13.3417	0.735
13.3826	0.742
13.4235	0.747
13.4644	0.747
13.5053	0.752
13.5462	0.749
13.5871	0.75
13.628	0.749
13.6689	0.75
13.7098	0.74
13.7507	0.74
13.7916	0.752
13.8324	0.757
13.8733	0.75
13.9142	0.762
13.9551	0.769
13.996	0.781
14.0369	0.791
14.0778	0.798
14.1187	0.803
14.1596	0.817
14.2005	0.812
14.2414	0.815
14.2823	0.813
14.3232	0.815
14.3641	0.819
14.405	0.81
14.4459	0.819
14.4868	0.817
14.5277	0.819
14.5685	0.82
14.6094	0.819
14.6503	0.819
14.6912	0.815
14.7321	0.82
14.773	0.82
14.8139	0.822
14.8548	0.812
14.8957	0.817
14.9366	0.815
14.9775	0.81
15.0184	0.786
15.0593	0.769
15.1002	0.771
15.1411	0.784
15.182	0.791
15.2229	0.808
15.2637	0.788
15.3046	0.791
15.3455	0.784
15.3864	0.778
15.4273	0.773
15.4682	0.766
15.5091	0.761
15.55	0.767
15.5909	0.754
15.6318	0.75
15.6727	0.735
15.7136	0.74
15.7545	0.73
15.7954	0.726
15.8363	0.718
15.8772	0.718
15.9181	0.701
15.959	0.696
