Infrared Spectrum: Diphenylmethane-4-carboxylic acid
Formula: C 14 H 12 O 2
CAS: 620-86-0
State: gas
Origin: EPA-IR VAPOR PHASE LIBRARY
1/CM	ABSORBANCE
549.8	0.012524
559.445	0.016644
569.09	0.019964
578.734	0.016054
588.379	0.010084
598.024	0.005534
607.669	0.005844
617.313	0.011944
626.958	0.006644
636.603	0.004274
646.248	0.003424
655.893	0.003384
665.537	0.004044
675.182	0.006494
684.827	0.012984
694.472	0.026364
704.116	0.034834
713.761	0.047814
723.406	0.037344
733.051	0.023124
742.695	0.023104
752.34	0.022044
761.985	0.018174
771.63	0.011834
781.275	0.005654
790.919	0.003874
800.564	0.003214
810.209	0.002974
819.854	0.002454
829.498	0.002964
839.143	0.003204
848.788	0.004654
858.433	0.005284
868.078	0.003724
877.722	0.002304
887.367	0.002064
897.012	0.002114
906.657	0.002654
916.301	0.002344
925.946	0.002114
935.591	0.001654
945.236	0.001764
954.88	0.001694
964.525	0.002034
974.17	0.001714
983.815	0.001624
993.46	0.002114
1003.1	0.003334
1012.75	0.008894
1022.39	0.018884
1032.04	0.009164
1041.68	0.005274
1051.33	0.008084
1060.97	0.020214
1070.62	0.060914
1080.26	0.097064
1089.91	0.042214
1099.55	0.017134
1109.2	0.010464
1118.84	0.008974
1128.49	0.008704
1138.13	0.009634
1147.78	0.013584
1157.42	0.028394
1167.07	0.069584
1176.71	0.069714
1186.36	0.038794
1196	0.031334
1205.64	0.013134
1215.29	0.008464
1224.93	0.007924
1234.58	0.009114
1244.22	0.010234
1253.87	0.012464
1263.51	0.014194
1273.16	0.012564
1282.8	0.012634
1292.45	0.013994
1302.09	0.016404
1311.74	0.019914
1321.38	0.019664
1331.03	0.016524
1340.67	0.017644
1350.32	0.028504
1359.96	0.035394
1369.61	0.019094
1379.25	0.009004
1388.9	0.005714
1398.54	0.005774
1408.18	0.009834
1417.83	0.012844
1427.47	0.007364
1437.12	0.006394
1446.76	0.006994
1456.41	0.005774
1466.05	0.003704
1475.7	0.002884
1485.34	0.005014
1494.99	0.012704
1504.63	0.007644
1514.28	0.004204
1523.92	0.002344
1533.57	0.002194
1543.21	0.002144
1552.86	0.002794
1562.5	0.004154
1572.15	0.005974
1581.79	0.007464
1591.44	0.010384
1601.08	0.020374
1610.73	0.026684
1620.37	0.014504
1630.01	0.004244
1639.66	0.002504
1649.3	0.002274
1658.95	0.002404
1668.59	0.002444
1678.24	0.002844
1687.88	0.003804
1697.53	0.005204
1707.17	0.006594
1716.82	0.009174
1726.46	0.011264
1736.11	0.021424
1745.75	0.058574
1755.4	0.182054
1765.04	0.143214
1774.69	0.039254
1784.33	0.016364
1793.98	0.010504
1803.62	0.008344
1813.27	0.006624
1822.91	0.004994
1832.55	0.003124
1842.2	0.002064
1851.84	0.001764
1861.49	0.001734
1871.13	0.001824
1880.78	0.001954
1890.42	0.001874
1900.07	0.001884
1909.71	0.002164
1919.36	0.002824
1929	0.003324
1938.65	0.003064
1948.29	0.002474
1957.94	0.001954
1967.58	0.0012456
1977.23	0.0009947
1986.87	0.0009431
1996.52	0.0009129
2006.16	0.0008918
2015.81	0.0007972
2025.45	0.0007612
2035.1	0.0007139
2044.74	0.0007445
2054.38	0.0006238
2064.03	0.0006725
2073.67	0.0007548
2083.32	0.0006689
2092.96	0.0007472
2102.61	0.0007496
2112.25	0.000684
2121.9	0.0007295
2131.54	0.0008571
2141.19	0.0010086
2150.83	0.0010282
2160.48	0.0009378
2170.12	0.0007278
2179.77	0.0006417
2189.41	0.0005045
2199.06	0.0004532
2208.7	0.0006507
2218.35	0.0006274
2227.99	0.000619
2237.64	0.0006442
2247.28	0.000709
2256.92	0.0006974
2266.57	0.0006749
2276.21	0.0006244
2285.86	0.0006267
2295.5	0.0006658
2305.15	0.0007409
2314.79	0.0008433
2324.44	0.0009777
2334.08	0.0011003
2343.73	0.001101
2353.37	0.0010154
2363.02	0.0011112
2372.66	0.000837
2382.31	0.00087
2391.95	0.0008356
2401.6	0.0007335
2411.24	0.0008289
2420.89	0.0008748
2430.53	0.0009021
2440.18	0.0008498
2449.82	0.0008448
2459.47	0.0006814
2469.11	0.0007123
2478.75	0.0006558
2488.4	0.0006028
2498.04	0.0006693
2507.69	0.000683
2517.33	0.000699
2526.98	0.0006241
2536.62	0.0007192
2546.27	0.0006408
2555.91	0.0006597
2565.56	0.0006754
2575.2	0.0007327
2584.85	0.0007284
2594.49	0.0007077
2604.14	0.0008048
2613.78	0.0007398
2623.43	0.0006739
2633.07	0.0006474
2642.72	0.0007507
2652.36	0.000526
2662.01	0.0005196
2671.65	0.0005248
2681.29	0.0005244
2690.94	0.0005342
2700.58	0.0006847
2710.23	0.0005698
2719.87	0.0005447
2729.52	0.0005178
2739.16	0.0006055
2748.81	0.0006996
2758.45	0.000708
2768.1	0.0007683
2777.74	0.0009066
2787.39	0.0009535
2797.03	0.0007907
2806.68	0.0007501
2816.32	0.0010263
2825.97	0.0012132
2835.61	0.001834
2845.26	0.002694
2854.9	0.003024
2864.55	0.002534
2874.19	0.002034
2883.84	0.002004
2893.48	0.002474
2903.12	0.003774
2912.77	0.006394
2922.41	0.008974
2932.06	0.008234
2941.7	0.005234
2951.35	0.002974
2960.99	0.001904
2970.64	0.001624
2980.28	0.001604
2989.93	0.002004
2999.57	0.003164
3009.22	0.005124
3018.86	0.008214
3028.51	0.014464
3038.15	0.017544
3047.8	0.012054
3057.44	0.010394
3067.09	0.015314
3076.73	0.014914
3086.38	0.010074
3096.02	0.007924
3105.67	0.005564
3115.31	0.003504
3124.95	0.001994
3134.6	0.0012275
3144.24	0.0007901
3153.89	0.0006328
3163.53	0.0007445
3173.18	0.0005906
3182.82	0.0002612
3192.47	0.0005416
3202.11	0.00039547
3211.76	0.00045384
3221.4	0.00039343
3231.05	0.0003252
3240.69	0.0002801
3250.34	0.00019
3259.98	0.00037613
3269.63	0.0003002
3279.27	0.00041066
3288.92	0.0005203
3298.56	0.00024
3308.21	0.0003331
3317.85	0.0002706
3327.49	0.00038099
3337.14	0.0005289
3346.78	0.00036447
3356.43	0.00037944
3366.07	0.0004683
3375.72	0.00036886
3385.36	0.0003301
3395.01	0.000166
3404.65	0.00034469
3414.3	0.00043835
3423.94	0.0002837
3433.59	0.0003681
3443.23	0.00037246
3452.88	0.0003289
3462.52	0.00039312
3472.17	0.0005214
3481.81	0.0008553
3491.46	0.0012668
3501.1	0.001634
3510.75	0.0011603
3520.39	0.0008739
3530.04	0.0010333
3539.68	0.0009856
3549.32	0.0010086
3558.97	0.002354
3568.61	0.008114
3578.26	0.044254
3587.9	0.054384
3597.55	0.006654
3607.19	0.001684
3616.84	0.0011827
3626.48	0.0011524
3636.13	0.0006183
3645.77	0.0005404
3655.42	0.0005747
3665.06	0.000589
3674.71	0.0005045
3684.35	0.00041242
3694	0.00042082
3703.64	0.0004732
3713.29	0.0003097
3722.93	0.00040855
3732.58	0.0002907
3742.22	0.000125
3751.86	0.000214
3761.51	0.000188
3771.15	0.0002913
3780.8	0.0005025
3790.44	0.000154
3800.09	0.000215
3809.73	0.0002996
3819.38	0.0005308
3829.02	9.8e-05
3838.67	0.00037336
3848.31	0.00040182
3857.96	0.000195
3867.6	0.000248
3877.25	0.0002554
3886.89	0.0003787
3896.54	0.000154
3906.18	8.9e-05
3915.83	0.000196
3925.47	0.0003076
3935.12	0.00039796
3944.76	0.000248
3954.41	0.000111
3964.05	0.0003105
3973.69	0.000132
3983.34	0
3992.98	0.000114
