Infrared Spectrum: BIS-(PHENYL-CARBAMYL)
Formula: C14 H12 N2 O2
CAS: 620-81-5
State: SOLID (0.5% IN KBr PELLET)
Class: COBLENTZ
Instrument: Not specified, most likely a prism, grating, or hybrid spectrometer.
Sampling: TRANSMISSION
Path length: 0.0355 CM
Resolution: 4
Origin: ANDERSON PHYSICAL LABORATORY
1/CM	TRANSMITTANCE
665.834	0.603
674.266	0.5731
682.698	0.3244
691.131	0.5684
699.563	0.698
707.995	0.621
716.427	0.514
724.86	0.355
733.292	0.263
741.724	0.298
750.156	0.249
758.589	0.289
767.021	0.7049
775.453	0.805
783.885	0.8189
792.318	0.878
800.75	0.884
809.182	0.883
817.614	0.875
826.047	0.878
834.479	0.863
842.911	0.846
851.343	0.849
859.776	0.813
868.208	0.674
876.64	0.7509
885.072	0.862
893.505	0.844
901.937	0.718
910.369	0.78
918.801	0.878
927.234	0.88
935.666	0.875
944.098	0.866
952.53	0.857
960.963	0.85
969.395	0.832
977.827	0.834
986.259	0.819
994.692	0.819
1003.12	0.802
1011.56	0.808
1019.99	0.805
1028.42	0.769
1036.85	0.7719
1045.29	0.801
1053.72	0.79
1062.15	0.787
1070.58	0.777
1079.01	0.699
1087.45	0.763
1095.88	0.796
1104.31	0.789
1112.74	0.774
1121.18	0.775
1129.61	0.775
1138.04	0.771
1146.47	0.765
1154.9	0.72
1163.34	0.672
1171.77	0.727
1180.2	0.757
1188.63	0.768
1197.07	0.768
1205.5	0.759
1213.93	0.747
1222.36	0.741
1230.79	0.72
1239.23	0.654
1247.66	0.611
1256.09	0.73
1264.52	0.735
1272.96	0.724
1281.39	0.714
1289.82	0.696
1298.25	0.663
1306.68	0.615
1315.12	0.609
1323.55	0.527
1331.98	0.663
1340.41	0.68
1348.85	0.684
1357.28	0.665
1365.71	0.644
1374.14	0.621
1382.58	0.599
1391.01	0.576
1399.44	0.542
1407.87	0.515
1416.3	0.497
1424.74	0.463
1433.17	0.3911
1441.6	0.2671
1450.03	0.162
1458.47	0.4508
1466.9	0.699
1475.33	0.645
1483.76	0.569
1492.19	0.502
1500.63	0.387
1509.06	0.321
1517.49	0.185
1525.92	0.179
1534.36	0.179
1542.79	0.222
1551.22	0.509
1559.65	0.669
1568.08	0.766
1576.52	0.757
1584.95	0.683
1593.38	0.526
1601.81	0.2332
1610.25	0.3939
1618.68	0.5999
1627.11	0.683
1635.54	0.656
1643.97	0.542
1652.41	0.502
1660.84	0.334
1669.27	0.1699
1677.7	0.165
1686.14	0.3539
1694.57	0.502
1703	0.518
1711.43	0.672
1719.87	0.741
1728.3	0.778
1736.73	0.804
1745.16	0.825
1753.59	0.865
1762.03	0.868
1770.46	0.862
1778.89	0.872
1787.32	0.887
1795.76	0.901
1804.19	0.908
1812.62	0.91
1821.05	0.905
1829.48	0.904
1837.92	0.904
1846.35	0.904
1854.78	0.91
1863.21	0.907
1871.65	0.898
1880.08	0.902
1888.51	0.904
1896.94	0.901
1905.37	0.904
1913.81	0.905
1922.24	0.907
1930.67	0.907
1939.1	0.913
1947.54	0.92
1955.97	0.898
1964.4	0.905
1972.83	0.911
1981.26	0.916
1989.7	0.917
1998.13	0.917
2006.56	0.9147
2014.99	0.914
2023.43	0.9102
2031.86	0.907
2040.29	0.9078
2048.72	0.9132
2057.16	0.919
2065.59	0.9217
2074.02	0.925
2082.45	0.9218
2090.88	0.9156
2099.32	0.911
2107.75	0.911
2116.18	0.9131
2124.61	0.916
2133.05	0.917
2141.48	0.917
2149.91	0.917
2158.34	0.9151
2166.77	0.9133
2175.21	0.911
2183.64	0.9138
2192.07	0.9179
2200.5	0.9197
2208.94	0.922
2217.37	0.9265
2225.8	0.9285
2234.23	0.931
2242.66	0.9309
2251.1	0.926
2259.53	0.9239
2267.96	0.922
2276.39	0.922
2284.83	0.92
2293.26	0.92
2301.69	0.9173
2310.12	0.9125
2318.55	0.9022
2326.99	0.8893
2335.42	0.8842
2343.85	0.883
2352.28	0.883
2360.72	0.8837
2369.15	0.8888
2377.58	0.8926
2386.01	0.896
2394.44	0.8987
2402.88	0.899
2411.31	0.8988
2419.74	0.8945
2428.17	0.8908
2436.61	0.889
2445.04	0.8885
2453.47	0.884
2461.9	0.8807
2470.34	0.878
2478.77	0.878
2487.2	0.8774
2495.63	0.877
2504.06	0.8738
2512.5	0.8687
2520.93	0.866
2529.36	0.8624
2537.79	0.8588
2546.23	0.856
2554.66	0.855
2563.09	0.853
2571.52	0.856
2579.95	0.857
2588.39	0.856
2596.82	0.8522
2605.25	0.844
2613.68	0.841
2622.12	0.8403
2630.55	0.84
2638.98	0.841
2647.41	0.841
2655.84	0.84
2664.28	0.835
2672.71	0.834
2681.14	0.8315
2689.57	0.827
2698.01	0.822
2706.44	0.8214
2714.87	0.8194
2723.3	0.8173
2731.73	0.816
2740.17	0.8137
2748.6	0.8104
2757.03	0.8071
2765.46	0.805
2773.9	0.805
2782.33	0.8077
2790.76	0.81
2799.19	0.808
2807.63	0.8061
2816.06	0.8019
2824.49	0.7951
2832.92	0.7856
2841.35	0.7806
2849.79	0.7755
2858.22	0.774
2866.65	0.772
2875.08	0.772
2883.52	0.7712
2891.95	0.771
2900.38	0.7687
2908.81	0.7643
2917.24	0.7604
2925.68	0.757
2934.11	0.756
2942.54	0.754
2950.97	0.754
2959.41	0.7572
2967.84	0.7594
2976.27	0.76
2984.7	0.759
2993.13	0.7556
3001.57	0.7488
3010	0.7423
3018.43	0.7352
3026.86	0.7298
3035.3	0.7247
3043.73	0.721
3052.16	0.72
3060.59	0.7148
3069.02	0.712
3077.46	0.71
3085.89	0.714
3094.32	0.7188
3102.75	0.721
3111.19	0.7202
3119.62	0.7178
3128.05	0.7137
3136.48	0.7119
3144.92	0.7102
3153.35	0.7068
3161.78	0.7006
3170.21	0.692
3178.64	0.6835
3187.08	0.6674
3195.51	0.6528
3203.94	0.648
3212.37	0.642
3220.81	0.626
3229.24	0.6137
3237.67	0.6042
3246.1	0.5932
3254.53	0.577
3262.97	0.5485
3271.4	0.5254
3279.83	0.5051
3288.26	0.4709
3296.7	0.416
3305.13	0.3847
3313.56	0.3536
3321.99	0.3234
3330.42	0.344
3338.86	0.4423
3347.29	0.5633
3355.72	0.6598
3364.15	0.7007
3372.59	0.7164
3381.02	0.721
3389.45	0.721
3397.88	0.7204
3406.31	0.7182
3414.75	0.7096
3423.18	0.699
3431.61	0.6953
3440.04	0.6842
3448.48	0.6775
3456.91	0.6715
3465.34	0.669
3473.77	0.669
3482.21	0.6694
3490.64	0.6715
3499.07	0.6735
3507.5	0.677
3515.93	0.6785
3524.37	0.682
3532.8	0.6838
3541.23	0.6871
3549.66	0.689
3558.1	0.689
3566.53	0.689
3574.96	0.6921
3583.39	0.696
3591.82	0.7008
3600.26	0.7049
3608.69	0.7071
3617.12	0.7088
3625.55	0.7106
3633.99	0.7139
3642.42	0.7172
3650.85	0.7204
3659.28	0.7237
3667.71	0.724
3676.15	0.726
3684.58	0.726
3693.01	0.727
3701.44	0.73
3709.88	0.73
3718.31	0.732
3726.74	0.732
3735.17	0.73
3743.6	0.729
3752.04	0.729
3760.47	0.729
3768.9	0.729
3777.33	0.7284
3785.77	0.727
3794.2	0.726
3802.63	0.7207
3811.06	0.7146
3819.5	0.7134
3827.93	0.7101
3836.36	0.707
3844.79	0.7046
3853.22	0.702
3861.66	0.702
3870.09	0.704
3878.52	0.705
3886.95	0.7064
3895.39	0.707
3903.82	0.707
3912.25	0.707
3920.68	0.707
3929.11	0.707
3937.55	0.7048
3945.98	0.7015
3954.41	0.6995
3962.84	0.6991
3971.28	0.7026
3979.71	0.704
3988.14	0.7024
