Infrared Spectrum: BENZENEMETHANAMINE, N,N-BIS(PHENYLMETHYL)-
Formula: C21 H21 N
CAS: 620-40-6
State: SOLUTION (10% IN CCl4 FOR 3800-1300, 10% IN CS2 FOR 1300-650, 10% IN CCl4 FOR 650-250 CM^-^1) VERSUS SOLVENT
Melting point: 93 C
Class: COBLENTZ II
Instrument: PERKIN-ELMER 521 (GRATING)
Instrument parameters: GRATING CHANGES AT 2000, 630 CM^-^1
Sampling: TRANSMISSION
Path length: 0.012, 0.011, AND 0.010 CM (CsBr CELL)
Resolution: 4
Origin: DOW CORNING CORP.
1/CM	TRANSMITTANCE
220.667	0.916
230.508	0.907
240.35	0.904
250.191	0.896
260.033	0.902
269.874	0.899
279.716	0.904
289.557	0.9
299.399	0.906
309.24	0.903
319.082	0.9
328.923	0.9
338.764	0.906
348.606	0.888
358.447	0.877
368.289	0.86
378.13	0.863
387.972	0.865
397.813	0.861
407.655	0.875
417.496	0.892
427.338	0.915
437.179	0.923
447.02	0.911
456.862	0.859
466.703	0.853
476.545	0.871
486.386	0.758
496.228	0.616
506.069	0.746
515.911	0.856
525.752	0.864
535.594	0.876
545.435	0.883
555.276	0.887
565.118	0.889
574.959	0.88
584.801	0.864
594.642	0.891
604.484	0.81
614.325	0.834
624.167	0.871
634.008	0.884
643.85	0.906
653.691	0.832
663.532	0.8
673.374	0.79
683.215	0.743
693.057	0.1459
702.898	0.2201
712.74	0.653
722.581	0.51
732.423	0.22
742.264	0.033
752.106	0.3271
761.947	0.702
771.788	0.774
781.63	0.751
791.471	0.795
801.313	0.775
811.154	0.753
820.996	0.723
830.837	0.735
840.679	0.754
850.52	0.753
860.362	0.75
870.203	0.667
880.044	0.779
889.886	0.782
899.727	0.594
909.569	0.604
919.41	0.7471
929.252	0.798
939.093	0.783
948.935	0.754
958.776	0.5979
968.618	0.379
978.459	0.437
988.3	0.5121
998.142	0.731
1007.98	0.791
1017.82	0.762
1027.67	0.173
1037.51	0.812
1047.35	0.814
1057.19	0.763
1067.03	0.457
1076.87	0.516
1086.72	0.786
1096.56	0.739
1106.4	0.577
1116.24	0.366
1126.08	0.464
1135.92	0.727
1145.76	0.761
1155.61	0.743
1165.45	0.753
1175.29	0.771
1185.13	0.791
1194.97	0.758
1204.81	0.744
1214.65	0.805
1224.5	0.762
1234.34	0.605
1244.18	0.4511
1254.02	0.636
1263.86	0.747
1273.7	0.773
1283.54	0.769
1293.39	0.742
1303.23	0.697
1313.07	0.687
1322.91	0.699
1332.75	0.763
1342.59	0.785
1352.43	0.6489
1362.28	0.3281
1372.12	0.5111
1381.96	0.794
1391.8	0.857
1401.64	0.864
1411.48	0.861
1421.32	0.816
1431.17	0.7079
1441.01	0.4169
1450.85	0.2725
1460.69	0.805
1470.53	0.789
1480.37	0.6989
1490.21	0.111
1500.06	0.806
1509.9	0.859
1519.74	0.859
1529.58	0.836
1539.42	0.848
1549.26	0.861
1559.1	0.856
1568.95	0.826
1578.79	0.7579
1588.63	0.765
1598.47	0.6119
1608.31	0.836
1618.15	0.863
1628	0.867
1637.84	0.863
1647.68	0.865
1657.52	0.863
1667.36	0.872
1677.2	0.873
1687.04	0.872
1696.89	0.869
1706.73	0.867
1716.57	0.869
1726.41	0.871
1736.25	0.86
1746.09	0.851
1755.93	0.86
1765.78	0.867
1775.62	0.867
1785.46	0.865
1795.3	0.834
1805.14	0.782
1814.98	0.833
1824.82	0.859
1834.67	0.873
1844.51	0.872
1854.35	0.865
1864.19	0.806
1874.03	0.828
1883.87	0.83
1893.71	0.861
1903.56	0.873
1913.4	0.876
1923.24	0.871
1933.08	0.848
1942.92	0.759
1952.76	0.816
1962.6	0.84
1972.45	0.869
1982.29	0.871
1992.13	0.877
2001.97	0.885
2011.81	0.885
2021.65	0.8812
2031.49	0.885
2041.34	0.887
2051.18	0.885
2061.02	0.885
2070.86	0.8854
2080.7	0.8816
2090.54	0.879
2100.38	0.876
2110.23	0.876
2120.07	0.8797
2129.91	0.884
2139.75	0.882
2149.59	0.877
2159.43	0.876
2169.28	0.875
2179.12	0.8724
2188.96	0.871
2198.8	0.871
2208.64	0.873
2218.48	0.8725
2228.32	0.867
2238.17	0.8674
2248.01	0.871
2257.85	0.8714
2267.69	0.872
2277.53	0.869
2287.37	0.8696
2297.21	0.869
2307.06	0.868
2316.9	0.867
2326.74	0.867
2336.58	0.8672
2346.42	0.872
2356.26	0.871
2366.1	0.875
2375.95	0.8749
2385.79	0.872
2395.63	0.869
2405.47	0.871
2415.31	0.871
2425.15	0.869
2434.99	0.869
2444.84	0.872
2454.68	0.8671
2464.52	0.8678
2474.36	0.869
2484.2	0.864
2494.04	0.869
2503.88	0.868
2513.73	0.868
2523.57	0.867
2533.41	0.8663
2543.25	0.865
2553.09	0.865
2562.93	0.8594
2572.77	0.8579
2582.62	0.8515
2592.46	0.8445
2602.3	0.8405
2612.14	0.8429
2621.98	0.849
2631.82	0.8543
2641.66	0.8578
2651.51	0.8446
2661.35	0.84
2671.19	0.8327
2681.03	0.8186
2690.87	0.7897
2700.71	0.7316
2710.56	0.6422
2720.4	0.6944
2730.24	0.751
2740.08	0.7197
2749.92	0.74
2759.76	0.741
2769.6	0.6947
2779.45	0.5597
2789.29	0.2499
2799.13	0.2491
2808.97	0.3899
2818.81	0.4738
2828.65	0.4748
2838.49	0.5506
2848.34	0.6626
2858.18	0.7384
2868.02	0.7318
2877.86	0.6648
2887.7	0.6735
2897.54	0.717
2907.38	0.7125
2917.23	0.6333
2927.07	0.561
2936.91	0.6225
2946.75	0.7153
2956.59	0.7907
2966.43	0.8218
2976.27	0.83
2986.12	0.8184
2995.96	0.7904
3005.8	0.7242
3015.64	0.6819
3025.48	0.3319
3035.32	0.3038
3045.16	0.5678
3055.01	0.6061
3064.85	0.35
3074.69	0.5566
3084.53	0.4976
3094.37	0.6167
3104.21	0.7445
3114.05	0.8131
3123.9	0.8601
3133.74	0.8682
3143.58	0.873
3153.42	0.873
3163.26	0.8689
3173.1	0.8771
3182.94	0.887
3192.79	0.889
3202.63	0.888
3212.47	0.8909
3222.31	0.893
3232.15	0.8908
3241.99	0.892
3251.84	0.893
3261.68	0.892
3271.52	0.892
3281.36	0.8922
3291.2	0.892
3301.04	0.891
3310.88	0.891
3320.73	0.891
3330.57	0.889
3340.41	0.889
3350.25	0.889
3360.09	0.889
3369.93	0.889
3379.77	0.891
3389.62	0.8885
3399.46	0.886
3409.3	0.888
3419.14	0.891
3428.98	0.8884
3438.82	0.889
3448.66	0.889
3458.51	0.891
3468.35	0.8897
3478.19	0.891
3488.03	0.888
3497.87	0.891
3507.71	0.889
3517.55	0.889
3527.4	0.889
3537.24	0.889
3547.08	0.8907
3556.92	0.8881
3566.76	0.892
3576.6	0.8971
3586.44	0.8997
3596.29	0.891
3606.13	0.889
3615.97	0.888
3625.81	0.887
3635.65	0.885
3645.49	0.88
3655.33	0.879
3665.18	0.884
3675.02	0.887
3684.86	0.887
3694.7	0.8832
3704.54	0.884
3714.38	0.888
3724.22	0.889
3734.07	0.8943
3743.91	0.8924
3753.75	0.889
3763.59	0.888
3773.43	0.888
3783.27	0.888
3793.12	0.889
