Infrared Spectrum: Benzyl iodide
Formula: C 7 H 7 I
CAS: 620-05-3
State: gas
Instrument: HP-GC/MS/IRD
Origin: NIST Mass Spectrometry Data Center
1/CM	ABSORBANCE
550	0.0057361
562	0.0070034
574	0.0088369
586	0.0034029
598	0.001235
610	0.0005662
622	0.0003287
634	0.0004256
646	0.0007296
658	0.0014136
670	0.0030457
682	0.0084398
694	0.0121695
706	0.006194
718	0.0033155
730	0.0041078
742	0.006612
754	0.0064372
766	0.0031027
778	0.0013205
790	0.0014155
802	0.0017689
814	0.0016492
826	0.0010013
838	0.0005909
850	0.0002774
862	0.0001672
874	0.0001691
886	0.0002071
898	0.0004484
910	0.0005719
922	0.0002337
934	0.0001273
946	0.0002812
958	0.0003401
970	0.0002774
982	0.0001539
994	0.0004161
1006	0.0006023
1018	0.0006688
1030	0.0016188
1042	0.0008987
1054	0.0016226
1066	0.0014687
1078	0.0007676
1090	0.0004959
1102	0.0005168
1114	0.0007277
1126	0.0010089
1138	0.0022781
1150	0.010051
1162	0.0182818
1174	0.0050236
1186	0.0014212
1198	0.001843
1210	0.0029868
1222	0.0010944
1234	0.0005795
1246	0.0001672
1258	0.0001216
1270	8.36e-05
1282	4.75e-05
1294	3.8e-05
1306	7.03e-05
1318	0.0002166
1330	0.000361
1342	0.000361
1354	0.0002204
1366	0.00019
1378	0.0002242
1390	0.0002318
1402	0.0003439
1414	0.0006764
1426	0.0011666
1438	0.0021546
1450	0.0029621
1462	0.0022933
1474	0.0013547
1486	0.002812
1498	0.0043548
1510	0.0010184
1522	0.0005852
1534	0.0004598
1546	0.0004389
1558	0.0003857
1570	0.0005035
1582	0.0007904
1594	0.0013452
1606	0.0012654
1618	0.0006327
1630	0.0003743
1642	0.0003686
1654	0.0004028
1666	0.0002793
1678	0.0001615
1690	0.0001387
1702	0.0001748
1714	0.0002527
1726	0.0003135
1738	0.0004522
1750	0.0004389
1762	0.000304
1774	0.0004047
1786	0.0007657
1798	0.0006764
1810	0.0003895
1822	0.0002641
1834	0.0001691
1846	0.0002223
1858	0.000437
1870	0.0006403
1882	0.0007106
1894	0.0004598
1906	0.0002527
1918	0.000399
1930	0.0006555
1942	0.0008322
1954	0.0008322
1966	0.0004294
1978	0.0001349
1990	0.0001121
2002	7.98e-05
2014	9.12e-05
2026	7.22e-05
2038	7.22e-05
2050	1.33e-05
2062	2.09e-05
2074	9.5e-06
2086	9.5e-06
2098	2.09e-05
2110	4.94e-05
2122	9.5e-06
2134	5.7e-05
2146	5.7e-05
2158	4.94e-05
2170	7.41e-05
2182	6.65e-05
2194	0.0001292
2206	0.0001653
2218	0.0001387
2230	0.0001501
2242	0.0001729
2254	0.0001824
2266	0.0001539
2278	0.0001482
2290	0.0002299
2302	0.0003496
2314	0.0004598
2326	0.000304
2338	0.0001995
2350	0.0001919
2362	0.0001444
2374	0.0001083
2386	9.12e-05
2398	0.0001197
2410	0.0001292
2422	7.22e-05
2434	5.7e-05
2446	7.22e-05
2458	8.55e-05
2470	4.18e-05
2482	5.13e-05
2494	5.32e-05
2506	6.65e-05
2518	6.84e-05
2530	6.27e-05
2542	7.03e-05
2554	8.74e-05
2566	0.0001254
2578	0.0001596
2590	0.0002888
2602	0.0003325
2614	0.0001311
2626	0.0001349
2638	0.0001235
2650	9.88e-05
2662	9.69e-05
2674	5.7e-05
2686	4.37e-05
2698	0.0001064
2710	0.0001197
2722	7.41e-05
2734	0.0001425
2746	0.0001292
2758	0.0001102
2770	0.0001444
2782	0.0001938
2794	0.0002698
2806	0.0003059
2818	0.0002489
2830	0.0002603
2842	0.0002394
2854	0.000361
2866	0.0003287
2878	0.0003933
2890	0.0003078
2902	0.0003838
2914	0.0003819
2926	0.0003667
2938	0.0004636
2950	0.0006707
2962	0.0010982
2974	0.0018677
2986	0.0019266
2998	0.0014364
3010	0.0019703
3022	0.004218
3034	0.0075677
3046	0.0062548
3058	0.0049533
3070	0.0087951
3082	0.0075734
3094	0.004864
3106	0.0031445
3118	0.0014402
3130	0.0005282
3142	0.0003116
3154	0.0002527
3166	0.0002204
3178	0.0001482
3190	0.0001919
3202	0.0001273
3214	0.0001824
3226	0.000133
3238	0.0001216
3250	0.0001368
3262	0.0001463
3274	0.0001273
3286	0.0002356
3298	0.0001292
3310	2.28e-05
3322	0.0002261
3334	0.0001216
3346	0.0001368
3358	0.0002109
3370	0.0002147
3382	0.0001463
3394	5.7e-05
3406	0.0001254
3418	9.88e-05
3430	0.0001235
3442	6.84e-05
3454	0.0001007
3466	0.0001976
3478	0.0001919
3490	0.0001216
3502	0.0001843
3514	0.0001938
3526	0.0001843
3538	0.0001216
3550	8.74e-05
3562	0.0001634
3574	0.0002033
3586	0.0001292
3598	0.0001634
3610	0.0001805
3622	0.0001121
3634	0.0001083
3646	0.0001558
3658	0.000209
3670	0.0001463
3682	0.0002337
3694	0.0001767
3706	0.0002242
3718	0.0001387
3730	0.000114
3742	0.0001121
3754	0.0002375
3766	0.0002014
3778	0.0002242
3790	0.0002147
3802	0.0001995
3814	0.0001805
3826	0.0001957
3838	0.0001786
