Infrared Spectrum: 2-(p-Nitrobenzyl)pyridine
Formula: C 12 H 10 N 2 O 2
CAS: 620-87-1
State: gas
Origin: EPA-IR VAPOR PHASE LIBRARY
1/CM	ABSORBANCE
549.8	0.00030883
559.445	0.000194
569.09	0.0005466
578.734	0.002156
588.379	0.005356
598.024	0.008036
607.669	0.005486
617.313	0.003436
626.958	0.003616
636.603	0.003816
646.248	0.003036
655.893	0.001946
665.537	0.002166
675.182	0.004016
684.827	0.008906
694.472	0.012286
704.116	0.010456
713.761	0.009146
723.406	0.012426
733.051	0.023616
742.695	0.040396
752.34	0.048626
761.985	0.025096
771.63	0.010246
781.275	0.005876
790.919	0.004596
800.564	0.005716
810.209	0.008806
819.854	0.014466
829.498	0.016286
839.143	0.011786
848.788	0.021516
858.433	0.042696
868.078	0.015516
877.722	0.006766
887.367	0.004086
897.012	0.003246
906.657	0.003086
916.301	0.002946
925.946	0.002496
935.591	0.001866
945.236	0.001846
954.88	0.001816
964.525	0.001756
974.17	0.001886
983.815	0.002786
993.46	0.005226
1003.1	0.003896
1012.75	0.008856
1022.39	0.008456
1032.04	0.002606
1041.68	0.004116
1051.33	0.004646
1060.97	0.002816
1070.62	0.002166
1080.26	0.003606
1089.91	0.005556
1099.55	0.008756
1109.2	0.012626
1118.84	0.006456
1128.49	0.003376
1138.13	0.005036
1147.78	0.004716
1157.42	0.002756
1167.07	0.002966
1176.71	0.006296
1186.36	0.007926
1196	0.006426
1205.64	0.005806
1215.29	0.008636
1224.93	0.008026
1234.58	0.006086
1244.22	0.004556
1253.87	0.003536
1263.51	0.003676
1273.16	0.004566
1282.8	0.005916
1292.45	0.007026
1302.09	0.009246
1311.74	0.012926
1321.38	0.019246
1331.03	0.037726
1340.67	0.086576
1350.32	0.162656
1359.96	0.100466
1369.61	0.031916
1379.25	0.017906
1388.9	0.013266
1398.54	0.009456
1408.18	0.008556
1417.83	0.012726
1427.47	0.025626
1437.12	0.035556
1446.76	0.016206
1456.41	0.013836
1466.05	0.026896
1475.7	0.038056
1485.34	0.025386
1494.99	0.031206
1504.63	0.026276
1514.28	0.036206
1523.92	0.068246
1533.57	0.111406
1543.21	0.111826
1552.86	0.067456
1562.5	0.044976
1572.15	0.050116
1581.79	0.063866
1591.44	0.070056
1601.08	0.053516
1610.73	0.031556
1620.37	0.014146
1630.01	0.007036
1639.66	0.004916
1649.3	0.004146
1658.95	0.003526
1668.59	0.002836
1678.24	0.002386
1687.88	0.002296
1697.53	0.002126
1707.17	0.001976
1716.82	0.001576
1726.46	0.001396
1736.11	0.001606
1745.75	0.001746
1755.4	0.001646
1765.04	0.001626
1774.69	0.001876
1784.33	0.002496
1793.98	0.002466
1803.62	0.001486
1813.27	0.0011734
1822.91	0.0012516
1832.55	0.001406
1842.2	0.001406
1851.84	0.001466
1861.49	0.001606
1871.13	0.001356
1880.78	0.0010121
1890.42	0.0011398
1900.07	0.001696
1909.71	0.002726
1919.36	0.003206
1929	0.002626
1938.65	0.002176
1948.29	0.001786
1957.94	0.001526
1967.58	0.001806
1977.23	0.001426
1986.87	0.0007803
1996.52	0.0005714
2006.16	0.000498
2015.81	0.0005019
2025.45	0.000485
2035.1	0.0006058
2044.74	0.0006419
2054.38	0.0005186
2064.03	0.0005671
2073.67	0.0005754
2083.32	0.0006889
2092.96	0.0006242
2102.61	0.0005405
2112.25	0.0005346
2121.9	0.0004677
2131.54	0.0004946
2141.19	0.0004765
2150.83	0.00035814
2160.48	0.00037413
2170.12	0.0004684
2179.77	0.0005463
2189.41	0.0006002
2199.06	0.0006523
2208.7	0.0007813
2218.35	0.0007296
2227.99	0.0005904
2237.64	0.0005641
2247.28	0.0004814
2256.92	0.0005114
2266.57	0.0006322
2276.21	0.000767
2285.86	0.0009408
2295.5	0.0009378
2305.15	0.0007639
2314.79	0.000669
2324.44	0.0006231
2334.08	0.0007075
2343.73	0.000745
2353.37	0.0007292
2363.02	0.0006947
2372.66	0.0006696
2382.31	0.0007244
2391.95	0.0007297
2401.6	0.0007249
2411.24	0.0006564
2420.89	0.0007288
2430.53	0.000801
2440.18	0.000999
2449.82	0.001346
2459.47	0.001436
2469.11	0.00116
2478.75	0.0007862
2488.4	0.0006492
2498.04	0.0006433
2507.69	0.0006279
2517.33	0.0006969
2526.98	0.0005747
2536.62	0.0005558
2546.27	0.0004651
2555.91	0.0004506
2565.56	0.000513
2575.2	0.0005649
2584.85	0.0006128
2594.49	0.0007464
2604.14	0.0008923
2613.78	0.0009298
2623.43	0.0007751
2633.07	0.0006784
2642.72	0.0006424
2652.36	0.0005328
2662.01	0.0006223
2671.65	0.0008717
2681.29	0.0008693
2690.94	0.0010323
2700.58	0.0011621
2710.23	0.0012368
2719.87	0.0010965
2729.52	0.0007372
2739.16	0.0007386
2748.81	0.000696
2758.45	0.0007496
2768.1	0.0008029
2777.74	0.0006483
2787.39	0.0007773
2797.03	0.0008546
2806.68	0.0008678
2816.32	0.0009651
2825.97	0.001346
2835.61	0.002036
2845.26	0.002856
2854.9	0.003306
2864.55	0.003206
2874.19	0.003266
2883.84	0.003196
2893.48	0.003286
2903.12	0.003856
2912.77	0.005326
2922.41	0.007646
2932.06	0.008786
2941.7	0.008246
2951.35	0.006566
2960.99	0.004886
2970.64	0.003406
2980.28	0.002746
2989.93	0.003046
2999.57	0.005016
3009.22	0.009616
3018.86	0.012166
3028.51	0.008416
3038.15	0.008046
3047.8	0.011246
3057.44	0.014566
3067.09	0.018096
3076.73	0.024706
3086.38	0.018156
3096.02	0.007236
3105.67	0.003096
3115.31	0.001796
3124.95	0.001356
3134.6	0.001576
3144.24	0.001416
3153.89	0.0008577
3163.53	0.0006464
3173.18	0.0005647
3182.82	0.00061
3192.47	0.0006766
3202.11	0.0006868
3211.76	0.0007391
3221.4	0.00036282
3231.05	0.0004114
3240.69	0.0002369
3250.34	0.0002064
3259.98	0.0002743
3269.63	0.00036497
3279.27	0.0003114
3288.92	0.0002686
3298.56	0.00038909
3308.21	0.000176
3317.85	0.00033406
3327.49	0.00036437
3337.14	0.0002816
3346.78	0.000295835
3356.43	0.00031263
3366.07	0.0002527
3375.72	0.0003274
3385.36	0.000299771
3395.01	0.00028852
3404.65	0.0003312
3414.3	0.0005307
3423.94	0.00038716
3433.59	0.0004031
3443.23	0.00039333
3452.88	0.0004383
3462.52	0.00036082
3472.17	0.00030698
3481.81	0.0004398
3491.46	0.00035538
3501.1	0.0002646
3510.75	0.0002453
3520.39	0.0004474
3530.04	0.00036681
3539.68	0.00030757
3549.32	0.0002502
3558.97	0.0004863
3568.61	0.0002796
3578.26	0.0005273
3587.9	0.0003993
3597.55	0.00033851
3607.19	0.000186
3616.84	0.00037493
3626.48	0.0004912
3636.13	0.000654
3645.77	0.0002523
3655.42	0.00038904
3665.06	0.0004898
3674.71	0.0007295
3684.35	0.0005142
3694	0.0005168
3703.64	0.0006329
3713.29	0.0006144
3722.93	0.0005886
3732.58	0.0004474
3742.22	0.0005808
3751.86	0.000298266
3761.51	0.0006651
3771.15	0.0005328
3780.8	0.0006612
3790.44	0.000437
3800.09	0.0004751
3809.73	0.0002848
3819.38	0.0006202
3829.02	0.0006388
3838.67	0.0004033
3848.31	0.0004402
3857.96	0.0005668
3867.6	0.0005778
3877.25	0.0005365
3886.89	0.0006065
3896.54	0.0006568
3906.18	0.0004884
3915.83	0.0004022
3925.47	0.00038919
3935.12	0.0004641
3944.76	0.0004322
3954.41	0.0005976
3964.05	0.0004261
3973.69	0.0006019
3983.34	0.0002738
3992.98	0.0004509
