Infrared Spectrum: 4-Methyldiphenylmethane
Formula: C 14 H 14
CAS: 620-83-7
State: gas
Instrument: HP-GC/MS/IRD
Origin: NIST Mass Spectrometry Data Center
1/CM	ABSORBANCE
550	0.000645
562	0.000211
574	0.000168
586	0.000612
598	0.000905
610	0.000466
622	0.000124
634	0.000226
646	0.0002445
658	0.000248
670	0.0006425
682	0.0012015
694	0.00252
706	0.002923
718	0.0036485
730	0.0025075
742	0.0012365
754	0.001234
766	0.00158
778	0.0015365
790	0.001641
802	0.001102
814	0.000714
826	0.0008605
838	0.000737
850	0.0003705
862	0.000219
874	0.0001965
886	0.0001985
898	0.000282
910	0.000281
922	0.000256
934	0.0001665
946	0.000179
958	0.0001055
970	0.0001655
982	0.0001395
994	0.0001645
1006	0.0001995
1018	0.0007615
1030	0.0009455
1042	0.0003865
1054	0.0004275
1066	0.000393
1078	0.00036
1090	0.000273
1102	0.0003715
1114	0.000503
1126	0.000291
1138	0.00013
1150	0.000101
1162	9.45e-05
1174	0.000193
1186	0.000374
1198	0.0003065
1210	0.0002765
1222	0.000184
1234	0.0002805
1246	0.000217
1258	0.000116
1270	0.000108
1282	0.0002215
1294	0.0002765
1306	0.0003
1318	0.0003375
1330	0.000314
1342	0.0002755
1354	0.0002495
1366	0.000264
1378	0.0003115
1390	0.000334
1402	0.0004085
1414	0.0006175
1426	0.00081
1438	0.0010575
1450	0.0011855
1462	0.000955
1474	0.0007795
1486	0.0014475
1498	0.0024745
1510	0.003267
1522	0.001975
1534	0.0006575
1546	0.000474
1558	0.000386
1570	0.000378
1582	0.000544
1594	0.000952
1606	0.001093
1618	0.0005315
1630	0.0002895
1642	0.000227
1654	0.0002005
1666	0.000187
1678	0.000157
1690	0.000115
1702	0.0001465
1714	0.0001545
1726	0.0001415
1738	0.0001755
1750	0.000221
1762	0.0002505
1774	0.0002655
1786	0.0004355
1798	0.000357
1810	0.000228
1822	0.0001735
1834	0.000175
1846	0.000198
1858	0.000235
1870	0.0002955
1882	0.0003195
1894	0.000392
1906	0.0002985
1918	0.000212
1930	0.000293
1942	0.000304
1954	0.0002685
1966	0.000152
1978	0.0001065
1990	0.0001155
2002	7e-05
2014	6e-05
2026	0.0001045
2038	8e-05
2050	0.0001065
2062	7.4e-05
2074	0.0001105
2086	7.85e-05
2098	0.0001475
2110	9.05e-05
2122	0.0001135
2134	0.0001
2146	4.3e-05
2158	7.6e-05
2170	9.9e-05
2182	6.65e-05
2194	8.2e-05
2206	9.25e-05
2218	9.1e-05
2230	6.15e-05
2242	7.55e-05
2254	0.000109
2266	0.000102
2278	7.3e-05
2290	0.0001335
2302	0.0001235
2314	0.000144
2326	0.0001375
2338	0.0001005
2350	0.0001125
2362	0.0001125
2374	0.00016
2386	8.85e-05
2398	0.000101
2410	9.05e-05
2422	0.0001025
2434	9.25e-05
2446	9e-05
2458	7.05e-05
2470	8.7e-05
2482	6.9e-05
2494	6.45e-05
2506	7.3e-05
2518	8.25e-05
2530	8.75e-05
2542	6.2e-05
2554	5.5e-05
2566	7.15e-05
2578	0.000114
2590	0.0001225
2602	0.000145
2614	0.000111
2626	0.0001155
2638	9.95e-05
2650	5.7e-05
2662	8.95e-05
2674	9.8e-05
2686	9.3e-05
2698	8.45e-05
2710	9.9e-05
2722	0.0001345
2734	0.0001735
2746	0.000187
2758	0.0001
2770	0.0001265
2782	0.0001525
2794	0.000177
2806	0.000168
2818	0.000276
2830	0.000401
2842	0.000715
2854	0.0010085
2866	0.0012285
2878	0.0014945
2890	0.0014285
2902	0.0016505
2914	0.002579
2926	0.0035
2938	0.0029955
2950	0.0014295
2962	0.0009605
2974	0.000932
2986	0.0012385
2998	0.001783
3010	0.0026735
3022	0.004454
3034	0.004686
3046	0.003387
3058	0.00309
3070	0.003694
3082	0.0023975
3094	0.0016
3106	0.001027
3118	0.000571
3130	0.000325
3142	0.0002345
3154	8.95e-05
3166	9.4e-05
3178	0.000155
3190	9.4e-05
3202	0.000137
3214	0.0001185
3226	2.35e-05
3238	8.1e-05
3250	7.4e-05
3262	0
3274	4.05e-05
3286	8.65e-05
3298	8.3e-05
3310	0.000106
3322	8.55e-05
3334	6.25e-05
3346	2e-06
3358	8.15e-05
3370	0.0001115
3382	6.35e-05
3394	4.35e-05
3406	0.0001025
3418	0.0001325
3430	0.0001235
3442	0.0001135
3454	3.7e-05
3466	5.65e-05
3478	0.000131
3490	0.0001375
3502	8.45e-05
3514	0.000125
3526	8.05e-05
3538	0.000113
3550	0.0001445
3562	3.4e-05
3574	7.15e-05
3586	8e-05
3598	0.0001125
3610	0.0002305
3622	0.000102
3634	0.000146
3646	0.000123
3658	0.0001505
3670	0.000102
3682	0.0001435
3694	0.0001895
3706	9e-06
3718	0.000112
3730	0.000146
3742	9.35e-05
3754	0.0001735
3766	0.000128
3778	0.0001225
3790	5.1e-05
3802	0.0001395
3814	8.2e-05
3826	0.000179
3838	0.0001465
