Infrared Spectrum: Ethyl 2-benzylacetoacetate
Formula: C 13 H 16 O 3
CAS: 620-79-1
State: gas
Origin: EPA-IR VAPOR PHASE LIBRARY
1/CM	ABSORBANCE
549.8	0.00521
559.445	0.00562
569.09	0.0054
578.735	0.00364
588.38	0.003
598.025	0.00317
607.67	0.00411
617.315	0.00356
626.96	0.00312
636.605	0.00273
646.251	0.00236
655.896	0.00248
665.541	0.00371
675.186	0.00623
684.831	0.01112
694.476	0.02431
704.121	0.02299
713.766	0.01345
723.411	0.01044
733.056	0.01225
742.701	0.01635
752.346	0.01054
761.991	0.00552
771.636	0.004
781.281	0.00367
790.926	0.0037
800.571	0.00359
810.216	0.0032
819.861	0.00289
829.507	0.00283
839.152	0.00366
848.797	0.00523
858.442	0.00641
868.087	0.00537
877.732	0.00383
887.377	0.00326
897.022	0.00337
906.667	0.00368
916.312	0.00371
925.957	0.00366
935.602	0.00423
945.247	0.00597
954.892	0.0072
964.537	0.00705
974.182	0.00655
983.827	0.00633
993.472	0.0073
1003.12	0.01039
1012.76	0.01585
1022.41	0.02285
1032.05	0.02786
1041.7	0.0254
1051.34	0.02442
1060.99	0.02407
1070.63	0.0212
1080.28	0.01981
1089.92	0.01986
1099.57	0.02205
1109.21	0.02197
1118.86	0.02509
1128.5	0.04016
1138.15	0.06572
1147.79	0.07985
1157.44	0.07577
1167.08	0.06594
1176.73	0.05811
1186.37	0.05753
1196.02	0.06044
1205.66	0.06324
1215.31	0.06012
1224.95	0.05645
1234.6	0.0551
1244.24	0.05726
1253.89	0.05861
1263.53	0.05278
1273.18	0.0392
1282.82	0.02898
1292.47	0.02546
1302.11	0.02556
1311.76	0.02559
1321.4	0.02596
1331.05	0.02563
1340.69	0.02403
1350.34	0.02724
1359.98	0.03563
1369.63	0.03338
1379.27	0.02075
1388.92	0.01372
1398.56	0.01152
1408.21	0.01048
1417.85	0.01018
1427.5	0.01106
1437.14	0.01414
1446.79	0.01721
1456.43	0.01526
1466.08	0.01185
1475.73	0.01049
1485.37	0.00987
1495.02	0.01522
1504.66	0.00995
1514.31	0.00433
1523.95	0.00361
1533.6	0.00348
1543.24	0.00335
1552.89	0.00325
1562.53	0.00337
1572.18	0.00365
1581.82	0.00452
1591.47	0.00628
1601.11	0.00878
1610.76	0.00724
1620.4	0.00495
1630.05	0.00435
1639.69	0.00444
1649.34	0.00577
1658.98	0.00788
1668.63	0.01133
1678.27	0.01885
1687.92	0.02808
1697.56	0.02824
1707.21	0.02958
1716.85	0.0512
1726.5	0.09279
1736.14	0.10184
1745.79	0.08731
1755.43	0.08212
1765.08	0.05761
1774.72	0.02836
1784.37	0.01469
1794.01	0.00991
1803.66	0.00679
1813.3	0.00469
1822.95	0.00346
1832.59	0.00264
1842.24	0.00233
1851.88	0.00215
1861.53	0.0024
1871.17	0.00246
1880.82	0.00252
1890.46	0.00221
1900.11	0.0018
1909.75	0.00162
1919.4	0.00163
1929.04	0.00193
1938.69	0.00239
1948.33	0.00235
1957.98	0.00203
1967.62	0.0011682
1977.27	0.0010777
1986.91	0.0010344
1996.56	0.0010832
2006.2	0.0010396
2015.85	0.0010805
2025.49	0.00108
2035.14	0.0011722
2044.78	0.00146
2054.43	0.0018
2064.07	0.00218
2073.72	0.00282
2083.36	0.00485
2093.01	0.0105
2102.65	0.02326
2112.3	0.03771
2121.94	0.03462
2131.59	0.01565
2141.23	0.00543
2150.88	0.00235
2160.52	0.00145
2170.17	0.0009703
2179.81	0.0009269
2189.46	0.0007447
2199.1	0.0006474
2208.75	0.0006109
2218.39	0.0005755
2228.04	0.0005613
2237.68	0.0005772
2247.33	0.0006158
2256.97	0.0006291
2266.62	0.00057
2276.26	0.0006384
2285.91	0.000721
2295.55	0.0008272
2305.2	0.0010876
2314.84	0.00136
2324.49	0.0013354
2334.13	0.0012955
2343.78	0.0011581
2353.42	0.0011878
2363.07	0.00141
2372.72	0.0011373
2382.36	0.0006649
2392.01	0.0004179
2401.65	0.0004643
2411.3	0.00042511
2420.94	0.0004412
2430.59	0.0003321
2440.23	0.00037899
2449.88	0.0003203
2459.52	0.0002689
2469.17	0.000233
2478.81	0.0002754
2488.46	0.0002529
2498.1	0.000269
2507.75	0.000227
2517.39	0.00023
2527.04	0.0002479
2536.68	0.000166
2546.33	0.000209
2555.97	0.000192
2565.62	0.00016
2575.26	0.000194
2584.91	0.000213
2594.55	0.000193
2604.2	0.000174
2613.84	0.0002808
2623.49	0.0002962
2633.13	0.0003299
2642.78	0.000169
2652.42	0.00019
2662.07	0.000168
2671.71	5.2e-05
2681.36	0.000173
2691	0.00015
2700.65	0.000169
2710.29	0.000238
2719.94	0.0002966
2729.58	0.0003127
2739.23	0.00036813
2748.87	0.0004465
2758.52	0.0004954
2768.16	0.0006938
2777.81	0.000854
2787.45	0.000925
2797.1	0.0009325
2806.74	0.0010183
2816.39	0.0013318
2826.03	0.00154
2835.68	0.00197
2845.32	0.00266
2854.97	0.0035
2864.61	0.00484
2874.26	0.00575
2883.9	0.00698
2893.55	0.00774
2903.19	0.00925
2912.84	0.01155
2922.48	0.01384
2932.13	0.01729
2941.77	0.0207
2951.42	0.01848
2961.06	0.01718
2970.71	0.02012
2980.35	0.02579
2990	0.02712
2999.64	0.01954
3009.29	0.01641
3018.93	0.01575
3028.58	0.02057
3038.22	0.01958
3047.87	0.01212
3057.51	0.01143
3067.16	0.01922
3076.8	0.01728
3086.45	0.01091
3096.09	0.00813
3105.74	0.00546
3115.38	0.00363
3125.03	0.00185
3134.67	0.0010925
3144.32	0.0007297
3153.96	0.0007617
3163.61	0.0006552
3173.25	0.0006518
3182.9	0.0003027
3192.54	0.0002525
3202.19	0.0003155
3211.83	0.0003179
3221.48	0.000205
3231.12	0.000135
3240.77	0.00013
3250.41	0.000124
3260.06	0.000115
3269.7	0.000121
3279.35	0.000148
3289	0.000157
3298.64	0.000156
3308.29	0.000193
3317.93	0.00014
3327.58	0.000198
3337.22	0.00024
3346.87	0.0002416
3356.51	0.00039773
3366.16	0.0004464
3375.8	0.000346042
3385.45	0.000307
3395.09	0.0005168
3404.74	0.0005908
3414.38	0.0006328
3424.03	0.000978
3433.67	0.0009542
3443.32	0.00141
3452.96	0.00178
3462.61	0.00153
3472.25	0.00138
3481.9	0.0010626
3491.54	0.000733
3501.19	0.0006698
3510.83	0.0006208
3520.48	0.0006622
3530.12	0.00039385
3539.77	0.000303
3549.41	0.0002982
3559.06	0.000326
3568.7	0.00036728
3578.35	0.000218
3587.99	0.000232
3597.64	0.00039767
3607.28	0.0003152
3616.93	0.0004464
3626.57	0.0003719
3636.22	0.0005196
3645.86	0.0005912
3655.51	0.0008821
3665.15	0.0006773
3674.8	0.0009115
3684.44	0.0007478
3694.09	0.0007008
3703.73	0.0005233
3713.38	0.00043019
3723.02	0.0003791
3732.67	0.00037261
3742.31	0.00037876
3751.96	0.000327
3761.6	0.0002426
3771.25	0.0004465
3780.89	0.00036161
3790.54	0.00041149
3800.18	0.00041434
3809.83	0.000342998
3819.47	0.0004967
3829.12	0.00042065
3838.76	0.0005306
3848.41	0.0005149
3858.05	0.0004424
3867.7	0.0003051
3877.34	0.0005336
3886.99	0.0004534
3896.63	0.00039851
3906.28	0.0005275
3915.92	0.00043666
3925.57	0.00036805
3935.21	0.0005136
3944.86	0.0003103
3954.5	0.0005039
3964.15	0.0002849
3973.79	0.0004505
3983.44	0.0004528
3993.08	0.0005542
