Infrared Spectrum: CHLOROACETIC ACID, PHENYL ESTER
Formula: C8 H7 Cl O2
CAS: 620-73-5
State: LIQUID
Class: COBLENTZ
Instrument: Not specified, most likely a prism, grating, or hybrid spectrometer.
Sampling: TRANSMISSION
Path length: 0.003 CM
Resolution: 4
Origin: WYANDOTTE CHEMICALS CORP., WYANDOTTE, MICHIGAN, USA
MICROMETERS	TRANSMITTANCE
2.086	0.991
2.12583	0.99
2.16566	0.985
2.20549	0.988
2.24532	0.988
2.28515	0.985
2.32498	0.973
2.36481	0.965
2.40464	0.975
2.44447	0.973
2.4843	0.968
2.52413	0.97
2.56395	0.975
2.60378	0.956
2.64361	0.875
2.68344	0.676
2.72327	0.598
2.7631	0.402
2.80293	0.248
2.84276	0.187
2.88259	0.149
2.92242	0.126
2.96225	0.122
3.00208	0.129
3.04191	0.137
3.08174	0.145
3.12157	0.152
3.1614	0.172
3.20123	0.175
3.24106	0.167
3.28089	0.18
3.32072	0.23
3.36055	0.232
3.40038	0.315
3.44021	0.369
3.48004	0.398
3.51986	0.437
3.55969	0.497
3.59952	0.535
3.63935	0.522
3.67918	0.489
3.71901	0.507
3.75884	0.543
3.79867	0.547
3.8385	0.522
3.87833	0.529
3.91816	0.578
3.95799	0.61
3.99782	0.616
4.03765	0.636
4.07748	0.681
4.11731	0.716
4.15714	0.737
4.19697	0.767
4.2368	0.791
4.27663	0.799
4.31646	0.814
4.35629	0.83
4.39612	0.862
4.43595	0.882
4.47577	0.89
4.5156	0.89
4.55543	0.893
4.59526	0.895
4.63509	0.898
4.67492	0.898
4.71475	0.895
4.75458	0.885
4.79441	0.882
4.83424	0.873
4.87407	0.865
4.9139	0.864
4.95373	0.862
4.99356	0.859
5.03339	0.852
5.07322	0.844
5.11305	0.83
5.15288	0.809
5.19271	0.8
5.23254	0.83
5.27237	0.85
5.3122	0.84
5.35203	0.825
5.39186	0.804
5.43168	0.779
5.47151	0.769
5.51134	0.708
5.55117	0.601
5.591	0.444
5.63083	0.328
5.67066	0.119
5.71049	0.049
5.75032	0.044
5.79015	0.053
5.82998	0.112
5.86981	0.228
5.90964	0.331
5.94947	0.447
5.9893	0.519
6.02913	0.547
6.06896	0.555
6.10879	0.532
6.14862	0.359
6.18845	0.076
6.22828	0.21
6.26811	0.582
6.30794	0.716
6.34777	0.736
6.38759	0.752
6.42742	0.761
6.46725	0.729
6.50708	0.724
6.54691	0.701
6.58674	0.412
6.62657	0.094
6.6664	0.235
6.70623	0.194
6.74606	0.124
6.78589	0.459
6.82572	0.58
6.86555	0.568
6.90538	0.512
6.94521	0.421
6.98504	0.353
7.02487	0.286
7.0647	0.257
7.10453	0.283
7.14436	0.321
7.18419	0.346
7.22402	0.33
7.26385	0.298
7.30368	0.271
7.3435	0.278
7.38333	0.326
7.42316	0.374
7.46299	0.407
7.50282	0.368
7.54265	0.298
7.58248	0.247
7.62231	0.252
7.66214	0.266
7.70197	0.263
7.7418	0.276
7.78163	0.275
7.82146	0.243
7.86129	0.199
7.90112	0.157
7.94095	0.129
7.98078	0.102
8.02061	0.069
8.06044	0.054
8.10027	0.046
8.1401	0.046
8.17993	0.044
8.21976	0.046
8.25958	0.046
8.29941	0.046
8.33924	0.048
8.37907	0.048
8.4189	0.064
8.45873	0.086
8.49856	0.102
8.53839	0.074
8.57822	0.096
8.61805	0.149
8.65788	0.147
8.69771	0.195
8.73754	0.237
8.77737	0.306
8.8172	0.398
8.85703	0.469
8.89686	0.547
8.93669	0.61
8.97652	0.653
9.01635	0.696
9.05618	0.718
9.09601	0.734
9.13584	0.741
9.17567	0.742
9.21549	0.726
9.25532	0.636
9.29515	0.466
9.33498	0.538
9.37481	0.703
9.41464	0.751
9.45447	0.762
9.4943	0.769
9.53413	0.771
9.57396	0.767
9.61379	0.761
9.65362	0.746
9.69345	0.666
9.73328	0.529
9.77311	0.598
9.81294	0.706
9.85277	0.721
9.8926	0.696
9.93243	0.663
9.97226	0.625
10.0121	0.661
10.0519	0.721
10.0917	0.721
10.1316	0.714
10.1714	0.711
10.2112	0.703
10.2511	0.703
10.2909	0.699
10.3307	0.693
10.3706	0.683
10.4104	0.671
10.4502	0.666
10.49	0.65
10.5299	0.63
10.5697	0.601
10.6095	0.572
10.6494	0.545
10.6892	0.505
10.729	0.431
10.7688	0.406
10.8087	0.454
10.8485	0.509
10.8883	0.545
10.9282	0.558
10.968	0.55
11.0078	0.535
11.0477	0.512
11.0875	0.499
11.1273	0.492
11.1671	0.47
11.207	0.439
11.2468	0.426
11.2866	0.437
11.3265	0.475
11.3663	0.52
11.4061	0.545
11.446	0.558
11.4858	0.567
11.5256	0.572
11.5654	0.572
11.6053	0.568
11.6451	0.567
11.6849	0.558
11.7248	0.552
11.7646	0.53
11.8044	0.507
11.8442	0.487
11.8841	0.472
11.9239	0.469
11.9637	0.462
12.0036	0.439
12.0434	0.417
12.0832	0.398
12.1231	0.396
12.1629	0.407
12.2027	0.411
12.2425	0.388
12.2824	0.315
12.3222	0.207
12.362	0.17
12.4019	0.2
12.4417	0.252
12.4815	0.25
12.5213	0.215
12.5612	0.177
12.601	0.159
12.6408	0.17
12.6807	0.207
12.7205	0.265
12.7603	0.316
12.8002	0.351
12.84	0.361
12.8798	0.351
12.9196	0.333
12.9595	0.313
12.9993	0.283
13.0391	0.222
13.079	0.147
13.1188	0.101
13.1586	0.076
13.1985	0.066
13.2383	0.069
13.2781	0.072
13.3179	0.102
13.3578	0.162
13.3976	0.245
13.4374	0.316
13.4773	0.381
13.5171	0.424
13.5569	0.459
13.5967	0.472
13.6366	0.49
13.6764	0.502
13.7162	0.507
13.7561	0.515
13.7959	0.517
13.8357	0.522
13.8756	0.52
13.9154	0.517
13.9552	0.517
13.995	0.507
14.0349	0.504
14.0747	0.495
14.1145	0.482
14.1544	0.459
14.1942	0.446
14.234	0.427
14.2739	0.406
14.3137	0.384
14.3535	0.349
14.3933	0.306
14.4332	0.235
14.473	0.195
14.5128	0.174
14.5527	0.182
14.5925	0.22
14.6323	0.278
14.6721	0.348
14.712	0.399
14.7518	0.432
14.7916	0.452
14.8315	0.464
14.8713	0.472
14.9111	0.472
14.951	0.475
14.9908	0.474
15.0306	0.489
15.0704	0.494
15.1103	0.482
15.1501	0.48
15.1899	0.474
15.2298	0.474
15.2696	0.48
15.3094	0.484
15.3493	0.485
15.3891	0.489
15.4289	0.495
15.4687	0.5
15.5086	0.509
15.5484	0.51
15.5882	0.515
15.6281	0.52
15.6679	0.529
15.7077	0.529
15.7475	0.537
15.7874	0.538
15.8272	0.545
15.867	0.547
15.9069	0.56
15.9467	0.558
15.9865	0.567
