Infrared Spectrum: 5-Methylfurfural
Formula: C 6 H 6 O 2
CAS: 620-02-0
State: gas
Instrument: HP-GC/MS/IRD
Origin: NIST Mass Spectrometry Data Center
1/CM	ABSORBANCE
550	0.000169
562	1.95e-05
574	6.5e-06
586	0.000117
598	0.000169
610	0.0003575
622	0.00065
634	0.0012155
646	0.0017485
658	0.001547
670	0.000975
682	0.0005265
694	0.000377
706	0.0005135
718	0.0009685
730	0.0026585
742	0.0087685
754	0.016666
766	0.0177385
778	0.0121485
790	0.0124345
802	0.0082875
814	0.004355
826	0.001495
838	0.0007995
850	0.0007345
862	0.000741
874	0.0006305
886	0.0006565
898	0.000754
910	0.00078
922	0.001053
934	0.001859
946	0.003107
958	0.004329
970	0.004407
982	0.005291
994	0.007449
1006	0.011219
1018	0.0116545
1030	0.0083525
1042	0.002431
1054	0.001001
1066	0.000702
1078	0.000507
1090	0.0004355
1102	0.000533
1114	0.000429
1126	0.0003965
1138	0.0003965
1150	0.0003965
1162	0.000429
1174	0.000806
1186	0.0032955
1198	0.00806
1210	0.007488
1222	0.0044395
1234	0.003692
1246	0.0032175
1258	0.002444
1270	0.0026325
1282	0.002106
1294	0.000767
1306	0.000455
1318	0.0005265
1330	0.000845
1342	0.0018525
1354	0.002613
1366	0.002886
1378	0.0032435
1390	0.0041795
1402	0.003497
1414	0.002509
1426	0.0019435
1438	0.002028
1450	0.002119
1462	0.0024505
1474	0.0027755
1486	0.004108
1498	0.0100035
1510	0.0303355
1522	0.0455
1534	0.030979
1546	0.007397
1558	0.0040105
1570	0.0040755
1582	0.0049725
1594	0.004563
1606	0.0028665
1618	0.0014365
1630	0.0010855
1642	0.0011115
1654	0.001846
1666	0.003744
1678	0.0101075
1690	0.032435
1702	0.0625105
1714	0.057109
1726	0.0231595
1738	0.0065325
1750	0.0037635
1762	0.0025805
1774	0.0017225
1786	0.001001
1798	0.000546
1810	0.000455
1822	0.0004355
1834	0.0003575
1846	0.0002795
1858	0.000364
1870	0.000533
1882	0.000559
1894	0.0003575
1906	0.000247
1918	0.000221
1930	0.00026
1942	0.00026
1954	0.000286
1966	0.0002795
1978	0.000312
1990	0.000364
2002	0.0003185
2014	0.000247
2026	0.000273
2038	0.000247
2050	0.0001625
2062	8.45e-05
2074	3.9e-05
2086	1.3e-05
2098	0
2110	1.3e-05
2122	1.3e-05
2134	7.15e-05
2146	9.1e-05
2158	0.0001755
2170	0.0002405
2182	0.0003315
2194	0.000364
2206	0.000351
2218	0.000338
2230	0.000247
2242	0.000195
2254	0.0001885
2266	0.0001885
2278	0.0001365
2290	6.5e-05
2302	6.5e-06
2314	3.25e-05
2326	7.8e-05
2338	0.00013
2350	0.0001105
2362	0.0001365
2374	0.000169
2386	0.000182
2398	0.000221
2410	0.000273
2422	0.000273
2434	0.0002535
2446	0.0002405
2458	0.000247
2470	0.000208
2482	0.0002275
2494	0.0001885
2506	0.000143
2518	9.75e-05
2530	0.000156
2542	0.0002015
2554	0.000182
2566	0.0001755
2578	0.0001625
2590	0.000221
2602	0.000299
2614	0.0002665
2626	0.000234
2638	0.000208
2650	0.000208
2662	0.0003315
2674	0.000507
2686	0.001014
2698	0.0019825
2710	0.002782
2722	0.003198
2734	0.0035035
2746	0.0034385
2758	0.0033865
2770	0.003679
2782	0.004771
2794	0.007813
2806	0.009048
2818	0.009035
2830	0.0065065
2842	0.0053625
2854	0.0027885
2866	0.002028
2878	0.0018915
2890	0.001716
2902	0.0015535
2914	0.001547
2926	0.002353
2938	0.0035555
2950	0.0033085
2962	0.00182
2974	0.001677
2986	0.0015795
2998	0.0015665
3010	0.0012935
3022	0.0007475
3034	0.0005915
3046	0.000663
3058	0.0007215
3070	0.0006955
3082	0.000702
3094	0.0006435
3106	0.0005655
3118	0.0006305
3130	0.000715
3142	0.000416
3154	0.000169
3166	0.0001625
3178	0.000156
3190	0.0001105
3202	0.000104
3214	9.75e-05
3226	0.000195
3238	0.000169
3250	0.000117
3262	9.1e-05
3274	7.8e-05
3286	4.55e-05
3298	0.0001365
3310	7.8e-05
3322	8.45e-05
3334	3.9e-05
3346	0.000143
3358	0.000182
3370	0.00052
3382	0.000975
3394	0.001131
3406	0.00078
3418	0.000455
3430	0.0002145
3442	0.000195
3454	0.0001235
3466	9.75e-05
3478	5.85e-05
3490	3.25e-05
3502	1.95e-05
3514	3.25e-05
3526	5.2e-05
3538	3.9e-05
3550	6.5e-05
3562	1.95e-05
3574	6.5e-05
3586	3.9e-05
3598	0.000117
3610	7.15e-05
3622	7.15e-05
3634	0.0001105
3646	7.8e-05
3658	8.45e-05
3670	5.2e-05
3682	6.5e-05
3694	0.0001235
3706	2.6e-05
3718	6.5e-05
3730	6.5e-05
3742	3.9e-05
3754	9.75e-05
3766	0.00013
3778	0.0001105
3790	0.0001105
3802	0.0001235
3814	9.1e-05
3826	9.1e-05
3838	3.9e-05
