Infrared Spectrum: Alpha-BROMO-M-XYLENE
Formula: C8 H9 Br
CAS: 620-13-3
State: LIQUID
Class: COBLENTZ
Instrument: Not specified, most likely a prism, grating, or hybrid spectrometer.
Sampling: TRANSMISSION
Path length: 0.0015 CM
Resolution: 4
Origin: WYANDOTTE CHEMICALS CORP., WYANDOTTE, MICHIGAN, USA
MICROMETERS	TRANSMITTANCE
2.027	0.898
2.06683	0.897
2.10666	0.895
2.14649	0.892
2.18631	0.88
2.22614	0.867
2.26597	0.872
2.3058	0.888
2.34563	0.887
2.38546	0.875
2.42529	0.865
2.46512	0.88
2.50494	0.883
2.54477	0.883
2.5846	0.898
2.62443	0.89
2.66426	0.905
2.70409	0.913
2.74392	0.912
2.78375	0.902
2.82357	0.892
2.8634	0.897
2.90323	0.882
2.94306	0.865
2.98289	0.842
3.02272	0.862
3.06255	0.864
3.10238	0.862
3.1422	0.857
3.18203	0.847
3.22186	0.817
3.26169	0.665
3.30152	0.351
3.34135	0.386
3.38118	0.285
3.421	0.321
3.46083	0.33
3.50066	0.525
3.54049	0.588
3.58032	0.787
3.62015	0.83
3.65998	0.847
3.69981	0.799
3.73963	0.857
3.77946	0.844
3.81929	0.847
3.85912	0.86
3.89895	0.864
3.93878	0.867
3.97861	0.868
4.01844	0.864
4.05826	0.86
4.09809	0.855
4.13792	0.859
4.17775	0.86
4.21758	0.83
4.25741	0.849
4.29724	0.825
4.33707	0.829
4.37689	0.85
4.41672	0.865
4.45655	0.825
4.49638	0.864
4.53621	0.865
4.57604	0.872
4.61587	0.878
4.65569	0.878
4.69552	0.873
4.73535	0.875
4.77518	0.892
4.81501	0.877
4.85484	0.892
4.89467	0.892
4.9345	0.89
4.97432	0.887
5.01415	0.885
5.05398	0.89
5.09381	0.84
5.13364	0.86
5.17347	0.854
5.2133	0.767
5.25313	0.835
5.29295	0.857
5.33278	0.84
5.37261	0.789
5.41244	0.812
5.45227	0.812
5.4921	0.832
5.53193	0.82
5.57175	0.814
5.61158	0.797
5.65141	0.766
5.69124	0.812
5.73107	0.799
5.7709	0.819
5.81073	0.814
5.85056	0.822
5.89038	0.761
5.93021	0.741
5.97004	0.761
6.00987	0.781
6.0497	0.784
6.08953	0.777
6.12936	0.752
6.16919	0.555
6.20901	0.263
6.24884	0.505
6.28867	0.618
6.3285	0.684
6.36833	0.684
6.40816	0.713
6.44799	0.693
6.48782	0.679
6.52764	0.635
6.56747	0.592
6.6073	0.58
6.64713	0.466
6.68696	0.212
6.72679	0.159
6.76662	0.19
6.80644	0.208
6.84627	0.203
6.8861	0.207
6.92593	0.21
6.96576	0.237
7.00559	0.421
7.04542	0.489
7.08525	0.557
7.12507	0.568
7.1649	0.582
7.20473	0.608
7.24456	0.475
7.28439	0.524
7.32422	0.703
7.36405	0.742
7.40388	0.749
7.4437	0.766
7.48353	0.757
7.52336	0.757
7.56319	0.747
7.60302	0.711
7.64285	0.674
7.68268	0.686
7.72251	0.665
7.76233	0.684
7.80216	0.689
7.84199	0.656
7.88182	0.583
7.92165	0.363
7.96148	0.197
8.00131	0.266
8.04113	0.454
8.08096	0.563
8.12079	0.557
8.16062	0.475
8.20045	0.31
8.24028	0.026
8.28011	0.013
8.31994	0.152
8.35976	0.281
8.39959	0.258
8.43942	0.258
8.47925	0.233
8.51908	0.421
8.55891	0.379
8.59874	0.346
8.63857	0.293
8.67839	0.495
8.71822	0.567
8.75805	0.59
8.79788	0.674
8.83771	0.678
8.87754	0.655
8.91737	0.63
8.9572	0.666
8.99702	0.706
9.03685	0.711
9.07668	0.711
9.11651	0.645
9.15634	0.494
9.19617	0.368
9.236	0.583
9.27582	0.658
9.31565	0.673
9.35548	0.674
9.39531	0.665
9.43514	0.668
9.47497	0.605
9.5148	0.577
9.55463	0.533
9.59445	0.466
9.63428	0.422
9.67411	0.417
9.71394	0.344
9.75377	0.199
9.7936	0.328
9.83343	0.567
9.87326	0.628
9.91308	0.663
9.95291	0.674
9.99274	0.641
10.0326	0.693
10.0724	0.709
10.1122	0.716
10.1521	0.734
10.1919	0.729
10.2317	0.724
10.2715	0.737
10.3114	0.729
10.3512	0.736
10.391	0.744
10.4309	0.767
10.4707	0.759
10.5105	0.761
10.5503	0.766
10.5902	0.759
10.63	0.759
10.6698	0.744
10.7097	0.734
10.7495	0.719
10.7893	0.689
10.8291	0.626
10.869	0.56
10.9088	0.565
10.9486	0.593
10.9885	0.59
11.0283	0.598
11.0681	0.583
11.1079	0.626
11.1478	0.678
11.1876	0.703
11.2274	0.689
11.2673	0.651
11.3071	0.578
11.3469	0.499
11.3867	0.462
11.4266	0.479
11.4664	0.537
11.5062	0.6
11.5461	0.628
11.5859	0.656
11.6257	0.684
11.6655	0.729
11.7054	0.749
11.7452	0.764
11.785	0.767
11.8249	0.761
11.8647	0.766
11.9045	0.776
11.9443	0.767
11.9842	0.764
12.024	0.766
12.0638	0.759
12.1037	0.759
12.1435	0.759
12.1833	0.736
12.2231	0.723
12.263	0.688
12.3028	0.638
12.3426	0.538
12.3825	0.444
12.4223	0.354
12.4621	0.359
12.502	0.426
12.5418	0.492
12.5816	0.487
12.6214	0.404
12.6613	0.283
12.7011	0.154
12.7409	0.071
12.7808	0.036
12.8206	0.043
12.8604	0.116
12.9002	0.184
12.9401	0.26
12.9799	0.336
13.0197	0.402
13.0596	0.454
13.0994	0.502
13.1392	0.538
13.179	0.562
13.2189	0.588
13.2587	0.61
13.2985	0.628
13.3384	0.653
13.3782	0.65
13.418	0.676
13.4578	0.681
13.4977	0.671
13.5375	0.65
13.5773	0.595
13.6172	0.441
13.657	0.273
13.6968	0.258
13.7366	0.464
13.7765	0.595
13.8163	0.648
13.8561	0.618
13.896	0.585
13.9358	0.61
13.9756	0.66
14.0154	0.674
14.0553	0.653
14.0951	0.638
14.1349	0.59
14.1748	0.532
14.2146	0.451
14.2544	0.346
14.2942	0.228
14.3341	0.152
14.3739	0.102
14.4137	0.091
14.4536	0.099
14.4934	0.129
14.5332	0.192
14.573	0.29
14.6129	0.422
14.6527	0.495
14.6925	0.58
14.7324	0.613
14.7722	0.638
14.812	0.655
14.8518	0.681
14.8917	0.669
14.9315	0.681
14.9713	0.689
15.0112	0.679
15.051	0.658
15.0908	0.651
15.1306	0.665
15.1705	0.653
15.2103	0.658
15.2501	0.641
15.29	0.653
15.3298	0.648
15.3696	0.628
15.4094	0.643
15.4493	0.63
15.4891	0.64
15.5289	0.623
15.5688	0.625
15.6086	0.626
15.6484	0.625
15.6882	0.618
15.7281	0.608
15.7679	0.601
15.8077	0.585
15.8476	0.575
15.8874	0.562
15.9272	0.557
15.967	0.55
