Infrared Spectrum: 4,4-Dihydroxydiphenylmethane
Formula: C 13 H 12 O 2
CAS: 620-92-8
State: gas
Instrument: HP-GC/MS/IRD
Origin: NIST Mass Spectrometry Data Center
1/CM	ABSORBANCE
550	0.0009492
562	0.002548
574	0.0025312
586	0.0006272
598	0.0001232
610	7.28e-05
622	0.0001008
634	0.0001008
646	0.0001792
658	2.8e-05
670	0.000126
682	6.44e-05
694	0.0001372
706	0.0001456
718	0.0001764
730	0.0001988
742	0.0003668
754	0.0008708
766	0.00224
778	0.0024836
790	0.0026852
802	0.0046368
814	0.0058464
826	0.0058884
838	0.003892
850	0.0025256
862	0.0009184
874	0.0005488
886	0.0003948
898	0.0004228
910	0.0003668
922	0.000252
934	0.000238
946	0.0002016
958	0.000154
970	0.0001484
982	0.0001932
994	0.0003052
1006	0.0005712
1018	0.0007532
1030	0.000308
1042	0.0003836
1054	0.0004956
1066	0.0006916
1078	0.0012012
1090	0.00245
1102	0.0027468
1114	0.0022316
1126	0.0021476
1138	0.0027356
1150	0.0062384
1162	0.0194376
1174	0.026782
1186	0.0182028
1198	0.0094108
1210	0.0050176
1222	0.0038444
1234	0.0044072
1246	0.0117964
1258	0.0168224
1270	0.0045332
1282	0.001876
1294	0.0014392
1306	0.0017276
1318	0.0029316
1330	0.0050148
1342	0.0026712
1354	0.0009688
1366	0.0005264
1378	0.00042
1390	0.0003388
1402	0.000504
1414	0.0011144
1426	0.0027972
1438	0.003304
1450	0.0016464
1462	0.000826
1474	0.0009044
1486	0.0021308
1498	0.0083972
1510	0.0242536
1522	0.0105
1534	0.0026712
1546	0.0012628
1558	0.00098
1570	0.0011816
1582	0.0020944
1594	0.004088
1606	0.005278
1618	0.0049504
1630	0.001778
1642	0.000854
1654	0.0007784
1666	0.0004452
1678	0.0002688
1690	0.0001764
1702	0.0001428
1714	0.0001988
1726	0.0002996
1738	0.0003556
1750	0.00035
1762	0.0002744
1774	0.0001372
1786	7.56e-05
1798	7.84e-05
1810	8.4e-05
1822	0.0001148
1834	0.0001652
1846	0.0002436
1858	0.0003696
1870	0.0004312
1882	0.0003864
1894	0.0002968
1906	0.0001904
1918	9.24e-05
1930	0.0001036
1942	0.0001176
1954	0.0001092
1966	7.56e-05
1978	7.84e-05
1990	9.52e-05
2002	0.0001568
2014	0.0001932
2026	0.0002044
2038	0.0001344
2050	8.68e-05
2062	8.4e-05
2074	0.0001092
2086	0.000154
2098	0.0001428
2110	0.0001036
2122	4.48e-05
2134	1.68e-05
2146	3.36e-05
2158	1.68e-05
2170	1.68e-05
2182	1.68e-05
2194	1.96e-05
2206	2.8e-06
2218	2.52e-05
2230	5.04e-05
2242	3.36e-05
2254	7.56e-05
2266	8.68e-05
2278	0.0001008
2290	8.68e-05
2302	8.12e-05
2314	8.96e-05
2326	0.0001372
2338	0.0001848
2350	0.0001652
2362	0.00014
2374	8.96e-05
2386	0.0001176
2398	0.0001428
2410	0.000252
2422	0.000392
2434	0.000364
2446	0.0002296
2458	0.0001568
2470	0.000126
2482	0.0001204
2494	0.0001764
2506	0.0001904
2518	0.00014
2530	7e-05
2542	5.04e-05
2554	2.24e-05
2566	5.88e-05
2578	5.32e-05
2590	8.96e-05
2602	0.0001176
2614	0.0001008
2626	8.4e-05
2638	9.24e-05
2650	7e-05
2662	6.16e-05
2674	7e-05
2686	7.28e-05
2698	9.52e-05
2710	6.16e-05
2722	6.72e-05
2734	7.28e-05
2746	9.8e-05
2758	0.0001568
2770	8.96e-05
2782	6.72e-05
2794	5.04e-05
2806	5.32e-05
2818	0.0001232
2830	0.0002016
2842	0.0005208
2854	0.0007868
2866	0.0005992
2878	0.0004452
2890	0.0004872
2902	0.0009716
2914	0.0020552
2926	0.0021812
2938	0.0011032
2950	0.0005096
2962	0.0003024
2974	0.0002492
2986	0.0004592
2998	0.001204
3010	0.0030408
3022	0.0037912
3034	0.0039256
3046	0.002716
3058	0.0019852
3070	0.0016856
3082	0.0011032
3094	0.000686
3106	0.0005544
3118	0.000434
3130	0.0003304
3142	0.0001624
3154	7.56e-05
3166	5.6e-05
3178	5.04e-05
3190	7.84e-05
3202	5.32e-05
3214	3.36e-05
3226	5.32e-05
3238	3.36e-05
3250	3.64e-05
3262	4.48e-05
3274	0
3286	1.68e-05
3298	4.48e-05
3310	3.64e-05
3322	8.4e-06
3334	7.28e-05
3346	0.0001036
3358	0.0001764
3370	0.0001736
3382	0.0001624
3394	0.000154
3406	0.0001316
3418	0.0001288
3430	0.0001148
3442	0.0001148
3454	0.0001064
3466	7.84e-05
3478	7e-05
3490	9.52e-05
3502	7.56e-05
3514	5.88e-05
3526	8.68e-05
3538	7.28e-05
3550	6.44e-05
3562	0.0001176
3574	4.48e-05
3586	0.000126
3598	0.000238
3610	0.0003528
3622	0.0007336
3634	0.0023968
3646	0.0102088
3658	0.010206
3670	0.0017444
3682	0.000546
3694	0.0002716
3706	0.00014
3718	7e-05
3730	5.6e-05
3742	3.36e-05
3754	6.72e-05
3766	8.12e-05
3778	9.24e-05
3790	9.52e-05
3802	9.8e-05
3814	0.0001456
3826	0.0001344
3838	0.00014
