Infrared Spectrum: Alpha-TOLUENEARSONIC ACID
Formula: C7 H9 O3 As
CAS: 620-27-9
State: SOLID (MINERAL OIL MULL)
Class: COBLENTZ
Instrument: Not specified, most likely a prism, grating, or hybrid spectrometer.
Sampling: TRANSMISSION
Resolution: 4
Origin: WYANDOTTE CHEMICALS CORP., WYANDOTTE, MICHIGAN, USA
MICROMETERS	TRANSMITTANCE
2.006	0.734
2.04314	0.736
2.08027	0.739
2.11741	0.746
2.15455	0.751
2.19168	0.734
2.22882	0.722
2.26595	0.728
2.30309	0.736
2.34023	0.743
2.37736	0.754
2.4145	0.782
2.45164	0.784
2.48877	0.787
2.52591	0.798
2.56304	0.81
2.60018	0.805
2.63732	0.835
2.67445	0.838
2.71159	0.827
2.74873	0.813
2.78586	0.822
2.823	0.815
2.86014	0.822
2.89727	0.813
2.93441	0.815
2.97154	0.81
3.00868	0.798
3.04582	0.745
3.08295	0.666
3.12009	0.577
3.15723	0.526
3.19436	0.45
3.2315	0.378
3.26863	0.301
3.30577	0.175
3.34291	0.01
3.38004	0.02
3.41718	0.021
3.45432	0.024
3.49145	0.043
3.52859	0.119
3.56573	0.15
3.60286	0.163
3.64	0.159
3.67713	0.161
3.71427	0.169
3.75141	0.184
3.78854	0.195
3.82568	0.201
3.86282	0.215
3.89995	0.236
3.93709	0.248
3.97422	0.27
4.01136	0.274
4.0485	0.271
4.08563	0.271
4.12277	0.271
4.15991	0.265
4.19704	0.25
4.23418	0.2
4.27131	0.212
4.30845	0.214
4.34559	0.194
4.38272	0.172
4.41986	0.161
4.457	0.166
4.49413	0.178
4.53127	0.195
4.56841	0.208
4.60554	0.228
4.64268	0.253
4.67981	0.279
4.71695	0.305
4.75409	0.346
4.79122	0.374
4.82836	0.399
4.8655	0.422
4.90263	0.442
4.93977	0.453
4.9769	0.468
5.01404	0.486
5.05118	0.49
5.08831	0.5
5.12545	0.509
5.16259	0.521
5.19972	0.551
5.23686	0.569
5.274	0.576
5.31113	0.586
5.34827	0.594
5.3854	0.611
5.42254	0.607
5.45968	0.621
5.49681	0.627
5.53395	0.61
5.57109	0.624
5.60822	0.627
5.64536	0.622
5.68249	0.627
5.71963	0.621
5.75677	0.642
5.7939	0.61
5.83104	0.608
5.86818	0.621
5.90531	0.59
5.94245	0.586
5.97959	0.562
6.01672	0.532
6.05386	0.58
6.09099	0.572
6.12813	0.569
6.16527	0.555
6.2024	0.501
6.23954	0.534
6.27668	0.526
6.31381	0.532
6.35095	0.517
6.38808	0.527
6.42522	0.5
6.46236	0.537
6.49949	0.513
6.53663	0.529
6.57377	0.507
6.6109	0.439
6.64804	0.33
6.68518	0.409
6.72231	0.321
6.75945	0.17
6.79658	0.111
6.83372	0.155
6.87086	0.234
6.90799	0.315
6.94513	0.45
6.98227	0.513
7.0194	0.559
7.05654	0.577
7.09367	0.579
7.13081	0.493
7.16795	0.431
7.20508	0.338
7.24222	0.296
7.27936	0.464
7.31649	0.579
7.35363	0.642
7.39077	0.661
7.4279	0.672
7.46504	0.704
7.50217	0.723
7.53931	0.732
7.57645	0.732
7.61358	0.729
7.65072	0.726
7.68786	0.706
7.72499	0.673
7.76213	0.684
7.79926	0.7
7.8364	0.695
7.87354	0.694
7.91067	0.659
7.94781	0.631
7.98495	0.619
8.02208	0.618
8.05922	0.63
8.09636	0.631
8.13349	0.625
8.17063	0.664
8.20776	0.645
8.2449	0.607
8.28204	0.563
8.31917	0.504
8.35631	0.423
8.39345	0.381
8.43058	0.535
8.46772	0.47
8.50485	0.445
8.54199	0.479
8.57913	0.52
8.61626	0.552
8.6534	0.574
8.69054	0.602
8.72767	0.65
8.76481	0.675
8.80194	0.703
8.83908	0.664
8.87622	0.531
8.91335	0.681
8.95049	0.711
8.98763	0.729
9.02476	0.767
9.0619	0.796
9.09904	0.813
9.13617	0.821
9.17331	0.832
9.21044	0.846
9.24758	0.804
9.28472	0.624
9.32185	0.631
9.35899	0.771
9.39613	0.833
9.43326	0.871
9.4704	0.889
9.50753	0.911
9.54467	0.92
9.58181	0.93
9.61894	0.919
9.65608	0.894
9.69322	0.813
9.73035	0.883
9.76749	0.92
9.80463	0.944
9.84176	0.958
9.8789	0.961
9.91603	0.936
9.95317	0.902
9.99031	0.93
10.0274	0.913
10.0646	0.94
10.1017	0.897
10.1389	0.905
10.176	0.934
10.2131	0.906
10.2503	0.852
10.2874	0.875
10.3245	0.889
10.3617	0.9
10.3988	0.885
10.4359	0.878
10.4731	0.86
10.5102	0.844
10.5474	0.821
10.5845	0.799
10.6216	0.75
10.6588	0.697
10.6959	0.627
10.733	0.552
10.7702	0.44
10.8073	0.305
10.8444	0.211
10.8816	0.265
10.9187	0.318
10.9559	0.231
10.993	0.136
11.0301	0.093
11.0673	0.105
11.1044	0.099
11.1415	0.093
11.1787	0.091
11.2158	0.083
11.2529	0.09
11.2901	0.105
11.3272	0.121
11.3644	0.149
11.4015	0.184
11.4386	0.209
11.4758	0.237
11.5129	0.256
11.55	0.27
11.5872	0.277
11.6243	0.291
11.6614	0.302
11.6986	0.324
11.7357	0.363
11.7728	0.417
11.81	0.472
11.8471	0.498
11.8843	0.492
11.9214	0.468
11.9585	0.451
11.9957	0.439
12.0328	0.43
12.0699	0.419
12.1071	0.413
12.1442	0.394
12.1813	0.389
12.2185	0.366
12.2556	0.324
12.2928	0.277
12.3299	0.25
12.367	0.25
12.4042	0.251
12.4413	0.254
12.4784	0.265
12.5156	0.276
12.5527	0.281
12.5898	0.282
12.627	0.282
12.6641	0.256
12.7013	0.217
12.7384	0.152
12.7755	0.105
12.8127	0.08
12.8498	0.071
12.8869	0.077
12.9241	0.076
12.9612	0.094
12.9983	0.099
13.0355	0.139
13.0726	0.189
13.1098	0.236
13.1469	0.254
13.184	0.262
13.2212	0.263
13.2583	0.293
13.2954	0.327
13.3326	0.358
13.3697	0.38
13.4068	0.405
13.444	0.427
13.4811	0.444
13.5183	0.458
13.5554	0.472
13.5925	0.484
13.6297	0.498
13.6668	0.513
13.7039	0.527
13.7411	0.54
13.7782	0.554
13.8153	0.565
13.8525	0.574
13.8896	0.588
13.9268	0.604
13.9639	0.63
14.001	0.653
14.0382	0.672
14.0753	0.69
14.1124	0.711
14.1496	0.709
14.1867	0.711
14.2238	0.655
14.261	0.551
14.2981	0.403
14.3353	0.296
14.3724	0.282
14.4095	0.288
14.4467	0.279
14.4838	0.218
14.5209	0.195
14.5581	0.217
14.5952	0.29
14.6323	0.372
14.6695	0.45
14.7066	0.501
14.7438	0.534
14.7809	0.572
14.818	0.586
14.8552	0.602
14.8923	0.618
14.9294	0.63
14.9666	0.624
15.0037	0.608
15.0408	0.562
15.078	0.552
15.1151	0.565
15.1523	0.582
15.1894	0.61
15.2265	0.633
15.2637	0.652
15.3008	0.655
15.3379	0.653
15.3751	0.655
15.4122	0.658
15.4493	0.655
15.4865	0.652
15.5236	0.65
15.5608	0.644
15.5979	0.638
15.635	0.628
15.6722	0.622
15.7093	0.611
15.7464	0.602
15.7836	0.597
15.8207	0.593
15.8578	0.591
15.895	0.59
15.9321	0.588
15.9693	0.588
