Infrared Spectrum: Dibenzyl sulphone
Formula: C 14 H 14 O 2 S
CAS: 620-32-6
State: gas
Origin: EPA-IR VAPOR PHASE LIBRARY
1/CM	ABSORBANCE
549.9	0.0003978
559.547	0.00028928
569.193	0.00028814
578.84	0.00034397
588.486	0.0004132
598.133	0.0006448
607.779	0.0005185
617.426	0.000374
627.072	0.00033844
636.719	0.0003511
646.365	0.00033978
656.012	0.00031461
665.658	0.0004842
675.305	0.0006195
684.951	0.0010143
694.598	0.002599
704.245	0.001569
713.891	0.0007597
723.538	0.0006541
733.184	0.0006454
742.831	0.0005296
752.477	0.0006949
762.124	0.0009432
771.77	0.0011407
781.417	0.0009332
791.063	0.0007178
800.71	0.0005398
810.356	0.0005617
820.003	0.0007452
829.649	0.0006512
839.296	0.0004488
848.943	0.0004903
858.589	0.0007646
868.236	0.0011288
877.882	0.0007803
887.529	0.0005229
897.175	0.0004213
906.822	0.0004932
916.468	0.0008214
926.115	0.0005643
935.761	0.0004168
945.408	0.00032099
955.054	0.00028626
964.701	0.00030125
974.347	0.00027078
983.994	0.00029904
993.64	0.00029488
1003.29	0.00027703
1012.93	0.00031633
1022.58	0.0003691
1032.23	0.0005408
1041.87	0.00034312
1051.52	0.0003378
1061.17	0.0004112
1070.81	0.000514
1080.46	0.0004216
1090.11	0.0003781
1099.75	0.0003995
1109.4	0.0008612
1119.05	0.002329
1128.69	0.002399
1138.34	0.001369
1147.99	0.001779
1157.63	0.001699
1167.28	0.0008264
1176.92	0.0003631
1186.57	0.000399
1196.22	0.0004637
1205.86	0.0005719
1215.51	0.000556
1225.16	0.0004347
1234.8	0.0005625
1244.45	0.0006674
1254.1	0.0006189
1263.74	0.0006686
1273.39	0.0006069
1283.04	0.0003956
1292.68	0.0004474
1302.33	0.0005316
1311.98	0.0005494
1321.62	0.0007738
1331.27	0.001539
1340.92	0.004359
1350.56	0.004299
1360.21	0.0010423
1369.86	0.0004782
1379.5	0.0004057
1389.15	0.0004465
1398.79	0.0005091
1408.44	0.0006914
1418.09	0.0005646
1427.73	0.0004345
1437.38	0.0003907
1447.03	0.0005305
1456.67	0.0006527
1466.32	0.0004254
1475.97	0.0004056
1485.61	0.0005761
1495.26	0.0009542
1504.91	0.0006381
1514.55	0.0003655
1524.2	0.00027302
1533.85	0.00024625
1543.49	0.0002633
1553.14	0.00024492
1562.79	0.00027945
1572.43	0.0003541
1582.08	0.0003548
1591.73	0.00041
1601.37	0.0005294
1611.02	0.0004462
1620.67	0.00027433
1630.31	0.00024505
1639.96	0.00030318
1649.6	0.0002737
1659.25	0.00032091
1668.9	0.0002791
1678.54	0.0003055
1688.19	0.00029887
1697.84	0.0002348
1707.48	0.00029522
1717.13	0.000250214
1726.78	0.00032882
1736.42	0.00028481
1746.07	0.00034095
1755.72	0.00034226
1765.36	0.00031665
1775.01	0.0003074
1784.66	0.00032715
1794.3	0.0003624
1803.95	0.0003869
1813.6	0.000307
1823.24	0.00034046
1832.89	0.00030001
1842.54	0.00028935
1852.18	0.00032412
1861.83	0.00030314
1871.47	0.00028477
1881.12	0.00032225
1890.77	0.00031928
1900.41	0.0003698
1910.06	0.000352
1919.71	0.00030097
1929.35	0.00031753
1939	0.0003589
1948.65	0.0003899
1958.29	0.00034865
1967.94	0.0003021
1977.59	0.00031215
1987.23	0.00030686
1996.88	0.00029401
2006.53	0.00029217
2016.17	0.00028251
2025.82	0.00031958
2035.47	0.00030539
2045.11	0.00031002
2054.76	0.00028279
2064.41	0.00028079
2074.05	0.00026281
2083.7	0.0002816
2093.35	0.00027923
2102.99	0.000257225
2112.64	0.00031437
2122.28	0.00026549
2131.93	0.00029631
2141.58	0.00027459
2151.22	0.00029092
2160.87	0.00029777
2170.52	0.00026413
2180.16	0.00026954
2189.81	0.00029554
2199.46	0.00028737
2209.1	0.00026901
2218.75	0.0002939
2228.4	0.00029585
2238.04	0.00026525
2247.69	0.00029855
2257.34	0.0002775
2266.98	0.000254418
2276.63	0.00029939
2286.28	0.00030673
2295.92	0.00026623
2305.57	0.00028237
2315.22	0.00027542
2324.86	0.00027452
2334.51	0.0002164
2344.16	0.00026658
2353.8	0.0001945
2363.45	0.0001839
2373.09	0.0002109
2382.74	0.00023928
2392.39	0.00030438
2402.03	0.00028454
2411.68	0.00027432
2421.33	0.00031367
2430.97	0.00027195
2440.62	0.00027116
2450.27	0.00026834
2459.91	0.00031929
2469.56	0.0002703
2479.21	0.00029071
2488.85	0.00029237
2498.5	0.0002748
2508.15	0.000252864
2517.79	0.00024728
2527.44	0.00029188
2537.09	0.00028039
2546.73	0.00029885
2556.38	0.00024743
2566.03	0.0002773
2575.67	0.00024716
2585.32	0.00026784
2594.96	0.00027874
2604.61	0.00028721
2614.26	0.00029917
2623.9	0.00030777
2633.55	0.0002224
2643.2	0.00028359
2652.84	0.000250737
2662.49	0.0002607
2672.14	0.00026111
2681.78	0.0001921
2691.43	0.00029338
2701.08	0.00027146
2710.72	0.000248313
2720.37	0.00029037
2730.02	0.0003007
2739.66	0.00028113
2749.31	0.00026656
2758.96	0.0002018
2768.6	0.00027318
2778.25	0.00027829
2787.9	0.00027549
2797.54	0.0002079
2807.19	0.000219
2816.84	0.0002136
2826.48	0.0002326
2836.13	0.0001692
2845.77	0.0002274
2855.42	0.00024611
2865.07	0.00024399
2874.71	0.0002311
2884.36	0.0002388
2894.01	0.00033209
2903.65	0.00022
2913.3	0.0002202
2922.95	0.0003943
2932.59	0.0004417
2942.24	0.0003223
2951.89	0.00030895
2961.53	0.000176
2971.18	0.00030219
2980.83	0.00027771
2990.47	0.00031265
3000.12	0.0003698
3009.77	0.0004252
3019.41	0.0004597
3029.06	0.0007964
3038.71	0.0010022
3048.35	0.0007559
3058	0.0007323
3067.64	0.0010994
3077.29	0.0012186
3086.94	0.0008204
3096.58	0.0005862
3106.23	0.0005242
3115.88	0.00027953
3125.52	0.00023952
3135.17	0.0002143
3144.82	0.0001911
3154.46	0.0001836
3164.11	0.0002122
3173.76	0.0001577
3183.4	0.0002223
3193.05	0.0002116
3202.7	0.00024425
3212.34	0.0001868
3221.99	0.000224
3231.64	8.2e-05
3241.28	2.8e-05
3250.93	0.000128
3260.58	0.000102
3270.22	0.00028756
3279.87	0.0001523
3289.52	0.0001496
3299.16	5.2e-05
3308.81	0.000248539
3318.45	0.0002356
3328.1	0.000108
3337.75	0.0001856
3347.39	4.5e-05
3357.04	0.000226
3366.69	0.000113
3376.33	0.0001997
3385.98	0.0001996
3395.63	0.0001893
3405.27	0.0002135
3414.92	0.0001815
3424.57	0.0002233
3434.21	0.00024655
3443.86	0.000189
3453.51	0.0001696
3463.15	9.5e-05
3472.8	0.000173
3482.45	0.000114
3492.09	0.000251835
3501.74	0.00027989
3511.39	0.0001878
3521.03	0.0002374
3530.68	0.0001668
3540.33	0.0001976
3549.97	0.0002194
3559.62	0.0002064
3569.26	0.000121
3578.91	0.000104
3588.56	0.00028351
3598.2	0.000193
3607.85	0.000144
3617.5	0.000139
3627.14	0.0001939
3636.79	0.0001774
3646.44	0.0001639
3656.08	0.00012
3665.73	0.00026347
3675.38	0.0001493
3685.02	0.0002068
3694.67	0.000133
3704.32	0.0002356
3713.96	0.000117
3723.61	0.000121
3733.26	0.0001497
3742.9	0.000217
3752.55	0.0001554
3762.2	0.00031417
3771.84	0.0002325
3781.49	0.0002265
3791.13	0.0002054
3800.78	0.000113
3810.43	0.0002384
3820.07	0.000146
3829.72	0.0002312
3839.37	0.0001828
3849.01	0.000125
3858.66	0.0001857
3868.31	9.1e-05
3877.95	0.0002159
3887.6	0.0002035
3897.25	0.0003317
3906.89	0.0002233
3916.54	0.0002212
3926.19	0.000223
3935.83	0.0002353
3945.48	0.0001662
3955.13	0.0002113
3964.77	0.0002115
3974.42	0.0001793
3984.07	0.0001812
3993.71	0.00024623
