Infrared Spectrum: 3-Benzylpyridine
Formula: C 12 H 11 N
CAS: 620-95-1
State: gas
Origin: EPA-IR VAPOR PHASE LIBRARY
1/CM	ABSORBANCE
551.7	0.00246
563.274	0.00489
574.848	0.002
586.421	0.00184
597.995	0.00356
609.569	0.00786
621.143	0.01043
632.717	0.01293
644.291	0.00899
655.864	0.00632
667.438	0.00994
679.012	0.02045
690.586	0.04922
702.16	0.0746
713.734	0.0681
725.307	0.05187
736.881	0.05307
748.455	0.03452
760.029	0.02037
771.603	0.02392
783.177	0.01748
794.75	0.00905
806.324	0.00605
817.898	0.00635
829.472	0.00607
841.046	0.00337
852.619	0.00202
864.193	0.00163
875.767	0.00178
887.341	0.00245
898.915	0.00317
910.489	0.00334
922.062	0.00352
933.636	0.00277
945.21	0.00234
956.784	0.0019
968.358	0.00161
979.932	0.00162
991.505	0.00241
1003.08	0.0055
1014.65	0.01413
1026.23	0.02862
1037.8	0.01187
1049.37	0.00405
1060.95	0.00496
1072.52	0.00665
1084.1	0.00634
1095.67	0.00655
1107.24	0.0062
1118.82	0.00622
1130.39	0.00514
1141.97	0.00365
1153.54	0.00448
1165.11	0.00595
1176.69	0.00783
1188.26	0.01182
1199.83	0.01
1211.41	0.00526
1222.98	0.00396
1234.56	0.00348
1246.13	0.00253
1257.7	0.00193
1269.28	0.00218
1280.85	0.00283
1292.42	0.00348
1304	0.00357
1315.57	0.00355
1327.15	0.00352
1338.72	0.00348
1350.29	0.00311
1361.87	0.00315
1373.44	0.00398
1385.02	0.00479
1396.59	0.00826
1408.16	0.01724
1419.74	0.0419
1431.31	0.03462
1442.88	0.02142
1454.46	0.01799
1466.03	0.0192
1477.61	0.03172
1489.18	0.02451
1500.75	0.02379
1512.33	0.00548
1523.9	0.00357
1535.48	0.00419
1547.05	0.00632
1558.62	0.01225
1570.2	0.0202
1581.77	0.01838
1593.34	0.01595
1604.92	0.0168
1616.49	0.00745
1628.07	0.00288
1639.64	0.00219
1651.21	0.0022
1662.79	0.00199
1674.36	0.00161
1685.93	0.00162
1697.51	0.00182
1709.08	0.00185
1720.66	0.00218
1732.23	0.00225
1743.8	0.00225
1755.38	0.00228
1766.95	0.00234
1778.53	0.0027
1790.1	0.00396
1801.67	0.00388
1813.25	0.00244
1824.82	0.00194
1836.39	0.002
1847.97	0.00274
1859.54	0.00369
1871.12	0.00428
1882.69	0.00424
1894.26	0.00517
1905.84	0.00429
1917.41	0.00352
1928.99	0.00424
1940.56	0.00472
1952.13	0.0049
1963.71	0.00259
1975.28	0.00107
1986.85	0.0008279
1998.43	0.0006813
2010	0.0006826
2021.58	0.0006257
2033.15	0.0005968
2044.72	0.0006422
2056.3	0.0006204
2067.87	0.0006525
2079.44	0.000665
2091.02	0.0005536
2102.59	0.0004848
2114.17	0.000502
2125.74	0.0004755
2137.31	0.0004517
2148.89	0.0004254
2160.46	0.000449
2172.04	0.0004998
2183.61	0.0005101
2195.18	0.0005404
2206.76	0.0006065
2218.33	0.0006924
2229.9	0.0007115
2241.48	0.0007289
2253.05	0.0008036
2264.63	0.0007607
2276.2	0.000656
2287.77	0.0005821
2299.35	0.0006516
2310.92	0.0009488
2322.5	0.0009686
2334.07	0.00103
2345.64	0.00107
2357.22	0.00104
2368.79	0.0009974
2380.36	0.0008841
2391.94	0.0007825
2403.51	0.0007221
2415.09	0.0006839
2426.66	0.0006526
2438.23	0.0006215
2449.81	0.0006425
2461.38	0.0006595
2472.96	0.0005908
2484.53	0.0005259
2496.1	0.0004764
2507.68	0.0005245
2519.25	0.0005612
2530.82	0.0005141
2542.4	0.0004534
2553.97	0.0004151
2565.55	0.0004003
2577.12	0.0005365
2588.69	0.0007347
2600.27	0.0009156
2611.84	0.0009677
2623.41	0.0009124
2634.99	0.0008869
2646.56	0.0007479
2658.14	0.0005735
2669.71	0.0005285
2681.28	0.0004623
2692.86	0.0004254
2704.43	0.0004379
2716.01	0.0005649
2727.58	0.0006986
2739.15	0.0008097
2750.73	0.0009111
2762.3	0.0009226
2773.87	0.00109
2785.45	0.00123
2797.02	0.0014
2808.6	0.00161
2820.17	0.00206
2831.74	0.00316
2843.32	0.00578
2854.89	0.0079
2866.47	0.00665
2878.04	0.00522
2889.61	0.00648
2901.19	0.01096
2912.76	0.01938
2924.33	0.02615
2935.91	0.0211
2947.48	0.01127
2959.06	0.00634
2970.63	0.00616
2982.2	0.0098
2993.78	0.01627
3005.35	0.02487
3016.92	0.03548
3028.5	0.06186
3040.07	0.06438
3051.65	0.05402
3063.22	0.05615
3074.79	0.05395
3086.37	0.04037
3097.94	0.02422
3109.52	0.01217
3121.09	0.00597
3132.66	0.00322
3144.24	0.00248
3155.81	0.00171
3167.38	0.00136
3178.96	0.0009294
3190.53	0.0006411
3202.11	0.0005197
3213.68	0.0004766
3225.25	0.0003974
3236.83	0.0003814
3248.4	0.0003505
3259.98	0.0003079
3271.55	0.0002948
3283.12	0.0003441
3294.7	0.0002985
3306.27	0.0002672
3317.84	0.0002151
3329.42	0.0001776
3340.99	0.0002007
3352.57	0.0001758
3364.14	0.000136
3375.71	0.0001874
3387.29	0.0002412
3398.86	0.0002059
3410.43	0.0002253
3422.01	0.0002101
3433.58	0.0001946
3445.16	0.0001861
3456.73	0.0002072
3468.3	0.0002357
3479.88	0.0001174
3491.45	0.0001444
3503.03	0.0001657
3514.6	0.0001521
3526.17	0.0002529
3537.75	0.0001826
3549.32	0.000124
3560.89	0.0002211
3572.47	0.0002238
3584.04	0.0002708
3595.62	0.0002389
3607.19	0.0003181
3618.76	0.0004238
3630.34	0.0005615
3641.91	0.0005483
3653.49	0.0006788
3665.06	0.0005194
3676.63	0.0004666
3688.21	0.0005217
3699.78	0.0004914
3711.35	0.0004251
3722.93	0.0004068
3734.5	0.000345
3746.08	0.0003725
3757.65	0.0003317
3769.22	0.0003456
3780.8	0.0003694
3792.37	0.00034
3803.94	0.0003902
3815.52	0.0003997
3827.09	0.0005159
3838.67	0.0004868
3850.24	0.0004601
3861.81	0.0004581
3873.39	0.0004649
3884.96	0.0004447
3896.54	0.0005555
3908.11	0.0004815
3919.68	0.0004578
3931.26	0.000389
3942.83	0.0003844
3954.4	0.0002839
3965.98	0.0003457
3977.55	0.0003571
3989.13	0.0003289
4000.7	0.0004777
