Infrared Spectrum: Spiro(1,2-dithiolane-4,5'-hydantoin)
Formula: C5 H6 N2 O2 S2
CAS: 62032-12-6
State: SOLID (0.8 mg / 650 mg KBr DISC)
Class: COBLENTZ III
Instrument: PERKIN-ELMER 221 (GRATING)
Instrument parameters: FILTER AT 980 CM^-^1. GRATING 4000-1428 CM^-^1, NaCl PRISM 1428-650 CM^-^1
Resolution: 2
Origin: SOUTHERN RESEARCH INSTITUTE
1/CM	TRANSMITTANCE
618.829	0.5876
626.864	0.5822
634.9	0.5349
642.935	0.536
650.97	0.7027
659.006	0.6857
667.041	0.577
675.076	0.5897
683.112	0.7425
691.147	0.7596
699.182	0.754
707.218	0.7398
715.253	0.7124
723.288	0.6593
731.324	0.5537
739.359	0.3543
747.394	0.5717
755.43	0.7494
763.465	0.7907
771.5	0.7805
779.536	0.7228
787.571	0.6281
795.606	0.5337
803.642	0.5167
811.677	0.6041
819.712	0.7488
827.747	0.7829
835.783	0.7926
843.818	0.7894
851.853	0.7645
859.889	0.768
867.924	0.8025
875.959	0.8017
883.995	0.7955
892.03	0.7778
900.065	0.7098
908.101	0.7435
916.136	0.8055
924.171	0.8031
932.207	0.8009
940.242	0.7978
948.277	0.7933
956.313	0.7894
964.348	0.7851
972.383	0.7773
980.419	0.7904
988.454	0.7033
996.489	0.737
1004.52	0.6919
1012.56	0.5612
1020.6	0.6476
1028.63	0.7024
1036.67	0.5853
1044.7	0.4929
1052.74	0.7057
1060.77	0.7503
1068.81	0.7611
1076.84	0.7543
1084.88	0.7342
1092.91	0.7256
1100.95	0.7164
1108.98	0.7084
1117.02	0.6991
1125.05	0.6898
1133.09	0.6797
1141.13	0.6663
1149.16	0.6422
1157.2	0.6153
1165.23	0.6083
1173.27	0.5972
1181.3	0.5667
1189.34	0.4978
1197.37	0.3999
1205.41	0.269
1213.44	0.3625
1221.48	0.6021
1229.51	0.7056
1237.55	0.7036
1245.58	0.6714
1253.62	0.567
1261.66	0.6446
1269.69	0.619
1277.73	0.5301
1285.76	0.4285
1293.8	0.3501
1301.83	0.4483
1309.87	0.6208
1317.9	0.6543
1325.94	0.652
1333.97	0.6291
1342.01	0.5988
1350.04	0.5765
1358.08	0.5509
1366.11	0.4844
1374.15	0.4073
1382.18	0.3028
1390.22	0.2248
1398.26	0.2247
1406.29	0.1936
1414.33	0.2731
1422.36	0.5585
1430.4	0.523
1438.43	0.6673
1446.47	0.7541
1454.5	0.7539
1462.54	0.7582
1470.57	0.777
1478.61	0.7809
1486.64	0.7647
1494.68	0.7462
1502.71	0.7352
1510.75	0.7249
1518.79	0.7156
1526.82	0.7068
1534.86	0.6988
1542.89	0.6884
1550.93	0.6761
1558.96	0.6712
1567	0.6684
1575.03	0.6591
1583.07	0.6438
1591.1	0.6215
1599.14	0.601
1607.17	0.5798
1615.21	0.5602
1623.24	0.5381
1631.28	0.5179
1639.32	0.5032
1647.35	0.4901
1655.39	0.4774
1663.42	0.4641
1671.46	0.4424
1679.49	0.4068
1687.53	0.3779
1695.56	0.3566
1703.6	0.3032
1711.63	0.2205
1719.67	0.1503
1727.7	0.0856
1735.74	0.0023
1743.77	0.0057
1751.81	0.1282
1759.85	0.1753
1767.88	0.1383
1775.92	0.0742
1783.95	0.0626
1791.99	0.1811
1800.02	0.3527
1808.06	0.5057
1816.09	0.5872
1824.13	0.6449
1832.16	0.6876
1840.2	0.7158
1848.23	0.741
1856.27	0.766
1864.3	0.7872
1872.34	0.8036
1880.38	0.819
1888.41	0.8325
1896.45	0.8428
1904.48	0.8439
1912.52	0.844
1920.55	0.8441
1928.59	0.8442
1936.62	0.8443
1944.66	0.8444
1952.69	0.8445
1960.73	0.8446
1968.76	0.8447
1976.8	0.8448
1984.83	0.8449
1992.87	0.8439
2000.91	0.8369
2008.94	0.8226
2016.98	0.8131
2025.01	0.8084
2033.05	0.8083
2041.08	0.809
2049.12	0.8098
2057.15	0.8116
2065.19	0.8136
2073.22	0.8141
2081.26	0.8139
2089.29	0.8135
2097.33	0.8124
2105.36	0.8113
2113.4	0.8101
2121.44	0.8086
2129.47	0.8071
2137.51	0.8064
2145.54	0.8057
2153.58	0.8043
2161.61	0.8019
2169.65	0.7989
2177.68	0.7972
2185.72	0.7954
2193.75	0.7939
2201.79	0.7922
2209.82	0.7925
2217.86	0.7915
2225.89	0.7905
2233.93	0.7885
2241.96	0.786
2250	0.7829
2258.04	0.7796
2266.07	0.7766
2274.11	0.7741
2282.14	0.7716
2290.18	0.7686
2298.21	0.7655
2306.25	0.7619
2314.28	0.755
2322.32	0.7468
2330.35	0.7396
2338.39	0.7377
2346.42	0.7359
2354.46	0.7348
2362.49	0.7343
2370.53	0.7338
2378.57	0.7334
2386.6	0.7321
2394.64	0.7287
2402.67	0.7232
2410.71	0.722
2418.74	0.7216
2426.78	0.7211
2434.81	0.7206
2442.85	0.7197
2450.88	0.7187
2458.92	0.7178
2466.95	0.7176
2474.99	0.7175
2483.02	0.717
2491.06	0.7161
2499.1	0.7142
2507.13	0.7113
2515.17	0.7083
2523.2	0.7052
2531.24	0.7018
2539.27	0.6986
2547.31	0.6954
2555.34	0.6921
2563.38	0.6879
2571.41	0.6839
2579.45	0.6801
2587.48	0.6762
2595.52	0.6725
2603.55	0.6692
2611.59	0.6659
2619.63	0.6626
2627.66	0.6595
2635.7	0.6567
2643.73	0.654
2651.77	0.6513
2659.8	0.6486
2667.84	0.6462
2675.87	0.6444
2683.91	0.6399
2691.94	0.6325
2699.98	0.6237
2708.01	0.6148
2716.05	0.6043
2724.08	0.5933
2732.12	0.5837
2740.16	0.5753
2748.19	0.5676
2756.23	0.5476
2764.26	0.516
2772.3	0.5019
2780.33	0.5041
2788.37	0.5371
2796.4	0.5691
2804.44	0.5746
2812.47	0.5769
2820.51	0.5776
2828.54	0.576
2836.58	0.572
2844.61	0.5651
2852.65	0.5578
2860.69	0.5547
2868.72	0.5538
2876.76	0.5504
2884.79	0.5448
2892.83	0.5393
2900.86	0.531
2908.9	0.522
2916.93	0.5128
2924.97	0.5021
2933	0.4923
2941.04	0.4853
2949.07	0.4795
2957.11	0.4778
2965.14	0.4746
2973.18	0.4637
2981.21	0.4566
2989.25	0.4425
2997.29	0.43
3005.32	0.417
3013.36	0.403
3021.39	0.3836
3029.43	0.3621
3037.46	0.3406
3045.5	0.3185
3053.53	0.2929
3061.57	0.2707
3069.6	0.2614
3077.64	0.2627
3085.67	0.2678
3093.71	0.3044
3101.74	0.3617
3109.78	0.3636
3117.82	0.3579
3125.85	0.3434
3133.89	0.3165
3141.92	0.3017
3149.96	0.2968
3157.99	0.2957
3166.03	0.2955
3174.06	0.2958
3182.1	0.2968
3190.13	0.2996
3198.17	0.3035
3206.2	0.3097
3214.24	0.323
3222.27	0.3346
3230.31	0.3394
3238.35	0.3395
3246.38	0.3352
3254.42	0.3228
3262.45	0.3107
3270.49	0.3077
3278.52	0.3111
3286.56	0.3234
3294.59	0.3597
3302.63	0.3893
3310.66	0.4248
3318.7	0.4449
3326.73	0.4804
3334.77	0.4966
3342.8	0.5141
3350.84	0.5338
3358.88	0.541
3366.91	0.5526
3374.95	0.5547
3382.98	0.555
3391.02	0.5538
3399.05	0.5512
3407.09	0.5475
3415.12	0.5436
3423.16	0.5401
3431.19	0.5387
3439.23	0.5389
3447.26	0.5395
3455.3	0.5407
3463.33	0.5436
3471.37	0.5547
3479.41	0.5642
3487.44	0.5706
3495.48	0.5808
3503.51	0.5894
3511.55	0.5955
3519.58	0.6008
3527.62	0.6065
3535.65	0.6123
3543.69	0.6182
3551.72	0.6241
3559.76	0.6299
3567.79	0.6343
3575.83	0.6383
3583.86	0.6418
3591.9	0.6506
3599.94	0.6632
3607.97	0.6717
3616.01	0.678
3624.04	0.6823
3632.08	0.6883
3640.11	0.6949
3648.15	0.6969
3656.18	0.6972
3664.22	0.6969
3672.25	0.6964
3680.29	0.696
3688.32	0.6957
3696.36	0.6958
3704.39	0.6957
3712.43	0.6953
3720.46	0.694
3728.5	0.6905
3736.54	0.6876
3744.57	0.6874
3752.61	0.6886
3760.64	0.6898
3768.68	0.6905
3776.71	0.6903
3784.75	0.6891
3792.78	0.6873
3800.82	0.685
3808.85	0.6808
