Infrared Spectrum: 1-Cyclohexyl-2,2-dimethyl-1-propanol
Formula: C 11 H 22 O
CAS: 62039-14-9
State: gas
Instrument: HP-GC/MS/IRD
Origin: NIST Mass Spectrometry Data Center
1/CM	ABSORBANCE
550	0.0006741
562	0.0003465
574	0.000252
586	0.0002142
598	0.0002268
610	0.0001386
622	0.0002898
634	0.0002142
646	0.0002457
658	0.0002583
670	0.0005292
682	0.000504
694	0.0002961
706	0.0001764
718	6.3e-05
730	0.0001197
742	0.0002016
754	0.0002961
766	0.0001953
778	9.45e-05
790	6.3e-05
802	5.04e-05
814	5.67e-05
826	0.0001827
838	0.0008442
850	0.0005355
862	0.0005607
874	0.0010143
886	0.0016002
898	0.0014301
910	0.000945
922	0.001008
934	0.0010017
946	0.0012978
958	0.0024696
970	0.0039753
982	0.0054936
994	0.0060795
1006	0.0043155
1018	0.002898
1030	0.0025956
1042	0.0025578
1054	0.0027405
1066	0.0031437
1078	0.0045234
1090	0.0055062
1102	0.0044415
1114	0.0025704
1126	0.0018333
1138	0.0018648
1150	0.0020853
1162	0.0026649
1174	0.0031311
1186	0.0030996
1198	0.0028602
1210	0.0027594
1222	0.0030492
1234	0.0032886
1246	0.0030177
1258	0.0028854
1270	0.002709
1282	0.0021168
1294	0.0019215
1306	0.001953
1318	0.0016317
1330	0.0015624
1342	0.0018396
1354	0.0032823
1366	0.0061614
1378	0.0046809
1390	0.0037674
1402	0.0044478
1414	0.0021294
1426	0.0015057
1438	0.0026775
1450	0.0058842
1462	0.0059094
1474	0.0053865
1486	0.0043155
1498	0.0016065
1510	0.0007056
1522	0.0004347
1534	0.0003087
1546	0.0002394
1558	0.0002079
1570	0.0001575
1582	0.0001071
1594	8.19e-05
1606	6.93e-05
1618	8.19e-05
1630	8.19e-05
1642	6.3e-05
1654	8.82e-05
1666	6.93e-05
1678	4.41e-05
1690	3.78e-05
1702	6.3e-05
1714	3.15e-05
1726	0
1738	3.78e-05
1750	3.78e-05
1762	1.89e-05
1774	3.15e-05
1786	1.89e-05
1798	2.52e-05
1810	1.89e-05
1822	6.3e-06
1834	6.3e-06
1846	2.52e-05
1858	2.52e-05
1870	4.41e-05
1882	5.04e-05
1894	3.15e-05
1906	3.15e-05
1918	1.26e-05
1930	4.41e-05
1942	4.41e-05
1954	6.93e-05
1966	7.56e-05
1978	7.56e-05
1990	4.41e-05
2002	5.04e-05
2014	6.3e-06
2026	1.89e-05
2038	6.3e-06
2050	1.89e-05
2062	0
2074	0
2086	2.52e-05
2098	6.3e-06
2110	3.15e-05
2122	3.78e-05
2134	3.78e-05
2146	1.26e-05
2158	2.52e-05
2170	3.15e-05
2182	3.15e-05
2194	4.41e-05
2206	5.04e-05
2218	2.52e-05
2230	6.3e-05
2242	5.04e-05
2254	2.52e-05
2266	2.52e-05
2278	1.89e-05
2290	5.04e-05
2302	3.78e-05
2314	2.52e-05
2326	5.04e-05
2338	8.19e-05
2350	8.82e-05
2362	0.0001323
2374	0.000126
2386	0.0001008
2398	0.0001197
2410	9.45e-05
2422	9.45e-05
2434	8.19e-05
2446	5.67e-05
2458	6.93e-05
2470	6.93e-05
2482	0.0001008
2494	8.82e-05
2506	0.0001071
2518	0.0001071
2530	0.0001449
2542	0.0001512
2554	0.0001575
2566	0.0002142
2578	0.0002583
2590	0.000315
2602	0.0003591
2614	0.0004536
2626	0.0004788
2638	0.000567
2650	0.0007245
2662	0.0010017
2674	0.0010584
2686	0.0009261
2698	0.000819
2710	0.0008568
2722	0.0008442
2734	0.0008127
2746	0.0008001
2758	0.0008883
2770	0.0009513
2782	0.0011718
2794	0.0015309
2806	0.0018711
2818	0.0024822
2830	0.0037107
2842	0.0072954
2854	0.0184779
2866	0.0249543
2878	0.0179235
2890	0.0152334
2902	0.0187425
2914	0.0299124
2926	0.0519057
2938	0.0617715
2950	0.0416241
2962	0.0362943
2974	0.0259056
2986	0.0121779
2998	0.0053361
3010	0.002646
3022	0.0016065
3034	0.0010962
3046	0.0008442
3058	0.0006741
3070	0.0005922
3082	0.0004914
3094	0.0004473
3106	0.0004095
3118	0.0003843
3130	0.0003717
3142	0.0003843
3154	0.0003906
3166	0.0004095
3178	0.0003402
3190	0.0002961
3202	0.0002898
3214	0.0002457
3226	0.0002079
3238	0.000189
3250	0.0001386
3262	0.0001197
3274	6.93e-05
3286	3.15e-05
3298	3.15e-05
3310	2.52e-05
3322	1.26e-05
3334	3.15e-05
3346	7.56e-05
3358	9.45e-05
3370	9.45e-05
3382	0.0001008
3394	7.56e-05
3406	0.000126
3418	0.0001386
3430	0.0001512
3442	0.0001386
3454	0.0001323
3466	0.0001134
3478	8.82e-05
3490	0.0001008
3502	6.3e-05
3514	4.41e-05
3526	5.04e-05
3538	3.15e-05
3550	5.67e-05
3562	1.26e-05
3574	1.26e-05
3586	5.67e-05
3598	3.15e-05
3610	9.45e-05
3622	0.0002205
3634	0.0005292
3646	0.0010962
3658	0.0018711
3670	0.0020727
3682	0.0009639
3694	0.0003654
3706	0.0001512
3718	0.0001386
3730	0.0001323
3742	0.0001449
3754	0.0001197
3766	0.0001701
3778	0.0001638
3790	0.0001386
3802	0.0001827
3814	0.0002016
3826	0.0002079
3838	0.0002142
