Infrared Spectrum: 1,4-DIPHENYLSEMICARBIZIDE
Formula: C13 H13 N3 O
CAS: 621-12-5
State: SOLID (MINERAL OIL MULL)
Melting point: 174-176 C
Class: COBLENTZ
Instrument: Not specified, most likely a prism, grating, or hybrid spectrometer.
Sampling: TRANSMISSION
Resolution: 4
Origin: WYANDOTTE CHEMICALS CORP., WYANDOTTE, MICHIGAN, USA
MICROMETERS	TRANSMITTANCE
2.02	0.421
2.0609	0.414
2.10179	0.414
2.14269	0.419
2.18359	0.421
2.22448	0.423
2.26538	0.421
2.30628	0.435
2.34717	0.433
2.38807	0.432
2.42897	0.444
2.46986	0.453
2.51076	0.458
2.55166	0.483
2.59255	0.483
2.63345	0.505
2.67435	0.514
2.71524	0.508
2.75614	0.5
2.79704	0.498
2.83793	0.516
2.87883	0.514
2.91972	0.51
2.96062	0.487
3.00152	0.355
3.04241	0.18
3.08331	0.194
3.12421	0.126
3.1651	0.158
3.206	0.176
3.2469	0.16
3.28779	0.144
3.32869	0.121
3.36959	0.048
3.41048	0.046
3.45138	0.053
3.49228	0.05
3.53317	0.158
3.57407	0.4
3.61497	0.46
3.65586	0.467
3.69676	0.482
3.73766	0.478
3.77855	0.503
3.81945	0.51
3.86035	0.512
3.90124	0.542
3.94214	0.544
3.98304	0.548
4.02393	0.576
4.06483	0.591
4.10573	0.591
4.14662	0.596
4.18752	0.601
4.22842	0.612
4.26931	0.582
4.31021	0.621
4.35111	0.642
4.392	0.673
4.4329	0.664
4.4738	0.66
4.51469	0.669
4.55559	0.687
4.59648	0.685
4.63738	0.696
4.67828	0.696
4.71917	0.717
4.76007	0.733
4.80097	0.733
4.84186	0.746
4.88276	0.748
4.92366	0.76
4.96455	0.76
5.00545	0.771
5.04635	0.776
5.08724	0.785
5.12814	0.751
5.16904	0.744
5.20993	0.748
5.25083	0.81
5.29173	0.837
5.33262	0.823
5.37352	0.791
5.41442	0.846
5.45531	0.833
5.49621	0.858
5.53711	0.882
5.578	0.885
5.6189	0.966
5.6598	0.98
5.70069	0.987
5.74159	0.928
5.78249	0.921
5.82338	0.841
5.86428	0.651
5.90518	0.5
5.94607	0.366
5.98697	0.075
6.02787	0.11
6.06876	0.223
6.10966	0.305
6.15056	0.242
6.19145	0.125
6.23235	0.105
6.27324	0.262
6.31414	0.325
6.35504	0.232
6.39593	0.087
6.43683	0.076
6.47773	0.083
6.51862	0.091
6.55952	0.091
6.60042	0.116
6.64131	0.096
6.68221	0.085
6.72311	0.112
6.764	0.101
6.8049	0.06
6.8458	0.058
6.88669	0.062
6.92759	0.066
6.96849	0.107
7.00938	0.183
7.05028	0.237
7.09118	0.258
7.13207	0.266
7.17297	0.239
7.21387	0.162
7.25476	0.114
7.29566	0.207
7.33656	0.294
7.37745	0.328
7.41835	0.341
7.45925	0.325
7.50014	0.2
7.54104	0.235
7.58194	0.201
7.62283	0.208
7.66373	0.153
7.70463	0.176
7.74552	0.182
7.78642	0.212
7.82732	0.291
7.86821	0.332
7.90911	0.325
7.95	0.219
7.9909	0.167
8.0318	0.207
8.07269	0.251
8.11359	0.23
8.15449	0.158
8.19538	0.178
8.23628	0.244
8.27718	0.303
8.31807	0.348
8.35897	0.383
8.39987	0.408
8.44076	0.398
8.48166	0.339
8.52256	0.337
8.56345	0.401
8.60435	0.385
8.64525	0.362
8.68614	0.364
8.72704	0.446
8.76794	0.469
8.80883	0.478
8.84973	0.475
8.89063	0.478
8.93152	0.476
8.97242	0.453
9.01332	0.464
9.05421	0.494
9.09511	0.519
9.13601	0.535
9.1769	0.519
9.2178	0.371
9.2587	0.335
9.29959	0.464
9.34049	0.526
9.38139	0.551
9.42228	0.571
9.46318	0.591
9.50408	0.607
9.54497	0.61
9.58587	0.614
9.62676	0.596
9.66766	0.46
9.70856	0.394
9.74945	0.532
9.79035	0.569
9.83125	0.58
9.87214	0.603
9.91304	0.6
9.95394	0.575
9.99483	0.639
10.0357	0.653
10.0766	0.63
10.1175	0.592
10.1584	0.623
10.1993	0.662
10.2402	0.685
10.2811	0.676
10.322	0.646
10.3629	0.692
10.4038	0.705
10.4447	0.723
10.4856	0.725
10.5265	0.728
10.5674	0.732
10.6083	0.728
10.6492	0.732
10.6901	0.73
10.731	0.73
10.7719	0.732
10.8128	0.733
10.8537	0.725
10.8946	0.714
10.9355	0.712
10.9764	0.641
11.0172	0.517
11.0581	0.576
11.099	0.651
11.1399	0.66
11.1808	0.691
11.2217	0.662
11.2626	0.626
11.3035	0.607
11.3444	0.521
11.3853	0.401
11.4262	0.442
11.4671	0.416
11.508	0.405
11.5489	0.469
11.5898	0.521
11.6307	0.562
11.6716	0.548
11.7125	0.508
11.7534	0.489
11.7943	0.514
11.8352	0.589
11.8761	0.644
11.917	0.63
11.9579	0.63
11.9988	0.655
12.0397	0.682
12.0806	0.692
12.1215	0.698
12.1624	0.705
12.2032	0.73
12.2441	0.733
12.285	0.733
12.3259	0.725
12.3668	0.712
12.4077	0.7
12.4486	0.694
12.4895	0.682
12.5304	0.651
12.5713	0.616
12.6122	0.567
12.6531	0.544
12.694	0.51
12.7349	0.462
12.7758	0.416
12.8167	0.355
12.8576	0.31
12.8985	0.269
12.9394	0.237
12.9803	0.205
13.0212	0.167
13.0621	0.132
13.103	0.103
13.1439	0.075
13.1848	0.071
13.2257	0.073
13.2666	0.073
13.3075	0.073
13.3484	0.103
13.3893	0.15
13.4301	0.208
13.471	0.241
13.5119	0.273
13.5528	0.296
13.5937	0.312
13.6346	0.326
13.6755	0.333
13.7164	0.342
13.7573	0.348
13.7982	0.344
13.8391	0.333
13.88	0.333
13.9209	0.346
13.9618	0.369
14.0027	0.398
14.0436	0.43
14.0845	0.458
14.1254	0.475
14.1663	0.5
14.2072	0.521
14.2481	0.533
14.289	0.525
14.3299	0.489
14.3708	0.414
14.4117	0.307
14.4526	0.232
14.4935	0.176
14.5344	0.144
14.5753	0.133
14.6161	0.128
14.657	0.153
14.6979	0.196
14.7388	0.225
14.7797	0.26
14.8206	0.262
14.8615	0.26
14.9024	0.26
14.9433	0.26
14.9842	0.262
15.0251	0.262
15.066	0.262
15.1069	0.237
15.1478	0.23
15.1887	0.233
15.2296	0.25
15.2705	0.257
15.3114	0.253
15.3523	0.258
15.3932	0.26
15.4341	0.269
15.475	0.282
15.5159	0.287
15.5568	0.289
15.5977	0.3
15.6386	0.308
15.6795	0.325
15.7204	0.335
15.7613	0.328
15.8021	0.35
15.843	0.355
15.8839	0.358
15.9248	0.362
15.9657	0.36
