Infrared Spectrum: Tricaproin
Formula: C21 H38 O6
CAS: 621-70-5
State: SOLUTION (2% CCl4 FOR 3800-1330, 2% CS2 FOR 1330-450 CM^-^1)
Class: COBLENTZ III
Instrument: DOW KBr FOREPRISM-GRATING
Instrument parameters: BLAZED AT 3.5, 12.0, 20.0 MICRON AND CHANGED AT 5.0, 7.5, 14.9 MICRON
Sampling: TRANSMISSION
Path length: 0.011 CM, 0.011 CM
Resolution: 2
Origin: DOW CHEMICAL COMPANY
1/CM	TRANSMITTANCE
3784	0.9163
3775	0.913
3766	0.9171
3757	0.9184
3748	0.9175
3739	0.9185
3730	0.9206
3721	0.9207
3712	0.92
3703	0.9188
3694	0.9143
3685	0.9086
3676	0.9033
3667	0.9096
3658	0.914
3649	0.9121
3640	0.912
3631	0.9143
3622	0.9139
3613	0.9106
3604	0.9065
3595	0.9032
3586	0.9073
3577	0.9099
3568	0.9026
3559	0.903
3550	0.9095
3541	0.9108
3532	0.9111
3523	0.9097
3514	0.9091
3505	0.9071
3496	0.9044
3487	0.901
3478	0.8985
3469	0.8974
3460	0.8962
3451	0.8957
3442	0.8966
3433	0.9009
3424	0.9061
3415	0.9075
3406	0.9074
3397	0.9055
3388	0.9038
3379	0.9044
3370	0.9081
3361	0.9084
3352	0.9094
3343	0.9105
3334	0.9103
3325	0.9102
3316	0.9101
3307	0.9102
3298	0.9098
3289	0.9097
3280	0.9098
3271	0.9107
3262	0.9107
3253	0.9106
3244	0.9096
3235	0.9095
3226	0.9075
3217	0.9087
3208	0.9073
3199	0.9077
3190	0.9055
3181	0.9025
3172	0.9015
3163	0.9034
3154	0.9042
3145	0.9024
3136	0.9033
3127	0.9057
3118	0.9054
3109	0.9034
3100	0.9042
3091	0.9059
3082	0.9007
3073	0.9033
3064	0.899
3055	0.8977
3046	0.8988
3037	0.9046
3028	0.8951
3019	0.8909
3010	0.8837
3001	0.8724
2992	0.8579
2983	0.8279
2974	0.7655
2965	0.5806
2956	0.421
2947	0.475
2938	0.5421
2929	0.4967
2920	0.4768
2911	0.5788
2902	0.6866
2893	0.7401
2884	0.7644
2875	0.7726
2866	0.6333
2857	0.6692
2848	0.6847
2839	0.8226
2830	0.8662
2821	0.8807
2812	0.8887
2803	0.8963
2794	0.9008
2785	0.9032
2776	0.9066
2767	0.9082
2758	0.909
2749	0.9095
2740	0.9096
2731	0.9086
2722	0.9065
2713	0.9076
2704	0.9088
2695	0.9092
2686	0.9095
2677	0.9096
2668	0.9099
2659	0.9109
2650	0.912
2641	0.9131
2632	0.9151
2623	0.9165
2614	0.9183
2605	0.9201
2596	0.9217
2587	0.9225
2578	0.9227
2569	0.9211
2560	0.9197
2551	0.9185
2542	0.918
2533	0.9174
2524	0.9182
2515	0.9189
2506	0.9195
2497	0.9199
2488	0.9204
2479	0.9219
2470	0.9215
2461	0.9216
2452	0.9225
2443	0.9232
2434	0.9238
2425	0.9238
2416	0.9235
2407	0.9234
2398	0.923
2389	0.9235
2380	0.9261
2371	0.9316
2362	0.9324
2353	0.9399
2344	0.9411
2335	0.9237
2326	0.9213
2317	0.9275
2308	0.9182
2299	0.9202
2290	0.9166
2281	0.9102
2272	0.9088
2263	0.9093
2254	0.9104
2245	0.9135
2236	0.9167
2227	0.9172
2218	0.9176
2209	0.9194
2200	0.9206
2191	0.9192
2182	0.9192
2173	0.9206
2164	0.9188
2155	0.9184
2146	0.918
2137	0.9175
2128	0.9167
2119	0.9158
2110	0.9151
2101	0.9144
2092	0.914
2083	0.9137
2074	0.9135
2065	0.9126
2056	0.9126
2047	0.9082
2038	0.9059
2029	0.9066
2020	0.9092
2011	0.9095
2002	0.9038
1993	0.8927
1984	0.8922
1975	0.8922
1966	0.8929
1957	0.8938
1948	0.8914
1939	0.8921
1930	0.8935
1921	0.8938
1912	0.893
1903	0.8935
1894	0.8931
1885	0.8893
1876	0.8888
1867	0.8926
1858	0.8879
1849	0.8836
1840	0.8836
1831	0.881
1822	0.8808
1813	0.8826
1804	0.8772
1795	0.8696
1786	0.8605
1777	0.8472
1768	0.8167
1759	0.6954
1750	0.2756
1741	0.1113
1732	0.3374
1723	0.6795
1714	0.784
1705	0.8233
1696	0.8479
1687	0.865
1678	0.8757
1669	0.884
1660	0.8906
1651	0.8915
1642	0.8903
1633	0.8909
1624	0.8893
1615	0.8926
1606	0.8953
1597	0.8728
1588	0.821
1579	0.8025
1570	0.7935
1561	0.7819
1552	0.7222
1543	0.6881
1534	0.7185
1525	0.7807
1516	0.8097
1507	0.826
1498	0.8386
1489	0.8552
1480	0.8752
1471	0.8311
1462	0.6968
1453	0.7054
1444	0.7808
1435	0.796
1426	0.8317
1417	0.802
1408	0.8262
1399	0.851
1390	0.8365
1381	0.7896
1372	0.7682
1363	0.7993
1354	0.8094
1345	0.7988
1336	0.8033
1327	0.7991
1318	0.7971
1309	0.7712
1300	0.7831
1291	0.7623
1282	0.7522
1273	0.7679
1264	0.7531
1255	0.7711
1246	0.7227
1237	0.6471
1228	0.6596
1219	0.6629
1210	0.6867
1201	0.7142
1192	0.7515
1183	0.7426
1174	0.5834
1165	0.438
1156	0.3258
1147	0.3817
1138	0.571
1129	0.7478
1120	0.8023
1111	0.7249
1102	0.6018
1093	0.5771
1084	0.6614
1075	0.7998
1066	0.8113
1057	0.816
1048	0.8469
1039	0.8539
1030	0.8381
1021	0.843
1012	0.8513
1003	0.8582
994	0.8676
985	0.8691
976	0.8661
967	0.8628
958	0.8494
949	0.8618
940	0.8799
931	0.892
922	0.897
913	0.896
904	0.8883
895	0.8931
886	0.902
877	0.8993
868	0.8836
859	0.8721
850	0.822
841	0.7924
832	0.8476
823	0.8873
814	0.9056
805	0.9134
796	0.9108
787	0.9048
778	0.8982
769	0.8996
760	0.9017
751	0.9062
742	0.8973
733	0.8799
724	0.8626
715	0.88
706	0.8938
697	0.8998
688	0.9031
679	0.9055
670	0.9126
661	0.9538
652	0.9158
643	0.9026
634	0.9111
625	0.919
616	0.921
607	0.922
598	0.9224
589	0.92
580	0.9151
571	0.9181
562	0.9207
553	0.8955
544	0.9118
535	0.9104
526	0.9073
517	0.9033
508	0.897
499	0.8917
490	0.8854
481	0.8755
472	0.8673
463	0.8569
454	0.8447
