Infrared Spectrum: HYDROXYLAMINE, N,N-DIBENZYL-,
Formula: C14 H15 N O
CAS: 621-07-8
State: SOLID (SPLIT MULL)
Melting point: 120 C
Class: COBLENTZ III
Instrument: DOW KBr FOREPRISM-GRATING
Instrument parameters: BLAZED AT 3.5, 12.0, 20.0 MICRON AND CHANGED AT 5.0, 7.5, 14.9 MICRON
Sampling: TRANSMISSION
Resolution: 2
Origin: DOW CHEMICAL COMPANY
1/CM	TRANSMITTANCE
382	0.8278
391	0.838
400	0.862
409	0.884
418	0.8965
427	0.9037
436	0.9002
445	0.8538
454	0.676
463	0.934
472	0.9399
481	0.9192
490	0.7058
499	0.8645
508	0.3742
517	0.5821
526	0.9338
535	0.9412
544	0.9342
553	0.9277
562	0.9164
571	0.9061
580	0.8887
589	0.8307
598	0.578
607	0.7474
616	0.3541
625	0.8957
634	0.8907
643	0.8689
652	0.8289
661	0.7482
670	0.6561
679	0.45
688	0.2584
697	0.0349
706	0.3514
715	0.6554
724	0.6246
733	0.5277
742	0.0075
751	0.1996
760	0.0475
769	0.5497
778	0.7084
787	0.769
796	0.7887
805	0.7738
814	0.4345
823	0.3412
832	0.6483
841	0.2623
850	0.7068
859	0.7718
868	0.8078
877	0.8111
886	0.7905
895	0.7948
904	0.791
913	0.5046
922	0.7378
931	0.5668
940	0.7657
949	0.7791
958	0.7674
967	0.7161
976	0.5246
985	0.5937
994	0.696
1003	0.714
1012	0.3564
1021	0.6584
1030	0.5657
1039	0.7519
1048	0.7506
1057	0.7306
1066	0.5505
1075	0.5077
1084	0.5914
1093	0.6238
1102	0.7382
1111	0.7255
1120	0.7376
1129	0.7411
1138	0.7396
1147	0.7324
1156	0.6628
1165	0.7193
1174	0.6445
1183	0.7231
1192	0.7182
1201	0.6244
1210	0.5984
1219	0.6818
1228	0.6665
1237	0.5138
1246	0.6745
1255	0.6941
1264	0.6908
1273	0.6865
1282	0.6807
1291	0.6443
1300	0.6367
1309	0.6399
1318	0.5162
1327	0.5529
1336	0.4382
1345	0.5403
1354	0.5626
1363	0.5146
1372	0.6382
1381	0.6372
1390	0.6526
1399	0.6588
1408	0.6742
1417	0.6669
1426	0.6461
1435	0.608
1444	0.5487
1453	0.2768
1462	0.6868
1471	0.7684
1480	0.7034
1489	0.6191
1498	0.5927
1507	0.8296
1516	0.8302
1525	0.8275
1534	0.8223
1543	0.8162
1552	0.8112
1561	0.8171
1570	0.8171
1579	0.7897
1588	0.7955
1597	0.7582
1606	0.8155
1615	0.8256
1624	0.8237
1633	0.8148
1642	0.8069
1651	0.7992
1660	0.7985
1669	0.7951
1678	0.8038
1687	0.8119
1696	0.8103
1705	0.8097
1714	0.8078
1723	0.8044
1732	0.7988
1741	0.7925
1750	0.7861
1759	0.7821
1768	0.7972
1777	0.7961
1786	0.7926
1795	0.7872
1804	0.7695
1813	0.7625
1822	0.7611
1831	0.7737
1840	0.7821
1849	0.7775
1858	0.7725
1867	0.7621
1876	0.7369
1885	0.7381
1894	0.7497
1903	0.7449
1912	0.7598
1921	0.7608
1930	0.7562
1939	0.7453
1948	0.7308
1957	0.7011
1966	0.7314
1975	0.7288
1984	0.7243
1993	0.7248
2002	0.5973
2011	0.5973
2020	0.596
2029	0.5959
2038	0.5949
2047	0.5933
2056	0.5915
2065	0.5891
2074	0.5859
2083	0.5827
2092	0.581
2101	0.5794
2110	0.5774
2119	0.5752
2128	0.5726
2137	0.5698
2146	0.567
2155	0.5623
2164	0.5591
2173	0.5559
2182	0.5531
2191	0.549
2200	0.5454
2209	0.5421
2218	0.5386
2227	0.5351
2236	0.5316
2245	0.5281
2254	0.5249
2263	0.5215
2272	0.5184
2281	0.5156
2290	0.5127
2299	0.5095
2308	0.5062
2317	0.503
2326	0.5014
2335	0.5006
2344	0.4999
2353	0.499
2362	0.498
2371	0.4971
2380	0.496
2389	0.4948
2398	0.4937
2407	0.492
2416	0.49
2425	0.4876
2434	0.4857
2443	0.4843
2452	0.483
2461	0.4822
2470	0.4818
2479	0.4806
2488	0.4794
2497	0.4776
2506	0.4752
2515	0.4726
2524	0.4701
2533	0.4676
2542	0.4658
2551	0.464
2560	0.4621
2569	0.4594
2578	0.4565
2587	0.4535
2596	0.4504
2605	0.447
2614	0.4436
2623	0.4402
2632	0.4362
2641	0.4321
2650	0.4279
2659	0.4247
2668	0.4217
2677	0.4187
2686	0.4159
2695	0.413
2704	0.4102
2713	0.4068
2722	0.4038
2731	0.4005
2740	0.3966
2749	0.3928
2758	0.3884
2767	0.3832
2776	0.3757
2785	0.3682
2794	0.3612
2803	0.3526
2812	0.3432
2821	0.3302
2830	0.3058
2839	0.2746
2848	0.2444
2857	0.2065
2866	0.3092
2875	0.289
2884	0.2763
2893	0.2707
2902	0.3046
2911	0.308
2920	0.3155
2929	0.3185
2938	0.3177
2947	0.3232
2956	0.3208
2965	0.3248
2974	0.3271
2983	0.3216
2992	0.3145
3001	0.3076
3010	0.3018
3019	0.2662
3028	0.2445
3037	0.3007
3046	0.2884
3055	0.2857
3064	0.295
3073	0.2975
3082	0.2897
3091	0.2989
3100	0.2989
3109	0.2974
3118	0.2946
3127	0.2918
3136	0.2871
3145	0.2791
3154	0.2712
3163	0.2619
3172	0.2523
3181	0.2426
3190	0.2361
3199	0.2321
3208	0.2315
3217	0.2333
3226	0.2359
3235	0.2444
3244	0.2561
3253	0.2638
3262	0.2717
3271	0.2792
3280	0.286
3289	0.2917
3298	0.2975
3307	0.3035
3316	0.3085
3325	0.3131
3334	0.3173
3343	0.3216
3352	0.3262
3361	0.33
3370	0.3318
3379	0.3323
3388	0.3329
3397	0.3334
3406	0.3332
3415	0.3326
3424	0.3324
3433	0.3326
3442	0.3328
3451	0.3332
3460	0.3337
3469	0.3339
3478	0.3338
3487	0.3337
3496	0.3332
3505	0.3325
3514	0.3316
3523	0.3304
3532	0.3292
3541	0.3274
3550	0.3256
3559	0.3237
3568	0.3228
3577	0.3221
3586	0.3214
3595	0.3203
3604	0.3192
3613	0.3179
3622	0.3168
3631	0.3154
3640	0.3142
3649	0.3129
3658	0.3116
3667	0.3109
3676	0.3102
3685	0.3095
3694	0.3085
3703	0.3076
3712	0.3065
3721	0.3055
3730	0.3045
3739	0.3034
3748	0.3025
3757	0.3014
3766	0.2999
3775	0.2985
3784	0.298
3793	0.2973
