Infrared Spectrum: HEXANANILIDE
Formula: C12 H17 N O
CAS: 621-15-8
State: SOLID (MINERAL OIL MULL)
Melting point: 94-95 C
Class: COBLENTZ
Instrument: Not specified, most likely a prism, grating, or hybrid spectrometer.
Sampling: TRANSMISSION
Resolution: 4
Origin: WYANDOTTE CHEMICALS CORP., WYANDOTTE, MICHIGAN, USA
MICROMETERS	TRANSMITTANCE
2.007	0.539
2.04677	0.544
2.08654	0.549
2.12631	0.549
2.16608	0.549
2.20585	0.549
2.24562	0.551
2.28539	0.561
2.32516	0.569
2.36493	0.578
2.40471	0.593
2.44448	0.606
2.48425	0.612
2.52402	0.616
2.56379	0.644
2.60356	0.631
2.64333	0.659
2.6831	0.657
2.72287	0.659
2.76264	0.672
2.80241	0.676
2.84218	0.681
2.88195	0.679
2.92172	0.687
2.96149	0.682
3.00126	0.568
3.04103	0.116
3.0808	0.235
3.12057	0.247
3.16035	0.34
3.20012	0.332
3.23989	0.28
3.27966	0.315
3.31943	0.244
3.3592	0.049
3.39897	0.056
3.43874	0.076
3.47851	0.063
3.51828	0.225
3.55805	0.503
3.59782	0.601
3.63759	0.644
3.67736	0.634
3.71713	0.666
3.7569	0.682
3.79667	0.677
3.83644	0.702
3.87622	0.717
3.91599	0.72
3.95576	0.734
3.99553	0.745
4.0353	0.752
4.07507	0.765
4.11484	0.762
4.15461	0.762
4.19438	0.772
4.23415	0.764
4.27392	0.747
4.31369	0.764
4.35346	0.792
4.39323	0.812
4.433	0.818
4.47277	0.82
4.51254	0.83
4.55231	0.832
4.59208	0.84
4.63186	0.847
4.67163	0.847
4.7114	0.847
4.75117	0.848
4.79094	0.867
4.83071	0.875
4.87048	0.875
4.91025	0.883
4.95002	0.883
4.98979	0.885
5.02956	0.89
5.06933	0.897
5.1091	0.908
5.14887	0.892
5.18864	0.873
5.22841	0.867
5.26818	0.915
5.30795	0.923
5.34772	0.911
5.3875	0.888
5.42727	0.878
5.46704	0.931
5.50681	0.943
5.54658	0.916
5.58635	0.872
5.62612	0.892
5.66589	0.887
5.70566	0.897
5.74543	0.885
5.7852	0.813
5.82497	0.739
5.86474	0.599
5.90451	0.382
5.94428	0.149
5.98405	0.089
6.02382	0.166
6.06359	0.308
6.10337	0.342
6.14314	0.131
6.18291	0.061
6.22268	0.139
6.26245	0.332
6.30222	0.38
6.34199	0.181
6.38176	0.096
6.42153	0.064
6.4613	0.117
6.50107	0.224
6.54084	0.289
6.58061	0.295
6.62038	0.102
6.66015	0.136
6.69992	0.187
6.73969	0.174
6.77946	0.112
6.81923	0.106
6.85901	0.122
6.89878	0.058
6.93855	0.142
6.97832	0.33
7.01809	0.37
7.05786	0.191
7.09763	0.287
7.1374	0.383
7.17717	0.338
7.21694	0.161
7.25671	0.129
7.29648	0.267
7.33625	0.466
7.37602	0.529
7.41579	0.509
7.45556	0.461
7.49533	0.22
7.5351	0.079
7.57487	0.2
7.61465	0.29
7.65442	0.147
7.69419	0.264
7.73396	0.433
7.77373	0.576
7.8135	0.624
7.85327	0.594
7.89304	0.397
7.93281	0.182
7.97258	0.302
8.01235	0.377
8.05212	0.347
8.09189	0.395
8.13166	0.566
8.17143	0.646
8.2112	0.681
8.25097	0.691
8.29074	0.684
8.33052	0.584
8.37029	0.352
8.41006	0.161
8.44983	0.355
8.4896	0.312
8.52937	0.548
8.56914	0.621
8.60891	0.647
8.64868	0.687
8.68845	0.709
8.72822	0.739
8.76799	0.747
8.80776	0.762
8.84753	0.76
8.8873	0.765
8.92707	0.747
8.96684	0.691
9.00661	0.669
9.04638	0.692
9.08616	0.735
9.12593	0.749
9.1657	0.752
9.20547	0.747
9.24524	0.697
9.28501	0.7
9.32478	0.744
9.36455	0.754
9.40432	0.715
9.44409	0.717
9.48386	0.752
9.52363	0.759
9.5634	0.775
9.60317	0.784
9.64294	0.725
9.68271	0.621
9.72248	0.737
9.76225	0.762
9.80202	0.78
9.8418	0.772
9.88157	0.757
9.92134	0.755
9.96111	0.79
10.0009	0.769
10.0406	0.75
10.0804	0.795
10.1202	0.797
10.16	0.79
10.1997	0.772
10.2395	0.734
10.2793	0.684
10.319	0.564
10.3588	0.274
10.3986	0.287
10.4384	0.373
10.4781	0.451
10.5179	0.568
10.5577	0.656
10.5974	0.705
10.6372	0.734
10.677	0.754
10.7167	0.764
10.7565	0.767
10.7963	0.774
10.8361	0.775
10.8758	0.78
10.9156	0.777
10.9554	0.775
10.9951	0.779
11.0349	0.769
11.0747	0.752
11.1145	0.611
11.1542	0.506
11.194	0.473
11.2338	0.652
11.2735	0.725
11.3133	0.774
11.3531	0.795
11.3928	0.802
11.4326	0.813
11.4724	0.818
11.5122	0.818
11.5519	0.812
11.5917	0.813
11.6315	0.812
11.6712	0.802
11.711	0.8
11.7508	0.79
11.7906	0.767
11.8303	0.717
11.8701	0.705
11.9099	0.722
11.9496	0.71
11.9894	0.637
12.0292	0.609
12.0689	0.671
12.1087	0.72
12.1485	0.742
12.1883	0.75
12.228	0.764
12.2678	0.767
12.3076	0.769
12.3473	0.759
12.3871	0.754
12.4269	0.752
12.4667	0.755
12.5064	0.759
12.5462	0.754
12.586	0.75
12.6257	0.747
12.6655	0.734
12.7053	0.719
12.745	0.692
12.7848	0.669
12.8246	0.637
12.8644	0.601
12.9041	0.563
12.9439	0.518
12.9837	0.468
13.0234	0.425
13.0632	0.378
13.103	0.29
13.1427	0.205
13.1825	0.146
13.2223	0.101
13.2621	0.088
13.3018	0.111
13.3416	0.177
13.3814	0.25
13.4211	0.315
13.4609	0.375
13.5007	0.421
13.5405	0.463
13.5802	0.496
13.62	0.521
13.6598	0.526
13.6995	0.513
13.7393	0.44
13.7791	0.317
13.8188	0.27
13.8586	0.33
13.8984	0.415
13.9382	0.493
13.9779	0.558
14.0177	0.601
14.0575	0.639
14.0972	0.657
14.137	0.679
14.1768	0.689
14.2166	0.704
14.2563	0.71
14.2961	0.712
14.3359	0.71
14.3756	0.691
14.4154	0.672
14.4552	0.637
14.4949	0.576
14.5347	0.448
14.5745	0.337
14.6143	0.327
14.654	0.406
14.6938	0.508
14.7336	0.589
14.7733	0.632
14.8131	0.659
14.8529	0.671
14.8927	0.672
14.9324	0.672
14.9722	0.671
15.012	0.649
15.0517	0.624
15.0915	0.617
15.1313	0.656
15.171	0.679
15.2108	0.691
15.2506	0.686
15.2904	0.679
15.3301	0.677
15.3699	0.661
15.4097	0.664
15.4494	0.652
15.4892	0.649
15.529	0.639
15.5688	0.632
15.6085	0.632
15.6483	0.624
15.6881	0.622
15.7278	0.611
15.7676	0.607
15.8074	0.598
15.8471	0.589
15.8869	0.584
15.9267	0.571
15.9665	0.569
