Infrared Spectrum: Benzyl carbamate
Formula: C 8 H 9 N O 2
CAS: 621-84-1
State: gas
Instrument: HP-GC/MS/IRD
Origin: NIST Mass Spectrometry Data Center
1/CM	ABSORBANCE
550	0.005546
562	0.0066035
574	0.0060395
586	0.0050995
598	0.003337
610	0.001175
622	9.4e-05
634	0.0001175
646	0.0010575
658	0.002867
670	0.006345
682	0.014805
694	0.0242285
706	0.020633
718	0.0177895
730	0.0215495
742	0.0296335
754	0.027777
766	0.0191995
778	0.013771
790	0.0101285
802	0.0087655
814	0.0097055
826	0.00987
838	0.008131
850	0.008507
862	0.0092825
874	0.008413
886	0.007238
898	0.007238
910	0.008272
922	0.008413
934	0.006909
946	0.0047235
958	0.00329
970	0.00329
982	0.0043475
994	0.006157
1006	0.010105
1018	0.0206095
1030	0.0342865
1042	0.057669
1054	0.0776205
1066	0.0521465
1078	0.0261085
1090	0.0249805
1102	0.043381
1114	0.0325475
1126	0.0119615
1138	0.004324
1150	0.0022795
1162	0.0019035
1174	0.00282
1186	0.0045355
1198	0.0086715
1210	0.0152515
1222	0.0167085
1234	0.0214555
1246	0.0262025
1258	0.0282
1270	0.0292575
1282	0.029328
1294	0.043804
1306	0.0979245
1318	0.219819
1330	0.18008
1342	0.0525225
1354	0.0231475
1366	0.02068
1378	0.0380465
1390	0.0410075
1402	0.015839
1414	0.0062745
1426	0.004324
1438	0.005593
1450	0.008742
1462	0.0088595
1474	0.005593
1486	0.004465
1498	0.006439
1510	0.003149
1522	0.0022795
1534	0.003384
1546	0.005311
1558	0.009776
1570	0.0283645
1582	0.0606065
1594	0.0439685
1606	0.0208915
1618	0.0109275
1630	0.0067445
1642	0.0042535
1654	0.003055
1666	0.00282
1678	0.0034075
1690	0.0053815
1702	0.0087655
1714	0.012972
1726	0.02021
1738	0.037365
1750	0.0756935
1762	0.131624
1774	0.154325
1786	0.11045
1798	0.051183
1810	0.021479
1822	0.012173
1834	0.0091885
1846	0.006909
1858	0.004465
1870	0.0032665
1882	0.0027965
1894	0.0022795
1906	0.0018565
1918	0.0017155
1930	0.0018565
1942	0.002209
1954	0.0024205
1966	0.001692
1978	0.0010575
1990	0.0007755
2002	0.0005405
2014	0.000329
2026	0.0002585
2038	0.000235
2050	0.0001175
2062	4.7e-05
2074	2.35e-05
2086	2.35e-05
2098	4.7e-05
2110	7.05e-05
2122	4.7e-05
2134	0.0001175
2146	0.0002115
2158	0.0003995
2170	0.0006345
2182	0.000846
2194	0.001269
2206	0.0017625
2218	0.002679
2230	0.0043005
2242	0.0060395
2254	0.0062745
2266	0.004982
2278	0.0065565
2290	0.006251
2302	0.0026555
2314	0.00094
2326	0.000611
2338	0.000423
2350	0.0003995
2362	0.000564
2374	0.00047
2386	0.0002115
2398	0.000188
2410	0.0002585
2422	0.0002585
2434	0.0002585
2446	0.000141
2458	4.7e-05
2470	0
2482	4.7e-05
2494	7.05e-05
2506	7.05e-05
2518	7.05e-05
2530	4.7e-05
2542	2.35e-05
2554	4.7e-05
2566	0.0001175
2578	9.4e-05
2590	9.4e-05
2602	0.0001645
2614	0.0002115
2626	0.000235
2638	0.000282
2650	0.0002115
2662	0.000141
2674	0.000188
2686	0.0001645
2698	0.0002115
2710	0.0001175
2722	0.0001175
2734	0.000141
2746	0.0001645
2758	0.0002115
2770	0.000282
2782	0.0003055
2794	0.0003995
2806	0.0005405
2818	0.0007755
2830	0.000987
2842	0.0012455
2854	0.0014805
2866	0.001927
2878	0.0028905
2890	0.003854
2902	0.0042065
2914	0.0039245
2926	0.004136
2938	0.005828
2950	0.008366
2962	0.0099875
2974	0.008507
2986	0.005687
2998	0.003995
3010	0.004136
3022	0.00752
3034	0.0140295
3046	0.0152045
3058	0.0122435
3070	0.017249
3082	0.0144525
3094	0.0089065
3106	0.0060395
3118	0.0033605
3130	0.001363
3142	0.0008695
3154	0.000752
3166	0.0005875
3178	0.000376
3190	0.0002115
3202	0.000188
3214	9.4e-05
3226	7.05e-05
3238	7.05e-05
3250	0.000188
3262	0.000141
3274	0.0001175
3286	0.0001175
3298	9.4e-05
3310	9.4e-05
3322	9.4e-05
3334	0.000141
3346	0.0003055
3358	0.000376
3370	0.0004935
3382	0.000564
3394	0.0007755
3406	0.0014335
3418	0.003102
3430	0.0066505
3442	0.011609
3454	0.014006
3466	0.0161445
3478	0.009541
3490	0.0041125
3502	0.0035955
3514	0.004794
3526	0.0069325
3538	0.0094705
3550	0.0121495
3562	0.012079
3574	0.013019
3586	0.014288
3598	0.0072145
3610	0.003055
3622	0.00141
3634	0.0009165
3646	0.0006815
3658	0.000705
3670	0.0004935
3682	0.0003055
3694	0.000282
3706	0.000141
3718	0.0001645
3730	9.4e-05
3742	4.7e-05
3754	2.35e-05
3766	2.35e-05
3778	0
3790	0
3802	0
3814	0
3826	0
3838	0
