Infrared Spectrum: N,N'-DIPHENYLACETAMIDINE
Formula: C14 H14 N2
CAS: 621-09-0
State: SOLID (MINERAL OIL MULL)
Melting point: 132-133 C
Class: COBLENTZ
Instrument: Not specified, most likely a prism, grating, or hybrid spectrometer.
Sampling: TRANSMISSION
Resolution: 4
Origin: WYANDOTTE CHEMICALS CORP., WYANDOTTE, MICHIGAN, USA
MICROMETERS	TRANSMITTANCE
2.02	0.36
2.06084	0.367
2.10168	0.375
2.14252	0.379
2.18335	0.379
2.22419	0.379
2.26503	0.386
2.30587	0.399
2.34671	0.408
2.38755	0.411
2.42838	0.421
2.46922	0.426
2.51006	0.428
2.5509	0.459
2.59174	0.454
2.63258	0.481
2.67341	0.486
2.71425	0.482
2.75509	0.489
2.79593	0.491
2.83677	0.493
2.87761	0.493
2.91844	0.491
2.95928	0.491
3.00012	0.435
3.04096	0.311
3.0818	0.219
3.12264	0.198
3.16348	0.25
3.20431	0.215
3.24515	0.192
3.28599	0.119
3.32683	0.086
3.36767	0.035
3.40851	0.035
3.44934	0.049
3.49018	0.052
3.53102	0.335
3.57186	0.491
3.6127	0.506
3.65354	0.513
3.69437	0.549
3.73521	0.568
3.77605	0.581
3.81689	0.595
3.85773	0.596
3.89857	0.607
3.9394	0.615
3.98024	0.641
4.02108	0.647
4.06192	0.658
4.10276	0.656
4.1436	0.646
4.18444	0.661
4.22527	0.666
4.26611	0.629
4.30695	0.663
4.34779	0.71
4.38863	0.739
4.42947	0.717
4.4703	0.727
4.51114	0.732
4.55198	0.734
4.59282	0.751
4.63366	0.761
4.6745	0.763
4.71533	0.777
4.75617	0.782
4.79701	0.787
4.83785	0.797
4.87869	0.802
4.91953	0.814
4.96036	0.816
5.0012	0.792
5.04204	0.807
5.08288	0.828
5.12372	0.818
5.16456	0.809
5.2054	0.743
5.24623	0.831
5.28707	0.862
5.32791	0.869
5.36875	0.828
5.40959	0.806
5.45043	0.86
5.49126	0.887
5.5321	0.896
5.57294	0.887
5.61378	0.887
5.65462	0.901
5.69546	0.903
5.73629	0.884
5.77713	0.916
5.81797	0.972
5.85881	0.935
5.89965	0.911
5.94049	0.95
5.98132	0.863
6.02216	0.721
6.063	0.297
6.10384	0.064
6.14468	0.307
6.18552	0.263
6.22635	0.13
6.26719	0.052
6.30803	0.263
6.34887	0.365
6.38971	0.244
6.43055	0.102
6.47139	0.073
6.51222	0.064
6.55306	0.158
6.5939	0.215
6.63474	0.139
6.67558	0.081
6.71642	0.108
6.75725	0.127
6.79809	0.096
6.83893	0.144
6.87977	0.071
6.92061	0.083
6.96145	0.207
7.00228	0.294
7.04312	0.367
7.08396	0.408
7.1248	0.414
7.16564	0.345
7.20648	0.192
7.24731	0.096
7.28815	0.212
7.32899	0.375
7.36983	0.44
7.41067	0.423
7.45151	0.224
7.49235	0.175
7.53318	0.258
7.57402	0.375
7.61486	0.375
7.6557	0.426
7.69654	0.503
7.73738	0.401
7.77821	0.494
7.81905	0.549
7.85989	0.585
7.90073	0.598
7.94157	0.554
7.98241	0.375
8.02324	0.316
8.06408	0.333
8.10492	0.401
8.14576	0.234
8.1866	0.146
8.22744	0.323
8.26827	0.418
8.30911	0.506
8.34995	0.568
8.39079	0.61
8.43163	0.639
8.47247	0.53
8.51331	0.455
8.55414	0.503
8.59498	0.63
8.63582	0.559
8.67666	0.552
8.7175	0.68
8.75834	0.714
8.79917	0.724
8.84001	0.721
8.88085	0.717
8.92169	0.693
8.96253	0.688
9.00337	0.673
9.0442	0.693
9.08504	0.7
9.12588	0.7
9.16672	0.685
9.20756	0.619
9.2484	0.414
9.28923	0.301
9.33007	0.462
9.37091	0.612
9.41175	0.676
9.45259	0.7
9.49343	0.712
9.53427	0.704
9.5751	0.678
9.61594	0.613
9.65678	0.459
9.69762	0.467
9.73846	0.513
9.7793	0.576
9.82013	0.63
9.86097	0.68
9.90181	0.712
9.94265	0.729
9.98349	0.729
10.0243	0.666
10.0652	0.76
10.106	0.785
10.1468	0.767
10.1877	0.76
10.2285	0.778
10.2694	0.79
10.3102	0.802
10.351	0.772
10.3919	0.751
10.4327	0.741
10.4735	0.782
10.5144	0.823
10.5552	0.828
10.5961	0.829
10.6369	0.835
10.6777	0.836
10.7186	0.84
10.7594	0.84
10.8003	0.852
10.8411	0.855
10.8819	0.858
10.9228	0.863
10.9636	0.875
11.0044	0.877
11.0453	0.84
11.0861	0.647
11.127	0.544
11.1678	0.63
11.2086	0.794
11.2495	0.843
11.2903	0.865
11.3312	0.884
11.372	0.887
11.4128	0.886
11.4537	0.896
11.4945	0.896
11.5353	0.889
11.5762	0.877
11.617	0.857
11.6579	0.818
11.6987	0.753
11.7395	0.726
11.7804	0.77
11.8212	0.812
11.8621	0.836
11.9029	0.816
11.9437	0.814
11.9846	0.833
12.0254	0.86
12.0662	0.831
12.1071	0.801
12.1479	0.831
12.1888	0.862
12.2296	0.87
12.2704	0.875
12.3113	0.874
12.3521	0.875
12.393	0.85
12.4338	0.807
12.4746	0.67
12.5155	0.42
12.5563	0.306
12.5971	0.357
12.638	0.513
12.6788	0.649
12.7197	0.714
12.7605	0.741
12.8013	0.753
12.8422	0.751
12.883	0.721
12.9239	0.687
12.9647	0.603
13.0055	0.411
13.0464	0.226
13.0872	0.166
13.128	0.231
13.1689	0.248
13.2097	0.341
13.2506	0.369
13.2914	0.278
13.3322	0.209
13.3731	0.209
13.4139	0.222
13.4548	0.28
13.4956	0.403
13.5364	0.496
13.5773	0.545
13.6181	0.586
13.6589	0.605
13.6998	0.622
13.7406	0.629
13.7815	0.624
13.8223	0.613
13.8631	0.607
13.904	0.619
13.9448	0.636
13.9857	0.651
14.0265	0.654
14.0673	0.644
14.1082	0.59
14.149	0.479
14.1898	0.321
14.2307	0.222
14.2715	0.176
14.3124	0.149
14.3532	0.146
14.394	0.173
14.4349	0.178
14.4757	0.168
14.5165	0.178
14.5574	0.246
14.5982	0.335
14.6391	0.418
14.6799	0.455
14.7207	0.494
14.7616	0.511
14.8024	0.534
14.8433	0.554
14.8841	0.574
14.9249	0.588
14.9658	0.578
15.0066	0.551
15.0474	0.525
15.0883	0.522
15.1291	0.534
15.17	0.556
15.2108	0.556
15.2516	0.557
15.2925	0.561
15.3333	0.568
15.3742	0.569
15.415	0.566
15.4558	0.566
15.4967	0.566
15.5375	0.574
15.5783	0.568
15.6192	0.566
15.66	0.562
15.7009	0.559
15.7417	0.552
15.7825	0.549
15.8234	0.542
15.8642	0.528
15.9051	0.518
15.9459	0.51
