Infrared Spectrum: MALEIC ACID, DICYCLOHEXYL ESTER
Formula: C16 H24 O4
CAS: 621-13-6
State: SOLID (MINERAL OIL MULL)
Melting point: 82-88 C
Class: COBLENTZ
Instrument: Not specified, most likely a prism, grating, or hybrid spectrometer.
Sampling: TRANSMISSION
Resolution: 4
Origin: WYANDOTTE CHEMICALS CORP., WYANDOTTE, MICHIGAN, USA
MICROMETERS	TRANSMITTANCE
2.013	0.933
2.05277	0.935
2.09255	0.928
2.13232	0.928
2.17209	0.92
2.21187	0.903
2.25164	0.9
2.29142	0.9
2.33119	0.908
2.37096	0.9
2.41074	0.921
2.45051	0.92
2.49028	0.921
2.53006	0.923
2.56983	0.941
2.6096	0.943
2.64938	0.951
2.68915	0.95
2.72892	0.943
2.7687	0.938
2.80847	0.936
2.84825	0.93
2.88802	0.918
2.92779	0.903
2.96757	0.872
3.00734	0.887
3.04711	0.883
3.08689	0.89
3.12666	0.877
3.16643	0.862
3.20621	0.853
3.24598	0.832
3.28575	0.73
3.32553	0.677
3.3653	0.179
3.40508	0.071
3.44485	0.147
3.48462	0.167
3.5244	0.333
3.56417	0.735
3.60394	0.827
3.64372	0.862
3.68349	0.863
3.72326	0.863
3.76304	0.852
3.80281	0.873
3.84258	0.887
3.88236	0.888
3.92213	0.908
3.96191	0.91
4.00168	0.913
4.04145	0.916
4.08123	0.915
4.121	0.918
4.16077	0.918
4.20055	0.906
4.24032	0.91
4.28009	0.923
4.31987	0.95
4.35964	0.97
4.39941	0.965
4.43919	0.95
4.47896	0.951
4.51874	0.938
4.55851	0.945
4.59828	0.951
4.63806	0.945
4.67783	0.945
4.7176	0.948
4.75738	0.953
4.79715	0.963
4.83692	0.95
4.8767	0.961
4.91647	0.958
4.95624	0.96
4.99602	0.958
5.03579	0.963
5.07557	0.958
5.11534	0.953
5.15511	0.955
5.19489	0.958
5.23466	0.956
5.27443	0.961
5.31421	0.96
5.35398	0.953
5.39375	0.955
5.43353	0.951
5.4733	0.936
5.51307	0.93
5.55285	0.916
5.59262	0.87
5.6324	0.852
5.67217	0.832
5.71194	0.725
5.75172	0.441
5.79149	0.069
5.83126	0.141
5.87104	0.445
5.91081	0.606
5.95058	0.654
5.99036	0.691
6.03013	0.704
6.06991	0.448
6.10968	0.636
6.14945	0.754
6.18923	0.797
6.229	0.853
6.26877	0.88
6.30855	0.893
6.34832	0.9
6.38809	0.903
6.42787	0.882
6.46764	0.882
6.50741	0.878
6.54719	0.875
6.58696	0.878
6.62674	0.868
6.66651	0.86
6.70628	0.812
6.74606	0.7
6.78583	0.405
6.8256	0.353
6.86538	0.292
6.90515	0.506
6.94492	0.696
6.9847	0.75
7.02447	0.75
7.06424	0.666
7.10402	0.259
7.14379	0.362
7.18357	0.632
7.22334	0.576
7.26311	0.539
7.30289	0.337
7.34266	0.611
7.38243	0.707
7.42221	0.719
7.46198	0.75
7.50175	0.727
7.54153	0.739
7.5813	0.699
7.62107	0.717
7.66085	0.71
7.70062	0.705
7.7404	0.652
7.78017	0.596
7.81994	0.466
7.85972	0.245
7.89949	0.166
7.93926	0.099
7.97904	0.094
8.01881	0.104
8.05858	0.179
8.09836	0.146
8.13813	0.081
8.1779	0.116
8.21768	0.24
8.25745	0.363
8.29723	0.475
8.337	0.524
8.37677	0.511
8.41655	0.599
8.45632	0.559
8.49609	0.34
8.53587	0.081
8.57564	0.078
8.61541	0.262
8.65519	0.28
8.69496	0.387
8.73473	0.578
8.77451	0.669
8.81428	0.719
8.85406	0.742
8.89383	0.752
8.9336	0.774
8.97338	0.792
9.01315	0.817
9.05292	0.8
9.0927	0.696
9.13247	0.697
9.17224	0.769
9.21202	0.755
9.25179	0.687
9.29157	0.779
9.33134	0.794
9.37111	0.797
9.41089	0.789
9.45066	0.744
9.49043	0.75
9.53021	0.725
9.56998	0.569
9.60975	0.342
9.64953	0.299
9.6893	0.486
9.72907	0.636
9.76885	0.561
9.80862	0.365
9.8484	0.207
9.88817	0.131
9.92794	0.294
9.96772	0.471
10.0075	0.581
10.0473	0.566
10.087	0.42
10.1268	0.491
10.1666	0.549
10.2064	0.533
10.2461	0.664
10.2859	0.719
10.3257	0.722
10.3655	0.669
10.4052	0.531
10.445	0.4
10.4848	0.496
10.5245	0.636
10.5643	0.724
10.6041	0.76
10.6439	0.765
10.6836	0.719
10.7234	0.759
10.7632	0.759
10.803	0.687
10.8427	0.705
10.8825	0.754
10.9223	0.705
10.9621	0.516
11.0018	0.589
11.0416	0.752
11.0814	0.8
11.1211	0.755
11.1609	0.727
11.2007	0.652
11.2405	0.606
11.2802	0.699
11.32	0.813
11.3598	0.812
11.3996	0.83
11.4393	0.87
11.4791	0.883
11.5189	0.883
11.5587	0.883
11.5984	0.883
11.6382	0.888
11.678	0.88
11.7178	0.862
11.7575	0.828
11.7973	0.792
11.8371	0.705
11.8768	0.596
11.9166	0.742
11.9564	0.709
11.9962	0.543
12.0359	0.495
12.0757	0.604
12.1155	0.727
12.1553	0.767
12.195	0.777
12.2348	0.729
12.2746	0.581
12.3144	0.458
12.3541	0.551
12.3939	0.687
12.4337	0.808
12.4735	0.853
12.5132	0.865
12.553	0.812
12.5928	0.739
12.6325	0.795
12.6723	0.858
12.7121	0.868
12.7519	0.892
12.7916	0.916
12.8314	0.925
12.8712	0.915
12.911	0.92
12.9507	0.925
12.9905	0.921
13.0303	0.926
13.0701	0.921
13.1098	0.916
13.1496	0.913
13.1894	0.915
13.2291	0.91
13.2689	0.918
13.3087	0.91
13.3485	0.908
13.3882	0.9
13.428	0.892
13.4678	0.85
13.5076	0.812
13.5473	0.808
13.5871	0.825
13.6269	0.847
13.6667	0.87
13.7064	0.882
13.7462	0.897
13.786	0.898
13.8258	0.908
13.8655	0.901
13.9053	0.913
13.9451	0.911
13.9848	0.921
14.0246	0.928
14.0644	0.931
14.1042	0.931
14.1439	0.946
14.1837	0.955
14.2235	0.946
14.2633	0.951
14.303	0.95
14.3428	0.958
14.3826	0.951
14.4224	0.956
14.4621	0.955
14.5019	0.951
14.5417	0.948
14.5815	0.948
14.6212	0.941
14.661	0.938
14.7008	0.94
14.7405	0.928
14.7803	0.916
14.8201	0.906
14.8599	0.88
14.8996	0.877
14.9394	0.882
14.9792	0.892
15.019	0.885
15.0587	0.853
15.0985	0.812
15.1383	0.81
15.1781	0.838
15.2178	0.865
15.2576	0.878
15.2974	0.895
15.3371	0.9
15.3769	0.901
15.4167	0.898
15.4565	0.885
15.4962	0.882
15.536	0.878
15.5758	0.878
15.6156	0.877
15.6553	0.877
15.6951	0.872
15.7349	0.868
15.7747	0.86
15.8144	0.852
15.8542	0.838
15.894	0.823
15.9338	0.81
15.9735	0.792
16.0133	0.782
