Infrared Spectrum: 1,4-Dibenzyloxybenzene
Formula: C20 H18 O2
CAS: 621-91-0
State: gas
Origin: EPA-IR VAPOR PHASE LIBRARY
1/CM	ABSORBANCE
549.8	0.002587
559.445	0.002197
569.09	0.002017
578.734	0.001847
588.379	0.001937
598.024	0.002247
607.669	0.002317
617.313	0.001567
626.958	0.001257
636.603	0.001247
646.248	0.001307
655.893	0.001247
665.537	0.002447
675.182	0.005027
684.827	0.008717
694.472	0.014667
704.116	0.011337
713.761	0.009807
723.406	0.011337
733.051	0.014707
742.695	0.016047
752.34	0.013557
761.985	0.010147
771.63	0.006187
781.275	0.004547
790.919	0.003537
800.564	0.003617
810.209	0.004657
819.854	0.008287
829.498	0.010477
839.143	0.008187
848.788	0.005757
858.433	0.004087
868.078	0.003137
877.722	0.002517
887.367	0.002557
897.012	0.003297
906.657	0.003817
916.301	0.002957
925.946	0.002527
935.591	0.002127
945.236	0.002327
954.88	0.002527
964.525	0.003517
974.17	0.005687
983.815	0.008827
993.46	0.013107
1003.1	0.016817
1012.75	0.021727
1022.39	0.029907
1032.04	0.025047
1041.68	0.021117
1051.33	0.010867
1060.97	0.006507
1070.62	0.005507
1080.26	0.005297
1089.91	0.004157
1099.55	0.005167
1109.2	0.003737
1118.84	0.002567
1128.49	0.001437
1138.13	0.001297
1147.78	0.002167
1157.42	0.003357
1167.07	0.005577
1176.71	0.014847
1186.36	0.030287
1196	0.055637
1205.64	0.057347
1215.29	0.068367
1224.93	0.059387
1234.58	0.042467
1244.22	0.027667
1253.87	0.019207
1263.51	0.014737
1273.16	0.012307
1282.8	0.010727
1292.45	0.009167
1302.09	0.007817
1311.74	0.006487
1321.38	0.004737
1331.03	0.003807
1340.67	0.003247
1350.32	0.003467
1359.96	0.005247
1369.61	0.009887
1379.25	0.012377
1388.9	0.005157
1398.54	0.002477
1408.18	0.002177
1417.83	0.002557
1427.47	0.003157
1437.12	0.004277
1446.76	0.006747
1456.41	0.009997
1466.05	0.013657
1475.7	0.009687
1485.34	0.012357
1494.99	0.039797
1504.63	0.120457
1514.28	0.031087
1523.92	0.009027
1533.57	0.005007
1543.21	0.003367
1552.86	0.002637
1562.5	0.002467
1572.15	0.002597
1581.79	0.003147
1591.44	0.003717
1601.08	0.003437
1610.73	0.003027
1620.37	0.002107
1630.01	0.001567
1639.66	0.001397
1649.3	0.001197
1658.95	0.001137
1668.59	0.001157
1678.24	0.0010416
1687.88	0.0008895
1697.53	0.0008789
1707.17	0.0009004
1716.82	0.0009693
1726.46	0.001227
1736.11	0.001187
1745.75	0.001127
1755.4	0.0009466
1765.04	0.000884
1774.69	0.0008135
1784.33	0.0010608
1793.98	0.001567
1803.62	0.001577
1813.27	0.001127
1822.91	0.0010559
1832.55	0.001117
1842.2	0.001217
1851.84	0.001497
1861.49	0.001597
1871.13	0.001637
1880.78	0.001597
1890.42	0.001227
1900.07	0.000914
1909.71	0.0009582
1919.36	0.000967
1929	0.001267
1938.65	0.001597
1948.29	0.001697
1957.94	0.001727
1967.58	0.001247
1977.23	0.0010603
1986.87	0.0010653
1996.52	0.0010672
2006.16	0.001297
2015.81	0.001247
2025.45	0.001357
2035.1	0.001337
2044.74	0.001287
2054.38	0.001157
2064.03	0.001147
2073.67	0.001137
2083.32	0.0009706
2092.96	0.0008881
2102.61	0.0007772
2112.25	0.0006557
2121.9	0.0006006
2131.54	0.000404
2141.19	0.0004727
2150.83	0.0003023
2160.48	0.0003414
2170.12	0.0003491
2179.77	0.0004916
2189.41	0.0004278
2199.06	0.0003789
2208.7	0.0004926
2218.35	0.0004104
2227.99	0.0004688
2237.64	0.000489
2247.28	0.0005567
2256.92	0.0004886
2266.57	0.0004028
2276.21	0.0006295
2285.86	0.0004828
2295.5	0.0006219
2305.15	0.0005382
2314.79	0.0007961
2324.44	0.0007005
2334.08	0.0007046
2343.73	0.0008283
2353.37	0.0007626
2363.02	0.000712
2372.66	0.000555
2382.31	0.0006495
2391.95	0.000514
2401.6	0.0006607
2411.24	0.0005837
2420.89	0.0006815
2430.53	0.0007161
2440.18	0.000833
2449.82	0.0008012
2459.47	0.0008582
2469.11	0.0006898
2478.75	0.0006521
2488.4	0.0006598
2498.04	0.0006791
2507.69	0.0005704
2517.33	0.0005885
2526.98	0.0006619
2536.62	0.0005379
2546.27	0.0004395
2555.91	0.0003941
2565.56	0.0005564
2575.2	0.000516
2584.85	0.0005208
2594.49	0.000553
2604.14	0.0004185
2613.78	0.0003757
2623.43	0.0003895
2633.07	0.0004552
2642.72	0.0004331
2652.36	0.0004501
2662.01	0.0003621
2671.65	0.0003383
2681.29	0.0004835
2690.94	0.0004518
2700.58	0.000462
2710.23	0.000506
2719.87	0.0006341
2729.52	0.0005695
2739.16	0.0005465
2748.81	0.0005501
2758.45	0.0004348
2768.1	0.0005626
2777.74	0.0005892
2787.39	0.0006467
2797.03	0.0008043
2806.68	0.0008711
2816.32	0.001327
2825.97	0.001507
2835.61	0.001787
2845.26	0.002227
2854.9	0.002937
2864.55	0.004337
2874.19	0.006057
2883.84	0.007147
2893.48	0.005967
2903.12	0.004937
2912.77	0.004707
2922.41	0.005097
2932.06	0.005737
2941.7	0.006107
2951.35	0.005957
2960.99	0.004677
2970.64	0.003237
2980.28	0.002007
2989.93	0.001607
2999.57	0.002127
3009.22	0.002877
3018.86	0.004587
3028.51	0.008717
3038.15	0.012267
3047.8	0.011957
3057.44	0.009807
3067.09	0.012597
3076.73	0.012377
3086.38	0.007597
3096.02	0.005857
3105.67	0.004507
3115.31	0.003037
3124.95	0.001687
3134.6	0.0006708
3144.24	0.0005432
3153.89	0.0003338
3163.53	0.0004299
3173.18	0.0004309
3182.82	0.0005469
3192.47	0.0003258
3202.11	0.0002788
3211.76	0.0003779
3221.4	0.0002446
3231.05	0.0003289
3240.69	0.0003032
3250.34	0.0002574
3259.98	0.00018919
3269.63	0.0003586
3279.27	0.00020628
3288.92	0.0002173
3298.56	0.0002815
3308.21	0.00016258
3317.85	0.000121407
3327.49	0.0003629
3337.14	0.0002234
3346.78	0.0001057
3356.43	2.64e-05
3366.07	0.0003277
3375.72	0.0004124
3385.36	0.0002685
3395.01	0.0003254
3404.65	0.0003317
3414.3	7.15e-05
3423.94	0.00020967
3433.59	0.0003084
3443.23	0.00017822
3452.88	0.0002451
3462.52	0.0002398
3472.17	5.18e-05
3481.81	0.000246
3491.46	0.0002754
3501.1	0.00020775
3510.75	0.0003331
3520.39	0.0003043
3530.04	0.0001057
3539.68	0.00019731
3549.32	0.0002993
3558.97	0.0003437
3568.61	0.0003399
3578.26	0.000353
3587.9	0.0002743
3597.55	0.000258
3607.19	0.0005119
3616.84	0.0003236
3626.48	0.0002543
3636.13	0.0005062
3645.77	0.000335
3655.42	0.0004496
3665.06	0.0003254
3674.71	0.0005693
3684.35	0.0004903
3694	0.0004874
3703.64	0.0003949
3713.29	0.0004144
3722.93	0.0004052
3732.58	0.0003328
3742.22	0.0003031
3751.86	0.0003066
3761.51	0.0003256
3771.15	0.00017799
3780.8	0.0003769
3790.44	0.0001369
3800.09	0.00017599
3809.73	0.0002516
3819.38	0.0004341
3829.02	0.0002789
3838.67	0.0002447
3848.31	0.0003128
3857.96	0.0002836
3867.6	0.0004206
3877.25	0.0004
3886.89	0.0003578
3896.54	0.0002918
3906.18	0.0002936
3915.83	0.0003843
3925.47	0.0003358
3935.12	0.0003879
3944.76	0.0004093
3954.41	0.00021613
3964.05	0.00019142
3973.69	0.0003719
3983.34	0.0003369
3992.98	0.0003394
