Infrared Spectrum: M-NITROPHENETOLE
Formula: C8 H9 O3 N
CAS: 621-52-3
State: SOLID (MINERAL OIL MULL)
Melting point: 31-32 C
Class: COBLENTZ
Instrument: Not specified, most likely a prism, grating, or hybrid spectrometer.
Sampling: TRANSMISSION
Resolution: 4
Origin: WYANDOTTE CHEMICALS CORP., WYANDOTTE, MICHIGAN, USA
MICROMETERS	TRANSMITTANCE
2.013	0.935
2.05281	0.925
2.09262	0.928
2.13243	0.928
2.17225	0.906
2.21206	0.905
2.25187	0.916
2.29168	0.92
2.33149	0.906
2.3713	0.9
2.41111	0.918
2.45093	0.92
2.49074	0.925
2.53055	0.926
2.57036	0.953
2.61017	0.931
2.64998	0.951
2.6898	0.946
2.72961	0.945
2.76942	0.943
2.80923	0.931
2.84904	0.923
2.88885	0.905
2.92866	0.903
2.96848	0.9
3.00829	0.896
3.0481	0.903
3.08791	0.895
3.12772	0.873
3.16753	0.86
3.20734	0.73
3.24716	0.685
3.28697	0.808
3.32678	0.447
3.36659	0.565
3.4064	0.455
3.44621	0.507
3.48603	0.59
3.52584	0.777
3.56565	0.845
3.60546	0.873
3.64527	0.888
3.68508	0.895
3.72489	0.906
3.76471	0.913
3.80452	0.91
3.84433	0.896
3.88414	0.896
3.92395	0.901
3.96376	0.915
4.00357	0.918
4.04339	0.9
4.0832	0.918
4.12301	0.915
4.16282	0.9
4.20263	0.921
4.24244	0.928
4.28226	0.928
4.32207	0.95
4.36188	0.96
4.40169	0.961
4.4415	0.946
4.48131	0.958
4.52112	0.961
4.56094	0.963
4.60075	0.963
4.64056	0.96
4.68037	0.955
4.72018	0.955
4.75999	0.96
4.7998	0.96
4.83962	0.955
4.87943	0.956
4.91924	0.938
4.95905	0.936
4.99886	0.953
5.03867	0.958
5.07849	0.945
5.1183	0.94
5.15811	0.908
5.19792	0.895
5.23773	0.903
5.27754	0.905
5.31735	0.92
5.35717	0.908
5.39698	0.921
5.43679	0.916
5.4766	0.926
5.51641	0.928
5.55622	0.92
5.59603	0.918
5.63585	0.893
5.67566	0.868
5.71547	0.87
5.75528	0.865
5.79509	0.85
5.8349	0.841
5.87472	0.835
5.91453	0.816
5.95434	0.806
5.99415	0.788
6.03396	0.768
6.07377	0.715
6.11358	0.45
6.1534	0.212
6.19321	0.462
6.23302	0.435
6.27283	0.232
6.31264	0.352
6.35245	0.434
6.39226	0.337
6.43208	0.153
6.47189	0.089
6.5117	0.031
6.55151	0.069
6.59132	0.156
6.63113	0.319
6.67095	0.259
6.71076	0.126
6.75057	0.124
6.79038	0.229
6.83019	0.367
6.87	0.337
6.90981	0.377
6.94963	0.579
6.98944	0.64
7.02925	0.647
7.06906	0.549
7.10887	0.346
7.14868	0.193
7.18849	0.344
7.22831	0.46
7.26812	0.424
7.30793	0.214
7.34774	0.019
7.38755	0.019
7.42736	0.023
7.46718	0.044
7.50699	0.104
7.5468	0.086
7.58661	0.108
7.62642	0.207
7.66623	0.282
7.70604	0.176
7.74586	0.054
7.78567	0.093
7.82548	0.312
7.86529	0.434
7.9051	0.386
7.94491	0.068
7.98472	0.019
8.02454	0.019
8.06435	0.038
8.10416	0.131
8.14397	0.299
8.18378	0.44
8.22359	0.564
8.2634	0.648
8.30322	0.722
8.34303	0.762
8.38284	0.78
8.42265	0.788
8.46246	0.782
8.50227	0.743
8.54209	0.697
8.5819	0.647
8.62171	0.58
8.66152	0.618
8.70133	0.707
8.74114	0.767
8.78095	0.777
8.82077	0.752
8.86058	0.708
8.90039	0.557
8.9402	0.259
8.98001	0.256
9.01982	0.364
9.05963	0.279
9.09945	0.193
9.13926	0.249
9.17907	0.311
9.21888	0.359
9.25869	0.464
9.2985	0.517
9.33832	0.597
9.37813	0.58
9.41794	0.494
9.45775	0.316
9.49756	0.108
9.53737	0.043
9.57718	0.043
9.617	0.091
9.65681	0.206
9.69662	0.371
9.73643	0.525
9.77624	0.617
9.81605	0.692
9.85586	0.727
9.89568	0.752
9.93549	0.76
9.9753	0.727
10.0151	0.597
10.0549	0.758
10.0947	0.801
10.1345	0.803
10.1744	0.801
10.2142	0.788
10.254	0.773
10.2938	0.755
10.3336	0.717
10.3734	0.642
10.4132	0.47
10.453	0.319
10.4928	0.384
10.5327	0.585
10.5725	0.705
10.6123	0.758
10.6521	0.758
10.6919	0.74
10.7317	0.763
10.7715	0.803
10.8113	0.815
10.8512	0.816
10.891	0.813
10.9308	0.803
10.9706	0.79
11.0104	0.758
11.0502	0.72
11.09	0.683
11.1298	0.648
11.1696	0.63
11.2095	0.627
11.2493	0.585
11.2891	0.522
11.3289	0.492
11.3687	0.405
11.4085	0.291
11.4483	0.173
11.4881	0.134
11.5279	0.204
11.5678	0.221
11.6076	0.219
11.6474	0.312
11.6872	0.489
11.727	0.623
11.7668	0.688
11.8066	0.742
11.8464	0.767
11.8863	0.773
11.9261	0.767
11.9659	0.75
12.0057	0.707
12.0455	0.643
12.0853	0.613
12.1251	0.617
12.1649	0.653
12.2047	0.668
12.2446	0.643
12.2844	0.594
12.3242	0.485
12.364	0.277
12.4038	0.089
12.4436	0.111
12.4834	0.149
12.5232	0.141
12.563	0.184
12.6029	0.194
12.6427	0.198
12.6825	0.196
12.7223	0.249
12.7621	0.412
12.8019	0.584
12.8417	0.677
12.8815	0.722
12.9214	0.747
12.9612	0.76
13.001	0.772
13.0408	0.777
13.0806	0.777
13.1204	0.777
13.1602	0.768
13.2	0.758
13.2398	0.738
13.2797	0.717
13.3195	0.677
13.3593	0.625
13.3991	0.524
13.4389	0.359
13.4787	0.178
13.5185	0.081
13.5583	0.053
13.5981	0.059
13.638	0.143
13.6778	0.322
13.7176	0.505
13.7574	0.579
13.7972	0.635
13.837	0.66
13.8768	0.693
13.9166	0.705
13.9564	0.723
13.9963	0.738
14.0361	0.76
14.0759	0.772
14.1157	0.785
14.1555	0.79
14.1953	0.798
14.2351	0.803
14.2749	0.806
14.3148	0.81
14.3546	0.81
14.3944	0.806
14.4342	0.805
14.474	0.798
14.5138	0.792
14.5536	0.775
14.5934	0.767
14.6332	0.747
14.6731	0.708
14.7129	0.662
14.7527	0.59
14.7925	0.507
14.8323	0.44
14.8721	0.387
14.9119	0.356
14.9517	0.339
14.9915	0.362
15.0314	0.445
15.0712	0.544
15.111	0.625
15.1508	0.668
15.1906	0.713
15.2304	0.742
15.2702	0.767
15.31	0.777
15.3499	0.788
15.3897	0.787
15.4295	0.793
15.4693	0.795
15.5091	0.79
15.5489	0.788
15.5887	0.792
15.6285	0.79
15.6683	0.79
15.7082	0.788
15.748	0.785
15.7878	0.78
15.8276	0.777
15.8674	0.77
15.9072	0.772
15.947	0.765
