Infrared Spectrum: 3-(3-Hydroxyphenyl)propionic acid
Formula: C 9 H 10 O 3
CAS: 621-54-5
State: gas
Origin: EPA-IR VAPOR PHASE LIBRARY
1/CM	ABSORBANCE
549.9	0.0148
559.547	0.01551
569.193	0.01417
578.84	0.01363
588.486	0.0136
598.133	0.01229
607.779	0.01067
617.426	0.0105
627.072	0.0116
636.719	0.01182
646.365	0.01001
656.012	0.00777
665.658	0.00724
675.305	0.00932
684.951	0.01442
694.598	0.01464
704.245	0.00799
713.891	0.00493
723.538	0.00447
733.184	0.00433
742.831	0.0045
752.477	0.00563
762.124	0.00835
771.77	0.01161
781.417	0.01115
791.063	0.00749
800.71	0.00489
810.356	0.00328
820.003	0.0027001
829.649	0.00316
839.296	0.00426
848.943	0.00496
858.589	0.00533
868.236	0.00576
877.882	0.00602
887.529	0.00733
897.175	0.00925
906.822	0.00719
916.468	0.00496
926.115	0.00512
935.761	0.00665
945.408	0.00717
955.054	0.00583
964.701	0.00538
974.347	0.00555
983.994	0.00572
993.64	0.00668
1003.29	0.00725
1012.93	0.00677
1022.58	0.00733
1032.23	0.00762
1041.87	0.00693
1051.52	0.00675
1061.17	0.00836
1070.81	0.01196
1080.46	0.01614
1090.11	0.01888
1099.75	0.02569
1109.4	0.04415
1119.05	0.06302
1128.69	0.05454
1138.34	0.04327
1147.99	0.04692
1157.63	0.04259
1167.28	0.03166
1176.92	0.03121
1186.57	0.03492
1196.22	0.03537
1205.86	0.02784
1215.51	0.01888
1225.16	0.01411
1234.8	0.01232
1244.45	0.01311
1254.1	0.01678
1263.74	0.02242
1273.39	0.02543
1283.04	0.02154
1292.68	0.01581
1302.33	0.01426
1311.98	0.01435
1321.62	0.013
1331.27	0.01061
1340.92	0.00928
1350.56	0.00916
1360.21	0.01028
1369.86	0.0121
1379.5	0.01327
1389.15	0.01138
1398.79	0.00796
1408.44	0.00642
1418.09	0.0068
1427.73	0.0085
1437.38	0.01138
1447.03	0.01629
1456.67	0.01737
1466.32	0.01279
1475.97	0.01127
1485.61	0.01311
1495.26	0.012
1504.91	0.00727
1514.55	0.00457
1524.2	0.00409
1533.85	0.00377
1543.49	0.00357
1553.14	0.00409
1562.79	0.00564
1572.43	0.00963
1582.08	0.01816
1591.73	0.02678
1601.37	0.02812
1611.02	0.02492
1620.67	0.01708
1630.31	0.0083
1639.96	0.00394
1649.6	0.0027072
1659.25	0.0023597
1668.9	0.0023866
1678.54	0.0026025
1688.19	0.00293
1697.84	0.00333
1707.48	0.00419
1717.13	0.00591
1726.78	0.00875
1736.42	0.01351
1746.07	0.02037
1755.72	0.03078
1765.36	0.04915
1775.01	0.06835
1784.66	0.06268
1794.3	0.03905
1803.95	0.0229
1813.6	0.01375
1823.24	0.00796
1832.89	0.00506
1842.54	0.00368
1852.18	0.0027597
1861.83	0.002256
1871.47	0.0020475
1881.12	0.0019181
1890.77	0.0019896
1900.41	0.0021271
1910.06	0.0022609
1919.71	0.0022446
1929.35	0.00189015
1939	0.001558
1948.65	0.001407
1958.29	0.001397
1967.94	0.001404
1977.59	0.001381
1987.23	0.001398
1996.88	0.001408
2006.53	0.00141
2016.17	0.001362
2025.82	0.001343
2035.47	0.001295
2045.11	0.001284
2054.76	0.001333
2064.41	0.001262
2074.05	0.001231
2083.7	0.001223
2093.35	0.001247
2102.99	0.001251
2112.64	0.001248
2122.28	0.001215
2131.93	0.001271
2141.58	0.001269
2151.22	0.001309
2160.87	0.001326
2170.52	0.001349
2180.16	0.001298
2189.81	0.001301
2199.46	0.001298
2209.1	0.001353
2218.75	0.001364
2228.4	0.001364
2238.04	0.001338
2247.69	0.001309
2257.34	0.001292
2266.98	0.00119
2276.63	0.001205
2286.28	0.001199
2295.92	0.001196
2305.57	0.001305
2315.22	0.001456
2324.86	0.001524
2334.51	0.001554
2344.16	0.001516
2353.8	0.001508
2363.45	0.001512
2373.09	0.001436
2382.74	0.00137
2392.39	0.00133
2402.03	0.001408
2411.68	0.001395
2421.33	0.001438
2430.97	0.001423
2440.62	0.001343
2450.27	0.001402
2459.91	0.00141
2469.56	0.001408
2479.21	0.001281
2488.85	0.001228
2498.5	0.001184
2508.15	0.001134
2517.79	0.0011
2527.44	0.001036
2537.09	0.001008
2546.73	0.001014
2556.38	0.001029
2566.03	0.001003
2575.67	0.000919
2585.32	0.000967
2594.96	0.000957
2604.61	0.000953
2614.26	0.000928
2623.9	0.000918
2633.55	0.000929
2643.2	0.000898
2652.84	0.000904
2662.49	0.000855
2672.14	0.000845
2681.78	0.000862
2691.43	0.0008
2701.08	0.00076
2710.72	0.00078
2720.37	0.00077
2730.02	0.0008
2739.66	0.000857
2749.31	0.00077
2758.96	0.000801
2768.6	0.00079
2778.25	0.000802
2787.9	0.00079
2797.54	0.00078
2807.19	0.00073
2816.84	0.00076
2826.48	0.0007
2836.13	0.000943
2845.77	0.001187
2855.42	0.001451
2865.07	0.0019393
2874.71	0.0024422
2884.36	0.0022807
2894.01	0.0020833
2903.65	0.0023845
2913.3	0.00321
2922.95	0.00493
2932.59	0.00681
2942.24	0.00759
2951.89	0.00649
2961.53	0.00581
2971.18	0.00503
2980.83	0.00411
2990.47	0.00335
3000.12	0.00314
3009.77	0.00385
3019.41	0.00481
3029.06	0.00569
3038.71	0.00778
3048.35	0.00782
3058	0.00614
3067.64	0.00511
3077.29	0.00436
3086.94	0.00318
3096.58	0.0021524
3106.23	0.001446
3115.88	0.001096
3125.52	0.00066
3135.17	0.00039
3144.82	0.00035
3154.46	0.00031
3164.11	0.00013
3173.76	0.00013
3183.4	6e-05
3193.05	0.00013
3202.7	0.00013
3212.34	0.0001
3221.99	0.00016
3231.64	0.00018
3241.28	0.00012
3250.93	0.00012
3260.58	0.00017
3270.22	0.00016
3279.87	0.0001
3289.52	7e-05
3299.16	0.00013
3308.81	0.00032
3318.45	0.00034
3328.1	0.00035
3337.75	0.0003
3347.39	0.00068
3357.04	0.00046
3366.69	0.00059
3376.33	0.00051
3385.98	0.00055
3395.63	0.00056
3405.27	0.00059
3414.92	0.00066
3424.57	0.00057
3434.21	0.00075
3443.86	0.00053
3453.51	0.00064
3463.15	0.00072
3472.8	0.00073
3482.45	0.000809
3492.09	0.000836
3501.74	0.001107
3511.39	0.00126
3521.03	0.00154
3530.68	0.0017801
3540.33	0.0021791
3549.97	0.0034
3559.62	0.00721
3569.26	0.02604
3578.91	0.02846
3588.56	0.00777
3598.2	0.00322
3607.85	0.0023479
3617.5	0.0023385
3627.14	0.00385
3636.79	0.00938
3646.44	0.02217
3656.08	0.02079
3665.73	0.00592
3675.38	0.002004
3685.02	0.00128
3694.67	0.00096
3704.32	0.000993
3713.96	0.000934
3723.61	0.000948
3733.26	0.000949
3742.9	0.000967
3752.55	0.00094
3762.2	0.00091
3771.84	0.00093
3781.49	0.000899
3791.13	0.000936
3800.78	0.000891
3810.43	0.001026
3820.07	0.000884
3829.72	0.000946
3839.37	0.000942
3849.01	0.000966
3858.66	0.001038
3868.31	0.001145
3877.95	0.001055
3887.6	0.00108
3897.25	0.001066
3906.89	0.000983
3916.54	0.001106
3926.19	0.001056
3935.83	0.001062
3945.48	0.00106
3955.13	0.001072
3964.77	0.001043
3974.42	0.000989
3984.07	0.000927
3993.71	0.000856
