Infrared Spectrum: 3-Hydroxy-4-methoxybenzaldehyde
Formula: C 8 H 8 O 3
CAS: 621-59-0
State: gas
Origin: EPA-IR VAPOR PHASE LIBRARY
1/CM	ABSORBANCE
549.8	0.0034151
559.445	0.0029351
569.09	0.0029151
578.734	0.0044351
588.379	0.0050751
598.024	0.0032851
607.669	0.0029651
617.313	0.0059551
626.958	0.0100351
636.603	0.0088051
646.248	0.0040851
655.893	0.0019451
665.537	0.0013551
675.182	0.0014251
684.827	0.0016351
694.472	0.0014951
704.116	0.0017151
713.761	0.0017051
723.406	0.0026151
733.051	0.0057251
742.695	0.0130051
752.34	0.0178251
761.985	0.0146351
771.63	0.0139451
781.275	0.0230351
790.919	0.0244451
800.564	0.0183851
810.209	0.0147051
819.854	0.0083551
829.498	0.0044151
839.143	0.0026151
848.788	0.0024151
858.433	0.0035751
868.078	0.0056651
877.722	0.0068951
887.367	0.0066051
897.012	0.0043151
906.657	0.0026551
916.301	0.0021051
925.946	0.0025451
935.591	0.0041351
945.236	0.0062051
954.88	0.0069651
964.525	0.0070751
974.17	0.0071151
983.815	0.0066751
993.46	0.0065051
1003.1	0.0086451
1012.75	0.0137651
1022.39	0.0204651
1032.04	0.0222051
1041.68	0.0148051
1051.33	0.0063051
1060.97	0.0041051
1070.62	0.0038051
1080.26	0.0047451
1089.91	0.0071251
1099.55	0.0170751
1109.2	0.0405751
1118.84	0.0599951
1128.49	0.0463751
1138.13	0.0257351
1147.78	0.0230151
1157.42	0.0188751
1167.07	0.0150351
1176.71	0.0140151
1186.36	0.0136351
1196	0.0170651
1205.64	0.0266051
1215.29	0.0268051
1224.93	0.0288151
1234.58	0.0466951
1244.22	0.0565951
1253.87	0.0574651
1263.51	0.0985051
1273.16	0.154835
1282.8	0.134945
1292.45	0.0733051
1302.09	0.0332751
1311.74	0.0203351
1321.38	0.0213751
1331.03	0.0259251
1340.67	0.0260151
1350.32	0.0181151
1359.96	0.0094651
1369.61	0.0060251
1379.25	0.0064751
1388.9	0.0082151
1398.54	0.0079151
1408.18	0.0055651
1417.83	0.0056451
1427.47	0.0097351
1437.12	0.0211851
1446.76	0.0326051
1456.41	0.0382151
1466.05	0.0319851
1475.7	0.0210051
1485.34	0.0202551
1494.99	0.0362551
1504.63	0.0607851
1514.28	0.0500551
1523.92	0.0227551
1533.57	0.0117051
1543.21	0.0066851
1552.86	0.0057451
1562.5	0.0079951
1572.15	0.0150051
1581.79	0.0270951
1591.44	0.0346451
1601.08	0.0357551
1610.73	0.0378451
1620.37	0.0288251
1630.01	0.0123451
1639.66	0.0061751
1649.3	0.0041151
1658.95	0.0036851
1668.59	0.0048651
1678.24	0.0071051
1687.88	0.0115751
1697.53	0.0293751
1707.17	0.0847051
1716.82	0.116615
1726.46	0.0711951
1736.11	0.0288051
1745.75	0.0108451
1755.4	0.0045851
1765.04	0.0030651
1774.69	0.0026551
1784.33	0.0024751
1793.98	0.0022651
1803.62	0.0021251
1813.27	0.0018551
1822.91	0.0017251
1832.55	0.0015951
1842.2	0.0014951
1851.84	0.0015451
1861.49	0.0017151
1871.13	0.0018351
1880.78	0.0019251
1890.42	0.0017651
1900.07	0.0014651
1909.71	0.0011051
1919.36	0.0009981
1929	0.0008657
1938.65	0.0007946
1948.29	0.0007669
1957.94	0.0008197
1967.58	0.0009497
1977.23	0.0011251
1986.87	0.0015651
1996.52	0.0017051
2006.16	0.0016251
2015.81	0.0017651
2025.45	0.0018951
2035.1	0.0018351
2044.74	0.0017351
2054.38	0.0017551
2064.03	0.0015351
2073.67	0.0011851
2083.32	0.0010551
2092.96	0.0010551
2102.61	0.0009971
2112.25	0.0008756
2121.9	0.0007212
2131.54	0.0006012
2141.19	0.0005565
2150.83	0.0005519
2160.48	0.0005554
2170.12	0.0004379
2179.77	0.0004427
2189.41	0.0005249
2199.06	0.0006311
2208.7	0.0007063
2218.35	0.0007672
2227.99	0.0008512
2237.64	0.0011051
2247.28	0.0012551
2256.92	0.0012951
2266.57	0.0012451
2276.21	0.0009393
2285.86	0.0007921
2295.5	0.0007123
2305.15	0.0005859
2314.79	0.0004632
2324.44	0.0004104
2334.08	0.0005505
2343.73	0.0005368
2353.37	0.0005932
2363.02	0.0006191
2372.66	0.0006803
2382.31	0.0007729
2391.95	0.0006691
2401.6	0.0007059
2411.24	0.0007922
2420.89	0.0007813
2430.53	0.0008232
2440.18	0.0007614
2449.82	0.0007699
2459.47	0.000795
2469.11	0.0005984
2478.75	0.0006386
2488.4	0.0006283
2498.04	0.0007665
2507.69	0.0008764
2517.33	0.0012051
2526.98	0.0014751
2536.62	0.0017551
2546.27	0.0017851
2555.91	0.0017651
2565.56	0.0016551
2575.2	0.0017051
2584.85	0.0017451
2594.49	0.0015651
2604.14	0.0014651
2613.78	0.0013451
2623.43	0.0013651
2633.07	0.0014151
2642.72	0.0015051
2652.36	0.0015151
2662.01	0.0019551
2671.65	0.0025251
2681.29	0.0035951
2690.94	0.0055351
2700.58	0.0094651
2710.23	0.0140251
2719.87	0.0151651
2729.52	0.0138151
2739.16	0.0133551
2748.81	0.0124051
2758.45	0.0093251
2768.1	0.0065051
2777.74	0.0052451
2787.39	0.0066751
2797.03	0.0126251
2806.68	0.0195751
2816.32	0.0193551
2825.97	0.0124951
2835.61	0.0082151
2845.26	0.0095451
2854.9	0.0100051
2864.55	0.0069951
2874.19	0.0040351
2883.84	0.0036951
2893.48	0.0038651
2903.12	0.0046151
2912.77	0.0057851
2922.41	0.0068051
2932.06	0.0073951
2941.7	0.0107751
2951.35	0.0144951
2960.99	0.0139351
2970.64	0.0111251
2980.28	0.0080351
2989.93	0.0060851
2999.57	0.0061551
3009.22	0.0094751
3018.86	0.0098251
3028.51	0.0059751
3038.15	0.0045451
3047.8	0.0041151
3057.44	0.0034351
3067.09	0.0040251
3076.73	0.0047551
3086.38	0.0037651
3096.02	0.0026751
3105.67	0.0019951
3115.31	0.0015251
3124.95	0.0012151
3134.6	0.0009343
3144.24	0.0006953
3153.89	0.0005839
3163.53	0.0007563
3173.18	0.0007308
3182.82	0.0006514
3192.47	0.000525
3202.11	0.0004741
3211.76	0.0006601
3221.4	0.0004333
3231.05	0.0004756
3240.69	0.0003918
3250.34	0.0003967
3259.98	0.000448
3269.63	0.0004167
3279.27	0.0002378
3288.92	0.0002734
3298.56	0.0003304
3308.21	0.0001681
3317.85	0.000263
3327.49	0.0003171
3337.14	0.0004861
3346.78	0.0004694
3356.43	0.0004519
3366.07	0.0004595
3375.72	0.0003218
3385.36	0.000646
3395.01	0.0010246
3404.65	0.0018851
3414.3	0.0021451
3423.94	0.0015551
3433.59	0.0009131
3443.23	0.0005383
3452.88	0.0004918
3462.52	0.0002416
3472.17	0.0003007
3481.81	0.0004933
3491.46	0.0002848
3501.1	0.000361
3510.75	0.0002859
3520.39	0.0004851
3530.04	0.0005746
3539.68	0.0008729
3549.32	0.0012451
3558.97	0.0024651
3568.61	0.0073551
3578.26	0.0275051
3587.9	0.0502651
3597.55	0.0341351
3607.19	0.0079751
3616.84	0.0025951
3626.48	0.0016551
3636.13	0.0017951
3645.77	0.0020651
3655.42	0.0016851
3665.06	0.0007176
3674.71	0.0003834
3684.35	0.0002179
3694	0.0004505
3703.64	0.0003331
3713.29	0.000299
3722.93	0.000202
3732.58	0.00011636
3742.22	0.000208
3751.86	2.46e-05
3761.51	5.52243e-05
3771.15	0.00014954
3780.8	0.0002025
3790.44	0.0002315
3800.09	0.000219
3809.73	0.0002022
3819.38	0.0002142
3829.02	0.0002716
3838.67	0.0002883
3848.31	0.0002532
3857.96	0.00014817
3867.6	0.0001462
3877.25	0.0002944
3886.89	0.0002972
3896.54	0.0003509
3906.18	0.0002565
3915.83	0.0002202
3925.47	0.000281
3935.12	0.0003759
3944.76	0.0002464
3954.41	0.0001069
3964.05	0.0003662
3973.69	0.0004967
3983.34	0.0005217
3992.98	0.0004435
