Infrared Spectrum: 3-Methylphenyl isothiocyanate
Formula: C 8 H 7 N S
CAS: 621-30-7
State: gas
Origin: EPA-IR VAPOR PHASE LIBRARY
1/CM	ABSORBANCE
549.8	0.015394
559.445	0.012584
569.09	0.010554
578.734	0.008384
588.379	0.008194
598.024	0.007684
607.669	0.004574
617.313	0.002714
626.958	0.002254
636.603	0.002354
646.248	0.002534
655.893	0.003334
665.537	0.007494
675.182	0.016004
684.827	0.020904
694.472	0.011344
704.116	0.003064
713.761	0.0015426
723.406	0.002284
733.051	0.002994
742.695	0.002604
752.34	0.004574
761.985	0.014734
771.63	0.029214
781.275	0.033234
790.919	0.020964
800.564	0.016264
810.209	0.030914
819.854	0.031424
829.498	0.012124
839.143	0.005944
848.788	0.005494
858.433	0.006494
868.078	0.007964
877.722	0.006064
887.367	0.005414
897.012	0.005754
906.657	0.004464
916.301	0.003174
925.946	0.001904
935.591	0.002114
945.236	0.002944
954.88	0.006424
964.525	0.011414
974.17	0.009044
983.815	0.004394
993.46	0.005514
1003.1	0.007594
1012.75	0.005684
1022.39	0.002524
1032.04	0.001754
1041.68	0.001994
1051.33	0.002684
1060.97	0.002184
1070.62	0.002294
1080.26	0.003154
1089.91	0.003294
1099.55	0.001924
1109.2	0.001884
1118.84	0.0010504
1128.49	0.0014545
1138.13	0.0009696
1147.78	0.0008198
1157.42	0.002344
1167.07	0.002044
1176.71	0.0012387
1186.36	0.0012083
1196	0.0009169
1205.64	0.0012807
1215.29	0.0009953
1224.93	0.0011097
1234.58	0.001674
1244.22	0.002524
1253.87	0.004414
1263.51	0.008394
1273.16	0.010024
1282.8	0.006264
1292.45	0.003594
1302.09	0.002854
1311.74	0.002364
1321.38	0.002194
1331.03	0.002264
1340.67	0.001884
1350.32	0.001734
1359.96	0.002044
1369.61	0.002264
1379.25	0.002684
1388.9	0.003394
1398.54	0.003834
1408.18	0.004484
1417.83	0.005604
1427.47	0.010024
1437.12	0.013514
1446.76	0.009624
1456.41	0.006894
1466.05	0.008124
1475.7	0.018864
1485.34	0.031514
1494.99	0.019514
1504.63	0.011664
1514.28	0.011354
1523.92	0.010184
1533.57	0.009374
1543.21	0.009174
1552.86	0.009484
1562.5	0.013294
1572.15	0.024924
1581.79	0.040614
1591.44	0.051524
1601.08	0.067664
1610.73	0.057494
1620.37	0.023244
1630.01	0.007584
1639.66	0.003914
1649.3	0.002754
1658.95	0.002704
1668.59	0.003114
1678.24	0.003034
1687.88	0.002584
1697.53	0.002124
1707.17	0.002064
1716.82	0.002494
1726.46	0.002914
1736.11	0.003154
1745.75	0.003354
1755.4	0.003674
1765.04	0.003594
1774.69	0.003364
1784.33	0.003734
1793.98	0.003554
1803.62	0.003304
1813.27	0.003784
1822.91	0.004354
1832.55	0.004164
1842.2	0.003594
1851.84	0.004114
1861.49	0.004544
1871.13	0.004184
1880.78	0.004484
1890.42	0.005654
1900.07	0.007644
1909.71	0.011174
1919.36	0.016744
1929	0.024514
1938.65	0.032234
1948.29	0.041884
1957.94	0.056434
1967.58	0.073804
1977.23	0.091344
1986.87	0.111874
1996.52	0.145424
2006.16	0.186984
2015.81	0.227104
2025.45	0.268184
2035.1	0.331124
2044.74	0.426374
2054.38	0.421584
2064.03	0.281874
2073.67	0.180314
2083.32	0.163914
2092.96	0.205054
2102.61	0.249774
2112.25	0.231104
2121.9	0.157434
2131.54	0.106104
2141.19	0.080544
2150.83	0.063904
2160.48	0.056694
2170.12	0.050554
2179.77	0.038174
2189.41	0.023404
2199.06	0.014754
2208.7	0.011554
2218.35	0.010724
2227.99	0.010834
2237.64	0.010054
2247.28	0.007794
2256.92	0.006594
2266.57	0.006404
2276.21	0.005904
2285.86	0.004444
2295.5	0.003054
2305.15	0.002274
2314.79	0.002194
2324.44	0.002704
2334.08	0.002934
2343.73	0.002034
2353.37	0.001521
2363.02	0.0015357
2372.66	0.001764
2382.31	0.002074
2391.95	0.002334
2401.6	0.002724
2411.24	0.003684
2420.89	0.005324
2430.53	0.006394
2440.18	0.005284
2449.82	0.003904
2459.47	0.003104
2469.11	0.002994
2478.75	0.003194
2488.4	0.003234
2498.04	0.003214
2507.69	0.003314
2517.33	0.003644
2526.98	0.004024
2536.62	0.004474
2546.27	0.004744
2555.91	0.004664
2565.56	0.004994
2575.2	0.005854
2584.85	0.006614
2594.49	0.005984
2604.14	0.003684
2613.78	0.002084
2623.43	0.001654
2633.07	0.0014375
2642.72	0.001734
2652.36	0.001614
2662.01	0.001654
2671.65	0.0016023
2681.29	0.0015748
2690.94	0.001634
2700.58	0.002044
2710.23	0.002274
2719.87	0.002634
2729.52	0.003254
2739.16	0.003634
2748.81	0.003464
2758.45	0.002664
2768.1	0.002104
2777.74	0.001984
2787.39	0.002254
2797.03	0.002314
2806.68	0.002084
2816.32	0.002494
2825.97	0.002594
2835.61	0.002984
2845.26	0.003684
2854.9	0.004744
2864.55	0.006574
2874.19	0.008344
2883.84	0.007554
2893.48	0.006614
2903.12	0.007024
2912.77	0.009034
2922.41	0.012724
2932.06	0.016014
2941.7	0.014214
2951.35	0.010234
2960.99	0.007314
2970.64	0.005584
2980.28	0.004904
2989.93	0.005784
2999.57	0.006834
3009.22	0.007194
3018.86	0.008124
3028.51	0.010344
3038.15	0.012764
3047.8	0.013814
3057.44	0.013734
3067.09	0.013774
3076.73	0.010944
3086.38	0.007264
3096.02	0.005974
3105.67	0.004264
3115.31	0.002714
3124.95	0.0013799
3134.6	0.0009234
3144.24	0.0005649
3153.89	0.0008125
3163.53	0.000418
3173.18	0.000487
3182.82	0.000231
3192.47	0.000449
3202.11	0.000163
3211.76	0.000251
3221.4	0.000317
3231.05	0.000176
3240.69	0.000316
3250.34	0.000228
3259.98	0.000175
3269.63	0.00048
3279.27	0.000502
3288.92	0.000199
3298.56	0.000345
3308.21	0.000189
3317.85	0.000156
3327.49	0.000434
3337.14	0.000242
3346.78	0.000181
3356.43	0.000225
3366.07	0.000179
3375.72	0.000286
3385.36	0.000446
3395.01	0.000444
3404.65	0.000346
3414.3	0.0005063
3423.94	0.000455
3433.59	0.0003
3443.23	0.000466
3452.88	0.00031
3462.52	0.00036
3472.17	0.00028
3481.81	0.000421
3491.46	0.000371
3501.1	0.000325
3510.75	0.000212
3520.39	0.000306
3530.04	0.000352
3539.68	0.0005114
3549.32	0.000415
3558.97	0.00033
3568.61	0.000443
3578.26	0.000499
3587.9	0.000375
3597.55	0.000379
3607.19	0.000489
3616.84	0.000242
3626.48	0.000319
3636.13	0.000277
3645.77	0.000403
3655.42	0.000333
3665.06	0.000353
3674.71	0.000484
3684.35	0.000361
3694	0.000383
3703.64	0.00048
3713.29	0.000463
3722.93	0.000429
3732.58	0.000475
3742.22	0.000443
3751.86	0.000342
3761.51	0.000467
3771.15	0.000358
3780.8	0.000386
3790.44	0.000434
3800.09	0.0005497
3809.73	0.0005733
3819.38	0.00067096
3829.02	0.000569
3838.67	0.0005778
3848.31	0.00064761
3857.96	0.0005644
3867.6	0.0007415
3877.25	0.0008169
3886.89	0.0010081
3896.54	0.0008211
3906.18	0.0011192
3915.83	0.0010959
3925.47	0.0011054
3935.12	0.00114
3944.76	0.0014912
3954.41	0.0013234
3964.05	0.0013042
3973.69	0.0012373
3983.34	0.0014853
3992.98	0.001844
