Infrared Spectrum: 2-Phenoxyacetamide
Formula: C8 H9 N O2
CAS: 621-88-5
State: gas
Origin: EPA-IR VAPOR PHASE LIBRARY
1/CM	ABSORBANCE
549.8	0.007759
559.445	0.005829
569.09	0.005069
578.734	0.005609
588.379	0.005749
598.024	0.006009
607.669	0.005549
617.313	0.005249
626.958	0.004699
636.603	0.003899
646.248	0.003979
655.893	0.004579
665.537	0.006089
675.182	0.009459
684.827	0.014749
694.472	0.014759
704.116	0.009859
713.761	0.006459
723.406	0.006619
733.051	0.011259
742.695	0.022019
752.34	0.032089
761.985	0.025129
771.63	0.016329
781.275	0.013429
790.919	0.012269
800.564	0.010769
810.209	0.011089
819.854	0.012019
829.498	0.012279
839.143	0.011689
848.788	0.011899
858.433	0.011619
868.078	0.010789
877.722	0.010229
887.367	0.009719
897.012	0.008299
906.657	0.006779
916.301	0.005979
925.946	0.005489
935.591	0.005119
945.236	0.004739
954.88	0.004539
964.525	0.004799
974.17	0.004789
983.815	0.005209
993.46	0.006159
1003.1	0.006319
1012.75	0.006999
1022.39	0.009679
1032.04	0.017059
1041.68	0.031999
1051.33	0.040109
1060.97	0.028179
1070.62	0.016089
1080.26	0.011359
1089.91	0.006889
1099.55	0.004869
1109.2	0.004149
1118.84	0.003489
1128.49	0.003269
1138.13	0.003759
1147.78	0.006069
1157.42	0.008979
1167.07	0.016139
1176.71	0.016889
1186.36	0.013419
1196	0.024019
1205.64	0.054669
1215.29	0.068649
1224.93	0.063649
1234.58	0.073959
1244.22	0.062439
1253.87	0.038199
1263.51	0.028149
1273.16	0.021509
1282.8	0.021429
1292.45	0.018919
1302.09	0.015399
1311.74	0.012669
1321.38	0.014639
1331.03	0.021029
1340.67	0.026079
1350.32	0.024899
1359.96	0.022639
1369.61	0.020959
1379.25	0.017809
1388.9	0.013349
1398.54	0.009499
1408.18	0.007219
1417.83	0.006169
1427.47	0.005919
1437.12	0.008239
1446.76	0.012279
1456.41	0.010749
1466.05	0.009499
1475.7	0.015159
1485.34	0.040289
1494.99	0.065229
1504.63	0.036659
1514.28	0.009489
1523.92	0.005909
1533.57	0.006149
1543.21	0.008999
1552.86	0.016669
1562.5	0.035129
1572.15	0.054349
1581.79	0.056729
1591.44	0.054529
1601.08	0.045289
1610.73	0.022879
1620.37	0.011239
1630.01	0.007879
1639.66	0.006439
1649.3	0.005839
1658.95	0.005949
1668.59	0.006999
1678.24	0.009679
1687.88	0.014099
1697.53	0.019109
1707.17	0.025579
1716.82	0.040329
1726.46	0.078689
1736.11	0.142739
1745.75	0.139309
1755.4	0.069179
1765.04	0.033359
1774.69	0.018969
1784.33	0.012039
1793.98	0.007969
1803.62	0.005119
1813.27	0.003599
1822.91	0.002959
1832.55	0.002729
1842.2	0.002629
1851.84	0.002439
1861.49	0.002069
1871.13	0.001619
1880.78	0.001389
1890.42	0.001329
1900.07	0.001439
1909.71	0.001779
1919.36	0.002309
1929	0.002389
1938.65	0.002379
1948.29	0.002009
1957.94	0.001519
1967.58	0.001419
1977.23	0.001429
1986.87	0.001499
1996.52	0.001559
2006.16	0.0012509
2015.81	0.001088
2025.45	0.001117
2035.1	0.001329
2044.74	0.001519
2054.38	0.001389
2064.03	0.001399
2073.67	0.001339
2083.32	0.0012077
2092.96	0.0011777
2102.61	0.0011074
2112.25	0.0009814
2121.9	0.0008374
2131.54	0.0006769
2141.19	0.000636
2150.83	0.0005328
2160.48	0.0005419
2170.12	0.0005391
2179.77	0.000536
2189.41	0.0005017
2199.06	0.0005994
2208.7	0.0005704
2218.35	0.0004498
2227.99	0.0005857
2237.64	0.0005139
2247.28	0.0006153
2256.92	0.0006352
2266.57	0.0005635
2276.21	0.0007207
2285.86	0.0007355
2295.5	0.0006169
2305.15	0.000749
2314.79	0.0007318
2324.44	0.0007042
2334.08	0.0006909
2343.73	0.0005851
2353.37	0.0006506
2363.02	0.0007206
2372.66	0.0007047
2382.31	0.000807
2391.95	0.0008194
2401.6	0.0008784
2411.24	0.000902
2420.89	0.000949
2430.53	0.001037
2440.18	0.0010192
2449.82	0.0010446
2459.47	0.0010345
2469.11	0.0010639
2478.75	0.0009201
2488.4	0.0007586
2498.04	0.0006435
2507.69	0.0006025
2517.33	0.0005904
2526.98	0.0006896
2536.62	0.0006781
2546.27	0.0006777
2555.91	0.0005996
2565.56	0.0005436
2575.2	0.0005062
2584.85	0.0004432
2594.49	0.0005091
2604.14	0.0005482
2613.78	0.0004914
2623.43	0.0004629
2633.07	0.0004516
2642.72	0.0004448
2652.36	0.00030056
2662.01	0.0004514
2671.65	0.000372
2681.29	0.00035767
2690.94	0.00035597
2700.58	0.0005351
2710.23	0.0004615
2719.87	0.00035155
2729.52	0.0004784
2739.16	0.0005489
2748.81	0.00030189
2758.45	0.0004258
2768.1	0.0005386
2777.74	0.0006755
2787.39	0.0006259
2797.03	0.0006657
2806.68	0.0005808
2816.32	0.0009132
2825.97	0.0010914
2835.61	0.001319
2845.26	0.001247
2854.9	0.001659
2864.55	0.002199
2874.19	0.002319
2883.84	0.002079
2893.48	0.001999
2903.12	0.002419
2912.77	0.003159
2922.41	0.004459
2932.06	0.005959
2941.7	0.007429
2951.35	0.007469
2960.99	0.005509
2970.64	0.003679
2980.28	0.002849
2989.93	0.001909
2999.57	0.001679
3009.22	0.002129
3018.86	0.003219
3028.51	0.004809
3038.15	0.007709
3047.8	0.009619
3057.44	0.008589
3067.09	0.009199
3076.73	0.011789
3086.38	0.010539
3096.02	0.007069
3105.67	0.005489
3115.31	0.003149
3124.95	0.001489
3134.6	0.0010177
3144.24	0.0007183
3153.89	0.0007157
3163.53	0.0005917
3173.18	0.000498
3182.82	0.0004391
3192.47	0.0006039
3202.11	0.00035558
3211.76	0.000524
3221.4	0.000433
3231.05	0.00027323
3240.69	0.0001982
3250.34	0.00032353
3259.98	0.00028699
3269.63	0.0005172
3279.27	0.000260664
3288.92	0.0004183
3298.56	0.0005657
3308.21	0.0005327
3317.85	0.0005785
3327.49	0.00027411
3337.14	0.00032054
3346.78	0.000564
3356.43	0.0006548
3366.07	0.0009219
3375.72	0.0009732
3385.36	0.001569
3395.01	0.002419
3404.65	0.004079
3414.3	0.007019
3423.94	0.010429
3433.59	0.012019
3443.23	0.009039
3452.88	0.004999
3462.52	0.003199
3472.17	0.002519
3481.81	0.002579
3491.46	0.003089
3501.1	0.004319
3510.75	0.005979
3520.39	0.008009
3530.04	0.012929
3539.68	0.017429
3549.32	0.024259
3558.97	0.022649
3568.61	0.008499
3578.26	0.002649
3587.9	0.001459
3597.55	0.0012212
3607.19	0.0007713
3616.84	0.0006259
3626.48	0.0005436
3636.13	0.0005728
3645.77	0.0006507
3655.42	0.0006793
3665.06	0.0005624
3674.71	0.00028705
3684.35	0.0005377
3694	0.0004809
3703.64	0.0003873
3713.29	0.0003862
3722.93	0.000260117
3732.58	0.0004374
3742.22	0.0002286
3751.86	0.000258186
3761.51	0.000363
3771.15	0.0003859
3780.8	0.0002389
3790.44	0.0004279
3800.09	0.0004298
3809.73	0.00028121
3819.38	0.00025685
3829.02	0.00024984
3838.67	0.00032869
3848.31	0.0002074
3857.96	0.00032214
3867.6	0.00025648
3877.25	0.0004353
3886.89	0.000258926
3896.54	0.0003328
3906.18	0.0004793
3915.83	0.0004311
3925.47	0.0004371
3935.12	0.00024999
3944.76	0.000391
3954.41	0.0004206
3964.05	0.0004486
3973.69	0.00032729
3983.34	0.0004427
3992.98	0.0004581
