Infrared Spectrum: Malonanilide
Formula: C15 H14 N2 O2
CAS: 621-10-3
State: SOLID (SPLIT MULL), FLUOROLUBE FOR 3800-1330 CM^-^1, NUJOL FOR 1330-400 CM^-^1
Melting point: 229 C
Class: COBLENTZ III
Instrument: DOW KBr FOREPRISM-GRATING
Instrument parameters: BLAZED AT 3.5, 12.0, 20.0 MICRON AND CHANGED AT 5.0, 7.5, 14.9 MICRON
Sampling: TRANSMISSION
Resolution: 2
Origin: DOW CHEMICAL COMPANY
1/CM	TRANSMITTANCE
3796	0.5901
3787	0.5915
3778	0.5932
3769	0.5948
3760	0.5964
3751	0.5979
3742	0.5994
3733	0.6006
3724	0.602
3715	0.6032
3706	0.6048
3697	0.6064
3688	0.608
3679	0.6096
3670	0.6112
3661	0.6126
3652	0.6142
3643	0.6157
3634	0.6172
3625	0.6187
3616	0.6205
3607	0.6224
3598	0.6244
3589	0.6262
3580	0.6283
3571	0.6303
3562	0.6322
3553	0.634
3544	0.6359
3535	0.6378
3526	0.6398
3517	0.6417
3508	0.6437
3499	0.6456
3490	0.6474
3481	0.6493
3472	0.6517
3463	0.6543
3454	0.6569
3445	0.6597
3436	0.6637
3427	0.6678
3418	0.6722
3409	0.6774
3400	0.6847
3391	0.6928
3382	0.698
3373	0.7008
3364	0.7015
3355	0.6981
3346	0.6851
3337	0.6549
3328	0.619
3319	0.5452
3310	0.4541
3301	0.4244
3292	0.3356
3283	0.2545
3274	0.2383
3265	0.2594
3256	0.3291
3247	0.3889
3238	0.4195
3229	0.4249
3220	0.435
3211	0.4243
3202	0.4497
3193	0.4833
3184	0.5107
3175	0.5329
3166	0.5266
3157	0.4701
3148	0.4709
3139	0.4995
3130	0.5157
3121	0.5166
3112	0.5067
3103	0.5235
3094	0.5437
3085	0.5605
3076	0.5587
3067	0.5437
3058	0.5475
3049	0.5523
3040	0.5534
3031	0.5712
3022	0.586
3013	0.5999
3004	0.6123
2995	0.6224
2986	0.6227
2977	0.6238
2968	0.6262
2959	0.6293
2950	0.6329
2941	0.6366
2932	0.6406
2923	0.6458
2914	0.6534
2905	0.6588
2896	0.6575
2887	0.6567
2878	0.6568
2869	0.6575
2860	0.6601
2851	0.663
2842	0.6657
2833	0.6685
2824	0.6712
2815	0.6741
2806	0.6768
2797	0.6796
2788	0.6822
2779	0.685
2770	0.6876
2761	0.6901
2752	0.6926
2743	0.695
2734	0.6974
2725	0.6998
2716	0.7021
2707	0.7046
2698	0.7069
2689	0.7094
2680	0.7118
2671	0.7142
2662	0.7165
2653	0.719
2644	0.721
2635	0.723
2626	0.725
2617	0.7269
2608	0.7291
2599	0.731
2590	0.7322
2581	0.7332
2572	0.7341
2563	0.735
2554	0.736
2545	0.7371
2536	0.7383
2527	0.7395
2518	0.7406
2509	0.7415
2500	0.7426
2491	0.7438
2482	0.7443
2473	0.7446
2464	0.7449
2455	0.7451
2446	0.7457
2437	0.7462
2428	0.7468
2419	0.7467
2410	0.7464
2401	0.7454
2392	0.7443
2383	0.7412
2374	0.7371
2365	0.7342
2356	0.7358
2347	0.7317
2338	0.7296
2329	0.7326
2320	0.7358
2311	0.739
2302	0.7415
2293	0.7432
2284	0.745
2275	0.7469
2266	0.7493
2257	0.7515
2248	0.7548
2239	0.758
2230	0.7615
2221	0.7654
2212	0.7669
2203	0.7682
2194	0.7695
2185	0.7711
2176	0.7728
2167	0.7746
2158	0.7764
2149	0.7781
2140	0.7799
2131	0.7818
2122	0.7838
2113	0.7857
2104	0.7874
2095	0.7892
2086	0.7911
2077	0.7937
2068	0.7965
2059	0.7997
2050	0.8037
2041	0.8067
2032	0.8532
2023	0.8133
2014	0.8157
2005	0.8182
1996	0.7765
1987	0.8256
1978	0.8292
1969	0.8296
1960	0.9864
1951	0.8428
1942	0.8221
1933	0.8312
1924	0.838
1915	0.8417
1906	0.8444
1897	0.8465
1888	0.8475
1879	0.8447
1870	0.8371
1861	0.8399
1852	0.8463
1843	0.8518
1834	0.8564
1825	0.859
1816	0.859
1807	0.8571
1798	0.8515
1789	0.8548
1780	0.8599
1771	0.863
1762	0.8637
1753	0.8614
1744	0.8565
1735	0.8517
1726	0.8484
1717	0.8491
1708	0.8274
1699	0.7603
1690	0.6474
1681	0.4919
1672	0.232
1663	0.3497
1654	0.2377
1645	0.2704
1636	0.5526
1627	0.4782
1618	0.5081
1609	0.5569
1600	0.2716
1591	0.619
1582	0.6978
1573	0.6142
1564	0.4433
1555	0.5105
1546	0.3593
1537	0.2409
1528	0.425
1519	0.5392
1510	0.6287
1501	0.2815
1492	0.5595
1483	0.5789
1474	0.6787
1465	0.7245
1456	0.701
1447	0.2294
1438	0.4979
1429	0.5812
1420	0.4305
1411	0.5787
1402	0.6381
1393	0.6615
1384	0.6791
1375	0.6825
1366	0.5845
1357	0.4105
1348	0.5238
1339	0.5562
1330	0.6145
1321	0.6329
1312	0.4884
1303	0.6192
1294	0.439
1285	0.6637
1276	0.7111
1267	0.7241
1258	0.5265
1249	0.4379
1240	0.6265
1231	0.6584
1222	0.7315
1213	0.7541
1204	0.7372
1195	0.4562
1186	0.6571
1177	0.7028
1168	0.6938
1159	0.6442
1150	0.7547
1141	0.7851
1132	0.8
1123	0.8088
1114	0.8131
1105	0.8119
1096	0.8232
1087	0.8208
1078	0.7678
1069	0.8137
1060	0.8231
1051	0.8299
1042	0.832
1033	0.7882
1024	0.7993
1015	0.8234
1006	0.7961
997	0.7921
988	0.7642
979	0.5737
970	0.6209
961	0.7524
952	0.8081
943	0.827
934	0.8374
925	0.8413
916	0.8368
907	0.6997
898	0.7998
889	0.8378
880	0.8508
871	0.8483
862	0.7528
853	0.7751
844	0.819
835	0.8146
826	0.8364
817	0.8415
808	0.8436
799	0.8416
790	0.8246
781	0.7928
772	0.751
763	0.467
754	0.1073
745	0.4556
736	0.4626
727	0.4609
718	0.6088
709	0.6925
700	0.5378
691	0.3482
682	0.7718
673	0.8046
664	0.8416
655	0.8604
646	0.8706
637	0.8794
628	0.8735
619	0.8055
610	0.85
601	0.8683
592	0.867
583	0.885
574	0.8908
565	0.8141
556	0.8806
547	0.8989
538	0.9008
529	0.8991
520	0.8662
511	0.512
502	0.7036
493	0.7875
484	0.8907
475	0.8993
466	0.8985
457	0.8939
448	0.8873
439	0.8807
430	0.874
421	0.8675
412	0.8621
403	0.8595
394	0.8592
385	0.8621
