Infrared Spectrum: DIPHENYL SUCCINATE
Formula: C16 H14 O4
CAS: 621-14-7
State: SOLID (MINERAL OIL MULL)
Melting point: 120-123 C
Class: COBLENTZ
Instrument: Not specified, most likely a prism, grating, or hybrid spectrometer.
Sampling: TRANSMISSION
Resolution: 4
Origin: WYANDOTTE CHEMICALS CORP., WYANDOTTE, MICHIGAN, USA
MICROMETERS	TRANSMITTANCE
2.013	0.618
2.05279	0.62
2.09258	0.62
2.13237	0.62
2.17217	0.625
2.21196	0.625
2.25175	0.622
2.29154	0.642
2.33133	0.647
2.37112	0.633
2.41091	0.638
2.45071	0.658
2.4905	0.665
2.53029	0.675
2.57008	0.69
2.60987	0.69
2.64966	0.702
2.68945	0.715
2.72925	0.707
2.76904	0.712
2.80883	0.713
2.84862	0.69
2.88841	0.683
2.9282	0.698
2.968	0.705
3.00779	0.705
3.04758	0.697
3.08737	0.698
3.12716	0.692
3.16695	0.665
3.20674	0.657
3.24654	0.582
3.28633	0.542
3.32612	0.512
3.36591	0.212
3.4057	0.078
3.44549	0.111
3.48528	0.186
3.52508	0.241
3.56487	0.662
3.60466	0.753
3.64445	0.793
3.68424	0.783
3.72403	0.78
3.76382	0.801
3.80362	0.81
3.84341	0.821
3.8832	0.826
3.92299	0.831
3.96278	0.856
4.00257	0.853
4.04236	0.855
4.08216	0.856
4.12195	0.855
4.16174	0.856
4.20153	0.863
4.24132	0.851
4.28111	0.838
4.3209	0.871
4.3607	0.895
4.40049	0.9
4.44028	0.883
4.48007	0.868
4.51986	0.888
4.55965	0.913
4.59945	0.916
4.63924	0.926
4.67903	0.936
4.71882	0.941
4.75861	0.941
4.7984	0.945
4.83819	0.926
4.87799	0.916
4.91778	0.921
4.95757	0.926
4.99736	0.911
5.03715	0.91
5.07694	0.91
5.11673	0.903
5.15653	0.893
5.19632	0.873
5.23611	0.928
5.2759	0.941
5.31569	0.93
5.35548	0.901
5.39527	0.906
5.43507	0.893
5.47486	0.896
5.51465	0.851
5.55444	0.828
5.59423	0.792
5.63402	0.665
5.67381	0.367
5.71361	0.053
5.7534	0.256
5.79319	0.582
5.83298	0.672
5.87277	0.74
5.91256	0.777
5.95236	0.858
5.99215	0.873
6.03194	0.883
6.07173	0.901
6.11152	0.891
6.15131	0.886
6.1911	0.843
6.2309	0.349
6.27069	0.579
6.31048	0.806
6.35027	0.868
6.39006	0.903
6.42985	0.906
6.46964	0.896
6.50944	0.896
6.54923	0.9
6.58902	0.865
6.62881	0.467
6.6686	0.161
6.70839	0.261
6.74818	0.302
6.78798	0.371
6.82777	0.284
6.86756	0.4
6.90735	0.608
6.94714	0.707
6.98693	0.555
7.02672	0.221
7.06652	0.662
7.10631	0.8
7.1461	0.768
7.18589	0.798
7.22568	0.605
7.26547	0.567
7.30526	0.66
7.34506	0.715
7.38485	0.688
7.42464	0.628
7.46443	0.572
7.50422	0.452
7.54401	0.226
7.58381	0.078
7.6236	0.061
7.66339	0.076
7.70318	0.188
7.74297	0.319
7.78276	0.648
7.82255	0.797
7.86235	0.841
7.90214	0.835
7.94193	0.795
7.98172	0.777
8.02151	0.72
8.0613	0.73
8.10109	0.675
8.14089	0.579
8.18068	0.479
8.22047	0.409
8.26026	0.284
8.30005	0.103
8.33984	0.061
8.37963	0.063
8.41943	0.124
8.45922	0.296
8.49901	0.454
8.5388	0.257
8.57859	0.081
8.61838	0.371
8.65817	0.472
8.69797	0.319
8.73776	0.113
8.77755	0.056
8.81734	0.059
8.85713	0.056
8.89692	0.058
8.93671	0.064
8.97651	0.099
9.0163	0.156
9.05609	0.227
9.09588	0.279
9.13567	0.321
9.17546	0.354
9.21526	0.396
9.25505	0.425
9.29484	0.425
9.33463	0.296
9.37442	0.445
9.41421	0.544
9.454	0.57
9.4938	0.602
9.53359	0.632
9.57338	0.648
9.61317	0.67
9.65296	0.693
9.69275	0.69
9.73254	0.327
9.77234	0.442
9.81213	0.574
9.85192	0.625
9.89171	0.605
9.9315	0.382
9.97129	0.58
10.0111	0.662
10.0509	0.687
10.0907	0.717
10.1305	0.702
10.1703	0.732
10.21	0.733
10.2498	0.7
10.2896	0.615
10.3294	0.72
10.3692	0.743
10.409	0.748
10.4488	0.748
10.4886	0.74
10.5284	0.742
10.5682	0.742
10.608	0.705
10.6477	0.677
10.6875	0.549
10.7273	0.286
10.7671	0.096
10.8069	0.214
10.8467	0.554
10.8865	0.705
10.9263	0.772
10.9661	0.81
11.0059	0.815
11.0457	0.782
11.0855	0.603
11.1252	0.299
11.165	0.314
11.2048	0.554
11.2446	0.71
11.2844	0.762
11.3242	0.79
11.364	0.801
11.4038	0.815
11.4436	0.821
11.4834	0.83
11.5232	0.851
11.563	0.855
11.6027	0.866
11.6425	0.868
11.6823	0.868
11.7221	0.871
11.7619	0.86
11.8017	0.798
11.8415	0.708
11.8813	0.785
11.9211	0.811
11.9609	0.767
12.0007	0.608
12.0404	0.474
12.0802	0.439
12.12	0.447
12.1598	0.514
12.1996	0.535
12.2394	0.585
12.2792	0.658
12.319	0.688
12.3588	0.653
12.3986	0.565
12.4384	0.415
12.4782	0.252
12.5179	0.346
12.5577	0.603
12.5975	0.747
12.6373	0.815
12.6771	0.87
12.7169	0.88
12.7567	0.883
12.7965	0.886
12.8363	0.885
12.8761	0.873
12.9159	0.86
12.9557	0.845
12.9954	0.808
13.0352	0.765
13.075	0.702
13.1148	0.557
13.1546	0.376
13.1944	0.166
13.2342	0.078
13.274	0.153
13.3138	0.336
13.3536	0.547
13.3934	0.68
13.4332	0.77
13.4729	0.841
13.5127	0.863
13.5525	0.876
13.5923	0.891
13.6321	0.901
13.6719	0.908
13.7117	0.911
13.7515	0.913
13.7913	0.911
13.8311	0.906
13.8709	0.905
13.9106	0.908
13.9504	0.925
13.9902	0.93
14.03	0.931
14.0698	0.93
14.1096	0.928
14.1494	0.923
14.1892	0.913
14.229	0.886
14.2688	0.85
14.3086	0.793
14.3484	0.683
14.3881	0.515
14.4279	0.341
14.4677	0.211
14.5075	0.163
14.5473	0.188
14.5871	0.306
14.6269	0.482
14.6667	0.63
14.7065	0.732
14.7463	0.79
14.7861	0.82
14.8259	0.826
14.8656	0.797
14.9054	0.72
14.9452	0.64
14.985	0.594
15.0248	0.597
15.0646	0.633
15.1044	0.695
15.1442	0.725
15.184	0.767
15.2238	0.81
15.2636	0.821
15.3033	0.815
15.3431	0.82
15.3829	0.818
15.4227	0.82
15.4625	0.826
15.5023	0.83
15.5421	0.826
15.5819	0.82
15.6217	0.811
15.6615	0.805
15.7013	0.8
15.7411	0.795
15.7808	0.787
15.8206	0.78
15.8604	0.765
15.9002	0.762
15.94	0.748
15.9798	0.73
