Infrared Spectrum: 1,3,5-Trimethoxybenzene
Formula: C 9 H 12 O 3
CAS: 621-23-8
State: gas
Origin: EPA-IR VAPOR PHASE LIBRARY
1/CM	ABSORBANCE
549.9	0.0008352
559.547	0.0007492
569.193	0.0007306
578.84	0.0005932
588.486	0.00068627
598.133	0.0005562
607.779	0.0005215
617.426	0.0005558
627.072	0.0005586
636.719	0.0005522
646.365	0.0005663
656.012	0.00068125
665.658	0.001154
675.305	0.001917
684.951	0.001737
694.598	0.0010128
704.245	0.0007479
713.891	0.00065755
723.538	0.000514
733.184	0.000476
742.831	0.0005399
752.477	0.000466
762.124	0.0005187
771.77	0.00051
781.417	0.00067929
791.063	0.0007924
800.71	0.0010176
810.356	0.001697
820.003	0.002597
829.649	0.002807
839.296	0.003067
848.943	0.002017
858.589	0.0011341
868.236	0.0008376
877.882	0.0007883
887.529	0.00070827
897.175	0.0007765
906.822	0.000844
916.468	0.0011164
926.115	0.001727
935.761	0.002237
945.408	0.001807
955.054	0.0010752
964.701	0.0009465
974.347	0.0009297
983.994	0.0010674
993.64	0.0012805
1003.29	0.0012479
1012.93	0.0012506
1022.58	0.0013645
1032.23	0.001747
1041.87	0.002897
1051.52	0.005287
1061.17	0.007787
1070.81	0.007297
1080.46	0.003957
1090.11	0.002197
1099.75	0.001827
1109.4	0.002037
1119.05	0.002877
1128.69	0.005407
1138.34	0.013457
1147.99	0.029427
1157.63	0.031357
1167.28	0.014187
1176.92	0.007287
1186.57	0.009617
1196.22	0.016437
1205.86	0.018967
1215.51	0.010907
1225.16	0.003957
1234.8	0.002627
1244.45	0.001987
1254.1	0.0013624
1263.74	0.0010457
1273.39	0.0008792
1283.04	0.0007519
1292.68	0.000851
1302.33	0.0010051
1311.98	0.0012579
1321.62	0.001273
1331.27	0.0012411
1340.92	0.0012084
1350.56	0.0011138
1360.21	0.0010117
1369.86	0.0010545
1379.5	0.0012877
1389.15	0.001637
1398.79	0.002237
1408.44	0.003337
1418.09	0.005477
1427.73	0.007617
1437.38	0.007417
1447.03	0.005787
1456.67	0.007177
1466.32	0.010417
1475.97	0.009837
1485.61	0.006087
1495.26	0.003227
1504.91	0.002217
1514.55	0.001927
1524.2	0.001877
1533.85	0.001897
1543.49	0.002077
1553.14	0.002387
1562.79	0.003167
1572.43	0.005327
1582.08	0.011297
1591.73	0.021617
1601.37	0.027587
1611.02	0.021107
1620.67	0.012347
1630.31	0.006467
1639.96	0.003647
1649.6	0.002627
1659.25	0.002097
1668.9	0.001837
1678.54	0.0015296
1688.19	0.0012776
1697.84	0.0011803
1707.48	0.0010497
1717.13	0.0010674
1726.78	0.0009862
1736.42	0.0009923
1746.07	0.0009435
1755.72	0.0008638
1765.36	0.0008418
1775.01	0.0007985
1784.66	0.0008169
1794.3	0.0008114
1803.95	0.0007515
1813.6	0.0007414
1823.24	0.0007495
1832.89	0.0007203
1842.54	0.0007438
1852.18	0.00068049
1861.83	0.00067533
1871.47	0.00067753
1881.12	0.00069751
1890.77	0.00070128
1900.41	0.00065725
1910.06	0.00069063
1919.71	0.0006769
1929.35	0.00064963
1939	0.000709
1948.65	0.0007387
1958.29	0.0007712
1967.94	0.0008078
1977.59	0.0007378
1987.23	0.00069392
1996.88	0.00067633
2006.53	0.00064617
2016.17	0.00066424
2025.82	0.0006732
2035.47	0.00067722
2045.11	0.00070045
2054.76	0.0007615
2064.41	0.0008294
2074.05	0.0009164
2083.7	0.0009328
2093.35	0.0008801
2102.99	0.0008956
2112.64	0.0008775
2122.28	0.0008395
2131.93	0.0008286
2141.58	0.000762
2151.22	0.0007223
2160.87	0.00070435
2170.52	0.00068211
2180.16	0.00070622
2189.81	0.0007337
2199.46	0.0007646
2209.1	0.0007531
2218.75	0.0007761
2228.4	0.0008107
2238.04	0.0008241
2247.69	0.0007862
2257.34	0.0008003
2266.98	0.0007921
2276.63	0.00075
2286.28	0.0007445
2295.92	0.00069913
2305.57	0.00067511
2315.22	0.00063851
2324.86	0.00066856
2334.51	0.00067309
2344.16	0.000729
2353.8	0.00070429
2363.45	0.0007684
2373.09	0.0007354
2382.74	0.0007389
2392.39	0.0007574
2402.03	0.0007931
2411.68	0.0007491
2421.33	0.000718
2430.97	0.00066998
2440.62	0.00066092
2450.27	0.0007182
2459.91	0.00068718
2469.56	0.0006825
2479.21	0.00075
2488.85	0.00068674
2498.5	0.00070991
2508.15	0.00069396
2517.79	0.0007474
2527.44	0.00064051
2537.09	0.00068496
2546.73	0.00069485
2556.38	0.00067621
2566.03	0.00066993
2575.67	0.00066409
2585.32	0.00068075
2594.96	0.00069793
2604.61	0.00070501
2614.26	0.0007479
2623.9	0.0007337
2633.55	0.00066292
2643.2	0.0007485
2652.84	0.00067487
2662.49	0.00071375
2672.14	0.00067603
2681.78	0.00069544
2691.43	0.0007446
2701.08	0.00063714
2710.72	0.00070215
2720.37	0.00069133
2730.02	0.0007301
2739.66	0.0007282
2749.31	0.0007342
2758.96	0.0007958
2768.6	0.0008919
2778.25	0.0008402
2787.9	0.0009573
2797.54	0.0010359
2807.19	0.0010814
2816.84	0.0012778
2826.48	0.001747
2836.13	0.003137
2845.77	0.004307
2855.42	0.003537
2865.07	0.002337
2874.71	0.002117
2884.36	0.002367
2894.01	0.002657
2903.65	0.003277
2913.3	0.003637
2922.95	0.003677
2932.59	0.004367
2942.24	0.006057
2951.89	0.006897
2961.53	0.005747
2971.18	0.003637
2980.83	0.002717
2990.47	0.003127
3000.12	0.005197
3009.77	0.005157
3019.41	0.002547
3029.06	0.0013165
3038.71	0.0010304
3048.35	0.0008459
3058	0.0008685
3067.64	0.0007551
3077.29	0.00071538
3086.94	0.0007473
3096.58	0.0008031
3106.23	0.0008307
3115.88	0.00068045
3125.52	0.0005812
3135.17	0.000292
3144.82	0.000305
3154.46	0.000401
3164.11	0.000465
3173.76	0.000372
3183.4	0.000376
3193.05	0.000331
3202.7	0.000203
3212.34	0.000285
3221.99	0.000266
3231.64	0.000181
3241.28	0.000322
3250.93	0.0001
3260.58	0.000192
3270.22	0.000244
3279.87	0.000186
3289.52	1.4e-05
3299.16	0.000201
3308.81	0.000308
3318.45	0.000138
3328.1	0.000133
3337.75	0.000182
3347.39	0.000118
3357.04	0.000202
3366.69	0.000337
3376.33	0.000209
3385.98	0.000195
3395.63	0.000129
3405.27	0.000168
3414.92	0.000217
3424.57	0.000273
3434.21	0.000176
3443.86	1.4e-05
3453.51	0.000268
3463.15	0.000171
3472.8	0.000111
3482.45	0.000223
3492.09	0.000137
3501.74	0.000149
3511.39	9.1e-05
3521.03	0.000188
3530.68	0.000252
3540.33	0.00026
3549.97	0.000186
3559.62	0.000138
3569.26	0.000263
3578.91	0.000186
3588.56	0.00021
3598.2	0.000127
3607.85	0.00021
3617.5	0.000254
3627.14	0.000296
3636.79	0.000281
3646.44	0.000294
3656.08	0.000364
3665.73	0.000319
3675.38	0.00041
3685.02	0.000374
3694.67	0.000265
3704.32	0.000234
3713.96	0.000269
3723.61	0.000325
3733.26	0.000322
3742.9	0.000319
3752.55	0.000429
3762.2	0.00037
3771.84	0.000276
3781.49	0.000373
3791.13	0.000384
3800.78	0.000395
3810.43	0.000352
3820.07	0.000409
3829.72	0.00036
3839.37	0.000405
3849.01	0.000383
3858.66	0.000421
3868.31	0.000398
3877.95	0.000398
3887.6	0.000403
3897.25	0.000336
3906.89	0.000481
3916.54	0.000386
3926.19	0.00044
3935.83	0.000518
3945.48	0.000442
3955.13	0.000454
3964.77	0.000378
3974.42	0.000455
3984.07	0.000456
3993.71	0.000505
