Infrared Spectrum: Urea, 1-benzyl-2-thio-
Formula: C8 H10 N2 S
CAS: 621-83-0
State: SOLID (SPLIT MULL), FLUOROLUBE FOR 3800-1330 CM^-^1, NUJOL FOR 1330-400 CM^-^1
Class: COBLENTZ III
Instrument: DOW KBr FOREPRISM-GRATING
Instrument parameters: BLAZED AT 3.5, 12.0, 20.0 MICRON AND CHANGED AT 5.0, 7.5, 14.9 MICRON
Sampling: TRANSMISSION
Resolution: 2
Origin: DOW CHEMICAL COMPANY
1/CM	TRANSMITTANCE
384	0.7399
393	0.7353
402	0.7285
411	0.7101
420	0.6179
429	0.4862
438	0.4479
447	0.4459
456	0.4587
465	0.6184
474	0.7632
483	0.7804
492	0.7745
501	0.7591
510	0.7185
519	0.536
528	0.7706
537	0.8275
546	0.8214
555	0.8104
564	0.8295
573	0.8476
582	0.8488
591	0.8095
600	0.6706
609	0.8294
618	0.7497
627	0.6895
636	0.5978
645	0.5433
654	0.7428
663	0.8584
672	0.8421
681	0.8295
690	0.7099
699	0.3592
708	0.6961
717	0.5969
726	0.4771
735	0.459
744	0.4233
753	0.5598
762	0.7616
771	0.5986
780	0.7778
789	0.8536
798	0.8467
807	0.8403
816	0.8329
825	0.8445
834	0.851
843	0.8395
852	0.8273
861	0.8303
870	0.8244
879	0.8159
888	0.8078
897	0.7716
906	0.8087
915	0.8092
924	0.8075
933	0.7992
942	0.7808
951	0.6569
960	0.6105
969	0.78
978	0.8055
987	0.7954
996	0.8005
1005	0.7862
1014	0.7812
1023	0.6638
1032	0.6714
1041	0.7612
1050	0.7568
1059	0.7442
1068	0.7196
1077	0.6169
1086	0.738
1095	0.7291
1104	0.6255
1113	0.5614
1122	0.5594
1131	0.6846
1140	0.7063
1149	0.695
1158	0.6931
1167	0.6945
1176	0.6657
1185	0.6327
1194	0.6229
1203	0.5961
1212	0.5361
1221	0.5137
1230	0.4791
1239	0.423
1248	0.5018
1257	0.5206
1266	0.5725
1275	0.5333
1284	0.4626
1293	0.4253
1302	0.3802
1311	0.3187
1320	0.2173
1329	0.555
1338	0.5755
1347	0.5497
1356	0.5461
1365	0.6896
1374	0.7031
1383	0.7119
1392	0.698
1401	0.6864
1410	0.7314
1419	0.716
1428	0.6764
1437	0.5712
1446	0.6455
1455	0.5126
1464	0.7205
1473	0.6696
1482	0.6397
1491	0.3305
1500	0.5505
1509	0.4873
1518	0.643
1527	0.6109
1536	0.5226
1545	0.2788
1554	0.0558
1563	0.2087
1572	0.6195
1581	0.733
1590	0.7406
1599	0.7
1608	0.6593
1617	0.5756
1626	0.1548
1635	0.5912
1644	0.8114
1653	0.8539
1662	0.8579
1671	0.8571
1680	0.8535
1689	0.848
1698	0.8425
1707	0.8372
1716	0.8273
1725	0.8267
1734	0.8265
1743	0.8269
1752	0.8277
1761	0.8299
1770	0.8315
1779	0.8327
1788	0.831
1797	0.8234
1806	0.8188
1815	0.8211
1824	0.8253
1833	0.8289
1842	0.8288
1851	0.8252
1860	0.8196
1869	0.8089
1878	0.8144
1887	0.818
1896	0.8188
1905	0.8192
1914	0.8184
1923	0.8164
1932	0.8141
1941	0.8109
1950	0.8047
1959	0.7972
1968	0.8075
1977	0.807
1986	0.8036
1995	0.7988
2004	0.7667
2013	0.7646
2022	0.7612
2031	0.7579
2040	0.7552
2049	0.7534
2058	0.7516
2067	0.7505
2076	0.7496
2085	0.7487
2094	0.7468
2103	0.7445
2112	0.7423
2121	0.7401
2130	0.7379
2139	0.7357
2148	0.7335
2157	0.7306
2166	0.7276
2175	0.7246
2184	0.7214
2193	0.7178
2202	0.7146
2211	0.7117
2220	0.7088
2229	0.7056
2238	0.7024
2247	0.6991
2256	0.696
2265	0.693
2274	0.6908
2283	0.688
2292	0.6848
2301	0.6809
2310	0.6769
2319	0.6734
2328	0.6725
2337	0.6724
2346	0.6726
2355	0.6728
2364	0.673
2373	0.6727
2382	0.6724
2391	0.6721
2400	0.6717
2409	0.6713
2418	0.671
2427	0.6706
2436	0.6702
2445	0.6698
2454	0.6682
2463	0.6666
2472	0.6649
2481	0.6632
2490	0.6608
2499	0.6583
2508	0.6559
2517	0.6534
2526	0.6505
2535	0.6476
2544	0.6437
2553	0.6395
2562	0.6354
2571	0.6311
2580	0.6302
2589	0.6303
2598	0.6309
2607	0.6307
2616	0.6299
2625	0.6283
2634	0.624
2643	0.6199
2652	0.6166
2661	0.6139
2670	0.6101
2679	0.6046
2688	0.599
2697	0.5932
2706	0.5872
2715	0.5812
2724	0.5755
2733	0.5726
2742	0.5724
2751	0.5723
2760	0.5717
2769	0.5681
2778	0.5646
2787	0.5625
2796	0.5594
2805	0.5551
2814	0.5496
2823	0.5444
2832	0.5398
2841	0.5358
2850	0.5329
2859	0.5335
2868	0.5361
2877	0.5314
2886	0.5217
2895	0.5108
2904	0.5001
2913	0.4896
2922	0.48
2931	0.4762
2940	0.4764
2949	0.4761
2958	0.4679
2967	0.4564
2976	0.4343
2985	0.4318
2994	0.4291
3003	0.4148
3012	0.3762
3021	0.368
3030	0.3795
3039	0.3809
3048	0.3777
3057	0.3704
3066	0.4017
3075	0.398
3084	0.3914
3093	0.3828
3102	0.3668
3111	0.3422
3120	0.315
3129	0.3109
3138	0.2992
3147	0.2496
3156	0.2069
3165	0.1641
3174	0.1214
3183	0.0874
3192	0.0897
3201	0.156
3210	0.228
3219	0.2259
3228	0.1827
3237	0.1426
3246	0.1386
3255	0.1709
3264	0.2093
3273	0.2203
3282	0.2279
3291	0.2352
3300	0.2661
3309	0.3282
3318	0.3569
3327	0.41
3336	0.4492
3345	0.4512
3354	0.4448
3363	0.4304
3372	0.3989
3381	0.3436
3390	0.284
3399	0.2942
3408	0.3045
3417	0.4066
3426	0.5082
3435	0.5569
3444	0.5697
3453	0.5726
3462	0.5715
3471	0.567
3480	0.5614
3489	0.5587
3498	0.5565
3507	0.5541
3516	0.5516
3525	0.5489
3534	0.5462
3543	0.5434
3552	0.5401
3561	0.5367
3570	0.5333
3579	0.5302
3588	0.5273
3597	0.5243
3606	0.5214
3615	0.5185
3624	0.5156
3633	0.5129
3642	0.5106
3651	0.5083
3660	0.506
3669	0.5037
3678	0.5014
3687	0.4991
3696	0.4965
3705	0.4937
3714	0.491
3723	0.4882
3732	0.4852
3741	0.4823
3750	0.4795
3759	0.4768
3768	0.4741
3777	0.4715
3786	0.4689
3795	0.4663
