Infrared Spectrum: M-PHENETIDINE
Formula: C8 H11 N O
CAS: 621-33-0
State: LIQUID
Boiling point: 122-124 C AT 7 mmHg
Class: COBLENTZ
Instrument: Not specified, most likely a prism, grating, or hybrid spectrometer.
Sampling: TRANSMISSION
Path length: 0.003 CM
Resolution: 4
Origin: WYANDOTTE CHEMICALS CORP., WYANDOTTE, MICHIGAN, USA
MICROMETERS	TRANSMITTANCE
2.027	0.965
2.06798	0.959
2.10895	0.957
2.14993	0.957
2.19091	0.947
2.23188	0.931
2.27286	0.945
2.31384	0.943
2.35481	0.933
2.39579	0.913
2.43677	0.909
2.47774	0.923
2.51872	0.92
2.5597	0.933
2.60067	0.933
2.64165	0.928
2.68263	0.931
2.7236	0.926
2.76458	0.913
2.80556	0.887
2.84653	0.838
2.88751	0.661
2.92849	0.331
2.96946	0.369
3.01044	0.205
3.05142	0.501
3.09239	0.671
3.13337	0.539
3.17435	0.719
3.21532	0.76
3.2563	0.661
3.29728	0.545
3.33825	0.539
3.37923	0.238
3.42021	0.304
3.46118	0.343
3.50216	0.404
3.54314	0.681
3.58411	0.743
3.62509	0.763
3.66607	0.777
3.70704	0.811
3.74802	0.828
3.78899	0.835
3.82997	0.828
3.87095	0.829
3.91192	0.853
3.9529	0.87
3.99388	0.874
4.03485	0.836
4.07583	0.816
4.11681	0.826
4.15778	0.831
4.19876	0.846
4.23974	0.846
4.28071	0.855
4.32169	0.874
4.36267	0.882
4.40364	0.875
4.44462	0.863
4.4856	0.862
4.52657	0.867
4.56755	0.865
4.60853	0.874
4.6495	0.869
4.69048	0.867
4.73146	0.855
4.77243	0.87
4.81341	0.869
4.85439	0.86
4.89536	0.852
4.93634	0.848
4.97732	0.848
5.01829	0.85
5.05927	0.85
5.10025	0.845
5.14122	0.826
5.1822	0.816
5.22318	0.77
5.26415	0.756
5.30513	0.772
5.34611	0.814
5.38708	0.833
5.42806	0.835
5.46904	0.841
5.51001	0.838
5.55099	0.818
5.59197	0.812
5.63294	0.819
5.67392	0.826
5.7149	0.828
5.75587	0.809
5.79685	0.78
5.83783	0.741
5.8788	0.715
5.91978	0.654
5.96076	0.581
6.00173	0.477
6.04271	0.35
6.08369	0.096
6.12466	0.027
6.16564	0.028
6.20662	0.022
6.24759	0.023
6.28857	0.034
6.32955	0.147
6.37052	0.343
6.4115	0.46
6.45248	0.476
6.49345	0.471
6.53443	0.414
6.57541	0.329
6.61638	0.166
6.65736	0.03
6.69834	0.081
6.73931	0.059
6.78029	0.1
6.82127	0.076
6.86224	0.205
6.90322	0.26
6.9442	0.426
6.98517	0.528
7.02615	0.569
7.06712	0.544
7.1081	0.443
7.14908	0.209
7.19005	0.164
7.23103	0.37
7.27201	0.428
7.31298	0.467
7.35396	0.45
7.39494	0.486
7.43591	0.469
7.47689	0.311
7.51787	0.127
7.55884	0.198
7.59982	0.173
7.6408	0.17
7.68177	0.108
7.72275	0.071
7.76373	0.056
7.8047	0.119
7.84568	0.251
7.88666	0.413
7.92763	0.501
7.96861	0.561
8.00959	0.579
8.05056	0.571
8.09154	0.556
8.13252	0.484
8.17349	0.353
8.21447	0.156
8.25545	0.136
8.29642	0.11
8.3374	0.037
8.37838	0.022
8.41935	0.022
8.46033	0.035
8.50131	0.119
8.54228	0.163
8.58326	0.027
8.62424	0.03
8.66521	0.032
8.70619	0.076
8.74717	0.192
8.78814	0.285
8.82912	0.362
8.8701	0.391
8.91107	0.289
8.95205	0.129
8.99303	0.168
9.034	0.341
9.07498	0.399
9.11596	0.345
9.15693	0.301
9.19791	0.335
9.23889	0.348
9.27986	0.348
9.32084	0.341
9.36182	0.333
9.40279	0.316
9.44377	0.221
9.48475	0.113
9.52572	0.049
9.5667	0.037
9.60768	0.076
9.64865	0.193
9.68963	0.328
9.73061	0.409
9.77158	0.469
9.81256	0.508
9.85354	0.573
9.89451	0.6
9.93549	0.619
9.97647	0.627
10.0174	0.59
10.0584	0.45
10.0994	0.482
10.1404	0.484
10.1813	0.374
10.2223	0.238
10.2633	0.229
10.3043	0.258
10.3453	0.345
10.3862	0.425
10.4272	0.459
10.4682	0.462
10.5092	0.493
10.5501	0.539
10.5911	0.588
10.6321	0.608
10.6731	0.629
10.714	0.632
10.755	0.636
10.796	0.632
10.837	0.625
10.878	0.624
10.9189	0.622
10.9599	0.627
11.0009	0.625
11.0419	0.607
11.0828	0.593
11.1238	0.571
11.1648	0.53
11.2058	0.498
11.2467	0.489
11.2877	0.508
11.3287	0.5
11.3697	0.479
11.4106	0.467
11.4516	0.482
11.4926	0.494
11.5336	0.486
11.5746	0.464
11.6155	0.442
11.6565	0.403
11.6975	0.343
11.7385	0.289
11.7794	0.244
11.8204	0.2
11.8614	0.17
11.9024	0.142
11.9433	0.137
11.9843	0.142
12.0253	0.188
12.0663	0.231
12.1072	0.26
12.1482	0.255
12.1892	0.231
12.2302	0.204
12.2712	0.219
12.3121	0.282
12.3531	0.348
12.3941	0.396
12.4351	0.414
12.476	0.442
12.517	0.44
12.558	0.437
12.599	0.42
12.6399	0.394
12.6809	0.358
12.7219	0.333
12.7629	0.299
12.8039	0.265
12.8448	0.215
12.8858	0.171
12.9268	0.134
12.9678	0.103
13.0087	0.095
13.0497	0.085
13.0907	0.079
13.1317	0.079
13.1726	0.081
13.2136	0.09
13.2546	0.108
13.2956	0.127
13.3365	0.171
13.3775	0.236
13.4185	0.275
13.4595	0.319
13.5005	0.358
13.5414	0.396
13.5824	0.421
13.6234	0.426
13.6644	0.425
13.7053	0.418
13.7463	0.418
13.7873	0.426
13.8283	0.437
13.8692	0.437
13.9102	0.437
13.9512	0.437
13.9922	0.431
14.0332	0.43
14.0741	0.425
14.1151	0.42
14.1561	0.411
14.1971	0.404
14.238	0.401
14.279	0.397
14.32	0.387
14.361	0.363
14.4019	0.338
14.4429	0.295
14.4839	0.241
14.5249	0.202
14.5658	0.173
14.6068	0.159
14.6478	0.17
14.6888	0.192
14.7298	0.231
14.7707	0.273
14.8117	0.314
14.8527	0.336
14.8937	0.358
14.9346	0.37
14.9756	0.382
15.0166	0.411
15.0576	0.431
15.0985	0.438
15.1395	0.426
15.1805	0.42
15.2215	0.428
15.2625	0.435
15.3034	0.445
15.3444	0.447
15.3854	0.457
15.4264	0.469
15.4673	0.472
15.5083	0.482
15.5493	0.481
15.5903	0.493
15.6312	0.5
15.6722	0.51
15.7132	0.508
15.7542	0.511
15.7951	0.518
15.8361	0.527
15.8771	0.532
15.9181	0.535
15.9591	0.542
