Infrared Spectrum: Isocyanic acid, m-tolyl ester
Formula: C8 H7 N O
CAS: 621-29-4
State: SOLUTION (10% CCl4 FOR 2-7.6, 10% CS2 FOR 7.6-15.9 MICRON)
Class: COBLENTZ III
Instrument: BAIRD (GRATING)
Instrument parameters: NaCl PRISM
Sampling: TRANSMISSION
Path length: 0.011 CM, AND 0.010 CM
Resolution: 2
Origin: DOW CHEMICAL COMPANY
1/CM	TRANSMITTANCE
4000	0.9301
3991	0.9286
3982	0.9307
3973	0.9298
3964	0.9297
3955	0.9296
3946	0.9294
3937	0.9292
3928	0.929
3919	0.9273
3910	0.9281
3901	0.9288
3892	0.9269
3883	0.9263
3874	0.9239
3865	0.9198
3856	0.9161
3847	0.9127
3838	0.9095
3829	0.9066
3820	0.9042
3811	0.9013
3802	0.8979
3793	0.8965
3784	0.8927
3775	0.8894
3766	0.8879
3757	0.8855
3748	0.8831
3739	0.8809
3730	0.8793
3721	0.8768
3712	0.8753
3703	0.875
3694	0.8727
3685	0.8713
3676	0.8713
3667	0.8722
3658	0.8741
3649	0.878
3640	0.8822
3631	0.8872
3622	0.891
3613	0.8962
3604	0.9018
3595	0.9091
3586	0.9142
3577	0.9163
3568	0.9153
3559	0.9154
3550	0.9146
3541	0.9111
3532	0.907
3523	0.9013
3514	0.8961
3505	0.8903
3496	0.8861
3487	0.8836
3478	0.8838
3469	0.8842
3460	0.8851
3451	0.8852
3442	0.8832
3433	0.8763
3424	0.8698
3415	0.8634
3406	0.8552
3397	0.8561
3388	0.8559
3379	0.8574
3370	0.8674
3361	0.8751
3352	0.8837
3343	0.8927
3334	0.9014
3325	0.9099
3316	0.9145
3307	0.9144
3298	0.9134
3289	0.9126
3280	0.9117
3271	0.9123
3262	0.9118
3253	0.9118
3244	0.9113
3235	0.912
3226	0.9104
3217	0.9085
3208	0.9018
3199	0.8949
3190	0.8838
3181	0.869
3172	0.8637
3163	0.8656
3154	0.8681
3145	0.8708
3136	0.877
3127	0.881
3118	0.8773
3109	0.8673
3100	0.8472
3091	0.8218
3082	0.79
3073	0.765
3064	0.7321
3055	0.7252
3046	0.726
3037	0.7327
3028	0.7306
3019	0.737
3010	0.7446
3001	0.7483
2992	0.7446
2983	0.7319
2974	0.71
2965	0.7086
2956	0.7076
2947	0.704
2938	0.7001
2929	0.6985
2920	0.7071
2911	0.7542
2902	0.8104
2893	0.8132
2884	0.8156
2875	0.8366
2866	0.8588
2857	0.881
2848	0.9003
2839	0.9129
2830	0.917
2821	0.9202
2812	0.9201
2803	0.9221
2794	0.9221
2785	0.9204
2776	0.92
2767	0.917
2758	0.9122
2749	0.9072
2740	0.9028
2731	0.91
2722	0.9165
2713	0.9189
2704	0.9205
2695	0.9209
2686	0.922
2677	0.9242
2668	0.9275
2659	0.9308
2650	0.9346
2641	0.935
2632	0.9331
2623	0.9313
2614	0.9301
2605	0.9294
2596	0.9291
2587	0.9296
2578	0.9304
2569	0.9313
2560	0.9322
2551	0.9331
2542	0.9331
2533	0.9327
2524	0.9273
2515	0.9161
2506	0.9129
2497	0.9119
2488	0.9085
2479	0.9014
2470	0.8902
2461	0.8759
2452	0.8412
2443	0.8081
2434	0.7724
2425	0.7368
2416	0.7035
2407	0.6543
2398	0.6125
2389	0.5612
2380	0.5244
2371	0.4847
2362	0.4293
2353	0.3764
2344	0.3209
2335	0.2538
2326	0.1938
2317	0.1178
2308	0.0345
2299	0.0286
2290	0.0249
2281	0.022
2272	0.0206
2263	0.0204
2254	0.0225
2245	0.0361
2236	0.0569
2227	0.0912
2218	0.146
2209	0.3
2200	0.3845
2191	0.4691
2182	0.5141
2173	0.5525
2164	0.5806
2155	0.6124
2146	0.6403
2137	0.6829
2128	0.739
2119	0.7742
2110	0.8016
2101	0.8248
2092	0.8429
2083	0.8607
2074	0.8764
2065	0.8922
2056	0.9096
2047	0.9184
2038	0.925
2029	0.931
2020	0.9355
2011	0.9345
2002	0.9316
1993	0.9335
1984	0.936
1975	0.9357
1966	0.9335
1957	0.914
1948	0.8894
1939	0.8897
1930	0.9186
1921	0.9323
1912	0.9295
1903	0.9295
1894	0.9316
1885	0.9278
1876	0.9151
1867	0.9012
1858	0.9074
1849	0.9193
1840	0.917
1831	0.9198
1822	0.9247
1813	0.9281
1804	0.9163
1795	0.8915
1786	0.8798
1777	0.8835
1768	0.8819
1759	0.8714
1750	0.8757
1741	0.8776
1732	0.8469
1723	0.863
1714	0.915
1705	0.9183
1696	0.9139
1687	0.9059
1678	0.9034
1669	0.9093
1660	0.9132
1651	0.8723
1642	0.7644
1633	0.6514
1624	0.4861
1615	0.1181
1606	0.1963
1597	0.1986
1588	0.3208
1579	0.5985
1570	0.6496
1561	0.6321
1552	0.7024
1543	0.7235
1534	0.625
1525	0.4694
1516	0.3391
1507	0.2967
1498	0.4536
1489	0.7148
1480	0.7098
1471	0.6702
1462	0.6717
1453	0.6855
1444	0.7083
1435	0.7457
1426	0.7695
1417	0.7954
1408	0.8299
1399	0.8688
1390	0.8231
1381	0.8126
1372	0.8828
1363	0.9074
1354	0.9081
1345	0.9081
1336	0.9103
1327	0.909
1318	0.8932
1309	0.8885
1300	0.8962
1291	0.8702
1282	0.8032
1273	0.8644
1264	0.9033
1255	0.9085
1246	0.8718
1237	0.8338
1228	0.6824
1219	0.7658
1210	0.832
1201	0.8745
1192	0.8968
1183	0.8842
1174	0.8102
1165	0.7387
1156	0.8339
1147	0.7857
1138	0.774
1129	0.7833
1120	0.7122
1111	0.6584
1102	0.5783
1093	0.6588
1084	0.5946
1075	0.8305
1066	0.8848
1057	0.8857
1048	0.8307
1039	0.8062
1030	0.8647
1021	0.8946
1012	0.8985
1003	0.8265
994	0.8309
985	0.879
976	0.9018
967	0.8976
958	0.9142
949	0.9194
940	0.9173
931	0.9142
922	0.9086
913	0.89
904	0.7894
895	0.3633
886	0.4431
877	0.7415
868	0.5798
859	0.6789
850	0.8916
841	0.9147
832	0.9148
823	0.9162
814	0.8807
805	0.8843
796	0.8245
787	0.5891
778	0.0292
769	0.5937
760	0.7988
751	0.8002
742	0.8141
733	0.7809
724	0.7191
715	0.6795
706	0.6771
697	0.6449
688	0.2809
679	0.4738
670	0.5581
661	0.5054
652	0.4259
643	0.3764
634	0.3535
