Infrared Spectrum: 3-Nitrophenylacetonitrile
Formula: C 8 H 6 N 2 O 2
CAS: 621-50-1
State: gas
Origin: EPA-IR VAPOR PHASE LIBRARY
1/CM	ABSORBANCE
549.8	0.0011108
559.445	0.0008224
569.09	0.000767
578.734	0.0010311
588.379	0.0006651
598.024	0.0006204
607.669	0.0009617
617.313	0.0011841
626.958	0.0009844
636.603	0.0005693
646.248	0.0009737
655.893	0.00189
665.537	0.00405
675.182	0.00791
684.827	0.008
694.472	0.00599
704.116	0.0058
713.761	0.00751
723.406	0.01147
733.051	0.01081
742.695	0.00542
752.34	0.0021
761.985	0.00151
771.63	0.00187
781.275	0.00294
790.919	0.00787
800.564	0.01655
810.209	0.01284
819.854	0.00431
829.498	0.00218
839.143	0.00147
848.788	0.00131
858.433	0.00144
868.078	0.00189
877.722	0.00261
887.367	0.003
897.012	0.00287
906.657	0.00258
916.301	0.00294
925.946	0.00306
935.591	0.002
945.236	0.00163
954.88	0.0011803
964.525	0.0011871
974.17	0.0007943
983.815	0.0008116
993.46	0.0007263
1003.1	0.0007632
1012.75	0.0008167
1022.39	0.0006572
1032.04	0.0007833
1041.68	0.0008894
1051.33	0.0010189
1060.97	0.000935
1070.62	0.0024
1080.26	0.00348
1089.91	0.00443
1099.55	0.00511
1109.2	0.00283
1118.84	0.0012603
1128.49	0.0010431
1138.13	0.0007706
1147.78	0.0011496
1157.42	0.0009417
1167.07	0.00164
1176.71	0.0012256
1186.36	0.0015
1196	0.0011695
1205.64	0.00139
1215.29	0.00144
1224.93	0.001202
1234.58	0.0012073
1244.22	0.00151
1253.87	0.00161
1263.51	0.00233
1273.16	0.00313
1282.8	0.00343
1292.45	0.00421
1302.09	0.00524
1311.74	0.00629
1321.38	0.00819
1331.03	0.01348
1340.67	0.02715
1350.32	0.04301
1359.96	0.04125
1369.61	0.02217
1379.25	0.00807
1388.9	0.00368
1398.54	0.00286
1408.18	0.00292
1417.83	0.00386
1427.47	0.00527
1437.12	0.00499
1446.76	0.00429
1456.41	0.00333
1466.05	0.00327
1475.7	0.00485
1485.34	0.00613
1494.99	0.00618
1504.63	0.00698
1514.28	0.00916
1523.92	0.01582
1533.57	0.03129
1543.21	0.05154
1552.86	0.06179
1562.5	0.04598
1572.15	0.02058
1581.79	0.01206
1591.44	0.00997
1601.08	0.00703
1610.73	0.00468
1620.37	0.00306
1630.01	0.00219
1639.66	0.00174
1649.3	0.00153
1658.95	0.00151
1668.59	0.00136
1678.24	0.0011577
1687.88	0.0009774
1697.53	0.0008756
1707.17	0.0009091
1716.82	0.0011887
1726.46	0.0013
1736.11	0.0012948
1745.75	0.0010955
1755.4	0.001111
1765.04	0.0010222
1774.69	0.0009961
1784.33	0.0010373
1793.98	0.001118
1803.62	0.0010229
1813.27	0.0008679
1822.91	0.0007355
1832.55	0.000795
1842.2	0.0008772
1851.84	0.0010098
1861.49	0.0010114
1871.13	0.0009908
1880.78	0.0008741
1890.42	0.0009615
1900.07	0.0012225
1909.71	0.0009767
1919.36	0.0008046
1929	0.0007477
1938.65	0.0007579
1948.29	0.00096
1957.94	0.0010548
1967.58	0.0008132
1977.23	0.0006049
1986.87	0.0005686
1996.52	0.0005743
2006.16	0.0005876
2015.81	0.0005772
2025.45	0.0005723
2035.1	0.0005651
2044.74	0.0004935
2054.38	0.0005555
2064.03	0.0005278
2073.67	0.0005775
2083.32	0.0005149
2092.96	0.0005974
2102.61	0.0005438
2112.25	0.0005377
2121.9	0.000563
2131.54	0.0005245
2141.19	0.0005911
2150.83	0.0005189
2160.48	0.0004877
2170.12	0.0004874
2179.77	0.0005465
2189.41	0.0005655
2199.06	0.0005347
2208.7	0.0005011
2218.35	0.0004905
2227.99	0.000511
2237.64	0.0006566
2247.28	0.0006894
2256.92	0.0007447
2266.57	0.0007514
2276.21	0.000659
2285.86	0.0006135
2295.5	0.0005836
2305.15	0.0006725
2314.79	0.0005642
2324.44	0.0006434
2334.08	0.0006481
2343.73	0.0007474
2353.37	0.0008076
2363.02	0.0006586
2372.66	0.0006669
2382.31	0.0007612
2391.95	0.0005825
2401.6	0.0007109
2411.24	0.0006261
2420.89	0.0006585
2430.53	0.0006711
2440.18	0.0007136
2449.82	0.0007242
2459.47	0.0005909
2469.11	0.0006903
2478.75	0.0006731
2488.4	0.000508
2498.04	0.0005262
2507.69	0.0005414
2517.33	0.0006025
2526.98	0.0006292
2536.62	0.0006438
2546.27	0.0007037
2555.91	0.0006508
2565.56	0.0007601
2575.2	0.0006881
2584.85	0.0006947
2594.49	0.0006361
2604.14	0.0005946
2613.78	0.0006569
2623.43	0.0005882
2633.07	0.0007587
2642.72	0.0007255
2652.36	0.0006371
2662.01	0.0007227
2671.65	0.0006883
2681.29	0.0006802
2690.94	0.0007979
2700.58	0.0008352
2710.23	0.0007682
2719.87	0.0007146
2729.52	0.0006463
2739.16	0.0005903
2748.81	0.000643
2758.45	0.0005308
2768.1	0.0005443
2777.74	0.0006006
2787.39	0.0006483
2797.03	0.0007097
2806.68	0.0008048
2816.32	0.0007671
2825.97	0.0006507
2835.61	0.0008656
2845.26	0.0008957
2854.9	0.0009089
2864.55	0.0011425
2874.19	0.0011543
2883.84	0.00138
2893.48	0.00155
2903.12	0.00149
2912.77	0.00132
2922.41	0.0012706
2932.06	0.00147
2941.7	0.0014
2951.35	0.0011822
2960.99	0.001052
2970.64	0.0008971
2980.28	0.0008377
2989.93	0.0006944
2999.57	0.0007705
3009.22	0.0007112
3018.86	0.0009296
3028.51	0.0011749
3038.15	0.0012669
3047.8	0.0014
3057.44	0.00132
3067.09	0.00222
3076.73	0.00299
3086.38	0.00256
3096.02	0.0018
3105.67	0.001269
3115.31	0.0007152
3124.95	0.0004383
3134.6	0.0004158
3144.24	0.0005005
3153.89	0.0004591
3163.53	0.00036473
3173.18	0.0004815
3182.82	0.0004132
3192.47	0.0005762
3202.11	0.0004948
3211.76	0.0006634
3221.4	0.0004066
3231.05	0.0005724
3240.69	0.00035211
3250.34	0.0004288
3259.98	0.0002858
3269.63	0.0005578
3279.27	0.0004265
3288.92	0.0004101
3298.56	0.0004427
3308.21	0.0004024
3317.85	0.000305919
3327.49	0.000167
3337.14	0.000184
3346.78	0.0002271
3356.43	0.00036055
3366.07	0.0004183
3375.72	0.000167
3385.36	0.0003976
3395.01	0.00036728
3404.65	0.00031465
3414.3	0.000188
3423.94	0.00035766
3433.59	0.000159
3443.23	0.0004223
3452.88	0.0002128
3462.52	0.00035518
3472.17	0.00038936
3481.81	0.0005602
3491.46	0.0004181
3501.1	0.00037614
3510.75	0.00032073
3520.39	0.0002235
3530.04	0.0002425
3539.68	0.00034362
3549.32	0.00037585
3558.97	0.0002885
3568.61	0.00036724
3578.26	0.0004437
3587.9	0.00034914
3597.55	0.00032118
3607.19	0.000176
3616.84	0.00035252
3626.48	0.0002257
3636.13	0.0004088
3645.77	0.00038582
3655.42	0.000122
3665.06	0.0002794
3674.71	0.00029897
3684.35	0.00039125
3694	0.0004636
3703.64	0.000121
3713.29	0.00035828
3722.93	0.0005362
3732.58	0.0005109
3742.22	0.00033992
3751.86	0.0002657
3761.51	0.0002172
3771.15	0.00036837
3780.8	0.00029241
3790.44	0.0002688
3800.09	0.0004262
3809.73	0.0003521
3819.38	0.0002372
3829.02	0.0002278
3838.67	0.0002355
3848.31	0.000301257
3857.96	0.0004707
3867.6	0.000263
3877.25	0.0002334
3886.89	0.0004874
3896.54	0.0004384
3906.18	0.0004413
3915.83	0.000305515
3925.47	0.00029147
3935.12	0.0002714
3944.76	0.00032769
3954.41	0.0002093
3964.05	0.000195
3973.69	0.0002352
3983.34	0.00035218
3992.98	0.00031735
