Infrared Spectrum: 2-ThiopheneEthanol, Alpha-methyl-
Formula: C7 H10 O S
CAS: 62119-81-7
State: SOLUTION (10% CCl4 FOR 3800-1330, 10% CS2 FOR 1330-460 CM^-^1) VS SOLVENT
Class: COBLENTZ III
Instrument: DOW KBr FOREPRISM-GRATING
Instrument parameters: BLAZED AT 3.5, 12.0, 20.0 MICRON AND CHANGED AT 5.0, 7.5, 14.9 MICRON
Sampling: TRANSMISSION
Path length: 0.011 CM, 0.011 CM
Resolution: 2
Origin: DOW CHEMICAL COMPANY
1/CM	TRANSMITTANCE
3796	0.8536
3787	0.8555
3778	0.8577
3769	0.8591
3760	0.8601
3751	0.8605
3742	0.8611
3733	0.8613
3724	0.8604
3715	0.8586
3706	0.8546
3697	0.8535
3688	0.8503
3679	0.8387
3670	0.8231
3661	0.8168
3652	0.8216
3643	0.8234
3634	0.8185
3625	0.7338
3616	0.658
3607	0.6615
3598	0.6518
3589	0.5752
3580	0.5516
3571	0.578
3562	0.6218
3553	0.6356
3544	0.6312
3535	0.622
3526	0.6058
3517	0.5832
3508	0.5562
3499	0.531
3490	0.5077
3481	0.4859
3472	0.4706
3463	0.4608
3454	0.4531
3445	0.4472
3436	0.4426
3427	0.44
3418	0.4391
3409	0.439
3400	0.4393
3391	0.4394
3382	0.4406
3373	0.4506
3364	0.4539
3355	0.4582
3346	0.4666
3337	0.4797
3328	0.4922
3319	0.5072
3310	0.524
3301	0.5428
3292	0.5618
3283	0.5817
3274	0.6029
3265	0.6227
3256	0.6407
3247	0.6582
3238	0.6755
3229	0.6912
3220	0.7078
3211	0.7236
3202	0.7378
3193	0.7499
3184	0.7608
3175	0.771
3166	0.7821
3157	0.7919
3148	0.8008
3139	0.8078
3130	0.8121
3121	0.8046
3112	0.7825
3103	0.8039
3094	0.8125
3085	0.7622
3076	0.7147
3067	0.8005
3058	0.8161
3049	0.8147
3040	0.8085
3031	0.8339
3022	0.8344
3013	0.8245
3004	0.775
2995	0.6279
2986	0.4262
2977	0.2481
2968	0.3442
2959	0.4919
2950	0.5464
2941	0.4103
2932	0.3437
2923	0.3999
2914	0.3975
2905	0.4118
2896	0.502
2887	0.5138
2878	0.4816
2869	0.5251
2860	0.6146
2851	0.6547
2842	0.7033
2833	0.7133
2824	0.7837
2815	0.801
2806	0.8149
2797	0.8256
2788	0.836
2779	0.846
2770	0.8521
2761	0.8553
2752	0.8575
2743	0.8585
2734	0.8583
2725	0.8578
2716	0.8595
2707	0.8625
2698	0.8657
2689	0.8658
2680	0.8642
2671	0.8625
2662	0.8644
2653	0.8691
2644	0.8732
2635	0.8752
2626	0.8775
2617	0.8803
2608	0.883
2599	0.8858
2590	0.8874
2581	0.8868
2572	0.8867
2563	0.8873
2554	0.8888
2545	0.8917
2536	0.8947
2527	0.897
2518	0.8968
2509	0.8968
2500	0.8968
2491	0.8977
2482	0.9002
2473	0.9004
2464	0.9001
2455	0.9017
2446	0.9018
2437	0.9024
2428	0.9034
2419	0.9044
2410	0.9053
2401	0.906
2392	0.9059
2383	0.9054
2374	0.9033
2365	0.8985
2356	0.9004
2347	0.904
2338	0.9071
2329	0.9102
2320	0.9134
2311	0.9148
2302	0.9131
2293	0.9093
2284	0.9108
2275	0.9138
2266	0.9166
2257	0.9185
2248	0.9183
2239	0.9175
2230	0.9183
2221	0.9183
2212	0.9183
2203	0.9181
2194	0.917
2185	0.9158
2176	0.9134
2167	0.9097
2158	0.9148
2149	0.9175
2140	0.9164
2131	0.9161
2122	0.9161
2113	0.9137
2104	0.9132
2095	0.9139
2086	0.9153
2077	0.9168
2068	0.918
2059	0.9187
2050	0.9189
2041	0.9187
2032	0.9189
2023	0.9182
2014	0.9165
2005	0.9157
1996	0.903
1987	0.8771
1978	0.8777
1969	0.8758
1960	0.8733
1951	0.8787
1942	0.8784
1933	0.8748
1924	0.8761
1915	0.8782
1906	0.8738
1897	0.874
1888	0.8748
1879	0.8758
1870	0.876
1861	0.8758
1852	0.8761
1843	0.8761
1834	0.8754
1825	0.8739
1816	0.8725
1807	0.869
1798	0.8601
1789	0.8218
1780	0.8178
1771	0.8456
1762	0.8612
1753	0.8608
1744	0.85
1735	0.8384
1726	0.8333
1717	0.8225
1708	0.7975
1699	0.8031
1690	0.7751
1681	0.7996
1672	0.8084
1663	0.8145
1654	0.8254
1645	0.8362
1636	0.8303
1627	0.8321
1618	0.8475
1609	0.867
1600	0.8608
1591	0.8467
1582	0.8371
1573	0.8686
1564	0.8844
1555	0.8949
1546	0.8865
1537	0.788
1528	0.839
1519	0.8501
1510	0.8264
1501	0.8344
1492	0.832
1483	0.8138
1474	0.7762
1465	0.6382
1456	0.5127
1447	0.5112
1438	0.4768
1429	0.5233
1420	0.6337
1411	0.5907
1402	0.4743
1393	0.4847
1384	0.46
1375	0.4443
1366	0.5443
1357	0.5899
1348	0.554
1339	0.6868
1330	0.6612
1321	0.654
1312	0.6334
1303	0.6203
1294	0.6147
1285	0.5686
1276	0.5845
1267	0.5204
1258	0.3768
1249	0.3766
1240	0.526
1231	0.6525
1222	0.7111
1213	0.6645
1204	0.6458
1195	0.743
1186	0.7868
1177	0.7942
1168	0.7789
1159	0.6379
1150	0.4571
1141	0.4849
1132	0.4716
1123	0.3466
1114	0.3947
1105	0.4101
1096	0.4446
1087	0.4243
1078	0.3357
1069	0.4068
1060	0.4158
1051	0.3241
1042	0.3766
1033	0.5603
1024	0.6085
1015	0.7407
1006	0.8067
997	0.8395
988	0.8464
979	0.8552
970	0.8599
961	0.8496
952	0.7897
943	0.5333
934	0.3345
925	0.7018
916	0.7945
907	0.8309
898	0.83
889	0.8018
880	0.8331
871	0.846
862	0.8075
853	0.2163
844	0.6129
835	0.6855
826	0.6297
817	0.3015
808	0.5462
799	0.7904
790	0.8371
781	0.8351
772	0.8139
763	0.8125
754	0.7985
745	0.7521
736	0.7631
727	0.698
718	0.5928
709	0.3629
700	0.0791
691	0.0085
682	0.4702
673	0.6656
664	0.7183
655	0.7248
646	0.7295
637	0.7345
628	0.7271
619	0.6997
610	0.7138
601	0.7212
592	0.7184
583	0.7162
574	0.7082
565	0.6958
556	0.7064
547	0.7057
538	0.7053
529	0.7046
520	0.7001
511	0.5778
502	0.4958
493	0.6153
484	0.6526
475	0.6576
466	0.6606
