Infrared Spectrum: 2-Chloro-N,N-dimethyl-4-nitroaniline
Formula: C 8 H 9 Cl N 2 O 2
CAS: 6213-19-0
State: gas
Origin: EPA-IR VAPOR PHASE LIBRARY
1/CM	ABSORBANCE
551.7	0.003344
563.274	0.002874
574.848	0.001674
586.421	0.001434
597.995	0.002464
609.569	0.007884
621.143	0.009444
632.717	0.002744
644.291	0.001804
655.864	0.002064
667.438	0.004814
679.012	0.012774
690.586	0.009814
702.16	0.006054
713.734	0.011944
725.307	0.007364
736.881	0.007384
748.455	0.013924
760.029	0.009184
771.603	0.030584
783.177	0.025834
794.75	0.005224
806.324	0.004324
817.898	0.011314
829.472	0.011724
841.046	0.003864
852.619	0.002594
864.193	0.003704
875.767	0.012444
887.341	0.020904
898.915	0.018654
910.489	0.009174
922.062	0.006084
933.636	0.012294
945.21	0.034774
956.784	0.022894
968.358	0.005664
979.932	0.003304
991.505	0.002994
1003.08	0.002804
1014.65	0.003404
1026.23	0.005554
1037.8	0.015054
1049.37	0.026694
1060.95	0.020624
1072.52	0.012614
1084.1	0.010304
1095.67	0.014404
1107.24	0.019874
1118.82	0.035534
1130.39	0.047054
1141.97	0.037764
1153.54	0.026824
1165.11	0.038784
1176.69	0.026374
1188.26	0.019744
1199.83	0.017504
1211.41	0.012864
1222.98	0.010394
1234.56	0.009684
1246.13	0.014564
1257.7	0.026394
1269.28	0.021434
1280.85	0.018954
1292.42	0.020044
1304	0.022684
1315.57	0.040514
1327.15	0.093554
1338.72	0.201094
1350.29	0.210334
1361.87	0.085864
1373.44	0.036044
1385.02	0.019874
1396.59	0.017034
1408.16	0.016524
1419.74	0.018224
1431.31	0.023014
1442.88	0.031344
1454.46	0.029734
1466.03	0.034624
1477.61	0.049774
1489.18	0.083254
1500.75	0.085854
1512.33	0.067154
1523.9	0.088164
1535.48	0.129424
1547.05	0.081524
1558.62	0.038944
1570.2	0.044204
1581.77	0.083264
1593.34	0.087224
1604.92	0.025884
1616.49	0.011934
1628.07	0.009904
1639.64	0.010134
1651.21	0.008384
1662.79	0.005944
1674.36	0.004114
1685.93	0.003014
1697.51	0.002494
1709.08	0.002434
1720.66	0.002484
1732.23	0.002124
1743.8	0.001684
1755.38	0.001774
1766.95	0.002284
1778.53	0.002384
1790.1	0.002704
1801.67	0.002344
1813.25	0.001504
1824.82	0.001364
1836.39	0.001204
1847.97	0.001214
1859.54	0.001154
1871.12	0.001364
1882.69	0.002104
1894.26	0.002664
1905.84	0.001834
1917.41	0.0010908
1928.99	0.0009889
1940.56	0.001174
1952.13	0.001354
1963.71	0.001234
1975.28	0.0008815
1986.85	0.0007856
1998.43	0.0009119
2010	0.0010906
2021.58	0.0010145
2033.15	0.0008391
2044.72	0.0006334
2056.3	0.0005734
2067.87	0.0006988
2079.44	0.0008163
2091.02	0.0010086
2102.59	0.001284
2114.17	0.001304
2125.74	0.0009372
2137.31	0.0006594
2148.89	0.0006845
2160.46	0.0008169
2172.04	0.0008864
2183.61	0.00089
2195.18	0.0008016
2206.76	0.0008354
2218.33	0.0009116
2229.9	0.0009586
2241.48	0.0009649
2253.05	0.0009338
2264.63	0.0009407
2276.2	0.0009236
2287.77	0.0007632
2299.35	0.0008304
2310.92	0.0008009
2322.5	0.0006836
2334.07	0.0006528
2345.64	0.0006568
2357.22	0.000828
2368.79	0.000817
2380.36	0.0007762
2391.94	0.0008043
2403.51	0.0008842
2415.09	0.0009561
2426.66	0.0009681
2438.23	0.001124
2449.81	0.001544
2461.38	0.002114
2472.96	0.002374
2484.53	0.001884
2496.1	0.001604
2507.68	0.001504
2519.25	0.001584
2530.82	0.001714
2542.4	0.001814
2553.97	0.001894
2565.55	0.002324
2577.12	0.002824
2588.69	0.002564
2600.27	0.001894
2611.84	0.001514
2623.41	0.001554
2634.99	0.001634
2646.56	0.001724
2658.14	0.001854
2669.71	0.001974
2681.28	0.001994
2692.86	0.002004
2704.43	0.002214
2716.01	0.002374
2727.58	0.002504
2739.15	0.002914
2750.73	0.003594
2762.3	0.004724
2773.87	0.007474
2785.45	0.013674
2797.02	0.024674
2808.6	0.027754
2820.17	0.019624
2831.74	0.016274
2843.32	0.025414
2854.89	0.031474
2866.47	0.025514
2878.04	0.026314
2889.61	0.025824
2901.19	0.022064
2912.76	0.020524
2924.33	0.021294
2935.91	0.022774
2947.48	0.028774
2959.06	0.034624
2970.63	0.020584
2982.2	0.014314
2993.78	0.015994
3005.35	0.009464
3016.92	0.006744
3028.5	0.005134
3040.07	0.003504
3051.65	0.002994
3063.22	0.002984
3074.79	0.004364
3086.37	0.007334
3097.94	0.005314
3109.52	0.002574
3121.09	0.001524
3132.66	0.001174
3144.24	0.0009498
3155.81	0.000956
3167.38	0.001114
3178.96	0.001214
3190.53	0.0010458
3202.11	0.0007089
3213.68	0.0003857
3225.25	0.0004424
3236.83	0.000385
3248.4	0.0003289
3259.98	0.0003451
3271.55	0.0002217
3283.12	0.0002533
3294.7	0.0002517
3306.27	0.0003038
3317.84	0.000108402
3329.42	0.0002648
3340.99	0.000105568
3352.57	7.24e-05
3364.14	0.00015981
3375.71	9.27e-05
3387.29	5.83e-05
3398.86	0.0002224
3410.43	0.0001564
3422.01	0.00019861
3433.58	0.00016864
3445.16	0.00016477
3456.73	6.09e-05
3468.3	0.00013979
3479.88	2e-06
3491.45	8.2e-05
3503.03	0.00011528
3514.6	2.98e-05
3526.17	0.00012414
3537.75	8.94e-05
3549.32	8.46e-05
3560.89	0.000113711
3572.47	3.15e-05
3584.04	5.03e-05
3595.62	0.00010061
3607.19	9.568e-05
3618.76	5.88e-05
3630.34	0.00018716
3641.91	0.000103587
3653.49	6.54e-05
3665.06	0.00013848
3676.63	0.00014612
3688.21	0.00018173
3699.78	0.00018636
3711.35	0.00015268
3722.93	0.00011968
3734.5	0.000108076
3746.08	0.00019126
3757.65	0.00018361
3769.22	0.00016089
3780.8	0.0002116
3792.37	0.0002248
3803.94	0.00011446
3815.52	0.0001261
3827.09	0.00017399
3838.67	0.00015596
3850.24	0.0002279
3861.81	0.0003089
3873.39	0.0002763
3884.96	0.0002539
3896.54	0.0002333
3908.11	0.0002123
3919.68	0.0002065
3931.26	0.00034
3942.83	0.0002734
3954.4	0.000374
3965.98	0.0003645
3977.55	0.000382
3989.13	0.0003726
4000.7	0.0003643
