Infrared Spectrum: p-Ethoxybenzylalcohol
Formula: C 9 H 12 O 2
CAS: 6214-44-4
State: gas
Origin: EPA-IR VAPOR PHASE LIBRARY
1/CM	ABSORBANCE
501.5	0.0029107
513.074	0.0034607
524.648	0.0037607
536.222	0.0034907
547.796	0.0036907
559.37	0.0047007
570.944	0.0060207
582.518	0.0068807
594.092	0.0042307
605.666	0.0024507
617.24	0.0014307
628.814	0.0010807
640.388	0.0010207
651.962	0.0009023
663.536	0.0008866
675.11	0.0008658
686.684	0.0012007
698.258	0.0016807
709.832	0.0020607
721.406	0.0017907
732.98	0.0017007
744.554	0.0020307
756.128	0.0024707
767.702	0.0025607
779.276	0.0032007
790.85	0.0053407
802.423	0.0092607
813.997	0.0131707
825.571	0.0157307
837.145	0.0139307
848.719	0.0085207
860.293	0.0047707
871.867	0.0034007
883.441	0.0035507
895.015	0.0054707
906.589	0.0074107
918.163	0.0080007
929.737	0.0068807
941.311	0.0052507
952.885	0.0055607
964.459	0.0072907
976.033	0.0102007
987.607	0.0147507
999.181	0.0219307
1010.76	0.0284107
1022.33	0.0326407
1033.9	0.0346107
1045.48	0.0321207
1057.05	0.0228807
1068.63	0.0139007
1080.2	0.0109607
1091.77	0.0118707
1103.35	0.0115007
1114.92	0.0111407
1126.49	0.0085607
1138.07	0.0071107
1149.64	0.0089507
1161.22	0.0184607
1172.79	0.0280307
1184.36	0.0151807
1195.94	0.0147007
1207.51	0.0239507
1219.09	0.0436307
1230.66	0.0758607
1242.23	0.0929307
1253.81	0.0634707
1265.38	0.0288107
1276.96	0.0204407
1288.53	0.0209007
1300.1	0.0209807
1311.68	0.0146507
1323.25	0.0091207
1334.83	0.0073707
1346.4	0.0072807
1357.97	0.0092107
1369.55	0.0136007
1381.12	0.0186407
1392.7	0.0211607
1404.27	0.0152507
1415.84	0.0084307
1427.42	0.0063507
1438.99	0.0057607
1450.57	0.0057707
1462.14	0.0068207
1473.71	0.0106807
1485.29	0.0136307
1496.86	0.0221507
1508.44	0.0569707
1520.01	0.0349907
1531.58	0.0083107
1543.16	0.0046507
1554.73	0.0041707
1566.31	0.0050807
1577.88	0.0078407
1589.45	0.0113507
1601.03	0.0189007
1612.6	0.0247507
1624.18	0.0124707
1635.75	0.0044007
1647.32	0.0027007
1658.9	0.0019007
1670.47	0.0013707
1682.05	0.0010907
1693.62	0.0008665
1705.19	0.0008416
1716.77	0.0010507
1728.34	0.0009062
1739.92	0.0008499
1751.49	0.0010707
1763.06	0.0009897
1774.64	0.0006603
1786.21	0.0005076
1797.79	0.0004602
1809.36	0.0004551
1820.93	0.0004834
1832.51	0.0005864
1844.08	0.000746
1855.66	0.0010161
1867.23	0.0013407
1878.8	0.0014807
1890.38	0.0012607
1901.95	0.0010139
1913.53	0.0008999
1925.1	0.0009499
1936.67	0.0010807
1948.25	0.0011107
1959.82	0.0011007
1971.4	0.0011107
1982.97	0.0010807
1994.54	0.0011207
2006.12	0.0010807
2017.69	0.000953
2029.27	0.0008168
2040.84	0.000872
2052.41	0.0008939
2063.99	0.0009224
2075.56	0.0008176
2087.14	0.0006545
2098.71	0.0004827
2110.28	0.000378
2121.86	0.0003313
2133.43	0.0003243
2145.01	0.0002743
2156.58	0.0002352
2168.15	0.0002099
2179.73	0.0001825
2191.3	0.0001428
2202.88	0.0002143
2214.45	0.0002427
2226.02	0.0002862
2237.6	0.0002906
2249.17	0.0002829
2260.74	0.0003479
2272.32	0.0003922
2283.89	0.0004266
2295.47	0.0004389
2307.04	0.0004702
2318.61	0.0004671
2330.19	0.0004664
2341.76	0.0004828
2353.34	0.0004232
2364.91	0.000322
2376.48	0.0003425
2388.06	0.0003939
2399.63	0.000526
2411.21	0.0006443
2422.78	0.0006923
2434.35	0.0006884
2445.93	0.0007595
2457.5	0.0008566
2469.08	0.0008427
2480.65	0.0008132
2492.22	0.0007543
2503.8	0.0007171
2515.37	0.0007322
2526.95	0.0007919
2538.52	0.0007905
2550.09	0.0007034
2561.67	0.0005586
2573.24	0.0004857
2584.82	0.0005026
2596.39	0.0004447
2607.96	0.0004118
2619.54	0.0003715
2631.11	0.0003927
2642.69	0.0003765
2654.26	0.0003672
2665.83	0.0004397
2677.41	0.000459
2688.98	0.0004921
2700.56	0.0006301
2712.13	0.0007594
2723.7	0.0010607
2735.28	0.0012507
2746.85	0.0014307
2758.43	0.0015507
2770	0.0016707
2781.57	0.0018407
2793.15	0.0020207
2804.72	0.0022907
2816.3	0.0028307
2827.87	0.0035907
2839.44	0.0048807
2851.02	0.0069307
2862.59	0.0102707
2874.17	0.0160207
2885.74	0.0200107
2897.31	0.0188007
2908.89	0.0183807
2920.46	0.0178607
2932.04	0.0183807
2943.61	0.0200207
2955.18	0.0166207
2966.76	0.0151507
2978.33	0.0188007
2989.91	0.0207407
3001.48	0.0144207
3013.05	0.0092407
3024.63	0.0083707
3036.2	0.0098207
3047.78	0.0068907
3059.35	0.0048307
3070.92	0.0050307
3082.5	0.0043507
3094.07	0.0034507
3105.65	0.0028507
3117.22	0.0019407
3128.79	0.0013107
3140.37	0.000781
3151.94	0.000532
3163.52	0.0004259
3175.09	0.0003595
3186.66	0.0002578
3198.24	0.00026
3209.81	0.0002451
3221.39	0.000233
3232.96	0.0002014
3244.53	0.0001715
3256.11	0.0001208
3267.68	8.698e-05
3279.26	5.173e-05
3290.83	6.681e-05
3302.4	3.809e-05
3313.98	2.7292e-05
3325.55	1.807e-05
3337.13	9.905e-05
3348.7	0.0001184
3360.27	8.907e-05
3371.85	0.0001168
3383.42	0.0001533
3395	0.0001468
3406.57	0.0001838
3418.14	0.0002198
3429.72	0.0001912
3441.29	0.0001897
3452.86	0.0002257
3464.44	0.0002408
3476.01	0.0002118
3487.59	0.0002476
3499.16	0.0001732
3510.73	0.0001386
3522.31	0.0001946
3533.88	0.0001826
3545.46	0.0001918
3557.03	0.0002005
3568.6	0.0002795
3580.18	0.0002687
3591.75	0.0003465
3603.33	0.0004743
3614.9	0.0008538
3626.47	0.0015707
3638.05	0.0029407
3649.62	0.0044207
3661.2	0.0044707
3672.77	0.0031107
3684.34	0.0017507
3695.92	0.0010807
3707.49	0.0006307
3719.07	0.0005009
3730.64	0.0003853
3742.21	0.0003455
3753.79	0.0002882
3765.36	0.0002302
3776.94	0.0002962
3788.51	0.0001988
3800.08	0.0002333
3811.66	0.0002347
3823.23	0.0002328
3834.81	0.0002791
3846.38	0.000336
3857.95	0.0003493
3869.53	0.0003751
3881.1	0.0003606
3892.68	0.0003562
3904.25	0.0003524
3915.82	0.0003204
3927.4	0.0002211
3938.97	0.0001514
3950.55	0.0002188
3962.12	0.000229
3973.69	0.0002007
3985.27	8.462e-05
3996.84	0.00011306
