Infrared Spectrum: P-(P-DIMETHYLAMINOPHENYLAZO)BENZENE ARSONIC ACID
Formula: C14 H16 N3 O3 As
CAS: 622-68-4
State: SOLID (MULL)
Class: COBLENTZ
Instrument: Not specified, most likely a prism, grating, or hybrid spectrometer.
Sampling: TRANSMISSION
Resolution: 4
Origin: WYANDOTTE CHEMICALS CORP., WYANDOTTE, MICHIGAN, USA
MICROMETERS	TRANSMITTANCE
2.023	0.156
2.06181	0.164
2.10062	0.171
2.13943	0.168
2.17824	0.169
2.21706	0.168
2.25587	0.168
2.29468	0.168
2.33349	0.176
2.3723	0.185
2.41111	0.184
2.44992	0.198
2.48873	0.198
2.52754	0.201
2.56636	0.208
2.60517	0.206
2.64398	0.218
2.68279	0.234
2.7216	0.247
2.76041	0.239
2.79922	0.242
2.83803	0.239
2.87684	0.24
2.91566	0.243
2.95447	0.243
2.99328	0.247
3.03209	0.247
3.0709	0.248
3.10971	0.243
3.14852	0.232
3.18733	0.222
3.22614	0.187
3.26496	0.166
3.30377	0.116
3.34258	0.054
3.38139	0.032
3.4202	0.025
3.45901	0.024
3.49782	0.027
3.53663	0.045
3.57544	0.048
3.61425	0.075
3.65307	0.084
3.69188	0.101
3.73069	0.117
3.7695	0.137
3.80831	0.166
3.84712	0.182
3.88593	0.201
3.92474	0.222
3.96355	0.245
4.00237	0.271
4.04118	0.302
4.07999	0.305
4.1188	0.305
4.15761	0.316
4.19642	0.337
4.23523	0.337
4.27404	0.331
4.31285	0.345
4.35167	0.353
4.39048	0.35
4.42929	0.329
4.4681	0.345
4.50691	0.357
4.54572	0.371
4.58453	0.389
4.62334	0.403
4.66215	0.424
4.70097	0.432
4.73978	0.46
4.77859	0.481
4.8174	0.515
4.85621	0.529
4.89502	0.539
4.93383	0.558
4.97264	0.575
5.01145	0.6
5.05027	0.617
5.08908	0.623
5.12789	0.642
5.1667	0.646
5.20551	0.644
5.24432	0.662
5.28313	0.691
5.32194	0.712
5.36075	0.735
5.39957	0.749
5.43838	0.76
5.47719	0.78
5.516	0.799
5.55481	0.806
5.59362	0.827
5.63243	0.856
5.67124	0.869
5.71005	0.875
5.74887	0.898
5.78768	0.932
5.82649	0.94
5.8653	0.938
5.90411	0.961
5.94292	0.998
5.98173	1.014
6.02054	1.017
6.05935	0.978
6.09817	0.764
6.13698	0.323
6.17579	0.5
6.2146	0.179
6.25341	0.142
6.29222	0.376
6.33103	0.617
6.36984	0.688
6.40865	0.476
6.44746	0.255
6.48628	0.232
6.52509	0.197
6.5639	0.303
6.60271	0.463
6.64152	0.531
6.68033	0.462
6.71914	0.353
6.75795	0.243
6.79676	0.116
6.83558	0.129
6.87439	0.195
6.9132	0.302
6.95201	0.546
6.99082	0.534
7.02963	0.285
7.06844	0.096
7.10725	0.043
7.14606	0.038
7.18488	0.03
7.22369	0.025
7.2625	0.037
7.30131	0.058
7.34012	0.098
7.37893	0.166
7.41774	0.264
7.45655	0.347
7.49536	0.426
7.53418	0.478
7.57299	0.523
7.6118	0.575
7.65061	0.612
7.68942	0.668
7.72823	0.694
7.76704	0.642
7.80585	0.462
7.84466	0.218
7.88348	0.084
7.92229	0.04
7.9611	0.042
7.99991	0.063
8.03872	0.114
8.07753	0.182
8.11634	0.216
8.15515	0.24
8.19396	0.24
8.23278	0.243
8.27159	0.297
8.3104	0.373
8.34921	0.402
8.38802	0.34
8.42683	0.294
8.46564	0.192
8.50445	0.138
8.54326	0.134
8.58208	0.143
8.62089	0.213
8.6597	0.303
8.69851	0.368
8.73732	0.402
8.77613	0.397
8.81494	0.303
8.85375	0.324
8.89256	0.378
8.93138	0.421
8.97019	0.45
9.009	0.463
9.04781	0.437
9.08662	0.437
9.12543	0.313
9.16424	0.245
9.20305	0.332
9.24186	0.428
9.28067	0.489
9.31949	0.508
9.3583	0.51
9.39711	0.525
9.43592	0.544
9.47473	0.573
9.51354	0.607
9.55235	0.642
9.59116	0.659
9.62997	0.672
9.66879	0.701
9.7076	0.712
9.74641	0.731
9.78522	0.746
9.82403	0.767
9.86284	0.783
9.90165	0.798
9.94046	0.799
9.97927	0.819
10.0181	0.836
10.0569	0.856
10.0957	0.877
10.1345	0.872
10.1733	0.851
10.2121	0.796
10.251	0.781
10.2898	0.823
10.3286	0.864
10.3674	0.88
10.4062	0.886
10.445	0.907
10.4838	0.924
10.5226	0.932
10.5614	0.925
10.6003	0.904
10.6391	0.828
10.6779	0.567
10.7167	0.292
10.7555	0.135
10.7943	0.122
10.8331	0.235
10.8719	0.358
10.9107	0.436
10.9496	0.492
10.9884	0.512
11.0272	0.51
11.066	0.499
11.1048	0.444
11.1436	0.418
11.1824	0.426
11.2212	0.453
11.26	0.518
11.2989	0.57
11.3377	0.62
11.3765	0.668
11.4153	0.714
11.4541	0.756
11.4929	0.783
11.5317	0.812
11.5705	0.828
11.6093	0.835
11.6482	0.83
11.687	0.802
11.7258	0.736
11.7646	0.647
11.8034	0.576
11.8422	0.544
11.881	0.455
11.9198	0.379
11.9586	0.405
11.9975	0.347
12.0363	0.179
12.0751	0.184
12.1139	0.198
12.1527	0.163
12.1915	0.117
12.2303	0.13
12.2691	0.214
12.3079	0.279
12.3468	0.297
12.3856	0.339
12.4244	0.431
12.4632	0.52
12.502	0.57
12.5408	0.602
12.5796	0.623
12.6184	0.649
12.6572	0.663
12.6961	0.675
12.7349	0.662
12.7737	0.617
12.8125	0.568
12.8513	0.576
12.8901	0.6
12.9289	0.617
12.9677	0.62
13.0065	0.594
13.0454	0.494
13.0842	0.298
13.123	0.158
13.1618	0.129
13.2006	0.205
13.2394	0.298
13.2782	0.339
13.317	0.264
13.3558	0.169
13.3947	0.19
13.4335	0.306
13.4723	0.426
13.5111	0.528
13.5499	0.6
13.5887	0.618
13.6275	0.609
13.6663	0.526
13.7051	0.455
13.744	0.453
13.7828	0.507
13.8216	0.526
13.8604	0.57
13.8992	0.591
13.938	0.602
13.9768	0.596
14.0156	0.576
14.0544	0.57
14.0933	0.578
14.1321	0.591
14.1709	0.625
14.2097	0.676
14.2485	0.723
14.2873	0.764
14.3261	0.793
14.3649	0.815
14.4037	0.83
14.4426	0.838
14.4814	0.844
14.5202	0.852
14.559	0.856
14.5978	0.857
14.6366	0.872
14.6754	0.882
14.7142	0.888
14.753	0.898
14.7919	0.903
14.8307	0.907
14.8695	0.903
14.9083	0.906
14.9471	0.907
14.9859	0.899
15.0247	0.848
15.0635	0.773
15.1023	0.71
15.1412	0.672
15.18	0.633
15.2188	0.592
15.2576	0.578
15.2964	0.591
15.3352	0.625
15.374	0.654
15.4128	0.665
15.4516	0.673
15.4905	0.67
15.5293	0.668
15.5681	0.665
15.6069	0.66
15.6457	0.659
15.6845	0.659
15.7233	0.649
15.7621	0.623
15.8009	0.604
15.8398	0.581
15.8786	0.57
15.9174	0.539
15.9562	0.521
15.995	0.516
