Infrared Spectrum: 1-Formyl-2-phenylhydrazine
Formula: C 7 H 8 N 2 O
CAS: 622-84-4
State: gas
Origin: EPA-IR VAPOR PHASE LIBRARY
1/CM	ABSORBANCE
549.8	0.002025
559.445	0.001675
569.09	0.001645
578.734	0.001975
588.379	0.001435
598.024	0.001415
607.669	0.001255
617.313	0.001305
626.958	0.001385
636.603	0.001565
646.248	0.001405
655.893	0.001515
665.537	0.001735
675.182	0.002095
684.827	0.002695
694.472	0.002945
704.116	0.002195
713.761	0.001705
723.406	0.002015
733.051	0.002565
742.695	0.003535
752.34	0.004135
761.985	0.002885
771.63	0.002015
781.275	0.001315
790.919	0.0011292
800.564	0.001001
810.209	0.0008015
819.854	0.0008375
829.498	0.0006679
839.143	0.0007211
848.788	0.00106
858.433	0.0010724
868.078	0.001165
877.722	0.001205
887.367	0.001235
897.012	0.0010141
906.657	0.0009272
916.301	0.0008936
925.946	0.0008175
935.591	0.0008357
945.236	0.0007434
954.88	0.0007718
964.525	0.0007734
974.17	0.0009335
983.815	0.001185
993.46	0.0010482
1003.1	0.001445
1012.75	0.001725
1022.39	0.001635
1032.04	0.001965
1041.68	0.001675
1051.33	0.001845
1060.97	0.001185
1070.62	0.001595
1080.26	0.001655
1089.91	0.0010751
1099.55	0.0007899
1109.2	0.0009121
1118.84	0.0010453
1128.49	0.001455
1138.13	0.0006536
1147.78	0.001615
1157.42	0.001475
1167.07	0.001595
1176.71	0.001885
1186.36	0.002725
1196	0.003695
1205.64	0.003905
1215.29	0.004165
1224.93	0.003955
1234.58	0.002415
1244.22	0.001495
1253.87	0.001445
1263.51	0.001225
1273.16	0.0011399
1282.8	0.0008129
1292.45	0.0008281
1302.09	0.000923
1311.74	0.000777
1321.38	0.0005773
1331.03	0.000524
1340.67	0.0004965
1350.32	0.0004654
1359.96	0.000516
1369.61	0.0006949
1379.25	0.0008088
1388.9	0.0006634
1398.54	0.0007217
1408.18	0.0010757
1417.83	0.001675
1427.47	0.002045
1437.12	0.001915
1446.76	0.001775
1456.41	0.001805
1466.05	0.001505
1475.7	0.001665
1485.34	0.003055
1494.99	0.005315
1504.63	0.004325
1514.28	0.001435
1523.92	0.0007443
1533.57	0.0005937
1543.21	0.0005021
1552.86	0.0005264
1562.5	0.00071
1572.15	0.0008475
1581.79	0.001495
1591.44	0.003015
1601.08	0.004575
1610.73	0.003355
1620.37	0.001385
1630.01	0.0007615
1639.66	0.0005802
1649.3	0.0005154
1658.95	0.0006256
1668.59	0.0008108
1678.24	0.001295
1687.88	0.001945
1697.53	0.002535
1707.17	0.003245
1716.82	0.005435
1726.46	0.010375
1736.11	0.019885
1745.75	0.019835
1755.4	0.008765
1765.04	0.004165
1774.69	0.003055
1784.33	0.001645
1793.98	0.001165
1803.62	0.0009243
1813.27	0.0006662
1822.91	0.0005515
1832.55	0.0005003
1842.2	0.0005295
1851.84	0.0004401
1861.49	0.0003477
1871.13	0.0003928
1880.78	0.0002941
1890.42	0.0003622
1900.07	0.0003057
1909.71	0.0003957
1919.36	0.0004125
1929	0.0004985
1938.65	0.0004746
1948.29	0.0003871
1957.94	0.0003092
1967.58	0.0002912
1977.23	0.0002926
1986.87	0.0002945
1996.52	0.0002743
2006.16	0.0002907
2015.81	0.00019625
2025.45	0.00025149
2035.1	0.00023106
2044.74	0.00021372
2054.38	0.00021349
2064.03	0.0002628
2073.67	0.00022318
2083.32	0.00023702
2092.96	0.00022723
2102.61	0.00023937
2112.25	0.00017833
2121.9	0.00024265
2131.54	0.00023036
2141.19	0.0001201
2150.83	0.000159407
2160.48	0.00020912
2170.12	0.00022606
2179.77	0.00021449
2189.41	0.00024175
2199.06	0.00021673
2208.7	0.00022728
2218.35	0.00019473
2227.99	0.00018214
2237.64	0.0002805
2247.28	0.0002574
2256.92	0.00022239
2266.57	0.0002571
2276.21	0.0002799
2285.86	0.000302
2295.5	0.0002657
2305.15	0.00022252
2314.79	0.0002884
2324.44	0.0002824
2334.08	0.0003169
2343.73	0.0002789
2353.37	0.00023148
2363.02	0.0003347
2372.66	0.00024508
2382.31	0.00018563
2391.95	0.0001037
2401.6	0.00023746
2411.24	0.00020255
2420.89	0.00015048
2430.53	0.00022101
2440.18	0.000162474
2449.82	0.00018202
2459.47	0.00023226
2469.11	0.00015291
2478.75	0.00022031
2488.4	0.00016519
2498.04	0.0001348
2507.69	0.0002579
2517.33	0.00017027
2526.98	0.0001449
2536.62	0.00023575
2546.27	0.00016537
2555.91	0.00023609
2565.56	0.000265
2575.2	0.00015074
2584.85	0.0001448
2594.49	0.00021472
2604.14	0.00019965
2613.78	0.00019831
2623.43	0.00024095
2633.07	0.00018973
2642.72	0.00018261
2652.36	0.00024402
2662.01	0.00020409
2671.65	0.00022045
2681.29	0.00025165
2690.94	0.000269
2700.58	0.0002807
2710.23	0.000294
2719.87	0.0003583
2729.52	0.0005115
2739.16	0.0003487
2748.81	0.0003162
2758.45	0.00020175
2768.1	0.0002555
2777.74	0.000156129
2787.39	0.0003139
2797.03	0.0004044
2806.68	0.0005361
2816.32	0.0006146
2825.97	0.0010379
2835.61	0.001615
2845.26	0.002835
2854.9	0.003195
2864.55	0.002505
2874.19	0.001435
2883.84	0.0009357
2893.48	0.0005696
2903.12	0.0004261
2912.77	0.000379
2922.41	0.0003199
2932.06	0.00024134
2941.7	0.00026
2951.35	0.0002174
2960.99	0.000279
2970.64	0.0002688
2980.28	0.00019509
2989.93	0.0003802
2999.57	0.0002897
3009.22	0.0004986
3018.86	0.0008675
3028.51	0.0011284
3038.15	0.001315
3047.8	0.001385
3057.44	0.001575
3067.09	0.001865
3076.73	0.001665
3086.38	0.001365
3096.02	0.001155
3105.67	0.0008816
3115.31	0.000575
3124.95	0.0003155
3134.6	0.000298
3144.24	0.0001196
3153.89	0.0002397
3163.53	0.0001402
3173.18	0.00018967
3182.82	0.00018808
3192.47	0.0003415
3202.11	0.000363
3211.76	0.000164622
3221.4	0.0002924
3231.05	0.00022681
3240.69	0.00020347
3250.34	0.0002861
3259.98	0.0001008
3269.63	0.0002588
3279.27	0.0002555
3288.92	0.00023372
3298.56	0.0003884
3308.21	0.0003149
3317.85	0.0003962
3327.49	0.0004583
3337.14	0.0006235
3346.78	0.0007898
3356.43	0.0008276
3366.07	0.001086
3375.72	0.0009784
3385.36	0.0007488
3395.01	0.0007412
3404.65	0.0007964
3414.3	0.0006397
3423.94	0.0008284
3433.59	0.0009438
3443.23	0.0011172
3452.88	0.0009966
3462.52	0.0006907
3472.17	0.0005868
3481.81	0.0005215
3491.46	0.0003693
3501.1	0.0002884
3510.75	0.0003355
3520.39	0.000158658
3530.04	0.0002678
3539.68	0.00021238
3549.32	0.00021863
3558.97	0.0002848
3568.61	0.0001083
3578.26	0.000163761
3587.9	0.0002902
3597.55	0.00021587
3607.19	0.00016663
3616.84	0.00022456
3626.48	0.0003438
3636.13	0.00024756
3645.77	0.0003107
3655.42	0.000158634
3665.06	0.0001344
3674.71	0.000157061
3684.35	0.00020359
3694	0.0003252
3703.64	4.5e-05
3713.29	0.0002826
3722.93	0.0002892
3732.58	0.0002756
3742.22	0.00022691
3751.86	0.0002356
3761.51	0.00024549
3771.15	0.00017396
3780.8	0.0003534
3790.44	0.00020614
3800.09	0.00017858
3809.73	0.00022403
3819.38	0.00021638
3829.02	0.000384
3838.67	0.0001088
3848.31	0.000288
3857.96	0.00019815
3867.6	0.00024693
3877.25	0.0003019
3886.89	0.0004585
3896.54	0.00018703
3906.18	0.0002815
3915.83	0.0002064
3925.47	0.00023014
3935.12	0.0002972
3944.76	0.0003233
3954.41	7.95e-05
3964.05	0.0001405
3973.69	0.0002986
3983.34	0.00018609
3992.98	0.0003859
