Infrared Spectrum: 1-Ethyl-4-methylbenzene
Formula: C 9 H 12
CAS: 622-96-8
State: gas
Instrument: HP-GC/MS/IRD
Origin: NIST Mass Spectrometry Data Center
1/CM	ABSORBANCE
550	0.0020556
562	0.0009414
574	0.0004716
586	0.0002808
598	0.000216
610	0.0001098
622	7.92e-05
634	0.0001764
646	5.76e-05
658	7.92e-05
670	0.0001098
682	7.02e-05
694	0.000162
706	0.0003366
718	0.0005544
730	0.0006966
742	0.0006642
754	0.0008424
766	0.0010926
778	0.0017856
790	0.0035154
802	0.0061902
814	0.0071424
826	0.0047988
838	0.002187
850	0.0006948
862	0.0003024
874	7.38e-05
886	5.76e-05
898	5.58e-05
910	4.14e-05
922	0.0001512
934	0.0001458
946	0.0002034
958	0.0004572
970	0.0005724
982	0.0003834
994	0.0001638
1006	0.0003942
1018	0.0011412
1030	0.0011016
1042	0.0009612
1054	0.0014544
1066	0.0013428
1078	0.0007794
1090	0.0006948
1102	0.000945
1114	0.0013626
1126	0.0012726
1138	0.00072
1150	0.000315
1162	0.0002376
1174	0.0002862
1186	0.0002574
1198	0.0004122
1210	0.0006102
1222	0.0007956
1234	0.0007668
1246	0.000567
1258	0.0003312
1270	0.000396
1282	0.000504
1294	0.0006102
1306	0.0008964
1318	0.0014724
1330	0.001494
1342	0.000918
1354	0.0008208
1366	0.0008874
1378	0.001206
1390	0.0013392
1402	0.0013572
1414	0.0017334
1426	0.0021294
1438	0.002187
1450	0.002565
1462	0.0028818
1474	0.0025398
1486	0.002259
1498	0.003744
1510	0.00792
1522	0.0067572
1534	0.001917
1546	0.0008496
1558	0.0004842
1570	0.0005904
1582	0.000576
1594	0.0005778
1606	0.0006228
1618	0.000648
1630	0.0007074
1642	0.0006192
1654	0.000333
1666	0.0002916
1678	0.0001638
1690	0.0001296
1702	3.6e-05
1714	6.3e-05
1726	0.0002124
1738	0.0001638
1750	0.0001314
1762	0.00027
1774	0.0004896
1786	0.000513
1798	0.000234
1810	0.0001062
1822	8.28e-05
1834	0.0001188
1846	0.0001422
1858	0.0003186
1870	0.0005706
1882	0.0009216
1894	0.000873
1906	0.000486
1918	0.0002142
1930	0.0001728
1942	0.0001062
1954	9.72e-05
1966	8.82e-05
1978	0.0001026
1990	7.56e-05
2002	0.0001296
2014	0.000126
2026	0.0001188
2038	8.28e-05
2050	8.1e-05
2062	6.12e-05
2074	7.92e-05
2086	4.86e-05
2098	9.18e-05
2110	7.74e-05
2122	3.96e-05
2134	4.5e-05
2146	5.58e-05
2158	3.78e-05
2170	5.04e-05
2182	6.12e-05
2194	5.94e-05
2206	8.28e-05
2218	3.24e-05
2230	4.86e-05
2242	7.74e-05
2254	6.48e-05
2266	4.14e-05
2278	7.38e-05
2290	8.1e-05
2302	0.0001008
2314	8.64e-05
2326	5.76e-05
2338	5.94e-05
2350	3.96e-05
2362	0
2374	0
2386	3.6e-05
2398	7.38e-05
2410	9.18e-05
2422	6.3e-05
2434	0.0001062
2446	8.28e-05
2458	3.78e-05
2470	5.76e-05
2482	4.32e-05
2494	2.88e-05
2506	4.14e-05
2518	5.04e-05
2530	7.74e-05
2542	2.34e-05
2554	3.42e-05
2566	3.96e-05
2578	6.48e-05
2590	0.0001404
2602	0.0001098
2614	9.72e-05
2626	0.0001332
2638	0.0001314
2650	6.48e-05
2662	6.66e-05
2674	6.66e-05
2686	6.12e-05
2698	0.0001188
2710	0.0001764
2722	0.000207
2734	0.0004932
2746	0.0005562
2758	0.0004518
2770	0.0004536
2782	0.000495
2794	0.0005562
2806	0.0006516
2818	0.0009432
2830	0.0014508
2842	0.0022482
2854	0.0038142
2866	0.0067032
2878	0.0094212
2890	0.0095742
2902	0.008721
2914	0.0096948
2926	0.0134514
2938	0.016515
2950	0.0138618
2962	0.0146628
2974	0.0179622
2986	0.0124668
2998	0.0092394
3010	0.010026
3022	0.0119142
3034	0.0100836
3046	0.0072216
3058	0.006138
3070	0.0044856
3082	0.003132
3094	0.0023886
3106	0.0016614
3118	0.001107
3130	0.0008496
3142	0.000675
3154	0.0004626
3166	0.0003888
3178	0.000351
3190	0.000225
3202	0.0001692
3214	0.0001296
3226	9.18e-05
3238	0.0001188
3250	4.32e-05
3262	6.48e-05
3274	5.76e-05
3286	0.0001116
3298	7.92e-05
3310	0.0001152
3322	6.66e-05
3334	0.0001044
3346	9e-05
3358	0.000108
3370	6.84e-05
3382	6.12e-05
3394	9e-05
3406	9.72e-05
3418	7.2e-05
3430	0.0001188
3442	0.0001062
3454	0.000135
3466	8.82e-05
3478	9.18e-05
3490	8.82e-05
3502	5.94e-05
3514	0.0001566
3526	7.74e-05
3538	0.0001278
3550	0.0001044
3562	5.76e-05
3574	7.2e-05
3586	1.44e-05
3598	0.0001242
3610	5.04e-05
3622	8.1e-05
3634	0.0001206
3646	9.72e-05
3658	0.000216
3670	0.000171
3682	0.0001908
3694	0.0001728
3706	0.0002088
3718	0.000207
3730	0.0001584
3742	0.0001224
3754	0.0001908
3766	0.0002448
3778	0.0002178
3790	0.0001854
3802	0.0001944
3814	0.0002376
3826	0.0002592
3838	0.0002268
