Infrared Spectrum: Aniline, N-n-propyl-
Formula: C9 H13 N
CAS: 622-80-0
State: LIQUID (NEAT)
Boiling point: 108.5-112 C AT 18 mmHg
Class: COBLENTZ III
Instrument: BAIRD (GRATING)
Instrument parameters: NaCl PRISM
Sampling: TRANSMISSION
Path length: 0.003 CM
Resolution: 2
Origin: WYANDOTTE CHEMICALS CORP..
1/CM	TRANSMITTANCE
626	0.683
635	0.6675
644	0.6501
653	0.6177
662	0.59
671	0.5503
680	0.3506
689	0.166
698	0.3644
707	0.5697
716	0.5738
725	0.5134
734	0.2741
743	0.0538
752	0.0654
761	0.2527
770	0.5247
779	0.6366
788	0.678
797	0.7031
806	0.6787
815	0.6713
824	0.7002
833	0.7054
842	0.7297
851	0.6355
860	0.4422
869	0.4392
878	0.6279
887	0.7097
896	0.7278
905	0.759
914	0.8227
923	0.8593
932	0.8664
941	0.8576
950	0.8329
959	0.8082
968	0.7964
977	0.7663
986	0.6043
995	0.3617
1004	0.5009
1013	0.7378
1022	0.6446
1031	0.5158
1040	0.6027
1049	0.7822
1058	0.7564
1067	0.5697
1076	0.412
1085	0.4456
1094	0.5341
1103	0.6191
1112	0.657
1121	0.6979
1130	0.6133
1139	0.3076
1148	0.2335
1157	0.3102
1166	0.4993
1175	0.3378
1184	0.2497
1193	0.4997
1202	0.598
1211	0.6802
1220	0.6658
1229	0.5529
1238	0.305
1247	0.1618
1256	0.0617
1265	0.1118
1274	0.1956
1283	0.206
1292	0.2026
1301	0.1684
1310	0.0996
1319	0.0392
1328	0.0553
1337	0.1606
1346	0.3953
1355	0.4233
1364	0.3619
1373	0.3144
1382	0.2854
1391	0.4686
1400	0.603
1409	0.613
1418	0.5929
1427	0.3886
1436	0.2279
1445	0.3293
1454	0.2979
1463	0.1698
1472	0.1109
1481	0.1069
1490	0.1167
1499	0.115
1508	0.1231
1517	0.2311
1526	0.3434
1535	0.4521
1544	0.4977
1553	0.5109
1562	0.5049
1571	0.4788
1580	0.4398
1589	0.3321
1598	0.1135
1607	0.035
1616	0.0259
1625	0.1416
1634	0.3628
1643	0.5815
1652	0.7464
1661	0.8061
1670	0.8166
1679	0.8337
1688	0.86
1697	0.8766
1706	0.8871
1715	0.8885
1724	0.8874
1733	0.891
1742	0.8925
1751	0.8882
1760	0.891
1769	0.9099
1778	0.9152
1787	0.9148
1796	0.907
1805	0.8944
1814	0.8904
1823	0.9043
1832	0.9364
1841	0.9483
1850	0.9498
1859	0.947
1868	0.9334
1877	0.9147
1886	0.8927
1895	0.8665
1904	0.8577
1913	0.8828
1922	0.9185
1931	0.9538
1940	0.9734
1949	0.9769
1958	0.978
1967	0.9793
1976	0.9802
1985	0.9809
1994	0.9817
2003	0.9826
2012	0.9832
2021	0.9837
2030	0.9841
2039	0.9844
2048	0.9847
2057	0.984
2066	0.9845
2075	0.9857
2084	0.9861
2093	0.9818
2102	0.9807
2111	0.9808
2120	0.9813
2129	0.982
2138	0.9831
2147	0.9838
2156	0.9837
2165	0.9821
2174	0.9806
2183	0.9795
2192	0.9784
2201	0.9777
2210	0.9767
2219	0.9754
2228	0.9738
2237	0.9723
2246	0.9704
2255	0.9684
2264	0.9666
2273	0.9653
2282	0.9639
2291	0.9621
2300	0.9599
2309	0.9578
2318	0.9545
2327	0.9512
2336	0.9483
2345	0.9459
2354	0.9452
2363	0.9443
2372	0.9436
2381	0.9452
2390	0.9468
2399	0.9487
2408	0.9516
2417	0.9519
2426	0.9506
2435	0.9467
2444	0.9437
2453	0.9428
2462	0.9422
2471	0.9407
2480	0.9378
2489	0.9331
2498	0.9283
2507	0.9234
2516	0.9174
2525	0.9082
2534	0.8981
2543	0.8869
2552	0.8745
2561	0.8632
2570	0.8602
2579	0.8623
2588	0.8657
2597	0.8703
2606	0.8761
2615	0.8787
2624	0.8802
2633	0.8806
2642	0.879
2651	0.8759
2660	0.8705
2669	0.8623
2678	0.8496
2687	0.8348
2696	0.8192
2705	0.8057
2714	0.7933
2723	0.7806
2732	0.768
2741	0.756
2750	0.744
2759	0.7318
2768	0.719
2777	0.7063
2786	0.689
2795	0.6682
2804	0.6386
2813	0.518
2822	0.4109
2831	0.3046
2840	0.2146
2849	0.1745
2858	0.1438
2867	0.1196
2876	0.1022
2885	0.096
2894	0.0967
2903	0.1099
2912	0.119
2921	0.114
2930	0.0991
2939	0.0843
2948	0.0735
2957	0.0725
2966	0.0729
2975	0.0772
2984	0.1086
2993	0.1732
3002	0.2588
3011	0.3392
3020	0.3482
3029	0.339
3038	0.3264
3047	0.3179
3056	0.3195
3065	0.3266
3074	0.3726
3083	0.4393
3092	0.5056
3101	0.5715
3110	0.637
3119	0.7022
3128	0.767
3137	0.8557
3146	0.8711
3155	0.8719
3164	0.8722
3173	0.8715
3182	0.8689
3191	0.866
3200	0.8635
3209	0.862
3218	0.8612
3227	0.8605
3236	0.8571
3245	0.8507
3254	0.84
3263	0.8288
3272	0.8153
3281	0.7984
3290	0.7564
3299	0.717
3308	0.6721
3317	0.6157
3326	0.5595
3335	0.5038
3344	0.4482
3353	0.393
3362	0.3381
3371	0.2864
3380	0.2611
3389	0.2561
3398	0.2551
3407	0.2558
3416	0.2803
3425	0.3437
3434	0.4068
3443	0.4695
3452	0.5319
3461	0.5939
3470	0.6557
3479	0.7171
3488	0.7749
3497	0.8002
3506	0.8187
3515	0.8524
3524	0.8673
3533	0.8817
3542	0.8887
3551	0.8939
3560	0.8958
3569	0.8974
3578	0.8979
3587	0.8982
3596	0.8982
3605	0.8982
3614	0.8984
3623	0.8985
3632	0.8986
3641	0.8987
3650	0.8989
3659	0.8989
3668	0.899
3677	0.8992
3686	0.8992
3695	0.8994
3704	0.8995
3713	0.8996
3722	0.8997
3731	0.8998
3740	0.8998
3749	0.8998
3758	0.8998
3767	0.8998
3776	0.8998
3785	0.8999
3794	0.8999
3803	0.8998
3812	0.8995
3821	0.8992
3830	0.8989
3839	0.8986
3848	0.8983
3857	0.898
3866	0.8977
3875	0.8973
3884	0.8968
3893	0.8965
3902	0.8961
3911	0.8958
3920	0.8956
3929	0.8956
3938	0.8957
3947	0.8958
3956	0.8959
3965	0.8947
3974	0.8934
3983	0.8922
3992	0.8908
