Infrared Spectrum: ETHYL p-TOLYLSULFIDE
Formula: C9 H12 S
CAS: 622-63-9
State: LIQUID
Boiling point: 106-109 C AT 18 mmHg
Class: COBLENTZ
Instrument: Not specified, most likely a prism, grating, or hybrid spectrometer.
Sampling: TRANSMISSION
Path length: 0.005 CM
Resolution: 4
Origin: WYANDOTTE CHEMICALS CORP., WYANDOTTE, MICHIGAN, USA
MICROMETERS	TRANSMITTANCE
2.037	0.942
2.07418	0.936
2.11137	0.933
2.14855	0.933
2.18574	0.88
2.22292	0.812
2.2601	0.829
2.29729	0.844
2.33447	0.879
2.37166	0.871
2.40884	0.841
2.44602	0.882
2.48321	0.897
2.52039	0.913
2.55758	0.92
2.59476	0.939
2.63194	0.962
2.66913	0.956
2.70631	0.944
2.7435	0.945
2.78068	0.948
2.81786	0.945
2.85505	0.941
2.89223	0.905
2.92942	0.883
2.9666	0.885
3.00378	0.858
3.04097	0.877
3.07815	0.885
3.11534	0.852
3.15252	0.812
3.18971	0.784
3.22689	0.576
3.26407	0.28
3.30126	0.122
3.33844	0.1
3.37563	0.037
3.41281	0.04
3.44999	0.075
3.48718	0.079
3.52436	0.21
3.56155	0.494
3.59873	0.71
3.63591	0.789
3.6731	0.725
3.71028	0.77
3.74747	0.812
3.78465	0.862
3.82183	0.88
3.85902	0.868
3.8962	0.837
3.93339	0.869
3.97057	0.888
4.00775	0.886
4.04494	0.88
4.08212	0.863
4.11931	0.88
4.15649	0.872
4.19367	0.832
4.23086	0.848
4.26804	0.888
4.30523	0.903
4.34241	0.913
4.37959	0.905
4.41678	0.868
4.45396	0.885
4.49115	0.913
4.52833	0.919
4.56551	0.899
4.6027	0.902
4.63988	0.917
4.67707	0.913
4.71425	0.937
4.75143	0.934
4.78862	0.942
4.8258	0.934
4.86299	0.937
4.90017	0.937
4.93735	0.936
4.97454	0.937
5.01172	0.934
5.04891	0.905
5.08609	0.91
5.12327	0.922
5.16046	0.906
5.19764	0.905
5.23483	0.886
5.27201	0.773
5.3092	0.618
5.34638	0.629
5.38356	0.779
5.42075	0.84
5.45793	0.872
5.49512	0.888
5.5323	0.908
5.56948	0.866
5.60667	0.798
5.64385	0.784
5.68104	0.838
5.71822	0.829
5.7554	0.823
5.79259	0.807
5.82977	0.809
5.86696	0.826
5.90414	0.815
5.94132	0.807
5.97851	0.77
6.01569	0.702
6.05288	0.59
6.09006	0.508
6.12724	0.426
6.16443	0.506
6.20161	0.427
6.2388	0.499
6.27598	0.612
6.31316	0.587
6.35035	0.496
6.38753	0.609
6.42472	0.646
6.4619	0.607
6.49908	0.539
6.53627	0.441
6.57345	0.258
6.61064	0.144
6.64782	0.032
6.685	0.032
6.72219	0.113
6.75937	0.165
6.79656	0.096
6.83374	0.054
6.87092	0.029
6.90811	0.031
6.94529	0.054
6.98248	0.062
7.01966	0.142
7.05684	0.238
7.09403	0.229
7.13121	0.158
7.1684	0.265
7.20558	0.311
7.24276	0.116
7.27995	0.168
7.31713	0.434
7.35432	0.562
7.3915	0.579
7.42869	0.589
7.46587	0.589
7.50305	0.603
7.54024	0.592
7.57742	0.589
7.61461	0.561
7.65179	0.441
7.68897	0.446
7.72616	0.517
7.76334	0.468
7.80053	0.33
7.83771	0.158
7.87489	0.074
7.91208	0.031
7.94926	0.055
7.98645	0.186
8.02363	0.311
8.06081	0.376
8.098	0.44
8.13518	0.479
8.17237	0.51
8.20955	0.444
8.24673	0.22
8.28392	0.398
8.3211	0.617
8.35829	0.649
8.39547	0.627
8.43265	0.513
8.46984	0.449
8.50702	0.627
8.54421	0.696
8.58139	0.72
8.61857	0.725
8.65576	0.727
8.69294	0.717
8.73013	0.706
8.76731	0.694
8.80449	0.654
8.84168	0.558
8.87886	0.389
8.91605	0.148
8.95323	0.221
8.99041	0.251
9.0276	0.168
9.06478	0.11
9.10197	0.032
9.13915	0.038
9.17633	0.15
9.21352	0.314
9.2507	0.401
9.28789	0.44
9.32507	0.448
9.36225	0.446
9.39944	0.417
9.43662	0.306
9.47381	0.158
9.51099	0.196
9.54818	0.241
9.58536	0.215
9.62254	0.198
9.65973	0.235
9.69691	0.303
9.7341	0.341
9.77128	0.269
9.80846	0.062
9.84565	0.144
9.88283	0.384
9.92002	0.519
9.9572	0.565
9.99438	0.579
10.0316	0.579
10.0688	0.55
10.1059	0.511
10.1431	0.463
10.1803	0.395
10.2175	0.334
10.2547	0.302
10.2919	0.243
10.329	0.172
10.3662	0.175
10.4034	0.279
10.4406	0.384
10.4778	0.472
10.515	0.544
10.5521	0.603
10.5893	0.624
10.6265	0.637
10.6637	0.64
10.7009	0.651
10.7381	0.665
10.7752	0.686
10.8124	0.71
10.8496	0.722
10.8868	0.736
10.924	0.742
10.9612	0.756
10.9984	0.759
11.0355	0.758
11.0727	0.759
11.1099	0.761
11.1471	0.761
11.1843	0.764
11.2215	0.759
11.2586	0.759
11.2958	0.761
11.333	0.759
11.3702	0.756
11.4074	0.755
11.4446	0.744
11.4817	0.745
11.5189	0.737
11.5561	0.736
11.5933	0.727
11.6305	0.72
11.6677	0.71
11.7048	0.702
11.742	0.688
11.7792	0.674
11.8164	0.648
11.8536	0.627
11.8908	0.587
11.928	0.545
11.9651	0.497
12.0023	0.44
12.0395	0.384
12.0767	0.341
12.1139	0.31
12.1511	0.285
12.1882	0.244
12.2254	0.175
12.2626	0.096
12.2998	0.04
12.337	0.026
12.3742	0.026
12.4113	0.026
12.4485	0.026
12.4857	0.024
12.5229	0.029
12.5601	0.026
12.5973	0.029
12.6345	0.04
12.6716	0.057
12.7088	0.089
12.746	0.153
12.7832	0.231
12.8204	0.299
12.8576	0.348
12.8947	0.37
12.9319	0.365
12.9691	0.33
13.0063	0.254
13.0435	0.178
13.0807	0.133
13.1178	0.133
13.155	0.195
13.1922	0.283
13.2294	0.392
13.2666	0.48
13.3038	0.545
13.3409	0.596
13.3781	0.624
13.4153	0.655
13.4525	0.669
13.4897	0.688
13.5269	0.697
13.5641	0.71
13.6012	0.728
13.6384	0.73
13.6756	0.736
13.7128	0.741
13.75	0.739
13.7872	0.744
13.8243	0.745
13.8615	0.742
13.8987	0.744
13.9359	0.745
13.9731	0.741
14.0103	0.741
14.0474	0.725
14.0846	0.713
14.1218	0.689
14.159	0.652
14.1962	0.627
14.2334	0.606
14.2705	0.606
14.3077	0.62
14.3449	0.638
14.3821	0.654
14.4193	0.672
14.4565	0.686
14.4937	0.694
14.5308	0.696
14.568	0.694
14.6052	0.7
14.6424	0.699
14.6796	0.7
14.7168	0.7
14.7539	0.699
14.7911	0.694
14.8283	0.682
14.8655	0.672
14.9027	0.666
14.9399	0.662
14.977	0.654
15.0142	0.652
15.0514	0.652
15.0886	0.655
15.1258	0.658
15.163	0.666
15.2001	0.663
15.2373	0.655
15.2745	0.655
15.3117	0.657
15.3489	0.657
15.3861	0.665
15.4233	0.668
15.4604	0.666
15.4976	0.665
15.5348	0.665
15.572	0.662
15.6092	0.658
15.6464	0.654
15.6835	0.643
15.7207	0.624
15.7579	0.62
15.7951	0.604
15.8323	0.596
15.8695	0.592
15.9066	0.587
15.9438	0.586
15.981	0.589
