Infrared Spectrum: 1,2-Bis(phenylthio)ethane
Formula: C 14 H 14 S 2
CAS: 622-20-8
State: gas
Origin: EPA-IR VAPOR PHASE LIBRARY
1/CM	ABSORBANCE
549.9	0.0012314
559.547	0.0013228
569.193	0.0012482
578.84	0.001174
588.486	0.0013145
598.133	0.0013696
607.779	0.0014246
617.426	0.00162
627.072	0.002089
636.719	0.002729
646.365	0.004289
656.012	0.008179
665.658	0.015139
675.305	0.026029
684.951	0.050269
694.598	0.061929
704.245	0.054289
713.891	0.041809
723.538	0.041239
733.184	0.064639
742.831	0.079129
752.477	0.042219
762.124	0.019009
771.77	0.009029
781.417	0.005159
791.063	0.003569
800.71	0.002659
810.356	0.002309
820.003	0.002439
829.649	0.003079
839.296	0.004039
848.943	0.004989
858.589	0.005009
868.236	0.004299
877.882	0.003859
887.529	0.004049
897.175	0.004739
906.822	0.005739
916.468	0.004729
926.115	0.003339
935.761	0.002729
945.408	0.002439
955.054	0.002289
964.701	0.002279
974.347	0.002289
983.994	0.002449
993.64	0.003489
1003.29	0.006279
1012.93	0.008269
1022.58	0.027559
1032.23	0.013449
1041.87	0.004589
1051.52	0.005849
1061.17	0.009269
1070.81	0.011239
1080.46	0.016559
1090.11	0.022029
1099.75	0.013029
1109.4	0.009259
1119.05	0.007999
1128.69	0.005679
1138.34	0.004039
1147.99	0.003249
1157.63	0.003169
1167.28	0.003589
1176.92	0.004659
1186.57	0.006269
1196.22	0.016169
1205.86	0.013249
1215.51	0.005749
1225.16	0.005289
1234.8	0.005379
1244.45	0.006309
1254.1	0.010429
1263.74	0.018879
1273.39	0.015029
1283.04	0.009539
1292.68	0.007789
1302.33	0.006729
1311.98	0.005049
1321.62	0.003969
1331.27	0.003069
1340.92	0.002489
1350.56	0.002449
1360.21	0.002669
1369.86	0.002989
1379.5	0.003259
1389.15	0.003409
1398.79	0.004269
1408.44	0.006869
1418.09	0.012359
1427.73	0.020489
1437.38	0.026009
1447.03	0.020379
1456.67	0.016879
1466.32	0.024019
1475.97	0.048149
1485.61	0.041509
1495.26	0.012259
1504.91	0.005709
1514.55	0.003989
1524.2	0.003509
1533.85	0.003499
1543.49	0.004049
1553.14	0.005859
1562.79	0.010309
1572.43	0.021719
1582.08	0.038279
1591.73	0.024379
1601.37	0.009449
1611.02	0.005299
1620.67	0.003809
1630.31	0.003369
1639.96	0.003289
1649.6	0.003009
1659.25	0.002619
1668.9	0.002179
1678.54	0.0019053
1688.19	0.0018994
1697.84	0.002139
1707.48	0.002479
1717.13	0.002579
1726.78	0.002499
1736.42	0.002539
1746.07	0.002479
1755.72	0.002199
1765.36	0.002529
1775.01	0.003489
1784.66	0.004539
1794.3	0.004689
1803.95	0.003429
1813.6	0.002699
1823.24	0.002229
1832.89	0.002289
1842.54	0.002569
1852.18	0.003089
1861.83	0.003809
1871.47	0.004409
1881.12	0.003839
1890.77	0.002799
1900.41	0.002219
1910.06	0.002239
1919.71	0.002989
1929.35	0.003929
1939	0.004929
1948.65	0.005379
1958.29	0.004159
1967.94	0.002259
1977.59	0.0016243
1987.23	0.001395
1996.88	0.0011887
2006.53	0.001158
2016.17	0.0011132
2025.82	0.0011083
2035.47	0.00099559
2045.11	0.00102294
2054.76	0.0009884
2064.41	0.0009529
2074.05	0.000814
2083.7	0.000865
2093.35	0.000837
2102.99	0.000842
2112.64	0.000849
2122.28	0.000851
2131.93	0.000809
2141.58	0.000823
2151.22	0.000884
2160.87	0.000842
2170.52	0.000888
2180.16	0.000801
2189.81	0.000821
2199.46	0.000792
2209.1	0.000812
2218.75	0.000749
2228.4	0.000825
2238.04	0.0009314
2247.69	0.0009116
2257.34	0.000944
2266.98	0.0009541
2276.63	0.00093
2286.28	0.000856
2295.92	0.000885
2305.57	0.001109
2315.22	0.0015627
2324.86	0.0013017
2334.51	0.0012614
2344.16	0.001218
2353.8	0.00106703
2363.45	0.00101288
2373.09	0.000976
2382.74	0.00100181
2392.39	0.00099027
2402.03	0.000986
2411.68	0.0011048
2421.33	0.00105463
2430.97	0.000843
2440.62	0.000747
2450.27	0.000714
2459.91	0.000746
2469.56	0.00073
2479.21	0.000635
2488.85	0.000641
2498.5	0.000663
2508.15	0.000673
2517.79	0.000748
2527.44	0.00082
2537.09	0.000799
2546.73	0.000872
2556.38	0.000799
2566.03	0.000835
2575.67	0.000877
2585.32	0.0009114
2594.96	0.000878
2604.61	0.000998419
2614.26	0.0009291
2623.9	0.0009399
2633.55	0.000778
2643.2	0.000728
2652.84	0.000744
2662.49	0.000836
2672.14	0.000819
2681.78	0.000737
2691.43	0.000747
2701.08	0.000853
2710.72	0.000832
2720.37	0.000574
2730.02	0.000482
2739.66	0.000412
2749.31	0.00041
2758.96	0.000349
2768.6	0.000401
2778.25	0.000367
2787.9	0.000405
2797.54	0.000519
2807.19	0.000813
2816.84	0.0012696
2826.48	0.0018051
2836.13	0.002049
2845.77	0.0019781
2855.42	0.0018324
2865.07	0.0014944
2874.71	0.0014614
2884.36	0.0014272
2894.01	0.001618
2903.65	0.003119
2913.3	0.006879
2922.95	0.012359
2932.59	0.013109
2942.24	0.013359
2951.89	0.008769
2961.53	0.007059
2971.18	0.007169
2980.83	0.008339
2990.47	0.006839
3000.12	0.007499
3009.77	0.010269
3019.41	0.014069
3029.06	0.014379
3038.71	0.011729
3048.35	0.015719
3058	0.033359
3067.64	0.064049
3077.29	0.054739
3086.94	0.039899
3096.58	0.018099
3106.23	0.006869
3115.88	0.003199
3125.52	0.002159
3135.17	0.0019844
3144.82	0.002209
3154.46	0.0013613
3164.11	0.000723
3173.76	0.000604
3183.4	0.000428
3193.05	0.000418
3202.7	0.000258
3212.34	0.000115
3221.99	0.000271
3231.64	0.000344
3241.28	0.000208
3250.93	0.0002
3260.58	0
3270.22	0.000117
3279.87	0.000124
3289.52	0.00034
3299.16	0.000345
3308.81	0.000539
3318.45	0.000506
3328.1	0.000423
3337.75	0.000535
3347.39	0.000371
3357.04	0.000453
3366.69	0.00039
3376.33	0.000531
3385.98	0.000482
3395.63	0.000477
3405.27	0.000494
3414.92	0.000573
3424.57	0.000542
3434.21	0.000582
3443.86	0.000572
3453.51	0.000464
3463.15	0.000418
3472.8	0.000471
3482.45	0.000646
3492.09	0.000613
3501.74	0.00064
3511.39	0.000545
3521.03	0.000688
3530.68	0.00056
3540.33	0.000696
3549.97	0.000543
3559.62	0.000674
3569.26	0.000584
3578.91	0.000616
3588.56	0.000671
3598.2	0.000762
3607.85	0.000667
3617.5	0.000675
3627.14	0.000898
3636.79	0.000869
3646.44	0.0009469
3656.08	0.000668
3665.73	0.000862
3675.38	0.000835
3685.02	0.0011058
3694.67	0.0014572
3704.32	0.00109487
3713.96	0.000894
3723.61	0.000874
3733.26	0.000789
3742.9	0.000672
3752.55	0.00104782
3762.2	0.0011512
3771.84	0.0009601
3781.49	0.0009237
3791.13	0.000819
3800.78	0.00067
3810.43	0.000648
3820.07	0.000584
3829.72	0.000563
3839.37	0.000591
3849.01	0.000553
3858.66	0.000636
3868.31	0.000719
3877.95	0.000712
3887.6	0.000675
3897.25	0.000601
3906.89	0.000606
3916.54	0.000475
3926.19	0.000525
3935.83	0.000602
3945.48	0.000712
3955.13	0.000538
3964.77	0.000661
3974.42	0.000673
3984.07	0.000756
3993.71	0.0009109
