Infrared Spectrum: .beta.-Chlorostyrene
Formula: C 8 H 7 Cl
CAS: 622-25-3
State: gas
Origin: EPA-IR VAPOR PHASE LIBRARY
1/CM	ABSORBANCE
549.8	0.00133
559.445	0.0013367
569.09	0.002003
578.734	0.007433
588.379	0.012433
598.024	0.006033
607.669	0.003243
617.313	0.001703
626.958	0.001336
636.603	0.0011622
646.248	0.0011467
655.893	0.002163
665.537	0.004663
675.182	0.009543
684.827	0.014863
694.472	0.016503
704.116	0.013473
713.761	0.011923
723.406	0.017003
733.051	0.023833
742.695	0.020423
752.34	0.013453
761.985	0.006003
771.63	0.004663
781.275	0.006003
790.919	0.008723
800.564	0.012003
810.209	0.024493
819.854	0.021953
829.498	0.006433
839.143	0.008613
848.788	0.009693
858.433	0.010633
868.078	0.013123
877.722	0.010163
887.367	0.005043
897.012	0.004683
906.657	0.006803
916.301	0.010753
925.946	0.016013
935.591	0.020033
945.236	0.013263
954.88	0.007603
964.525	0.004393
974.17	0.003353
983.815	0.002993
993.46	0.003353
1003.1	0.002983
1012.75	0.0015691
1022.39	0.002263
1032.04	0.002883
1041.68	0.002043
1051.33	0.002553
1060.97	0.002413
1070.62	0.003153
1080.26	0.003093
1089.91	0.002423
1099.55	0.0015682
1109.2	0.0014177
1118.84	0.0010382
1128.49	0.0008204
1138.13	0.0009723
1147.78	0.001106
1157.42	0.0010153
1167.07	0.0011918
1176.71	0.0014136
1186.36	0.0011217
1196	0.0014298
1205.64	0.0013338
1215.29	0.002433
1224.93	0.003633
1234.58	0.005323
1244.22	0.005753
1253.87	0.003443
1263.51	0.0014851
1273.16	0.001853
1282.8	0.001873
1292.45	0.0015878
1302.09	0.0011955
1311.74	0.0010879
1321.38	0.001205
1331.03	0.0011783
1340.67	0.0009756
1350.32	0.000744
1359.96	0.0007915
1369.61	0.0008651
1379.25	0.0009459
1388.9	0.0009139
1398.54	0.0008816
1408.18	0.0010264
1417.83	0.0012958
1427.47	0.002043
1437.12	0.003203
1446.76	0.003793
1456.41	0.003413
1466.05	0.002883
1475.7	0.002783
1485.34	0.003403
1494.99	0.005263
1504.63	0.003673
1514.28	0.0012835
1523.92	0.0013264
1533.57	0.0015693
1543.21	0.001813
1552.86	0.002253
1562.5	0.003523
1572.15	0.004903
1581.79	0.005483
1591.44	0.007013
1601.08	0.013573
1610.73	0.017703
1620.37	0.011873
1630.01	0.006963
1639.66	0.004033
1649.3	0.002233
1658.95	0.002293
1668.59	0.002713
1678.24	0.002433
1687.88	0.002033
1697.53	0.002453
1707.17	0.003333
1716.82	0.003383
1726.46	0.003053
1736.11	0.002693
1745.75	0.002093
1755.4	0.001663
1765.04	0.0014099
1774.69	0.0015242
1784.33	0.001993
1793.98	0.002093
1803.62	0.0014743
1813.27	0.0010636
1822.91	0.0010829
1832.55	0.0010653
1842.2	0.0011352
1851.84	0.0013642
1861.49	0.0015766
1871.13	0.001723
1880.78	0.001733
1890.42	0.0013728
1900.07	0.0011435
1909.71	0.0011072
1919.36	0.0013372
1929	0.0015746
1938.65	0.001713
1948.29	0.002153
1957.94	0.002003
1967.58	0.0011319
1977.23	0.0007867
1986.87	0.00070591
1996.52	0.0007716
2006.16	0.00071783
2015.81	0.000732
2025.45	0.0007672
2035.1	0.00065111
2044.74	0.00067247
2054.38	0.00067161
2064.03	0.0005384
2073.67	0.0006121
2083.32	0.000625877
2092.96	0.0007601
2102.61	0.00071517
2112.25	0.00067903
2121.9	0.00069438
2131.54	0.0007378
2141.19	0.00066218
2150.83	0.000598
2160.48	0.0005888
2170.12	0.0005468
2179.77	0.0005947
2189.41	0.00064765
2199.06	0.0006773
2208.7	0.0005877
2218.35	0.000626328
2227.99	0.0006093
2237.64	0.00067802
2247.28	0.00065611
2256.92	0.00067822
2266.57	0.0005602
2276.21	0.00061722
2285.86	0.0005305
2295.5	0.00063576
2305.15	0.00065357
2314.79	0.0007575
2324.44	0.0008246
2334.08	0.0007836
2343.73	0.00072101
2353.37	0.0007652
2363.02	0.0007594
2372.66	0.00064707
2382.31	0.000534
2391.95	0.0005995
2401.6	0.00051
2411.24	0.00066286
2420.89	0.0005282
2430.53	0.0007454
2440.18	0.000596
2449.82	0.0005612
2459.47	0.00061571
2469.11	0.00062993
2478.75	0.00063461
2488.4	0.000583
2498.04	0.0007078
2507.69	0.0005879
2517.33	0.0006107
2526.98	0.000565
2536.62	0.0006156
2546.27	0.000625771
2555.91	0.000445
2565.56	0.00065549
2575.2	0.00063654
2584.85	0.0005801
2594.49	0.00067294
2604.14	0.00063509
2613.78	0.0005673
2623.43	0.00067815
2633.07	0.00062093
2642.72	0.00067439
2652.36	0.00064342
2662.01	0.000433
2671.65	0.0005437
2681.29	0.0005476
2690.94	0.0006483
2700.58	0.000577
2710.23	0.000513
2719.87	0.00052
2729.52	0.0005478
2739.16	0.000423
2748.81	0.000506
2758.45	0.000496
2768.1	0.000397
2777.74	0.000495
2787.39	0.00046
2797.03	0.0006847
2806.68	0.00063449
2816.32	0.0005511
2825.97	0.00066869
2835.61	0.00071862
2845.26	0.0008296
2854.9	0.00065649
2864.55	0.0008714
2874.19	0.0008459
2883.84	0.0007919
2893.48	0.0009291
2903.12	0.0008213
2912.77	0.0007942
2922.41	0.000776
2932.06	0.000823
2941.7	0.00071525
2951.35	0.0007966
2960.99	0.0008752
2970.64	0.0009399
2980.28	0.0009783
2989.93	0.0011826
2999.57	0.001813
3009.22	0.003103
3018.86	0.006353
3028.51	0.011183
3038.15	0.012523
3047.8	0.010553
3057.44	0.011903
3067.09	0.019663
3076.73	0.024073
3086.38	0.016593
3096.02	0.009233
3105.67	0.005363
3115.31	0.003093
3124.95	0.0014149
3134.6	0.0010435
3144.24	0.0009302
3153.89	0.0005769
3163.53	0.000519
3173.18	0.0008929
3182.82	0.000628932
3192.47	0.00067389
3202.11	0.000476
3211.76	0.0005
3221.4	0.000392
3231.05	0.000262
3240.69	0.00046
3250.34	0.0005714
3259.98	0.00045
3269.63	0.000303
3279.27	0.000225
3288.92	0.000427
3298.56	0.000285
3308.21	0.0005233
3317.85	0.0005265
3327.49	0.000447
3337.14	0.0005319
3346.78	0.000452
3356.43	0.000456
3366.07	0.000318
3375.72	0.000417
3385.36	0.000417
3395.01	0.000279
3404.65	0.000239
3414.3	0.00064095
3423.94	0.000432
3433.59	0.0006113
3443.23	0.000475
3452.88	0.000503
3462.52	0.000302
3472.17	0.000346
3481.81	3.4e-05
3491.46	0.000437
3501.1	0.000444
3510.75	0.000248
3520.39	0.000222
3530.04	0.000245
3539.68	0.000381
3549.32	0.000214
3558.97	0.000328
3568.61	0.0005856
3578.26	0.0007795
3587.9	0.000302
3597.55	0.000429
3607.19	0.000233
3616.84	9.8e-05
3626.48	0.000368
3636.13	0.0005287
3645.77	0.000488
3655.42	0.0005967
3665.06	0.000339
3674.71	0.0005551
3684.35	0.000573
3694	0.0005903
3703.64	0.000432
3713.29	0.000592
3722.93	0.000402
3732.58	0.000504
3742.22	0.000495
3751.86	0.000429
3761.51	0.0005361
3771.15	0.0005551
3780.8	0.000455
3790.44	0.00064948
3800.09	0.00039
3809.73	0.000361
3819.38	0.000437
3829.02	0.000197
3838.67	0.000494
3848.31	0.0005723
3857.96	0.000462
3867.6	0.000322
3877.25	0.000428
3886.89	0.000339
3896.54	0.000381
3906.18	0.0005396
3915.83	0.000337
3925.47	0.0005624
3935.12	0.000398
3944.76	0.000339
3954.41	0.0005484
3964.05	0.000474
3973.69	0.000278
3983.34	0.000333
3992.98	0.000361
