Infrared Spectrum: Benzyl azide
Formula: C 7 H 7 N 3
CAS: 622-79-7
State: gas
Instrument: HP-GC/MS/IRD
Origin: NIST Mass Spectrometry Data Center
1/CM	ABSORBANCE
550	0.0016988
562	0.002418
574	0.0029264
586	0.001674
598	0.0010912
610	0.001178
622	0.0014384
634	0.001488
646	0.0024552
658	0.0042408
670	0.0071176
682	0.0129208
694	0.0198276
706	0.019654
718	0.015128
730	0.0139996
742	0.0135408
754	0.0080972
766	0.0028272
778	0.0012524
790	0.0013764
802	0.0019344
814	0.002604
826	0.0025544
838	0.0016864
850	0.0012276
862	0.001798
874	0.0036704
886	0.0044268
898	0.0031744
910	0.0020212
922	0.0015004
934	0.0011036
946	0.0007564
958	0.00062
970	0.00031
982	8.68e-05
994	9.92e-05
1006	0.0002604
1018	0.0009796
1030	0.001488
1042	0.0002976
1054	0.0002604
1066	0.0010044
1078	0.0013392
1090	0.0013516
1102	0.0008556
1114	0.0008432
1126	0.0011284
1138	0.0021204
1150	0.0032984
1162	0.0044516
1174	0.0060016
1186	0.0078368
1198	0.0100316
1210	0.0118916
1222	0.0138508
1234	0.018104
1246	0.0251472
1258	0.0310248
1270	0.029078
1282	0.0217248
1294	0.0163928
1306	0.014198
1318	0.0126852
1330	0.0127348
1342	0.0131812
1354	0.0091636
1366	0.0041416
1378	0.0027528
1390	0.0020956
1402	0.0015252
1414	0.00124
1426	0.0017732
1438	0.0037696
1450	0.0063116
1462	0.0053196
1474	0.0023808
1486	0.0028768
1498	0.0042904
1510	0.0016492
1522	0.0003472
1534	0.0002604
1546	0.0002232
1558	0.0004464
1570	0.0010416
1582	0.0015004
1594	0.001736
1606	0.001922
1618	0.0022568
1630	0.0034224
1642	0.0029264
1654	0.000868
1666	0.0002356
1678	3.72e-05
1690	0
1702	1.24e-05
1714	7.44e-05
1726	0.0001364
1738	0.0002976
1750	0.0003596
1762	0.0003968
1774	0.0004712
1786	0.0007812
1798	0.0011532
1810	0.0006944
1822	0.0003348
1834	0.000248
1846	0.0003472
1858	0.000558
1870	0.0007316
1882	0.0007564
1894	0.0006324
1906	0.0004216
1918	0.0005084
1930	0.000868
1942	0.0012152
1954	0.0013888
1966	0.0010044
1978	0.0006944
1990	0.0009176
2002	0.0015748
2014	0.002728
2026	0.005022
2038	0.0096844
2050	0.0186868
2062	0.0346084
2074	0.0605864
2086	0.0969184
2098	0.124
2110	0.105016
2122	0.0643684
2134	0.0431892
2146	0.0300328
2158	0.0205592
2170	0.0149048
2182	0.01178
2194	0.009672
2206	0.007936
2218	0.0062372
2230	0.0046376
2242	0.0033976
2254	0.00248
2266	0.0018724
2278	0.0013764
2290	0.001054
2302	0.0008928
2314	0.0008184
2326	0.0007564
2338	0.0006324
2350	0.0005952
2362	0.00062
2374	0.000558
2386	0.0005952
2398	0.00062
2410	0.0007564
2422	0.0009176
2434	0.001116
2446	0.0012152
2458	0.0012152
2470	0.0012524
2482	0.0012772
2494	0.001302
2506	0.00124
2518	0.0010788
2530	0.0009424
2542	0.0007812
2554	0.000682
2566	0.0005704
2578	0.0005332
2590	0.0004712
2602	0.0004092
2614	0.0002356
2626	0.0001612
2638	0.0001984
2650	0.0001612
2662	0.0001364
2674	8.68e-05
2686	7.44e-05
2698	7.44e-05
2710	6.2e-05
2722	1.24e-05
2734	3.72e-05
2746	6.2e-05
2758	8.68e-05
2770	0.000186
2782	0.0003472
2794	0.0004216
2806	0.0004464
2818	0.0004836
2830	0.0007688
2842	0.0015004
2854	0.002418
2866	0.0040424
2878	0.0058652
2890	0.0061008
2902	0.0054312
2914	0.00527
2926	0.0058528
2938	0.005828
2950	0.004774
2962	0.0038936
2974	0.0034348
2986	0.0028396
2998	0.00248
3010	0.003534
3022	0.0068572
3034	0.011346
3046	0.0107756
3058	0.0085808
3070	0.0122636
3082	0.0116188
3094	0.0070432
3106	0.004526
3118	0.0022072
3130	0.000744
3142	0.00031
3154	0.0001488
3166	0.0001612
3178	8.68e-05
3190	0
3202	2.48e-05
3214	9.92e-05
3226	0.0001488
3238	0.0002604
3250	0.000434
3262	0.0005828
3274	0.0006572
3286	0.0007688
3298	0.0008804
3310	0.000868
3322	0.0010416
3334	0.0009176
3346	0.0009052
3358	0.0008184
3370	0.000744
3382	0.0006572
3394	0.0005704
3406	0.0004588
3418	0.0004092
3430	0.0003968
3442	0.0003968
3454	0.00031
3466	0.000248
3478	0.0001612
3490	0.0001612
3502	0.0001116
3514	7.44e-05
3526	2.48e-05
3538	7.44e-05
3550	7.44e-05
3562	2.48e-05
3574	1.24e-05
3586	7.44e-05
3598	0.0001116
3610	8.68e-05
3622	0.0001364
3634	0.0001116
3646	0.000124
3658	0.0001984
3670	7.44e-05
3682	8.68e-05
3694	0.0001116
3706	9.92e-05
3718	1.24e-05
3730	0
3742	9.92e-05
3754	0
3766	0
3778	0
3790	1.24e-05
3802	1.24e-05
3814	1.24e-05
3826	0
3838	6.2e-05
