Infrared Spectrum: 4-Methylstyrene
Formula: C 9 H 10
CAS: 622-97-9
State: gas
Instrument: HP-GC/MS/IRD
Origin: NIST Mass Spectrometry Data Center
1/CM	ABSORBANCE
550	0.0001595
562	0.0003102
574	0.0002904
586	0.0001903
598	0.0001639
610	0.0001078
622	3.08e-05
634	0.0001034
646	1.21e-05
658	0.0001969
670	0.0001903
682	9.35e-05
694	0.000198
706	0.000506
718	0.0006809
730	0.0006391
742	0.0004895
754	0.0003135
766	0.0005302
778	0.0005522
790	0.0010637
802	0.0037345
814	0.0073744
826	0.0089606
838	0.0051678
850	0.001892
862	0.0011352
874	0.0013277
886	0.0025003
898	0.004741
910	0.0065824
922	0.0041987
934	0.0019745
946	0.0011902
958	0.0016038
970	0.0025047
982	0.0033759
994	0.0030338
1006	0.0022352
1018	0.0021197
1030	0.001705
1042	0.0012529
1054	0.0007744
1066	0.0005324
1078	0.0004235
1090	0.0004928
1102	0.0008844
1114	0.0012705
1126	0.001067
1138	0.0004873
1150	0.0002464
1162	0.0002057
1174	0.0006677
1186	0.0008701
1198	0.0006028
1210	0.0004675
1222	0.0004895
1234	0.0004873
1246	0.0004202
1258	0.0005071
1270	0.000594
1282	0.0005995
1294	0.0006028
1306	0.0005797
1318	0.0005148
1330	0.000539
1342	0.0004686
1354	0.0004906
1366	0.0005533
1378	0.0008382
1390	0.0013398
1402	0.0016489
1414	0.0017259
1426	0.0014069
1438	0.0010142
1450	0.0008723
1462	0.0009394
1474	0.0009724
1486	0.0012969
1498	0.0036993
1510	0.0075207
1522	0.0048598
1534	0.0012034
1546	0.0010175
1558	0.0010329
1570	0.0010879
1582	0.0009625
1594	0.0009834
1606	0.0015356
1618	0.0029271
1630	0.0042174
1642	0.0030591
1654	0.0011759
1666	0.0005577
1678	0.000341
1690	0.0002706
1702	0.0002244
1714	0.0002178
1726	0.0002123
1738	0.0002079
1750	0.0003036
1762	0.0004213
1774	0.0005148
1786	0.000594
1798	0.0006314
1810	0.0010802
1822	0.0013684
1834	0.0008239
1846	0.0003575
1858	0.0002607
1870	0.0004158
1882	0.000748
1894	0.0008382
1906	0.000627
1918	0.0002805
1930	0.0001617
1942	0.0001705
1954	0.0001771
1966	0.0001892
1978	0.0001386
1990	7.59e-05
2002	0.0001078
2014	6.05e-05
2026	6.82e-05
2038	6.71e-05
2050	8.14e-05
2062	7.15e-05
2074	7.15e-05
2086	6.27e-05
2098	5.28e-05
2110	2.64e-05
2122	2.2e-05
2134	3.08e-05
2146	2.09e-05
2158	6.6e-06
2170	1.54e-05
2182	9.9e-06
2194	2.2e-05
2206	4.29e-05
2218	6.6e-06
2230	2.53e-05
2242	1.76e-05
2254	3.85e-05
2266	2.53e-05
2278	6.38e-05
2290	7.7e-05
2302	0.0001144
2314	8.36e-05
2326	0.0001199
2338	0.0001012
2350	8.91e-05
2362	4.73e-05
2374	6.16e-05
2386	7.26e-05
2398	6.05e-05
2410	8.36e-05
2422	0.0001089
2434	8.25e-05
2446	9.35e-05
2458	5.5e-05
2470	3.3e-05
2482	4.4e-05
2494	5.94e-05
2506	7.15e-05
2518	5.94e-05
2530	5.5e-05
2542	6.49e-05
2554	3.85e-05
2566	0.0001056
2578	0.0001045
2590	0.0001012
2602	0.0001144
2614	7.15e-05
2626	0.00011
2638	7.37e-05
2650	5.39e-05
2662	7.48e-05
2674	8.47e-05
2686	7.26e-05
2698	9.02e-05
2710	0.0001221
2722	0.0001298
2734	0.0002959
2746	0.0003465
2758	0.0001991
2770	0.0001111
2782	0.0001529
2794	0.0001958
2806	0.0003311
2818	0.000407
2830	0.0005566
2842	0.0007667
2854	0.0013541
2866	0.0024178
2878	0.0034199
2890	0.0031823
2902	0.0028655
2914	0.0036938
2926	0.0059279
2938	0.0062601
2950	0.0037356
2962	0.0027808
2974	0.0032912
2986	0.0043626
2998	0.0058575
3010	0.0089056
3022	0.0106249
3034	0.0087373
3046	0.0069234
3058	0.0061897
3070	0.0054109
3082	0.0055748
3094	0.0060907
3106	0.0037114
3118	0.0013662
3130	0.0008338
3142	0.0005313
3154	0.0003003
3166	0.0001639
3178	0.0001342
3190	0.0001287
3202	0.000176
3214	0.0001705
3226	0.0001397
3238	0.0001122
3250	0.0001309
3262	8.36e-05
3274	0.0001287
3286	6.71e-05
3298	9.13e-05
3310	7.48e-05
3322	0.0001265
3334	0.0001012
3346	0.0001287
3358	6.93e-05
3370	6.05e-05
3382	7.04e-05
3394	0.0001221
3406	7.59e-05
3418	8.58e-05
3430	0.0001265
3442	7.92e-05
3454	9.57e-05
3466	7.7e-05
3478	1.76e-05
3490	7.04e-05
3502	2.75e-05
3514	3.52e-05
3526	8.25e-05
3538	9.57e-05
3550	6.49e-05
3562	0.0001122
3574	8.8e-05
3586	0.0001122
3598	9.79e-05
3610	5.39e-05
3622	9.24e-05
3634	0.0001628
3646	7.59e-05
3658	0.0001331
3670	0.0001628
3682	0.0001628
3694	0.0001331
3706	8.58e-05
3718	0.0001012
3730	5.83e-05
3742	0.0001782
3754	0.0001122
3766	4.18e-05
3778	6.93e-05
3790	8.8e-05
3802	0.0001144
3814	0.0001397
3826	7.59e-05
3838	0.0001463
