Infrared Spectrum: N,N'-DIPHENYLFORMAMIDINE
Formula: C13 H12 N2
CAS: 622-15-1
State: SOLID (MINERAL OIL MULL)
Melting point: 138-140 C
Class: COBLENTZ
Instrument: Not specified, most likely a prism, grating, or hybrid spectrometer.
Sampling: TRANSMISSION
Resolution: 4
Origin: WYANDOTTE CHEMICALS CORP., WYANDOTTE, MICHIGAN, USA
MICROMETERS	TRANSMITTANCE
2.027	0.323
2.06786	0.328
2.10871	0.333
2.14957	0.345
2.19042	0.348
2.23128	0.353
2.27213	0.372
2.31299	0.386
2.35384	0.396
2.3947	0.4
2.43556	0.408
2.47641	0.408
2.51727	0.413
2.55812	0.432
2.59898	0.437
2.63983	0.452
2.68069	0.461
2.72154	0.464
2.7624	0.463
2.80326	0.468
2.84411	0.468
2.88497	0.473
2.92582	0.478
2.96668	0.482
3.00753	0.48
3.04839	0.447
3.08925	0.403
3.1301	0.305
3.17096	0.256
3.21181	0.254
3.25267	0.217
3.29352	0.17
3.33438	0.131
3.37523	0.058
3.41609	0.035
3.45695	0.076
3.4978	0.07
3.53866	0.188
3.57951	0.278
3.62037	0.345
3.66122	0.362
3.70208	0.403
3.74293	0.451
3.78379	0.475
3.82465	0.504
3.8655	0.524
3.90636	0.538
3.94721	0.547
3.98807	0.569
4.02892	0.584
4.06978	0.603
4.11063	0.611
4.15149	0.618
4.19235	0.62
4.2332	0.627
4.27406	0.62
4.31491	0.647
4.35577	0.676
4.39662	0.688
4.43748	0.699
4.47833	0.707
4.51919	0.724
4.56005	0.729
4.6009	0.736
4.64176	0.747
4.68261	0.764
4.72347	0.77
4.76432	0.774
4.80518	0.784
4.84604	0.798
4.88689	0.805
4.92775	0.82
4.9686	0.82
5.00946	0.813
5.05031	0.827
5.09117	0.834
5.13202	0.825
5.17288	0.798
5.21374	0.81
5.25459	0.856
5.29545	0.875
5.3363	0.883
5.37716	0.861
5.41801	0.883
5.45887	0.935
5.49972	0.94
5.54058	0.923
5.58144	0.921
5.62229	0.95
5.66315	0.962
5.704	0.911
5.74486	0.859
5.78571	0.757
5.82657	0.594
5.86742	0.422
5.90828	0.188
5.94914	0.075
5.98999	0.078
6.03085	0.136
6.0717	0.435
6.11256	0.603
6.15341	0.652
6.19427	0.235
6.23513	0.129
6.27598	0.068
6.31684	0.282
6.35769	0.425
6.39855	0.533
6.4394	0.545
6.48026	0.635
6.52111	0.647
6.56197	0.494
6.60283	0.341
6.64368	0.21
6.68454	0.092
6.72539	0.162
6.76625	0.29
6.8071	0.294
6.84796	0.331
6.88881	0.384
6.92967	0.425
6.97053	0.598
7.01138	0.654
7.05224	0.702
7.09309	0.709
7.13395	0.705
7.1748	0.721
7.21566	0.632
7.25651	0.577
7.29737	0.694
7.33823	0.765
7.37908	0.735
7.41994	0.581
7.46079	0.271
7.50165	0.189
7.5425	0.126
7.58336	0.102
7.62421	0.102
7.66507	0.126
7.70593	0.241
7.74678	0.367
7.78764	0.389
7.82849	0.374
7.86935	0.514
7.9102	0.565
7.95106	0.586
7.99192	0.605
8.03277	0.615
8.07363	0.605
8.11448	0.471
8.15534	0.49
8.19619	0.441
8.23705	0.189
8.2779	0.09
8.31876	0.328
8.35962	0.482
8.40047	0.54
8.44133	0.497
8.48218	0.384
8.52304	0.276
8.56389	0.47
8.60475	0.588
8.6456	0.478
8.68646	0.56
8.72732	0.625
8.76817	0.644
8.80903	0.661
8.84988	0.666
8.89074	0.67
8.93159	0.666
8.97245	0.658
9.0133	0.668
9.05416	0.67
9.09502	0.671
9.13587	0.678
9.17673	0.676
9.21758	0.598
9.25844	0.502
9.29929	0.61
9.34015	0.687
9.381	0.714
9.42186	0.728
9.46272	0.736
9.50357	0.748
9.54443	0.752
9.58528	0.752
9.62614	0.752
9.66699	0.735
9.70785	0.661
9.74871	0.62
9.78956	0.675
9.83042	0.709
9.87127	0.721
9.91213	0.723
9.95298	0.605
9.99384	0.6
10.0347	0.668
10.0755	0.454
10.1164	0.275
10.1573	0.427
10.1981	0.6
10.239	0.678
10.2798	0.745
10.3207	0.757
10.3615	0.758
10.4024	0.753
10.4433	0.796
10.4841	0.829
10.525	0.837
10.5658	0.847
10.6067	0.852
10.6475	0.854
10.6884	0.854
10.7292	0.852
10.7701	0.854
10.811	0.852
10.8518	0.849
10.8927	0.825
10.9335	0.757
10.9744	0.594
11.0152	0.652
11.0561	0.634
11.0969	0.49
11.1378	0.482
11.1787	0.61
11.2195	0.659
11.2604	0.8
11.3012	0.864
11.3421	0.895
11.3829	0.902
11.4238	0.904
11.4646	0.9
11.5055	0.892
11.5464	0.885
11.5872	0.876
11.6281	0.871
11.6689	0.875
11.7098	0.875
11.7506	0.87
11.7915	0.859
11.8323	0.841
11.8732	0.811
11.9141	0.803
11.9549	0.801
11.9958	0.781
12.0366	0.782
12.0775	0.805
12.1183	0.796
12.1592	0.753
12.2	0.738
12.2409	0.75
12.2818	0.748
12.3226	0.712
12.3635	0.586
12.4043	0.418
12.4452	0.377
12.486	0.454
12.5269	0.529
12.5677	0.552
12.6086	0.557
12.6495	0.538
12.6903	0.521
12.7312	0.517
12.772	0.507
12.8129	0.5
12.8537	0.466
12.8946	0.352
12.9354	0.258
12.9763	0.188
13.0172	0.095
13.058	0.078
13.0989	0.114
13.1397	0.138
13.1806	0.102
13.2214	0.061
13.2623	0.056
13.3031	0.116
13.344	0.234
13.3849	0.379
13.4257	0.475
13.4666	0.526
13.5074	0.567
13.5483	0.593
13.5891	0.613
13.63	0.632
13.6708	0.658
13.7117	0.673
13.7526	0.688
13.7934	0.702
13.8343	0.716
13.8751	0.717
13.916	0.723
13.9568	0.731
13.9977	0.74
14.0385	0.731
14.0794	0.714
14.1203	0.652
14.1611	0.567
14.202	0.463
14.2428	0.309
14.2837	0.246
14.3245	0.189
14.3654	0.158
14.4062	0.121
14.4471	0.105
14.488	0.133
14.5288	0.242
14.5697	0.425
14.6105	0.601
14.6514	0.699
14.6922	0.745
14.7331	0.782
14.7739	0.8
14.8148	0.805
14.8557	0.806
14.8965	0.806
14.9374	0.798
14.9782	0.764
15.0191	0.724
15.0599	0.658
15.1008	0.632
15.1416	0.651
15.1825	0.694
15.2234	0.723
15.2642	0.736
15.3051	0.728
15.3459	0.728
15.3868	0.729
15.4276	0.729
15.4685	0.724
15.5093	0.712
15.5502	0.697
15.5911	0.694
15.6319	0.678
15.6728	0.663
15.7136	0.647
15.7545	0.635
15.7953	0.618
15.8362	0.61
15.877	0.596
15.9179	0.584
15.9588	0.567
