Infrared Spectrum: p-Tolueneacetic acid
Formula: C 9 H 10 O 2
CAS: 622-47-9
State: gas
Origin: EPA-IR VAPOR PHASE LIBRARY
1/CM	ABSORBANCE
549.8	0.02423
559.445	0.03095
569.09	0.02325
578.734	0.01853
588.379	0.02408
598.024	0.03125
607.669	0.03368
617.313	0.03006
626.958	0.02603
636.603	0.02153
646.248	0.0166
655.893	0.0141
665.537	0.01371
675.182	0.01625
684.827	0.02022
694.472	0.01671
704.116	0.01007
713.761	0.00676
723.406	0.00474
733.051	0.00371
742.695	0.00377
752.34	0.00549
761.985	0.00882
771.63	0.01307
781.275	0.0151
790.919	0.01682
800.564	0.01714
810.209	0.01219
819.854	0.00655
829.498	0.00421
839.143	0.00443
848.788	0.00487
858.433	0.00447
868.078	0.00429
877.722	0.00432
887.367	0.00441
897.012	0.00416
906.657	0.00391
916.301	0.00393
925.946	0.0044
935.591	0.00478
945.236	0.00421
954.88	0.00366
964.525	0.00326
974.17	0.00303
983.815	0.00266
993.46	0.00248
1003.1	0.00251
1012.75	0.00425
1022.39	0.00685
1032.04	0.0052
1041.68	0.00497
1051.33	0.00671
1060.97	0.00976
1070.62	0.01578
1080.26	0.02707
1089.91	0.04761
1099.55	0.08278
1109.2	0.12155
1118.84	0.11289
1128.49	0.07145
1138.13	0.04662
1147.78	0.03086
1157.42	0.02182
1167.07	0.01869
1176.71	0.01841
1186.36	0.02027
1196	0.02288
1205.64	0.02549
1215.29	0.02294
1224.93	0.01802
1234.58	0.0147
1244.22	0.01233
1253.87	0.01115
1263.51	0.01054
1273.16	0.01084
1282.8	0.01163
1292.45	0.01242
1302.09	0.01224
1311.74	0.01157
1321.38	0.01212
1331.03	0.01463
1340.67	0.01871
1350.32	0.02235
1359.96	0.02193
1369.61	0.01809
1379.25	0.01309
1388.9	0.00968
1398.54	0.00802
1408.18	0.0087
1417.83	0.01049
1427.47	0.01149
1437.12	0.0105
1446.76	0.00803
1456.41	0.00599
1466.05	0.00497
1475.7	0.00446
1485.34	0.00479
1494.99	0.00689
1504.63	0.01485
1514.28	0.02929
1523.92	0.02026
1533.57	0.00513
1543.21	0.00314
1552.86	0.00237
1562.5	0.00198
1572.15	0.00194
1581.79	0.00196
1591.44	0.00214
1601.08	0.00229
1610.73	0.00266
1620.37	0.00283
1630.01	0.00257
1639.66	0.00213
1649.3	0.00184
1658.95	0.0018
1668.59	0.00201
1678.24	0.00242
1687.88	0.00311
1697.53	0.0042
1707.17	0.00589
1716.82	0.00886
1726.46	0.01417
1736.11	0.02405
1745.75	0.041
1755.4	0.06537
1765.04	0.09484
1774.69	0.12603
1784.33	0.12867
1793.98	0.0966
1803.62	0.06062
1813.27	0.03113
1822.91	0.01505
1832.55	0.00803
1842.2	0.00489
1851.84	0.00342
1861.49	0.0028
1871.13	0.00267
1880.78	0.00292
1890.42	0.00318
1900.07	0.00296
1909.71	0.00232
1919.36	0.00166
1929	0.00129
1938.65	0.0011061
1948.29	0.0010678
1957.94	0.00113
1967.58	0.00113
1977.23	0.00118
1986.87	0.00122
1996.52	0.0010811
2006.16	0.0009316
2015.81	0.0007859
2025.45	0.0006789
2035.1	0.0006058
2044.74	0.0005473
2054.38	0.0004613
2064.03	0.0004822
2073.67	0.0004803
2083.32	0.0004746
2092.96	0.000473
2102.61	0.0004659
2112.25	0.0004637
2121.9	0.0004593
2131.54	0.0005059
2141.19	0.0005181
2150.83	0.000547
2160.48	0.0005516
2170.12	0.000586
2179.77	0.0006785
2189.41	0.0007031
2199.06	0.0007633
2208.7	0.00087
2218.35	0.0008717
2227.99	0.000742
2237.64	0.0007141
2247.28	0.0006159
2256.92	0.0005769
2266.57	0.0005276
2276.21	0.0004884
2285.86	0.0005638
2295.5	0.0007082
2305.15	0.0007426
2314.79	0.0007847
2324.44	0.0006985
2334.08	0.0006833
2343.73	0.0006539
2353.37	0.0006703
2363.02	0.0005656
2372.66	0.0006156
2382.31	0.0006291
2391.95	0.0006141
2401.6	0.00057
2411.24	0.0005769
2420.89	0.0005114
2430.53	0.0005557
2440.18	0.0005495
2449.82	0.0006071
2459.47	0.0005405
2469.11	0.0005683
2478.75	0.0005085
2488.4	0.0004579
2498.04	0.0003933
2507.69	0.0003703
2517.33	0.0003801
2526.98	0.0003571
2536.62	0.0003127
2546.27	0.0003338
2555.91	0.000316
2565.56	0.0003293
2575.2	0.0004006
2584.85	0.0005405
2594.49	0.0005459
2604.14	0.0004778
2613.78	0.000418
2623.43	0.0004223
2633.07	0.0004707
2642.72	0.0004452
2652.36	0.0003337
2662.01	0.000332
2671.65	0.000365
2681.29	0.0003512
2690.94	0.0003821
2700.58	0.0003423
2710.23	0.00046
2719.87	0.0005686
2729.52	0.0007457
2739.16	0.0010428
2748.81	0.0009363
2758.45	0.0005747
2768.1	0.000448
2777.74	0.0004819
2787.39	0.0005051
2797.03	0.0007024
2806.68	0.0008925
2816.32	0.00115
2825.97	0.00148
2835.61	0.00206
2845.26	0.00278
2854.9	0.00411
2864.55	0.00638
2874.19	0.00915
2883.84	0.00992
2893.48	0.00886
2903.12	0.00887
2912.77	0.01114
2922.41	0.0168
2932.06	0.02349
2941.7	0.02104
2951.35	0.01301
2960.99	0.00941
2970.64	0.00843
2980.28	0.00937
2989.93	0.01146
2999.57	0.01369
3009.22	0.01611
3018.86	0.02013
3028.51	0.02451
3038.15	0.02065
3047.8	0.01568
3057.44	0.01442
3067.09	0.01162
3076.73	0.0079
3086.38	0.00593
3096.02	0.00479
3105.67	0.00372
3115.31	0.00246
3124.95	0.00199
3134.6	0.00178
3144.24	0.00121
3153.89	0.0006254
3163.53	0.0003415
3173.18	0.0003165
3182.82	0.0002946
3192.47	0.00018149
3202.11	0.0002507
3211.76	0.00020155
3221.4	0.00016206
3231.05	0.00015609
3240.69	0.00015853
3250.34	0.00018119
3259.98	5.9e-05
3269.63	0.00021904
3279.27	0.00015095
3288.92	0.00011416
3298.56	0.00021925
3308.21	9.15e-05
3317.85	6.14e-05
3327.49	0.0001037
3337.14	1.5e-05
3346.78	0.0002452
3356.43	0.00018968
3366.07	8.75e-05
3375.72	0.00019411
3385.36	7.9e-05
3395.01	0.00014323
3404.65	0.0002592
3414.3	0.00019587
3423.94	0.0002374
3433.59	0.00020621
3443.23	0.0002416
3452.88	0.0002876
3462.52	0.000299
3472.17	0.0003983
3481.81	0.0005727
3491.46	0.0007219
3501.1	0.0010724
3510.75	0.00134
3520.39	0.00176
3530.04	0.00245
3539.68	0.00391
3549.32	0.00732
3558.97	0.01568
3568.61	0.04674
3578.26	0.05441
3587.9	0.01977
3597.55	0.00706
3607.19	0.00336
3616.84	0.00187
3626.48	0.00124
3636.13	0.0009682
3645.77	0.0007553
3655.42	0.0006591
3665.06	0.0005834
3674.71	0.0005717
3684.35	0.0005468
3694	0.0004465
3703.64	0.0002954
3713.29	0.00015331
3722.93	0.00023
3732.58	0.0002242
3742.22	0.0003778
3751.86	0.0002669
3761.51	0.000299
3771.15	0.00017239
3780.8	0.00020406
3790.44	0.0003223
3800.09	0.00027
3809.73	0.0002221
3819.38	0.0003154
3829.02	0.0003809
3838.67	0.0003245
3848.31	0.0003904
3857.96	0.0003271
3867.6	0.0004091
3877.25	0.0002914
3886.89	0.0004782
3896.54	0.0002972
3906.18	0.0004274
3915.83	0.0003917
3925.47	0.0002432
3935.12	0.0003069
3944.76	0.0003284
3954.41	0.0003635
3964.05	0.0002361
3973.69	0.0002568
3983.34	0.0003806
3992.98	0.0004047
