Infrared Spectrum: BIS-(2-PHENOXYETHYL)ETHER
Formula: C16 H18 O3
CAS: 622-87-7
State: SOLID (MINERAL OIL MULL)
Melting point: 64-66 C
Class: COBLENTZ
Instrument: Not specified, most likely a prism, grating, or hybrid spectrometer.
Sampling: TRANSMISSION
Resolution: 4
Origin: WYANDOTTE CHEMICALS CORP., WYANDOTTE, MICHIGAN, USA
MICROMETERS	TRANSMITTANCE
2.007	0.476
2.04679	0.488
2.08658	0.498
2.12637	0.503
2.16616	0.496
2.20595	0.495
2.24574	0.5
2.28553	0.508
2.32532	0.514
2.36511	0.521
2.40491	0.529
2.4447	0.534
2.48449	0.536
2.52428	0.549
2.56407	0.568
2.60386	0.568
2.64365	0.588
2.68344	0.578
2.72323	0.588
2.76302	0.588
2.80281	0.576
2.8426	0.571
2.88239	0.571
2.92218	0.574
2.96197	0.576
3.00176	0.576
3.04155	0.578
3.08134	0.578
3.12113	0.578
3.16093	0.573
3.20072	0.554
3.24051	0.41
3.2803	0.443
3.32009	0.227
3.35988	0.043
3.39967	0.036
3.43946	0.049
3.47925	0.068
3.51904	0.35
3.55883	0.573
3.59862	0.649
3.63841	0.636
3.6782	0.651
3.71799	0.681
3.75778	0.699
3.79757	0.705
3.83736	0.715
3.87715	0.729
3.91695	0.722
3.95674	0.722
3.99653	0.742
4.03632	0.732
4.07611	0.742
4.1159	0.759
4.15569	0.759
4.19548	0.757
4.23527	0.732
4.27506	0.739
4.31485	0.765
4.35464	0.812
4.39443	0.803
4.43422	0.799
4.47401	0.81
4.5138	0.808
4.55359	0.817
4.59338	0.825
4.63317	0.827
4.67296	0.837
4.71276	0.837
4.75255	0.84
4.79234	0.842
4.83213	0.848
4.87192	0.857
4.91171	0.848
4.9515	0.789
4.99129	0.833
5.03108	0.85
5.07087	0.848
5.11066	0.828
5.15045	0.85
5.19024	0.822
5.23003	0.848
5.26982	0.888
5.30961	0.898
5.3494	0.89
5.38919	0.878
5.42898	0.858
5.46878	0.87
5.50857	0.913
5.54836	0.898
5.58815	0.888
5.62794	0.848
5.66773	0.915
5.70752	0.898
5.74731	0.892
5.7871	0.875
5.82689	0.87
5.86668	0.858
5.90647	0.862
5.94626	0.883
5.98605	0.88
6.02584	0.857
6.06563	0.872
6.10542	0.86
6.14521	0.755
6.185	0.355
6.2248	0.259
6.26459	0.209
6.30438	0.596
6.34417	0.77
6.38396	0.828
6.42375	0.797
6.46354	0.802
6.50333	0.799
6.54312	0.715
6.58291	0.564
6.6227	0.162
6.66249	0.154
6.70228	0.187
6.74207	0.357
6.78186	0.234
6.82165	0.142
6.86144	0.107
6.90123	0.39
6.94102	0.596
6.98082	0.676
7.02061	0.779
7.0604	0.807
7.10019	0.803
7.13998	0.745
7.17977	0.636
7.21956	0.345
7.25935	0.416
7.29914	0.588
7.33893	0.44
7.37872	0.606
7.41851	0.661
7.4583	0.694
7.49809	0.752
7.53788	0.691
7.57767	0.72
7.61746	0.48
7.65725	0.207
7.69704	0.47
7.73684	0.35
7.77663	0.47
7.81642	0.631
7.85621	0.639
7.896	0.563
7.93579	0.34
7.97558	0.104
8.01537	0.041
8.05516	0.056
8.09495	0.081
8.13474	0.131
8.17453	0.28
8.21432	0.421
8.25411	0.491
8.2939	0.541
8.33369	0.626
8.37348	0.679
8.41327	0.689
8.45306	0.483
8.49285	0.136
8.53265	0.42
8.57244	0.662
8.61223	0.7
8.65202	0.598
8.69181	0.661
8.7316	0.611
8.77139	0.4
8.81118	0.151
8.85097	0.137
8.89076	0.307
8.93055	0.45
8.97034	0.553
9.01013	0.646
9.04992	0.669
9.08971	0.646
9.1295	0.524
9.16929	0.28
9.20908	0.131
9.24887	0.2
9.28867	0.383
9.32846	0.21
9.36825	0.217
9.40804	0.181
9.44783	0.227
9.48762	0.416
9.52741	0.543
9.5672	0.609
9.60699	0.656
9.64678	0.684
9.68657	0.691
9.72636	0.584
9.76615	0.583
9.80594	0.689
9.84573	0.749
9.88552	0.759
9.92531	0.762
9.9651	0.75
10.0049	0.712
10.0447	0.689
10.0845	0.782
10.1243	0.8
10.1641	0.799
10.2038	0.78
10.2436	0.792
10.2834	0.79
10.3232	0.752
10.363	0.689
10.4028	0.548
10.4426	0.357
10.4824	0.279
10.5222	0.461
10.562	0.601
10.6018	0.666
10.6415	0.682
10.6813	0.607
10.7211	0.398
10.7609	0.264
10.8007	0.406
10.8405	0.561
10.8803	0.548
10.9201	0.377
10.9599	0.486
10.9997	0.666
11.0394	0.742
11.0792	0.782
11.119	0.808
11.1588	0.815
11.1986	0.825
11.2384	0.835
11.2782	0.823
11.318	0.805
11.3578	0.769
11.3976	0.566
11.4374	0.485
11.4771	0.681
11.5169	0.799
11.5567	0.842
11.5965	0.858
11.6363	0.863
11.6761	0.87
11.7159	0.858
11.7557	0.8
11.7955	0.772
11.8353	0.825
11.875	0.857
11.9148	0.878
11.9546	0.887
11.9944	0.892
12.0342	0.888
12.074	0.872
12.1138	0.872
12.1536	0.862
12.1934	0.868
12.2332	0.87
12.273	0.901
12.3127	0.911
12.3525	0.915
12.3923	0.92
12.4321	0.905
12.4719	0.863
12.5117	0.725
12.5515	0.5
12.5913	0.405
12.6311	0.461
12.6709	0.616
12.7107	0.755
12.7504	0.828
12.7902	0.858
12.83	0.873
12.8698	0.885
12.9096	0.887
12.9494	0.88
12.9892	0.865
13.029	0.84
13.0688	0.76
13.1086	0.627
13.1483	0.406
13.1881	0.181
13.2279	0.096
13.2677	0.079
13.3075	0.091
13.3473	0.151
13.3871	0.244
13.4269	0.38
13.4667	0.501
13.5065	0.578
13.5463	0.634
13.586	0.671
13.6258	0.7
13.6656	0.73
13.7054	0.742
13.7452	0.757
13.785	0.762
13.8248	0.78
13.8646	0.78
13.9044	0.782
13.9442	0.799
13.9839	0.813
14.0237	0.828
14.0635	0.837
14.1033	0.847
14.1431	0.85
14.1829	0.85
14.2227	0.84
14.2625	0.838
14.3023	0.823
14.3421	0.8
14.3819	0.752
14.4216	0.686
14.4614	0.559
14.5012	0.433
14.541	0.307
14.5808	0.27
14.6206	0.328
14.6604	0.46
14.7002	0.569
14.74	0.657
14.7798	0.699
14.8195	0.725
14.8593	0.739
14.8991	0.739
14.9389	0.74
14.9787	0.734
15.0185	0.709
15.0583	0.671
15.0981	0.682
15.1379	0.719
15.1777	0.735
15.2175	0.735
15.2572	0.724
15.297	0.715
15.3368	0.702
15.3766	0.699
15.4164	0.694
15.4562	0.682
15.496	0.669
15.5358	0.669
15.5756	0.659
15.6154	0.657
15.6551	0.649
15.6949	0.642
15.7347	0.632
15.7745	0.622
15.8143	0.607
15.8541	0.601
15.8939	0.599
15.9337	0.591
15.9735	0.583
