Infrared Spectrum: 1-Chloro-4-ethylbenzene
Formula: C 8 H 9 Cl
CAS: 622-98-0
State: gas
Instrument: HP-GC/MS/IRD
Origin: NIST Mass Spectrometry Data Center
1/CM	ABSORBANCE
550	0.0005334
562	0.0004011
574	0.0001071
586	0.000273
598	0.0003087
610	0.0005061
622	0.0036057
634	0.0041349
646	0.0006678
658	0.0002541
670	9.66e-05
682	2.94e-05
694	4.62e-05
706	0.0003171
718	0.0004893
730	0.0004725
742	0.0005901
754	0.0008337
766	0.0015414
778	0.0030282
790	0.0030072
802	0.0045045
814	0.0080976
826	0.0101031
838	0.0061593
850	0.0021966
862	0.0006552
874	0.0001806
886	0.0001029
898	9.03e-05
910	3.99e-05
922	8.61e-05
934	0.0001113
946	0.0001974
958	0.0004704
970	0.0005712
982	0.0004221
994	0.0004767
1006	0.003885
1018	0.0068481
1030	0.0018165
1042	0.0014616
1054	0.0018123
1066	0.0021126
1078	0.0036981
1090	0.0164682
1102	0.0155652
1114	0.0032235
1126	0.0018858
1138	0.0010395
1150	0.0006258
1162	0.0004599
1174	0.0006447
1186	0.0009429
1198	0.0008736
1210	0.0007308
1222	0.0010941
1234	0.000756
1246	0.0003171
1258	0.0002625
1270	0.0003864
1282	0.0004305
1294	0.0004851
1306	0.0007035
1318	0.0014028
1330	0.0015099
1342	0.00084
1354	0.0006279
1366	0.00063
1378	0.0010332
1390	0.0015141
1402	0.0020349
1414	0.0021315
1426	0.0018921
1438	0.0022134
1450	0.0030408
1462	0.0037632
1474	0.0057582
1486	0.0174384
1498	0.0185787
1510	0.0037695
1522	0.0012495
1534	0.0006615
1546	0.0004431
1558	0.0005775
1570	0.0005502
1582	0.0007686
1594	0.0011487
1606	0.0009177
1618	0.0006573
1630	0.0006783
1642	0.0008274
1654	0.0007686
1666	0.0003234
1678	0.0002247
1690	0.0001932
1702	0.0002814
1714	0.0003045
1726	0.000315
1738	0.0003087
1750	0.0003654
1762	0.0005397
1774	0.0005733
1786	0.0001764
1798	7.56e-05
1810	0.0001197
1822	9.45e-05
1834	0.0001029
1846	0.0001827
1858	0.0002835
1870	0.0006216
1882	0.0010458
1894	0.0009618
1906	0.0004683
1918	0.0001722
1930	9.66e-05
1942	0.0001071
1954	9.03e-05
1966	6.09e-05
1978	6.72e-05
1990	3.15e-05
2002	5.25e-05
2014	6.72e-05
2026	9.03e-05
2038	7.14e-05
2050	5.67e-05
2062	4.2e-05
2074	5.88e-05
2086	4.83e-05
2098	4.62e-05
2110	7.56e-05
2122	4.2e-05
2134	4.83e-05
2146	4.62e-05
2158	5.46e-05
2170	2.1e-05
2182	1.26e-05
2194	3.36e-05
2206	5.67e-05
2218	8.19e-05
2230	6.51e-05
2242	9.03e-05
2254	9.24e-05
2266	0.000105
2278	0.0001659
2290	0.0001596
2302	0.0001596
2314	0.0001239
2326	0.0001848
2338	0.0002184
2350	9.66e-05
2362	0.0002457
2374	7.56e-05
2386	4.2e-05
2398	9.24e-05
2410	0.000105
2422	9.87e-05
2434	0.000105
2446	7.98e-05
2458	5.67e-05
2470	4.2e-05
2482	8.19e-05
2494	7.56e-05
2506	9.87e-05
2518	7.35e-05
2530	0.0001071
2542	9.24e-05
2554	0.0001239
2566	9.87e-05
2578	0.0001428
2590	0.000168
2602	0.0001596
2614	0.0001911
2626	0.0001428
2638	0.0001743
2650	0.0001638
2662	0.0001575
2674	0.0001722
2686	0.0001554
2698	0.0001932
2710	0.0001932
2722	0.0001848
2734	0.0002604
2746	0.0002814
2758	0.0003234
2770	0.0003885
2782	0.0004767
2794	0.0004851
2806	0.0005481
2818	0.0006762
2830	0.0008694
2842	0.0013419
2854	0.0021924
2866	0.0037296
2878	0.0052962
2890	0.0058359
2902	0.0054915
2914	0.0055734
2926	0.0064638
2938	0.0090951
2950	0.0101262
2962	0.010563
2974	0.0173754
2986	0.0112224
2998	0.0048405
3010	0.0032466
3022	0.0037632
3034	0.0047817
3046	0.003654
3058	0.0025851
3070	0.0022029
3082	0.0025767
3094	0.0025557
3106	0.0016968
3118	0.0007959
3130	0.0004515
3142	0.0004116
3154	0.0004347
3166	0.0004305
3178	0.0003465
3190	0.0002499
3202	0.0001701
3214	0.0001974
3226	0.0001113
3238	0.0001029
3250	9.66e-05
3262	0.0001029
3274	0.0001197
3286	2.94e-05
3298	0.0001008
3310	8.19e-05
3322	9.87e-05
3334	8.82e-05
3346	9.66e-05
3358	7.14e-05
3370	0.000126
3382	0.0001134
3394	9.66e-05
3406	0.0001071
3418	5.67e-05
3430	6.72e-05
3442	7.77e-05
3454	8.19e-05
3466	6.72e-05
3478	0.0001218
3490	7.77e-05
3502	9.45e-05
3514	0.0001197
3526	0.0001113
3538	9.24e-05
3550	0.0001323
3562	0.0001113
3574	3.99e-05
3586	9.03e-05
3598	9.45e-05
3610	9.24e-05
3622	6.3e-05
3634	7.98e-05
3646	0.0001365
3658	0.0001491
3670	0.0001365
3682	6.93e-05
3694	0.0001218
3706	0.0001218
3718	0.0001197
3730	0.0001533
3742	0.0001449
3754	0.0001344
3766	0.0001386
3778	9.45e-05
3790	0.0001302
3802	0.0001029
3814	0.0001365
3826	0.0001407
3838	0.0001449
