Infrared Spectrum: 3-DIETHYLAMINO-1-PROPANOL
Formula: C7 H17 N O
CAS: 622-93-5
State: LIQUID
Class: COBLENTZ
Instrument: Not specified, most likely a prism, grating, or hybrid spectrometer.
Sampling: TRANSMISSION
Path length: 0.003 CM
Resolution: 4
Origin: WYANDOTTE CHEMICALS CORP., WYANDOTTE, MICHIGAN, USA
MICROMETERS	TRANSMITTANCE
2.041	0.976
2.08184	0.977
2.12267	0.972
2.16351	0.969
2.20434	0.92
2.24518	0.903
2.28601	0.921
2.32685	0.92
2.36768	0.925
2.40852	0.906
2.44935	0.913
2.49019	0.918
2.53102	0.923
2.57186	0.928
2.61269	0.931
2.65353	0.93
2.69436	0.925
2.7352	0.908
2.77603	0.828
2.81687	0.656
2.8577	0.472
2.89854	0.307
2.93937	0.17
2.98021	0.122
3.02104	0.113
3.06188	0.113
3.10271	0.132
3.14355	0.142
3.18438	0.173
3.22522	0.214
3.26605	0.261
3.30689	0.302
3.34772	0.113
3.38856	0.027
3.42939	0.034
3.47023	0.042
3.51106	0.04
3.5519	0.037
3.59273	0.035
3.63357	0.112
3.6744	0.2
3.71524	0.261
3.75607	0.377
3.79691	0.457
3.83774	0.53
3.87858	0.566
3.91941	0.585
3.96025	0.629
4.00109	0.656
4.04192	0.697
4.08276	0.721
4.12359	0.736
4.16443	0.746
4.20526	0.763
4.2461	0.775
4.28693	0.809
4.32777	0.818
4.3686	0.831
4.40944	0.823
4.45027	0.824
4.49111	0.829
4.53194	0.835
4.57278	0.833
4.61361	0.833
4.65445	0.833
4.69528	0.843
4.73612	0.846
4.77695	0.843
4.81779	0.841
4.85862	0.843
4.89946	0.838
4.94029	0.841
4.98113	0.843
5.02196	0.843
5.0628	0.835
5.10363	0.833
5.14447	0.833
5.1853	0.833
5.22614	0.833
5.26697	0.833
5.30781	0.831
5.34864	0.829
5.38948	0.829
5.43031	0.831
5.47115	0.829
5.51198	0.823
5.55282	0.823
5.59365	0.821
5.63449	0.823
5.67532	0.821
5.71616	0.816
5.75699	0.804
5.79783	0.804
5.83866	0.801
5.8795	0.792
5.92033	0.758
5.96117	0.726
6.00201	0.726
6.04284	0.743
6.08368	0.743
6.12451	0.739
6.16535	0.739
6.20618	0.732
6.24702	0.732
6.28785	0.729
6.32869	0.726
6.36952	0.712
6.41036	0.704
6.45119	0.692
6.49203	0.671
6.53286	0.651
6.5737	0.61
6.61453	0.545
6.65537	0.467
6.6962	0.301
6.73704	0.142
6.77787	0.095
6.81871	0.12
6.85954	0.129
6.90038	0.159
6.94121	0.25
6.98205	0.287
7.02288	0.328
7.06372	0.335
7.10455	0.323
7.14539	0.229
7.18622	0.093
7.22706	0.073
7.26789	0.086
7.30873	0.161
7.34956	0.215
7.3904	0.2
7.43123	0.221
7.47207	0.251
7.5129	0.275
7.55374	0.306
7.59457	0.307
7.63541	0.285
7.67624	0.222
7.71708	0.176
7.75791	0.221
7.79875	0.328
7.83958	0.437
7.88042	0.455
7.92126	0.416
7.96209	0.397
8.00293	0.411
8.04376	0.411
8.0846	0.377
8.12543	0.377
8.16627	0.333
8.2071	0.285
8.24794	0.239
8.28877	0.161
8.32961	0.129
8.37044	0.171
8.41128	0.321
8.45211	0.387
8.49295	0.326
8.53378	0.214
8.57462	0.192
8.61545	0.27
8.65629	0.331
8.69712	0.362
8.73796	0.324
8.77879	0.239
8.81963	0.212
8.86046	0.217
8.9013	0.261
8.94213	0.321
8.98297	0.338
9.0238	0.268
9.06464	0.176
9.10547	0.1
9.14631	0.069
9.18714	0.054
9.22798	0.044
9.26881	0.035
9.30965	0.034
9.35048	0.032
9.39132	0.032
9.43215	0.035
9.47299	0.047
9.51382	0.066
9.55466	0.081
9.59549	0.122
9.63633	0.171
9.67716	0.227
9.718	0.238
9.75883	0.214
9.79967	0.256
9.84051	0.316
9.88134	0.333
9.92218	0.331
9.96301	0.397
10.0038	0.445
10.0447	0.481
10.0855	0.486
10.1264	0.476
10.1672	0.447
10.208	0.44
10.2489	0.46
10.2897	0.5
10.3305	0.539
10.3714	0.568
10.4122	0.586
10.453	0.59
10.4939	0.562
10.5347	0.496
10.5755	0.433
10.6164	0.418
10.6572	0.43
10.698	0.437
10.7389	0.457
10.7797	0.481
10.8205	0.515
10.8614	0.539
10.9022	0.539
10.9431	0.51
10.9839	0.482
11.0247	0.486
11.0656	0.505
11.1064	0.535
11.1472	0.578
11.1881	0.612
11.2289	0.641
11.2697	0.641
11.3106	0.639
11.3514	0.637
11.3922	0.627
11.4331	0.613
11.4739	0.619
11.5147	0.619
11.5556	0.624
11.5964	0.629
11.6372	0.637
11.6781	0.642
11.7189	0.641
11.7598	0.641
11.8006	0.612
11.8414	0.598
11.8823	0.573
11.9231	0.568
11.9639	0.578
12.0048	0.6
12.0456	0.608
12.0864	0.6
12.1273	0.59
12.1681	0.573
12.2089	0.554
12.2498	0.532
12.2906	0.518
12.3314	0.496
12.3723	0.486
12.4131	0.469
12.454	0.454
12.4948	0.445
12.5356	0.447
12.5765	0.443
12.6173	0.447
12.6581	0.43
12.699	0.418
12.7398	0.401
12.7806	0.403
12.8215	0.411
12.8623	0.409
12.9031	0.408
12.944	0.411
12.9848	0.406
13.0256	0.406
13.0665	0.399
13.1073	0.396
13.1481	0.391
13.189	0.384
13.2298	0.389
13.2707	0.394
13.3115	0.399
13.3523	0.401
13.3932	0.391
13.434	0.377
13.4748	0.365
13.5157	0.362
13.5565	0.37
13.5973	0.372
13.6382	0.362
13.679	0.353
13.7198	0.357
13.7607	0.377
13.8015	0.401
13.8423	0.437
13.8832	0.459
13.924	0.477
13.9649	0.482
14.0057	0.496
14.0465	0.501
14.0874	0.506
14.1282	0.508
14.169	0.513
14.2099	0.511
14.2507	0.515
14.2915	0.513
14.3324	0.511
14.3732	0.515
14.414	0.513
14.4549	0.508
14.4957	0.511
14.5365	0.511
14.5774	0.51
14.6182	0.511
14.659	0.508
14.6999	0.508
14.7407	0.506
14.7816	0.503
14.8224	0.503
14.8632	0.503
14.9041	0.501
14.9449	0.505
14.9857	0.506
15.0266	0.506
15.0674	0.506
15.1082	0.508
15.1491	0.508
15.1899	0.501
15.2307	0.501
15.2716	0.501
15.3124	0.501
15.3532	0.501
15.3941	0.505
15.4349	0.505
15.4757	0.506
15.5166	0.51
15.5574	0.511
15.5983	0.513
15.6391	0.513
15.6799	0.511
15.7208	0.511
15.7616	0.515
15.8024	0.52
15.8433	0.518
15.8841	0.518
15.9249	0.52
15.9658	0.517
