Infrared Spectrum: 1,2-DIBENZYLOXYETHANE
Formula: C16 H18 O2
CAS: 622-22-0
State: LIQUID
Class: COBLENTZ
Instrument: PERKIN-ELMER
Sampling: TRANSMISSION
Path length: CELL
Resolution: 4
MICROMETERS	TRANSMITTANCE
2.031	0.932
2.0677	0.932
2.10441	0.932
2.14111	0.929
2.17782	0.92
2.21452	0.92
2.25123	0.92
2.28793	0.923
2.32464	0.914
2.36134	0.9
2.39805	0.9
2.43475	0.902
2.47146	0.892
2.50816	0.876
2.54487	0.88
2.58157	0.892
2.61828	0.903
2.65498	0.914
2.69168	0.915
2.72839	0.915
2.76509	0.911
2.8018	0.9
2.8385	0.883
2.87521	0.868
2.91191	0.871
2.94862	0.886
2.98532	0.894
3.02203	0.902
3.05873	0.905
3.09544	0.911
3.13214	0.915
3.16885	0.905
3.20555	0.892
3.24226	0.766
3.27896	0.585
3.31566	0.507
3.35237	0.61
3.38907	0.607
3.42578	0.444
3.46248	0.357
3.49919	0.305
3.53589	0.328
3.5726	0.487
3.6093	0.61
3.64601	0.703
3.68271	0.75
3.71942	0.775
3.75612	0.831
3.79283	0.862
3.82953	0.882
3.86624	0.896
3.90294	0.9
3.93964	0.914
3.97635	0.918
4.01305	0.914
4.04976	0.912
4.08646	0.918
4.12317	0.92
4.15987	0.923
4.19658	0.928
4.23328	0.931
4.26999	0.934
4.30669	0.929
4.3434	0.917
4.3801	0.918
4.41681	0.918
4.45351	0.914
4.49022	0.911
4.52692	0.911
4.56362	0.905
4.60033	0.908
4.63703	0.917
4.67374	0.914
4.71044	0.905
4.74715	0.902
4.78385	0.902
4.82056	0.903
4.85726	0.9
4.89397	0.905
4.93067	0.897
4.96738	0.891
5.00408	0.877
5.04079	0.851
5.07749	0.816
5.1142	0.781
5.1509	0.808
5.1876	0.862
5.22431	0.883
5.26101	0.876
5.29772	0.83
5.33442	0.814
5.37113	0.856
5.40783	0.88
5.44454	0.874
5.48124	0.818
5.51795	0.816
5.55465	0.86
5.59136	0.883
5.62806	0.87
5.66477	0.845
5.70147	0.81
5.73818	0.807
5.77488	0.799
5.81158	0.799
5.84829	0.84
5.88499	0.857
5.9217	0.891
5.9584	0.899
5.99511	0.892
6.03181	0.889
6.06852	0.886
6.10522	0.879
6.14193	0.874
6.17863	0.859
6.21534	0.749
6.25204	0.758
6.28875	0.752
6.32545	0.811
6.36216	0.851
6.39886	0.879
6.43556	0.885
6.47227	0.871
6.50897	0.873
6.54568	0.879
6.58238	0.873
6.61909	0.851
6.65579	0.588
6.6925	0.438
6.7292	0.655
6.76591	0.634
6.80261	0.544
6.83932	0.487
6.87602	0.261
6.91273	0.472
6.94943	0.616
6.98614	0.709
7.02284	0.732
7.05954	0.737
7.09625	0.735
7.13295	0.7
7.16966	0.608
7.20636	0.542
7.24307	0.539
7.27977	0.53
7.31648	0.397
7.35318	0.382
7.38989	0.299
7.42659	0.463
7.4633	0.608
7.5	0.593
7.53671	0.579
7.57341	0.576
7.61012	0.538
7.64682	0.506
7.68352	0.529
7.72023	0.529
7.75693	0.512
7.79364	0.513
7.83034	0.524
7.86705	0.525
7.90375	0.525
7.94046	0.512
7.97716	0.489
8.01387	0.48
8.05057	0.495
8.08728	0.535
8.12398	0.57
8.16069	0.599
8.19739	0.565
8.2341	0.495
8.2708	0.425
8.3075	0.376
8.34421	0.406
8.38091	0.541
8.41762	0.633
8.45432	0.637
8.49103	0.625
8.52773	0.617
8.56444	0.619
8.60114	0.581
8.63785	0.522
8.67455	0.466
8.71126	0.391
8.74796	0.319
8.78467	0.24
8.82137	0.201
8.85808	0.191
8.89478	0.181
8.93148	0.166
8.96819	0.148
9.00489	0.137
9.0416	0.125
9.0783	0.108
9.11501	0.096
9.15171	0.102
9.18842	0.136
9.22512	0.177
9.26183	0.214
9.29853	0.237
9.33524	0.299
9.37194	0.345
9.40865	0.362
9.44535	0.345
9.48206	0.304
9.51876	0.301
9.55546	0.304
9.59217	0.325
9.62887	0.344
9.66558	0.356
9.70228	0.328
9.73899	0.272
9.77569	0.324
9.8124	0.38
9.8491	0.425
9.88581	0.444
9.92251	0.454
9.95922	0.457
9.99592	0.449
10.0326	0.454
10.0693	0.446
10.106	0.446
10.1427	0.451
10.1794	0.466
10.2161	0.487
10.2529	0.513
10.2896	0.544
10.3263	0.573
10.363	0.602
10.3997	0.629
10.4364	0.659
10.4731	0.668
10.5098	0.671
10.5465	0.672
10.5832	0.675
10.6199	0.675
10.6566	0.68
10.6933	0.672
10.73	0.675
10.7667	0.674
10.8034	0.668
10.8401	0.648
10.8768	0.605
10.9135	0.567
10.9502	0.547
10.9869	0.522
11.0237	0.516
11.0604	0.512
11.0971	0.53
11.1338	0.556
11.1705	0.564
11.2072	0.567
11.2439	0.568
11.2806	0.567
11.3173	0.574
11.354	0.605
11.3907	0.62
11.4274	0.645
11.4641	0.666
11.5008	0.683
11.5375	0.692
11.5742	0.683
11.6109	0.665
11.6476	0.634
11.6843	0.596
11.721	0.577
11.7577	0.571
11.7945	0.576
11.8312	0.597
11.8679	0.628
11.9046	0.652
11.9413	0.672
11.978	0.694
12.0147	0.703
12.0514	0.703
12.0881	0.698
12.1248	0.689
12.1615	0.681
12.1982	0.675
12.2349	0.671
12.2716	0.675
12.3083	0.688
12.345	0.698
12.3817	0.711
12.4184	0.72
12.4551	0.738
12.4918	0.753
12.5285	0.759
12.5653	0.781
12.602	0.792
12.6387	0.808
12.6754	0.821
12.7121	0.824
12.7488	0.825
12.7855	0.825
12.8222	0.821
12.8589	0.816
12.8956	0.805
12.9323	0.796
12.969	0.782
13.0057	0.775
13.0424	0.753
13.0791	0.709
13.1158	0.652
13.1525	0.596
13.1892	0.525
13.2259	0.425
13.2626	0.351
13.2993	0.299
13.336	0.261
13.3728	0.229
13.4095	0.209
13.4462	0.198
13.4829	0.18
13.5196	0.169
13.5563	0.165
13.593	0.157
13.6297	0.163
13.6664	0.174
13.7031	0.197
13.7398	0.262
13.7765	0.337
13.8132	0.4
13.8499	0.457
13.8866	0.51
13.9233	0.538
13.96	0.567
13.9967	0.573
14.0334	0.574
14.0701	0.561
14.1068	0.539
14.1436	0.513
14.1803	0.426
14.217	0.36
14.2537	0.314
14.2904	0.238
14.3271	0.192
14.3638	0.171
14.4005	0.177
14.4372	0.232
14.4739	0.354
14.5106	0.464
14.5473	0.536
14.584	0.616
14.6207	0.66
14.6574	0.681
14.6941	0.7
14.7308	0.712
14.7675	0.715
14.8042	0.723
14.8409	0.724
14.8776	0.73
14.9144	0.743
14.9511	0.75
14.9878	0.759
15.0245	0.776
15.0612	0.792
15.0979	0.799
15.1346	0.801
15.1713	0.807
15.208	0.81
15.2447	0.81
15.2814	0.81
15.3181	0.808
15.3548	0.805
15.3915	0.799
