Infrared Spectrum: 1-Phenyl-1-butyne
Formula: C 10 H 10
CAS: 622-76-4
State: gas
Instrument: HP-GC/MS/IRD
Origin: NIST Mass Spectrometry Data Center
1/CM	ABSORBANCE
550	0.0026208
562	0.0010488
574	0.0008064
586	0.0006384
598	0.0010008
610	0.0011616
622	0.0006336
634	0.000756
646	0.0011592
658	0.0025896
670	0.0065256
682	0.012816
694	0.0156048
706	0.0096528
718	0.0045696
730	0.0066384
742	0.0155616
754	0.0237096
766	0.013956
778	0.0042096
790	0.0010728
802	0.0006576
814	0.0006624
826	0.0006192
838	0.0005952
850	0.0003552
862	0.0003096
874	0.0004848
886	0.0009024
898	0.0013104
910	0.0016344
922	0.0010464
934	0.0003576
946	8.4e-05
958	2.16e-05
970	9.6e-06
982	9.12e-05
994	0.000504
1006	0.0015432
1018	0.0019944
1030	0.001716
1042	0.0012504
1054	0.0023088
1066	0.0033096
1078	0.0025776
1090	0.0014472
1102	0.0007608
1114	0.000324
1126	0.0001368
1138	0.0002616
1150	0.00018
1162	0.0001584
1174	8.88e-05
1186	4.32e-05
1198	6.72e-05
1210	8.64e-05
1222	0.000228
1234	0.0004176
1246	0.00072
1258	0.0009264
1270	0.0009288
1282	0.0009816
1294	0.0014832
1306	0.0050688
1318	0.0181416
1330	0.0127752
1342	0.002064
1354	0.0012168
1366	0.0011976
1378	0.0012552
1390	0.0012912
1402	0.0013056
1414	0.0016848
1426	0.0028272
1438	0.004932
1450	0.0049392
1462	0.0041448
1474	0.0050952
1486	0.0141288
1498	0.0130512
1510	0.003372
1522	0.0013176
1534	0.0008112
1546	0.0008304
1558	0.0010344
1570	0.0015384
1582	0.0032088
1594	0.0075984
1606	0.0064008
1618	0.0013824
1630	0.0006096
1642	0.0005496
1654	0.0009288
1666	0.0010632
1678	0.0003648
1690	0.0002424
1702	0.0003072
1714	0.0003624
1726	0.0006264
1738	0.0008136
1750	0.0007056
1762	0.0004512
1774	0.0004824
1786	0.0009816
1798	0.0012168
1810	0.000708
1822	0.000576
1834	0.000252
1846	0.000396
1858	0.000744
1870	0.0010776
1882	0.0014496
1894	0.0008472
1906	0.000288
1918	0.0005184
1930	0.000912
1942	0.0012504
1954	0.0014304
1966	0.0006336
1978	0.00012
1990	6e-05
2002	5.76e-05
2014	6e-05
2026	6.72e-05
2038	0.000108
2050	0.0001272
2062	9.6e-05
2074	2.88e-05
2086	1.92e-05
2098	1.68e-05
2110	4.08e-05
2122	4.8e-05
2134	0.000132
2146	0.0001224
2158	0.00018
2170	0.0001584
2182	0.0001944
2194	0.0003336
2206	0.0006888
2218	0.00102
2230	0.0015936
2242	0.0015288
2254	0.000648
2266	0.0003984
2278	0.0002784
2290	0.0002256
2302	0.00024
2314	0.0003552
2326	0.0002808
2338	0.0001992
2350	0.000144
2362	5.76e-05
2374	5.52e-05
2386	0.0001224
2398	0.0001272
2410	5.28e-05
2422	5.76e-05
2434	7.68e-05
2446	5.76e-05
2458	5.28e-05
2470	7.44e-05
2482	6.96e-05
2494	0.0001632
2506	0.0002136
2518	0.0001656
2530	9.6e-05
2542	7.68e-05
2554	5.52e-05
2566	3.6e-05
2578	2.16e-05
2590	9.12e-05
2602	0.0001728
2614	0.0002352
2626	0.000408
2638	0.0004392
2650	0.0001032
2662	4.8e-05
2674	5.52e-05
2686	8.64e-05
2698	0.0001224
2710	0.0001752
2722	0.0002112
2734	0.0002352
2746	0.0004176
2758	0.000396
2770	0.0004032
2782	0.0003768
2794	0.0004968
2806	0.0006168
2818	0.0008784
2830	0.0013944
2842	0.0022152
2854	0.0040824
2866	0.0056208
2878	0.0053208
2890	0.0091608
2902	0.009996
2914	0.010884
2926	0.012192
2938	0.0136776
2950	0.0186456
2962	0.011664
2974	0.0154128
2986	0.024
2998	0.010692
3010	0.007572
3022	0.0068976
3034	0.0085536
3046	0.0084384
3058	0.011556
3070	0.0157776
3082	0.0117
3094	0.0096792
3106	0.0058272
3118	0.0023112
3130	0.0011544
3142	0.0010992
3154	0.0009768
3166	0.0007056
3178	0.000684
3190	0.00054
3202	0.0002952
3214	0.0002928
3226	0.0002904
3238	0.0002544
3250	0.0001344
3262	0.0001944
3274	0.0001824
3286	6e-05
3298	0.0001176
3310	8.16e-05
3322	9.36e-05
3334	4.32e-05
3346	7.92e-05
3358	4.56e-05
3370	1.68e-05
3382	6.96e-05
3394	4.32e-05
3406	5.04e-05
3418	4.8e-05
3430	9.12e-05
3442	8.64e-05
3454	0.000132
3466	0.0001896
3478	0.0001992
3490	0.0001656
3502	0.0001248
3514	9.12e-05
3526	0.0001104
3538	0.0001344
3550	0.0001296
3562	0.0001584
3574	3.36e-05
3586	0.000108
3598	9.6e-05
3610	0.0001104
3622	0.0001056
3634	0.0001032
3646	0.00018
3658	0.00018
3670	0.0001848
3682	0.00012
3694	0.0001584
3706	0.000192
3718	0.0001248
3730	0.0001824
3742	0.000228
3754	0.0002232
3766	0.0002112
3778	0.0002136
3790	0.0001512
3802	0.000168
3814	7.2e-05
3826	6.48e-05
3838	0.00012
