Infrared Spectrum: PHENETOLE, p-CHLORO-
Formula: C8 H9 Cl O
CAS: 622-61-7
State: SOLUTION (10% CCl4 FOR 2.6-7.5, 10% CS2 FOR 7.5-23 MICRON)
Class: COBLENTZ III
Instrument: DOW KBr FOREPRISM-GRATING
Instrument parameters: BLAZED AT 3.5, 12.0, 20.0 MICRON AND CHANGED AT 5.0, 7.5, 14.9 MICRON
Sampling: TRANSMISSION
Path length: 0.011 CM, 0.012 CM
Resolution: 2
Origin: DOW CHEMICAL COMPANY
1/CM	TRANSMITTANCE
3820	0.8948
3811	0.8944
3802	0.894
3793	0.8936
3784	0.8932
3775	0.8921
3766	0.8912
3757	0.8902
3748	0.8894
3739	0.8887
3730	0.888
3721	0.8871
3712	0.8863
3703	0.8853
3694	0.8844
3685	0.8848
3676	0.8861
3667	0.8874
3658	0.8884
3649	0.8888
3640	0.8893
3631	0.8897
3622	0.8903
3613	0.89
3604	0.8897
3595	0.8893
3586	0.889
3577	0.8886
3568	0.8883
3559	0.8878
3550	0.8871
3541	0.8866
3532	0.8861
3523	0.8853
3514	0.8843
3505	0.8833
3496	0.8824
3487	0.8814
3478	0.8804
3469	0.879
3460	0.8775
3451	0.876
3442	0.8745
3433	0.8728
3424	0.8721
3415	0.8713
3406	0.8705
3397	0.8697
3388	0.8694
3379	0.8696
3370	0.8697
3361	0.8699
3352	0.8705
3343	0.8714
3334	0.8724
3325	0.8733
3316	0.8742
3307	0.8751
3298	0.876
3289	0.8768
3280	0.8778
3271	0.8787
3262	0.8798
3253	0.8808
3244	0.8818
3235	0.883
3226	0.8841
3217	0.8851
3208	0.8862
3199	0.8873
3190	0.8881
3181	0.8888
3172	0.8896
3163	0.8894
3154	0.8893
3145	0.8891
3136	0.888
3127	0.884
3118	0.876
3109	0.8489
3100	0.8297
3091	0.8286
3082	0.828
3073	0.8239
3064	0.8261
3055	0.8243
3046	0.775
3037	0.7824
3028	0.8134
3019	0.8283
3010	0.806
3001	0.5686
2992	0.1712
2983	0.2865
2974	0.4939
2965	0.6574
2956	0.6653
2947	0.6614
2938	0.4904
2929	0.4805
2920	0.5462
2911	0.5184
2902	0.4694
2893	0.5202
2884	0.526
2875	0.4847
2866	0.6041
2857	0.7581
2848	0.7741
2839	0.7855
2830	0.8195
2821	0.813
2812	0.8117
2803	0.852
2794	0.8607
2785	0.8605
2776	0.8321
2767	0.8461
2758	0.8628
2749	0.8568
2740	0.8343
2731	0.8478
2722	0.8581
2713	0.8655
2704	0.8692
2695	0.8706
2686	0.872
2677	0.8735
2668	0.8751
2659	0.8767
2650	0.8775
2641	0.8783
2632	0.8783
2623	0.8783
2614	0.8768
2605	0.8753
2596	0.8737
2587	0.8721
2578	0.8705
2569	0.87
2560	0.8696
2551	0.8691
2542	0.8556
2533	0.839
2524	0.8371
2515	0.8496
2506	0.8605
2497	0.8665
2488	0.8609
2479	0.8491
2470	0.8552
2461	0.8594
2452	0.8633
2443	0.8671
2434	0.8702
2425	0.8716
2416	0.8603
2407	0.8566
2398	0.8595
2389	0.8645
2380	0.8695
2371	0.8743
2362	0.8755
2353	0.8747
2344	0.8723
2335	0.869
2326	0.8655
2317	0.8602
2308	0.8555
2299	0.8515
2290	0.8484
2281	0.8439
2272	0.8496
2263	0.8597
2254	0.8675
2245	0.8713
2236	0.8751
2227	0.878
2218	0.8787
2209	0.8795
2200	0.8804
2191	0.8809
2182	0.8812
2173	0.8809
2164	0.8774
2155	0.8762
2146	0.8768
2137	0.8782
2128	0.879
2119	0.8783
2110	0.8751
2101	0.8677
2092	0.8592
2083	0.8557
2074	0.8563
2065	0.8609
2056	0.8487
2047	0.8162
2038	0.8231
2029	0.8518
2020	0.8605
2011	0.8604
2002	0.8605
1993	0.867
1984	0.8675
1975	0.8494
1966	0.8416
1957	0.881
1948	0.8562
1939	0.8571
1930	0.8594
1921	0.8642
1912	0.8636
1903	0.8568
1894	0.8451
1885	0.8471
1876	0.804
1867	0.7517
1858	0.8268
1849	0.8218
1840	0.8252
1831	0.8521
1822	0.8652
1813	0.8659
1804	0.8675
1795	0.868
1786	0.8698
1777	0.8701
1768	0.8597
1759	0.8594
1750	0.8518
1741	0.8364
1732	0.8393
1723	0.8401
1714	0.8506
1705	0.8612
1696	0.8651
1687	0.8637
1678	0.8659
1669	0.8587
1660	0.8515
1651	0.8359
1642	0.8021
1633	0.8043
1624	0.7851
1615	0.7421
1606	0.4056
1597	0.2767
1588	0.3994
1579	0.3359
1570	0.4445
1561	0.441
1552	0.388
1543	0.405
1534	0.4826
1525	0.4894
1516	0.5117
1507	0.5105
1498	0.0007
1489	0.1062
1480	0.0016
1471	0.407
1462	0.6026
1453	0.6534
1444	0.5207
1435	0.6575
1426	0.7118
1417	0.7808
1408	0.7468
1399	0.4852
1390	0.3484
1381	0.6708
1372	0.7944
1363	0.793
1354	0.8273
1345	0.8273
1336	0.8035
1327	0.7825
1318	0.7476
1309	0.553
1300	0.3612
1291	0.2523
1282	0.1327
1273	0.3033
1264	0.52
1255	0.1862
1246	0.0055
1237	0.014
1228	0.102
1219	0.5216
1210	0.6508
1201	0.7685
1192	0.7931
1183	0.7957
1174	0.6871
1165	0.1795
1156	0.6711
1147	0.7117
1138	0.7801
1129	0.7722
1120	0.4457
1111	0.3542
1102	0.393
1093	0.044
1084	0.4275
1075	0.6774
1066	0.6943
1057	0.498
1048	0.04
1039	0.2841
1030	0.6056
1021	0.7301
1012	0.775
1003	0.4398
994	0.8101
985	0.8518
976	0.8594
967	0.8628
958	0.8637
949	0.85
940	0.8218
931	0.7565
922	0.3202
913	0.7633
904	0.7941
895	0.7988
886	0.8215
877	0.779
868	0.7308
859	0.6836
850	0.6747
841	0.6641
832	0.2968
823	0.0105
814	0.2652
805	0.6074
796	0.3332
787	0.7589
778	0.8268
769	0.8585
760	0.8743
751	0.8812
742	0.8817
733	0.8833
724	0.8842
715	0.8809
706	0.8747
697	0.8135
688	0.8524
679	0.831
670	0.6486
661	0.1441
652	0.5694
643	0.7243
634	0.5574
625	0.7197
616	0.7958
607	0.8516
598	0.8666
589	0.8711
580	0.8747
571	0.8763
562	0.8753
553	0.8712
544	0.8632
535	0.846
526	0.8178
517	0.7375
508	0.2709
499	0.549
490	0.7348
481	0.7818
472	0.7971
463	0.7998
454	0.7998
445	0.8003
436	0.8011
