Infrared Spectrum: 4-Ethoxyphenol
Formula: C 8 H 10 O 2
CAS: 622-62-8
State: gas
Instrument: HP-GC/MS/IRD
Origin: NIST Mass Spectrometry Data Center
1/CM	ABSORBANCE
550	0.0007667
562	0.000369
574	0.0002214
586	0.0001066
598	0
610	4.1e-05
622	2.46e-05
634	4.1e-05
646	3.28e-05
658	4.1e-06
670	3.69e-05
682	0.000164
694	0.0004018
706	0.0009184
718	0.0021607
730	0.0027511
742	0.0031693
754	0.0038212
766	0.001804
778	0.0010045
790	0.001394
802	0.0024887
814	0.0050102
826	0.0066256
838	0.0050676
850	0.002583
862	0.0010906
874	0.0008487
886	0.0010291
898	0.0017261
910	0.0020828
922	0.0018696
934	0.001148
946	0.0005371
958	0.0003567
970	0.0003649
982	0.0004141
994	0.0006765
1006	0.0013284
1018	0.0024846
1030	0.0053546
1042	0.0083394
1054	0.007093
1066	0.0040713
1078	0.0037638
1090	0.005371
1102	0.0051701
1114	0.004264
1126	0.0031611
1138	0.0025912
1150	0.0046986
1162	0.014801
1174	0.0241203
1186	0.0159531
1198	0.0103484
1210	0.013981
1222	0.0288558
1234	0.0355265
1246	0.0190527
1258	0.007503
1270	0.0044116
1282	0.0038171
1294	0.0037392
1306	0.0038376
1318	0.0042394
1330	0.0038909
1342	0.0021115
1354	0.001148
1366	0.0012095
1378	0.0019106
1390	0.0036572
1402	0.003731
1414	0.0023534
1426	0.0032472
1438	0.0035793
1450	0.0021771
1462	0.0019885
1474	0.0039155
1486	0.0071545
1498	0.0232019
1510	0.041
1522	0.0135464
1534	0.0032677
1546	0.0016646
1558	0.0012546
1570	0.0010373
1582	0.0008405
1594	0.0009471
1606	0.0009799
1618	0.0007421
1630	0.000533
1642	0.0003813
1654	0.0002788
1666	0.0002337
1678	0.000246
1690	0.0001927
1702	0.0001722
1714	0.000205
1726	0.0002337
1738	0.0001763
1750	0.0001107
1762	0.0001066
1774	0.0001025
1786	0.0001107
1798	0.0001394
1810	0.0001722
1822	0.0002747
1834	0.0003895
1846	0.0004305
1858	0.0003936
1870	0.0003157
1882	0.0002665
1894	0.0001886
1906	0.0001435
1918	0.0001927
1930	0.0002296
1942	0.0002706
1954	0.0002952
1966	0.0002993
1978	0.0003362
1990	0.0003116
2002	0.0003239
2014	0.0002911
2026	0.0002173
2038	0.000205
2050	0.0002296
2062	0.0002542
2074	0.0002337
2086	0.0001681
2098	9.02e-05
2110	5.74e-05
2122	3.69e-05
2134	3.28e-05
2146	2.87e-05
2158	2.05e-05
2170	1.64e-05
2182	0
2194	4.1e-06
2206	8.2e-06
2218	0
2230	2.87e-05
2242	6.15e-05
2254	7.38e-05
2266	8.2e-05
2278	0.0001025
2290	9.84e-05
2302	0.0001025
2314	0.0001681
2326	0.0002419
2338	0.0002624
2350	0.000246
2362	0.0001886
2374	0.0001435
2386	0.0001558
2398	0.0002132
2410	0.0002788
2422	0.0003649
2434	0.0003321
2446	0.0002747
2458	0.0002665
2470	0.0002747
2482	0.0003116
2494	0.0002747
2506	0.000205
2518	0.0001681
2530	0.0001517
2542	0.0001435
2554	9.84e-05
2566	9.84e-05
2578	0.000123
2590	0.0001189
2602	0.0001189
2614	0.000123
2626	0.0001107
2638	9.84e-05
2650	9.84e-05
2662	0.0001353
2674	0.0001476
2686	0.0001312
2698	0.0001763
2710	0.0001804
2722	0.0002419
2734	0.000287
2746	0.0003034
2758	0.0003239
2770	0.0003731
2782	0.0003608
2794	0.0003649
2806	0.0004182
2818	0.0005248
2830	0.0006642
2842	0.0008528
2854	0.0012095
2866	0.0018901
2878	0.0028413
2890	0.003444
2902	0.0036244
2914	0.0035588
2926	0.0033702
2938	0.0041369
2950	0.0040754
2962	0.0035588
2974	0.0047642
2986	0.0058384
2998	0.0045305
3010	0.0032062
3022	0.0029274
3034	0.0028741
3046	0.002501
3058	0.0017425
3070	0.001394
3082	0.0011439
3094	0.0008897
3106	0.0007544
3118	0.0006232
3130	0.0004387
3142	0.0002624
3154	0.000164
3166	0.0001312
3178	0.0001066
3190	0.0001066
3202	0.0001025
3214	8.2e-05
3226	9.43e-05
3238	7.38e-05
3250	1.64e-05
3262	3.28e-05
3274	4.1e-05
3286	4.92e-05
3298	3.28e-05
3310	3.28e-05
3322	4.1e-05
3334	4.51e-05
3346	5.33e-05
3358	6.56e-05
3370	7.79e-05
3382	0.0001189
3394	0.0001476
3406	0.0001394
3418	0.0001558
3430	0.0001394
3442	0.0001066
3454	9.43e-05
3466	6.97e-05
3478	6.56e-05
3490	9.02e-05
3502	4.92e-05
3514	1.64e-05
3526	4.1e-05
3538	1.64e-05
3550	1.23e-05
3562	1.64e-05
3574	1.23e-05
3586	5.74e-05
3598	0.0001312
3610	0.0002378
3622	0.0004674
3634	0.0014432
3646	0.005043
3658	0.0079294
3670	0.0029315
3682	0.0005576
3694	0.0001804
3706	9.84e-05
3718	7.38e-05
3730	9.84e-05
3742	8.2e-05
3754	4.1e-05
3766	6.15e-05
3778	7.79e-05
3790	0.0001066
3802	0.0001025
3814	9.84e-05
3826	0.0001312
3838	0.0001148
