Infrared Spectrum: 9H-Purine-6(1H)-thione, 2,9-diethyl-
Formula: C9 H12 N4 S
CAS: 6223-60-5
State: SOLID (0.6 mg / 650 mg KBr DISC)
Class: COBLENTZ III
Instrument: PERKIN-ELMER 21 (GRATING)
Instrument parameters: FILTER CHANGE ABOUT 1090 CM^-^1
Sampling: TRANSMISSION
Resolution: 2
Origin: SOUTHERN RESEARCH INSTITUTE
1/CM	TRANSMITTANCE
595	0.9685
604.032	0.9621
613.063	0.9548
622.095	0.9489
631.127	0.9447
640.159	0.9184
649.19	0.7952
658.222	0.7734
667.254	0.8915
676.285	0.8729
685.317	0.7871
694.349	0.6513
703.381	0.7707
712.412	0.8743
721.444	0.8724
730.476	0.8711
739.507	0.8683
748.539	0.8606
757.571	0.849
766.603	0.833
775.634	0.8107
784.666	0.8012
793.698	0.7178
802.73	0.7143
811.761	0.7758
820.793	0.7494
829.825	0.7911
838.856	0.798
847.888	0.7839
856.92	0.7585
865.952	0.7231
874.983	0.7099
884.015	0.7057
893.047	0.6854
902.078	0.6067
911.11	0.2963
920.142	0.3311
929.174	0.6772
938.205	0.7092
947.237	0.5884
956.269	0.4939
965.3	0.7344
974.332	0.7142
983.364	0.5791
992.396	0.6663
1001.43	0.757
1010.46	0.772
1019.49	0.7731
1028.52	0.776
1037.55	0.7792
1046.59	0.7742
1055.62	0.7525
1064.65	0.6652
1073.68	0.6029
1082.71	0.6467
1091.74	0.7183
1100.78	0.738
1109.81	0.749
1118.84	0.7374
1127.87	0.7274
1136.9	0.7173
1145.93	0.6982
1154.97	0.6359
1164	0.5643
1173.03	0.4323
1182.06	0.0978
1191.09	0.158
1200.13	0.3794
1209.16	0.6176
1218.19	0.711
1227.22	0.7586
1236.25	0.7705
1245.28	0.7546
1254.32	0.7688
1263.35	0.7755
1272.38	0.7816
1281.41	0.7779
1290.44	0.7469
1299.47	0.5797
1308.51	0.6914
1317.54	0.7489
1326.57	0.7505
1335.6	0.7347
1344.63	0.7008
1353.66	0.6544
1362.7	0.6027
1371.73	0.5335
1380.76	0.5875
1389.79	0.5353
1398.82	0.482
1407.85	0.405
1416.89	0.5555
1425.92	0.5979
1434.95	0.6516
1443.98	0.6201
1453.01	0.571
1462.04	0.6108
1471.08	0.681
1480.11	0.7218
1489.14	0.7133
1498.17	0.6779
1507.2	0.6882
1516.24	0.6435
1525.27	0.6037
1534.3	0.5534
1543.33	0.3644
1552.36	0.3429
1561.39	0.2204
1570.43	0.1002
1579.46	0.0293
1588.49	0.0426
1597.52	0.217
1606.55	0.3983
1615.58	0.5455
1624.62	0.6338
1633.65	0.6794
1642.68	0.7161
1651.71	0.7411
1660.74	0.7654
1669.77	0.7816
1678.81	0.7944
1687.84	0.8064
1696.87	0.8054
1705.9	0.8055
1714.93	0.804
1723.96	0.7989
1733	0.7884
1742.03	0.7893
1751.06	0.7966
1760.09	0.8078
1769.12	0.8114
1778.16	0.814
1787.19	0.8168
1796.22	0.8167
1805.25	0.8169
1814.28	0.8167
1823.31	0.8164
1832.35	0.817
1841.38	0.8207
1850.41	0.8274
1859.44	0.8276
1868.47	0.8271
1877.5	0.8264
1886.54	0.8256
1895.57	0.8248
1904.6	0.8243
1913.63	0.8238
1922.66	0.8234
1931.69	0.8229
1940.73	0.8225
1949.76	0.822
1958.79	0.8218
1967.82	0.8215
1976.85	0.8213
1985.88	0.8207
1994.92	0.8201
2003.95	0.8195
2012.98	0.8188
2022.01	0.8181
2031.04	0.8172
2040.07	0.8161
2049.11	0.8149
2058.14	0.8137
2067.17	0.8129
2076.2	0.8126
2085.23	0.812
2094.27	0.8112
2103.3	0.8096
2112.33	0.8084
2121.36	0.8078
2130.39	0.8069
2139.42	0.8053
2148.46	0.8041
2157.49	0.8027
2166.52	0.8012
2175.55	0.8003
2184.58	0.7986
2193.61	0.797
2202.65	0.7976
2211.68	0.7996
2220.71	0.7988
2229.74	0.7967
2238.77	0.7958
2247.8	0.795
2256.84	0.7941
2265.87	0.7929
2274.9	0.7919
2283.93	0.7903
2292.96	0.7871
2301.99	0.7806
2311.03	0.7678
2320.06	0.7541
2329.09	0.755
2338.12	0.7586
2347.15	0.7621
2356.19	0.7683
2365.22	0.7708
2374.25	0.7683
2383.28	0.7654
2392.31	0.7634
2401.34	0.7611
2410.38	0.7605
2419.41	0.7603
2428.44	0.7606
2437.47	0.7616
2446.5	0.7591
2455.53	0.7531
2464.57	0.7429
2473.6	0.7364
2482.63	0.7325
2491.66	0.7295
2500.69	0.7282
2509.72	0.7352
2518.76	0.7259
2527.79	0.7158
2536.82	0.7161
2545.85	0.7121
2554.88	0.6993
2563.91	0.6964
2572.95	0.6967
2581.98	0.6972
2591.01	0.6977
2600.04	0.6941
2609.07	0.6878
2618.1	0.6767
2627.14	0.6672
2636.17	0.66
2645.2	0.6522
2654.23	0.6433
2663.26	0.634
2672.3	0.6234
2681.33	0.6132
2690.36	0.603
2699.39	0.5931
2708.42	0.5834
2717.45	0.5723
2726.49	0.5532
2735.52	0.5444
2744.55	0.5445
2753.58	0.5487
2762.61	0.5523
2771.64	0.557
2780.68	0.5546
2789.71	0.5454
2798.74	0.5342
2807.77	0.5212
2816.8	0.5062
2825.83	0.4855
2834.87	0.4607
2843.9	0.4431
2852.93	0.4297
2861.96	0.4124
2870.99	0.4003
2880.02	0.3912
2889.06	0.3841
2898.09	0.3777
2907.12	0.3797
2916.15	0.3939
2925.18	0.4056
2934.21	0.4131
2943.25	0.4528
2952.28	0.467
2961.31	0.4549
2970.34	0.4299
2979.37	0.4069
2988.41	0.4129
2997.44	0.4268
3006.47	0.4274
3015.5	0.4273
3024.53	0.4332
3033.56	0.4444
3042.6	0.4586
3051.63	0.4827
3060.66	0.5035
3069.69	0.5241
3078.72	0.5165
3087.75	0.505
3096.79	0.5167
3105.82	0.5473
3114.85	0.5828
3123.88	0.6269
3132.91	0.6313
3141.94	0.616
3150.98	0.5965
3160.01	0.577
3169.04	0.5681
3178.07	0.5782
3187.1	0.5975
3196.13	0.621
3205.17	0.6459
3214.2	0.6649
3223.23	0.6794
3232.26	0.6865
3241.29	0.6846
3250.33	0.6808
3259.36	0.6783
3268.39	0.6767
3277.42	0.6759
3286.45	0.6758
3295.48	0.6751
3304.52	0.6713
3313.55	0.6673
3322.58	0.6638
3331.61	0.6606
3340.64	0.6583
3349.67	0.6511
3358.71	0.6481
3367.74	0.645
3376.77	0.6354
3385.8	0.6223
3394.83	0.6069
3403.86	0.5945
3412.9	0.5909
3421.93	0.5919
3430.96	0.5804
3439.99	0.5882
3449.02	0.5911
3458.05	0.592
3467.09	0.5936
3476.12	0.5964
3485.15	0.6001
3494.18	0.6045
3503.21	0.6092
3512.24	0.6136
3521.28	0.6183
3530.31	0.6236
3539.34	0.6268
3548.37	0.6285
3557.4	0.6387
3566.44	0.6473
3575.47	0.6527
3584.5	0.6578
3593.53	0.6627
3602.56	0.6664
3611.59	0.6702
3620.63	0.6764
3629.66	0.6831
3638.69	0.6896
3647.72	0.6944
3656.75	0.696
3665.78	0.6961
3674.82	0.6953
3683.85	0.6943
3692.88	0.6943
3701.91	0.697
3710.94	0.7021
3719.97	0.7043
3729.01	0.6998
3738.04	0.6954
3747.07	0.6915
3756.1	0.6914
3765.13	0.6916
3774.16	0.6916
3783.2	0.691
3792.23	0.6907
3801.26	0.6921
3810.29	0.6917
3819.32	0.6852
3828.36	0.6861
3837.39	0.6885
3846.42	0.6886
3855.45	0.6877
3864.48	0.6862
3873.51	0.6846
3882.55	0.6837
3891.58	0.6844
3900.61	0.684
3909.64	0.682
3918.67	0.6796
3927.7	0.6776
3936.74	0.676
3945.77	0.6746
3954.8	0.6744
3963.83	0.6747
3972.86	0.6773
3981.89	0.6813
3990.93	0.6815
3999.96	0.6769
4008.99	0.6762
