Infrared Spectrum: 9-Fluorenone-4-carboxylic aicd
Formula: C 14 H 8 O 2
CAS: 6223-83-2
State: gas
Origin: EPA-IR VAPOR PHASE LIBRARY
1/CM	ABSORBANCE
501.5	0
513.074	9.09e-05
524.648	0.0004055
536.222	0.0003475
547.796	0.000629
559.37	0.0007018
570.944	0.0009677
582.518	0.001251
594.092	0.0010762
605.666	0.0006348
617.24	0.0011021
628.814	0.001181
640.388	0.0006136
651.962	0.001791
663.536	0.001721
675.11	0.0009087
686.684	0.0010704
698.258	0.0007656
709.832	0.0003396
721.406	0.0009134
732.98	0.003781
744.554	0.003851
756.128	0.002031
767.702	0.0007978
779.276	0.0003839
790.85	0.0005409
802.423	0.0004721
813.997	0.0003649
825.571	0.000712
837.145	0.0007095
848.719	0.0004719
860.293	0.0002794
871.867	0.0002437
883.441	0.0002224
895.015	0.0003103
906.589	0.000225
918.163	0.0003308
929.737	0.0005094
941.311	0.0010882
952.885	0.001281
964.459	0.0005032
976.033	0.000406
987.607	0.0004057
999.181	0.000529
1010.76	0.0004781
1022.33	0.0003719
1033.9	0.0003756
1045.48	0.0005091
1057.05	0.001271
1068.63	0.002921
1080.2	0.002281
1091.77	0.002441
1103.35	0.004571
1114.92	0.008141
1126.49	0.004191
1138.07	0.001551
1149.64	0.001231
1161.22	0.001831
1172.79	0.002241
1184.36	0.002321
1195.94	0.002481
1207.51	0.001871
1219.09	0.001201
1230.66	0.001121
1242.23	0.001561
1253.81	0.001921
1265.38	0.001211
1276.96	0.001191
1288.53	0.001341
1300.1	0.002421
1311.68	0.001871
1323.25	0.001681
1334.83	0.001391
1346.4	0.001321
1357.97	0.001351
1369.55	0.001019
1381.12	0.0007473
1392.7	0.0007307
1404.27	0.0009786
1415.84	0.001791
1427.42	0.001281
1438.99	0.000887
1450.57	0.001401
1462.14	0.001351
1473.71	0.001241
1485.29	0.0007404
1496.86	0.0004508
1508.44	0.0004549
1520.01	0.0004302
1531.58	0.0004125
1543.16	0.0004686
1554.73	0.000748
1566.31	0.001661
1577.88	0.001891
1589.45	0.001721
1601.03	0.002711
1612.6	0.002281
1624.18	0.0009634
1635.75	0.0006942
1647.32	0.0006384
1658.9	0.0006401
1670.47	0.0006705
1682.05	0.0008453
1693.62	0.0010908
1705.19	0.001511
1716.77	0.003181
1728.34	0.010191
1739.92	0.010201
1751.49	0.006221
1763.06	0.009301
1774.64	0.003271
1786.21	0.002561
1797.79	0.001741
1809.36	0.0009244
1820.93	0.0006976
1832.51	0.0006018
1844.08	0.0005787
1855.66	0.0005643
1867.23	0.0005859
1878.8	0.0005523
1890.38	0.0005141
1901.95	0.0005791
1913.53	0.000529
1925.1	0.0005407
1936.67	0.0005517
1948.25	0.0005618
1959.82	0.0005771
1971.4	0.0004745
1982.97	0.000469
1994.54	0.0004206
2006.12	0.0004816
2017.69	0.000465
2029.27	0.0004369
2040.84	0.0004622
2052.41	0.0004475
2063.99	0.0004504
2075.56	0.0004749
2087.14	0.0004898
2098.71	0.000466
2110.28	0.0004402
2121.86	0.0004761
2133.43	0.0004885
2145.01	0.0005078
2156.58	0.0004766
2168.15	0.0004621
2179.73	0.0005201
2191.3	0.0005369
2202.88	0.0004952
2214.45	0.0005123
2226.02	0.0004913
2237.6	0.0005004
2249.17	0.0005085
2260.74	0.0005442
2272.32	0.0005366
2283.89	0.0005107
2295.47	0.0005193
2307.04	0.000564
2318.61	0.0005946
2330.19	0.0006375
2341.76	0.0006302
2353.34	0.0005631
2364.91	0.0006414
2376.48	0.0005872
2388.06	0.000548
2399.63	0.0005509
2411.21	0.0005633
2422.78	0.0005789
2434.35	0.0005267
2445.93	0.0005749
2457.5	0.0005781
2469.08	0.0005444
2480.65	0.0005464
2492.22	0.0005994
2503.8	0.0005532
2515.37	0.0005853
2526.95	0.0005975
2538.52	0.000568
2550.09	0.0006582
2561.67	0.00055
2573.24	0.0005533
2584.82	0.0006048
2596.39	0.0005937
2607.96	0.0005293
2619.54	0.000622
2631.11	0.0005961
2642.69	0.0006201
2654.26	0.0006048
2665.83	0.0005916
2677.41	0.0006094
2688.98	0.0006654
2700.56	0.0006185
2712.13	0.0005989
2723.7	0.0005949
2735.28	0.0006614
2746.85	0.0005816
2758.43	0.0006316
2770	0.0006364
2781.57	0.0006193
2793.15	0.0006463
2804.72	0.0006934
2816.3	0.0006346
2827.87	0.0006308
2839.44	0.0006337
2851.02	0.0006655
2862.59	0.0006645
2874.17	0.0006782
2885.74	0.0006892
2897.31	0.0006243
2908.89	0.000662
2920.46	0.000671
2932.04	0.0006922
2943.61	0.0006834
2955.18	0.0006942
2966.76	0.0006638
2978.33	0.0006659
2989.91	0.0006569
3001.48	0.0007306
3013.05	0.0007767
3024.63	0.0008277
3036.2	0.000835
3047.78	0.0009264
3059.35	0.001201
3070.92	0.001571
3082.5	0.001921
3094.07	0.0010531
3105.65	0.0007709
3117.22	0.0008272
3128.79	0.0008555
3140.37	0.0007539
3151.94	0.0006831
3163.52	0.0007354
3175.09	0.0007871
3186.66	0.0007298
3198.24	0.0006955
3209.81	0.0007652
3221.39	0.0007429
3232.96	0.0007113
3244.53	0.0006998
3256.11	0.000738
3267.68	0.0007432
3279.26	0.0007504
3290.83	0.0007563
3302.4	0.0006762
3313.98	0.0008025
3325.55	0.0007522
3337.13	0.000761
3348.7	0.0007128
3360.27	0.0007643
3371.85	0.0006751
3383.42	0.0007121
3395	0.0007244
3406.57	0.0007413
3418.14	0.0007025
3429.72	0.0007895
3441.29	0.0008616
3452.86	0.0009573
3464.44	0.0007872
3476.01	0.0007906
3487.59	0.0006912
3499.16	0.0008372
3510.73	0.0008895
3522.31	0.0009431
3533.88	0.0008491
3545.46	0.0009581
3557.03	0.001591
3568.6	0.003111
3580.18	0.003661
3591.75	0.001401
3603.33	0.00096
3614.9	0.0008032
3626.47	0.0009384
3638.05	0.0008049
3649.62	0.0007134
3661.2	0.0007396
3672.77	0.0008534
3684.34	0.0007917
3695.92	0.0007298
3707.49	0.0007818
3719.07	0.000744
3730.64	0.0007086
3742.21	0.0007617
3753.79	0.0008005
3765.36	0.0007226
3776.94	0.0006475
3788.51	0.0006938
3800.08	0.0007078
3811.66	0.0007603
3823.23	0.0008105
3834.81	0.0008842
3846.38	0.0008856
3857.95	0.0008473
3869.53	0.0007582
3881.1	0.0007376
3892.68	0.0006501
3904.25	0.0007783
3915.82	0.0007208
3927.4	0.0008002
3938.97	0.0008938
3950.55	0.0008428
3962.12	0.0008124
3973.69	0.000788
3985.27	0.0007648
3996.84	0.0008028
