Infrared Spectrum: 2(3H)-BENZOFURANONE,3-ETHOXY-3-PHENYL-
Formula: C16 H14 O3
CAS: 62231-08-7
State: SOLUTION (7% IN CHCl3 FOR 2.5-12 MICRON) VS. SOLVENT
Class: COBLENTZ III
Instrument: PERKIN-ELMER 21 (GRATING)
Instrument parameters: FILTER AT ABOUT 10 MICRONS
Sampling: TRANSMISSION
Path length: 0.01 CM
Resolution: 2
Origin: ABBOTT LABORATORIES
MICROMETERS	TRANSMITTANCE
2.48	0.874
2.50812	0.877
2.53625	0.879
2.56437	0.881
2.59249	0.882
2.62062	0.881
2.64874	0.881
2.67686	0.881
2.70499	0.879
2.73311	0.872
2.76123	0.863
2.78936	0.865
2.81748	0.872
2.8456	0.876
2.87373	0.877
2.90185	0.877
2.92997	0.876
2.9581	0.878
2.98622	0.881
3.01434	0.881
3.04247	0.881
3.07059	0.881
3.09871	0.878
3.12684	0.876
3.15496	0.87
3.18308	0.858
3.21121	0.829
3.23933	0.801
3.26745	0.786
3.29558	0.764
3.3237	0.699
3.35182	0.71
3.37995	0.75
3.40807	0.755
3.43619	0.749
3.46432	0.758
3.49244	0.793
3.52056	0.831
3.54869	0.836
3.57681	0.839
3.60493	0.839
3.63306	0.84
3.66118	0.847
3.6893	0.853
3.71743	0.855
3.74555	0.855
3.77367	0.856
3.8018	0.857
3.82992	0.857
3.85804	0.857
3.88617	0.857
3.91429	0.857
3.94241	0.857
3.97054	0.857
3.99866	0.857
4.02678	0.856
4.05491	0.857
4.08303	0.858
4.11115	0.864
4.13928	0.871
4.1674	0.883
4.19552	0.882
4.22365	0.881
4.25177	0.882
4.27989	0.882
4.30802	0.876
4.33614	0.867
4.36426	0.847
4.39239	0.849
4.42051	0.853
4.44864	0.855
4.47676	0.856
4.50488	0.854
4.53301	0.85
4.56113	0.85
4.58925	0.85
4.61738	0.849
4.6455	0.847
4.67362	0.844
4.70175	0.841
4.72987	0.839
4.75799	0.836
4.78612	0.836
4.81424	0.84
4.84236	0.844
4.87049	0.848
4.89861	0.848
4.92673	0.846
4.95486	0.842
4.98298	0.84
5.0111	0.833
5.03923	0.827
5.06735	0.818
5.09547	0.799
5.1236	0.812
5.15172	0.819
5.17984	0.817
5.20797	0.803
5.23609	0.807
5.26421	0.805
5.29234	0.79
5.32046	0.773
5.34858	0.77
5.37671	0.735
5.40483	0.578
5.43295	0.497
5.46108	0.261
5.4892	0.076
5.51732	0.097
5.54545	0.215
5.57357	0.574
5.60169	0.653
5.62982	0.719
5.65794	0.757
5.68606	0.78
5.71419	0.794
5.74231	0.798
5.77043	0.801
5.79856	0.803
5.82668	0.799
5.8548	0.799
5.88293	0.801
5.91105	0.81
5.93917	0.812
5.9673	0.814
5.99542	0.815
6.02354	0.815
6.05167	0.815
6.07979	0.8
6.10791	0.751
6.13604	0.517
6.16416	0.455
6.19228	0.624
6.22041	0.481
6.24853	0.574
6.27665	0.743
6.30478	0.782
6.3329	0.797
6.36102	0.805
6.38915	0.81
6.41727	0.82
6.44539	0.836
6.47352	0.843
6.50164	0.861
6.52976	0.868
6.55789	0.876
6.58601	0.876
6.61413	0.855
6.64226	0.818
6.67038	0.66
6.6985	0.593
6.72663	0.643
6.75475	0.491
6.78287	0.491
6.811	0.409
6.83912	0.185
6.86724	0.524
6.89537	0.486
6.92349	0.558
6.95161	0.722
6.97974	0.796
7.00786	0.813
7.03598	0.814
7.06411	0.81
7.09223	0.792
7.12035	0.747
7.14848	0.666
7.1766	0.66
7.20472	0.706
7.23285	0.755
7.26097	0.784
7.28909	0.79
7.31722	0.792
7.34534	0.793
7.37346	0.794
7.40159	0.796
7.42971	0.797
7.45783	0.798
7.48596	0.798
7.51408	0.763
7.5422	0.695
7.57033	0.65
7.59845	0.657
7.62657	0.707
7.6547	0.733
7.68282	0.755
7.71094	0.743
7.73907	0.561
7.76719	0.417
7.79531	0.491
7.82344	0.668
7.85156	0.73
7.87968	0.75
7.90781	0.765
7.93593	0.77
7.96405	0.773
7.99218	0.771
8.0203	0.768
8.04842	0.762
8.07655	0.745
8.10467	0.717
8.13279	0.668
8.16092	0.665
8.18904	0.674
8.21716	0.701
8.24529	0.707
8.27341	0.716
8.30154	0.726
8.32966	0.733
8.35778	0.678
8.38591	0.636
8.41403	0.562
8.44215	0.558
8.47028	0.565
8.4984	0.575
8.52652	0.587
8.55465	0.632
8.58277	0.686
8.61089	0.696
8.63902	0.688
8.66714	0.632
8.69526	0.586
8.72339	0.606
8.75151	0.597
8.77963	0.572
8.80776	0.503
8.83588	0.424
8.864	0.348
8.89213	0.397
8.92025	0.435
8.94837	0.417
8.9765	0.368
9.00462	0.406
9.03274	0.446
9.06087	0.446
9.08899	0.425
9.11711	0.384
9.14524	0.297
9.17336	0.234
9.20148	0.238
9.22961	0.255
9.25773	0.262
9.28585	0.181
9.31398	0.12
9.3421	0.078
9.37022	0.064
9.39835	0.062
9.42647	0.075
9.45459	0.106
9.48272	0.144
9.51084	0.233
9.53896	0.336
9.56709	0.452
9.59521	0.518
9.62333	0.534
9.65146	0.527
9.67958	0.432
9.7077	0.439
9.73583	0.477
9.76395	0.513
9.79207	0.538
9.8202	0.551
9.84832	0.493
9.87644	0.526
9.90457	0.662
9.93269	0.707
9.96081	0.696
9.98894	0.666
10.0171	0.667
10.0452	0.737
10.0733	0.751
10.1014	0.754
10.1296	0.747
10.1577	0.744
10.1858	0.745
10.2139	0.745
10.242	0.737
10.2702	0.72
10.2983	0.675
10.3264	0.59
10.3545	0.502
10.3827	0.48
10.4108	0.532
10.4389	0.627
10.467	0.682
10.4952	0.694
10.5233	0.673
10.5514	0.59
10.5795	0.493
10.6077	0.455
10.6358	0.446
10.6639	0.461
10.692	0.552
10.7201	0.646
10.7483	0.717
10.7764	0.77
10.8045	0.811
10.8326	0.82
10.8608	0.814
10.8889	0.801
10.917	0.79
10.9451	0.764
10.9733	0.727
11.0014	0.695
11.0295	0.685
11.0576	0.695
11.0857	0.713
11.1139	0.722
11.142	0.708
11.1701	0.68
11.1982	0.652
11.2264	0.645
11.2545	0.651
11.2826	0.674
11.3107	0.696
11.3389	0.703
11.367	0.694
11.3951	0.622
11.4232	0.445
11.4514	0.321
11.4795	0.369
11.5076	0.58
11.5357	0.667
11.5638	0.717
11.592	0.738
11.6201	0.748
11.6482	0.762
11.6763	0.787
11.7045	0.818
11.7326	0.846
11.7607	0.864
11.7888	0.869
11.817	0.863
11.8451	0.86
11.8732	0.855
11.9013	0.85
11.9294	0.853
11.9576	0.856
11.9857	0.858
12.0138	0.862
12.0419	0.865
12.0701	0.869
12.0982	0.871
12.1263	0.874
12.1544	0.876
12.1826	0.877
12.2107	0.882
12.2388	0.886
12.2669	0.895
12.2951	0.903
12.3232	0.918
12.3513	0.94
12.3794	0.956
12.4075	0.976
12.4357	0.998
12.4638	1.022
12.4919	1.022
12.52	1.022
12.5482	1.022
12.5763	1.022
12.6044	1.022
12.6325	1.022
12.6607	1.022
12.6888	1.022
12.7169	1.022
12.745	1.022
