Infrared Spectrum: 1-(Trimethylsilyl)propyne
Formula: C 6 H 12 Si
CAS: 6224-91-5
State: gas
Origin: EPA-IR VAPOR PHASE LIBRARY
1/CM	ABSORBANCE
549.9	0.00757
559.547	0.00519
569.193	0.00445
578.84	0.00427
588.486	0.00447
598.133	0.0047
607.779	0.00615
617.426	0.01444
627.072	0.03619
636.719	0.04716
646.365	0.03551
656.012	0.01586
665.658	0.0144
675.305	0.01805
684.951	0.02842
694.598	0.04296
704.245	0.04738
713.891	0.03958
723.538	0.03052
733.184	0.02711
742.831	0.03312
752.477	0.05391
762.124	0.07881
771.77	0.07883
781.417	0.05628
791.063	0.03721
800.71	0.03426
810.356	0.04786
820.003	0.09167
829.649	0.19269
839.296	0.33344
848.943	0.40633
858.589	0.31437
868.236	0.18421
877.882	0.10632
887.529	0.07256
897.175	0.05509
906.822	0.03957
916.468	0.02588
926.115	0.01665
935.761	0.01087
945.408	0.00733
955.054	0.0057
964.701	0.00493
974.347	0.0049
983.994	0.00644
993.64	0.01245
1003.29	0.03142
1012.93	0.07563
1022.58	0.12364
1032.23	0.11232
1041.87	0.04086
1051.52	0.00965
1061.17	0.00539
1070.81	0.00446
1080.46	0.00416
1090.11	0.0035152
1099.75	0.002791
1109.4	0.002504
1119.05	0.002389
1128.69	0.002297
1138.34	0.002278
1147.99	0.002466
1157.63	0.002638
1167.28	0.0028446
1176.92	0.0032036
1186.57	0.0034764
1196.22	0.0033793
1205.86	0.00395
1215.51	0.00599
1225.16	0.01301
1234.8	0.03522
1244.45	0.08155
1254.1	0.12621
1263.74	0.11007
1273.39	0.05615
1283.04	0.0208
1292.68	0.00956
1302.33	0.00847
1311.98	0.00936
1321.62	0.01147
1331.27	0.01345
1340.92	0.01095
1350.56	0.00869
1360.21	0.00926
1369.86	0.01199
1379.5	0.01275
1389.15	0.01301
1398.79	0.01321
1408.44	0.0153
1418.09	0.01681
1427.73	0.01303
1437.38	0.01096
1447.03	0.01075
1456.67	0.01003
1466.32	0.00988
1475.97	0.00855
1485.61	0.00727
1495.26	0.00848
1504.91	0.0063
1514.55	0.00575
1524.2	0.00643
1533.85	0.00693
1543.49	0.00532
1553.14	0.00456
1562.79	0.00404
1572.43	0.0037963
1582.08	0.0034454
1591.73	0.0029023
1601.37	0.002571
1611.02	0.002585
1620.67	0.002263
1630.31	0.002119
1639.96	0.002063
1649.6	0.001954
1659.25	0.00185
1668.9	0.00173
1678.54	0.00174
1688.19	0.00159
1697.84	0.0016
1707.48	0.00152
1717.13	0.00151
1726.78	0.00142
1736.42	0.00145
1746.07	0.00145
1755.72	0.00146
1765.36	0.00155
1775.01	0.00157
1784.66	0.00154
1794.3	0.00154
1803.95	0.00151
1813.6	0.00148
1823.24	0.00146
1832.89	0.00147
1842.54	0.00152
1852.18	0.00174
1861.83	0.002022
1871.47	0.00262
1881.12	0.0032003
1890.77	0.0034342
1900.41	0.00296364
1910.06	0.002373
1919.71	0.002291
1929.35	0.002599
1939	0.0031584
1948.65	0.0035821
1958.29	0.0036377
1967.94	0.0031552
1977.59	0.002654
1987.23	0.002375
1996.88	0.002459
2006.53	0.00293196
2016.17	0.003674
2025.82	0.00461
2035.47	0.00585
2045.11	0.00646
2054.76	0.00507
2064.41	0.0031471
2074.05	0.002553
2083.7	0.002748
2093.35	0.0032507
2102.99	0.0037964
2112.64	0.00414
2122.28	0.00479
2131.93	0.00674
2141.58	0.01098
2151.22	0.02117
2160.87	0.04492
2170.52	0.08466
2180.16	0.11416
2189.81	0.09509
2199.46	0.03824
2209.1	0.00674
2218.75	0.0032472
2228.4	0.002732
2238.04	0.002603
2247.69	0.002599
2257.34	0.002494
2266.98	0.00213
2276.63	0.0018
2286.28	0.00169
2295.92	0.00165
2305.57	0.00156
2315.22	0.00153
2324.86	0.00149
2334.51	0.00143
2344.16	0.00144
2353.8	0.00149
2363.45	0.0015
2373.09	0.00176
2382.74	0.002114
2392.39	0.002446
2402.03	0.002688
2411.68	0.002413
2421.33	0.00188
2430.97	0.00171
2440.62	0.0017
2450.27	0.00174
2459.91	0.00182
2469.56	0.0018
2479.21	0.0018
2488.85	0.001972
2498.5	0.002022
2508.15	0.00188
2517.79	0.00163
2527.44	0.00148
2537.09	0.00149
2546.73	0.00138
2556.38	0.00137
2566.03	0.0014
2575.67	0.00143
2585.32	0.00145
2594.96	0.00148
2604.61	0.00167
2614.26	0.00192
2623.9	0.002048
2633.55	0.002014
2643.2	0.00196
2652.84	0.002019
2662.49	0.002212
2672.14	0.002598
2681.78	0.002719
2691.43	0.002686
2701.08	0.002391
2710.72	0.002308
2720.37	0.002418
2730.02	0.0030751
2739.66	0.0036125
2749.31	0.0034488
2758.96	0.00303956
2768.6	0.0034398
2778.25	0.00417
2787.9	0.00548
2797.54	0.00688
2807.19	0.00784
2816.84	0.00826
2826.48	0.0089
2836.13	0.01008
2845.77	0.01265
2855.42	0.01705
2865.07	0.02185
2874.71	0.02316
2884.36	0.02356
2894.01	0.03122
2903.65	0.03979
2913.3	0.042
2922.95	0.04791
2932.59	0.05077
2942.24	0.05025
2951.89	0.06525
2961.53	0.1047
2971.18	0.10598
2980.83	0.05951
2990.47	0.02739
3000.12	0.01594
3009.77	0.0136
3019.41	0.01084
3029.06	0.01172
3038.71	0.01371
3048.35	0.01268
3058	0.01212
3067.64	0.0113
3077.29	0.01006
3086.94	0.00947
3096.58	0.00822
3106.23	0.00689
3115.88	0.00604
3125.52	0.00509
3135.17	0.0038861
3144.82	0.0028868
3154.46	0.002652
3164.11	0.00283
3173.76	0.002783
3183.4	0.002559
3193.05	0.002083
3202.7	0.00152
3212.34	0.00144
3221.99	0.00149
3231.64	0.00147
3241.28	0.00118
3250.93	0.0006
3260.58	0.00049
3270.22	0.00023
3279.87	0.00039
3289.52	0.00012
3299.16	0.00012
3308.81	0.00037
3318.45	0.0001
3328.1	0.00029
3337.75	0.00021
3347.39	0.00034
3357.04	0.00047
3366.69	0.00057
3376.33	0.00052
3385.98	0.00058
3395.63	0.00025
3405.27	0.00054
3414.92	0.00055
3424.57	0.00049
3434.21	0.00048
3443.86	0.00046
3453.51	0.00046
3463.15	0.00069
3472.8	0.00068
3482.45	0.00069
3492.09	0.00085
3501.74	0.00063
3511.39	0.00077
3521.03	0.00092
3530.68	0.00103
3540.33	0.00121
3549.97	0.00127
3559.62	0.0013
3569.26	0.00127
3578.91	0.00152
3588.56	0.00159
3598.2	0.00171
3607.85	0.00177
3617.5	0.00177
3627.14	0.00183
3636.79	0.002035
3646.44	0.002307
3656.08	0.002794
3665.73	0.002782
3675.38	0.002534
3685.02	0.002166
3694.67	0.002123
3704.32	0.002253
3713.96	0.002518
3723.61	0.002782
3733.26	0.00303605
3742.9	0.0031498
3752.55	0.0028492
3762.2	0.002715
3771.84	0.002462
3781.49	0.002292
3791.13	0.00231
3800.78	0.002322
3810.43	0.002266
3820.07	0.002105
3829.72	0.00183
3839.37	0.00152
3849.01	0.0016
3858.66	0.00152
3868.31	0.00143
3877.95	0.00158
3887.6	0.00153
3897.25	0.00148
3906.89	0.00147
3916.54	0.00156
3926.19	0.00155
3935.83	0.00141
3945.48	0.00148
3955.13	0.00158
3964.77	0.00163
3974.42	0.0015
3984.07	0.00142
3993.71	0.00145
