Infrared Spectrum: N,N-Dimethyl valeramide
Formula: C 7 H 15 N O
CAS: 6225-06-5
State: gas
Origin: EPA-IR VAPOR PHASE LIBRARY
1/CM	ABSORBANCE
501.5	0.000608
513.074	0.0008889
524.648	0.0011351
536.222	0.000984
547.796	0.0010951
559.37	0.0017551
570.944	0.0030251
582.518	0.0037551
594.092	0.0044151
605.666	0.0052951
617.24	0.0036551
628.814	0.0014451
640.388	0.0005749
651.962	0.0005083
663.536	0.0004428
675.11	0.0006474
686.684	0.0008628
698.258	0.0011951
709.832	0.0015651
721.406	0.0020351
732.98	0.0022251
744.554	0.0024351
756.128	0.0031451
767.702	0.0039151
779.276	0.0036551
790.85	0.0026851
802.423	0.0018251
813.997	0.0012151
825.571	0.0010851
837.145	0.00087
848.719	0.0007905
860.293	0.0008897
871.867	0.0013951
883.441	0.0018451
895.015	0.0020751
906.589	0.0023151
918.163	0.0024751
929.737	0.0034951
941.311	0.0048851
952.885	0.0061051
964.459	0.0063751
976.033	0.0060451
987.607	0.0059751
999.181	0.0060751
1010.76	0.0067951
1022.33	0.0087151
1033.9	0.0137951
1045.48	0.0220951
1057.05	0.0299651
1068.63	0.0362751
1080.2	0.0395551
1091.77	0.0404651
1103.35	0.0338151
1114.92	0.0271651
1126.49	0.0333151
1138.07	0.0491451
1149.64	0.0602951
1161.22	0.0517951
1172.79	0.0341051
1184.36	0.0212351
1195.94	0.0153551
1207.51	0.0133751
1219.09	0.0129951
1230.66	0.0142051
1242.23	0.0189951
1253.81	0.0297851
1265.38	0.0383951
1276.96	0.0300851
1288.53	0.0197551
1300.1	0.0187751
1311.68	0.0225751
1323.25	0.0268951
1334.83	0.0296151
1346.4	0.0351751
1357.97	0.0455451
1369.55	0.0688351
1381.12	0.109495
1392.7	0.129055
1404.27	0.0999851
1415.84	0.0653951
1427.42	0.0452751
1438.99	0.0465051
1450.57	0.0654951
1462.14	0.0714051
1473.71	0.0554351
1485.29	0.0410551
1496.86	0.0327951
1508.44	0.0277851
1520.01	0.0246251
1531.58	0.0225551
1543.16	0.0203351
1554.73	0.0174051
1566.31	0.0144751
1577.88	0.0120951
1589.45	0.0104251
1601.03	0.0098351
1612.6	0.0108251
1624.18	0.0144451
1635.75	0.0228551
1647.32	0.0414451
1658.9	0.0953651
1670.47	0.218615
1682.05	0.297345
1693.62	0.197225
1705.19	0.0660251
1716.77	0.0251451
1728.34	0.0132951
1739.92	0.0084351
1751.49	0.0060151
1763.06	0.0047051
1774.64	0.0038751
1786.21	0.0032251
1797.79	0.0026651
1809.36	0.0022651
1820.93	0.0018851
1832.51	0.0015751
1844.08	0.0013651
1855.66	0.0012451
1867.23	0.0011851
1878.8	0.0011351
1890.38	0.0010851
1901.95	0.0010157
1913.53	0.0009231
1925.1	0.0008993
1936.67	0.0008616
1948.25	0.0007673
1959.82	0.0006984
1971.4	0.0006615
1982.97	0.0006552
1994.54	0.00062
2006.12	0.0006153
2017.69	0.0006592
2029.27	0.0006687
2040.84	0.0007555
2052.41	0.0008006
2063.99	0.0008727
2075.56	0.0009068
2087.14	0.0009527
2098.71	0.0009151
2110.28	0.0008833
2121.86	0.0008812
2133.43	0.0009002
2145.01	0.0009256
2156.58	0.000895
2168.15	0.0008931
2179.73	0.0009008
2191.3	0.0009267
2202.88	0.0009461
2214.45	0.0009148
2226.02	0.000857
2237.6	0.0007905
2249.17	0.0006798
2260.74	0.0006192
2272.32	0.0005587
2283.89	0.000504
2295.47	0.0004935
2307.04	0.0004951
2318.61	0.0004566
2330.19	0.000467
2341.76	0.0005077
2353.34	0.0005335
2364.91	0.0005688
2376.48	0.0005733
2388.06	0.0006059
2399.63	0.0006065
2411.21	0.0005953
2422.78	0.0005985
2434.35	0.0006597
2445.93	0.0006781
2457.5	0.0006875
2469.08	0.0006776
2480.65	0.0007077
2492.22	0.0007479
2503.8	0.0007987
2515.37	0.0009109
2526.95	0.0010016
2538.52	0.001047
2550.09	0.0010851
2561.67	0.0011351
2573.24	0.0011551
2584.82	0.0011951
2596.39	0.0012151
2607.96	0.0012951
2619.54	0.0013851
2631.11	0.0014651
2642.69	0.0016451
2654.26	0.0018551
2665.83	0.0020751
2677.41	0.0022051
2688.98	0.0022751
2700.56	0.0024551
2712.13	0.0026951
2723.7	0.0030851
2735.28	0.0037851
2746.85	0.0045551
2758.43	0.0052851
2770	0.0065651
2781.57	0.0086651
2793.15	0.0117251
2804.72	0.0156851
2816.3	0.0195651
2827.87	0.0234151
2839.44	0.0288251
2851.02	0.0395151
2862.59	0.0577851
2874.17	0.0760051
2885.74	0.0843651
2897.31	0.0848451
2908.89	0.0979251
2920.46	0.120295
2932.04	0.140145
2943.61	0.143895
2955.18	0.134675
2966.76	0.132835
2978.33	0.0955451
2989.91	0.0511751
3001.48	0.0330351
3013.05	0.0263351
3024.63	0.0237051
3036.2	0.0209051
3047.78	0.0164651
3059.35	0.0122151
3070.92	0.0092851
3082.5	0.0072751
3094.07	0.0057651
3105.65	0.0045351
3117.22	0.0036451
3128.79	0.0029751
3140.37	0.0025451
3151.94	0.0021551
3163.52	0.0019051
3175.09	0.0016651
3186.66	0.0014851
3198.24	0.0012351
3209.81	0.0009903
3221.39	0.0007969
3232.96	0.0005827
3244.53	0.0004993
3256.11	0.0004803
3267.68	0.000418
3279.26	0.000464
3290.83	0.0004739
3302.4	0.0006906
3313.98	0.0010851
3325.55	0.0018451
3337.13	0.0028051
3348.7	0.0029851
3360.27	0.0021851
3371.85	0.0012151
3383.42	0.0007483
3395	0.0005591
3406.57	0.0003809
3418.14	0.0002746
3429.72	0.0002642
3441.29	0.0001977
3452.86	0.00015764
3464.44	0.0001977
3476.01	0.0001394
3487.59	0.00015446
3499.16	8.58e-05
3510.73	0.00015998
3522.31	8.452e-05
3533.88	4.81e-05
3545.46	6.6252e-05
3557.03	6.56636e-05
3568.6	0.00010271
3580.18	7.1154e-05
3591.75	7.2046e-05
3603.33	9.473e-05
3614.9	6.4853e-05
3626.47	0.00010081
3638.05	8.412e-05
3649.62	0.0002343
3661.2	0.0001507
3672.77	0.0002256
3684.34	0.00015699
3695.92	0.0001674
3707.49	0.00015203
3719.07	0.0001683
3730.64	0.0001753
3742.21	0.0002096
3753.79	0.0001901
3765.36	0.0002369
3776.94	0.0001089
3788.51	0.0002446
3800.08	0.0002624
3811.66	0.0001942
3823.23	0.0002841
3834.81	0.0003073
3846.38	0.000347
3857.95	0.000333
3869.53	0.0003523
3881.1	0.0003677
3892.68	0.0003403
3904.25	0.0003803
3915.82	0.0004377
3927.4	0.0003369
3938.97	0.0004521
3950.55	0.0005189
3962.12	0.0006394
3973.69	0.000728
3985.27	0.0007137
3996.84	0.0007285
