Infrared Spectrum: 5-Methyl-3-hexanol
Formula: C 7 H 16 O
CAS: 623-55-2
State: gas
Instrument: HP-GC/MS/IRD
Origin: NIST Mass Spectrometry Data Center
1/CM	ABSORBANCE
550	0.0002525
562	0.0002225
574	0.000105
586	6.5e-05
598	0.0001
610	0.000105
622	0.0001225
634	0.000125
646	7e-05
658	0.0001475
670	6.5e-05
682	8.25e-05
694	0.0001225
706	1.5e-05
718	5.25e-05
730	2.25e-05
742	0.000105
754	8.75e-05
766	0.00017
778	0.0001975
790	0.00023
802	0.000305
814	0.00041
826	0.0007
838	0.00082
850	0.00073
862	0.0005525
874	0.000565
886	0.0007
898	0.000865
910	0.0009575
922	0.0012175
934	0.0015525
946	0.0022275
958	0.0033675
970	0.0037775
982	0.0031275
994	0.0027
1006	0.00295
1018	0.0028625
1030	0.00232
1042	0.0019975
1054	0.0019225
1066	0.0020675
1078	0.00229
1090	0.00252
1102	0.002655
1114	0.0026375
1126	0.002835
1138	0.0031525
1150	0.002785
1162	0.0022375
1174	0.0017525
1186	0.0014375
1198	0.00161
1210	0.002005
1222	0.002235
1234	0.002165
1246	0.0019925
1258	0.0018725
1270	0.00181
1282	0.0017375
1294	0.0016075
1306	0.0014425
1318	0.00134
1330	0.0014875
1342	0.00173
1354	0.0024225
1366	0.0035975
1378	0.0043175
1390	0.003725
1402	0.002355
1414	0.0014375
1426	0.0013475
1438	0.00173
1450	0.00259
1462	0.0034475
1474	0.003125
1486	0.00175
1498	0.000845
1510	0.000375
1522	0.000285
1534	0.000275
1546	0.00023
1558	0.0002075
1570	0.00024
1582	0.0002425
1594	0.000225
1606	0.0002075
1618	0.000155
1630	0.000155
1642	0.000135
1654	8.25e-05
1666	0.00011
1678	8e-05
1690	9.5e-05
1702	5.75e-05
1714	7.25e-05
1726	7e-05
1738	4.25e-05
1750	5e-06
1762	5.25e-05
1774	2e-05
1786	2.75e-05
1798	2e-05
1810	5.5e-05
1822	6e-05
1834	4e-05
1846	4.25e-05
1858	5e-05
1870	4.5e-05
1882	6e-05
1894	6.75e-05
1906	6e-05
1918	4e-05
1930	7.75e-05
1942	3e-05
1954	5.75e-05
1966	4.75e-05
1978	4.5e-05
1990	5.5e-05
2002	4.25e-05
2014	6e-05
2026	5e-05
2038	3.25e-05
2050	4e-05
2062	3e-05
2074	3.5e-05
2086	2.75e-05
2098	2.5e-05
2110	4.25e-05
2122	7.5e-06
2134	3e-05
2146	3.25e-05
2158	4.5e-05
2170	3.75e-05
2182	4.5e-05
2194	4.75e-05
2206	6e-05
2218	2.25e-05
2230	4e-05
2242	4e-05
2254	2e-05
2266	1.5e-05
2278	2.25e-05
2290	3.75e-05
2302	7.5e-06
2314	5e-06
2326	5e-06
2338	5e-06
2350	2.25e-05
2362	7.5e-06
2374	2.75e-05
2386	6.25e-05
2398	7.25e-05
2410	9.75e-05
2422	7.5e-05
2434	8e-05
2446	7.75e-05
2458	6.75e-05
2470	6.5e-05
2482	7.5e-05
2494	7.75e-05
2506	6.5e-05
2518	8.5e-05
2530	7.25e-05
2542	0.0001025
2554	0.0001075
2566	0.0001575
2578	0.00016
2590	0.000195
2602	0.000225
2614	0.00025
2626	0.00026
2638	0.000275
2650	0.00028
2662	0.00029
2674	0.0003
2686	0.0003625
2698	0.000395
2710	0.0004325
2722	0.00053
2734	0.0005925
2746	0.00063
2758	0.000645
2770	0.0006525
2782	0.0007575
2794	0.0008675
2806	0.0010625
2818	0.0014
2830	0.0019325
2842	0.00289
2854	0.0043075
2866	0.006785
2878	0.0100675
2890	0.011185
2902	0.0114375
2914	0.0138575
2926	0.0172175
2938	0.0185325
2950	0.019005
2962	0.0245925
2974	0.02123
2986	0.00939
2998	0.0036625
3010	0.00184
3022	0.0012125
3034	0.0009
3046	0.0007875
3058	0.0006975
3070	0.0006425
3082	0.0006025
3094	0.000535
3106	0.0004825
3118	0.0004125
3130	0.0003975
3142	0.000335
3154	0.00031
3166	0.00031
3178	0.00033
3190	0.000265
3202	0.0002125
3214	0.000195
3226	0.0001275
3238	7.75e-05
3250	6e-05
3262	7.25e-05
3274	6.25e-05
3286	7.25e-05
3298	7.5e-05
3310	5.25e-05
3322	6.5e-05
3334	7e-05
3346	7e-05
3358	6.75e-05
3370	0.0001125
3382	0.000115
3394	0.0001075
3406	0.000135
3418	0.0001175
3430	0.0001125
3442	5.75e-05
3454	0.0001225
3466	9.75e-05
3478	0.0001075
3490	8.5e-05
3502	3.75e-05
3514	4.75e-05
3526	5e-06
3538	9.75e-05
3550	1.75e-05
3562	5.5e-05
3574	8.5e-05
3586	5.5e-05
3598	7.75e-05
3610	0.00016
3622	0.00037
3634	0.0007525
3646	0.0012075
3658	0.00143
3670	0.00088
3682	0.0003975
3694	0.000245
3706	0.000195
3718	0.000135
3730	0.0001175
3742	0.00012
3754	0.000145
3766	0.000135
3778	0.0001775
3790	0.000175
3802	0.0002
3814	0.0001725
3826	0.0001975
3838	0.000175
