Infrared Spectrum: 2-Butenedioic acid (E), diethyl ester
Formula: C8 H12 O4
CAS: 623-91-6
State: SOLUTION, 10% AND 2.5% (CCl4 FOR 2.7-7.5, CS2 FOR 7.5-26 MICRON) VS SOLVENT
Class: COBLENTZ III
Instrument: DOW KBr FOREPRISM-GRATING
Instrument parameters: BLAZED AT 3.5, 12.0, 20.0 MICRON AND CHANGED AT 5.0, 7.5, 14.9 MICRON
Sampling: TRANSMISSION
Path length: 0.011 CM, 0.011 CM
Resolution: 2
Origin: DOW CHEMICAL COMPANY
1/CM	TRANSMITTANCE
3806	0.8557
3797	0.8566
3788	0.8575
3779	0.8586
3770	0.8599
3761	0.8613
3752	0.8623
3743	0.8615
3734	0.8598
3725	0.8588
3716	0.8596
3707	0.8609
3698	0.8615
3689	0.8603
3680	0.8568
3671	0.858
3662	0.8591
3653	0.8597
3644	0.8604
3635	0.8607
3626	0.861
3617	0.8613
3608	0.8617
3599	0.8621
3590	0.8625
3581	0.8625
3572	0.8624
3563	0.8617
3554	0.8618
3545	0.8628
3536	0.8648
3527	0.8668
3518	0.8689
3509	0.8703
3500	0.8715
3491	0.8724
3482	0.8728
3473	0.8717
3464	0.8675
3455	0.8552
3446	0.8168
3437	0.7821
3428	0.7854
3419	0.8148
3410	0.8534
3401	0.863
3392	0.8652
3383	0.8628
3374	0.8616
3365	0.8604
3356	0.8606
3347	0.8607
3338	0.8607
3329	0.8607
3320	0.8607
3311	0.8599
3302	0.859
3293	0.858
3284	0.8574
3275	0.8568
3266	0.8563
3257	0.8563
3248	0.8563
3239	0.8565
3230	0.8566
3221	0.8575
3212	0.8591
3203	0.8581
3194	0.8562
3185	0.8566
3176	0.8571
3167	0.8577
3158	0.8582
3149	0.8584
3140	0.8589
3131	0.8583
3122	0.8567
3113	0.8531
3104	0.8463
3095	0.8336
3086	0.8195
3077	0.7972
3068	0.8032
3059	0.8111
3050	0.815
3041	0.8101
3032	0.7872
3023	0.7405
3014	0.4838
3005	0.2995
2996	0.1407
2987	0.135
2978	0.349
2969	0.3942
2960	0.4473
2951	0.5412
2942	0.4072
2933	0.5019
2924	0.5993
2915	0.5789
2906	0.4791
2897	0.6091
2888	0.6834
2879	0.6938
2870	0.6669
2861	0.7848
2852	0.8018
2843	0.8105
2834	0.8197
2825	0.8221
2816	0.8218
2807	0.8308
2798	0.844
2789	0.8486
2780	0.8478
2771	0.8443
2762	0.8441
2753	0.8464
2744	0.8493
2735	0.8518
2726	0.8545
2717	0.858
2708	0.8598
2699	0.8597
2690	0.8591
2681	0.859
2672	0.8593
2663	0.8601
2654	0.8608
2645	0.8615
2636	0.8621
2627	0.862
2618	0.8612
2609	0.86
2600	0.8593
2591	0.8591
2582	0.8593
2573	0.8594
2564	0.8597
2555	0.8595
2546	0.8591
2537	0.8586
2528	0.8578
2519	0.857
2510	0.8564
2501	0.8557
2492	0.8557
2483	0.8557
2474	0.8565
2465	0.8571
2456	0.8601
2447	0.8621
2438	0.8631
2429	0.864
2420	0.8647
2411	0.8655
2402	0.8658
2393	0.8642
2384	0.863
2375	0.8641
2366	0.8646
2357	0.8618
2348	0.8595
2339	0.8593
2330	0.8596
2321	0.8607
2312	0.862
2303	0.8625
2294	0.8557
2285	0.8516
2276	0.8506
2267	0.8509
2258	0.8524
2249	0.8544
2240	0.857
2231	0.86
2222	0.8638
2213	0.8658
2204	0.8667
2195	0.8668
2186	0.8664
2177	0.8627
2168	0.858
2159	0.8558
2150	0.8553
2141	0.8552
2132	0.8555
2123	0.8574
2114	0.8604
2105	0.8625
2096	0.8627
2087	0.8566
2078	0.8485
2069	0.8461
2060	0.8468
2051	0.8477
2042	0.85
2033	0.853
2024	0.8563
2015	0.8618
2006	0.8652
1997	0.8645
1988	0.864
1979	0.8613
1970	0.8594
1961	0.861
1952	0.8611
1943	0.8603
1934	0.8587
1925	0.8535
1916	0.8438
1907	0.8321
1898	0.8206
1889	0.8114
1880	0.8101
1871	0.8176
1862	0.8149
1853	0.828
1844	0.836
1835	0.8337
1826	0.8193
1817	0.7991
1808	0.7921
1799	0.7869
1790	0.7689
1781	0.7467
1772	0.7214
1763	0.668
1754	0.5468
1745	0.309
1736	0.0382
1727	0.0029
1718	0.0017
1709	0.0163
1700	0.2622
1691	0.4188
1682	0.4566
1673	0.6019
1664	0.6212
1655	0.6198
1646	0.1868
1637	0.6188
1628	0.7161
1619	0.7484
1610	0.7751
1601	0.7944
1592	0.8035
1583	0.8091
1574	0.8125
1565	0.8128
1556	0.8125
1547	0.8064
1538	0.8032
1529	0.8031
1520	0.8015
1511	0.798
1502	0.7881
1493	0.7664
1484	0.6518
1475	0.3898
1466	0.3259
1457	0.4784
1448	0.2884
1439	0.5891
1430	0.6468
1421	0.6233
1412	0.5615
1403	0.5054
1394	0.3421
1385	0.4535
1376	0.3017
1367	0.0963
1358	0.6031
1349	0.6461
1340	0.6268
1331	0.6037
1322	0.4426
1313	0.1442
1304	0.0116
1295	0.0031
1286	0.0022
1277	0.0367
1268	0.028
1259	0.0061
1250	0.0035
1241	0.0951
1232	0.3399
1223	0.1009
1214	0.2621
1205	0.365
1196	0.4234
1187	0.3516
1178	0.0692
1169	0.0189
1160	0.0315
1151	0.0039
1142	0.0321
1133	0.4009
1124	0.5431
1115	0.4991
1106	0.4592
1097	0.342
1088	0.3659
1079	0.5929
1070	0.616
1061	0.5929
1052	0.4066
1043	0.1099
1034	0.0072
1025	0.033
1016	0.3244
1007	0.531
998	0.6142
989	0.5809
980	0.1954
971	0.1121
962	0.4753
953	0.566
944	0.6235
935	0.6818
926	0.7514
917	0.7832
908	0.7994
899	0.803
890	0.8008
881	0.7762
872	0.7687
863	0.6017
854	0.4679
845	0.7578
836	0.7961
827	0.8008
818	0.7961
809	0.7424
800	0.7208
791	0.6449
782	0.5332
773	0.2754
764	0.5417
755	0.7226
746	0.7771
737	0.8039
728	0.814
719	0.8294
710	0.8405
701	0.8458
692	0.8465
683	0.8405
674	0.8275
665	0.6081
656	0.664
647	0.6457
638	0.7618
629	0.7964
620	0.8065
611	0.8216
602	0.8321
593	0.8385
584	0.8433
575	0.8437
566	0.8415
557	0.8378
548	0.832
539	0.8212
530	0.7581
521	0.6878
512	0.7571
503	0.7967
494	0.8149
485	0.8183
476	0.8172
467	0.8071
458	0.7786
449	0.7701
440	0.768
431	0.7675
422	0.7674
413	0.7671
404	0.7668
395	0.7676
