Infrared Spectrum: trans-2-Methyl-2-pentenal
Formula: C 6 H 10 O
CAS: 623-36-9
State: gas
Instrument: HP-GC/MS/IRD
Origin: NIST Mass Spectrometry Data Center
1/CM	ABSORBANCE
550	0.0003773
562	2.45e-05
574	4.9e-05
586	6.86e-05
598	0.000196
610	0.0002646
622	0.0004214
634	0.0007693
646	0.0009359
658	0.0008771
670	0.0006027
682	0.0003724
694	0.0002891
706	0.0003332
718	0.0003577
730	0.0004557
742	0.0007056
754	0.0009702
766	0.00147
778	0.0019012
790	0.001862
802	0.0017199
814	0.0018914
826	0.002352
838	0.0024794
850	0.0022344
862	0.0020384
874	0.0015141
886	0.0010731
898	0.0008134
910	0.0007693
922	0.0008085
934	0.0007546
946	0.0008232
958	0.0012201
970	0.001862
982	0.0027293
994	0.0034545
1006	0.0031507
1018	0.0024157
1030	0.0032046
1042	0.0043218
1054	0.0044541
1066	0.0035917
1078	0.0024794
1090	0.0014945
1102	0.0009849
1114	0.0007154
1126	0.0006076
1138	0.0005047
1150	0.0004116
1162	0.0004508
1174	0.0005929
1186	0.001127
1198	0.0025039
1210	0.0044247
1222	0.0042483
1234	0.0022099
1246	0.0012936
1258	0.0010682
1270	0.0009751
1282	0.0011907
1294	0.0018473
1306	0.0023275
1318	0.001911
1330	0.0011809
1342	0.0015386
1354	0.002156
1366	0.00245
1378	0.00245
1390	0.002891
1402	0.0028959
1414	0.0024059
1426	0.0017199
1438	0.0017689
1450	0.0020384
1462	0.002205
1474	0.0018375
1486	0.0013426
1498	0.0010584
1510	0.0008477
1522	0.0007154
1534	0.0006615
1546	0.0006223
1558	0.0005978
1570	0.0006174
1582	0.0006713
1594	0.0009457
1606	0.0014602
1618	0.0023079
1630	0.0039396
1642	0.0053067
1654	0.0047236
1666	0.0036848
1678	0.0051009
1690	0.0145383
1702	0.0449477
1714	0.0487207
1726	0.0133917
1738	0.0039886
1750	0.0018816
1762	0.001078
1774	0.0007154
1786	0.0006419
1798	0.0006664
1810	0.0006223
1822	0.0005341
1834	0.0004067
1846	0.0003234
1858	0.0002695
1870	0.0002352
1882	0.0002254
1894	0.000245
1906	0.0002352
1918	0.0002352
1930	0.0002107
1942	0.0001813
1954	0.0001617
1966	0.0001617
1978	0.0001421
1990	0.0001519
2002	0.0001568
2014	0.0001568
2026	0.0001519
2038	0.0001421
2050	0.0001323
2062	0.0001029
2074	6.86e-05
2086	6.37e-05
2098	9.31e-05
2110	8.82e-05
2122	8.82e-05
2134	8.33e-05
2146	7.84e-05
2158	7.84e-05
2170	3.92e-05
2182	3.92e-05
2194	4.9e-05
2206	4.9e-05
2218	5.88e-05
2230	2.94e-05
2242	4.9e-06
2254	2.94e-05
2266	4.41e-05
2278	4.9e-05
2290	3.43e-05
2302	2.45e-05
2314	9.8e-06
2326	0
2338	0
2350	1.96e-05
2362	0
2374	4.9e-05
2386	6.37e-05
2398	6.37e-05
2410	0.0001078
2422	0.0001372
2434	0.0001029
2446	8.33e-05
2458	5.88e-05
2470	3.92e-05
2482	4.41e-05
2494	8.33e-05
2506	6.37e-05
2518	9.8e-05
2530	8.82e-05
2542	7.35e-05
2554	0.0001127
2566	0.0001176
2578	0.0001274
2590	0.0001862
2602	0.000245
2614	0.0002303
2626	0.000245
2638	0.0003087
2650	0.0004312
2662	0.0006517
2674	0.0013034
2686	0.0028469
2698	0.0049637
2710	0.0057183
2722	0.0045521
2734	0.0032095
2746	0.0029253
2758	0.0030772
2770	0.0033271
2782	0.0039739
2794	0.0053508
2806	0.0064974
2818	0.0059143
2830	0.0041503
2842	0.0027538
2854	0.0026117
2866	0.0032536
2878	0.0045178
2890	0.0054684
2902	0.0055517
2914	0.0054684
2926	0.0063847
2938	0.0079968
2950	0.0087122
2962	0.009359
2974	0.012397
2986	0.0113876
2998	0.0067277
3010	0.0041111
3022	0.0027783
3034	0.0020335
3046	0.001617
3058	0.0013671
3070	0.0011319
3082	0.0008722
3094	0.0006762
3106	0.0005341
3118	0.0004606
3130	0.0004165
3142	0.000392
3154	0.0003283
3166	0.0003087
3178	0.0002303
3190	0.0001666
3202	0.0001421
3214	0.0001176
3226	0.0001029
3238	9.8e-05
3250	0.0001078
3262	7.84e-05
3274	0.0001225
3286	7.84e-05
3298	9.8e-05
3310	6.37e-05
3322	0.0001127
3334	0.0001078
3346	0.0001617
3358	0.0002058
3370	0.0003332
3382	0.0006076
3394	0.0009163
3406	0.0008183
3418	0.0004165
3430	0.000245
3442	0.0001519
3454	0.0001372
3466	8.82e-05
3478	6.86e-05
3490	7.84e-05
3502	2.45e-05
3514	9.8e-06
3526	4.41e-05
3538	5.39e-05
3550	1.96e-05
3562	2.94e-05
3574	9.8e-06
3586	1.47e-05
3598	2.45e-05
3610	1.96e-05
3622	2.45e-05
3634	0
3646	6.86e-05
3658	6.86e-05
3670	3.92e-05
3682	8.82e-05
3694	8.33e-05
3706	9.31e-05
3718	9.8e-06
3730	2.94e-05
3742	3.92e-05
3754	3.43e-05
3766	2.94e-05
3778	0.0001078
3790	7.35e-05
3802	2.45e-05
3814	7.35e-05
3826	8.33e-05
3838	4.9e-05
