Infrared Spectrum: Alpha,Alpha'-DICHLORO-p-XYLENE
Formula: C8 H8 Cl2
CAS: 623-25-6
State: SOLUTION (SATURATED IN CCl4 FOR 3800-1333, SATURATED IN CS2 FOR 1333-440 CM^-^1)
Class: COBLENTZ
Instrument: Not specified, most likely a prism, grating, or hybrid spectrometer.
Sampling: TRANSMISSION
Path length: 0.01 CM, 0.01 CM
Resolution: 4
Origin: DOW CHEMICAL COMPANY
1/CM	TRANSMITTANCE
453.659	0.92
462.196	0.935
470.732	0.956
479.269	0.971
487.806	0.975
496.342	0.973
504.879	0.939
513.415	0.893
521.952	0.9799
530.489	1.02
539.025	1.032
547.562	1.026
556.099	0.996
564.635	1.019
573.172	1.049
581.708	1.049
590.245	1.057
598.782	1.041
607.318	1.032
615.855	1.026
624.392	1.02
632.928	0.975
641.465	0.921
650.001	0.881
658.538	0.819
667.075	0.7421
675.611	0.636
684.148	0.4703
692.685	0.1651
701.221	0.205
709.758	0.4301
718.294	0.6809
726.831	0.794
735.368	0.813
743.904	0.758
752.441	0.693
760.978	0.54
769.514	0.3369
778.051	0.5648
786.587	0.834
795.124	0.925
803.661	0.921
812.197	0.868
820.734	0.775
829.271	0.735
837.807	0.777
846.344	0.74
854.88	0.76
863.417	0.817
871.954	0.878
880.49	0.916
889.027	0.96
897.564	0.982
906.1	0.967
914.637	0.954
923.173	0.95
931.71	0.988
940.247	1
948.783	1
957.32	1
965.857	1.003
974.393	1.017
982.93	1.024
991.466	1.026
1000	1.024
1008.54	1.019
1017.08	1
1025.61	0.9575
1034.15	1.009
1042.69	1.009
1051.22	1.009
1059.76	1.003
1068.3	1
1076.83	1
1085.37	1.001
1093.91	0.984
1102.44	0.95
1110.98	0.8049
1119.52	1.009
1128.05	1.013
1136.59	0.998
1145.13	0.961
1153.66	0.958
1162.2	0.956
1170.74	0.95
1179.27	0.931
1187.81	0.956
1196.35	0.973
1204.88	0.958
1213.42	0.908
1221.96	0.969
1230.49	0.963
1239.03	0.929
1247.57	0.921
1256.1	0.8031
1264.64	0.3731
1273.18	0.3232
1281.71	0.8299
1290.25	0.91
1298.79	0.925
1307.32	0.939
1315.86	0.95
1324.39	0.956
1332.93	0.971
1341.47	0.992
1350	1
1358.54	1.001
1367.08	1.013
1375.61	1.013
1384.15	1.013
1392.69	0.998
1401.22	0.982
1409.76	0.944
1418.3	0.733
1426.83	0.897
1435.37	0.891
1443.91	0.7919
1452.44	0.9349
1460.98	0.98
1469.52	0.984
1478.05	0.971
1486.59	0.948
1495.13	0.906
1503.66	0.836
1512.2	0.723
1520.74	0.691
1529.27	0.683
1537.81	0.605
1546.35	0.508
1554.88	0.525
1563.42	0.6071
1571.96	0.691
1580.49	0.708
1589.03	0.7521
1597.57	0.836
1606.1	0.923
1614.64	0.963
1623.18	0.992
1631.71	1.007
1640.25	1.02
1648.79	1.009
1657.32	1.001
1665.86	1.001
1674.4	1.003
1682.93	1.011
1691.47	1.013
1700.01	1.011
1708.54	1.013
1717.08	1.015
1725.62	1.013
1734.15	1.007
1742.69	1.007
1751.23	1.009
1759.76	1.013
1768.3	1.007
1776.84	1.007
1785.37	0.998
1793.91	0.982
1802.45	1.007
1810.98	1.007
1819.52	1.009
1828.06	1.011
1836.59	1.011
1845.13	1.009
1853.67	1.007
1862.2	1.005
1870.74	1.007
1879.28	1.009
1887.81	1.001
1896.35	0.994
1904.89	0.971
1913.42	0.969
1921.96	0.998
1930.5	1.009
1939.03	1.015
1947.57	1.019
1956.11	1.019
1964.64	1.011
1973.18	1.009
1981.72	1.009
1990.25	1.007
1998.79	0.98
2007.33	0.984
2015.86	0.982
2024.4	0.9878
2032.93	0.992
2041.47	0.99
2050.01	0.9872
2058.54	0.986
2067.08	0.986
2075.62	0.999
2084.15	1
2092.69	1
2101.23	1
2109.76	1
2118.3	1
2126.84	1
2135.37	1
2143.91	1
2152.45	1
2160.98	1
2169.52	1
2178.06	1
2186.59	1
2195.13	0.9993
2203.67	0.9994
2212.2	0.996
2220.74	0.9995
2229.28	0.9928
2237.81	0.9898
2246.35	0.988
2254.89	0.9839
2263.42	0.979
2271.96	0.975
2280.5	0.969
2289.03	0.963
2297.57	0.964
2306.11	0.969
2314.64	0.9719
2323.18	0.9751
2331.72	0.9688
2340.25	0.967
2348.79	0.9758
2357.33	0.979
2365.86	0.98
2374.4	0.988
2382.94	0.9927
2391.47	0.994
2400.01	0.994
2408.55	0.998
2417.08	0.996
2425.62	0.996
2434.16	0.996
2442.69	0.9975
2451.23	0.9975
2459.77	0.996
2468.3	0.994
2476.84	0.994
2485.38	0.994
2493.91	0.994
2502.45	0.994
2510.99	0.994
2519.52	0.994
2528.06	0.994
2536.6	0.994
2545.13	0.994
2553.67	0.994
2562.21	0.9931
2570.74	0.992
2579.28	0.9909
2587.82	0.99
2596.35	0.989
2604.89	0.99
2613.43	0.99
2621.96	0.99
2630.5	0.988
2639.04	0.99
2647.57	0.9912
2656.11	0.992
2664.65	0.99
2673.18	0.988
2681.72	0.988
2690.26	0.9846
2698.79	0.9813
2707.33	0.977
2715.87	0.9846
2724.4	0.988
2732.94	0.988
2741.47	0.988
2750.01	0.988
2758.55	0.988
2767.08	0.988
2775.62	0.988
2784.16	0.988
2792.69	0.986
2801.23	0.984
2809.77	0.9807
2818.3	0.9787
2826.84	0.977
2835.38	0.9748
2843.91	0.9686
2852.45	0.9599
2860.99	0.9517
2869.52	0.9311
2878.06	0.9561
2886.6	0.969
2895.13	0.971
2903.67	0.969
2912.21	0.955
2920.74	0.9502
2929.28	0.9433
2937.82	0.9311
2946.35	0.885
2954.89	0.7924
2963.43	0.7892
2971.96	0.865
2980.5	0.9237
2989.04	0.9216
2997.57	0.916
3006.11	0.9083
3014.65	0.8876
3023.18	0.9
3031.72	0.8692
3040.26	0.8934
3048.79	0.9115
3057.33	0.8855
3065.87	0.8983
3074.4	0.9574
3082.94	0.96
3091.48	0.96
3100.01	0.9613
3108.55	0.9683
3117.09	0.975
3125.62	0.9718
3134.16	0.967
3142.7	0.9737
3151.23	0.982
3159.77	0.984
3168.31	0.984
3176.84	0.984
3185.38	0.984
3193.92	0.985
3202.45	0.986
3210.99	0.986
3219.53	0.986
3228.06	0.986
3236.6	0.986
3245.14	0.986
3253.67	0.988
3262.21	0.9888
3270.75	0.988
3279.28	0.9907
3287.82	0.992
3296.36	0.99
3304.89	0.99
3313.43	0.99
3321.97	0.988
3330.5	0.988
3339.04	0.9865
3347.58	0.9885
3356.11	0.988
3364.65	0.986
3373.19	0.986
3381.72	0.9864
3390.26	0.9866
3398.8	0.986
3407.33	0.986
3415.87	0.986
3424.41	0.9827
3432.94	0.982
3441.48	0.982
3450.01	0.98
3458.55	0.98
3467.09	0.98
3475.62	0.98
3484.16	0.98
3492.7	0.979
3501.23	0.979
3509.77	0.979
3518.31	0.977
3526.84	0.9779
3535.38	0.977
3543.92	0.977
3552.45	0.979
3560.99	0.977
3569.53	0.977
3578.06	0.975
3586.6	0.975
3595.14	0.9763
3603.67	0.975
3612.21	0.973
3620.75	0.9746
3629.28	0.9739
3637.82	0.969
3646.36	0.969
3654.89	0.969
3663.43	0.969
3671.97	0.969
3680.5	0.969
3689.04	0.9676
3697.58	0.965
3706.11	0.965
3714.65	0.969
3723.19	0.9717
3731.72	0.969
3740.26	0.975
3748.8	0.9708
3757.33	0.969
3765.87	0.969
3774.41	0.9721
3782.94	0.969
3791.48	0.974
