Infrared Spectrum: 1,2-DICHLOROETHYL ETHYL ETHER
Formula: C4 H8 Cl2 O
CAS: 623-46-1
State: LIQUID
Boiling point: 60-70 C
Class: COBLENTZ
Instrument: Not specified, most likely a prism, grating, or hybrid spectrometer.
Sampling: TRANSMISSION
Path length: 0.003 CM
Resolution: 4
Origin: WYANDOTTE CHEMICALS CORP., WYANDOTTE, MICHIGAN, USA
MICROMETERS	TRANSMITTANCE
2.041	0.971
2.08176	0.971
2.12251	0.971
2.16327	0.959
2.20402	0.942
2.24478	0.945
2.28554	0.948
2.32629	0.952
2.36705	0.952
2.40781	0.952
2.44856	0.955
2.48932	0.959
2.53007	0.965
2.57083	0.972
2.61159	0.971
2.65234	0.974
2.6931	0.977
2.73386	0.977
2.77461	0.976
2.81537	0.967
2.85612	0.969
2.89688	0.964
2.93764	0.962
2.97839	0.959
3.01915	0.955
3.0599	0.955
3.10066	0.955
3.14142	0.95
3.18217	0.948
3.22293	0.943
3.26369	0.914
3.30444	0.821
3.3452	0.294
3.38595	0.471
3.42671	0.491
3.46747	0.491
3.50822	0.715
3.54898	0.846
3.58973	0.872
3.63049	0.901
3.67125	0.903
3.712	0.92
3.75276	0.935
3.79352	0.942
3.83427	0.945
3.87503	0.948
3.91578	0.955
3.95654	0.954
3.9973	0.955
4.03805	0.954
4.07881	0.947
4.11957	0.947
4.16032	0.943
4.20108	0.94
4.24183	0.94
4.28259	0.94
4.32335	0.95
4.3641	0.96
4.40486	0.957
4.44561	0.952
4.48637	0.943
4.52713	0.94
4.56788	0.957
4.60864	0.96
4.6494	0.962
4.69015	0.952
4.73091	0.954
4.77166	0.962
4.81242	0.971
4.85318	0.969
4.89393	0.969
4.93469	0.971
4.97545	0.969
5.0162	0.972
5.05696	0.967
5.09771	0.954
5.13847	0.938
5.17923	0.937
5.21998	0.955
5.26074	0.965
5.30149	0.969
5.34225	0.965
5.38301	0.962
5.42376	0.967
5.46452	0.969
5.50528	0.972
5.54603	0.969
5.58679	0.969
5.62754	0.969
5.6683	0.962
5.70906	0.92
5.74981	0.882
5.79057	0.909
5.83133	0.926
5.87208	0.925
5.91284	0.94
5.95359	0.95
5.99435	0.952
6.03511	0.948
6.07586	0.948
6.11662	0.942
6.15737	0.943
6.19813	0.954
6.23889	0.955
6.27964	0.955
6.3204	0.954
6.36116	0.952
6.40191	0.95
6.44267	0.943
6.48342	0.938
6.52418	0.931
6.56494	0.926
6.60569	0.92
6.64645	0.901
6.6872	0.831
6.72796	0.617
6.76872	0.726
6.80947	0.715
6.85023	0.598
6.89099	0.494
6.93174	0.523
6.9725	0.396
7.01325	0.63
7.05401	0.668
7.09477	0.675
7.13552	0.705
7.17628	0.67
7.21704	0.484
7.25779	0.328
7.29855	0.675
7.3393	0.685
7.38006	0.396
7.42082	0.464
7.46157	0.596
7.50233	0.727
7.54308	0.782
7.58384	0.775
7.6246	0.707
7.66535	0.598
7.70611	0.608
7.74687	0.641
7.78762	0.602
7.82838	0.591
7.86913	0.632
7.90989	0.61
7.95065	0.464
7.9914	0.358
8.03216	0.299
8.07292	0.472
8.11367	0.658
8.15443	0.698
8.19518	0.641
8.23594	0.537
8.2767	0.539
8.31745	0.552
8.35821	0.479
8.39896	0.195
8.43972	0.272
8.48048	0.355
8.52123	0.239
8.56199	0.141
8.60275	0.105
8.6435	0.078
8.68426	0.044
8.72501	0.03
8.76577	0.03
8.80653	0.03
8.84728	0.032
8.88804	0.049
8.92879	0.062
8.96955	0.052
9.01031	0.105
9.05106	0.253
9.09182	0.391
9.13258	0.448
9.17333	0.496
9.21409	0.547
9.25484	0.545
9.2956	0.491
9.33636	0.372
9.37711	0.219
9.41787	0.103
9.45863	0.061
9.49938	0.076
9.54014	0.119
9.58089	0.197
9.62165	0.261
9.66241	0.229
9.70316	0.175
9.74392	0.226
9.78467	0.331
9.82543	0.471
9.86619	0.578
9.90694	0.637
9.9477	0.702
9.98846	0.736
10.0292	0.744
10.07	0.712
10.1107	0.639
10.1515	0.637
10.1922	0.697
10.233	0.751
10.2737	0.782
10.3145	0.795
10.3553	0.801
10.396	0.831
10.4368	0.848
10.4775	0.855
10.5183	0.857
10.559	0.857
10.5998	0.85
10.6406	0.84
10.6813	0.811
10.7221	0.763
10.7628	0.673
10.8036	0.554
10.8443	0.493
10.8851	0.537
10.9258	0.651
10.9666	0.753
11.0074	0.811
11.0481	0.841
11.0889	0.845
11.1296	0.836
11.1704	0.804
11.2111	0.755
11.2519	0.721
11.2927	0.743
11.3334	0.785
11.3742	0.807
11.4149	0.826
11.4557	0.841
11.4964	0.85
11.5372	0.857
11.5779	0.863
11.6187	0.877
11.6595	0.886
11.7002	0.887
11.741	0.887
11.7817	0.887
11.8225	0.884
11.8632	0.884
11.904	0.875
11.9448	0.857
11.9855	0.838
12.0263	0.792
12.067	0.712
12.1078	0.644
12.1485	0.642
12.1893	0.683
12.23	0.717
12.2708	0.743
12.3116	0.763
12.3523	0.782
12.3931	0.797
12.4338	0.807
12.4746	0.802
12.5153	0.794
12.5561	0.772
12.5969	0.753
12.6376	0.746
12.6784	0.751
12.7191	0.756
12.7599	0.753
12.8006	0.753
12.8414	0.753
12.8821	0.741
12.9229	0.702
12.9637	0.637
13.0044	0.595
13.0452	0.578
13.0859	0.588
13.1267	0.583
13.1674	0.561
13.2082	0.525
13.249	0.5
13.2897	0.491
13.3305	0.518
13.3712	0.547
13.412	0.566
13.4527	0.573
13.4935	0.586
13.5342	0.612
13.575	0.646
13.6158	0.67
13.6565	0.698
13.6973	0.715
13.738	0.732
13.7788	0.739
13.8195	0.739
13.8603	0.736
13.901	0.727
13.9418	0.714
13.9826	0.697
14.0233	0.671
14.0641	0.649
14.1048	0.622
14.1456	0.596
14.1863	0.568
14.2271	0.532
14.2679	0.501
14.3086	0.467
14.3494	0.431
14.3901	0.387
14.4309	0.345
14.4716	0.302
14.5124	0.275
14.5531	0.239
14.5939	0.215
14.6347	0.198
14.6754	0.187
14.7162	0.18
14.7569	0.176
14.7977	0.176
14.8384	0.181
14.8792	0.19
14.92	0.197
14.9607	0.204
15.0015	0.224
15.0422	0.272
15.083	0.307
15.1237	0.304
15.1645	0.287
15.2052	0.289
15.246	0.318
15.2868	0.35
15.3275	0.38
15.3683	0.408
15.409	0.44
15.4498	0.467
15.4905	0.493
15.5313	0.523
15.5721	0.547
15.6128	0.576
15.6536	0.598
15.6943	0.619
15.7351	0.636
15.7758	0.646
15.8166	0.658
15.8573	0.664
15.8981	0.671
15.9389	0.671
15.9796	0.676
