Infrared Spectrum: Ethyldiazoacetate
Formula: C 4 H 6 N 2 O 2
CAS: 623-73-4
State: gas
Instrument: HP-GC/MS/IRD
Origin: NIST Mass Spectrometry Data Center
1/CM	ABSORBANCE
550	0.0009728
562	0.0011392
574	0.0012672
586	0.001088
598	0.0007104
610	0.0003456
622	0.0001504
634	0.000192
646	0.000416
658	0.0003072
670	0.0018752
682	0.0003136
694	0.00024
706	7.04e-05
718	0.0001728
730	6.08e-05
742	0.0001536
754	0.000128
766	2.24e-05
778	6.08e-05
790	7.68e-05
802	4.8e-05
814	0.0002048
826	0.0003392
838	0.0005536
850	0.0008768
862	0.001088
874	0.0011648
886	0.0010624
898	0.001104
910	0.0011904
922	0.0012768
934	0.0012736
946	0.002864
958	0.001728
970	0.0014784
982	0.0017152
994	0.0019936
1006	0.0024672
1018	0.0026304
1030	0.0031616
1042	0.0035584
1054	0.004496
1066	0.004976
1078	0.005168
1090	0.0045344
1102	0.004256
1114	0.0039264
1126	0.0040064
1138	0.0047072
1150	0.0057824
1162	0.0076352
1174	0.0094944
1186	0.009072
1198	0.0064
1210	0.00384
1222	0.0028256
1234	0.0025792
1246	0.001904
1258	0.0012896
1270	0.0011904
1282	0.0013664
1294	0.001408
1306	0.0014848
1318	0.0018656
1330	0.003296
1342	0.0055776
1354	0.005776
1366	0.0054816
1378	0.004784
1390	0.0040384
1402	0.0023648
1414	0.0016896
1426	0.0012224
1438	0.0010976
1450	0.001264
1462	0.0012224
1474	0.0011712
1486	0.0008288
1498	0.0005728
1510	0.000384
1522	0.0003392
1534	0.0002784
1546	0.0002592
1558	0.0002592
1570	0.0001792
1582	0.0002912
1594	0.000464
1606	0.0004352
1618	0.0003104
1630	0.0003008
1642	0.0005184
1654	0.0008896
1666	0.0010048
1678	0.0012576
1690	0.001664
1702	0.0025248
1714	0.0035392
1726	0.0041952
1738	0.0039168
1750	0.0030912
1762	0.0024512
1774	0.0027296
1786	0.0024768
1798	0.002
1810	0.0014016
1822	0.0010112
1834	0.0007008
1846	0.0004384
1858	0.0002688
1870	0.000224
1882	0.0001856
1894	0.0002496
1906	0.0002112
1918	0.0002336
1930	0.0001568
1942	8.64e-05
1954	2.56e-05
1966	5.44e-05
1978	4.16e-05
1990	0.0001216
2002	0.0002688
2014	0.0005088
2026	0.0008384
2038	0.0014272
2050	0.0023136
2062	0.0037024
2074	0.0062944
2086	0.0114784
2098	0.021792
2110	0.03144
2122	0.0289056
2134	0.0154112
2146	0.0058816
2158	0.0038624
2170	0.00328
2182	0.0028128
2194	0.002288
2206	0.0016672
2218	0.0010688
2230	0.0006528
2242	0.0004224
2254	0.0003328
2266	0.0004
2278	0.0007008
2290	0.0014336
2302	0.0027168
2314	0.0043872
2326	0.005376
2338	0.0048896
2350	0.0040704
2362	0.0069248
2374	0.0050912
2386	0.0011872
2398	0.0001184
2410	7.04e-05
2422	4.16e-05
2434	6.08e-05
2446	2.88e-05
2458	5.12e-05
2470	6.72e-05
2482	4.48e-05
2494	5.12e-05
2506	2.56e-05
2518	5.76e-05
2530	0.0001024
2542	6.4e-05
2554	7.68e-05
2566	6.08e-05
2578	5.76e-05
2590	5.12e-05
2602	0.000128
2614	0.0001152
2626	0.00016
2638	0.0002144
2650	0.0002592
2662	0.0002688
2674	0.0004608
2686	0.0005984
2698	0.0006816
2710	0.0010368
2722	0.0012832
2734	0.0017856
2746	0.0021216
2758	0.0019232
2770	0.0020864
2782	0.0021568
2794	0.0021728
2806	0.0031584
2818	0.0030944
2830	0.0027296
2842	0.002256
2854	0.0023776
2866	0.0035136
2878	0.0039072
2890	0.0040896
2902	0.0040928
2914	0.0039392
2926	0.0042176
2938	0.0042496
2950	0.0044992
2962	0.00456
2974	0.005312
2986	0.00584
2998	0.0044384
3010	0.0030656
3022	0.002304
3034	0.0020992
3046	0.0022016
3058	0.0021632
3070	0.0017088
3082	0.0011104
3094	0.000736
3106	0.0006208
3118	0.0007168
3130	0.0006816
3142	0.0006592
3154	0.0005568
3166	0.0004512
3178	0.0003872
3190	0.0003072
3202	0.0002816
3214	0.000256
3226	0.0002048
3238	0.0001344
3250	0.000112
3262	0.000144
3274	0.0001248
3286	6.72e-05
3298	0.0001088
3310	4.8e-05
3322	5.12e-05
3334	3.52e-05
3346	4.16e-05
3358	4.16e-05
3370	5.44e-05
3382	3.2e-05
3394	6.72e-05
3406	8.96e-05
3418	0.0001248
3430	0.0001888
3442	0.0002784
3454	0.0003616
3466	0.0003264
3478	0.000272
3490	0.0002944
3502	0.0003008
3514	0.0003328
3526	0.0002432
3538	9.6e-05
3550	0.000144
3562	0.0001856
3574	0.0001504
3586	0.0002432
3598	0.0002208
3610	0.0001664
3622	0.0002048
3634	0.0002144
3646	0.0001696
3658	0.0001248
3670	0.0001728
3682	0.0002016
3694	0.0002048
3706	0.00024
3718	0.000128
3730	0.0002528
3742	0.000256
3754	0.000144
3766	5.76e-05
3778	4.48e-05
3790	0.0001088
3802	0.000192
3814	0.0001856
3826	0.0001632
3838	0.0001696
