Infrared Spectrum: CYANOFORMIC ACID, ETHYL ESTER
Formula: C4 H5 N O2
CAS: 623-49-4
State: SOLUTION (10% CCl4 FOR 3800-1330, 10% CS2 FOR 1330-400 CM^-^1)
Class: COBLENTZ III
Instrument: BECKMAN IR-9 (GRATING)
Instrument parameters: ORDER CHANGES: 670, 1200, 2000 CM^-^1
Sampling: TRANSMISSION
Path length: 0.010 CM, 0.011 CM
Resolution: 2
Origin: DOW CHEMICAL COMPANY
1/CM	TRANSMITTANCE
407.018	0.203
415.79	0.296
424.562	0.518
433.334	0.65
442.106	0.74
450.878	0.794
459.65	0.836
468.422	0.872
477.194	0.895
485.965	0.916
494.737	0.925
503.509	0.926
512.281	0.92
521.053	0.911
529.825	0.919
538.597	0.918
547.369	0.94
556.141	0.959
564.913	0.959
573.685	0.951
582.457	0.952
591.229	0.92
600.001	0.929
608.773	0.972
617.545	0.976
626.316	0.98
635.088	0.977
643.86	0.957
652.632	0.936
661.404	0.905
670.176	0.961
678.948	0.99
687.72	1.004
696.492	1.006
705.264	1
714.036	0.983
722.808	0.957
731.58	0.895
740.352	0.7099
749.124	0.2411
757.896	0.686
766.668	0.855
775.439	0.891
784.211	0.886
792.983	0.693
801.755	0.786
810.527	0.858
819.299	0.894
828.071	0.914
836.843	0.882
845.615	0.6928
854.387	0.246
863.159	0.423
871.931	0.711
880.703	0.805
889.475	0.854
898.247	0.798
907.019	0.794
915.791	0.7071
924.562	0.916
933.334	0.961
942.106	0.972
950.878	0.98
959.65	0.979
968.422	0.961
977.194	0.937
985.966	0.872
994.738	0.722
1003.51	0.2629
1012.28	0.062
1021.05	0.307
1029.83	0.539
1038.6	0.711
1047.37	0.793
1056.14	0.828
1064.91	0.848
1073.69	0.873
1082.46	0.871
1091.23	0.7509
1100	0.497
1108.77	0.552
1117.55	0.506
1126.32	0.664
1135.09	0.751
1143.86	0.769
1152.63	0.69
1161.4	0.632
1170.18	0.606
1178.95	0.592
1187.72	0.618
1196.49	0.601
1205.26	0.447
1214.04	0.214
1222.81	0.027
1231.58	0.002
1240.35	0.002
1249.12	0.002
1257.9	0.002
1266.67	0.008
1275.44	0.173
1284.21	0.292
1292.98	0.264
1301.76	0.191
1310.53	0.4231
1319.3	0.632
1328.07	0.739
1336.84	0.796
1345.62	0.834
1354.39	0.836
1363.16	0.7069
1371.93	0.3063
1380.7	0.676
1389.48	0.604
1398.25	0.632
1407.02	0.715
1415.79	0.791
1424.56	0.805
1433.33	0.797
1442.11	0.6829
1450.88	0.497
1459.65	0.603
1468.42	0.424
1477.19	0.4181
1485.97	0.696
1494.74	0.703
1503.51	0.71
1512.28	0.712
1521.05	0.712
1529.83	0.679
1538.6	0.589
1547.37	0.531
1556.14	0.525
1564.91	0.592
1573.69	0.649
1582.46	0.679
1591.23	0.7111
1600	0.793
1608.77	0.861
1617.55	0.894
1626.32	0.914
1635.09	0.925
1643.86	0.927
1652.63	0.919
1661.41	0.912
1670.18	0.882
1678.95	0.852
1687.72	0.834
1696.49	0.804
1705.27	0.6669
1714.04	0.538
1722.81	0.478
1731.58	0.262
1740.35	0.004
1749.12	0.001
1757.9	0.001
1766.67	0.123
1775.44	0.367
1784.21	0.474
1792.98	0.5561
1801.76	0.667
1810.53	0.715
1819.3	0.736
1828.07	0.808
1836.84	0.889
1845.62	0.92
1854.39	0.93
1863.16	0.933
1871.93	0.944
1880.7	0.958
1889.48	0.957
1898.25	0.962
1907.02	0.968
1915.79	0.976
1924.56	0.979
1933.34	0.986
1942.11	0.99
1950.88	0.99
1959.65	0.988
1968.42	0.987
1977.2	0.984
1985.97	0.986
1994.74	0.977
2003.51	0.976
2012.28	0.975
2021.05	0.972
2029.83	0.968
2038.6	0.97
2047.37	0.979
2056.14	0.981
2064.91	0.979
2073.69	0.9691
2082.46	0.9585
2091.23	0.9372
2100	0.933
2108.77	0.9408
2117.55	0.9549
2126.32	0.9628
2135.09	0.9718
2143.86	0.9769
2152.63	0.98
2161.41	0.981
2170.18	0.983
2178.95	0.984
2187.72	0.984
2196.49	0.9678
2205.27	0.9769
2214.04	0.9751
2222.81	0.959
2231.58	0.8875
2240.35	0.1554
2249.13	0.386
2257.9	0.7868
2266.67	0.8873
2275.44	0.9248
2284.21	0.9336
2292.99	0.9474
2301.76	0.955
2310.53	0.9588
2319.3	0.962
2328.07	0.965
2336.84	0.966
2345.62	0.966
2354.39	0.966
2363.16	0.9695
2371.93	0.977
2380.7	0.976
2389.48	0.968
2398.25	0.968
2407.02	0.9687
2415.79	0.973
2424.56	0.9767
2433.34	0.979
2442.11	0.979
2450.88	0.9729
2459.65	0.9559
2468.42	0.9306
2477.2	0.922
2485.97	0.923
2494.74	0.9334
2503.51	0.9491
2512.28	0.9584
2521.06	0.965
2529.83	0.968
2538.6	0.966
2547.37	0.9687
2556.14	0.9766
2564.92	0.981
2573.69	0.984
2582.46	0.984
2591.23	0.983
2600	0.9781
2608.77	0.9708
2617.55	0.9726
2626.32	0.979
2635.09	0.979
2643.86	0.9764
2652.63	0.9738
2661.41	0.972
2670.18	0.9782
2678.95	0.9866
2687.72	0.988
2696.49	0.988
2705.27	0.9891
2714.04	0.988
2722.81	0.984
2731.58	0.9805
2740.35	0.981
2749.13	0.98
2757.9	0.98
2766.67	0.9765
2775.44	0.969
2784.21	0.9725
2792.99	0.979
2801.76	0.979
2810.53	0.976
2819.3	0.9615
2828.07	0.957
2836.85	0.954
2845.62	0.9505
2854.39	0.945
2863.16	0.9362
2871.93	0.9091
2880.71	0.8534
2889.48	0.8866
2898.25	0.8711
2907.02	0.7897
2915.79	0.7983
2924.56	0.8483
2933.34	0.8106
2942.11	0.6832
2950.88	0.7414
2959.65	0.7976
2968.42	0.7064
2977.2	0.5835
2985.97	0.3946
2994.74	0.3579
3003.51	0.501
3012.28	0.6315
3021.06	0.7325
3029.83	0.8382
3038.6	0.8944
3047.37	0.9277
3056.14	0.9437
3064.92	0.9487
3073.69	0.954
3082.46	0.9583
3091.23	0.962
3100	0.963
3108.78	0.961
3117.55	0.955
3126.32	0.954
3135.09	0.955
3143.86	0.959
3152.64	0.961
3161.41	0.9623
3170.18	0.9635
3178.95	0.962
3187.72	0.962
3196.49	0.962
3205.27	0.963
3214.04	0.959
3222.81	0.959
3231.58	0.958
3240.35	0.957
3249.13	0.957
3257.9	0.957
3266.67	0.957
3275.44	0.958
3284.21	0.9612
3292.99	0.965
3301.76	0.9664
3310.53	0.9664
3319.3	0.966
3328.07	0.966
3336.85	0.966
3345.62	0.966
3354.39	0.966
3363.16	0.966
3371.93	0.9647
3380.71	0.9607
3389.48	0.9567
3398.25	0.954
3407.02	0.952
3415.79	0.9552
3424.57	0.9651
3433.34	0.969
3442.11	0.969
3450.88	0.969
3459.65	0.9677
3468.43	0.9474
3477.2	0.8976
3485.97	0.8649
3494.74	0.8908
3503.51	0.9404
3512.28	0.9521
3521.06	0.9591
3529.83	0.963
3538.6	0.9691
3547.37	0.9811
3556.14	0.987
3564.92	0.99
3573.69	0.99
3582.46	0.984
3591.23	0.984
3600	0.994
3608.78	0.993
3617.55	0.984
3626.32	0.997
3635.09	1.001
3643.86	1.001
3652.64	1.001
3661.41	1.001
3670.18	1.001
3678.95	1.001
3687.72	1.001
3696.5	1.001
3705.27	1.001
3714.04	1.001
3722.81	1.001
3731.58	1.001
3740.36	1.001
3749.13	1.001
3757.9	1.001
3766.67	1.001
3775.44	1.001
3784.21	1.001
3792.99	1.001
