Infrared Spectrum: (+)-Methyladipic acid
Formula: C 7 H 12 O 4
CAS: 623-82-5
State: gas
Origin: EPA-IR VAPOR PHASE LIBRARY
1/CM	ABSORBANCE
549.8	0.005002
559.445	0.005492
569.09	0.004932
578.734	0.004772
588.379	0.004822
598.024	0.005862
607.669	0.006632
617.313	0.006802
626.958	0.006622
636.603	0.006032
646.248	0.004722
655.893	0.003682
665.537	0.002892
675.182	0.002682
684.827	0.002572
694.472	0.002372
704.116	0.002352
713.761	0.001922
723.406	0.001812
733.051	0.001552
742.695	0.001192
752.34	0.0009145
761.985	0.0008692
771.63	0.0008635
781.275	0.001024
790.919	0.0008519
800.564	0.0006829
810.209	0.0004865
819.854	0.0004441
829.498	0.0005499
839.143	0.0004353
848.788	0.000719
858.433	0.0007199
868.078	0.0008289
877.722	0.0008398
887.367	0.0008149
897.012	0.0009952
906.657	0.0010985
916.301	0.0009675
925.946	0.0009642
935.591	0.0008853
945.236	0.0009838
954.88	0.001202
964.525	0.0010465
974.17	0.001142
983.815	0.0009066
993.46	0.0007903
1003.1	0.0009984
1012.75	0.001112
1022.39	0.001522
1032.04	0.002032
1041.68	0.002862
1051.33	0.004022
1060.97	0.006112
1070.62	0.008522
1080.26	0.010712
1089.91	0.012602
1099.55	0.015402
1109.2	0.018552
1118.84	0.020352
1128.49	0.019332
1138.13	0.016732
1147.78	0.014102
1157.42	0.011422
1167.07	0.008802
1176.71	0.006702
1186.36	0.005752
1196	0.005362
1205.64	0.004722
1215.29	0.003982
1224.93	0.003622
1234.58	0.003272
1244.22	0.003142
1253.87	0.003102
1263.51	0.003152
1273.16	0.003352
1282.8	0.003302
1292.45	0.003182
1302.09	0.002992
1311.74	0.002842
1321.38	0.002802
1331.03	0.003032
1340.67	0.003472
1350.32	0.004102
1359.96	0.004652
1369.61	0.005402
1379.25	0.006072
1388.9	0.005592
1398.54	0.003892
1408.18	0.002502
1417.83	0.002302
1427.47	0.002352
1437.12	0.002252
1446.76	0.002042
1456.41	0.002362
1466.05	0.002062
1475.7	0.001432
1485.34	0.000882
1494.99	0.0006563
1504.63	0.0004706
1514.28	0.0003801
1523.92	0.0003633
1533.57	0.0003304
1543.21	0.0002617
1552.86	0.0002912
1562.5	0.0003264
1572.15	0.000303
1581.79	0.0002966
1591.44	0.0003398
1601.08	0.0003368
1610.73	0.000286
1620.37	0.0002943
1630.01	0.0003358
1639.66	0.0003853
1649.3	0.0003755
1658.95	0.000438
1668.59	0.0005751
1678.24	0.0006612
1687.88	0.0008573
1697.53	0.001182
1707.17	0.001692
1716.82	0.002602
1726.46	0.004112
1736.11	0.006682
1745.75	0.010472
1755.4	0.016612
1765.04	0.027682
1774.69	0.038832
1784.33	0.033842
1793.98	0.020152
1803.62	0.011592
1813.27	0.006372
1822.91	0.003352
1832.55	0.001892
1842.2	0.001192
1851.84	0.0008303
1861.49	0.0006252
1871.13	0.0005001
1880.78	0.0004706
1890.42	0.0003837
1900.07	0.0004067
1909.71	0.000391
1919.36	0.0003944
1929	0.0003585
1938.65	0.0003044
1948.29	0.0003481
1957.94	0.0002865
1967.58	0.0002971
1977.23	0.0003068
1986.87	0.0003011
1996.52	0.0002875
2006.16	0.0002548
2015.81	0.0002645
2025.45	0.0002255
2035.1	0.0002603
2044.74	0.0002192
2054.38	0.0002574
2064.03	0.0002284
2073.67	0.0002408
2083.32	0.00015974
2092.96	0.0001549
2102.61	0.0002189
2112.25	0.00021137
2121.9	0.0002519
2131.54	0.000249
2141.19	0.000217
2150.83	0.00015848
2160.48	0.0002462
2170.12	0.00020326
2179.77	0.0002173
2189.41	0.000252
2199.06	0.0002619
2208.7	0.0002485
2218.35	0.0003157
2227.99	0.0002942
2237.64	0.0003008
2247.28	0.0002345
2256.92	0.0003219
2266.57	0.0002355
2276.21	0.0002495
2285.86	0.0002357
2295.5	0.0002173
2305.15	0.00020429
2314.79	0.00015461
2324.44	0.00021111
2334.08	0.00017643
2343.73	0.0002917
2353.37	0.0002654
2363.02	0.0002511
2372.66	0.0002914
2382.31	0.00015701
2391.95	0.00019153
2401.6	0.0002648
2411.24	0.0003034
2420.89	0.0002332
2430.53	0.0002194
2440.18	0.0002866
2449.82	0.0003386
2459.47	0.0003046
2469.11	0.0002226
2478.75	0.0002258
2488.4	0.0002605
2498.04	0.00020529
2507.69	0.0002469
2517.33	0.0002161
2526.98	0.00020204
2536.62	0.00017292
2546.27	0.00013094
2555.91	0.00020539
2565.56	0.0002671
2575.2	0.00010354
2584.85	0.0002372
2594.49	0.0002182
2604.14	0.0002564
2613.78	0.0002802
2623.43	0.00021068
2633.07	0.00016082
2642.72	0.0002659
2652.36	0.00019654
2662.01	0.00018496
2671.65	0.0002481
2681.29	0.0003443
2690.94	0.00019154
2700.58	0.000237
2710.23	0.0002334
2719.87	0.0002501
2729.52	0.0002801
2739.16	0.0003401
2748.81	0.0003276
2758.45	0.0002698
2768.1	0.0002349
2777.74	0.0003308
2787.39	0.0003192
2797.03	0.0003362
2806.68	0.0002965
2816.32	0.0002976
2825.97	0.0004463
2835.61	0.0005016
2845.26	0.0006619
2854.9	0.000818
2864.55	0.001182
2874.19	0.001662
2883.84	0.002232
2893.48	0.002282
2903.12	0.002102
2912.77	0.002562
2922.41	0.003572
2932.06	0.004532
2941.7	0.005232
2951.35	0.005122
2960.99	0.005462
2970.64	0.006172
2980.28	0.005192
2989.93	0.002832
2999.57	0.001442
3009.22	0.0008821
3018.86	0.0006062
3028.51	0.0005378
3038.15	0.0003854
3047.8	0.0003465
3057.44	0.0003064
3067.09	0.000305
3076.73	0.0003995
3086.38	0.0002371
3096.02	0.0002289
3105.67	0.0003142
3115.31	0.0002394
3124.95	0.0003241
3134.6	0.000225
3144.24	0.0003313
3153.89	0.00019635
3163.53	0.0002141
3173.18	0.0002237
3182.82	0.00021173
3192.47	0.0002738
3202.11	0.00015079
3211.76	0.000285
3221.4	0.0003492
3231.05	0.00010926
3240.69	0.000118186
3250.34	0.0002328
3259.98	0.00019589
3269.63	0.0002531
3279.27	0.00019924
3288.92	8.54e-05
3298.56	0.0002595
3308.21	0.00018441
3317.85	9.26e-05
3327.49	0.00019207
3337.14	0.00014665
3346.78	0.00013748
3356.43	0.0002519
3366.07	0.0004422
3375.72	0.00018833
3385.36	0.0002135
3395.01	0.000236
3404.65	0.00013492
3414.3	0.00016168
3423.94	0.0002842
3433.59	0.0002495
3443.23	0.0002288
3452.88	0.00013747
3462.52	0.0002596
3472.17	0.000279
3481.81	0.0003049
3491.46	0.0003637
3501.1	0.0004635
3510.75	0.0005962
3520.39	0.0005571
3530.04	0.000854
3539.68	0.001152
3549.32	0.001532
3558.97	0.003922
3568.61	0.013632
3578.26	0.015122
3587.9	0.004272
3597.55	0.001422
3607.19	0.0010089
3616.84	0.00063
3626.48	0.0004145
3636.13	0.0002993
3645.77	0.0003499
3655.42	0.0004756
3665.06	0.00015098
3674.71	0.0002947
3684.35	0.0002446
3694	0.00013128
3703.64	0.0002289
3713.29	0.0001458
3722.93	0.00018862
3732.58	0.0002467
3742.22	0.00017579
3751.86	0.0002319
3761.51	0.00017558
3771.15	0.00016497
3780.8	0.00018452
3790.44	4.84e-05
3800.09	0.0002353
3809.73	0.00016972
3819.38	2e-06
3829.02	0.000419
3838.67	0.0002761
3848.31	0.0002638
3857.96	0.00018192
3867.6	0.000121951
3877.25	0.00018734
3886.89	0.0002168
3896.54	0.0002375
3906.18	0.0002409
3915.83	0.00020101
3925.47	0.00019818
3935.12	8.01e-05
3944.76	0.000334
3954.41	0.0002767
3964.05	0.00013282
3973.69	0.000115977
3983.34	0.0002629
3992.98	0.00013063
