Infrared Spectrum: 2-FURFURYL-n-BUTYRATE
Formula: C9 H12 O3
CAS: 623-21-2
State: SOLUTION (10% CCl4 FOR 5000-1330, 10% CS2 FOR 1330-625 CM^-^1)
Class: COBLENTZ
Instrument: Not specified, most likely a prism, grating, or hybrid spectrometer.
Sampling: TRANSMISSION
Path length: 0.0121 CM, 0.0121 CM
Resolution: 4
Origin: DOW CHEMICAL COMPANY
MICROMETERS	TRANSMITTANCE
2.041	0.875
2.08222	0.87
2.12344	0.873
2.16465	0.87
2.20587	0.856
2.24709	0.851
2.28831	0.856
2.32952	0.858
2.37074	0.866
2.41196	0.856
2.45318	0.86
2.4944	0.873
2.53561	0.88
2.57683	0.875
2.61805	0.878
2.65927	0.868
2.70049	0.873
2.7417	0.865
2.78292	0.849
2.82414	0.843
2.86536	0.832
2.90657	0.849
2.94779	0.837
2.98901	0.837
3.03023	0.831
3.07145	0.822
3.11266	0.803
3.15388	0.781
3.1951	0.791
3.23632	0.8
3.27753	0.752
3.31875	0.535
3.35997	0.249
3.40119	0.517
3.44241	0.578
3.48362	0.774
3.52484	0.808
3.56606	0.831
3.60728	0.829
3.6485	0.834
3.68971	0.837
3.73093	0.837
3.77215	0.849
3.81337	0.848
3.85458	0.848
3.8958	0.86
3.93702	0.861
3.97824	0.868
4.01946	0.865
4.06067	0.866
4.10189	0.863
4.14311	0.868
4.18433	0.86
4.22555	0.841
4.26676	0.839
4.30798	0.846
4.3492	0.853
4.39042	0.863
4.43163	0.866
4.47285	0.873
4.51407	0.877
4.55529	0.877
4.59651	0.873
4.63772	0.873
4.67894	0.872
4.72016	0.87
4.76138	0.86
4.80259	0.868
4.84381	0.868
4.88503	0.865
4.92625	0.858
4.96747	0.863
5.00868	0.868
5.0499	0.868
5.09112	0.866
5.13234	0.861
5.17356	0.86
5.21477	0.865
5.25599	0.866
5.29721	0.861
5.33843	0.844
5.37964	0.844
5.42086	0.829
5.46208	0.813
5.5033	0.795
5.54452	0.754
5.58573	0.675
5.62695	0.51
5.66817	0.274
5.70939	0.056
5.7506	0.076
5.79182	0.221
5.83304	0.424
5.87426	0.597
5.91548	0.703
5.95669	0.745
5.99791	0.769
6.03913	0.784
6.08035	0.776
6.12157	0.754
6.16278	0.689
6.204	0.621
6.24522	0.597
6.28644	0.569
6.32765	0.54
6.36887	0.482
6.41009	0.416
6.45131	0.438
6.49253	0.529
6.53374	0.564
6.57496	0.569
6.61618	0.462
6.6574	0.52
6.69861	0.67
6.73983	0.629
6.78105	0.484
6.82227	0.424
6.86349	0.46
6.9047	0.491
6.94592	0.513
6.98714	0.552
7.02836	0.559
7.06958	0.624
7.11079	0.622
7.15201	0.542
7.19323	0.423
7.23445	0.37
7.27566	0.414
7.31688	0.486
7.3581	0.419
7.39932	0.39
7.44054	0.515
7.48175	0.627
7.52297	0.646
7.56419	0.573
7.60541	0.457
7.64662	0.363
7.68784	0.358
7.72906	0.348
7.77028	0.327
7.8115	0.356
7.85271	0.337
7.89393	0.303
7.93515	0.255
7.97637	0.191
8.01759	0.223
8.0588	0.269
8.10002	0.255
8.14124	0.261
8.18246	0.331
8.22367	0.32
8.26489	0.269
8.30611	0.206
8.34733	0.158
8.38855	0.127
8.42976	0.083
8.47098	0.042
8.5122	0.02
8.55342	0.013
8.59464	0.025
8.63585	0.049
8.67707	0.092
8.71829	0.221
8.75951	0.385
8.80072	0.482
8.84194	0.537
8.88316	0.558
8.92438	0.554
8.9656	0.508
9.00681	0.419
9.04803	0.32
9.08925	0.278
9.13047	0.29
9.17168	0.279
9.2129	0.259
9.25412	0.254
9.29534	0.365
9.33656	0.476
9.37777	0.547
9.41899	0.6
9.46021	0.604
9.50143	0.583
9.54265	0.54
9.58386	0.488
9.62508	0.53
9.6663	0.605
9.70752	0.634
9.74873	0.6
9.78995	0.441
9.83117	0.259
9.87239	0.324
9.91361	0.474
9.95482	0.472
9.99604	0.424
10.0373	0.363
10.0785	0.312
10.1197	0.247
10.1609	0.209
10.2021	0.189
10.2433	0.174
10.2846	0.167
10.3258	0.197
10.367	0.276
10.4082	0.411
10.4494	0.494
10.4907	0.554
10.5319	0.583
10.5731	0.588
10.6143	0.575
10.6555	0.547
10.6967	0.506
10.738	0.438
10.7792	0.336
10.8204	0.238
10.8616	0.223
10.9028	0.324
10.9441	0.464
10.9853	0.542
11.0265	0.593
11.0677	0.6
11.1089	0.597
11.1501	0.585
11.1914	0.578
11.2326	0.542
11.2738	0.406
11.315	0.44
11.3562	0.549
11.3974	0.559
11.4387	0.554
11.4799	0.547
11.5211	0.532
11.5623	0.517
11.6035	0.508
11.6448	0.52
11.686	0.537
11.7272	0.561
11.7684	0.588
11.8096	0.614
11.8508	0.639
11.8921	0.655
11.9333	0.662
11.9745	0.662
12.0157	0.658
12.0569	0.653
12.0982	0.639
12.1394	0.614
12.1806	0.573
12.2218	0.5
12.263	0.416
12.3042	0.343
12.3455	0.308
12.3867	0.329
12.4279	0.392
12.4691	0.452
12.5103	0.494
12.5515	0.529
12.5928	0.549
12.634	0.559
12.6752	0.564
12.7164	0.571
12.7576	0.58
12.7989	0.583
12.8401	0.587
12.8813	0.581
12.9225	0.576
12.9637	0.568
13.0049	0.549
13.0462	0.53
13.0874	0.501
13.1286	0.462
13.1698	0.414
13.211	0.356
13.2522	0.312
13.2935	0.262
13.3347	0.223
13.3759	0.189
13.4171	0.146
13.4583	0.09
13.4996	0.039
13.5408	0.011
13.582	0.02
13.6232	0.066
13.6644	0.126
13.7056	0.208
13.7469	0.29
13.7881	0.383
13.8293	0.46
13.8705	0.51
13.9117	0.549
13.953	0.569
13.9942	0.585
14.0354	0.595
14.0766	0.6
14.1178	0.605
14.159	0.607
14.2003	0.607
14.2415	0.605
14.2827	0.604
14.3239	0.602
14.3651	0.598
14.4063	0.597
14.4476	0.59
14.4888	0.585
14.53	0.58
14.5712	0.575
14.6124	0.568
14.6537	0.563
14.6949	0.558
14.7361	0.549
14.7773	0.544
14.8185	0.539
14.8597	0.535
14.901	0.527
14.9422	0.517
14.9834	0.517
15.0246	0.508
15.0658	0.494
15.1071	0.488
15.1483	0.472
15.1895	0.46
15.2307	0.448
15.2719	0.435
15.3131	0.428
15.3544	0.418
15.3956	0.411
15.4368	0.402
15.478	0.394
15.5192	0.382
15.5604	0.377
15.6017	0.368
15.6429	0.361
15.6841	0.356
15.7253	0.353
15.7665	0.348
15.8078	0.339
15.849	0.337
15.8902	0.337
