Infrared Spectrum: 1,3-DIMETHOXY-2-PROPANOL
Formula: C5 H12 O3
CAS: 623-69-8
State: SOLUTION (10% CCl4 FOR 5000-1330, 10% CS2 FOR 1330-625 CM^-^1)
Class: COBLENTZ
Instrument: Not specified, most likely a prism, grating, or hybrid spectrometer.
Sampling: TRANSMISSION
Path length: 0.0123 CM, 0.0123 CM
Resolution: 4
Origin: DOW CHEMICAL COMPANY
MICROMETERS	TRANSMITTANCE
2.048	0.85
2.08908	0.852
2.13015	0.848
2.17123	0.848
2.21231	0.826
2.25338	0.812
2.29446	0.819
2.33553	0.826
2.37661	0.829
2.41769	0.819
2.45876	0.809
2.49984	0.821
2.54092	0.836
2.58199	0.841
2.62307	0.84
2.66414	0.831
2.70522	0.77
2.7463	0.654
2.78737	0.46
2.82845	0.421
2.86953	0.333
2.9106	0.343
2.95168	0.457
2.99276	0.527
3.03383	0.571
3.07491	0.596
3.11598	0.617
3.15706	0.629
3.19814	0.639
3.23921	0.636
3.28029	0.6
3.32137	0.45
3.36244	0.29
3.40352	0.13
3.4446	0.078
3.48567	0.21
3.52675	0.239
3.56782	0.561
3.6089	0.659
3.64998	0.7
3.69105	0.732
3.73213	0.753
3.77321	0.765
3.81428	0.768
3.85536	0.775
3.89643	0.787
3.93751	0.797
3.97859	0.802
4.01966	0.812
4.06074	0.821
4.10182	0.829
4.14289	0.826
4.18397	0.828
4.22505	0.833
4.26612	0.835
4.3072	0.84
4.34827	0.848
4.38935	0.846
4.43043	0.841
4.4715	0.843
4.51258	0.84
4.55366	0.84
4.59473	0.835
4.63581	0.833
4.67689	0.833
4.71796	0.828
4.75904	0.814
4.80011	0.802
4.84119	0.802
4.88227	0.807
4.92334	0.816
4.96442	0.826
5.0055	0.835
5.04657	0.84
5.08765	0.845
5.12872	0.848
5.1698	0.848
5.21088	0.85
5.25195	0.85
5.29303	0.85
5.33411	0.85
5.37518	0.848
5.41626	0.846
5.45734	0.845
5.49841	0.836
5.53949	0.823
5.58056	0.795
5.62164	0.756
5.66272	0.585
5.70379	0.438
5.74487	0.331
5.78595	0.255
5.82702	0.292
5.8681	0.564
5.90918	0.698
5.95025	0.751
5.99133	0.763
6.0324	0.767
6.07348	0.761
6.11456	0.758
6.15563	0.758
6.19671	0.768
6.23779	0.807
6.27886	0.823
6.31994	0.838
6.36101	0.84
6.40209	0.846
6.44317	0.853
6.48424	0.855
6.52532	0.846
6.5664	0.819
6.60747	0.802
6.64855	0.789
6.68963	0.756
6.7307	0.636
6.77178	0.494
6.81285	0.392
6.85393	0.331
6.89501	0.316
6.93608	0.505
6.97716	0.551
7.01824	0.552
7.05931	0.559
7.10039	0.561
7.14147	0.551
7.18254	0.559
7.22362	0.573
7.26469	0.562
7.30577	0.525
7.34685	0.571
7.38792	0.613
7.429	0.568
7.47008	0.481
7.51115	0.448
7.55223	0.532
7.5933	0.585
7.63438	0.612
7.67546	0.624
7.71653	0.62
7.75761	0.591
7.79869	0.561
7.83976	0.549
7.88084	0.51
7.92192	0.469
7.96299	0.443
8.00407	0.42
8.04514	0.392
8.08622	0.382
8.1273	0.403
8.16837	0.42
8.20945	0.423
8.25053	0.406
8.2916	0.311
8.33268	0.171
8.37376	0.115
8.41483	0.149
8.45591	0.239
8.49698	0.302
8.53806	0.34
8.57914	0.341
8.62021	0.307
8.66129	0.277
8.70237	0.241
8.74344	0.171
8.78452	0.1
8.82559	0.02
8.86667	0.01
8.90775	0.008
8.94882	0.01
8.9899	0.011
9.03098	0.011
9.07205	0.015
9.11313	0.035
9.15421	0.057
9.19528	0.078
9.23636	0.102
9.27743	0.112
9.31851	0.115
9.35959	0.171
9.40066	0.236
9.44174	0.285
9.48282	0.341
9.52389	0.399
9.56497	0.43
9.60604	0.442
9.64712	0.442
9.6882	0.442
9.72927	0.467
9.77035	0.511
9.81143	0.556
9.8525	0.591
9.89358	0.627
9.93466	0.649
9.97573	0.67
10.0168	0.668
10.0579	0.658
10.099	0.617
10.14	0.549
10.1811	0.467
10.2222	0.353
10.2633	0.241
10.3043	0.132
10.3454	0.108
10.3865	0.168
10.4276	0.273
10.4686	0.387
10.5097	0.465
10.5508	0.518
10.5919	0.557
10.633	0.579
10.674	0.588
10.7151	0.588
10.7562	0.586
10.7973	0.581
10.8383	0.569
10.8794	0.557
10.9205	0.557
10.9616	0.564
11.0026	0.581
11.0437	0.593
11.0848	0.602
11.1259	0.613
11.1669	0.627
11.208	0.647
11.2491	0.673
11.2902	0.681
11.3313	0.687
11.3723	0.687
11.4134	0.683
11.4545	0.676
11.4956	0.673
11.5366	0.68
11.5777	0.687
11.6188	0.687
11.6599	0.673
11.7009	0.654
11.742	0.644
11.7831	0.644
11.8242	0.658
11.8652	0.685
11.9063	0.709
11.9474	0.727
11.9885	0.736
12.0295	0.748
12.0706	0.756
12.1117	0.77
12.1528	0.78
12.1939	0.787
12.2349	0.795
12.276	0.799
12.3171	0.801
12.3582	0.801
12.3992	0.801
12.4403	0.801
12.4814	0.801
12.5225	0.801
12.5635	0.801
12.6046	0.801
12.6457	0.804
12.6868	0.809
12.7278	0.812
12.7689	0.812
12.81	0.812
12.8511	0.812
12.8922	0.812
12.9332	0.814
12.9743	0.814
13.0154	0.809
13.0565	0.801
13.0975	0.799
13.1386	0.797
13.1797	0.799
13.2208	0.801
13.2618	0.797
13.3029	0.795
13.344	0.794
13.3851	0.794
13.4261	0.794
13.4672	0.795
13.5083	0.799
13.5494	0.799
13.5904	0.799
13.6315	0.799
13.6726	0.799
13.7137	0.801
13.7548	0.799
13.7958	0.799
13.8369	0.799
13.878	0.799
13.9191	0.799
13.9601	0.799
14.0012	0.794
14.0423	0.787
14.0834	0.78
14.1244	0.777
14.1655	0.778
14.2066	0.775
14.2477	0.772
14.2887	0.772
14.3298	0.768
14.3709	0.761
14.412	0.758
14.4531	0.751
14.4941	0.748
14.5352	0.743
14.5763	0.738
14.6174	0.731
14.6584	0.721
14.6995	0.714
14.7406	0.705
14.7817	0.697
14.8227	0.69
14.8638	0.683
14.9049	0.676
14.946	0.671
14.987	0.668
15.0281	0.668
15.0692	0.663
15.1103	0.658
15.1513	0.653
15.1924	0.649
15.2335	0.647
15.2746	0.647
15.3157	0.647
15.3567	0.647
15.3978	0.651
15.4389	0.651
15.48	0.654
15.521	0.654
15.5621	0.658
15.6032	0.659
15.6443	0.659
15.6853	0.658
15.7264	0.656
15.7675	0.656
15.8086	0.656
15.8496	0.656
15.8907	0.656
15.9318	0.656
