Infrared Spectrum: TERE-PHTHALONITRILE
Formula: C8 H4 N2
CAS: 623-26-7
State: SOLID (MINERAL OIL MULL)
Class: COBLENTZ
Instrument: Not specified, most likely a prism, grating, or hybrid spectrometer.
Sampling: TRANSMISSION
Resolution: 4
Origin: WYANDOTTE CHEMICALS CORP., WYANDOTTE, MICHIGAN, USA
MICROMETERS	TRANSMITTANCE
2.019	0.296
2.05612	0.302
2.09324	0.311
2.13035	0.337
2.16747	0.336
2.20459	0.313
2.24171	0.294
2.27882	0.288
2.31594	0.293
2.35306	0.3
2.39018	0.311
2.42729	0.336
2.46441	0.353
2.50153	0.362
2.53865	0.373
2.57577	0.381
2.61288	0.395
2.65	0.407
2.68712	0.41
2.72424	0.417
2.76135	0.427
2.79847	0.432
2.83559	0.435
2.87271	0.438
2.90982	0.444
2.94694	0.431
2.98406	0.42
3.02118	0.424
3.0583	0.432
3.09541	0.426
3.13253	0.415
3.16965	0.389
3.20677	0.342
3.24388	0.243
3.281	0.227
3.31812	0.193
3.35524	0.035
3.39235	0.017
3.42947	0.021
3.46659	0.009
3.50371	0.024
3.54083	0.032
3.57794	0.155
3.61506	0.308
3.65218	0.389
3.6893	0.379
3.72641	0.396
3.76353	0.41
3.80065	0.431
3.83777	0.444
3.87488	0.451
3.912	0.496
3.94912	0.547
3.98624	0.568
4.02336	0.584
4.06047	0.603
4.09759	0.617
4.13471	0.615
4.17183	0.607
4.20894	0.615
4.24606	0.624
4.28318	0.593
4.3203	0.61
4.35742	0.626
4.39453	0.638
4.43165	0.658
4.46877	0.686
4.50589	0.699
4.543	0.39
4.58012	0.274
4.61724	0.558
4.65436	0.626
4.69147	0.649
4.72859	0.677
4.76571	0.696
4.80283	0.717
4.83995	0.714
4.87706	0.72
4.91418	0.731
4.9513	0.733
4.98842	0.733
5.02553	0.734
5.06265	0.742
5.09977	0.751
5.13689	0.753
5.174	0.728
5.21112	0.579
5.24824	0.702
5.28536	0.751
5.32248	0.756
5.35959	0.764
5.39671	0.775
5.43383	0.775
5.47095	0.765
5.50806	0.741
5.54518	0.679
5.5823	0.697
5.61942	0.773
5.65653	0.767
5.69365	0.778
5.73077	0.772
5.76789	0.782
5.80501	0.773
5.84212	0.756
5.87924	0.699
5.91636	0.579
5.95348	0.675
5.99059	0.742
6.02771	0.737
6.06483	0.764
6.10195	0.762
6.13906	0.753
6.17618	0.679
6.2133	0.624
6.25042	0.683
6.28754	0.728
6.32465	0.745
6.36177	0.739
6.39889	0.756
6.43601	0.722
6.47312	0.727
6.51024	0.683
6.54736	0.655
6.58448	0.638
6.62159	0.328
6.65871	0.454
6.69583	0.373
6.73295	0.213
6.77007	0.075
6.80718	0.021
6.8443	0.029
6.88142	0.031
6.91854	0.066
6.95565	0.195
6.99277	0.417
7.02989	0.454
7.06701	0.313
7.10412	0.223
7.14124	0.184
7.17836	0.311
7.21548	0.099
7.2526	0.031
7.28971	0.077
7.32683	0.144
7.36395	0.297
7.40107	0.345
7.43818	0.367
7.4753	0.41
7.51242	0.451
7.54954	0.474
7.58665	0.477
7.62377	0.474
7.66089	0.46
7.69801	0.435
7.73513	0.434
7.77224	0.44
7.80936	0.196
7.84648	0.181
7.8836	0.415
7.92071	0.475
7.95783	0.541
7.99495	0.567
8.03207	0.586
8.06918	0.609
8.1063	0.617
8.14342	0.635
8.18054	0.629
8.21766	0.613
8.25477	0.567
8.29189	0.499
8.32901	0.28
8.36613	0.493
8.40324	0.579
8.44036	0.579
8.47748	0.586
8.5146	0.565
8.55172	0.541
8.58883	0.559
8.62595	0.576
8.66307	0.579
8.70019	0.595
8.7373	0.627
8.77442	0.648
8.81154	0.666
8.84866	0.682
8.88577	0.643
8.92289	0.643
8.96001	0.683
8.99713	0.693
9.03425	0.686
9.07136	0.706
9.10848	0.699
9.1456	0.696
9.18272	0.691
9.21983	0.675
9.25695	0.668
9.29407	0.682
9.33119	0.697
9.3683	0.694
9.40542	0.693
9.44254	0.697
9.47966	0.691
9.51678	0.688
9.55389	0.689
9.59101	0.671
9.62813	0.683
9.66525	0.672
9.70236	0.624
9.73948	0.565
9.7766	0.643
9.81372	0.651
9.85083	0.668
9.88795	0.688
9.92507	0.693
9.96219	0.694
9.99931	0.702
10.0364	0.699
10.0735	0.694
10.1107	0.683
10.1478	0.668
10.1849	0.641
10.222	0.584
10.2591	0.556
10.2962	0.572
10.3334	0.581
10.3705	0.587
10.4076	0.592
10.4447	0.596
10.4818	0.596
10.519	0.6
10.5561	0.618
10.5932	0.631
10.6303	0.637
10.6674	0.638
10.7045	0.632
10.7417	0.62
10.7788	0.609
10.8159	0.595
10.853	0.579
10.8901	0.586
10.9272	0.607
10.9644	0.651
11.0015	0.677
11.0386	0.699
11.0757	0.708
11.1128	0.716
11.15	0.717
11.1871	0.71
11.2242	0.71
11.2613	0.7
11.2984	0.671
11.3355	0.637
11.3727	0.64
11.4098	0.682
11.4469	0.7
11.484	0.706
11.5211	0.705
11.5582	0.697
11.5954	0.674
11.6325	0.634
11.6696	0.589
11.7067	0.494
11.7438	0.378
11.781	0.224
11.8181	0.094
11.8552	0.027
11.8923	0.015
11.9294	0.029
11.9665	0.094
12.0037	0.215
12.0408	0.299
12.0779	0.418
12.115	0.506
12.1521	0.607
12.1892	0.669
12.2264	0.724
12.2635	0.755
12.3006	0.77
12.3377	0.795
12.3748	0.801
12.412	0.807
12.4491	0.809
12.4862	0.817
12.5233	0.823
12.5604	0.82
12.5975	0.823
12.6347	0.84
12.6718	0.854
12.7089	0.863
12.746	0.863
12.7831	0.851
12.8203	0.843
12.8574	0.829
12.8945	0.818
12.9316	0.813
12.9687	0.81
13.0058	0.809
13.043	0.813
13.0801	0.815
13.1172	0.82
13.1543	0.821
13.1914	0.826
13.2285	0.82
13.2657	0.813
13.3028	0.803
13.3399	0.801
13.377	0.8
13.4141	0.784
13.4513	0.765
13.4884	0.744
13.5255	0.713
13.5626	0.682
13.5997	0.666
13.6368	0.652
13.674	0.648
13.7111	0.643
13.7482	0.643
13.7853	0.64
13.8224	0.629
13.8595	0.604
13.8967	0.615
13.9338	0.654
13.9709	0.706
14.008	0.75
14.0451	0.8
14.0823	0.835
14.1194	0.863
14.1565	0.891
14.1936	0.906
14.2307	0.919
14.2678	0.925
14.305	0.939
14.3421	0.945
14.3792	0.942
14.4163	0.944
14.4534	0.941
14.4905	0.939
14.5277	0.933
14.5648	0.934
14.6019	0.931
14.639	0.928
14.6761	0.916
14.7133	0.908
14.7504	0.9
14.7875	0.893
14.8246	0.879
14.8617	0.874
14.8988	0.877
14.936	0.875
14.9731	0.851
15.0102	0.82
15.0473	0.759
15.0844	0.711
15.1215	0.693
15.1587	0.719
15.1958	0.747
15.2329	0.768
15.27	0.776
15.3071	0.775
15.3443	0.768
15.3814	0.75
15.4185	0.742
15.4556	0.713
15.4927	0.683
15.5298	0.621
15.567	0.573
15.6041	0.531
15.6412	0.525
15.6783	0.544
15.7154	0.568
15.7525	0.581
15.7897	0.589
15.8268	0.589
15.8639	0.589
15.901	0.587
15.9381	0.568
15.9753	0.558
