Infrared Spectrum: Carbonic acid, bis(2-chloroethyl) ester
Formula: C5 H8 Cl2 O3
CAS: 623-97-2
State: LIQUID (NEAT)
Boiling point: 106-108 C AT 6 mmHg
Class: COBLENTZ III
Instrument: BAIRD (GRATING)
Instrument parameters: NaCl PRISM
Path length: 0.003 CM
Resolution: 2
Origin: WYANDOTTE CHEMICALS CORP.
1/CM	TRANSMITTANCE
625	0.848
634	0.8367
643	0.7468
652	0.5194
661	0.3897
670	0.4153
679	0.7243
688	0.8674
697	0.8616
706	0.8473
715	0.8377
724	0.8874
733	0.8721
742	0.8314
751	0.6643
760	0.5044
769	0.4491
778	0.2444
787	0.1142
796	0.6517
805	0.8086
814	0.7833
823	0.5158
832	0.4214
841	0.5806
850	0.6563
859	0.8224
868	0.9286
877	0.9629
886	0.9659
895	0.9421
904	0.88
913	0.7022
922	0.532
931	0.3767
940	0.2732
949	0.2237
958	0.2141
967	0.235
976	0.3195
985	0.3573
994	0.2158
1003	0.0573
1012	0.0503
1021	0.1089
1030	0.5317
1039	0.6857
1048	0.7065
1057	0.5758
1066	0.4102
1075	0.2471
1084	0.4526
1093	0.8027
1102	0.8196
1111	0.7793
1120	0.8071
1129	0.8196
1138	0.8091
1147	0.8224
1156	0.7956
1165	0.7824
1174	0.7542
1183	0.6462
1192	0.386
1201	0.1399
1210	0.1513
1219	0.1564
1228	0.0465
1237	0.0177
1246	0.0166
1255	0.0129
1264	0.0153
1273	0.0199
1282	0.0208
1291	0.0207
1300	0.0213
1309	0.0228
1318	0.0305
1327	0.0621
1336	0.2236
1345	0.4514
1354	0.6345
1363	0.6486
1372	0.5904
1381	0.2944
1390	0.3143
1399	0.151
1408	0.0472
1417	0.2271
1426	0.4329
1435	0.2787
1444	0.1152
1453	0.1179
1462	0.1273
1471	0.1692
1480	0.3806
1489	0.6736
1498	0.8542
1507	0.8928
1516	0.9141
1525	0.9297
1534	0.9386
1543	0.9411
1552	0.941
1561	0.9362
1570	0.9154
1579	0.8911
1588	0.8737
1597	0.8724
1606	0.9204
1615	0.9398
1624	0.9326
1633	0.925
1642	0.926
1651	0.9137
1660	0.8839
1669	0.8472
1678	0.8113
1687	0.7741
1696	0.7343
1705	0.689
1714	0.598
1723	0.5061
1732	0.3753
1741	0.1325
1750	0.039
1759	0.0399
1768	0.0664
1777	0.233
1786	0.3961
1795	0.6294
1804	0.6845
1813	0.78
1822	0.8463
1831	0.8724
1840	0.8922
1849	0.9144
1858	0.9476
1867	0.9714
1876	0.982
1885	0.9857
1894	0.9841
1903	0.9832
1912	0.9837
1921	0.9839
1930	0.9841
1939	0.9857
1948	0.9876
1957	0.9895
1966	0.9912
1975	0.9921
1984	0.9944
1993	0.9964
2002	0.9979
2011	0.9965
2020	0.9923
2029	0.9868
2038	0.9881
2047	0.9902
2056	0.991
2065	0.9888
2074	0.9858
2083	0.9833
2092	0.9815
2101	0.9801
2110	0.9802
2119	0.9814
2128	0.9827
2137	0.9836
2146	0.9834
2155	0.9825
2164	0.9794
2173	0.9747
2182	0.9698
2191	0.9662
2200	0.9624
2209	0.9545
2218	0.9498
2227	0.9476
2236	0.9458
2245	0.9507
2254	0.9569
2263	0.963
2272	0.968
2281	0.9727
2290	0.9774
2299	0.9779
2308	0.9771
2317	0.9756
2326	0.9732
2335	0.9704
2344	0.9675
2353	0.9646
2362	0.9616
2371	0.9591
2380	0.9584
2389	0.9617
2398	0.9659
2407	0.9696
2416	0.9722
2425	0.9717
2434	0.9702
2443	0.9681
2452	0.9652
2461	0.9623
2470	0.9596
2479	0.9567
2488	0.9538
2497	0.9544
2506	0.9566
2515	0.9593
2524	0.9629
2533	0.9675
2542	0.9723
2551	0.9753
2560	0.9763
2569	0.9762
2578	0.9752
2587	0.974
2596	0.9726
2605	0.9709
2614	0.9709
2623	0.9736
2632	0.9762
2641	0.9758
2650	0.9749
2659	0.974
2668	0.9728
2677	0.9712
2686	0.9696
2695	0.9678
2704	0.966
2713	0.9642
2722	0.9624
2731	0.9607
2740	0.959
2749	0.9573
2758	0.9558
2767	0.9544
2776	0.9537
2785	0.9551
2794	0.9589
2803	0.9608
2812	0.9599
2821	0.9555
2830	0.9464
2839	0.9371
2848	0.9248
2857	0.9131
2866	0.9026
2875	0.8894
2884	0.8759
2893	0.8621
2902	0.8475
2911	0.8152
2920	0.7823
2929	0.768
2938	0.7677
2947	0.7658
2956	0.7614
2965	0.7507
2974	0.6798
2983	0.5989
2992	0.5184
3001	0.441
3010	0.4411
3019	0.4904
3028	0.5534
3037	0.616
3046	0.6783
3055	0.7402
3064	0.8018
3073	0.8733
3082	0.8947
3091	0.9085
3100	0.9172
3109	0.9238
3118	0.9293
3127	0.9319
3136	0.9339
3145	0.9351
3154	0.9358
3163	0.9364
3172	0.9371
3181	0.9381
3190	0.9391
3199	0.9402
3208	0.9411
3217	0.942
3226	0.943
3235	0.943
3244	0.943
3253	0.943
3262	0.943
3271	0.9425
3280	0.9421
3289	0.9417
3298	0.9412
3307	0.9407
3316	0.9403
3325	0.9398
3334	0.9394
3343	0.9389
3352	0.9381
3361	0.9373
3370	0.9364
3379	0.9355
3388	0.9347
3397	0.9338
3406	0.9329
3415	0.9321
3424	0.9312
3433	0.9304
3442	0.9295
3451	0.9281
3460	0.9261
3469	0.9242
3478	0.9223
3487	0.9204
3496	0.9174
3505	0.9144
3514	0.9114
3523	0.9079
3532	0.9043
3541	0.9041
3550	0.9041
3559	0.9063
3568	0.9108
3577	0.9153
3586	0.9198
3595	0.924
3604	0.9277
3613	0.931
3622	0.9341
3631	0.9373
3640	0.94
3649	0.9422
3658	0.9433
3667	0.9432
3676	0.9427
3685	0.9421
3694	0.9416
3703	0.941
3712	0.9405
3721	0.9399
3730	0.9396
3739	0.9392
3748	0.9389
3757	0.9391
3766	0.9397
3775	0.9403
3784	0.941
3793	0.9414
3802	0.9411
3811	0.9408
3820	0.9399
3829	0.939
3838	0.9377
3847	0.9363
3856	0.9351
3865	0.934
3874	0.9329
3883	0.9319
3892	0.9314
3901	0.9308
3910	0.9304
3919	0.9298
3928	0.9298
3937	0.9297
3946	0.9295
3955	0.9294
3964	0.9292
3973	0.9291
3982	0.9289
3991	0.9288
4000	0.9287
