Infrared Spectrum: 1,2-Propanediol diacetate
Formula: C 7 H 12 O 4
CAS: 623-84-7
State: gas
Origin: EPA-IR VAPOR PHASE LIBRARY
1/CM	ABSORBANCE
549.8	6.7e-05
559.445	0
569.09	0.0006041
578.734	0.00091
588.379	0.001806
598.024	0.004436
607.669	0.006086
617.313	0.005106
626.958	0.004596
636.603	0.004906
646.248	0.004226
655.893	0.002866
665.537	0.001756
675.182	0.0010838
684.827	0.0009036
694.472	0.0006006
704.116	0.0005287
713.761	0.0003994
723.406	0.0005518
733.051	0.0002532
742.695	0.0004519
752.34	0.0005493
761.985	0.0006118
771.63	0.0007983
781.275	0.0008606
790.919	0.001186
800.564	0.001756
810.209	0.002296
819.854	0.003406
829.498	0.004786
839.143	0.005896
848.788	0.005626
858.433	0.004336
868.078	0.003956
877.722	0.004236
887.367	0.004936
897.012	0.005636
906.657	0.005556
916.301	0.004376
925.946	0.004466
935.591	0.005826
945.236	0.009916
954.88	0.013366
964.525	0.010706
974.17	0.007946
983.815	0.009606
993.46	0.012946
1003.1	0.018906
1012.75	0.025706
1022.39	0.027186
1032.04	0.029436
1041.68	0.035396
1051.33	0.037716
1060.97	0.033406
1070.62	0.034716
1080.26	0.041176
1089.91	0.035006
1099.55	0.024546
1109.2	0.018626
1118.84	0.019666
1128.49	0.018616
1138.13	0.013466
1147.78	0.011286
1157.42	0.012436
1167.07	0.012386
1176.71	0.012146
1186.36	0.017976
1196	0.037086
1205.64	0.091516
1215.29	0.193656
1224.93	0.223566
1234.58	0.160356
1244.22	0.115406
1253.87	0.073586
1263.51	0.042816
1273.16	0.028926
1282.8	0.021816
1292.45	0.014846
1302.09	0.009886
1311.74	0.007956
1321.38	0.007086
1331.03	0.006516
1340.67	0.007736
1350.32	0.012666
1359.96	0.025916
1369.61	0.048156
1379.25	0.049156
1388.9	0.029576
1398.54	0.016396
1408.18	0.009476
1417.83	0.007156
1427.47	0.007216
1437.12	0.008246
1446.76	0.009686
1456.41	0.010116
1466.05	0.009056
1475.7	0.006726
1485.34	0.004946
1494.99	0.004086
1504.63	0.003766
1514.28	0.003596
1523.92	0.003486
1533.57	0.003126
1543.21	0.002876
1552.86	0.002616
1562.5	0.002606
1572.15	0.002536
1581.79	0.002396
1591.44	0.002266
1601.08	0.002136
1610.73	0.002146
1620.37	0.002206
1630.01	0.002316
1639.66	0.002476
1649.3	0.002756
1658.95	0.002826
1668.59	0.003136
1678.24	0.003576
1687.88	0.004066
1697.53	0.005396
1707.17	0.008026
1716.82	0.012276
1726.46	0.017886
1736.11	0.028406
1745.75	0.059156
1755.4	0.127226
1765.04	0.162686
1774.69	0.104776
1784.33	0.047436
1793.98	0.024286
1803.62	0.014406
1813.27	0.009276
1822.91	0.006356
1832.55	0.004756
1842.2	0.003606
1851.84	0.002896
1861.49	0.002446
1871.13	0.002166
1880.78	0.002096
1890.42	0.001936
1900.07	0.001806
1909.71	0.001786
1919.36	0.001436
1929	0.001216
1938.65	0.001226
1948.29	0.001126
1957.94	0.0010614
1967.58	0.000977
1977.23	0.0010179
1986.87	0.0009868
1996.52	0.0009841
2006.16	0.001146
2015.81	0.001256
2025.45	0.001316
2035.1	0.001376
2044.74	0.001466
2054.38	0.001496
2064.03	0.001506
2073.67	0.001456
2083.32	0.001396
2092.96	0.001316
2102.61	0.001276
2112.25	0.001166
2121.9	0.0009792
2131.54	0.000945
2141.19	0.000914
2150.83	0.0007429
2160.48	0.0007643
2170.12	0.0007262
2179.77	0.0006584
2189.41	0.0006632
2199.06	0.0005998
2208.7	0.0005966
2218.35	0.0006069
2227.99	0.0006344
2237.64	0.0005981
2247.28	0.000688
2256.92	0.0005791
2266.57	0.0005183
2276.21	0.0004188
2285.86	0.0004253
2295.5	0.0004752
2305.15	0.0004399
2314.79	0.0005762
2324.44	0.0006119
2334.08	0.0005806
2343.73	0.0005514
2353.37	0.0006186
2363.02	0.0005516
2372.66	0.0005285
2382.31	0.0005421
2391.95	0.0005197
2401.6	0.0005259
2411.24	0.0005264
2420.89	0.0005918
2430.53	0.0006144
2440.18	0.0007581
2449.82	0.0008624
2459.47	0.0008285
2469.11	0.0007397
2478.75	0.0006994
2488.4	0.0005954
2498.04	0.0005761
2507.69	0.0005457
2517.33	0.0004716
2526.98	0.0004009
2536.62	0.0004096
2546.27	0.00041
2555.91	0.0003584
2565.56	0.0003165
2575.2	0.000398
2584.85	0.0005189
2594.49	0.0004116
2604.14	0.0003635
2613.78	0.0004917
2623.43	0.000432
2633.07	0.0005307
2642.72	0.0004352
2652.36	0.0004024
2662.01	0.0004971
2671.65	0.0004566
2681.29	0.0004814
2690.94	0.0005541
2700.58	0.0005789
2710.23	0.0005732
2719.87	0.0005498
2729.52	0.0007489
2739.16	0.0007022
2748.81	0.0007556
2758.45	0.0006745
2768.1	0.0006516
2777.74	0.0006795
2787.39	0.0005804
2797.03	0.0007446
2806.68	0.0007455
2816.32	0.0007108
2825.97	0.0007815
2835.61	0.0010703
2845.26	0.001276
2854.9	0.001326
2864.55	0.001716
2874.19	0.002316
2883.84	0.003226
2893.48	0.003766
2903.12	0.003736
2912.77	0.003746
2922.41	0.004116
2932.06	0.006196
2941.7	0.010536
2951.35	0.014306
2960.99	0.013636
2970.64	0.011396
2980.28	0.013186
2989.93	0.017066
2999.57	0.014506
3009.22	0.007106
3018.86	0.003876
3028.51	0.003426
3038.15	0.002996
3047.8	0.002556
3057.44	0.002426
3067.09	0.002226
3076.73	0.002046
3086.38	0.001926
3096.02	0.001676
3105.67	0.001416
3115.31	0.001176
3124.95	0.0010484
3134.6	0.0007464
3144.24	0.0007476
3153.89	0.0007118
3163.53	0.0006833
3173.18	0.0004493
3182.82	0.0005048
3192.47	0.0004675
3202.11	0.000453
3211.76	0.0003195
3221.4	0.0002496
3231.05	0.0002941
3240.69	0.0003538
3250.34	0.0002005
3259.98	0.0003301
3269.63	0.0003475
3279.27	0.0002177
3288.92	0.0001978
3298.56	0.0002677
3308.21	0.0003082
3317.85	0.0002174
3327.49	0.0002523
3337.14	0.000272
3346.78	0.000222
3356.43	0.00012822
3366.07	8.73e-05
3375.72	0.0002938
3385.36	0.00016795
3395.01	0.00017459
3404.65	0.0004337
3414.3	0.0002894
3423.94	0.0004053
3433.59	0.0002976
3443.23	0.0003767
3452.88	0.0004968
3462.52	0.0005878
3472.17	0.0006666
3481.81	0.001039
3491.46	0.001226
3501.1	0.001696
3510.75	0.001576
3520.39	0.001506
3530.04	0.0009849
3539.68	0.0008604
3549.32	0.0004626
3558.97	0.0003746
3568.61	0.0005208
3578.26	0.0002034
3587.9	0.00013984
3597.55	0.0002112
3607.19	0.0002953
3616.84	0.00018526
3626.48	0.0001947
3636.13	5.13e-05
3645.77	0.0001879
3655.42	0.0002367
3665.06	0.0002141
3674.71	0.00014878
3684.35	0.0002224
3694	0.00017768
3703.64	0.00013026
3713.29	0.000188
3722.93	0.0002448
3732.58	0.0003659
3742.22	0.00011237
3751.86	0.0002826
3761.51	0.0002096
3771.15	0.00016823
3780.8	0.0003246
3790.44	0.0003011
3800.09	0.000187
3809.73	0.0002889
3819.38	0.0002434
3829.02	0.0002648
3838.67	0.0003396
3848.31	0.0002542
3857.96	0.0002664
3867.6	0.0003323
3877.25	0.000456
3886.89	0.0003123
3896.54	0.0003837
3906.18	0.0002338
3915.83	0.0004453
3925.47	0.0002931
3935.12	0.000496
3944.76	0.000417
3954.41	0.0003415
3964.05	0.0002776
3973.69	0.0003202
3983.34	0.0004228
3992.98	0.0004465
