Infrared Spectrum: DI-n-PROPYLCARBONATE
Formula: C7 H14 O3
CAS: 623-96-1
State: LIQUID
Boiling point: 164-166 C
Class: COBLENTZ
Instrument: Not specified, most likely a prism, grating, or hybrid spectrometer.
Sampling: TRANSMISSION
Path length: 0.003 CM
Resolution: 4
Origin: WYANDOTTE CHEMICALS CORP., WYANDOTTE, MICHIGAN, USA
MICROMETERS	TRANSMITTANCE
2.014	0.955
2.05484	0.947
2.09567	0.95
2.13651	0.949
2.17734	0.945
2.21818	0.906
2.25901	0.901
2.29985	0.918
2.34068	0.918
2.38152	0.91
2.42235	0.92
2.46319	0.93
2.50402	0.925
2.54486	0.921
2.58569	0.928
2.62653	0.932
2.66736	0.932
2.7082	0.932
2.74903	0.918
2.78987	0.857
2.8307	0.85
2.87154	0.872
2.91237	0.852
2.95321	0.889
2.99404	0.893
3.03488	0.882
3.07571	0.879
3.11655	0.848
3.15738	0.823
3.19822	0.801
3.23905	0.77
3.27989	0.728
3.32072	0.334
3.36156	0.05
3.40239	0.181
3.44323	0.222
3.48406	0.342
3.5249	0.619
3.56573	0.75
3.60657	0.782
3.6474	0.794
3.68824	0.808
3.72907	0.82
3.76991	0.833
3.81074	0.84
3.85158	0.837
3.89241	0.848
3.93325	0.855
3.97408	0.852
4.01492	0.83
4.05575	0.837
4.09659	0.845
4.13742	0.84
4.17826	0.83
4.21909	0.83
4.25993	0.828
4.30076	0.845
4.3416	0.848
4.38243	0.855
4.42327	0.847
4.4641	0.847
4.50494	0.855
4.54577	0.84
4.58661	0.813
4.62744	0.811
4.66828	0.837
4.70911	0.852
4.74995	0.859
4.79078	0.865
4.83162	0.867
4.87245	0.853
4.91329	0.847
4.95412	0.847
4.99496	0.847
5.03579	0.842
5.07663	0.831
5.11746	0.842
5.1583	0.848
5.19913	0.85
5.23997	0.837
5.2808	0.831
5.32164	0.833
5.36247	0.814
5.40331	0.806
5.44414	0.784
5.48498	0.752
5.52581	0.716
5.56665	0.685
5.60748	0.572
5.64832	0.344
5.68915	0.037
5.72999	0.035
5.77082	0.134
5.81166	0.354
5.85249	0.453
5.89333	0.582
5.93416	0.645
5.975	0.684
6.01583	0.709
6.05667	0.731
6.0975	0.74
6.13834	0.741
6.17917	0.73
6.22001	0.682
6.26084	0.668
6.30168	0.706
6.34251	0.731
6.38335	0.735
6.42418	0.741
6.46502	0.74
6.50585	0.735
6.54669	0.723
6.58752	0.701
6.62836	0.645
6.66919	0.551
6.71003	0.297
6.75086	0.123
6.7917	0.105
6.83253	0.224
6.87337	0.332
6.9142	0.387
6.95504	0.511
6.99587	0.482
7.03671	0.263
7.07754	0.054
7.11838	0.106
7.15921	0.246
7.20005	0.166
7.24088	0.268
7.28172	0.422
7.32255	0.414
7.36339	0.213
7.40422	0.3
7.44506	0.463
7.48589	0.412
7.52673	0.227
7.56756	0.059
7.6084	0.044
7.64924	0.1
7.69007	0.047
7.73091	0.033
7.77174	0.03
7.81258	0.028
7.85341	0.028
7.89425	0.03
7.93508	0.032
7.97592	0.028
8.01675	0.03
8.05759	0.035
8.09842	0.064
8.13926	0.125
8.18009	0.235
8.22093	0.365
8.26176	0.453
8.3026	0.511
8.34343	0.555
8.38427	0.589
8.4251	0.599
8.46594	0.582
8.50677	0.573
8.54761	0.556
8.58844	0.534
8.62928	0.575
8.67011	0.611
8.71095	0.636
8.75178	0.643
8.79262	0.64
8.83345	0.634
8.87429	0.599
8.91512	0.538
8.95596	0.534
8.99679	0.531
9.03763	0.529
9.07846	0.502
9.1193	0.482
9.16013	0.516
9.20097	0.577
9.2418	0.592
9.28264	0.57
9.32347	0.492
9.36431	0.348
9.40514	0.152
9.44598	0.096
9.48681	0.106
9.52765	0.174
9.56848	0.247
9.60932	0.331
9.65015	0.427
9.69099	0.522
9.73182	0.582
9.77266	0.616
9.81349	0.638
9.85433	0.653
9.89516	0.663
9.936	0.665
9.97683	0.651
10.0177	0.634
10.0585	0.611
10.0993	0.59
10.1402	0.553
10.181	0.487
10.2218	0.351
10.2627	0.21
10.3035	0.118
10.3443	0.093
10.3852	0.093
10.426	0.073
10.4669	0.079
10.5077	0.101
10.5485	0.084
10.5894	0.059
10.6302	0.059
10.671	0.05
10.7119	0.05
10.7527	0.086
10.7935	0.173
10.8344	0.302
10.8752	0.376
10.916	0.395
10.9569	0.373
10.9977	0.358
11.0385	0.366
11.0794	0.393
11.1202	0.421
11.161	0.424
11.2019	0.441
11.2427	0.473
11.2836	0.528
11.3244	0.56
11.3652	0.589
11.4061	0.609
11.4469	0.609
11.4877	0.611
11.5286	0.606
11.5694	0.599
11.6102	0.604
11.6511	0.626
11.6919	0.657
11.7327	0.684
11.7736	0.702
11.8144	0.723
11.8552	0.731
11.8961	0.733
11.9369	0.738
11.9777	0.738
12.0186	0.738
12.0594	0.735
12.1003	0.728
12.1411	0.723
12.1819	0.719
12.2228	0.716
12.2636	0.699
12.3044	0.685
12.3453	0.667
12.3861	0.638
12.4269	0.585
12.4678	0.509
12.5086	0.39
12.5494	0.247
12.5903	0.151
12.6311	0.146
12.6719	0.242
12.7128	0.366
12.7536	0.471
12.7944	0.529
12.8353	0.561
12.8761	0.577
12.917	0.59
12.9578	0.602
12.9986	0.606
13.0395	0.606
13.0803	0.595
13.1211	0.578
13.162	0.572
13.2028	0.599
13.2436	0.645
13.2845	0.685
13.3253	0.718
13.3661	0.735
13.407	0.748
13.4478	0.758
13.4886	0.764
13.5295	0.769
13.5703	0.77
13.6112	0.772
13.652	0.772
13.6928	0.77
13.7337	0.769
13.7745	0.769
13.8153	0.769
13.8562	0.765
13.897	0.769
13.9378	0.769
13.9787	0.772
14.0195	0.77
14.0603	0.767
14.1012	0.77
14.142	0.767
14.1828	0.769
14.2237	0.767
14.2645	0.777
14.3053	0.77
14.3462	0.777
14.387	0.775
14.4279	0.774
14.4687	0.77
14.5095	0.769
14.5504	0.765
14.5912	0.765
14.632	0.767
14.6729	0.762
14.7137	0.762
14.7545	0.757
14.7954	0.758
14.8362	0.758
14.877	0.755
14.9179	0.75
14.9587	0.75
14.9995	0.73
15.0404	0.719
15.0812	0.719
15.122	0.731
15.1629	0.74
15.2037	0.724
15.2446	0.719
15.2854	0.723
15.3262	0.718
15.3671	0.711
15.4079	0.706
15.4487	0.701
15.4896	0.694
15.5304	0.691
15.5712	0.696
15.6121	0.687
15.6529	0.685
15.6937	0.682
15.7346	0.67
15.7754	0.672
15.8162	0.667
15.8571	0.658
15.8979	0.655
15.9387	0.655
15.9796	0.648
