Infrared Spectrum: Ethyl mercaptoacetate
Formula: C 4 H 8 O 2 S
CAS: 623-51-8
State: gas
Origin: EPA-IR VAPOR PHASE LIBRARY
1/CM	ABSORBANCE
501.5	0
513.074	0.000181
524.648	0.000402
536.222	0.00058243
547.796	0.0009751
559.37	0.001696
570.944	0.003026
582.518	0.003436
594.092	0.002956
605.666	0.001936
617.24	0.0013972
628.814	0.0011408
640.388	0.0012181
651.962	0.001556
663.536	0.002136
675.11	0.002906
686.684	0.003796
698.258	0.004356
709.832	0.004236
721.406	0.003766
732.98	0.003556
744.554	0.003446
756.128	0.003366
767.702	0.003156
779.276	0.003106
790.85	0.003136
802.423	0.003146
813.997	0.003126
825.571	0.003166
837.145	0.003846
848.719	0.005306
860.293	0.006126
871.867	0.005146
883.441	0.003846
895.015	0.003846
906.589	0.004936
918.163	0.006846
929.737	0.007736
941.311	0.006576
952.885	0.004946
964.459	0.003946
976.033	0.003926
987.607	0.004986
999.181	0.007406
1010.76	0.014196
1022.33	0.030146
1033.9	0.047406
1045.48	0.041986
1057.05	0.021576
1068.63	0.013726
1080.2	0.014436
1091.77	0.020836
1103.35	0.028296
1114.92	0.037836
1126.49	0.060296
1138.07	0.093056
1149.64	0.109286
1161.22	0.096526
1172.79	0.074896
1184.36	0.055596
1195.94	0.043546
1207.51	0.041106
1219.09	0.046266
1230.66	0.053156
1242.23	0.057736
1253.81	0.071076
1265.38	0.093326
1276.96	0.100886
1288.53	0.088476
1300.1	0.067566
1311.68	0.040896
1323.25	0.020756
1334.83	0.011446
1346.4	0.008366
1357.97	0.010546
1369.55	0.014546
1381.12	0.013076
1392.7	0.010176
1404.27	0.012166
1415.84	0.016806
1427.42	0.016646
1438.99	0.011946
1450.57	0.010716
1462.14	0.011146
1473.71	0.010696
1485.29	0.007776
1496.86	0.005146
1508.44	0.003786
1520.01	0.003166
1531.58	0.002786
1543.16	0.002556
1554.73	0.002356
1566.31	0.002216
1577.88	0.002126
1589.45	0.002106
1601.03	0.002096
1612.6	0.002176
1624.18	0.002256
1635.75	0.002336
1647.32	0.002456
1658.9	0.002646
1670.47	0.003126
1682.05	0.004126
1693.62	0.006166
1705.19	0.009976
1716.77	0.017676
1728.34	0.037606
1739.92	0.082026
1751.49	0.130076
1763.06	0.133816
1774.64	0.078566
1786.21	0.029246
1797.79	0.012176
1809.36	0.006816
1820.93	0.004676
1832.51	0.003716
1844.08	0.003126
1855.66	0.002716
1867.23	0.002546
1878.8	0.002506
1890.38	0.002426
1901.95	0.002206
1913.53	0.001976
1925.1	0.001826
1936.67	0.001766
1948.25	0.001766
1959.82	0.001756
1971.4	0.001746
1982.97	0.001776
1994.54	0.001816
2006.12	0.001806
2017.69	0.001706
2029.27	0.001586
2040.84	0.0015033
2052.41	0.0014598
2063.99	0.0014138
2075.56	0.0013914
2087.14	0.0013858
2098.71	0.0013337
2110.28	0.001333
2121.86	0.0013266
2133.43	0.0013133
2145.01	0.0012525
2156.58	0.0011377
2168.15	0.0010738
2179.73	0.0010069
2191.3	0.0010192
2202.88	0.0010048
2214.45	0.0010448
2226.02	0.0010127
2237.6	0.0009853
2249.17	0.0009395
2260.74	0.0009118
2272.32	0.0009092
2283.89	0.0009437
2295.47	0.0009999
2307.04	0.0010411
2318.61	0.0011227
2330.19	0.001122
2341.76	0.0010735
2353.34	0.0010514
2364.91	0.0010744
2376.48	0.0010018
2388.06	0.0009783
2399.63	0.0010343
2411.21	0.0011027
2422.78	0.0010907
2434.35	0.0010867
2445.93	0.0010158
2457.5	0.0010113
2469.08	0.0009823
2480.65	0.0009201
2492.22	0.0009095
2503.8	0.0008898
2515.37	0.0008563
2526.95	0.000814
2538.52	0.0007872
2550.09	0.0007893
2561.67	0.0008515
2573.24	0.0009018
2584.82	0.0014201
2596.39	0.001726
2607.96	0.0013639
2619.54	0.0009736
2631.11	0.0009008
2642.69	0.0008435
2654.26	0.0008491
2665.83	0.0008649
2677.41	0.0008651
2688.98	0.0008458
2700.56	0.00083
2712.13	0.0008723
2723.7	0.0009713
2735.28	0.0010796
2746.85	0.001114
2758.43	0.001193
2770	0.0013177
2781.57	0.0014748
2793.15	0.0015199
2804.72	0.001636
2816.3	0.001916
2827.87	0.002116
2839.44	0.002276
2851.02	0.002616
2862.59	0.003306
2874.17	0.004826
2885.74	0.006646
2897.31	0.007886
2908.89	0.009216
2920.46	0.010886
2932.04	0.014736
2943.61	0.019936
2955.18	0.020796
2966.76	0.021556
2978.33	0.030576
2989.91	0.034346
3001.48	0.025906
3013.05	0.015906
3024.63	0.009166
3036.2	0.005186
3047.78	0.003326
3059.35	0.002396
3070.92	0.001926
3082.5	0.001686
3094.07	0.001546
3105.65	0.0014578
3117.22	0.0013583
3128.79	0.0012838
3140.37	0.0012294
3151.94	0.0011918
3163.52	0.0010923
3175.09	0.0010279
3186.66	0.000997
3198.24	0.0009098
3209.81	0.0008389
3221.39	0.0007986
3232.96	0.0007096
3244.53	0.0006346
3256.11	0.0006816
3267.68	0.00061837
3279.26	0.00054798
3290.83	0.000544406
3302.4	0.00056632
3313.98	0.00060375
3325.55	0.00061032
3337.13	0.00059145
3348.7	0.00056462
3360.27	0.000545278
3371.85	0.00055436
3383.42	0.00058399
3395	0.0006746
3406.57	0.0006969
3418.14	0.0007441
3429.72	0.0008566
3441.29	0.0009418
3452.86	0.0009661
3464.44	0.0011431
3476.01	0.001546
3487.59	0.002006
3499.16	0.002126
3510.73	0.001766
3522.31	0.0013186
3533.88	0.0011083
3545.46	0.000923
3557.03	0.0008854
3568.6	0.0008245
3580.18	0.0007879
3591.75	0.0008031
3603.33	0.0006805
3614.9	0.000691
3626.47	0.0006861
3638.05	0.00061093
3649.62	0.0006511
3661.2	0.00055868
3672.77	0.00057288
3684.34	0.0006534
3695.92	0.00062487
3707.49	0.0006702
3719.07	0.0006362
3730.64	0.0007547
3742.21	0.0007393
3753.79	0.0007409
3765.36	0.0007509
3776.94	0.0008114
3788.51	0.000714
3800.08	0.0006541
3811.66	0.0007274
3823.23	0.0006718
3834.81	0.0006896
3846.38	0.0006944
3857.95	0.0007207
3869.53	0.00062496
3881.1	0.0006829
3892.68	0.0006944
3904.25	0.0007009
3915.82	0.0006747
3927.4	0.0006932
3938.97	0.00062341
3950.55	0.0007416
3962.12	0.0007702
3973.69	0.0008187
3985.27	0.0008087
3996.84	0.0008165
