Infrared Spectrum: ACETYL METHYL UREA
Formula: C4 H8 N2 O2
CAS: 623-59-6
State: SOLID (MINERAL OIL MULL)
Class: COBLENTZ
Instrument: Not specified, most likely a prism, grating, or hybrid spectrometer.
Sampling: TRANSMISSION
Resolution: 4
Origin: DOW CHEMICAL COMPANY
MICROMETERS	TRANSMITTANCE
2.021	0.706
2.06201	0.711
2.10303	0.721
2.14404	0.728
2.18506	0.73
2.22607	0.724
2.26708	0.721
2.3081	0.724
2.34911	0.736
2.39013	0.747
2.43114	0.752
2.47215	0.757
2.51317	0.77
2.55418	0.775
2.59519	0.779
2.63621	0.791
2.67722	0.799
2.71824	0.801
2.75925	0.804
2.80026	0.808
2.84128	0.804
2.88229	0.797
2.92331	0.784
2.96432	0.692
3.00533	0.407
3.04635	0.41
3.08736	0.504
3.12838	0.458
3.16939	0.517
3.2104	0.331
3.25142	0.281
3.29243	0.361
3.33344	0.402
3.37446	0.22
3.41547	0.091
3.45649	0.069
3.4975	0.169
3.53851	0.395
3.57953	0.59
3.62054	0.607
3.66156	0.696
3.70257	0.723
3.74358	0.748
3.7846	0.762
3.82561	0.777
3.86663	0.784
3.90764	0.796
3.94865	0.801
3.98967	0.806
4.03068	0.82
4.0717	0.825
4.11271	0.826
4.15372	0.826
4.19474	0.828
4.23575	0.83
4.27676	0.842
4.31778	0.86
4.35879	0.857
4.39981	0.852
4.44082	0.85
4.48183	0.853
4.52285	0.86
4.56386	0.869
4.60488	0.869
4.64589	0.859
4.6869	0.855
4.72792	0.859
4.76893	0.862
4.80995	0.874
4.85096	0.876
4.89197	0.877
4.93299	0.877
4.974	0.869
5.01502	0.869
5.05603	0.869
5.09704	0.872
5.13806	0.877
5.17907	0.881
5.22008	0.874
5.2611	0.859
5.30211	0.853
5.34313	0.843
5.38414	0.831
5.42515	0.831
5.46617	0.825
5.50718	0.818
5.5482	0.799
5.58921	0.78
5.63022	0.74
5.67124	0.702
5.71225	0.645
5.75327	0.584
5.79428	0.438
5.83529	0.254
5.87631	0.161
5.91732	0.106
5.95833	0.078
5.99935	0.078
6.04036	0.12
6.08138	0.152
6.12239	0.234
6.1634	0.29
6.20442	0.341
6.24543	0.378
6.28645	0.341
6.32746	0.263
6.36847	0.225
6.40949	0.202
6.4505	0.179
6.49152	0.149
6.53253	0.176
6.57354	0.225
6.61456	0.222
6.65557	0.237
6.69659	0.354
6.7376	0.436
6.77861	0.449
6.81963	0.351
6.86064	0.305
6.90165	0.346
6.94267	0.431
6.98368	0.465
7.0247	0.478
7.06571	0.415
7.10672	0.31
7.14774	0.451
7.18875	0.5
7.22977	0.431
7.27078	0.305
7.31179	0.312
7.35281	0.495
7.39382	0.575
7.43484	0.616
7.47585	0.643
7.51686	0.668
7.55788	0.672
7.59889	0.675
7.63991	0.65
7.68092	0.633
7.72193	0.609
7.76295	0.558
7.80396	0.451
7.84497	0.269
7.88599	0.125
7.927	0.11
7.96802	0.249
8.00903	0.161
8.05004	0.083
8.09106	0.142
8.13207	0.276
8.17309	0.39
8.2141	0.475
8.25511	0.509
8.29613	0.531
8.33714	0.538
8.37816	0.544
8.41917	0.548
8.46018	0.529
8.5012	0.465
8.54221	0.39
8.58322	0.371
8.62424	0.461
8.66525	0.529
8.70627	0.58
8.74728	0.612
8.78829	0.633
8.82931	0.651
8.87032	0.662
8.91134	0.665
8.95235	0.665
8.99336	0.668
9.03438	0.679
9.07539	0.684
9.11641	0.689
9.15742	0.692
9.19843	0.696
9.23945	0.697
9.28046	0.699
9.32148	0.701
9.36249	0.704
9.4035	0.707
9.44452	0.707
9.48553	0.707
9.52654	0.696
9.56756	0.67
9.60857	0.66
9.64959	0.68
9.6906	0.713
9.73161	0.728
9.77263	0.726
9.81364	0.707
9.85466	0.689
9.89567	0.691
9.93668	0.714
9.9777	0.73
10.0187	0.707
10.0597	0.657
10.1007	0.58
10.1418	0.541
10.1828	0.575
10.2238	0.655
10.2648	0.701
10.3058	0.73
10.3468	0.747
10.3878	0.755
10.4289	0.762
10.4699	0.767
10.5109	0.769
10.5519	0.772
10.5929	0.774
10.6339	0.772
10.6749	0.77
10.7159	0.77
10.757	0.774
10.798	0.775
10.839	0.777
10.88	0.777
10.921	0.777
10.962	0.777
11.003	0.775
11.0441	0.772
11.0851	0.767
11.1261	0.755
11.1671	0.741
11.2081	0.723
11.2491	0.697
11.2901	0.67
11.3312	0.611
11.3722	0.568
11.4132	0.555
11.4542	0.561
11.4952	0.568
11.5362	0.563
11.5772	0.555
11.6183	0.548
11.6593	0.543
11.7003	0.544
11.7413	0.553
11.7823	0.573
11.8233	0.595
11.8643	0.616
11.9054	0.638
11.9464	0.651
11.9874	0.668
12.0284	0.682
12.0694	0.694
12.1104	0.704
12.1514	0.714
12.1924	0.723
12.2335	0.733
12.2745	0.74
12.3155	0.747
12.3565	0.753
12.3975	0.758
12.4385	0.762
12.4795	0.762
12.5206	0.762
12.5616	0.764
12.6026	0.764
12.6436	0.762
12.6846	0.758
12.7256	0.752
12.7666	0.745
12.8077	0.743
12.8487	0.738
12.8897	0.736
12.9307	0.736
12.9717	0.733
13.0127	0.728
13.0537	0.719
13.0948	0.718
13.1358	0.716
13.1768	0.714
13.2178	0.709
13.2588	0.701
13.2998	0.689
13.3408	0.679
13.3819	0.66
13.4229	0.633
13.4639	0.602
13.5049	0.544
13.5459	0.456
13.5869	0.397
13.6279	0.37
13.6689	0.385
13.71	0.436
13.751	0.458
13.792	0.463
13.833	0.46
13.874	0.448
13.915	0.424
13.956	0.402
13.9971	0.383
14.0381	0.349
14.0791	0.325
14.1201	0.314
14.1611	0.307
14.2021	0.305
14.2431	0.31
14.2842	0.325
14.3252	0.339
14.3662	0.361
14.4072	0.383
14.4482	0.407
14.4892	0.429
14.5302	0.443
14.5713	0.455
14.6123	0.473
14.6533	0.482
14.6943	0.488
14.7353	0.497
14.7763	0.5
14.8173	0.502
14.8584	0.502
14.8994	0.502
14.9404	0.504
14.9814	0.504
15.0224	0.504
15.0634	0.504
15.1044	0.5
15.1454	0.497
15.1865	0.495
15.2275	0.492
15.2685	0.485
15.3095	0.482
15.3505	0.478
15.3915	0.475
15.4325	0.47
15.4736	0.466
15.5146	0.461
15.5556	0.456
15.5966	0.453
15.6376	0.449
15.6786	0.446
15.7196	0.441
15.7607	0.434
15.8017	0.434
15.8427	0.434
15.8837	0.432
