Infrared Spectrum: 4-Chlorobenzonitrile
Formula: C 7 H 4 Cl N
CAS: 623-03-0
State: gas
Instrument: HP-GC/MS/IRD
Origin: NIST Mass Spectrometry Data Center
1/CM	ABSORBANCE
550	0.0036754
562	0.0023265
574	0.0048363
586	0.0106784
598	0.0038211
610	0.0013348
622	0.0014241
634	0.000564
646	0.0001316
658	0.000188
670	0.0002068
682	0.0001974
694	0.0003243
706	0.0003901
718	0.0002632
730	0.0002397
742	0.0004982
754	0.0011186
766	0.0027871
778	0.0051371
790	0.003854
802	0.0051418
814	0.0143726
826	0.027213
838	0.0212816
850	0.0104152
862	0.0036331
874	0.0014946
886	0.0005734
898	0.0003995
910	0.0004512
922	0.0004465
934	0.0003995
946	0.0003572
958	0.0002726
970	0.0002585
982	0.0002679
994	0.0005546
1006	0.0039574
1018	0.0120179
1030	0.0044368
1042	0.0007755
1054	0.0011233
1066	0.0032054
1078	0.0115103
1090	0.0445795
1102	0.0314101
1114	0.0040279
1126	0.0025098
1138	0.0012925
1150	0.0007755
1162	0.0010669
1174	0.0012032
1186	0.0007849
1198	0.0006392
1210	0.0005687
1222	0.001269
1234	0.0018283
1246	0.0019364
1258	0.0020915
1270	0.0013865
1282	0.0006721
1294	0.0003713
1306	0.0002914
1318	0.0003243
1330	0.0004183
1342	0.0006063
1354	0.0009494
1366	0.0013818
1378	0.0022043
1390	0.0034639
1402	0.0034216
1414	0.0022466
1426	0.0009165
1438	0.0006768
1450	0.001222
1462	0.003807
1474	0.0163372
1486	0.0396539
1498	0.0272506
1510	0.0033934
1522	0.0012126
1534	0.0011609
1546	0.0013113
1558	0.001363
1570	0.0018377
1582	0.0057246
1594	0.0161915
1606	0.0100533
1618	0.001645
1630	0.0012549
1642	0.0019552
1654	0.0021244
1666	0.001927
1678	0.0016779
1690	0.0010293
1702	0.0005499
1714	0.0003572
1726	0.0003055
1738	0.0003384
1750	0.0004888
1762	0.0008977
1774	0.0014288
1786	0.0010622
1798	0.0003948
1810	0.0002444
1822	0.0001974
1834	0.0002303
1846	0.0002444
1858	0.0003572
1870	0.0006298
1882	0.001081
1894	0.0018424
1906	0.0021479
1918	0.0015087
1930	0.0006627
1942	0.0003337
1954	0.0002679
1966	0.0002585
1978	0.0002256
1990	0.0001739
2002	0.0001739
2014	0.0001551
2026	0.0001927
2038	0.0002444
2050	0.0002162
2062	0.0002162
2074	0.0002068
2086	0.0001974
2098	0.000188
2110	0.0001974
2122	0.0001692
2134	0.0001598
2146	0.000188
2158	0.0001363
2170	0.000235
2182	0.0002867
2194	0.0002961
2206	0.0004606
2218	0.0016685
2230	0.0055601
2242	0.0049538
2254	0.0006862
2266	0.0004465
2278	0.0005499
2290	0.0005546
2302	0.0004747
2314	0.000376
2326	0.0003055
2338	0.0002773
2350	0.0002867
2362	0.0003713
2374	0.0004465
2386	0.0003854
2398	0.0003431
2410	0.0003055
2422	0.0002444
2434	0.0001692
2446	0.0001974
2458	0.0002491
2470	0.0002726
2482	0.0003149
2494	0.0004089
2506	0.0005687
2518	0.0006533
2530	0.0006251
2542	0.0005264
2554	0.0003525
2566	0.0003666
2578	0.0004559
2590	0.0003901
2602	0.0002538
2614	0.0002632
2626	0.0001739
2638	0.0001833
2650	0.0002209
2662	0.0002256
2674	0.0002538
2686	0.0002632
2698	0.0001692
2710	0.0001504
2722	0.0001645
2734	0.0001927
2746	0.0002632
2758	0.0003384
2770	0.0005029
2782	0.0004418
2794	0.0003713
2806	0.0003149
2818	0.0002632
2830	0.0002491
2842	0.000141
2854	0.0001222
2866	0.0001128
2878	0.0001175
2890	9.4e-05
2902	9.4e-05
2914	7.05e-05
2926	2.35e-05
2938	4.7e-06
2950	5.64e-05
2962	6.11e-05
2974	7.52e-05
2986	0.0001786
2998	0.0002162
3010	0.0002914
3022	0.0003619
3034	0.0004371
3046	0.000658
3058	0.0006345
3070	0.0005875
3082	0.0007755
3094	0.0011609
3106	0.0012737
3118	0.000658
3130	0.000329
3142	0.0002444
3154	0.0001974
3166	0.000188
3178	0.0002397
3190	0.0003196
3202	0.0002397
3214	0.0001739
3226	0.0001457
3238	0.0001833
3250	0.0002068
3262	0.0002209
3274	0.0001833
3286	0.0001786
3298	0.0002444
3310	0.0001927
3322	0.0001927
3334	0.0002397
3346	0.0001833
3358	0.0002256
3370	0.0002773
3382	0.0002679
3394	0.0003149
3406	0.000423
3418	0.0004935
3430	0.0005123
3442	0.0003478
3454	0.0002914
3466	0.0002538
3478	0.0002632
3490	0.000282
3502	0.0002397
3514	0.0002632
3526	0.0002491
3538	0.0002585
3550	0.0002303
3562	0.000235
3574	0.0002914
3586	0.0002726
3598	0.0002867
3610	0.0002867
3622	0.0002914
3634	0.0003149
3646	0.0002632
3658	0.0002867
3670	0.0002773
3682	0.0003948
3694	0.0003807
3706	0.0003102
3718	0.000329
3730	0.0004042
3742	0.0003666
3754	0.0003384
3766	0.000329
3778	0.000282
3790	0.000282
3802	0.0003055
3814	0.0003901
3826	0.0004324
3838	0.0003901
