Infrared Spectrum: GLYCINE, ETHYL ESTER, HYDROCHLORIDE
Formula: C4 H10 Cl N O2
CAS: 623-33-6
State: SOLID (SPLIT MULL)
Class: COBLENTZ III
Instrument: BECKMAN IR-9 (GRATING)
Instrument parameters: ORDER CHANGES: 670, 1200, 2000 CM^-^1
Sampling: TRANSMISSION
Resolution: 2
Origin: DOW CHEMICAL COMPANY
1/CM	TRANSMITTANCE
3800	0.6858
3791	0.685
3782	0.6849
3773	0.6878
3764	0.6894
3755	0.6908
3746	0.6925
3737	0.6948
3728	0.6969
3719	0.6992
3710	0.7024
3701	0.7057
3692	0.7089
3683	0.7115
3674	0.714
3665	0.7158
3656	0.7175
3647	0.7191
3638	0.7208
3629	0.7219
3620	0.7225
3611	0.7175
3602	0.7245
3593	0.725
3584	0.711
3575	0.734
3566	0.7371
3557	0.7394
3548	0.7417
3539	0.7437
3530	0.7457
3521	0.7476
3512	0.7501
3503	0.7515
3494	0.7521
3485	0.7454
3476	0.7358
3467	0.7483
3458	0.7562
3449	0.7611
3440	0.7647
3431	0.7688
3422	0.7732
3413	0.7758
3404	0.7786
3395	0.7814
3386	0.7854
3377	0.7893
3368	0.7931
3359	0.7967
3350	0.8001
3341	0.8034
3332	0.8065
3323	0.8099
3314	0.8133
3305	0.8151
3296	0.8156
3287	0.814
3278	0.8117
3269	0.8075
3260	0.8018
3251	0.7943
3242	0.7843
3233	0.7708
3224	0.7489
3215	0.7115
3206	0.6762
3197	0.6511
3188	0.6408
3179	0.6197
3170	0.5929
3161	0.5636
3152	0.5317
3143	0.4969
3134	0.4618
3125	0.4164
3116	0.3828
3107	0.3634
3098	0.3564
3089	0.3532
3080	0.3446
3071	0.3298
3062	0.3212
3053	0.3163
3044	0.3114
3035	0.3058
3026	0.2954
3017	0.289
3008	0.2847
2999	0.2785
2990	0.2645
2981	0.2267
2972	0.221
2963	0.2367
2954	0.2553
2945	0.2519
2936	0.2497
2927	0.2485
2918	0.2482
2909	0.2524
2900	0.2604
2891	0.2651
2882	0.2634
2873	0.2709
2864	0.2916
2855	0.3165
2846	0.3403
2837	0.3577
2828	0.3749
2819	0.3912
2810	0.4093
2801	0.406
2792	0.4144
2783	0.4324
2774	0.4488
2765	0.4645
2756	0.4805
2747	0.4938
2738	0.5059
2729	0.5171
2720	0.5292
2711	0.5421
2702	0.5483
2693	0.5478
2684	0.5237
2675	0.5197
2666	0.5441
2657	0.5635
2648	0.5373
2639	0.4466
2630	0.4379
2621	0.5083
2612	0.5291
2603	0.5437
2594	0.5618
2585	0.5842
2576	0.607
2567	0.6231
2558	0.6291
2549	0.6372
2540	0.6478
2531	0.6521
2522	0.6511
2513	0.6517
2504	0.6533
2495	0.6541
2486	0.6639
2477	0.6753
2468	0.676
2459	0.6775
2450	0.68
2441	0.6851
2432	0.6884
2423	0.6539
2414	0.6468
2405	0.6783
2396	0.6892
2387	0.6975
2378	0.7053
2369	0.7057
2360	0.7061
2351	0.7069
2342	0.7078
2333	0.7087
2324	0.7089
2315	0.709
2306	0.7175
2297	0.7238
2288	0.7251
2279	0.7233
2270	0.7307
2261	0.7415
2252	0.7547
2243	0.7656
2234	0.7755
2225	0.7841
2216	0.7908
2207	0.7905
2198	0.7918
2189	0.794
2180	0.8021
2171	0.8122
2162	0.8213
2153	0.8287
2144	0.834
2135	0.8391
2126	0.8434
2117	0.8474
2108	0.8509
2099	0.8536
2090	0.8561
2081	0.8608
2072	0.8666
2063	0.8699
2054	0.8711
2045	0.8734
2036	0.8771
2027	0.8827
2018	0.8845
2009	0.8847
2000	0.8839
1991	0.8885
1982	0.8927
1973	0.8946
1964	0.897
1955	0.8984
1946	0.8981
1937	0.8961
1928	0.8936
1919	0.8899
1910	0.8824
1901	0.8836
1892	0.8842
1883	0.8838
1874	0.8813
1865	0.8756
1856	0.8846
1847	0.8984
1838	0.8994
1829	0.894
1820	0.888
1811	0.8877
1802	0.9125
1793	0.9195
1784	0.9112
1775	0.8454
1766	0.6814
1757	0.368
1748	0.0373
1739	0.2227
1730	0.4816
1721	0.5962
1712	0.6564
1703	0.6975
1694	0.7525
1685	0.7762
1676	0.7949
1667	0.8114
1658	0.8301
1649	0.8447
1640	0.8573
1631	0.8673
1622	0.8701
1613	0.8671
1604	0.8533
1595	0.7668
1586	0.4816
1577	0.621
1568	0.6778
1559	0.5262
1550	0.466
1541	0.6506
1532	0.7653
1523	0.716
1514	0.2502
1505	0.2905
1496	0.4903
1487	0.6519
1478	0.7158
1469	0.6237
1460	0.5188
1451	0.4762
1442	0.6778
1433	0.6945
1424	0.5409
1415	0.3828
1406	0.4698
1397	0.54
1388	0.4016
1379	0.5716
1370	0.6301
1361	0.6604
1352	0.6112
1343	0.5528
1334	0.643
1325	0.6541
1316	0.4571
1307	0.551
1298	0.5505
1289	0.5706
1280	0.5356
1271	0.3675
1262	0.1546
1253	0.0334
1244	0.117
1235	0.2499
1226	0.4021
1217	0.4784
1208	0.5459
1199	0.5891
1190	0.6324
1181	0.6264
1172	0.6203
1163	0.6546
1154	0.6535
1145	0.5926
1136	0.3782
1127	0.6505
1118	0.7126
1109	0.7111
1100	0.573
1091	0.6158
1082	0.7158
1073	0.7169
1064	0.6585
1055	0.1664
1046	0.3778
1037	0.6304
1028	0.7081
1019	0.7291
1010	0.6976
1001	0.5077
992	0.6934
983	0.7212
974	0.7283
965	0.724
956	0.7426
947	0.7561
938	0.7592
929	0.7501
920	0.6279
911	0.2518
902	0.4689
893	0.7268
884	0.7508
875	0.7636
866	0.756
857	0.355
848	0.7208
839	0.7687
830	0.784
821	0.7742
812	0.6297
803	0.7775
794	0.7947
785	0.7961
776	0.7956
767	0.7958
758	0.7957
749	0.7904
740	0.7701
731	0.7384
722	0.6821
713	0.7795
704	0.826
695	0.8392
686	0.8265
677	0.7538
668	0.764
659	0.8106
650	0.8188
641	0.8241
632	0.8287
623	0.8304
614	0.8278
605	0.8103
596	0.7774
587	0.7972
578	0.8241
569	0.832
560	0.8356
551	0.836
542	0.8334
533	0.8293
524	0.8245
515	0.8178
506	0.8074
497	0.7837
488	0.7143
479	0.7768
470	0.7703
461	0.7424
452	0.7058
443	0.6799
434	0.6445
425	0.6218
416	0.6197
407	0.6383
