Infrared Spectrum: 4-Hydroxybenzylalcohol
Formula: C 7 H 8 O 2
CAS: 623-05-2
State: gas
Instrument: HP-GC/MS/IRD
Origin: NIST Mass Spectrometry Data Center
1/CM	ABSORBANCE
550	0.001083
562	0.0012
574	0.000643
586	0.000357
598	0.000312
610	0.000175
622	0.000102
634	5.5e-05
646	6.8e-05
658	8.6e-05
670	5.3e-05
682	7.2e-05
694	0.00017
706	0.000154
718	0.000196
730	0.000214
742	0.000277
754	0.000427
766	0.000513
778	0.000644
790	0.000919
802	0.001436
814	0.002067
826	0.002509
838	0.002296
850	0.0017
862	0.000967
874	0.000547
886	0.000384
898	0.000492
910	0.000824
922	0.00064
934	0.000634
946	0.000549
958	0.000749
970	0.001052
982	0.001445
994	0.002013
1006	0.002781
1018	0.003315
1030	0.003094
1042	0.002056
1054	0.001336
1066	0.00099
1078	0.000837
1090	0.000984
1102	0.001078
1114	0.001035
1126	0.001063
1138	0.001318
1150	0.002339
1162	0.006637
1174	0.01
1186	0.006942
1198	0.00332
1210	0.002152
1222	0.001811
1234	0.002
1246	0.003918
1258	0.005511
1270	0.003035
1282	0.001065
1294	0.000809
1306	0.000905
1318	0.00145
1330	0.001789
1342	0.001391
1354	0.001047
1366	0.001249
1378	0.001616
1390	0.001475
1402	0.00111
1414	0.001077
1426	0.001225
1438	0.001236
1450	0.0007
1462	0.000486
1474	0.000562
1486	0.000626
1498	0.001786
1510	0.004804
1522	0.004096
1534	0.001043
1546	0.000502
1558	0.000509
1570	0.000489
1582	0.000978
1594	0.001945
1606	0.00279
1618	0.002429
1630	0.001305
1642	0.001548
1654	0.002875
1666	0.002676
1678	0.000795
1690	0.000378
1702	0.000445
1714	0.000636
1726	0.000529
1738	0.000281
1750	0.000264
1762	0.000196
1774	0.000168
1786	8.4e-05
1798	8.3e-05
1810	0.000113
1822	0.000206
1834	0.000191
1846	0.000176
1858	0.000164
1870	0.000203
1882	0.000174
1894	0.000147
1906	9.6e-05
1918	9.5e-05
1930	6.8e-05
1942	7.5e-05
1954	4.9e-05
1966	7.3e-05
1978	5.7e-05
1990	9.5e-05
2002	9e-05
2014	0.000109
2026	9.1e-05
2038	8.5e-05
2050	6.9e-05
2062	4.7e-05
2074	4.6e-05
2086	6.1e-05
2098	4.9e-05
2110	4.8e-05
2122	1.8e-05
2134	3e-05
2146	2.3e-05
2158	7e-06
2170	2.2e-05
2182	2.4e-05
2194	8e-06
2206	1.7e-05
2218	7e-06
2230	1.8e-05
2242	2.5e-05
2254	4.5e-05
2266	5.7e-05
2278	3.6e-05
2290	5.3e-05
2302	6.3e-05
2314	6.8e-05
2326	8e-05
2338	8.6e-05
2350	8.9e-05
2362	8.9e-05
2374	7.3e-05
2386	6.6e-05
2398	6.7e-05
2410	9.4e-05
2422	0.000121
2434	0.000152
2446	0.000103
2458	6.4e-05
2470	5.2e-05
2482	7.1e-05
2494	6.6e-05
2506	7.4e-05
2518	7.6e-05
2530	5.6e-05
2542	2.6e-05
2554	3e-05
2566	3.4e-05
2578	3e-05
2590	2.1e-05
2602	4.7e-05
2614	4.7e-05
2626	4.5e-05
2638	3.6e-05
2650	5.7e-05
2662	4.8e-05
2674	5.6e-05
2686	7.6e-05
2698	7.4e-05
2710	8.3e-05
2722	9.3e-05
2734	0.000128
2746	0.000124
2758	0.000118
2770	0.000118
2782	0.00013
2794	0.000171
2806	0.000221
2818	0.00027
2830	0.000328
2842	0.000461
2854	0.000615
2866	0.000901
2878	0.001272
2890	0.001363
2902	0.001158
2914	0.001032
2926	0.00102
2938	0.000968
2950	0.0009
2962	0.00069
2974	0.00048
2986	0.000373
2998	0.000461
3010	0.000852
3022	0.001231
3034	0.001266
3046	0.001098
3058	0.000795
3070	0.000634
3082	0.000453
3094	0.000318
3106	0.00026
3118	0.000212
3130	0.000146
3142	9.3e-05
3154	4.3e-05
3166	1.5e-05
3178	7e-06
3190	3.6e-05
3202	3.1e-05
3214	3.5e-05
3226	3.3e-05
3238	3e-05
3250	3.9e-05
3262	2.9e-05
3274	3.2e-05
3286	7.2e-05
3298	6.4e-05
3310	8.9e-05
3322	5.3e-05
3334	6.1e-05
3346	7.3e-05
3358	8.5e-05
3370	0.000109
3382	0.000102
3394	8.8e-05
3406	6.4e-05
3418	0.000104
3430	8.2e-05
3442	9.8e-05
3454	7.2e-05
3466	5.1e-05
3478	0.000101
3490	0.000125
3502	0.000105
3514	5.4e-05
3526	0.000119
3538	9.2e-05
3550	0.000107
3562	7.5e-05
3574	8.8e-05
3586	0.000163
3598	0.000162
3610	0.000298
3622	0.000513
3634	0.0015
3646	0.004061
3658	0.003812
3670	0.001309
3682	0.000458
3694	0.000298
3706	0.000174
3718	0.000122
3730	0.000126
3742	0.000221
3754	0.000119
3766	0.000106
3778	0.000116
3790	9e-05
3802	0.000135
3814	0.000123
3826	0.000123
3838	0.000181
