Infrared Spectrum: ETHYL-ETHYLXANTHATE
Formula: C5 H10 O S2
CAS: 623-79-0
State: LIQUID
Class: COBLENTZ
Instrument: Not specified, most likely a prism, grating, or hybrid spectrometer.
Sampling: TRANSMISSION
Path length: 0.003 CM
Resolution: 4
Origin: WYANDOTTE CHEMICALS CORP., WYANDOTTE, MICHIGAN, USA
MICROMETERS	TRANSMITTANCE
2.041	0.97
2.08186	0.967
2.12271	0.967
2.16357	0.941
2.20442	0.904
2.24528	0.917
2.28614	0.909
2.32699	0.921
2.36785	0.924
2.4087	0.921
2.44956	0.924
2.49042	0.933
2.53127	0.938
2.57213	0.935
2.61298	0.938
2.65384	0.936
2.6947	0.936
2.73555	0.933
2.77641	0.931
2.81726	0.929
2.85812	0.926
2.89898	0.921
2.93983	0.917
2.98069	0.917
3.02154	0.912
3.0624	0.902
3.10325	0.882
3.14411	0.878
3.18497	0.871
3.22582	0.864
3.26668	0.847
3.30753	0.649
3.34839	0.092
3.38925	0.278
3.4301	0.517
3.47096	0.509
3.51181	0.774
3.55267	0.8
3.59353	0.861
3.63438	0.87
3.67524	0.866
3.71609	0.882
3.75695	0.888
3.79781	0.897
3.83866	0.9
3.87952	0.876
3.92037	0.882
3.96123	0.899
4.00209	0.885
4.04294	0.87
4.0838	0.868
4.12465	0.842
4.16551	0.806
4.20637	0.806
4.24722	0.839
4.28808	0.878
4.32893	0.88
4.36979	0.878
4.41065	0.861
4.4515	0.818
4.49236	0.829
4.53321	0.849
4.57407	0.859
4.61493	0.864
4.65578	0.871
4.69664	0.875
4.73749	0.871
4.77835	0.871
4.81921	0.868
4.86006	0.861
4.90092	0.863
4.94177	0.875
4.98263	0.876
5.02348	0.88
5.06434	0.864
5.1052	0.87
5.14605	0.868
5.18691	0.863
5.22776	0.858
5.26862	0.835
5.30948	0.834
5.35033	0.837
5.39119	0.841
5.43204	0.839
5.4729	0.832
5.51376	0.841
5.55461	0.858
5.59547	0.851
5.63632	0.849
5.67718	0.835
5.71804	0.8
5.75889	0.77
5.79975	0.758
5.8406	0.692
5.88146	0.729
5.92232	0.772
5.96317	0.791
6.00403	0.77
6.04488	0.517
6.08574	0.687
6.1266	0.77
6.16745	0.8
6.20831	0.817
6.24916	0.818
6.29002	0.817
6.33088	0.813
6.37173	0.811
6.41259	0.8
6.45344	0.798
6.4943	0.794
6.53516	0.781
6.57601	0.772
6.61687	0.753
6.65772	0.731
6.69858	0.69
6.73944	0.57
6.78029	0.394
6.82115	0.266
6.862	0.177
6.90286	0.206
6.94371	0.355
6.98457	0.471
7.02543	0.538
7.06628	0.487
7.10714	0.391
7.14799	0.452
7.18885	0.323
7.22971	0.304
7.27056	0.27
7.31142	0.276
7.35227	0.381
7.39313	0.603
7.43399	0.671
7.47484	0.685
7.5157	0.675
7.55655	0.654
7.59741	0.627
7.63827	0.576
7.67912	0.442
7.71998	0.239
7.76083	0.21
7.80169	0.148
7.84255	0.066
7.8834	0.073
7.92426	0.099
7.96511	0.116
8.00597	0.109
8.04683	0.056
8.08768	0.03
8.12854	0.027
8.16939	0.025
8.21025	0.023
8.25111	0.023
8.29196	0.027
8.33282	0.029
8.37367	0.064
8.41453	0.165
8.45539	0.264
8.49624	0.338
8.5371	0.362
8.57795	0.358
8.61881	0.295
8.65967	0.162
8.70052	0.073
8.74138	0.082
8.78223	0.143
8.82309	0.174
8.86394	0.116
8.9048	0.047
8.94566	0.034
8.98651	0.025
9.02737	0.042
9.06822	0.083
9.10908	0.085
9.14994	0.073
9.19079	0.094
9.23165	0.059
9.2725	0.03
9.31336	0.023
9.35422	0.023
9.39507	0.023
9.43593	0.023
9.47678	0.023
9.51764	0.025
9.5585	0.025
9.59935	0.025
9.64021	0.025
9.68106	0.027
9.72192	0.041
9.76278	0.107
9.80363	0.203
9.84449	0.241
9.88534	0.22
9.9262	0.172
9.96706	0.191
10.0079	0.254
10.0488	0.311
10.0896	0.376
10.1305	0.446
10.1713	0.487
10.2122	0.471
10.253	0.386
10.2939	0.299
10.3348	0.321
10.3756	0.452
10.4165	0.562
10.4573	0.62
10.4982	0.664
10.539	0.692
10.5799	0.699
10.6208	0.704
10.6616	0.699
10.7025	0.685
10.7433	0.673
10.7842	0.659
10.825	0.641
10.8659	0.603
10.9067	0.6
10.9476	0.611
10.9885	0.63
11.0293	0.659
11.0702	0.67
11.111	0.688
11.1519	0.699
11.1927	0.711
11.2336	0.707
11.2744	0.692
11.3153	0.673
11.3562	0.615
11.397	0.531
11.4379	0.35
11.4787	0.252
11.5196	0.282
11.5604	0.376
11.6013	0.446
11.6421	0.471
11.683	0.5
11.7239	0.524
11.7647	0.541
11.8056	0.589
11.8464	0.618
11.8873	0.651
11.9281	0.67
11.969	0.688
12.0099	0.7
12.0507	0.699
12.0916	0.682
12.1324	0.675
12.1733	0.673
12.2141	0.673
12.255	0.668
12.2958	0.644
12.3367	0.6
12.3776	0.57
12.4184	0.588
12.4593	0.622
12.5001	0.644
12.541	0.659
12.5818	0.663
12.6227	0.647
12.6635	0.629
12.7044	0.603
12.7453	0.593
12.7861	0.579
12.827	0.569
12.8678	0.567
12.9087	0.584
12.9495	0.613
12.9904	0.634
13.0313	0.646
13.0721	0.649
13.113	0.635
13.1538	0.629
13.1947	0.603
13.2355	0.584
13.2764	0.565
13.3172	0.541
13.3581	0.5
13.399	0.471
13.4398	0.492
13.4807	0.562
13.5215	0.625
13.5624	0.682
13.6032	0.712
13.6441	0.733
13.6849	0.741
13.7258	0.758
13.7667	0.752
13.8075	0.769
13.8484	0.769
13.8892	0.767
13.9301	0.767
13.9709	0.77
14.0118	0.772
14.0527	0.77
14.0935	0.77
14.1344	0.77
14.1752	0.77
14.2161	0.767
14.2569	0.764
14.2978	0.757
14.3386	0.75
14.3795	0.743
14.4204	0.733
14.4612	0.731
14.5021	0.719
14.5429	0.717
14.5838	0.717
14.6246	0.719
14.6655	0.712
14.7063	0.711
14.7472	0.707
14.7881	0.7
14.8289	0.7
14.8698	0.7
14.9106	0.697
14.9515	0.692
14.9923	0.688
15.0332	0.68
15.0741	0.673
15.1149	0.678
15.1558	0.687
15.1966	0.68
15.2375	0.685
15.2783	0.685
15.3192	0.692
15.36	0.694
15.4009	0.695
15.4418	0.699
15.4826	0.7
15.5235	0.697
15.5643	0.697
15.6052	0.697
15.646	0.697
15.6869	0.697
15.7277	0.692
15.7686	0.692
15.8095	0.682
15.8503	0.682
15.8912	0.68
15.932	0.675
15.9729	0.671
