Infrared Spectrum: N-Methyl-p-toluidine
Formula: C8 H11 N
CAS: 623-08-5
State: SOLUTION (10% CCl4 FOR 3800-1330, 10% CS2 FOR 1330-420 CM^-^1)
Class: COBLENTZ III
Instrument: DOW KBr FOREPRISM-GRATING
Instrument parameters: BLAZED AT 3.5, 12.0, 20.0 MICRON AND CHANGED AT 5.0, 7.5, 14.9 MICRON
Sampling: TRANSMISSION
Path length: 0.011 CM, 0.011 CM
Resolution: 2
Origin: DOW CHEMICAL COMPANY
1/CM	TRANSMITTANCE
3818	0.9347
3809	0.9337
3800	0.9336
3791	0.9352
3782	0.9335
3773	0.9349
3764	0.935
3755	0.9353
3746	0.9355
3737	0.937
3728	0.937
3719	0.9338
3710	0.9336
3701	0.9317
3692	0.9299
3683	0.9319
3674	0.921
3665	0.9254
3656	0.9282
3647	0.9279
3638	0.9276
3629	0.9295
3620	0.9279
3611	0.9302
3602	0.9321
3593	0.9281
3584	0.9287
3575	0.9231
3566	0.9225
3557	0.9245
3548	0.9239
3539	0.9188
3530	0.9147
3521	0.9079
3512	0.9019
3503	0.8953
3494	0.8849
3485	0.863
3476	0.8238
3467	0.7102
3458	0.536
3449	0.4501
3440	0.5018
3431	0.5517
3422	0.6091
3413	0.6665
3404	0.7238
3395	0.801
3386	0.8269
3377	0.8455
3368	0.8621
3359	0.8769
3350	0.8876
3341	0.8975
3332	0.9042
3323	0.9102
3314	0.9151
3305	0.9206
3296	0.9227
3287	0.926
3278	0.9297
3269	0.9306
3260	0.9299
3251	0.9284
3242	0.9278
3233	0.9282
3224	0.9291
3215	0.93
3206	0.9274
3197	0.9272
3188	0.9246
3179	0.9195
3170	0.9155
3161	0.9123
3152	0.9091
3143	0.9035
3134	0.8992
3125	0.8892
3116	0.8064
3107	0.8017
3098	0.8307
3089	0.8412
3080	0.8132
3071	0.7022
3062	0.675
3053	0.5078
3044	0.5255
3035	0.5174
3026	0.3811
3017	0.358
3008	0.463
2999	0.4516
2990	0.3798
2981	0.3181
2972	0.3736
2963	0.4273
2954	0.3823
2945	0.3142
2936	0.2544
2927	0.1936
2918	0.1862
2909	0.2895
2900	0.2894
2891	0.2822
2882	0.2563
2873	0.2443
2864	0.2998
2855	0.4501
2846	0.6006
2837	0.6328
2828	0.6055
2819	0.5398
2810	0.3052
2801	0.4766
2792	0.7048
2783	0.7723
2774	0.8158
2765	0.851
2756	0.8675
2747	0.865
2738	0.8239
2729	0.7909
2720	0.8476
2711	0.8839
2702	0.8917
2693	0.8997
2684	0.9051
2675	0.9095
2666	0.9127
2657	0.9133
2648	0.9113
2639	0.911
2630	0.9115
2621	0.9131
2612	0.9113
2603	0.9082
2594	0.899
2585	0.8792
2576	0.8689
2567	0.8666
2558	0.8774
2549	0.8888
2540	0.8983
2531	0.9062
2522	0.9138
2513	0.9198
2504	0.9227
2495	0.925
2486	0.9253
2477	0.9259
2468	0.9224
2459	0.9211
2450	0.9187
2441	0.9197
2432	0.9205
2423	0.9218
2414	0.9236
2405	0.9278
2396	0.931
2387	0.9367
2378	0.9417
2369	0.9406
2360	0.9332
2351	0.9281
2342	0.9227
2333	0.9187
2324	0.9206
2315	0.9188
2306	0.9227
2297	0.9279
2288	0.9307
2279	0.9324
2270	0.9308
2261	0.9291
2252	0.928
2243	0.9277
2234	0.929
2225	0.9301
2216	0.9262
2207	0.925
2198	0.9281
2189	0.9297
2180	0.9329
2171	0.935
2162	0.9335
2153	0.9301
2144	0.9252
2135	0.9203
2126	0.9156
2117	0.913
2108	0.9131
2099	0.9168
2090	0.9204
2081	0.9237
2072	0.9259
2063	0.9271
2054	0.9254
2045	0.922
2036	0.9215
2027	0.9225
2018	0.923
2009	0.9231
2000	0.9225
1991	0.9106
1982	0.9092
1973	0.9066
1964	0.9069
1955	0.9085
1946	0.9064
1937	0.9072
1928	0.9033
1919	0.9025
1910	0.9
1901	0.8987
1892	0.8957
1883	0.891
1874	0.8775
1865	0.781
1856	0.7508
1847	0.8366
1838	0.867
1829	0.8738
1820	0.8804
1811	0.8914
1802	0.8954
1793	0.9003
1784	0.9008
1775	0.8957
1766	0.8868
1757	0.8678
1748	0.8491
1739	0.8571
1730	0.8698
1721	0.8788
1712	0.8833
1703	0.8864
1694	0.8823
1685	0.8704
1676	0.8553
1667	0.8543
1658	0.8324
1649	0.7852
1640	0.6722
1631	0.4437
1622	0.0879
1613	0.063
1604	0.2967
1595	0.587
1586	0.6417
1577	0.6566
1568	0.7534
1559	0.7917
1550	0.7155
1541	0.5143
1532	0.1523
1523	0.0159
1514	0.0139
1505	0.207
1496	0.4788
1487	0.2984
1478	0.2921
1469	0.4434
1460	0.5583
1451	0.5318
1442	0.3697
1433	0.571
1424	0.5523
1415	0.7474
1406	0.7566
1397	0.6467
1388	0.7103
1379	0.7768
1370	0.7973
1361	0.8068
1352	0.8048
1343	0.7874
1334	0.6923
1325	0.4472
1316	0.0394
1307	0.2278
1298	0.1742
1289	0.5223
1280	0.6316
1271	0.5812
1262	0.0924
1253	0.1646
1244	0.694
1235	0.7842
1226	0.8309
1217	0.8439
1208	0.857
1199	0.8625
1190	0.8435
1181	0.1051
1172	0.7232
1163	0.7829
1154	0.4319
1145	0.5947
1136	0.7389
1127	0.7462
1118	0.6106
1109	0.6236
1100	0.6786
1091	0.8197
1082	0.8438
1073	0.8168
1064	0.6793
1055	0.5344
1046	0.7331
1037	0.7489
1028	0.7943
1019	0.8512
1010	0.8758
1001	0.8834
992	0.8906
983	0.8728
974	0.882
965	0.8896
956	0.892
947	0.8924
938	0.8864
929	0.8903
920	0.8778
911	0.8716
902	0.8882
893	0.8991
884	0.905
875	0.886
866	0.8647
857	0.849
848	0.8206
839	0.8048
830	0.7673
821	0.6274
812	0.1043
803	0.0111
794	0.5496
785	0.7554
776	0.8276
767	0.8529
758	0.8665
749	0.8696
740	0.8625
731	0.8119
722	0.8083
713	0.8035
704	0.782
695	0.775
686	0.8046
677	0.8038
668	0.8063
659	0.7596
650	0.7029
641	0.6998
632	0.7064
623	0.7069
614	0.6961
605	0.6789
596	0.6578
587	0.6401
578	0.6255
569	0.6348
560	0.6638
551	0.6953
542	0.7285
533	0.7487
524	0.6948
515	0.4608
506	0.3036
497	0.4686
488	0.5342
479	0.5369
470	0.5208
461	0.5023
452	0.4897
443	0.4851
434	0.4854
425	0.4852
