Infrared Spectrum: BIS(2-METHYLBUTYL) HYDROGEN PHOSPHITE
Formula: C10 H23 O3 P
CAS: 62317-12-8
Boiling point: 95 C AT 1.3 mmHg
Class: COBLENTZ
Instrument: Not specified, most likely a prism, grating, or hybrid spectrometer.
Sampling: TRANSMISSION
Path length: SMEAR
Resolution: 4
Origin: TENNESSEE EASTMAN COMPANY, RESEARCH LABORATORIES
MICROMETERS	TRANSMITTANCE
2.046	0.953
2.08602	0.953
2.12604	0.953
2.16607	0.953
2.20609	0.953
2.24611	0.951
2.28613	0.939
2.32615	0.929
2.36618	0.929
2.4062	0.929
2.44622	0.931
2.48624	0.931
2.52627	0.933
2.56629	0.941
2.60631	0.948
2.64633	0.934
2.68635	0.948
2.72638	0.928
2.7664	0.909
2.80642	0.886
2.84644	0.873
2.88646	0.871
2.92649	0.881
2.96651	0.903
3.00653	0.919
3.04655	0.919
3.08657	0.919
3.1266	0.919
3.16662	0.911
3.20664	0.909
3.24666	0.909
3.28668	0.899
3.32671	0.819
3.36673	0.322
3.40675	0.43
3.44677	0.492
3.4868	0.542
3.52682	0.813
3.56684	0.859
3.60686	0.884
3.64688	0.889
3.68691	0.891
3.72693	0.901
3.76695	0.918
3.80697	0.921
3.84699	0.919
3.88702	0.921
3.92704	0.926
3.96706	0.929
4.00708	0.929
4.0471	0.918
4.08713	0.883
4.12715	0.803
4.16717	0.756
4.20719	0.803
4.24722	0.909
4.28724	0.913
4.32726	0.913
4.36728	0.914
4.4073	0.929
4.44733	0.933
4.48735	0.941
4.52737	0.943
4.56739	0.946
4.60741	0.946
4.64744	0.946
4.68746	0.946
4.72748	0.944
4.7675	0.943
4.80752	0.943
4.84755	0.944
4.88757	0.944
4.92759	0.943
4.96761	0.943
5.00764	0.943
5.04766	0.943
5.08768	0.943
5.1277	0.941
5.16772	0.929
5.20775	0.928
5.24777	0.923
5.28779	0.924
5.32781	0.921
5.36783	0.918
5.40786	0.926
5.44788	0.921
5.4879	0.918
5.52792	0.923
5.56794	0.923
5.60797	0.919
5.64799	0.928
5.68801	0.923
5.72803	0.919
5.76805	0.916
5.80808	0.929
5.8481	0.921
5.88812	0.924
5.92814	0.918
5.96817	0.901
6.00819	0.906
6.04821	0.916
6.08823	0.874
6.12825	0.899
6.16828	0.909
6.2083	0.914
6.24832	0.918
6.28834	0.919
6.32836	0.929
6.36839	0.918
6.40841	0.904
6.44843	0.921
6.48845	0.881
6.52847	0.903
6.5685	0.881
6.60852	0.873
6.64854	0.878
6.68856	0.838
6.72859	0.737
6.76861	0.542
6.80863	0.514
6.84865	0.575
6.88867	0.731
6.9287	0.823
6.96872	0.851
7.00874	0.871
7.04876	0.868
7.08878	0.864
7.12881	0.803
7.16883	0.732
7.20885	0.694
7.24887	0.672
7.28889	0.757
7.32892	0.831
7.36894	0.848
7.40896	0.861
7.44898	0.869
7.489	0.868
7.52903	0.863
7.56905	0.848
7.60907	0.819
7.64909	0.782
7.68912	0.724
7.72914	0.647
7.76916	0.519
7.80918	0.393
7.8492	0.348
7.88923	0.318
7.92925	0.305
7.96927	0.352
8.00929	0.44
8.04931	0.547
8.08934	0.699
8.12936	0.781
8.16938	0.821
8.2094	0.843
8.24942	0.858
8.28945	0.918
8.32947	0.878
8.36949	0.876
8.40951	0.869
8.44954	0.831
8.48956	0.806
8.52958	0.803
8.5696	0.792
8.60962	0.771
8.64965	0.779
8.68967	0.799
8.72969	0.799
8.76971	0.799
8.80973	0.801
8.84976	0.801
8.88978	0.799
8.9298	0.776
8.96982	0.737
9.00984	0.721
9.04987	0.682
9.08989	0.664
9.12991	0.621
9.16993	0.534
9.20995	0.46
9.24998	0.44
9.29	0.44
9.33002	0.442
9.37004	0.442
9.41007	0.422
9.45009	0.397
9.49011	0.372
9.53013	0.358
9.57015	0.362
9.61018	0.4
9.6502	0.412
9.69022	0.409
9.73024	0.409
9.77026	0.412
9.81029	0.404
9.85031	0.382
9.89033	0.353
9.93035	0.332
9.97037	0.31
10.0104	0.282
10.0504	0.252
10.0904	0.228
10.1305	0.212
10.1705	0.193
10.2105	0.178
10.2505	0.171
10.2906	0.171
10.3306	0.198
10.3706	0.245
10.4106	0.332
10.4506	0.429
10.4907	0.497
10.5307	0.532
10.5707	0.542
10.6107	0.552
10.6508	0.587
10.6908	0.639
10.7308	0.701
10.7708	0.726
10.8108	0.732
10.8509	0.726
10.8909	0.711
10.9309	0.702
10.9709	0.701
11.0109	0.751
11.051	0.787
11.091	0.811
11.131	0.829
11.171	0.843
11.2111	0.843
11.2511	0.841
11.2911	0.829
11.3311	0.803
11.3711	0.782
11.4112	0.757
11.4512	0.736
11.4912	0.721
11.5312	0.711
11.5713	0.709
11.6113	0.709
11.6513	0.717
11.6913	0.727
11.7313	0.737
11.7714	0.744
11.8114	0.756
11.8514	0.764
11.8914	0.767
11.9315	0.771
11.9715	0.776
12.0115	0.779
12.0515	0.786
12.0915	0.786
12.1316	0.786
12.1716	0.782
12.2116	0.779
12.2516	0.777
12.2917	0.777
12.3317	0.777
12.3717	0.776
12.4117	0.779
12.4517	0.781
12.4918	0.781
12.5318	0.779
12.5718	0.776
12.6118	0.772
12.6519	0.771
12.6919	0.769
12.7319	0.769
12.7719	0.771
12.8119	0.771
12.852	0.769
12.892	0.761
12.932	0.749
12.972	0.754
13.0121	0.791
13.0521	0.809
13.0921	0.828
13.1321	0.844
13.1721	0.858
13.2122	0.868
13.2522	0.873
13.2922	0.878
13.3322	0.884
13.3723	0.888
13.4123	0.893
13.4523	0.894
13.4923	0.896
13.5323	0.898
13.5724	0.899
13.6124	0.899
13.6524	0.899
13.6924	0.899
13.7325	0.899
13.7725	0.899
13.8125	0.899
13.8525	0.901
13.8925	0.901
13.9326	0.901
13.9726	0.901
14.0126	0.903
14.0526	0.901
14.0927	0.899
14.1327	0.899
14.1727	0.899
14.2127	0.898
14.2527	0.898
14.2928	0.898
14.3328	0.896
14.3728	0.894
14.4128	0.894
14.4528	0.888
14.4929	0.884
14.5329	0.883
14.5729	0.883
14.6129	0.883
14.653	0.881
14.693	0.878
14.733	0.876
14.773	0.873
14.813	0.871
14.8531	0.868
14.8931	0.861
14.9331	0.856
14.9731	0.851
15.0132	0.854
15.0532	0.854
15.0932	0.854
15.1332	0.848
15.1732	0.844
15.2133	0.844
15.2533	0.836
15.2933	0.831
15.3333	0.833
15.3734	0.831
15.4134	0.828
15.4534	0.826
15.4934	0.821
15.5334	0.818
15.5735	0.818
15.6135	0.816
15.6535	0.814
15.6935	0.809
15.7336	0.808
15.7736	0.804
15.8136	0.803
15.8536	0.799
15.8936	0.799
15.9337	0.796
15.9737	0.794
