Infrared Spectrum: Silane, tetrakis(triphenylsiloxy)-,
Formula: C72 H60 O4 Si5
CAS: 6231-36-3
State: SOLID (SPLIT MULL)
Class: COBLENTZ III
Instrument: PERKIN-ELMER 521 (GRATING)
Instrument parameters: FILTERS AT 3150, 2500, 2000, 1150, 700, 410. GRATING CHANGES: 2000, 630
Resolution: 2
Origin: DOW CORNING CORP.
1/CM	TRANSMITTANCE
251	0.7646
260	0.7853
269	0.8397
278	0.8745
287	0.9044
296	0.9257
305	0.9432
314	0.949
323	0.9563
332	0.9586
341	0.9557
350	0.9502
359	0.9411
368	0.9121
377	0.7436
386	0.6885
395	0.7872
404	0.8729
413	0.9365
422	0.9126
431	0.832
440	0.8098
449	0.8156
458	0.8417
467	0.7705
476	0.6507
485	0.8588
494	0.8501
503	0.6298
512	0.1984
521	0.099
530	0.6642
539	0.8403
548	0.9048
557	0.9173
566	0.9156
575	0.9178
584	0.9257
593	0.9203
602	0.9149
611	0.8548
620	0.9415
629	0.9371
638	0.7477
647	0.9394
656	0.9137
665	0.9053
674	0.8764
683	0.847
692	0.613
701	0.2285
710	0.3197
719	0.3825
728	0.6486
737	0.7768
746	0.6736
755	0.8632
764	0.9106
773	0.9233
782	0.926
791	0.9295
800	0.9292
809	0.9163
818	0.8972
827	0.8678
836	0.8441
845	0.8582
854	0.8696
863	0.8786
872	0.8987
881	0.8979
890	0.9039
899	0.8973
908	0.8881
917	0.849
926	0.828
935	0.8727
944	0.902
953	0.9032
962	0.8963
971	0.8856
980	0.8805
989	0.811
998	0.7511
1007	0.8718
1016	0.8357
1025	0.6094
1034	0.7624
1043	0.6985
1052	0.5939
1061	0.3639
1070	0.2392
1079	0.1189
1088	0.1501
1097	0.2094
1106	0.1643
1115	0.0569
1124	0.2998
1133	0.4948
1142	0.576
1151	0.6646
1160	0.7324
1169	0.813
1178	0.7778
1187	0.7257
1196	0.8731
1205	0.8876
1214	0.8897
1223	0.8935
1232	0.8909
1241	0.8903
1250	0.8775
1259	0.8386
1268	0.8702
1277	0.8678
1286	0.8551
1295	0.8184
1304	0.7521
1313	0.8229
1322	0.8307
1331	0.814
1340	0.8722
1349	0.8692
1358	0.8628
1367	0.8533
1376	0.838
1385	0.849
1394	0.8661
1403	0.8616
1412	0.8256
1421	0.6504
1430	0.5979
1439	0.8928
1448	0.8974
1457	0.8978
1466	0.8989
1475	0.8789
1484	0.6853
1493	0.9122
1502	0.9162
1511	0.9175
1520	0.9166
1529	0.9127
1538	0.908
1547	0.9022
1556	0.8953
1565	0.8392
1574	0.9
1583	0.835
1592	0.8926
1601	0.8976
1610	0.8958
1619	0.8982
1628	0.9058
1637	0.9031
1646	0.8965
1655	0.8895
1664	0.8905
1673	0.8989
1682	0.9076
1691	0.9079
1700	0.908
1709	0.9085
1718	0.9079
1727	0.9067
1736	0.905
1745	0.9023
1754	0.8987
1763	0.8941
1772	0.8873
1781	0.8903
1790	0.8971
1799	0.8966
1808	0.8882
1817	0.8719
1826	0.8677
1835	0.8776
1844	0.8915
1853	0.8963
1862	0.8978
1871	0.8944
1880	0.8836
1889	0.8641
1898	0.8717
1907	0.8892
1916	0.893
1925	0.899
1934	0.9027
1943	0.8992
1952	0.8851
1961	0.8683
1970	0.8848
1979	0.8955
1988	0.8999
1997	0.9064
2006	0.9223
2015	0.9266
2024	0.9251
2033	0.9235
2042	0.9219
2051	0.9207
2060	0.9195
2069	0.9181
2078	0.9167
2087	0.915
2096	0.9133
2105	0.9117
2114	0.91
2123	0.9082
2132	0.9064
2141	0.9046
2150	0.9027
2159	0.9006
2168	0.8986
2177	0.8965
2186	0.895
2195	0.8934
2204	0.8919
2213	0.8874
2222	0.8817
2231	0.8753
2240	0.8737
2249	0.8724
2258	0.8713
2267	0.8702
2276	0.8691
2285	0.868
2294	0.8669
2303	0.8661
2312	0.8655
2321	0.8654
2330	0.8655
2339	0.8663
2348	0.8687
2357	0.8724
2366	0.8751
2375	0.8719
2384	0.8684
2393	0.8675
2402	0.8677
2411	0.868
2420	0.8682
2429	0.8684
2438	0.8685
2447	0.8684
2456	0.8682
2465	0.868
2474	0.8678
2483	0.8674
2492	0.867
2501	0.8665
2510	0.8662
2519	0.8657
2528	0.8653
2537	0.8648
2546	0.8642
2555	0.8634
2564	0.8625
2573	0.8617
2582	0.8608
2591	0.8596
2600	0.8585
2609	0.8573
2618	0.8561
2627	0.8549
2636	0.8535
2645	0.852
2654	0.8505
2663	0.8489
2672	0.8476
2681	0.8461
2690	0.8448
2699	0.8435
2708	0.8428
2717	0.842
2726	0.8413
2735	0.8404
2744	0.8393
2753	0.8381
2762	0.8369
2771	0.8358
2780	0.8346
2789	0.8334
2798	0.8315
2807	0.8291
2816	0.8266
2825	0.8228
2834	0.8191
2843	0.8137
2852	0.804
2861	0.7963
2870	0.7957
2879	0.7982
2888	0.7992
2897	0.7921
2906	0.7836
2915	0.774
2924	0.7644
2933	0.7624
2942	0.7669
2951	0.7697
2960	0.77
2969	0.7697
2978	0.769
2987	0.7672
2996	0.7623
3005	0.702
3014	0.693
3023	0.6807
3032	0.66
3041	0.7292
3050	0.6843
3059	0.6308
3068	0.656
3077	0.5818
3086	0.7478
3095	0.7584
3104	0.7878
3113	0.7927
3122	0.7934
3131	0.781
3140	0.7541
3149	0.7567
3158	0.7636
3167	0.7636
3176	0.763
3185	0.7629
3194	0.7616
3203	0.76
3212	0.7579
3221	0.7556
3230	0.7534
3239	0.751
3248	0.7487
3257	0.7463
3266	0.7438
3275	0.7408
3284	0.7379
3293	0.735
3302	0.7321
3311	0.7282
3320	0.7243
3329	0.7203
3338	0.7165
3347	0.7129
3356	0.7093
3365	0.7057
3374	0.7039
3383	0.7023
3392	0.7013
3401	0.7016
3410	0.702
3419	0.7023
3428	0.7026
3437	0.7026
3446	0.7027
3455	0.7027
3464	0.7027
3473	0.7027
3482	0.7022
3491	0.7016
3500	0.7011
3509	0.7005
3518	0.7
3527	0.6994
3536	0.6988
3545	0.6979
3554	0.697
3563	0.6962
3572	0.6953
3581	0.6942
3590	0.693
3599	0.6918
3608	0.6906
3617	0.6892
3626	0.6863
3635	0.6811
3644	0.6722
3653	0.6592
3662	0.6461
3671	0.6352
3680	0.6331
3689	0.6316
3698	0.6486
3707	0.6682
3716	0.6843
3725	0.6888
3734	0.6888
3743	0.6883
3752	0.6878
3761	0.6868
3770	0.6859
3779	0.6852
3788	0.6846
3797	0.6831
3806	0.6814
