Infrared Spectrum: 2,2,3-Trimethyldecane
Formula: C 13 H 28
CAS: 62338-09-4
State: gas
Instrument: HP-GC/MS/IRD
Origin: NIST Mass Spectrometry Data Center
1/CM	ABSORBANCE
550	0.000225
562	0.0001215
574	7.2e-05
586	4.5e-05
598	0.00018
610	0.000162
622	0.00018
634	0.00018
646	0.000207
658	0.000144
670	0.000117
682	0.000333
694	0.0003735
706	0.00054
718	0.0006975
730	0.0006795
742	0.000549
754	0.0004725
766	0.00045
778	0.000423
790	0.000306
802	0.000225
814	0.000261
826	0.0003285
838	0.0004095
850	0.000342
862	0.0003015
874	0.0003105
886	0.0003195
898	0.000351
910	0.000396
922	0.0004365
934	0.0003735
946	0.0003555
958	0.000369
970	0.00036
982	0.0004995
994	0.000531
1006	0.0004905
1018	0.0004095
1030	0.000405
1042	0.000522
1054	0.000666
1066	0.0006075
1078	0.0006705
1090	0.000873
1102	0.0010035
1114	0.0007065
1126	0.000657
1138	0.0007605
1150	0.000666
1162	0.0006165
1174	0.0009045
1186	0.001053
1198	0.0011385
1210	0.001242
1222	0.001179
1234	0.0012465
1246	0.000918
1258	0.0006435
1270	0.000576
1282	0.0006165
1294	0.000711
1306	0.0007875
1318	0.000837
1330	0.0010845
1342	0.0015075
1354	0.00252
1366	0.0051075
1378	0.005454
1390	0.0038115
1402	0.0028305
1414	0.0012645
1426	0.001233
1438	0.0019125
1450	0.003501
1462	0.0053145
1474	0.0054765
1486	0.0034875
1498	0.0014625
1510	0.0007785
1522	0.0005445
1534	0.000414
1546	0.0002835
1558	0.000288
1570	0.000243
1582	0.000198
1594	0.000207
1606	0.0001935
1618	0.0001665
1630	0.000171
1642	0.000189
1654	0.000171
1666	0.0001575
1678	0.000144
1690	0.0001395
1702	0.000126
1714	8.55e-05
1726	0.0001035
1738	0.0001035
1750	9.9e-05
1762	7.65e-05
1774	8.55e-05
1786	8.55e-05
1798	7.65e-05
1810	8.1e-05
1822	5.85e-05
1834	5.85e-05
1846	6.75e-05
1858	7.2e-05
1870	7.2e-05
1882	7.2e-05
1894	5.85e-05
1906	8.1e-05
1918	3.6e-05
1930	4.5e-05
1942	4.5e-05
1954	4.05e-05
1966	3.6e-05
1978	3.6e-05
1990	0
2002	5.4e-05
2014	4.95e-05
2026	6.3e-05
2038	7.2e-05
2050	6.3e-05
2062	6.3e-05
2074	3.15e-05
2086	4.5e-05
2098	3.15e-05
2110	2.25e-05
2122	5.85e-05
2134	1.35e-05
2146	3.6e-05
2158	4.05e-05
2170	3.6e-05
2182	4.05e-05
2194	2.7e-05
2206	3.15e-05
2218	3.15e-05
2230	1.8e-05
2242	4.95e-05
2254	9e-06
2266	4.95e-05
2278	4.05e-05
2290	6.75e-05
2302	3.6e-05
2314	4.95e-05
2326	5.85e-05
2338	5.4e-05
2350	4.5e-05
2362	6.75e-05
2374	8.1e-05
2386	9e-05
2398	0.000108
2410	8.1e-05
2422	7.65e-05
2434	6.75e-05
2446	6.75e-05
2458	7.65e-05
2470	7.2e-05
2482	6.75e-05
2494	9e-05
2506	0.0001125
2518	0.000135
2530	0.000144
2542	0.000153
2554	0.000189
2566	0.000234
2578	0.000261
2590	0.000297
2602	0.0003105
2614	0.000369
2626	0.000405
2638	0.000414
2650	0.0004365
2662	0.000477
2674	0.00054
2686	0.000549
2698	0.0005355
2710	0.000612
2722	0.00072
2734	0.000774
2746	0.0008055
2758	0.000855
2770	0.0009045
2782	0.0010845
2794	0.001359
2806	0.001692
2818	0.002295
2830	0.0031815
2842	0.0052155
2854	0.0114255
2866	0.019548
2878	0.0207225
2890	0.017856
2902	0.018297
2914	0.025569
2926	0.0391455
2938	0.044244
2950	0.039492
2962	0.0437175
2974	0.0383175
2986	0.018648
2998	0.0073575
3010	0.003834
3022	0.002538
3034	0.0018765
3046	0.001458
3058	0.001206
3070	0.001017
3082	0.000954
3094	0.000873
3106	0.0008055
3118	0.000729
3130	0.0006885
3142	0.000612
3154	0.000657
3166	0.0006345
3178	0.0005715
3190	0.000522
3202	0.000441
3214	0.000414
3226	0.0003375
3238	0.0002655
3250	0.000243
3262	0.000216
3274	0.000162
3286	0.0001485
3298	0.000162
3310	0.000153
3322	0.000207
3334	0.0001485
3346	0.000153
3358	0.000153
3370	0.000135
3382	0.0001665
3394	0.000171
3406	0.000126
3418	0.0001305
3430	9.9e-05
3442	9e-05
3454	0.000135
3466	0.0001395
3478	0.0001125
3490	9e-05
3502	0.000135
3514	5.4e-05
3526	8.1e-05
3538	5.4e-05
3550	9.9e-05
3562	0.0001125
3574	6.75e-05
3586	1.8e-05
3598	9.45e-05
3610	0.0001125
3622	0.0001215
3634	7.65e-05
3646	0.000126
3658	0.0001485
3670	0.000117
3682	0.0001215
3694	0.00018
3706	0.0001395
3718	0.0001215
3730	0.0001035
3742	0.0001125
3754	0.000126
3766	0.0001125
3778	0.000135
3790	0.000126
3802	0.00018
3814	0.00018
3826	0.000243
3838	0.000207
