Infrared Spectrum: Isoxazole-5-carbonyl chloride
Formula: C 4 H 2 Cl N O 2
CAS: 62348-13-4
State: gas
Origin: EPA-IR VAPOR PHASE LIBRARY
1/CM	ABSORBANCE
549.8	0.013982
559.445	0.009832
569.09	0.008452
578.734	0.004842
588.379	0.001902
598.024	0.0015823
607.669	0.0012711
617.313	0.002692
626.958	0.002762
636.603	0.001982
646.248	0.0014862
655.893	0.001574
665.537	0.002902
675.182	0.002252
684.827	0.003072
694.472	0.004572
704.116	0.006692
713.761	0.007132
723.406	0.005602
733.051	0.003612
742.695	0.004222
752.34	0.005042
761.985	0.005882
771.63	0.005972
781.275	0.008992
790.919	0.017442
800.564	0.037142
810.209	0.084972
819.854	0.122142
829.498	0.148092
839.143	0.129212
848.788	0.108842
858.433	0.057452
868.078	0.031352
877.722	0.018422
887.367	0.017222
897.012	0.023962
906.657	0.029422
916.301	0.033282
925.946	0.028682
935.591	0.010922
945.236	0.003182
954.88	0.002862
964.525	0.003422
974.17	0.004132
983.815	0.007582
993.46	0.018912
1003.1	0.038912
1012.75	0.054862
1022.39	0.050502
1032.04	0.033232
1041.68	0.011272
1051.33	0.004192
1060.97	0.003792
1070.62	0.003522
1080.26	0.004372
1089.91	0.0015044
1099.55	0.004402
1109.2	0.004042
1118.84	0.003072
1128.49	0.002822
1138.13	0.003022
1147.78	0.002802
1157.42	0.003902
1167.07	0.012132
1176.71	0.042992
1186.36	0.051762
1196	0.037072
1205.64	0.012352
1215.29	0.028862
1224.93	0.060112
1234.58	0.082762
1244.22	0.058442
1253.87	0.022492
1263.51	0.007172
1273.16	0.004672
1282.8	0.003832
1292.45	0.002812
1302.09	0.002512
1311.74	0.003552
1321.38	0.008702
1331.03	0.014202
1340.67	0.012002
1350.32	0.006252
1359.96	0.002962
1369.61	0.002512
1379.25	0.002102
1388.9	0.0017242
1398.54	0.0016973
1408.18	0.0015886
1417.83	0.002132
1427.47	0.003242
1437.12	0.005122
1446.76	0.005542
1456.41	0.005092
1466.05	0.002652
1475.7	0.0012313
1485.34	0.00091197
1494.99	0.00088799
1504.63	0.0008622
1514.28	0.0013666
1523.92	0.0012871
1533.57	0.0012616
1543.21	0.0017496
1552.86	0.003942
1562.5	0.009082
1572.15	0.014852
1581.79	0.013342
1591.44	0.005472
1601.08	0.002322
1610.73	0.002552
1620.37	0.003392
1630.01	0.003362
1639.66	0.002902
1649.3	0.002382
1658.95	0.002912
1668.59	0.003402
1678.24	0.004282
1687.88	0.004472
1697.53	0.004742
1707.17	0.005092
1716.82	0.006772
1726.46	0.009222
1736.11	0.012882
1745.75	0.022962
1755.4	0.049482
1765.04	0.093332
1774.69	0.120902
1784.33	0.132002
1793.98	0.096092
1803.62	0.076032
1813.27	0.031962
1822.91	0.019632
1832.55	0.016882
1842.2	0.014702
1851.84	0.010172
1861.49	0.007172
1871.13	0.004792
1880.78	0.002962
1890.42	0.002172
1900.07	0.001862
1909.71	0.0016515
1919.36	0.0017494
1929	0.001992
1938.65	0.0016441
1948.29	0.0016541
1957.94	0.0016015
1967.58	0.0014311
1977.23	0.0009773
1986.87	0.0010409
1996.52	0.0010319
2006.16	0.0011469
2015.81	0.0011497
2025.45	0.001057
2035.1	0.0012897
2044.74	0.0015092
2054.38	0.0012992
2064.03	0.0012077
2073.67	0.0013805
2083.32	0.0011331
2092.96	0.001194
2102.61	0.0013619
2112.25	0.0016916
2121.9	0.0015489
2131.54	0.0014733
2141.19	0.001872
2150.83	0.002642
2160.48	0.002942
2170.12	0.003042
2179.77	0.002602
2189.41	0.0013981
2199.06	0.001372
2208.7	0.0011909
2218.35	0.0012745
2227.99	0.0009354
2237.64	0.0013929
2247.28	0.0012824
2256.92	0.0012791
2266.57	0.0012587
2276.21	0.001009
2285.86	0.0014382
2295.5	0.002292
2305.15	0.002802
2314.79	0.003752
2324.44	0.004192
2334.08	0.004012
2343.73	0.003882
2353.37	0.004402
2363.02	0.005662
2372.66	0.004562
2382.31	0.002052
2391.95	0.00090204
2401.6	0.00088252
2411.24	0.0007813
2420.89	0.000664
2430.53	0.000696
2440.18	0.000584
2449.82	0.0009659
2459.47	0.00089659
2469.11	0.0007315
2478.75	0.0007814
2488.4	0.0007271
2498.04	0.000705
2507.69	0.000658
2517.33	0.000614
2526.98	0.000708
2536.62	0.000572
2546.27	0.000623
2555.91	0.000431
2565.56	0.000647
2575.2	0.000575
2584.85	0.0007823
2594.49	0.000734
2604.14	0.000692
2613.78	0.000682
2623.43	0.00080436
2633.07	0.0009157
2642.72	0.000678
2652.36	0.0011752
2662.01	0.0012995
2671.65	0.0014416
2681.29	0.0013003
2690.94	0.0009776
2700.58	0.0011037
2710.23	0.0007123
2719.87	0.00058
2729.52	0.000359
2739.16	0.000672
2748.81	0.0014249
2758.45	0.0007325
2768.1	0.000466
2777.74	0.001237
2787.39	0.0012762
2797.03	0.002392
2806.68	0.0015132
2816.32	0.001404
2825.97	0.0009931
2835.61	0.00083598
2845.26	0.0010467
2854.9	0.0009823
2864.55	0.0013511
2874.19	0.000551
2883.84	0.0016882
2893.48	0.00090241
2903.12	0.000705
2912.77	0.000618
2922.41	0.00086422
2932.06	0.0007879
2941.7	0.000391
2951.35	0.0010489
2960.99	0.001832
2970.64	0.000507
2980.28	0.0013156
2989.93	0.0009614
2999.57	0.0013654
3009.22	0.000812404
3018.86	0.00080993
3028.51	0.0011252
3038.15	0.000513
3047.8	0.00090373
3057.44	0.0009753
3067.09	0.00086422
3076.73	0.000331
3086.38	0.0009155
3096.02	0.0009754
3105.67	0.00090483
3115.31	0.0010026
3124.95	0.0011042
3134.6	0.001455
3144.24	0.0010424
3153.89	0.002132
3163.53	0.002662
3173.18	0.002352
3182.82	0.0014946
3192.47	0.00080515
3202.11	0.000995
3211.76	0.000924
3221.4	0.0014091
3231.05	0.0010619
3240.69	0.000591
3250.34	0.000694
3259.98	0.000578
3269.63	0.0009237
3279.27	0.0007133
3288.92	0.0007951
3298.56	0.000505
3308.21	0.0014268
3317.85	0.000526
3327.49	0.0010325
3337.14	0.0012035
3346.78	0.00086214
3356.43	0.000696
3366.07	0.00067
3375.72	0.0009927
3385.36	0.0009406
3395.01	0.0007697
3404.65	0.00081027
3414.3	0.00087515
3423.94	0.0014992
3433.59	0.00089073
3443.23	0.0010951
3452.88	0.0012402
3462.52	0.0013782
3472.17	0.001932
3481.81	0.001321
3491.46	0.0016206
3501.1	0.0016085
3510.75	0.002702
3520.39	0.002882
3530.04	0.002852
3539.68	0.002432
3549.32	0.002462
3558.97	0.003152
3568.61	0.002892
3578.26	0.003042
3587.9	0.0017119
3597.55	0.0010359
3607.19	0.0015587
3616.84	0.002012
3626.48	0.0013452
3636.13	0.0015552
3645.77	0.0012781
3655.42	0.0011599
3665.06	0.0009975
3674.71	0.0009553
3684.35	0.001455
3694	0.0010872
3703.64	0.0012881
3713.29	0.0010446
3722.93	0.0013318
3732.58	0.0016646
3742.22	0.0009999
3751.86	0.0011656
3761.51	0.001334
3771.15	0.0009244
3780.8	0.000276
3790.44	0.0011394
3800.09	0.00084121
3809.73	0.000523
3819.38	0.0007618
3829.02	0.0015533
3838.67	0.0010928
3848.31	0.0013202
3857.96	0.000972
3867.6	0.0009818
3877.25	0.0011579
3886.89	0.0009492
3896.54	0.001289
3906.18	0.0014496
3915.83	0.000406
3925.47	0.0011936
3935.12	0.0013172
3944.76	0.0015005
3954.41	0.0010511
3964.05	0.00089074
3973.69	0.0012494
3983.34	0.0013099
3992.98	0.000967
