Infrared Spectrum: 1-HYDROXY-2-NAPHTHAMIDE
Formula: C11 H9 N O2
CAS: 62353-80-4
State: SOLID (KBr PRESSING)
Melting point: 191-192 C
Class: COBLENTZ
Instrument: Not specified, most likely a prism, grating, or hybrid spectrometer.
Sampling: TRANSMISSION
Resolution: 4
Origin: EASTMAN KODAK COMPANY, RESEARCH LABORATORIES, ROCHESTER, N.Y.
MICROMETERS	TRANSMITTANCE
2.028	0.415
2.063	0.42
2.098	0.427
2.133	0.427
2.168	0.431
2.203	0.441
2.238	0.45
2.273	0.458
2.308	0.467
2.343	0.472
2.378	0.479
2.413	0.486
2.448	0.49
2.483	0.49
2.518	0.5
2.553	0.518
2.588	0.532
2.623	0.549
2.658	0.565
2.693	0.581
2.728	0.586
2.763	0.591
2.798	0.595
2.833	0.598
2.868	0.493
2.903	0.298
2.938	0.239
2.973	0.315
3.008	0.328
3.043	0.378
3.078	0.361
3.113	0.34
3.148	0.226
3.183	0.127
3.218	0.16
3.253	0.216
3.288	0.242
3.323	0.296
3.358	0.335
3.393	0.359
3.428	0.375
3.463	0.389
3.498	0.404
3.533	0.413
3.568	0.42
3.603	0.42
3.638	0.401
3.673	0.394
3.708	0.397
3.743	0.404
3.778	0.415
3.813	0.425
3.848	0.439
3.883	0.441
3.918	0.464
3.953	0.495
3.988	0.521
4.023	0.532
4.058	0.542
4.093	0.544
4.128	0.554
4.163	0.56
4.198	0.568
4.233	0.582
4.268	0.6
4.303	0.616
4.338	0.617
4.373	0.612
4.408	0.616
4.443	0.621
4.478	0.626
4.513	0.636
4.548	0.65
4.583	0.67
4.618	0.684
4.653	0.692
4.688	0.699
4.723	0.71
4.758	0.712
4.793	0.717
4.828	0.727
4.863	0.748
4.898	0.764
4.933	0.778
4.968	0.781
5.003	0.792
5.038	0.801
5.073	0.794
5.108	0.764
5.143	0.762
5.178	0.773
5.213	0.801
5.248	0.811
5.283	0.818
5.318	0.823
5.353	0.844
5.388	0.874
5.423	0.867
5.458	0.869
5.493	0.876
5.528	0.865
5.563	0.865
5.598	0.856
5.633	0.844
5.668	0.846
5.703	0.832
5.738	0.816
5.773	0.766
5.808	0.713
5.843	0.696
5.878	0.636
5.913	0.623
5.948	0.535
5.983	0.342
6.018	0.191
6.053	0.094
6.088	0.115
6.123	0.118
6.158	0.101
6.193	0.2
6.228	0.198
6.263	0.169
6.298	0.155
6.333	0.092
6.368	0.162
6.403	0.307
6.438	0.408
6.473	0.492
6.508	0.563
6.543	0.636
6.578	0.663
6.613	0.645
6.648	0.61
6.683	0.635
6.718	0.661
6.753	0.5
6.788	0.298
6.823	0.16
6.858	0.293
6.893	0.328
6.928	0.28
6.963	0.209
6.998	0.127
7.033	0.08
7.068	0.075
7.103	0.068
7.138	0.092
7.173	0.141
7.208	0.237
7.243	0.28
7.278	0.291
7.313	0.277
7.348	0.253
7.383	0.277
7.418	0.369
7.453	0.436
7.488	0.465
7.523	0.492
7.558	0.462
7.593	0.321
7.628	0.141
7.663	0.087
7.698	0.082
7.733	0.111
7.768	0.162
7.803	0.221
7.838	0.284
7.873	0.331
7.908	0.38
7.943	0.345
7.978	0.31
8.013	0.385
8.048	0.425
8.083	0.462
8.118	0.49
8.153	0.506
8.188	0.541
8.223	0.532
8.258	0.436
8.293	0.352
8.328	0.375
8.363	0.438
8.398	0.479
8.433	0.493
8.468	0.483
8.503	0.474
8.538	0.523
8.573	0.553
8.608	0.479
8.643	0.396
8.678	0.462
8.713	0.443
8.748	0.427
8.783	0.471
8.818	0.493
8.853	0.513
8.888	0.518
8.923	0.521
8.958	0.511
8.993	0.478
9.028	0.415
9.063	0.326
9.098	0.268
9.133	0.305
9.168	0.392
9.203	0.448
9.238	0.483
9.273	0.499
9.308	0.521
9.343	0.537
9.378	0.554
9.413	0.579
9.448	0.6
9.483	0.623
9.518	0.635
9.553	0.647
9.588	0.668
9.623	0.673
9.658	0.675
9.693	0.668
9.728	0.63
9.763	0.589
9.798	0.609
9.833	0.643
9.868	0.671
9.903	0.692
9.938	0.698
9.973	0.703
10.008	0.705
10.043	0.715
10.078	0.727
10.113	0.729
10.148	0.732
10.183	0.738
10.218	0.738
10.253	0.743
10.288	0.743
10.323	0.746
10.358	0.736
10.393	0.706
10.428	0.734
10.463	0.745
10.498	0.745
10.533	0.755
10.568	0.757
10.603	0.757
10.638	0.809
10.673	0.769
10.708	0.762
10.743	0.757
10.778	0.767
10.813	0.753
10.848	0.732
10.883	0.647
10.918	0.411
10.953	0.28
10.988	0.35
11.023	0.411
11.058	0.422
11.093	0.399
11.128	0.369
11.163	0.34
11.198	0.324
11.233	0.328
11.268	0.371
11.303	0.422
11.338	0.472
11.373	0.518
11.408	0.53
11.443	0.53
11.478	0.542
11.513	0.534
11.548	0.553
11.583	0.602
11.618	0.64
11.653	0.673
11.688	0.692
11.723	0.706
11.758	0.713
11.793	0.722
11.828	0.727
11.863	0.741
11.898	0.75
11.933	0.755
11.968	0.764
12.003	0.776
12.038	0.785
12.073	0.795
12.108	0.792
12.143	0.78
12.178	0.757
12.213	0.671
12.248	0.549
12.283	0.516
12.318	0.556
12.353	0.609
12.388	0.643
12.423	0.652
12.458	0.64
12.493	0.584
12.528	0.434
12.563	0.298
12.598	0.3
12.633	0.448
12.668	0.528
12.703	0.542
12.738	0.528
12.773	0.493
12.808	0.422
12.843	0.368
12.878	0.312
12.913	0.28
12.948	0.254
12.983	0.237
13.018	0.221
13.053	0.221
13.088	0.249
13.123	0.35
13.158	0.483
13.193	0.598
13.228	0.682
13.263	0.729
13.298	0.759
13.333	0.755
13.368	0.671
13.403	0.523
13.438	0.375
13.473	0.291
13.508	0.275
13.543	0.307
13.578	0.364
13.613	0.42
13.648	0.474
13.683	0.532
13.718	0.591
13.753	0.633
13.788	0.654
13.823	0.663
13.858	0.652
13.893	0.612
13.928	0.596
13.963	0.584
13.998	0.57
14.033	0.558
14.068	0.546
14.103	0.534
14.138	0.528
14.173	0.528
14.208	0.541
14.243	0.553
14.278	0.563
14.313	0.584
14.348	0.607
14.383	0.65
14.418	0.692
14.453	0.72
14.488	0.753
14.523	0.771
14.558	0.781
14.593	0.788
14.628	0.795
14.663	0.804
14.698	0.811
14.733	0.816
14.768	0.816
14.803	0.82
14.838	0.821
14.873	0.825
14.908	0.827
14.943	0.825
14.978	0.82
15.013	0.818
15.048	0.82
15.083	0.813
15.118	0.797
15.153	0.773
15.188	0.736
15.223	0.682
15.258	0.602
15.293	0.554
15.328	0.523
15.363	0.516
15.398	0.537
15.433	0.581
15.468	0.631
15.503	0.673
15.538	0.706
15.573	0.726
15.608	0.739
15.643	0.746
15.678	0.755
15.713	0.766
15.748	0.769
15.783	0.773
15.818	0.771
