Infrared Spectrum: 2-Bromo-6-chlorotoluene
Formula: C 7 H 6 Br Cl
CAS: 62356-27-8
State: gas
Origin: EPA-IR VAPOR PHASE LIBRARY
1/CM	ABSORBANCE
549.8	0.000712
559.445	0.000831
569.09	0.001538
578.734	0.001318
588.379	0.0010462
598.024	0.0010047
607.669	0.000819
617.313	0.000585
626.958	0.0004048
636.603	0.0006338
646.248	0.0007825
655.893	0.0011953
665.537	0.001748
675.182	0.004448
684.827	0.010008
694.472	0.014528
704.116	0.007648
713.761	0.004878
723.406	0.016398
733.051	0.059668
742.695	0.055428
752.34	0.017308
761.985	0.040528
771.63	0.062928
781.275	0.025798
790.919	0.005628
800.564	0.004058
810.209	0.002618
819.854	0.001278
829.498	0.0009801
839.143	0.0008631
848.788	0.0007582
858.433	0.000941
868.078	0.0008905
877.722	0.0012383
887.367	0.001328
897.012	0.0010064
906.657	0.0009147
916.301	0.0010655
925.946	0.001408
935.591	0.002168
945.236	0.003398
954.88	0.006208
964.525	0.009858
974.17	0.016668
983.815	0.026778
993.46	0.029848
1003.1	0.017348
1012.75	0.008918
1022.39	0.007928
1032.04	0.008398
1041.68	0.009448
1051.33	0.012438
1060.97	0.019128
1070.62	0.025768
1080.26	0.020578
1089.91	0.010518
1099.55	0.003948
1109.2	0.002908
1118.84	0.002238
1128.49	0.002208
1138.13	0.001988
1147.78	0.003678
1157.42	0.005268
1167.07	0.003088
1176.71	0.002058
1186.36	0.004318
1196	0.008968
1205.64	0.006648
1215.29	0.002528
1224.93	0.002058
1234.58	0.001278
1244.22	0.002908
1253.87	0.005588
1263.51	0.004138
1273.16	0.001558
1282.8	0.001818
1292.45	0.001808
1302.09	0.0010918
1311.74	0.0008705
1321.38	0.0009329
1331.03	0.001094
1340.67	0.001318
1350.32	0.001648
1359.96	0.002188
1369.61	0.003488
1379.25	0.006338
1388.9	0.008128
1398.54	0.007008
1408.18	0.010108
1417.83	0.030478
1427.47	0.064818
1437.12	0.058888
1446.76	0.032828
1456.41	0.016888
1466.05	0.012088
1475.7	0.010118
1485.34	0.008048
1494.99	0.005378
1504.63	0.003878
1514.28	0.003318
1523.92	0.004048
1533.57	0.006988
1543.21	0.013038
1552.86	0.031128
1562.5	0.047888
1572.15	0.028858
1581.79	0.010878
1591.44	0.004848
1601.08	0.002518
1610.73	0.001668
1620.37	0.001278
1630.01	0.001308
1639.66	0.001458
1649.3	0.002418
1658.95	0.003678
1668.59	0.002268
1678.24	0.0008507
1687.88	0.0006561
1697.53	0.0006299
1707.17	0.000635
1716.82	0.0008001
1726.46	0.0010078
1736.11	0.0008287
1745.75	0.0007564
1755.4	0.0008219
1765.04	0.0012198
1774.69	0.001958
1784.33	0.001838
1793.98	0.0011407
1803.62	0.0006627
1813.27	0.000538
1822.91	0.0005734
1832.55	0.0010859
1842.2	0.002238
1851.84	0.002438
1861.49	0.0012412
1871.13	0.0006751
1880.78	0.0006113
1890.42	0.0007768
1900.07	0.001258
1909.71	0.001918
1919.36	0.002168
1929	0.001548
1938.65	0.0008312
1948.29	0.0005827
1957.94	0.0004289
1967.58	0.0003938
1977.23	0.0003499
1986.87	0.00032918
1996.52	0.0004121
2006.16	0.0004069
2015.81	0.0004201
2025.45	0.0004035
2035.1	0.00029713
2044.74	0.0003946
2054.38	0.0004172
2064.03	0.00035732
2073.67	0.0003805
2083.32	0.0002671
2092.96	0.00036212
2102.61	0.00030714
2112.25	0.00031269
2121.9	0.00032863
2131.54	0.0003811
2141.19	0.0003783
2150.83	0.00036563
2160.48	0.00030836
2170.12	0.0004319
2179.77	0.0004477
2189.41	0.0004418
2199.06	0.00032126
2208.7	0.00036414
2218.35	0.0001968
2227.99	0.0002313
2237.64	0.0004175
2247.28	0.0004157
2256.92	0.000418
2266.57	0.0003988
2276.21	0.0004617
2285.86	0.0004072
2295.5	0.0005547
2305.15	0.0006823
2314.79	0.0007095
2324.44	0.0006071
2334.08	0.0004068
2343.73	0.0002992
2353.37	0.0003487
2363.02	0.00033687
2372.66	0.0004413
2382.31	0.0004147
2391.95	0.00035701
2401.6	0.0004905
2411.24	0.0005047
2420.89	0.000543
2430.53	0.0006088
2440.18	0.000617
2449.82	0.0006444
2459.47	0.0006755
2469.11	0.0007251
2478.75	0.0005655
2488.4	0.000381
2498.04	0.00056
2507.69	0.0005406
2517.33	0.0003919
2526.98	0.0003792
2536.62	0.0002403
2546.27	0.00034062
2555.91	0.00035396
2565.56	0.00029542
2575.2	0.0003909
2584.85	0.0004203
2594.49	0.0007794
2604.14	0.0005224
2613.78	0.0005628
2623.43	0.0007109
2633.07	0.0006813
2642.72	0.000654
2652.36	0.0005417
2662.01	0.0004154
2671.65	0.0002666
2681.29	0.0002344
2690.94	0.00033366
2700.58	0.0003807
2710.23	0.00034191
2719.87	0.00030557
2729.52	0.0003312
2739.16	0.0005561
2748.81	0.0004454
2758.45	0.0005319
2768.1	0.0005902
2777.74	0.0004253
2787.39	0.0003961
2797.03	0.0004792
2806.68	0.0004728
2816.32	0.0005801
2825.97	0.0008372
2835.61	0.0009194
2845.26	0.001017
2854.9	0.001398
2864.55	0.001998
2874.19	0.002268
2883.84	0.001958
2893.48	0.001828
2903.12	0.002038
2912.77	0.002758
2922.41	0.004108
2932.06	0.006358
2941.7	0.007818
2951.35	0.007138
2960.99	0.005338
2970.64	0.003808
2980.28	0.002638
2989.93	0.002088
2999.57	0.002018
3009.22	0.001908
3018.86	0.002008
3028.51	0.002638
3038.15	0.003578
3047.8	0.004678
3057.44	0.005988
3067.09	0.006528
3076.73	0.006398
3086.38	0.005588
3096.02	0.003248
3105.67	0.002308
3115.31	0.002018
3124.95	0.001628
3134.6	0.0009539
3144.24	0.0005361
3153.89	0.0005155
3163.53	0.000206
3173.18	0.00031565
3182.82	0.0002596
3192.47	0.00015
3202.11	6e-05
3211.76	0.000126
3221.4	0.000168
3231.05	0.000118
3240.69	0.0002281
3250.34	0.000149
3259.98	0.0002521
3269.63	2.6e-05
3279.27	0.000145
3288.92	0.00011
3298.56	0.0002437
3308.21	0.0002164
3317.85	0.0004101
3327.49	0.000117
3337.14	0.00035431
3346.78	0.000131
3356.43	0.0002246
3366.07	4.3e-05
3375.72	0.0002504
3385.36	0.00036879
3395.01	0.0001989
3404.65	0.0002064
3414.3	0.0002096
3423.94	0.000222
3433.59	0.0002613
3443.23	0.00027639
3452.88	8.6e-05
3462.52	0.0002483
3472.17	0.0002246
3481.81	4.4e-05
3491.46	0.00030009
3501.1	0.000175
3510.75	0.00014
3520.39	0.000283796
3530.04	9.8e-05
3539.68	0.000237
3549.32	0.00030315
3558.97	0.0001856
3568.61	0.0002098
3578.26	0.0002219
3587.9	0.0002001
3597.55	0.000134
3607.19	0.00030084
3616.84	9.8e-05
3626.48	0.00032986
3636.13	0.0001936
3645.77	0.00028922
3655.42	0.00033379
3665.06	0.0002094
3674.71	0.000278146
3684.35	0.0002629
3694	0.000112
3703.64	0.0002077
3713.29	0.00026881
3722.93	0.000136
3732.58	0.00034772
3742.22	0.0002166
3751.86	0.000156
3761.51	0.0002107
3771.15	0.00027533
3780.8	0.0001933
3790.44	0.0003789
3800.09	0.00033639
3809.73	0.0004084
3819.38	0.0005478
3829.02	0.0003376
3838.67	0.00037047
3848.31	0.0005477
3857.96	0.000406
3867.6	0.0005934
3877.25	0.0006175
3886.89	0.0005099
3896.54	0.00031017
3906.18	0.0004564
3915.83	0.0002531
3925.47	0.000280951
3935.12	0.0002339
3944.76	0.0004587
3954.41	0.00034811
3964.05	0.0004238
3973.69	0.0004492
3983.34	0.0002289
3992.98	0.0004197
