Infrared Spectrum: trans-1-Ethyl-4-methylcyclohexane
Formula: C 9 H 18
CAS: 6236-88-0
State: gas
Instrument: HP-GC/MS/IRD
Origin: NIST Mass Spectrometry Data Center
1/CM	ABSORBANCE
550	0.000276
562	0.0001
574	4e-05
586	0.000144
598	0.00014
610	0.00022
622	0.000164
634	0.000232
646	0.000148
658	0.000164
670	0.000184
682	0.000164
694	0.000156
706	0.00018
718	0.000128
730	0.000208
742	0.000168
754	0.000268
766	0.00024
778	0.000324
790	0.00032
802	0.000172
814	0.000148
826	0.000196
838	0.000224
850	0.000252
862	0.000232
874	0.00044
886	0.000532
898	0.000508
910	0.000476
922	0.000372
934	0.000296
946	0.000384
958	0.0008
970	0.000832
982	0.000512
994	0.000484
1006	0.000444
1018	0.000432
1030	0.00036
1042	0.000336
1054	0.000384
1066	0.000472
1078	0.000348
1090	0.000308
1102	0.000412
1114	0.000356
1126	0.00022
1138	0.000168
1150	0.000188
1162	0.000236
1174	0.000244
1186	0.000188
1198	0.000192
1210	0.000288
1222	0.00048
1234	0.000664
1246	0.00044
1258	0.000392
1270	0.000428
1282	0.000436
1294	0.00042
1306	0.000336
1318	0.000324
1330	0.000388
1342	0.000492
1354	0.000576
1366	0.00086
1378	0.001556
1390	0.00136
1402	0.000636
1414	0.000508
1426	0.00078
1438	0.002044
1450	0.003956
1462	0.003908
1474	0.002356
1486	0.00096
1498	0.000452
1510	0.0003
1522	0.000232
1534	0.000216
1546	0.000188
1558	0.00018
1570	0.0002
1582	0.000164
1594	0.000156
1606	0.000148
1618	0.000152
1630	0.000164
1642	0.000152
1654	0.000144
1666	0.000172
1678	0.000124
1690	0.000128
1702	0.000116
1714	0.000108
1726	8e-05
1738	7.6e-05
1750	9.2e-05
1762	8.8e-05
1774	8.4e-05
1786	6.4e-05
1798	7.6e-05
1810	6e-05
1822	4e-05
1834	5.6e-05
1846	4.8e-05
1858	5.6e-05
1870	6e-05
1882	7.2e-05
1894	6.4e-05
1906	6e-05
1918	5.2e-05
1930	5.6e-05
1942	3.2e-05
1954	4.4e-05
1966	4.4e-05
1978	5.2e-05
1990	4e-05
2002	2.4e-05
2014	3.2e-05
2026	2e-05
2038	5.2e-05
2050	4.8e-05
2062	2e-05
2074	8e-06
2086	2.8e-05
2098	8e-06
2110	8e-06
2122	2e-05
2134	4e-06
2146	1.2e-05
2158	2.8e-05
2170	2.4e-05
2182	3.2e-05
2194	5.2e-05
2206	3.2e-05
2218	3.2e-05
2230	4e-05
2242	3.2e-05
2254	3.2e-05
2266	4.4e-05
2278	4.4e-05
2290	4e-05
2302	8e-06
2314	3.6e-05
2326	5.2e-05
2338	4.8e-05
2350	7.2e-05
2362	6.8e-05
2374	6e-05
2386	7.2e-05
2398	8.4e-05
2410	0.000116
2422	0.000116
2434	0.0001
2446	0.00012
2458	0.000112
2470	8.8e-05
2482	9.6e-05
2494	8e-05
2506	9.2e-05
2518	0.00014
2530	0.00014
2542	0.00016
2554	0.000168
2566	0.000188
2578	0.000208
2590	0.000268
2602	0.000304
2614	0.000376
2626	0.000424
2638	0.00042
2650	0.0005
2662	0.000484
2674	0.000476
2686	0.000508
2698	0.000504
2710	0.000468
2722	0.000544
2734	0.000632
2746	0.00066
2758	0.000668
2770	0.000692
2782	0.000812
2794	0.001048
2806	0.00132
2818	0.001764
2830	0.003056
2842	0.007908
2854	0.014324
2866	0.015096
2878	0.013776
2890	0.013588
2902	0.018676
2914	0.03218
2926	0.03962
2938	0.028808
2950	0.01898
2962	0.018656
2974	0.012908
2986	0.004856
2998	0.00192
3010	0.001184
3022	0.00092
3034	0.000812
3046	0.000728
3058	0.000728
3070	0.00066
3082	0.0006
3094	0.00054
3106	0.000508
3118	0.000468
3130	0.000472
3142	0.00052
3154	0.000524
3166	0.000468
3178	0.00036
3190	0.000244
3202	0.000176
3214	0.000168
3226	0.00016
3238	0.00016
3250	0.000156
3262	0.000192
3274	0.000128
3286	0.00012
3298	0.00012
3310	0.000128
3322	0.00016
3334	0.000108
3346	0.000132
3358	0.000124
3370	0.000124
3382	0.000152
3394	9.6e-05
3406	9.2e-05
3418	5.2e-05
3430	6.4e-05
3442	8.4e-05
3454	7.2e-05
3466	9.2e-05
3478	5.2e-05
3490	7.2e-05
3502	9.6e-05
3514	7.2e-05
3526	5.2e-05
3538	4.4e-05
3550	1.6e-05
3562	4.4e-05
3574	2.8e-05
3586	6e-05
3598	4e-05
3610	3.2e-05
3622	9.2e-05
3634	0.000116
3646	4e-05
3658	6.8e-05
3670	8e-05
3682	0.000112
3694	6.4e-05
3706	0.000104
3718	8.8e-05
3730	0.000124
3742	0.00012
3754	0.000132
3766	0.000108
3778	8.4e-05
3790	0.00014
3802	0.000116
3814	0.000132
3826	0.000152
3838	0.00012
