Infrared Spectrum: FORMAMIDE, N-(10,11-DIHYDRO-5H-DIBENZO(a,d)-CYCLOHEPTEN-5-YL)-
Formula: C16 H15 N O
CAS: 62371-00-0
State: SOLID (SPLIT MULL, FLUOROLUBE FOR 3800-1330 AND NUJOL FOR 1330-400 CM ^-^1)
Melting point: 207 C
Class: COBLENTZ III
Instrument: DOW KBr FOREPRISM-GRATING
Instrument parameters: BLAZED AT 3.5, 12.0, 20.0 MICRON, CHANGED AT 5.0, 7.5, 14.9 MICRON
Sampling: TRANSMISSION
Resolution: 4
Origin: DOW CHEMICAL COMPANY
1/CM	TRANSMITTANCE
391.101	0.851
399.883	0.854
408.665	0.861
417.448	0.866
426.23	0.869
435.012	0.866
443.794	0.866
452.576	0.885
461.359	0.87
470.141	0.877
478.923	0.902
487.705	0.913
496.487	0.92
505.27	0.918
514.052	0.913
522.834	0.918
531.616	0.923
540.398	0.925
549.181	0.923
557.963	0.916
566.745	0.932
575.527	0.929
584.31	0.928
593.092	0.905
601.874	0.902
610.656	0.896
619.438	0.942
628.221	0.76
637.003	0.962
645.785	0.98
654.567	0.989
663.349	0.991
672.132	0.995
680.914	0.984
689.696	0.932
698.478	0.94
707.26	0.828
716.043	0.887
724.825	0.891
733.607	0.842
742.389	0.747
751.171	0.697
759.954	0.8
768.736	0.791
777.518	0.784
786.3	0.821
795.082	0.861
803.865	0.885
812.647	0.899
821.429	0.906
830.211	0.887
838.993	0.896
847.776	0.912
856.558	0.906
865.34	0.92
874.122	0.923
882.905	0.914
891.687	0.894
900.469	0.896
909.251	0.91
918.033	0.91
926.816	0.903
935.598	0.89
944.38	0.84
953.162	0.894
961.944	0.89
970.727	0.881
979.509	0.894
988.291	0.898
997.073	0.895
1005.86	0.891
1014.64	0.888
1023.42	0.865
1032.2	0.872
1040.98	0.884
1049.77	0.885
1058.55	0.884
1067.33	0.89
1076.11	0.892
1084.9	0.887
1093.68	0.872
1102.46	0.88
1111.24	0.859
1120.02	0.881
1128.81	0.88
1137.59	0.875
1146.37	0.869
1155.15	0.861
1163.94	0.85
1172.72	0.851
1181.5	0.861
1190.28	0.869
1199.06	0.865
1207.85	0.859
1216.63	0.851
1225.41	0.833
1234.19	0.778
1242.97	0.674
1251.76	0.756
1260.54	0.842
1269.32	0.837
1278.1	0.789
1286.89	0.821
1295.67	0.836
1304.45	0.829
1313.23	0.836
1322.01	0.835
1330.8	0.814
1339.58	0.831
1348.36	0.875
1357.14	0.866
1365.93	0.902
1374.71	0.895
1383.49	0.859
1392.27	0.582
1401.05	0.851
1409.84	0.87
1418.62	0.864
1427.4	0.876
1436.18	0.879
1444.97	0.817
1453.75	0.821
1462.53	0.883
1471.31	0.87
1480.09	0.785
1488.88	0.73
1497.66	0.835
1506.44	0.81
1515.22	0.766
1524.01	0.723
1532.79	0.684
1541.57	0.692
1550.35	0.762
1559.13	0.875
1567.92	0.903
1576.7	0.901
1585.48	0.891
1594.26	0.87
1603.05	0.857
1611.83	0.839
1620.61	0.75
1629.39	0.684
1638.17	0.3909
1646.96	0.1961
1655.74	0.495
1664.52	0.82
1673.3	0.954
1682.09	0.971
1690.87	0.978
1699.65	0.976
1708.43	0.969
1717.21	0.976
1726	0.98
1734.78	0.984
1743.56	0.986
1752.34	0.986
1761.13	0.987
1769.91	0.986
1778.69	0.98
1787.47	0.979
1796.25	0.978
1805.04	0.98
1813.82	0.982
1822.6	0.979
1831.38	0.976
1840.16	0.979
1848.95	0.979
1857.73	0.979
1866.51	0.978
1875.29	0.975
1884.08	0.978
1892.86	0.978
1901.64	0.975
1910.42	0.969
1919.2	0.972
1927.99	0.976
1936.77	0.976
1945.55	0.971
1954.33	0.98
1963.12	0.975
1971.9	0.978
1980.68	0.973
1989.46	0.976
1998.24	0.978
2007.03	0.976
2015.81	0.976
2024.59	0.976
2033.37	0.973
2042.16	0.971
2050.94	0.969
2059.72	0.969
2068.5	0.968
2077.28	0.968
2086.07	0.967
2094.85	0.965
2103.63	0.9649
2112.41	0.9619
2121.2	0.961
2129.98	0.961
2138.76	0.962
2147.54	0.961
2156.32	0.957
2165.11	0.954
2173.89	0.953
2182.67	0.954
2191.45	0.9539
2200.24	0.9509
2209.02	0.949
2217.8	0.9459
2226.58	0.94
2235.36	0.938
2244.15	0.9358
2252.93	0.934
2261.71	0.931
2270.49	0.931
2279.28	0.929
2288.06	0.927
2296.84	0.924
2305.62	0.927
2314.4	0.923
2323.19	0.9162
2331.97	0.9274
2340.75	0.9248
2349.53	0.934
2358.32	0.935
2367.1	0.935
2375.88	0.932
2384.66	0.932
2393.44	0.9313
2402.23	0.931
2411.01	0.9313
2419.79	0.931
2428.57	0.931
2437.35	0.931
2446.14	0.9317
2454.92	0.931
2463.7	0.931
2472.48	0.931
2481.27	0.931
2490.05	0.931
2498.83	0.931
2507.61	0.929
2516.39	0.929
2525.18	0.929
2533.96	0.9286
2542.74	0.9276
2551.52	0.927
2560.31	0.9246
2569.09	0.924
2577.87	0.923
2586.65	0.921
2595.43	0.921
2604.22	0.92
2613	0.921
2621.78	0.92
2630.56	0.918
2639.35	0.9166
2648.13	0.914
2656.91	0.912
2665.69	0.909
2674.47	0.907
2683.26	0.906
2692.04	0.903
2700.82	0.905
2709.6	0.903
2718.39	0.901
2727.17	0.898
2735.95	0.8945
2744.73	0.891
2753.51	0.887
2762.3	0.883
2771.08	0.8795
2779.86	0.88
2788.64	0.881
2797.43	0.883
2806.21	0.879
2814.99	0.8685
2823.77	0.8645
2832.55	0.8694
2841.34	0.8673
2850.12	0.8553
2858.9	0.8437
2867.68	0.8083
2876.47	0.8066
2885.25	0.8326
2894.03	0.8366
2902.81	0.8436
2911.59	0.848
2920.38	0.833
2929.16	0.8122
2937.94	0.8286
2946.72	0.8543
2955.51	0.869
2964.29	0.87
2973.07	0.8667
2981.85	0.8613
2990.63	0.8533
2999.42	0.8393
3008.2	0.8187
3016.98	0.8147
3025.76	0.822
3034.54	0.8206
3043.33	0.8015
3052.11	0.7752
3060.89	0.7737
3069.67	0.79
3078.46	0.8263
3087.24	0.8427
3096.02	0.847
3104.8	0.848
3113.58	0.847
3122.37	0.844
3131.15	0.8405
3139.93	0.837
3148.71	0.833
3157.5	0.8295
3166.28	0.828
3175.06	0.8204
3183.84	0.8094
3192.62	0.7996
3201.41	0.7914
3210.19	0.778
3218.97	0.7668
3227.75	0.7507
3236.54	0.7307
3245.32	0.7022
3254.1	0.6605
3262.88	0.5924
3271.66	0.5075
3280.45	0.4053
3289.23	0.3956
3298.01	0.541
3306.79	0.7109
3315.58	0.8266
3324.36	0.8605
3333.14	0.865
3341.92	0.869
3350.7	0.8718
3359.49	0.872
3368.27	0.8691
3377.05	0.8681
3385.83	0.866
3394.62	0.8641
3403.4	0.8621
3412.18	0.8611
3420.96	0.859
3429.74	0.857
3438.53	0.854
3447.31	0.853
3456.09	0.851
3464.87	0.851
3473.66	0.848
3482.44	0.847
3491.22	0.847
3500	0.846
3508.78	0.844
3517.57	0.842
3526.35	0.842
3535.13	0.84
3543.91	0.839
3552.7	0.837
3561.48	0.833
3570.26	0.828
3579.04	0.8322
3587.82	0.8369
3596.61	0.835
3605.39	0.833
3614.17	0.831
3622.95	0.829
3631.73	0.828
3640.52	0.826
3649.3	0.826
3658.08	0.826
3666.86	0.825
3675.65	0.822
3684.43	0.82
3693.21	0.818
3701.99	0.818
3710.77	0.818
3719.56	0.818
3728.34	0.818
3737.12	0.817
3745.9	0.817
3754.69	0.815
3763.47	0.814
3772.25	0.814
3781.03	0.813
