Infrared Spectrum: Pyrimidine, 4,6-dichloro-2-ethyl-5-nitro-,
Formula: C6 H5 Cl2 N3 O2
CAS: 6237-95-2
State: LIQUID (NEAT)
Class: COBLENTZ III
Instrument: PERKIN-ELMER 21 (GRATING)
Instrument parameters: FILTER CHANGE ABOUT 1020 CM^-^1
Path length: CAPILLARY
Resolution: 2
Origin: SOUTHERN RESEARCH INSTITUTE
1/CM	TRANSMITTANCE
604.665	0.5947
613.682	0.5947
622.699	0.5956
631.716	0.5976
640.732	0.6013
649.749	0.605
658.766	0.611
667.783	0.6248
676.8	0.633
685.817	0.6444
694.833	0.6642
703.85	0.6806
712.867	0.698
721.884	0.7067
730.901	0.7114
739.918	0.743
748.934	0.7512
757.951	0.7501
766.968	0.7328
775.985	0.6903
785.002	0.6369
794.019	0.5882
803.035	0.4424
812.052	0.459
821.069	0.4046
830.086	0.1904
839.103	0.1827
848.12	0.4833
857.136	0.6184
866.153	0.6157
875.17	0.5056
884.187	0.3606
893.204	0.3799
902.221	0.7166
911.237	0.8211
920.254	0.8403
929.271	0.8466
938.288	0.8478
947.305	0.8474
956.322	0.8447
965.338	0.8391
974.355	0.8331
983.372	0.8309
992.389	0.8309
1001.41	0.8294
1010.42	0.8208
1019.44	0.829
1028.46	0.8052
1037.47	0.7703
1046.49	0.737
1055.51	0.619
1064.52	0.6116
1073.54	0.6648
1082.56	0.7172
1091.57	0.7594
1100.59	0.7934
1109.61	0.8221
1118.62	0.8369
1127.64	0.8424
1136.66	0.8439
1145.68	0.8422
1154.69	0.8324
1163.71	0.809
1172.73	0.787
1181.74	0.8083
1190.76	0.8343
1199.78	0.8354
1208.79	0.8293
1217.81	0.8191
1226.83	0.8064
1235.84	0.786
1244.86	0.7361
1253.88	0.6008
1262.89	0.4823
1271.91	0.612
1280.93	0.5574
1289.94	0.3404
1298.96	0.2079
1307.98	0.2342
1317	0.309
1326.01	0.2664
1335.03	0.2041
1344.05	0.1951
1353.06	0.2272
1362.08	0.3097
1371.1	0.4437
1380.11	0.4366
1389.13	0.4199
1398.15	0.3807
1407.16	0.5178
1416.18	0.5319
1425.2	0.4545
1434.21	0.5101
1443.23	0.5244
1452.25	0.419
1461.26	0.3686
1470.28	0.4448
1479.3	0.5482
1488.31	0.5119
1497.33	0.3688
1506.35	0.1524
1515.37	0.1192
1524.38	0.1404
1533.4	0.1248
1542.42	0.0786
1551.43	0.1128
1560.45	0.167
1569.47	0.2931
1578.48	0.4057
1587.5	0.4957
1596.52	0.5454
1605.53	0.6109
1614.55	0.7074
1623.57	0.7478
1632.58	0.7935
1641.6	0.8075
1650.62	0.8186
1659.63	0.798
1668.65	0.7572
1677.67	0.7399
1686.69	0.7945
1695.7	0.8279
1704.72	0.8157
1713.74	0.8252
1722.75	0.8343
1731.77	0.8586
1740.79	0.8712
1749.8	0.8729
1758.82	0.8732
1767.84	0.8733
1776.85	0.8721
1785.87	0.8721
1794.89	0.8721
1803.9	0.8721
1812.92	0.8721
1821.94	0.8721
1830.95	0.8721
1839.97	0.8721
1848.99	0.8721
1858.01	0.8721
1867.02	0.8721
1876.04	0.8721
1885.06	0.8721
1894.07	0.8721
1903.09	0.8718
1912.11	0.8715
1921.12	0.8714
1930.14	0.871
1939.16	0.8695
1948.17	0.8649
1957.19	0.8612
1966.21	0.862
1975.22	0.8629
1984.24	0.8644
1993.26	0.8669
2002.27	0.8717
2011.29	0.8734
2020.31	0.8727
2029.33	0.8719
2038.34	0.8707
2047.36	0.8688
2056.38	0.8663
2065.39	0.8668
2074.41	0.8697
2083.43	0.8735
2092.44	0.8771
2101.46	0.8786
2110.48	0.8785
2119.49	0.8778
2128.51	0.8771
2137.53	0.8765
2146.54	0.8757
2155.56	0.8749
2164.58	0.874
2173.59	0.8745
2182.61	0.8785
2191.63	0.8806
2200.64	0.8794
2209.66	0.8774
2218.68	0.8746
2227.7	0.8713
2236.71	0.8713
2245.73	0.8714
2254.75	0.872
2263.76	0.8727
2272.78	0.8725
2281.8	0.8723
2290.81	0.8721
2299.83	0.8719
2308.85	0.8717
2317.86	0.8716
2326.88	0.8715
2335.9	0.8715
2344.91	0.8713
2353.93	0.8699
2362.95	0.8658
2371.96	0.8597
2380.98	0.8564
2390	0.8572
2399.02	0.8519
2408.03	0.845
2417.05	0.8423
2426.07	0.8447
2435.08	0.8517
2444.1	0.8568
2453.12	0.8572
2462.13	0.855
2471.15	0.85
2480.17	0.8485
2489.18	0.8477
2498.2	0.8485
2507.22	0.8531
2516.23	0.8592
2525.25	0.8676
2534.27	0.8688
2543.28	0.8694
2552.3	0.8697
2561.32	0.8687
2570.34	0.8666
2579.35	0.863
2588.37	0.8583
2597.39	0.8543
2606.4	0.8516
2615.42	0.8501
2624.44	0.8506
2633.45	0.8536
2642.47	0.8542
2651.49	0.8536
2660.5	0.8512
2669.52	0.8477
2678.54	0.8473
2687.55	0.8462
2696.57	0.8451
2705.59	0.8441
2714.6	0.8437
2723.62	0.8438
2732.64	0.8441
2741.66	0.8457
2750.67	0.8472
2759.69	0.8438
2768.71	0.8365
2777.72	0.8287
2786.74	0.819
2795.76	0.8094
2804.77	0.7984
2813.79	0.7855
2822.81	0.7725
2831.82	0.7561
2840.84	0.7239
2849.86	0.6907
2858.87	0.6544
2867.89	0.6443
2876.91	0.6467
2885.92	0.6499
2894.94	0.6423
2903.96	0.6374
2912.97	0.6326
2921.99	0.6107
2931.01	0.6115
2940.03	0.6163
2949.04	0.608
2958.06	0.5806
2967.08	0.5429
2976.09	0.5629
2985.11	0.642
2994.13	0.7226
3003.14	0.7904
3012.16	0.82
3021.18	0.8331
3030.19	0.8365
3039.21	0.8369
3048.23	0.8377
3057.24	0.8384
3066.26	0.8385
3075.28	0.8384
3084.29	0.8415
3093.31	0.8509
3102.33	0.8547
3111.35	0.8576
3120.36	0.8603
3129.38	0.8622
3138.4	0.864
3147.41	0.8655
3156.43	0.8666
3165.45	0.867
3174.46	0.8675
3183.48	0.8681
3192.5	0.8688
3201.51	0.8697
3210.53	0.8706
3219.55	0.8714
3228.56	0.8722
3237.58	0.873
3246.6	0.8737
3255.61	0.8739
3264.63	0.874
3273.65	0.8741
3282.67	0.8742
3291.68	0.8742
3300.7	0.8743
3309.72	0.8744
3318.73	0.8745
3327.75	0.8744
3336.77	0.8744
3345.78	0.8744
3354.8	0.8741
3363.82	0.8731
3372.83	0.872
3381.85	0.8709
3390.87	0.8698
3399.88	0.8697
3408.9	0.8699
3417.92	0.87
3426.93	0.8702
3435.95	0.8705
3444.97	0.8707
3453.99	0.871
3463	0.8713
3472.02	0.8711
3481.04	0.8709
3490.05	0.8705
3499.07	0.8698
3508.09	0.8698
3517.1	0.8704
3526.12	0.871
3535.14	0.8717
3544.15	0.8721
3553.17	0.8724
3562.19	0.8728
3571.2	0.8731
3580.22	0.8734
3589.24	0.8734
3598.25	0.8734
3607.27	0.8734
3616.29	0.8734
3625.3	0.8734
3634.32	0.8734
3643.34	0.8733
3652.36	0.8733
3661.37	0.8732
3670.39	0.8731
3679.41	0.8736
3688.42	0.8745
3697.44	0.8752
3706.46	0.8757
3715.47	0.8761
3724.49	0.8778
3733.51	0.8817
3742.52	0.8826
3751.54	0.882
3760.56	0.8814
3769.57	0.8809
3778.59	0.88
3787.61	0.8791
3796.62	0.8783
3805.64	0.8778
3814.66	0.8774
3823.68	0.8783
3832.69	0.8795
3841.71	0.8802
3850.73	0.8805
3859.74	0.8807
3868.76	0.8807
3877.78	0.8808
3886.79	0.8801
3895.81	0.8787
3904.83	0.8768
