Infrared Spectrum: MELLITIC ACID, HEXAMETHYL ESTER
Formula: C18 H18 O12
CAS: 6237-59-8
State: SOLID (SPLIT MULL), FLUOROLUBE FOR 3800-1330 CM^-^1, NUJOL FOR 1330-460 CM^-^1
Class: COBLENTZ III
Instrument: DOW KBr FOREPRISM-GRATING
Instrument parameters: BLAZED AT 3.5, 12.0, 20.0 MICRON AND CHANGED AT 5.0, 7.5, 14.9 MICRON
Sampling: TRANSMISSION
Resolution: 2
Origin: DOW CHEMICAL COMPANY
1/CM	TRANSMITTANCE
457	0.7405
466	0.7495
475	0.7621
484	0.78
493	0.7864
502	0.7886
511	0.7896
520	0.7908
529	0.7921
538	0.7933
547	0.7943
556	0.7958
565	0.7941
574	0.7864
583	0.7976
592	0.7974
601	0.7388
610	0.7365
619	0.7271
628	0.7758
637	0.8047
646	0.8078
655	0.8175
664	0.8301
673	0.8534
682	0.8513
691	0.8466
700	0.8343
709	0.8003
718	0.6724
727	0.7288
736	0.7553
745	0.784
754	0.7168
763	0.7958
772	0.8108
781	0.8065
790	0.8247
799	0.7998
808	0.829
817	0.8255
826	0.7238
835	0.8084
844	0.7628
853	0.5373
862	0.7146
871	0.7999
880	0.8175
889	0.8053
898	0.7922
907	0.7968
916	0.8012
925	0.7974
934	0.7743
943	0.7686
952	0.76
961	0.7471
970	0.6128
979	0.436
988	0.586
997	0.7894
1006	0.7905
1015	0.7501
1024	0.7965
1033	0.8
1042	0.8003
1051	0.7961
1060	0.7895
1069	0.7789
1078	0.7828
1087	0.7798
1096	0.7705
1105	0.7591
1114	0.7211
1123	0.7075
1132	0.7142
1141	0.6578
1150	0.5686
1159	0.5281
1168	0.5707
1177	0.3893
1186	0.471
1195	0.476
1204	0.3766
1213	0.3103
1222	0.1884
1231	0.1242
1240	0.1528
1249	0.1552
1258	0.2219
1267	0.27
1276	0.33
1285	0.4668
1294	0.5808
1303	0.6223
1312	0.6521
1321	0.6386
1330	0.5176
1339	0.5874
1348	0.6049
1357	0.4998
1366	0.474
1375	0.7415
1384	0.7738
1393	0.7607
1402	0.7197
1411	0.4986
1420	0.7096
1429	0.666
1438	0.3616
1447	0.2833
1456	0.5079
1465	0.6945
1474	0.7797
1483	0.8076
1492	0.8156
1501	0.8212
1510	0.8237
1519	0.831
1528	0.8325
1537	0.8315
1546	0.8299
1555	0.8275
1564	0.8178
1573	0.8126
1582	0.8291
1591	0.8312
1600	0.8283
1609	0.8218
1618	0.8141
1627	0.8092
1636	0.8001
1645	0.7884
1654	0.7751
1663	0.7599
1672	0.7401
1681	0.7078
1690	0.6564
1699	0.6198
1708	0.5667
1717	0.3455
1726	0.2035
1735	0.1163
1744	0.1415
1753	0.3199
1762	0.5485
1771	0.7591
1780	0.8036
1789	0.8305
1798	0.8459
1807	0.8591
1816	0.8668
1825	0.8718
1834	0.8759
1843	0.8791
1852	0.8808
1861	0.8809
1870	0.8816
1879	0.8839
1888	0.8889
1897	0.8907
1906	0.888
1915	0.8843
1924	0.8831
1933	0.8864
1942	0.8855
1951	0.8895
1960	0.8848
1969	0.8821
1978	0.8825
1987	0.8814
1996	0.9102
2005	0.9257
2014	0.9259
2023	0.9254
2032	0.9241
2041	0.9221
2050	0.9196
2059	0.9162
2068	0.9134
2077	0.9107
2086	0.9088
2095	0.9068
2104	0.9047
2113	0.9025
2122	0.9004
2131	0.8991
2140	0.8981
2149	0.8977
2158	0.8961
2167	0.8899
2176	0.8861
2185	0.8836
2194	0.8815
2203	0.8804
2212	0.8794
2221	0.8759
2230	0.8713
2239	0.8668
2248	0.8625
2257	0.8582
2266	0.8536
2275	0.8496
2284	0.8475
2293	0.8457
2302	0.8414
2311	0.8384
2320	0.8431
2329	0.8521
2338	0.8556
2347	0.8555
2356	0.8558
2365	0.8553
2374	0.8536
2383	0.8537
2392	0.8544
2401	0.8552
2410	0.8557
2419	0.8561
2428	0.8567
2437	0.8566
2446	0.8571
2455	0.8578
2464	0.8585
2473	0.8594
2482	0.8609
2491	0.8623
2500	0.8636
2509	0.8647
2518	0.8656
2527	0.8659
2536	0.8658
2545	0.8655
2554	0.865
2563	0.8642
2572	0.8634
2581	0.862
2590	0.8601
2599	0.8586
2608	0.8591
2617	0.8593
2626	0.8593
2635	0.859
2644	0.8588
2653	0.8584
2662	0.8578
2671	0.8571
2680	0.8566
2689	0.856
2698	0.8551
2707	0.8539
2716	0.8525
2725	0.8512
2734	0.8499
2743	0.8484
2752	0.8468
2761	0.8444
2770	0.842
2779	0.8397
2788	0.8386
2797	0.8375
2806	0.8365
2815	0.8347
2824	0.8274
2833	0.8181
2842	0.8103
2851	0.8049
2860	0.8068
2869	0.8111
2878	0.8084
2887	0.8032
2896	0.7976
2905	0.7921
2914	0.7871
2923	0.7818
2932	0.7761
2941	0.7693
2950	0.7508
2959	0.6555
2968	0.7308
2977	0.8051
2986	0.8053
2995	0.796
3004	0.7803
3013	0.7753
3022	0.7854
3031	0.8015
3040	0.8071
3049	0.8131
3058	0.8162
3067	0.8167
3076	0.8162
3085	0.815
3094	0.8136
3103	0.8121
3112	0.811
3121	0.8097
3130	0.8087
3139	0.8076
3148	0.8067
3157	0.8061
3166	0.8055
3175	0.8048
3184	0.8042
3193	0.8035
3202	0.8028
3211	0.8021
3220	0.8015
3229	0.8008
3238	0.8
3247	0.7992
3256	0.7983
3265	0.7975
3274	0.7967
3283	0.7958
3292	0.7951
3301	0.7944
3310	0.7936
3319	0.7928
3328	0.7921
3337	0.7912
3346	0.7905
3355	0.7895
3364	0.7886
3373	0.7875
3382	0.786
3391	0.7843
3400	0.7822
3409	0.7794
3418	0.7765
3427	0.7721
3436	0.7669
3445	0.7611
3454	0.7615
3463	0.7671
3472	0.7732
3481	0.7771
3490	0.7783
3499	0.7782
3508	0.7778
3517	0.7772
3526	0.7765
3535	0.7751
3544	0.7738
3553	0.7724
3562	0.7703
3571	0.7618
3580	0.769
3589	0.7731
3598	0.7699
3607	0.7701
3616	0.7712
3625	0.7718
3634	0.7718
3643	0.7718
3652	0.7715
3661	0.7707
3670	0.7685
3679	0.7649
3688	0.7636
3697	0.7658
3706	0.7661
3715	0.7658
3724	0.7649
3733	0.7632
3742	0.7614
3751	0.7597
3760	0.7585
3769	0.7575
3778	0.7565
3787	0.7557
3796	0.7549
