Infrared Spectrum: Pyrimidine, 5-amino-4,6-dichloro-2-ethyl-
Formula: C6 H7 Cl2 N3
CAS: 6237-96-3
State: LIQUID (NEAT)
Class: COBLENTZ III
Instrument: PERKIN-ELMER 21 (GRATING)
Instrument parameters: FILTER CHANGE ABOUT 1090 CM^-^1
Sampling: TRANSMISSION
Path length: CAPILLARY
Resolution: 2
Origin: SOUTHERN RESEARCH INSTITUTE
1/CM	TRANSMITTANCE
606	0.4367
615.021	0.4341
624.042	0.4321
633.064	0.4338
642.085	0.448
651.106	0.454
660.127	0.4568
669.148	0.4616
678.17	0.4825
687.191	0.4871
696.212	0.4948
705.233	0.5131
714.254	0.5417
723.275	0.5599
732.297	0.5731
741.318	0.5849
750.339	0.5933
759.36	0.5938
768.381	0.581
777.403	0.5246
786.424	0.2772
795.445	0.2137
804.466	0.2046
813.487	0.319
822.509	0.5214
831.53	0.5794
840.551	0.5884
849.572	0.6205
858.593	0.6599
867.614	0.6589
876.636	0.6438
885.657	0.3694
894.678	0.3198
903.699	0.5736
912.72	0.629
921.742	0.6634
930.763	0.675
939.784	0.6816
948.805	0.6844
957.826	0.6861
966.848	0.6883
975.869	0.6859
984.89	0.6824
993.911	0.6722
1002.93	0.6719
1011.95	0.6801
1020.97	0.6771
1030	0.6625
1039.02	0.6388
1048.04	0.5879
1057.06	0.4217
1066.08	0.3431
1075.1	0.4764
1084.12	0.5638
1093.14	0.4956
1102.17	0.3746
1111.19	0.3197
1120.21	0.3496
1129.23	0.4382
1138.25	0.5286
1147.27	0.5205
1156.29	0.3691
1165.31	0.4948
1174.33	0.6288
1183.36	0.6562
1192.38	0.6618
1201.4	0.6516
1210.42	0.5638
1219.44	0.6352
1228.46	0.6951
1237.48	0.6903
1246.5	0.6851
1255.53	0.6632
1264.55	0.6363
1273.57	0.6866
1282.59	0.6886
1291.61	0.6738
1300.63	0.6774
1309.65	0.6611
1318.67	0.6309
1327.7	0.6036
1336.72	0.5233
1345.74	0.3519
1354.76	0.2838
1363.78	0.3862
1372.8	0.2639
1381.82	0.3363
1390.84	0.4704
1399.86	0.5683
1408.89	0.5647
1417.91	0.4882
1426.93	0.3371
1435.95	0.0626
1444.97	0.0108
1453.99	0.0852
1463.01	0.197
1472.03	0.1395
1481.06	0.4202
1490.08	0.4809
1499.1	0.4262
1508.12	0.1066
1517.14	0.0243
1526.16	0.2026
1535.18	0.4254
1544.2	0.519
1553.22	0.5136
1562.25	0.3946
1571.27	0.4574
1580.29	0.5208
1589.31	0.5312
1598.33	0.5157
1607.35	0.2039
1616.37	0.1261
1625.39	0.1821
1634.42	0.4197
1643.44	0.587
1652.46	0.6286
1661.48	0.6957
1670.5	0.6988
1679.52	0.7097
1688.54	0.7304
1697.56	0.7329
1706.59	0.742
1715.61	0.7346
1724.63	0.7375
1733.65	0.7436
1742.67	0.7482
1751.69	0.7527
1760.71	0.7541
1769.73	0.7534
1778.75	0.7541
1787.78	0.7549
1796.8	0.7556
1805.82	0.756
1814.84	0.7575
1823.86	0.7599
1832.88	0.7575
1841.9	0.7601
1850.92	0.761
1859.95	0.7595
1868.97	0.7585
1877.99	0.7577
1887.01	0.7571
1896.03	0.7573
1905.05	0.7579
1914.07	0.7592
1923.09	0.7612
1932.11	0.758
1941.14	0.7557
1950.16	0.7578
1959.18	0.7606
1968.2	0.7627
1977.22	0.7632
1986.24	0.7624
1995.26	0.7613
2004.28	0.7601
2013.31	0.769
2022.33	0.7699
2031.35	0.7709
2040.37	0.7719
2049.39	0.7691
2058.41	0.7655
2067.43	0.7637
2076.45	0.7661
2085.47	0.7679
2094.5	0.7686
2103.52	0.768
2112.54	0.7667
2121.56	0.7651
2130.58	0.7636
2139.6	0.7631
2148.62	0.7641
2157.64	0.7648
2166.67	0.7663
2175.69	0.7693
2184.71	0.7669
2193.73	0.766
2202.75	0.7657
2211.77	0.7659
2220.79	0.7669
2229.81	0.7675
2238.84	0.768
2247.86	0.7732
2256.88	0.7703
2265.9	0.7643
2274.92	0.7639
2283.94	0.7644
2292.96	0.7584
2301.98	0.7558
2311	0.7553
2320.03	0.7396
2329.05	0.7409
2338.07	0.7478
2347.09	0.755
2356.11	0.7591
2365.13	0.7609
2374.15	0.7615
2383.17	0.7588
2392.2	0.7533
2401.22	0.7487
2410.24	0.7453
2419.26	0.7449
2428.28	0.7502
2437.3	0.7587
2446.32	0.7553
2455.34	0.7517
2464.36	0.7503
2473.39	0.752
2482.41	0.7531
2491.43	0.7555
2500.45	0.7588
2509.47	0.7619
2518.49	0.7643
2527.51	0.7643
2536.53	0.7612
2545.56	0.757
2554.58	0.757
2563.6	0.7603
2572.62	0.758
2581.64	0.7586
2590.66	0.7627
2599.68	0.7671
2608.7	0.7642
2617.73	0.7622
2626.75	0.7604
2635.77	0.758
2644.79	0.7562
2653.81	0.7531
2662.83	0.7544
2671.85	0.7567
2680.87	0.756
2689.89	0.7498
2698.92	0.7448
2707.94	0.7398
2716.96	0.7413
2725.98	0.7461
2735	0.751
2744.02	0.7552
2753.04	0.7594
2762.06	0.7621
2771.09	0.7605
2780.11	0.755
2789.13	0.7495
2798.15	0.7459
2807.17	0.7422
2816.19	0.7355
2825.21	0.7276
2834.23	0.716
2843.25	0.7021
2852.28	0.6879
2861.3	0.6736
2870.32	0.6588
2879.34	0.6464
2888.36	0.6402
2897.38	0.6376
2906.4	0.6365
2915.42	0.6241
2924.45	0.6007
2933.47	0.5731
2942.49	0.563
2951.51	0.5708
2960.53	0.5409
2969.55	0.485
2978.57	0.4761
2987.59	0.5169
2996.62	0.6232
3005.64	0.6666
3014.66	0.6997
3023.68	0.7184
3032.7	0.7251
3041.72	0.7247
3050.74	0.7242
3059.76	0.7362
3068.78	0.7433
3077.81	0.7312
3086.83	0.7315
3095.85	0.7294
3104.87	0.722
3113.89	0.7123
3122.91	0.702
3131.93	0.6787
3140.95	0.6548
3149.98	0.634
3159	0.6159
3168.02	0.6067
3177.04	0.6009
3186.06	0.5926
3195.08	0.5819
3204.1	0.5791
3213.12	0.5772
3222.14	0.5784
3231.17	0.5938
3240.19	0.6082
3249.21	0.609
3258.23	0.602
3267.25	0.5811
3276.27	0.5516
3285.29	0.5269
3294.31	0.4997
3303.34	0.4524
3312.36	0.4128
3321.38	0.3848
3330.4	0.3601
3339.42	0.3446
3348.44	0.3407
3357.46	0.3383
3366.48	0.3344
3375.51	0.3356
3384.53	0.3437
3393.55	0.3452
3402.57	0.3568
3411.59	0.4106
3420.61	0.4796
3429.63	0.5273
3438.65	0.5323
3447.67	0.519
3456.7	0.4833
3465.72	0.4576
3474.74	0.4525
3483.76	0.4566
3492.78	0.4777
3501.8	0.5563
3510.82	0.6215
3519.84	0.656
3528.87	0.6745
3537.89	0.6857
3546.91	0.6938
3555.93	0.7053
3564.95	0.7086
3573.97	0.711
3582.99	0.7146
3592.01	0.7147
3601.03	0.717
3610.06	0.7212
3619.08	0.7256
3628.1	0.7264
3637.12	0.7248
3646.14	0.7228
3655.16	0.7204
3664.18	0.7232
3673.2	0.7332
3682.23	0.7333
3691.25	0.7309
3700.27	0.7264
3709.29	0.7248
3718.31	0.7331
3727.33	0.7378
3736.35	0.7383
3745.37	0.7387
3754.39	0.7406
3763.42	0.7427
3772.44	0.7432
3781.46	0.7411
3790.48	0.7374
3799.5	0.7323
3808.52	0.7256
3817.54	0.7245
3826.56	0.7312
3835.59	0.7351
3844.61	0.7361
3853.63	0.7359
3862.65	0.7366
3871.67	0.7381
3880.69	0.7378
3889.71	0.7368
3898.73	0.7358
3907.76	0.7352
3916.78	0.7356
3925.8	0.745
3934.82	0.7561
3943.84	0.7462
3952.86	0.7398
3961.88	0.7391
3970.9	0.7393
3979.92	0.7402
3988.95	0.741
3997.97	0.7351
4006.99	0.7306
