Infrared Spectrum: 4,5-DIAMINO-6-CHLORO-2-ETHYLPYRIMIDINE
Formula: C6 H9 Cl N4
CAS: 6237-97-4
State: SOLID (0.7 mg / 650 mg KBr DISC)
Class: COBLENTZ III
Instrument: PERKIN-ELMER 21 (GRATING)
Instrument parameters: FILTER CHANGE AT ABOUT 1020 CM^-^1
Sampling: TRANSMISSION
Resolution: 2
Origin: SOUTHERN RESEARCH INSTITUTE
1/CM	TRANSMITTANCE
606.703	0.657
615.735	0.657
624.768	0.6532
633.8	0.6492
642.832	0.6442
651.864	0.636
660.897	0.6302
669.929	0.6245
678.961	0.6126
687.993	0.5967
697.026	0.5831
706.058	0.5658
715.09	0.5701
724.122	0.6025
733.155	0.6109
742.187	0.6327
751.219	0.644
760.251	0.643
769.284	0.6284
778.316	0.55
787.348	0.6055
796.38	0.6408
805.413	0.7333
814.445	0.7423
823.477	0.744
832.509	0.7348
841.542	0.7059
850.574	0.6273
859.606	0.5506
868.638	0.4933
877.671	0.6641
886.703	0.7631
895.735	0.779
904.767	0.779
913.8	0.7753
922.832	0.7713
931.864	0.7601
940.896	0.7374
949.929	0.6901
958.961	0.6165
967.993	0.7989
977.025	0.7921
986.058	0.7777
995.09	0.7582
1004.12	0.7293
1013.15	0.7133
1022.19	0.774
1031.22	0.7759
1040.25	0.7586
1049.28	0.7442
1058.32	0.6846
1067.35	0.6654
1076.38	0.76
1085.41	0.749
1094.44	0.7331
1103.48	0.7065
1112.51	0.6705
1121.54	0.675
1130.57	0.6454
1139.61	0.5512
1148.64	0.498
1157.67	0.7136
1166.7	0.7637
1175.73	0.766
1184.77	0.762
1193.8	0.7559
1202.83	0.745
1211.86	0.7291
1220.9	0.7014
1229.93	0.6418
1238.96	0.5358
1247.99	0.5873
1257.03	0.4273
1266.06	0.4956
1275.09	0.745
1284.12	0.7083
1293.15	0.6857
1302.19	0.6553
1311.22	0.5274
1320.25	0.6778
1329.28	0.724
1338.32	0.6915
1347.35	0.6525
1356.38	0.6143
1365.41	0.6047
1374.44	0.5238
1383.48	0.614
1392.51	0.5882
1401.54	0.5416
1410.57	0.4424
1419.61	0.2584
1428.64	0.5067
1437.67	0.5695
1446.7	0.5195
1455.73	0.4271
1464.77	0.3207
1473.8	0.2524
1482.83	0.106
1491.86	0.2882
1500.9	0.5761
1509.93	0.6195
1518.96	0.5817
1527.99	0.5015
1537.02	0.3449
1546.06	0.1463
1555.09	0.1432
1564.12	0.319
1573.15	0.4919
1582.19	0.6492
1591.22	0.7899
1600.25	0.7952
1609.28	0.7275
1618.32	0.5773
1627.35	0.3725
1636.38	0.3166
1645.41	0.4627
1654.44	0.5081
1663.48	0.3069
1672.51	0.3611
1681.54	0.6723
1690.57	0.7953
1699.61	0.8933
1708.64	0.9262
1717.67	0.945
1726.7	0.968
1735.73	0.9769
1744.77	0.981
1753.8	0.981
1762.83	0.98
1771.86	0.9759
1780.9	0.9738
1789.93	0.97
1798.96	0.97
1807.99	0.967
1817.02	0.962
1826.06	0.961
1835.09	0.957
1844.12	0.9522
1853.15	0.9472
1862.19	0.9415
1871.22	0.936
1880.25	0.9303
1889.28	0.927
1898.31	0.923
1907.35	0.9184
1916.38	0.9149
1925.41	0.9085
1934.44	0.908
1943.48	0.905
1952.51	0.9006
1961.54	0.8946
1970.57	0.8907
1979.61	0.8867
1988.64	0.883
1997.67	0.8806
2006.7	0.8748
2015.73	0.87
2024.77	0.868
2033.8	0.865
2042.83	0.864
2051.86	0.86
2060.9	0.859
2069.93	0.859
2078.96	0.8568
2087.99	0.8548
2097.02	0.851
2106.06	0.85
2115.09	0.848
2124.12	0.846
2133.15	0.843
2142.19	0.839
2151.22	0.835
2160.25	0.833
2169.28	0.832
2178.31	0.832
2187.35	0.832
2196.38	0.8316
2205.41	0.829
2214.44	0.8276
2223.48	0.8208
2232.51	0.816
2241.54	0.8128
2250.57	0.811
2259.6	0.811
2268.64	0.811
2277.67	0.811
2286.7	0.808
2295.73	0.8068
2304.77	0.8028
2313.8	0.7988
2322.83	0.797
2331.86	0.794
2340.9	0.794
2349.93	0.794
2358.96	0.793
2367.99	0.791
2377.02	0.789
2386.06	0.7836
2395.09	0.779
2404.12	0.776
2413.15	0.775
2422.19	0.772
2431.22	0.77
2440.25	0.767
2449.28	0.766
2458.31	0.763
2467.35	0.76
2476.38	0.7574
2485.41	0.753
2494.44	0.751
2503.48	0.751
2512.51	0.7498
2521.54	0.746
2530.57	0.7436
2539.6	0.741
2548.64	0.741
2557.67	0.741
2566.7	0.7398
2575.73	0.737
2584.77	0.733
2593.8	0.733
2602.83	0.731
2611.86	0.726
2620.89	0.72
2629.93	0.7126
2638.96	0.7058
2647.99	0.6978
2657.02	0.689
2666.06	0.6778
2675.09	0.6698
2684.12	0.6636
2693.15	0.6578
2702.19	0.655
2711.22	0.655
2720.25	0.6546
2729.28	0.6504
2738.31	0.6448
2747.35	0.642
2756.38	0.6398
2765.41	0.639
2774.44	0.639
2783.48	0.639
2792.51	0.636
2801.54	0.634
2810.57	0.631
2819.6	0.624
2828.64	0.6098
2837.67	0.5938
2846.7	0.581
2855.73	0.5728
2864.77	0.5678
2873.8	0.5592
2882.83	0.5396
2891.86	0.523
2900.89	0.5116
2909.93	0.503
2918.96	0.502
2927.99	0.5
2937.02	0.4886
2946.06	0.485
2955.09	0.4972
2964.12	0.5156
2973.15	0.523
2982.18	0.5158
2991.22	0.5086
3000.25	0.4954
3009.28	0.4742
3018.31	0.4556
3027.35	0.4434
3036.38	0.4244
3045.41	0.4116
3054.44	0.3968
3063.48	0.386
3072.51	0.3674
3081.54	0.3371
3090.57	0.3092
3099.6	0.2856
3108.64	0.2694
3117.67	0.254
3126.7	0.253
3135.73	0.254
3144.77	0.2664
3153.8	0.29
3162.83	0.3152
3171.86	0.3386
3180.89	0.3614
3189.93	0.369
3198.96	0.3732
3207.99	0.3782
3217.02	0.3954
3226.06	0.4234
3235.09	0.4226
3244.12	0.4138
3253.15	0.3912
3262.18	0.373
3271.22	0.372
3280.25	0.372
3289.28	0.37
3298.31	0.3648
3307.35	0.3548
3316.38	0.3432
3325.41	0.3554
3334.44	0.3756
3343.47	0.386
3352.51	0.3788
3361.54	0.3632
3370.57	0.334
3379.6	0.3004
3388.64	0.293
3397.67	0.2996
3406.7	0.3154
3415.73	0.342
3424.77	0.3791
3433.8	0.4817
3442.83	0.6135
3451.86	0.6795
3460.89	0.7198
3469.93	0.7322
3478.96	0.7392
3487.99	0.744
3497.02	0.7464
3506.06	0.75
3515.09	0.754
3524.12	0.755
3533.15	0.757
3542.18	0.759
3551.22	0.762
3560.25	0.764
3569.28	0.7672
3578.31	0.7702
3587.35	0.771
3596.38	0.775
3605.41	0.776
3614.44	0.776
3623.47	0.776
3632.51	0.7758
3641.54	0.773
3650.57	0.773
3659.6	0.7718
3668.64	0.77
3677.67	0.77
3686.7	0.7678
3695.73	0.767
3704.76	0.7656
3713.8	0.7628
3722.83	0.759
3731.86	0.759
3740.89	0.759
3749.93	0.759
3758.96	0.759
3767.99	0.758
3777.02	0.758
3786.06	0.7566
3795.09	0.7526
3804.12	0.746
3813.15	0.745
3822.18	0.745
3831.22	0.745
3840.25	0.744
3849.28	0.742
3858.31	0.741
3867.35	0.741
3876.38	0.7408
3885.41	0.739
3894.44	0.735
3903.47	0.732
3912.51	0.731
3921.54	0.7288
3930.57	0.727
3939.6	0.727
3948.64	0.726
3957.67	0.722
3966.7	0.72
3975.73	0.718
3984.76	0.718
3993.8	0.718
4002.83	0.718
