Infrared Spectrum: Pyrimidine, 5-amino-6-chloro-2-ethyl-4-ethylamino-
Formula: C8 H13 Cl N4
CAS: 6237-98-5
State: SOLID (0.8 mg / 650 mg KBr DISC)
Class: COBLENTZ III
Instrument: PERKIN-ELMER 21 (GRATING)
Instrument parameters: FILTER CHANGE ABOUT 1020 CM^-^1
Sampling: TRANSMISSION
Resolution: 2
Origin: SOUTHERN RESEARCH INSTITUTE
1/CM	TRANSMITTANCE
604	0.703
613	0.7012
622	0.6982
631	0.6949
640	0.6925
649	0.6917
658	0.6923
667	0.694
676	0.7002
685	0.707
694	0.7142
703	0.7225
712	0.7332
721	0.7422
730	0.7419
739	0.7397
748	0.7343
757	0.7223
766	0.691
775	0.6227
784	0.5503
793	0.5112
802	0.5533
811	0.7211
820	0.7817
829	0.7737
838	0.6881
847	0.5387
856	0.6687
865	0.7939
874	0.8086
883	0.8077
892	0.804
901	0.7974
910	0.8206
919	0.8305
928	0.8261
937	0.81
946	0.7767
955	0.6614
964	0.6895
973	0.8266
982	0.8292
991	0.8247
1000	0.8144
1009	0.7873
1018	0.8043
1027	0.8085
1036	0.8204
1045	0.8053
1054	0.7462
1063	0.7065
1072	0.697
1081	0.6335
1090	0.5952
1099	0.5326
1108	0.4623
1117	0.3774
1126	0.2652
1135	0.5293
1144	0.6377
1153	0.6919
1162	0.7669
1171	0.771
1180	0.7654
1189	0.7543
1198	0.735
1207	0.6921
1216	0.6153
1225	0.4119
1234	0.3201
1243	0.3826
1252	0.5383
1261	0.727
1270	0.7245
1279	0.7134
1288	0.6807
1297	0.5757
1306	0.5897
1315	0.6388
1324	0.7059
1333	0.5105
1342	0.4494
1351	0.6524
1360	0.6311
1369	0.5669
1378	0.5988
1387	0.6532
1396	0.5789
1405	0.4037
1414	0.2006
1423	0.2213
1432	0.2387
1441	0.2419
1450	0.1535
1459	0.1876
1468	0.326
1477	0.3888
1486	0.3416
1495	0.2857
1504	0.5538
1513	0.6464
1522	0.6157
1531	0.4339
1540	0.3342
1549	0.1215
1558	0.0203
1567	0.0235
1576	0.0496
1585	0.0951
1594	0.2817
1603	0.4273
1612	0.553
1621	0.5383
1630	0.4456
1639	0.4327
1648	0.6405
1657	0.717
1666	0.8233
1675	0.8608
1684	0.894
1693	0.9169
1702	0.9366
1711	0.9516
1720	0.9619
1729	0.9704
1738	0.9767
1747	0.9814
1756	0.9851
1765	0.9871
1774	0.9871
1783	0.9887
1792	0.9887
1801	0.9878
1810	0.987
1819	0.986
1828	0.985
1837	0.984
1846	0.983
1855	0.9815
1864	0.9799
1873	0.9778
1882	0.9757
1891	0.974
1900	0.9723
1909	0.9696
1918	0.9673
1927	0.9656
1936	0.9648
1945	0.9633
1954	0.9618
1963	0.9602
1972	0.9585
1981	0.9569
1990	0.9552
1999	0.9536
2008	0.9526
2017	0.9518
2026	0.9509
2035	0.9499
2044	0.949
2053	0.948
2062	0.9471
2071	0.9467
2080	0.9465
2089	0.9462
2098	0.9463
2107	0.9465
2116	0.9467
2125	0.947
2134	0.9465
2143	0.9457
2152	0.9449
2161	0.944
2170	0.943
2179	0.942
2188	0.9413
2197	0.9409
2206	0.9404
2215	0.94
2224	0.9385
2233	0.9371
2242	0.9357
2251	0.9347
2260	0.9337
2269	0.9327
2278	0.9317
2287	0.9312
2296	0.9311
2305	0.931
2314	0.931
2323	0.931
2332	0.9307
2341	0.9299
2350	0.9281
2359	0.9253
2368	0.9223
2377	0.9179
2386	0.9118
2395	0.9048
2404	0.8975
2413	0.8901
2422	0.8833
2431	0.8768
2440	0.8713
2449	0.8731
2458	0.8826
2467	0.8917
2476	0.8968
2485	0.8962
2494	0.8944
2503	0.8928
2512	0.8917
2521	0.89
2530	0.8884
2539	0.887
2548	0.8857
2557	0.8829
2566	0.8784
2575	0.8773
2584	0.8786
2593	0.8797
2602	0.8802
2611	0.879
2620	0.8745
2629	0.869
2638	0.8624
2647	0.8552
2656	0.8478
2665	0.8409
2674	0.837
2683	0.8341
2692	0.8325
2701	0.832
2710	0.8316
2719	0.831
2728	0.8301
2737	0.8289
2746	0.8271
2755	0.8236
2764	0.8175
2773	0.8098
2782	0.8013
2791	0.7884
2800	0.771
2809	0.7493
2818	0.7234
2827	0.6945
2836	0.659
2845	0.6256
2854	0.6249
2863	0.6252
2872	0.6158
2881	0.5984
2890	0.5775
2899	0.5549
2908	0.5381
2917	0.5311
2926	0.4934
2935	0.4549
2944	0.4607
2953	0.512
2962	0.5914
2971	0.6756
2980	0.7024
2989	0.6997
2998	0.6944
3007	0.6922
3016	0.6938
3025	0.697
3034	0.7033
3043	0.7028
3052	0.6968
3061	0.6877
3070	0.67
3079	0.6437
3088	0.624
3097	0.6042
3106	0.5861
3115	0.5676
3124	0.5514
3133	0.5366
3142	0.5221
3151	0.5044
3160	0.4826
3169	0.457
3178	0.425
3187	0.3991
3196	0.377
3205	0.3588
3214	0.3469
3223	0.3415
3232	0.3448
3241	0.3628
3250	0.3722
3259	0.3646
3268	0.3501
3277	0.3333
3286	0.3164
3295	0.3
3304	0.2855
3313	0.2692
3322	0.2667
3331	0.2765
3340	0.3094
3349	0.3735
3358	0.4321
3367	0.4549
3376	0.4584
3385	0.4516
3394	0.4378
3403	0.4214
3412	0.4216
3421	0.4419
3430	0.5129
3439	0.571
3448	0.6545
3457	0.6805
3466	0.6988
3475	0.7128
3484	0.7234
3493	0.7341
3502	0.7449
3511	0.756
3520	0.7683
3529	0.7804
3538	0.7912
3547	0.8016
3556	0.8109
3565	0.8199
3574	0.8276
3583	0.8342
3592	0.8407
3601	0.8461
3610	0.8513
3619	0.8559
3628	0.8618
3637	0.8644
3646	0.8652
3655	0.8659
3664	0.8668
3673	0.8676
3682	0.8675
3691	0.8645
3700	0.8625
3709	0.8622
3718	0.8636
3727	0.8646
3736	0.8653
3745	0.8656
3754	0.8659
3763	0.866
3772	0.863
3781	0.8583
3790	0.8553
3799	0.8528
3808	0.8529
3817	0.8544
3826	0.8557
3835	0.8553
3844	0.8535
3853	0.8515
3862	0.8499
3871	0.8479
3880	0.8458
3889	0.8435
3898	0.8418
3907	0.8412
3916	0.8409
3925	0.841
3934	0.841
3943	0.8409
3952	0.8408
3961	0.8402
3970	0.8398
3979	0.8394
3988	0.839
3997	0.8386
