Infrared Spectrum: Dimethyl fumarate
Formula: C 6 H 8 O 4
CAS: 624-49-7
State: gas
Origin: EPA-IR VAPOR PHASE LIBRARY
1/CM	ABSORBANCE
549.8	0.000114
559.445	0.0002408
569.09	0.0004049
578.734	0.0001964
588.379	0.00034386
598.024	0.0003979
607.669	0.00032286
617.313	0.00036278
626.958	0.0007848
636.603	0.001373
646.248	0.004443
655.893	0.019543
665.537	0.030623
675.182	0.013723
684.827	0.003193
694.472	0.001513
704.116	0.0010071
713.761	0.0011708
723.406	0.001553
733.051	0.002223
742.695	0.003033
752.34	0.005623
761.985	0.009763
771.63	0.013563
781.275	0.013673
790.919	0.011193
800.564	0.008133
810.209	0.005973
819.854	0.006113
829.498	0.006933
839.143	0.009543
848.788	0.013123
858.433	0.015293
868.078	0.017093
877.722	0.017123
887.367	0.013303
897.012	0.009403
906.657	0.008353
916.301	0.008813
925.946	0.008053
935.591	0.006423
945.236	0.008073
954.88	0.014953
964.525	0.028503
974.17	0.042223
983.815	0.042683
993.46	0.032283
1003.1	0.032743
1012.75	0.064103
1022.39	0.102083
1032.04	0.116373
1041.68	0.093693
1051.33	0.038923
1060.97	0.020943
1070.62	0.015563
1080.26	0.014813
1089.91	0.013223
1099.55	0.012403
1109.2	0.013183
1118.84	0.015403
1128.49	0.022473
1138.13	0.045993
1147.78	0.146643
1157.42	0.278953
1167.07	0.231513
1176.71	0.162073
1186.36	0.101303
1196	0.082263
1205.64	0.067253
1215.29	0.087053
1224.93	0.147173
1234.58	0.159663
1244.22	0.181623
1253.87	0.310683
1263.51	0.367463
1273.16	0.266113
1282.8	0.207953
1292.45	0.274103
1302.09	0.372893
1311.74	0.262113
1321.38	0.089733
1331.03	0.042023
1340.67	0.027453
1350.32	0.021713
1359.96	0.018373
1369.61	0.015103
1379.25	0.012513
1388.9	0.010513
1398.54	0.010293
1408.18	0.013043
1417.83	0.016533
1427.47	0.029013
1437.12	0.086203
1446.76	0.078973
1456.41	0.024293
1466.05	0.018073
1475.7	0.014593
1485.34	0.011083
1494.99	0.009163
1504.63	0.008283
1514.28	0.007973
1523.92	0.007813
1533.57	0.007833
1543.21	0.007773
1552.86	0.007843
1562.5	0.007623
1572.15	0.007263
1581.79	0.006793
1591.44	0.006553
1601.08	0.006643
1610.73	0.007033
1620.37	0.008883
1630.01	0.012543
1639.66	0.019243
1649.3	0.022763
1658.95	0.019773
1668.59	0.016803
1678.24	0.013903
1687.88	0.014653
1697.53	0.020693
1707.17	0.033313
1716.82	0.058793
1726.46	0.117703
1736.11	0.251803
1745.75	0.405823
1755.4	0.385883
1765.04	0.173843
1774.69	0.066613
1784.33	0.035243
1793.98	0.023253
1803.62	0.013193
1813.27	0.007373
1822.91	0.005723
1832.55	0.005753
1842.2	0.006103
1851.84	0.005313
1861.49	0.004413
1871.13	0.004073
1880.78	0.003873
1890.42	0.003533
1900.07	0.003273
1909.71	0.003233
1919.36	0.003113
1929	0.002753
1938.65	0.002563
1948.29	0.002623
1957.94	0.002683
1967.58	0.002513
1977.23	0.002273
1986.87	0.002033
1996.52	0.002153
2006.16	0.002753
2015.81	0.003103
2025.45	0.003033
2035.1	0.002793
2044.74	0.003113
2054.38	0.003963
2064.03	0.004753
2073.67	0.005363
2083.32	0.005433
2092.96	0.005133
2102.61	0.004623
2112.25	0.003943
2121.9	0.003163
2131.54	0.002413
2141.19	0.002023
2150.83	0.001933
2160.48	0.001933
2170.12	0.001763
2179.77	0.001753
2189.41	0.001583
2199.06	0.001217
2208.7	0.0010094
2218.35	0.0011082
2227.99	0.0010862
2237.64	0.0008735
2247.28	0.0009585
2256.92	0.0009969
2266.57	0.0010073
2276.21	0.0009413
2285.86	0.0010244
2295.5	0.0009541
2305.15	0.0011144
2314.79	0.0008785
2324.44	0.0010598
2334.08	0.0009158
2343.73	0.0010222
2353.37	0.0011307
2363.02	0.0011008
2372.66	0.0009931
2382.31	0.0009048
2391.95	0.0008507
2401.6	0.0007578
2411.24	0.0008124
2420.89	0.0006672
2430.53	0.0006973
2440.18	0.0007005
2449.82	0.0006823
2459.47	0.0008141
2469.11	0.0008962
2478.75	0.0008708
2488.4	0.0009976
2498.04	0.001146
2507.69	0.001313
2517.33	0.001283
2526.98	0.0012815
2536.62	0.0010747
2546.27	0.0008603
2555.91	0.0006978
2565.56	0.0006422
2575.2	0.0006829
2584.85	0.0007117
2594.49	0.0008868
2604.14	0.0009807
2613.78	0.0008861
2623.43	0.0008091
2633.07	0.000739
2642.72	0.0007971
2652.36	0.0009591
2662.01	0.0009207
2671.65	0.000838
2681.29	0.0007184
2690.94	0.0005892
2700.58	0.0006125
2710.23	0.0005527
2719.87	0.0005257
2729.52	0.0005028
2739.16	0.0004728
2748.81	0.0005621
2758.45	0.0006027
2768.1	0.0007743
2777.74	0.0006628
2787.39	0.0007623
2797.03	0.0009766
2806.68	0.0012541
2816.32	0.001703
2825.97	0.002723
2835.61	0.004783
2845.26	0.011443
2854.9	0.014463
2864.55	0.007593
2874.19	0.005133
2883.84	0.005753
2893.48	0.008493
2903.12	0.011743
2912.77	0.013613
2922.41	0.013103
2932.06	0.012553
2941.7	0.017013
2951.35	0.040663
2960.99	0.084153
2970.64	0.054943
2980.28	0.019443
2989.93	0.017393
2999.57	0.020283
3009.22	0.021113
3018.86	0.019063
3028.51	0.017973
3038.15	0.015553
3047.8	0.011263
3057.44	0.007853
3067.09	0.006693
3076.73	0.006143
3086.38	0.005563
3096.02	0.004973
3105.67	0.004323
3115.31	0.003613
3124.95	0.002973
3134.6	0.002343
3144.24	0.001873
3153.89	0.001623
3163.53	0.001393
3173.18	0.001403
3182.82	0.0011359
3192.47	0.0010715
3202.11	0.0009223
3211.76	0.0006742
3221.4	0.0004786
3231.05	0.0005978
3240.69	0.0004273
3250.34	0.000291004
3259.98	0.00027444
3269.63	0.0005026
3279.27	0.0003894
3288.92	0.0005213
3298.56	0.00022
3308.21	0.0004091
3317.85	0.0004099
3327.49	0.0004604
3337.14	0.0005764
3346.78	0.0006537
3356.43	0.0006492
3366.07	0.0005789
3375.72	0.0007087
3385.36	0.0006723
3395.01	0.0008979
3404.65	0.0008243
3414.3	0.0005454
3423.94	0.0007204
3433.59	0.0009366
3443.23	0.0011224
3452.88	0.001433
3462.52	0.002463
3472.17	0.004133
3481.81	0.005293
3491.46	0.004853
3501.1	0.002803
3510.75	0.001673
3520.39	0.001293
3530.04	0.0008494
3539.68	0.0006217
3549.32	0.0003956
3558.97	0.00037962
3568.61	0.0002374
3578.26	0.0004048
3587.9	0.0004387
3597.55	0.0004045
3607.19	0.0003941
3616.84	0.00034465
3626.48	0.0002471
3636.13	0.000287967
3645.77	0.000266
3655.42	0.0004931
3665.06	0.00033391
3674.71	0.0002401
3684.35	0.00030032
3694	0.0002359
3703.64	0.0002093
3713.29	4.2e-05
3722.93	0.0005205
3732.58	0.0005837
3742.22	0.0003016
3751.86	0.0004128
3761.51	0.0004545
3771.15	0.0002508
3780.8	0.0004103
3790.44	0.000525
3800.09	0.0004584
3809.73	0.0005022
3819.38	0.0004595
3829.02	0.0002533
3838.67	0.0002439
3848.31	0.0004022
3857.96	0.0004538
3867.6	0.0005779
3877.25	0.0005983
3886.89	0.0005094
3896.54	0.0004922
3906.18	0.00030068
3915.83	0.0004618
3925.47	0.00037459
3935.12	0.0004961
3944.76	0.0006747
3954.41	0.0006603
3964.05	0.0007835
3973.69	0.0006029
3983.34	0.0008489
3992.98	0.0010718
