Infrared Spectrum: cis-1,4-Dimethylcyclohexane
Formula: C 8 H 16
CAS: 624-29-3
State: gas
Instrument: HP-GC/MS/IRD
Origin: NIST Mass Spectrometry Data Center
1/CM	ABSORBANCE
550	0.0006512
562	0.0001702
574	0.0002368
586	0.0001998
598	0.0001406
610	0.0001776
622	0.0003404
634	0.0005698
646	0.0005106
658	9.62e-05
670	5.92e-05
682	0.000111
694	0.0001332
706	8.14e-05
718	7.4e-05
730	0
742	9.62e-05
754	0.0002812
766	0.0001702
778	6.66e-05
790	5.92e-05
802	1.48e-05
814	9.62e-05
826	9.62e-05
838	8.88e-05
850	0.000148
862	0.0001628
874	0.0001258
886	8.14e-05
898	0.000111
910	0.0002146
922	0.0004218
934	0.0004292
946	0.0004144
958	0.0003552
970	0.00037
982	0.000555
994	0.0008658
1006	0.0008362
1018	0.0005402
1030	0.000222
1042	0.000185
1054	0.000259
1066	0.0003626
1078	0.0006586
1090	0.000925
1102	0.000814
1114	0.0004736
1126	0.0003256
1138	0.000333
1150	0.0004144
1162	0.000814
1174	0.0008288
1186	0.000481
1198	0.000259
1210	0.0001998
1222	0.0003034
1234	0.000407
1246	0.000481
1258	0.0005328
1270	0.000518
1282	0.000592
1294	0.0008732
1306	0.0008732
1318	0.0005772
1330	0.0005846
1342	0.0007326
1354	0.0014504
1366	0.0029896
1378	0.0045214
1390	0.0033818
1402	0.00148
1414	0.000888
1426	0.0014578
1438	0.0033744
1450	0.006253
1462	0.0070152
1474	0.0046102
1486	0.002035
1498	0.0007326
1510	0.0001628
1522	0.0001554
1534	0.0001776
1546	0.0001332
1558	0.000111
1570	0.0002812
1582	0.000333
1594	0.0003256
1606	0.0003108
1618	0.0002516
1630	0.0002664
1642	0.0002294
1654	0.0001406
1666	0.0001776
1678	0.0001406
1690	0.0001554
1702	8.88e-05
1714	7.4e-05
1726	0.0001406
1738	8.14e-05
1750	3.7e-05
1762	0.0001036
1774	0.000111
1786	8.88e-05
1798	8.88e-05
1810	0.0001406
1822	0.0001184
1834	0.000148
1846	9.62e-05
1858	0.0001554
1870	0.0001258
1882	0.0001628
1894	0.000148
1906	0.0001554
1918	0.0001036
1930	0.0001332
1942	0.0001258
1954	0.0001406
1966	0.0001258
1978	0.000111
1990	8.88e-05
2002	0.000111
2014	0.000111
2026	0.000111
2038	8.88e-05
2050	0.0001184
2062	0.0001184
2074	0.0001406
2086	0.0001406
2098	0.0001702
2110	0.0001406
2122	0.000148
2134	0.0001332
2146	0.0001258
2158	0.0001258
2170	0.0001554
2182	0.0001184
2194	0.000111
2206	8.88e-05
2218	9.62e-05
2230	0.0001184
2242	0.000111
2254	9.62e-05
2266	0.000111
2278	9.62e-05
2290	0.0001036
2302	8.14e-05
2314	7.4e-06
2326	0
2338	1.48e-05
2350	1.48e-05
2362	0
2374	0
2386	0.000111
2398	0.0001406
2410	0.0001406
2422	0.0001554
2434	0.000185
2446	0.0001554
2458	0.0001924
2470	0.0001702
2482	0.000148
2494	0.0001702
2506	0.000185
2518	0.000185
2530	0.000222
2542	0.0002368
2554	0.000259
2566	0.0002516
2578	0.0002738
2590	0.0003996
2602	0.0005624
2614	0.0006512
2626	0.0007326
2638	0.000814
2650	0.0008806
2662	0.000925
2674	0.0009546
2686	0.000888
2698	0.000851
2710	0.000777
2722	0.0008436
2734	0.000888
2746	0.000888
2758	0.0009472
2770	0.0010138
2782	0.0011692
2794	0.0013912
2806	0.0017168
2818	0.0022792
2830	0.0036112
2842	0.0084878
2854	0.0186332
2866	0.0246864
2878	0.0234136
2890	0.0249084
2902	0.0352758
2914	0.0580308
2926	0.074
2938	0.0541754
2950	0.036926
2962	0.0327968
2974	0.0208902
2986	0.0072372
2998	0.002442
3010	0.0014652
3022	0.0011618
3034	0.0010064
3046	0.0010138
3058	0.0010582
3070	0.001036
3082	0.001036
3094	0.0008806
3106	0.0007844
3118	0.0007104
3130	0.0007696
3142	0.0007548
3154	0.0005994
3166	0.0004736
3178	0.0003626
3190	0.0002516
3202	0.0001998
3214	0.000148
3226	8.88e-05
3238	9.62e-05
3250	0.0001036
3262	0.0002146
3274	0.0002664
3286	0.0002664
3298	0.0001924
3310	0.0001702
3322	0.0001554
3334	0.0002294
3346	0.000259
3358	0.000185
3370	0.0001628
3382	0.0001628
3394	0.0001702
3406	0.0001184
3418	8.88e-05
3430	0.000111
3442	5.18e-05
3454	8.88e-05
3466	6.66e-05
3478	9.62e-05
3490	8.88e-05
3502	7.4e-06
3514	6.66e-05
3526	0
3538	0.0001406
3550	8.88e-05
3562	7.4e-05
3574	0.0001258
3586	5.92e-05
3598	0.000111
3610	2.22e-05
3622	0.000111
3634	0.0001406
3646	0.0001332
3658	0.0002146
3670	0.0001184
3682	0.0001776
3694	0.000222
3706	0.000222
3718	0.0001924
3730	0.000111
3742	5.92e-05
3754	0.0001776
3766	0.000259
3778	0.0003034
3790	0.0003256
3802	0.0002886
3814	0.0003108
3826	0.0002812
3838	0.0003182
