Infrared Spectrum: 6-Methyl-3-heptanone
Formula: C 8 H 16 O
CAS: 624-42-0
State: gas
Instrument: HP-GC/MS/IRD
Origin: NIST Mass Spectrometry Data Center
1/CM	ABSORBANCE
550	0.0005434
562	8.93e-05
574	0
586	4.56e-05
598	3.8e-05
610	0.0001596
622	0.0002508
634	0.0001729
646	8.55e-05
658	0.0001311
670	4.94e-05
682	2.09e-05
694	6.84e-05
706	4.75e-05
718	0.0001026
730	8.17e-05
742	0.000133
754	0.0001938
766	0.0003078
778	0.0003895
790	0.0003648
802	0.0003268
814	0.0003097
826	0.0002888
838	0.0002337
850	0.0002964
862	0.0003629
874	0.0004503
886	0.0003895
898	0.0004389
910	0.0004959
922	0.0006897
934	0.0009101
946	0.0009918
958	0.0009823
970	0.0009766
982	0.0008075
994	0.0006593
1006	0.0007201
1018	0.0009956
1030	0.0013528
1042	0.0015656
1054	0.0013243
1066	0.0011153
1078	0.001045
1090	0.0016036
1102	0.0024339
1114	0.0026201
1126	0.0024092
1138	0.0024244
1150	0.0025859
1162	0.0027265
1174	0.0020558
1186	0.0012122
1198	0.001007
1210	0.0011153
1222	0.0010906
1234	0.001064
1246	0.0011305
1258	0.0013091
1270	0.0013243
1282	0.0010621
1294	0.0009196
1306	0.0011875
1318	0.0018031
1330	0.0026942
1342	0.0033212
1354	0.0032699
1366	0.0031065
1378	0.0030134
1390	0.002774
1402	0.0019722
1414	0.0018449
1426	0.0020159
1438	0.0021261
1450	0.0026258
1462	0.0033269
1474	0.0028234
1486	0.0015181
1498	0.0007866
1510	0.000399
1522	0.0002527
1534	0.0002166
1546	0.0001729
1558	0.0001197
1570	0.0001672
1582	0.0001862
1594	0.0002071
1606	0.0002185
1618	0.0001976
1630	0.0002527
1642	0.0002945
1654	0.0003059
1666	0.000513
1678	0.0008854
1690	0.0017214
1702	0.0036822
1714	0.0079135
1726	0.0116831
1738	0.0088806
1750	0.0036632
1762	0.001368
1774	0.0006726
1786	0.0003933
1798	0.0002546
1810	0.0001843
1822	0.0001292
1834	0.0001026
1846	6.27e-05
1858	7.6e-05
1870	5.89e-05
1882	5.51e-05
1894	3.04e-05
1906	4.37e-05
1918	5.32e-05
1930	4.18e-05
1942	4.18e-05
1954	3.42e-05
1966	2.28e-05
1978	3.23e-05
1990	2.47e-05
2002	4.18e-05
2014	2.85e-05
2026	2.47e-05
2038	5.51e-05
2050	3.61e-05
2062	2.85e-05
2074	1.52e-05
2086	3.23e-05
2098	3.42e-05
2110	2.85e-05
2122	3.04e-05
2134	4.37e-05
2146	3.8e-05
2158	3.99e-05
2170	4.94e-05
2182	3.99e-05
2194	2.28e-05
2206	3.8e-05
2218	5.7e-06
2230	3.42e-05
2242	4.18e-05
2254	2.47e-05
2266	2.09e-05
2278	4.18e-05
2290	6.65e-05
2302	7.03e-05
2314	0.0001026
2326	0.0001064
2338	7.98e-05
2350	9.5e-05
2362	0.0001121
2374	0.0001083
2386	7.98e-05
2398	8.17e-05
2410	5.7e-05
2422	5.7e-05
2434	7.6e-05
2446	4.94e-05
2458	5.89e-05
2470	6.27e-05
2482	8.74e-05
2494	8.93e-05
2506	5.32e-05
2518	6.08e-05
2530	6.84e-05
2542	8.36e-05
2554	9.5e-05
2566	0.0001178
2578	0.000114
2590	0.0001349
2602	0.0001786
2614	0.0001558
2626	0.0001824
2638	0.0001653
2650	0.0001976
2662	0.0001767
2674	0.0002052
2686	0.0001843
2698	0.0001976
2710	0.0002603
2722	0.000304
2734	0.0003857
2746	0.0004161
2758	0.0004446
2770	0.0004237
2782	0.0004997
2794	0.0005776
2806	0.0007828
2818	0.0009766
2830	0.0012141
2842	0.0016644
2854	0.0025726
2866	0.0042199
2878	0.0065056
2890	0.0076247
2902	0.0082422
2914	0.0094658
2926	0.0106989
2938	0.0120479
2950	0.0141512
2962	0.0187264
2974	0.0159334
2986	0.0082042
2998	0.0042389
3010	0.0022439
3022	0.001444
3034	0.0009747
3046	0.0007543
3058	0.0006403
3070	0.0005605
3082	0.0005301
3094	0.0004769
3106	0.0004484
3118	0.0004142
3130	0.0003534
3142	0.0003648
3154	0.0003933
3166	0.000323
3178	0.0003553
3190	0.000304
3202	0.0002375
3214	0.0002337
3226	0.0001729
3238	0.0001615
3250	0.0001216
3262	0.0001463
3274	0.0001463
3286	0.0001292
3298	0.0001387
3310	0.0001539
3322	0.0001881
3334	0.0001881
3346	0.0001786
3358	0.0001672
3370	0.0001444
3382	0.0001786
3394	0.0001995
3406	0.0002451
3418	0.0002812
3430	0.0003268
3442	0.0003135
3454	0.0003002
3466	0.0001976
3478	0.0001919
3490	0.0001501
3502	0.0001064
3514	0.0001178
3526	0.0001045
3538	7.79e-05
3550	8.74e-05
3562	2.47e-05
3574	7.6e-05
3586	9.88e-05
3598	7.22e-05
3610	9.69e-05
3622	0.0001235
3634	7.22e-05
3646	7.03e-05
3658	6.65e-05
3670	7.6e-05
3682	0.000114
3694	9.5e-05
3706	0.0001292
3718	0.0001311
3730	0.0001577
3742	9.88e-05
3754	0.0001064
3766	0.0001311
3778	0.0001634
3790	0.0002014
3802	0.0001425
3814	0.0001672
3826	0.0001767
3838	0.0001596
