Infrared Spectrum: 1-MONO PROPIONIN
Formula: C6 H12 O4
CAS: 624-47-5
State: LIQUID
Boiling point: 140-144 C AT 1 mmHg
Class: COBLENTZ
Instrument: Not specified, most likely a prism, grating, or hybrid spectrometer.
Sampling: TRANSMISSION
Path length: 0.0015 CM
Resolution: 4
Origin: WYANDOTTE CHEMICALS CORP., WYANDOTTE, MICHIGAN, USA
MICROMETERS	TRANSMITTANCE
2.062	0.948
2.10192	0.943
2.14184	0.918
2.18176	0.933
2.22167	0.928
2.26159	0.931
2.30151	0.925
2.34143	0.921
2.38135	0.913
2.42127	0.926
2.46119	0.935
2.5011	0.933
2.54102	0.928
2.58094	0.931
2.62086	0.911
2.66078	0.828
2.7007	0.621
2.74062	0.313
2.78053	0.129
2.82045	0.083
2.86037	0.051
2.90029	0.043
2.94021	0.041
2.98013	0.051
3.02005	0.091
3.05997	0.169
3.09988	0.274
3.1398	0.406
3.17972	0.528
3.21964	0.617
3.25956	0.523
3.29948	0.21
3.3394	0.172
3.37931	0.269
3.41923	0.29
3.45915	0.483
3.49907	0.594
3.53899	0.676
3.57891	0.709
3.61883	0.734
3.65874	0.769
3.69866	0.779
3.73858	0.799
3.7785	0.812
3.81842	0.825
3.85834	0.842
3.89826	0.847
3.93817	0.855
3.97809	0.863
4.01801	0.872
4.05793	0.878
4.09785	0.888
4.13777	0.9
4.17769	0.898
4.2176	0.908
4.25752	0.908
4.29744	0.92
4.33736	0.928
4.37728	0.93
4.4172	0.936
4.45712	0.931
4.49704	0.936
4.53695	0.943
4.57687	0.95
4.61679	0.941
4.65671	0.94
4.69663	0.933
4.73655	0.928
4.77647	0.925
4.81638	0.916
4.8563	0.918
4.89622	0.92
4.93614	0.915
4.97606	0.931
5.01598	0.921
5.0559	0.93
5.09581	0.928
5.13573	0.926
5.17565	0.933
5.21557	0.933
5.25549	0.928
5.29541	0.931
5.33533	0.926
5.37524	0.918
5.41516	0.906
5.45508	0.888
5.495	0.863
5.53492	0.822
5.57484	0.744
5.61476	0.611
5.65467	0.285
5.69459	0.038
5.73451	0.033
5.77443	0.044
5.81435	0.106
5.85427	0.403
5.89419	0.553
5.9341	0.642
5.97402	0.687
6.01394	0.725
6.05386	0.769
6.09378	0.799
6.1337	0.832
6.17362	0.848
6.21354	0.852
6.25345	0.852
6.29337	0.848
6.33329	0.832
6.37321	0.832
6.41313	0.81
6.45305	0.8
6.49297	0.782
6.53288	0.754
6.5728	0.719
6.61272	0.669
6.65264	0.554
6.69256	0.45
6.73248	0.202
6.7724	0.161
6.81231	0.235
6.85223	0.267
6.89215	0.275
6.93207	0.234
6.97199	0.21
7.01191	0.259
7.05183	0.25
7.09174	0.232
7.13166	0.184
7.17158	0.151
7.2115	0.169
7.25142	0.174
7.29134	0.157
7.33126	0.139
7.37117	0.151
7.41109	0.196
7.45101	0.204
7.49093	0.21
7.53085	0.264
7.57077	0.307
7.61069	0.299
7.6506	0.25
7.69052	0.202
7.73044	0.152
7.77036	0.134
7.81028	0.151
7.8502	0.159
7.89012	0.177
7.93004	0.179
7.96995	0.176
8.00987	0.151
8.04979	0.129
8.08971	0.102
8.12963	0.068
8.16955	0.046
8.20947	0.039
8.24938	0.038
8.2893	0.034
8.32922	0.036
8.36914	0.038
8.40906	0.038
8.44898	0.043
8.4889	0.056
8.52881	0.112
8.56873	0.204
8.60865	0.29
8.64857	0.337
8.68849	0.35
8.72841	0.307
8.76833	0.257
8.80824	0.205
8.84816	0.171
8.88808	0.142
8.928	0.139
8.96792	0.144
9.00784	0.142
9.04776	0.132
9.08767	0.096
9.12759	0.066
9.16751	0.056
9.20743	0.071
9.24735	0.078
9.28727	0.076
9.32719	0.081
9.36711	0.074
9.40702	0.066
9.44694	0.061
9.48686	0.059
9.52678	0.059
9.5667	0.066
9.60662	0.078
9.64654	0.084
9.68645	0.093
9.72637	0.116
9.76629	0.159
9.80621	0.21
9.84613	0.27
9.88605	0.318
9.92597	0.343
9.96588	0.362
10.0058	0.372
10.0457	0.37
10.0856	0.368
10.1256	0.368
10.1655	0.36
10.2054	0.377
10.2453	0.397
10.2852	0.428
10.3252	0.455
10.3651	0.49
10.405	0.509
10.4449	0.536
10.4848	0.554
10.5247	0.571
10.5647	0.559
10.6046	0.508
10.6445	0.453
10.6844	0.397
10.7243	0.36
10.7643	0.35
10.8042	0.37
10.8441	0.405
10.884	0.44
10.9239	0.463
10.9638	0.486
11.0038	0.503
11.0437	0.514
11.0836	0.533
11.1235	0.559
11.1634	0.566
11.2034	0.579
11.2433	0.584
11.2832	0.586
11.3231	0.583
11.363	0.569
11.403	0.554
11.4429	0.539
11.4828	0.529
11.5227	0.516
11.5626	0.504
11.6025	0.498
11.6425	0.495
11.6824	0.488
11.7223	0.483
11.7622	0.486
11.8021	0.496
11.8421	0.511
11.882	0.524
11.9219	0.544
11.9618	0.573
12.0017	0.591
12.0417	0.601
12.0816	0.604
12.1215	0.602
12.1614	0.598
12.2013	0.578
12.2412	0.543
12.2812	0.495
12.3211	0.433
12.361	0.41
12.4009	0.443
12.4408	0.519
12.4808	0.578
12.5207	0.621
12.5606	0.649
12.6005	0.666
12.6404	0.666
12.6803	0.667
12.7203	0.667
12.7602	0.669
12.8001	0.671
12.84	0.659
12.8799	0.662
12.9199	0.659
12.9598	0.659
12.9997	0.657
13.0396	0.649
13.0795	0.647
13.1195	0.637
13.1594	0.631
13.1993	0.622
13.2392	0.624
13.2791	0.619
13.319	0.614
13.359	0.609
13.3989	0.601
13.4388	0.591
13.4787	0.599
13.5186	0.598
13.5586	0.594
13.5985	0.584
13.6384	0.584
13.6783	0.584
13.7182	0.571
13.7582	0.571
13.7981	0.566
13.838	0.563
13.8779	0.564
13.9178	0.556
13.9577	0.554
13.9977	0.546
14.0376	0.541
14.0775	0.533
14.1174	0.526
14.1573	0.528
14.1973	0.521
14.2372	0.513
14.2771	0.506
14.317	0.503
14.3569	0.501
14.3968	0.5
14.4368	0.49
14.4767	0.485
14.5166	0.485
14.5565	0.473
14.5964	0.476
14.6364	0.466
14.6763	0.466
14.7162	0.46
14.7561	0.46
14.796	0.458
14.836	0.461
14.8759	0.47
14.9158	0.468
14.9557	0.478
14.9956	0.485
15.0355	0.5
15.0755	0.5
15.1154	0.488
15.1553	0.485
15.1952	0.485
15.2351	0.498
15.2751	0.496
15.315	0.506
15.3549	0.508
15.3948	0.506
15.4347	0.516
15.4747	0.526
15.5146	0.526
15.5545	0.534
15.5944	0.538
15.6343	0.538
15.6742	0.546
15.7142	0.558
15.7541	0.551
15.794	0.559
15.8339	0.569
15.8738	0.574
15.9138	0.583
15.9537	0.579
15.9936	0.583
