Infrared Spectrum: 9-Heptadecanol
Formula: C 17 H 36 O
CAS: 624-08-8
State: gas
Instrument: HP-GC/MS/IRD
Origin: NIST Mass Spectrometry Data Center
1/CM	ABSORBANCE
550	0.000309
562	0.0001854
574	0.0002575
586	0.0001339
598	0.0002163
610	0.0001339
622	9.27e-05
634	1.03e-05
646	0.0001442
658	5.15e-05
670	0.000206
682	0.0002266
694	0.000412
706	0.0008549
718	0.0014111
730	0.0012257
742	0.00103
754	0.0008343
766	0.0007725
778	0.0006386
790	0.0006283
802	0.0005871
814	0.0005974
826	0.0004532
838	0.0006592
850	0.0007519
862	0.0007931
874	0.000927
886	0.0010506
898	0.0012772
910	0.0014626
922	0.0016377
934	0.0018334
946	0.0018025
958	0.0018952
970	0.0023381
982	0.0030179
994	0.0039449
1006	0.0040685
1018	0.003502
1030	0.0032239
1042	0.0034917
1054	0.0040994
1066	0.00412
1078	0.0033578
1090	0.0025956
1102	0.0023999
1114	0.0024102
1126	0.0025647
1138	0.0019673
1150	0.0015553
1162	0.001545
1174	0.0017201
1186	0.0018128
1198	0.0019982
1210	0.0021115
1222	0.0023587
1234	0.0024823
1246	0.0026883
1258	0.0027501
1270	0.0026574
1282	0.0025029
1294	0.0026059
1306	0.0026471
1318	0.0024823
1330	0.0026368
1342	0.0035123
1354	0.0042539
1366	0.0045835
1378	0.0047689
1390	0.0040788
1402	0.0027913
1414	0.0021218
1426	0.0022763
1438	0.0038522
1450	0.0063139
1462	0.0082091
1474	0.0052221
1486	0.0022042
1498	0.0011948
1510	0.0008549
1522	0.0005871
1534	0.0003502
1546	0.0002987
1558	0.0002884
1570	0.0001545
1582	0.000103
1594	6.18e-05
1606	3.09e-05
1618	4.12e-05
1630	3.09e-05
1642	7.21e-05
1654	0.0001854
1666	0.000103
1678	0.0001339
1690	9.27e-05
1702	0.0001751
1714	0.0002163
1726	0.0002266
1738	0.0001751
1750	0.000103
1762	5.15e-05
1774	2.06e-05
1786	2.06e-05
1798	1.03e-05
1810	4.12e-05
1822	3.09e-05
1834	4.12e-05
1846	5.15e-05
1858	4.12e-05
1870	7.21e-05
1882	3.09e-05
1894	6.18e-05
1906	5.15e-05
1918	5.15e-05
1930	2.06e-05
1942	7.21e-05
1954	3.09e-05
1966	5.15e-05
1978	6.18e-05
1990	6.18e-05
2002	6.18e-05
2014	0.000103
2026	0.0001545
2038	0.0001442
2050	0.0001236
2062	0.0001236
2074	0.000103
2086	9.27e-05
2098	9.27e-05
2110	8.24e-05
2122	5.15e-05
2134	0.0001236
2146	0.000103
2158	0.0001236
2170	0.0001133
2182	0.000103
2194	0.0001133
2206	0.0001236
2218	0.0001442
2230	0.0001236
2242	9.27e-05
2254	0.0001236
2266	0.0001133
2278	8.24e-05
2290	0.000103
2302	7.21e-05
2314	0
2326	0
2338	0
2350	3.09e-05
2362	0
2374	1.03e-05
2386	0.0001648
2398	0.000206
2410	0.000206
2422	0.0001648
2434	0.0001545
2446	0.0001854
2458	0.0001648
2470	0.0001545
2482	0.0001854
2494	0.0001751
2506	0.0002266
2518	0.0002575
2530	0.0002987
2542	0.0003605
2554	0.0003399
2566	0.000412
2578	0.0004738
2590	0.000515
2602	0.0005974
2614	0.0006489
2626	0.0007004
2638	0.0008034
2650	0.0008858
2662	0.0010197
2674	0.0011536
2686	0.0012051
2698	0.0011124
2710	0.0011021
2722	0.0011433
2734	0.001339
2746	0.0014523
2758	0.0014832
2770	0.0016789
2782	0.0020497
2794	0.0026162
2806	0.0033681
2818	0.0046041
2830	0.0067259
2842	0.0118141
2854	0.0260281
2866	0.0388928
2878	0.0303953
2890	0.0257191
2902	0.0308794
2914	0.0495327
2926	0.0864582
2938	0.0974483
2950	0.0562689
2962	0.0396241
2974	0.0286958
2986	0.0125866
2998	0.0070349
3010	0.0046865
3022	0.0033475
3034	0.002472
3046	0.0018849
3058	0.001442
3070	0.0011742
3082	0.00103
3094	0.0009167
3106	0.0008034
3118	0.0007004
3130	0.0006283
3142	0.0005562
3154	0.000515
3166	0.0004738
3178	0.0004738
3190	0.0003811
3202	0.0003193
3214	0.0002266
3226	0.0002163
3238	0.0001442
3250	7.21e-05
3262	0.000103
3274	0.000103
3286	8.24e-05
3298	4.12e-05
3310	0.000103
3322	6.18e-05
3334	8.24e-05
3346	0.000103
3358	0.0001133
3370	0.0001442
3382	0.0001133
3394	0.0001442
3406	0.0001133
3418	0.0001339
3430	8.24e-05
3442	0.0001545
3454	9.27e-05
3466	7.21e-05
3478	6.18e-05
3490	2.06e-05
3502	7.21e-05
3514	3.09e-05
3526	4.12e-05
3538	0
3550	1.03e-05
3562	8.24e-05
3574	3.09e-05
3586	6.18e-05
3598	0.0001339
3610	0.0002884
3622	0.0005356
3634	0.0008137
3646	0.0016171
3658	0.0018643
3670	0.0007931
3682	0.000309
3694	0.0001751
3706	0.0001339
3718	0.000103
3730	8.24e-05
3742	0.0001648
3754	0.0001236
3766	0.0001133
3778	0.000103
3790	0.0001339
3802	0.0001545
3814	0.0001339
3826	0.0001751
3838	0.000206
