Infrared Spectrum: METHYLETHYLAMINE HYDROCHLORIDE
Formula: C3 H10 Cl N
CAS: 624-60-2
State: SOLID (MINERAL OIL MULL)
Class: COBLENTZ
Instrument: Not specified, most likely a prism, grating, or hybrid spectrometer.
Sampling: TRANSMISSION
Resolution: 4
Origin: WYANDOTTE CHEMICALS CORP., WYANDOTTE, MICHIGAN, USA
MICROMETERS	TRANSMITTANCE
2.014	0.948
2.05481	0.937
2.09563	0.914
2.13644	0.848
2.17726	0.785
2.21807	0.833
2.25889	0.87
2.2997	0.877
2.34052	0.908
2.38133	0.889
2.42215	0.904
2.46296	0.909
2.50378	0.916
2.54459	0.918
2.5854	0.904
2.62622	0.884
2.66703	0.823
2.70785	0.607
2.74866	0.348
2.78948	0.153
2.83029	0.076
2.87111	0.051
2.91192	0.047
2.95274	0.042
2.99355	0.051
3.03437	0.068
3.07518	0.085
3.11599	0.083
3.15681	0.071
3.19762	0.052
3.23844	0.028
3.27925	0.025
3.32007	0.022
3.36088	0.022
3.4017	0.022
3.44251	0.023
3.48333	0.023
3.52414	0.02
3.56496	0.022
3.60577	0.023
3.64658	0.023
3.6874	0.022
3.72821	0.025
3.76903	0.028
3.80984	0.052
3.85066	0.071
3.89147	0.1
3.93229	0.096
3.9731	0.068
4.01392	0.052
4.05473	0.027
4.09555	0.03
4.13636	0.068
4.17717	0.107
4.21799	0.105
4.2588	0.168
4.29962	0.256
4.34043	0.387
4.38125	0.522
4.42206	0.551
4.46288	0.552
4.50369	0.588
4.54451	0.59
4.58532	0.566
4.62614	0.613
4.66695	0.637
4.70776	0.61
4.74858	0.53
4.78939	0.571
4.83021	0.6
4.87102	0.625
4.91184	0.656
4.95265	0.695
4.99347	0.721
5.03428	0.744
5.0751	0.773
5.11591	0.782
5.15673	0.777
5.19754	0.78
5.23835	0.765
5.27917	0.685
5.31998	0.603
5.3608	0.588
5.40161	0.646
5.44243	0.661
5.48324	0.658
5.52406	0.603
5.56487	0.605
5.60569	0.658
5.6465	0.659
5.68732	0.646
5.72813	0.61
5.76895	0.545
5.80976	0.435
5.85057	0.397
5.89139	0.331
5.9322	0.295
5.97302	0.261
6.01383	0.219
6.05465	0.183
6.09546	0.187
6.13628	0.198
6.17709	0.147
6.21791	0.19
6.25872	0.255
6.29954	0.287
6.34035	0.289
6.38116	0.302
6.42198	0.289
6.46279	0.299
6.50361	0.278
6.54442	0.241
6.58524	0.204
6.62605	0.149
6.66687	0.073
6.70768	0.027
6.7485	0.035
6.78931	0.034
6.83013	0.061
6.87094	0.086
6.91175	0.117
6.95257	0.112
6.99338	0.117
7.0342	0.226
7.07501	0.251
7.11583	0.202
7.15664	0.178
7.19746	0.248
7.23827	0.306
7.27909	0.287
7.3199	0.185
7.36072	0.253
7.40153	0.355
7.44234	0.428
7.48316	0.471
7.52397	0.498
7.56479	0.406
7.6056	0.324
7.64642	0.455
7.68723	0.505
7.72805	0.537
7.76886	0.566
7.80968	0.568
7.85049	0.569
7.89131	0.581
7.93212	0.586
7.97293	0.593
8.01375	0.596
8.05456	0.596
8.09538	0.588
8.13619	0.562
8.17701	0.549
8.21782	0.539
8.25864	0.53
8.29945	0.517
8.34027	0.508
8.38108	0.51
8.4219	0.511
8.46271	0.518
8.50352	0.535
8.54434	0.562
8.58515	0.557
8.62597	0.566
8.66678	0.573
8.7076	0.573
8.74841	0.571
8.78923	0.566
8.83004	0.559
8.87086	0.552
8.91167	0.534
8.95249	0.506
8.9933	0.472
9.03411	0.447
9.07493	0.454
9.11574	0.462
9.15656	0.462
9.19737	0.437
9.23819	0.396
9.279	0.297
9.31982	0.132
9.36063	0.079
9.40145	0.139
9.44226	0.137
9.48308	0.088
9.52389	0.061
9.5647	0.062
9.60552	0.127
9.64633	0.243
9.68715	0.345
9.72796	0.413
9.76878	0.437
9.80959	0.459
9.85041	0.46
9.89122	0.425
9.93204	0.346
9.97285	0.275
10.0137	0.418
10.0545	0.496
10.0953	0.518
10.1361	0.539
10.1769	0.545
10.2177	0.54
10.2586	0.518
10.2994	0.491
10.3402	0.501
10.381	0.539
10.4218	0.569
10.4626	0.573
10.5034	0.581
10.5443	0.583
10.5851	0.583
10.6259	0.579
10.6667	0.578
10.7075	0.578
10.7483	0.571
10.7891	0.566
10.83	0.545
10.8708	0.528
10.9116	0.496
10.9524	0.44
10.9932	0.367
11.034	0.251
11.0748	0.183
11.1157	0.195
11.1565	0.253
11.1973	0.307
11.2381	0.367
11.2789	0.411
11.3197	0.447
11.3605	0.469
11.4014	0.488
11.4422	0.501
11.483	0.51
11.5238	0.515
11.5646	0.523
11.6054	0.528
11.6463	0.535
11.6871	0.544
11.7279	0.545
11.7687	0.539
11.8095	0.496
11.8503	0.506
11.8911	0.54
11.932	0.559
11.9728	0.562
12.0136	0.542
12.0544	0.515
12.0952	0.503
12.136	0.498
12.1768	0.498
12.2177	0.496
12.2585	0.471
12.2993	0.426
12.3401	0.335
12.3809	0.215
12.4217	0.115
12.4625	0.091
12.5034	0.112
12.5442	0.137
12.585	0.173
12.6258	0.212
12.6666	0.253
12.7074	0.297
12.7482	0.331
12.7891	0.348
12.8299	0.36
12.8707	0.379
12.9115	0.397
12.9523	0.408
12.9931	0.421
13.0339	0.435
13.0748	0.448
13.1156	0.454
13.1564	0.459
13.1972	0.462
13.238	0.464
13.2788	0.467
13.3196	0.472
13.3605	0.474
13.4013	0.476
13.4421	0.472
13.4829	0.471
13.5237	0.471
13.5645	0.471
13.6054	0.469
13.6462	0.467
13.687	0.462
13.7278	0.459
13.7686	0.454
13.8094	0.448
13.8502	0.445
13.8911	0.443
13.9319	0.442
13.9727	0.438
14.0135	0.431
14.0543	0.428
14.0951	0.421
14.1359	0.413
14.1768	0.408
14.2176	0.401
14.2584	0.396
14.2992	0.394
14.34	0.391
14.3808	0.391
14.4216	0.391
14.4625	0.396
14.5033	0.397
14.5441	0.394
14.5849	0.394
14.6257	0.397
14.6665	0.401
14.7073	0.396
14.7482	0.389
14.789	0.392
14.8298	0.386
14.8706	0.382
14.9114	0.377
14.9522	0.38
14.993	0.379
15.0339	0.365
15.0747	0.343
15.1155	0.331
15.1563	0.336
15.1971	0.358
15.2379	0.365
15.2788	0.37
15.3196	0.372
15.3604	0.379
15.4012	0.374
15.442	0.379
15.4828	0.38
15.5236	0.382
15.5645	0.386
15.6053	0.382
15.6461	0.387
15.6869	0.386
15.7277	0.391
15.7685	0.391
15.8093	0.396
15.8502	0.397
15.891	0.397
15.9318	0.403
15.9726	0.404
