Infrared Spectrum: 1,3-Dichloro-3-methylbutane
Formula: C 5 H 10 Cl 2
CAS: 624-96-4
State: gas
Instrument: HP-GC/MS/IRD
Origin: NIST Mass Spectrometry Data Center
1/CM	ABSORBANCE
550	0.0007032
562	0.0009544
574	0.0018856
586	0.0016864
598	0.0005856
610	0.00042
622	0.0005592
634	0.0004904
646	0.000316
658	0.0007312
670	0.001088
682	0.0005416
694	0.0004152
706	0.0003088
718	0.0004456
730	0.0009576
742	0.002208
754	0.0023944
766	0.001068
778	0.0004784
790	0.000312
802	0.0002544
814	0.00026
826	0.0003272
838	0.0006136
850	0.0006384
862	0.0003512
874	0.0001776
886	0.000216
898	0.0002656
910	0.0002584
922	0.0002608
934	0.00034
946	0.0002496
958	0.0001088
970	8.8e-06
982	0.0001504
994	0.000124
1006	8.96e-05
1018	7.12e-05
1030	8.8e-05
1042	5.44e-05
1054	9.52e-05
1066	6.56e-05
1078	0.0001896
1090	0.0007824
1102	0.0020968
1114	0.003088
1126	0.0021912
1138	0.0011656
1150	0.0012648
1162	0.0012712
1174	0.0012512
1186	0.001936
1198	0.0023304
1210	0.0018704
1222	0.0015352
1234	0.0010568
1246	0.0008208
1258	0.0012456
1270	0.0012776
1282	0.0007568
1294	0.0006424
1306	0.0007864
1318	0.0007136
1330	0.0008976
1342	0.0015104
1354	0.0016712
1366	0.0017848
1378	0.0024752
1390	0.0020248
1402	0.0011264
1414	0.0005552
1426	0.0007
1438	0.0013272
1450	0.0023392
1462	0.0024504
1474	0.0015656
1486	0.0007184
1498	0.0003248
1510	0.000256
1522	0.000228
1534	0.0001944
1546	0.0001552
1558	0.0001784
1570	0.0001216
1582	0.000116
1594	7.76e-05
1606	4.24e-05
1618	6.88e-05
1630	6.16e-05
1642	7.28e-05
1654	8.88e-05
1666	4.8e-05
1678	3.76e-05
1690	5.52e-05
1702	6.72e-05
1714	6.4e-05
1726	2.56e-05
1738	4.32e-05
1750	2.32e-05
1762	7.12e-05
1774	4.56e-05
1786	7.6e-05
1798	4.96e-05
1810	7.04e-05
1822	6.4e-05
1834	8.16e-05
1846	6.08e-05
1858	7.12e-05
1870	6.56e-05
1882	6e-05
1894	5.68e-05
1906	4.64e-05
1918	4.48e-05
1930	4.64e-05
1942	4.48e-05
1954	8.32e-05
1966	4.88e-05
1978	6.64e-05
1990	6.96e-05
2002	6.16e-05
2014	6.56e-05
2026	5.12e-05
2038	6.24e-05
2050	4.96e-05
2062	7.68e-05
2074	3.92e-05
2086	9.04e-05
2098	8.16e-05
2110	5.12e-05
2122	4e-05
2134	4.96e-05
2146	5.92e-05
2158	6.96e-05
2170	5.44e-05
2182	8.08e-05
2194	7.04e-05
2206	7.92e-05
2218	4.72e-05
2230	4.4e-05
2242	4.88e-05
2254	4.72e-05
2266	5.68e-05
2278	2.16e-05
2290	3.52e-05
2302	5.6e-05
2314	6.4e-05
2326	5.36e-05
2338	4.64e-05
2350	4e-05
2362	3.04e-05
2374	4.96e-05
2386	5.28e-05
2398	5.2e-05
2410	5.28e-05
2422	4.4e-05
2434	4.4e-05
2446	2.24e-05
2458	3.84e-05
2470	1.2e-05
2482	2.96e-05
2494	6.08e-05
2506	4e-05
2518	5.6e-05
2530	4.8e-05
2542	3.52e-05
2554	4.08e-05
2566	8.08e-05
2578	3.44e-05
2590	6.64e-05
2602	4.8e-05
2614	6.72e-05
2626	5.2e-05
2638	6.4e-05
2650	3.76e-05
2662	4.4e-05
2674	5.36e-05
2686	9.44e-05
2698	6.24e-05
2710	9.76e-05
2722	0.0001248
2734	0.0001544
2746	0.0001576
2758	8.56e-05
2770	9.28e-05
2782	0.0001112
2794	0.0001576
2806	0.0001744
2818	0.0002512
2830	0.0003568
2842	0.0004432
2854	0.0006464
2866	0.0010016
2878	0.001344
2890	0.001572
2902	0.0017888
2914	0.0023664
2926	0.0034944
2938	0.0041216
2950	0.0034528
2962	0.0033736
2974	0.005804
2986	0.008
2998	0.0059664
3010	0.0024624
3022	0.001084
3034	0.0005
3046	0.000296
3058	0.0002344
3070	0.0002496
3082	0.000228
3094	0.0002608
3106	9.52e-05
3118	0.0001376
3130	0.000172
3142	9.04e-05
3154	0.0001576
3166	0.000104
3178	0.0001368
3190	0.0001432
3202	0.0001856
3214	0.0001432
3226	0.0001952
3238	0.000172
3250	0.000172
3262	0.0001784
3274	0.0001832
3286	0.0001008
3298	0.0001152
3310	0.0001136
3322	0.000116
3334	0.000108
3346	0.0001032
3358	0.0001248
3370	7.76e-05
3382	8.32e-05
3394	0.0001448
3406	0.0001312
3418	0.0001256
3430	9.04e-05
3442	0.0001136
3454	7.84e-05
3466	0.0001024
3478	9.84e-05
3490	0.0001528
3502	5.52e-05
3514	7.04e-05
3526	0.0001128
3538	0.000128
3550	0.0001792
3562	0.000112
3574	0.0001104
3586	0.000112
3598	0.0001048
3610	0.0001352
3622	0.0001504
3634	9.68e-05
3646	8.8e-05
3658	0.0001344
3670	0.0001768
3682	1.76e-05
3694	0.0001304
3706	0.0001096
3718	0.000124
3730	9.68e-05
3742	0.0001592
3754	0.0001432
3766	9.68e-05
3778	3.84e-05
3790	9.28e-05
3802	7.44e-05
3814	0.0001232
3826	9.68e-05
3838	7.28e-05
