Infrared Spectrum: 3-Nonanol
Formula: C 9 H 20 O
CAS: 624-51-1
State: gas
Instrument: HP-GC/MS/IRD
Origin: NIST Mass Spectrometry Data Center
1/CM	ABSORBANCE
550	0.0002166
562	0.0001824
574	0.0003192
586	0.0002622
598	0.0001254
610	3.8e-06
622	0.0001292
634	0.000152
646	0.0001064
658	9.12e-05
670	0.0001102
682	0.000133
694	9.88e-05
706	0.000342
718	0.000456
730	0.0004788
742	0.0004256
754	0.0003572
766	0.0003876
778	0.0004332
790	0.0004028
802	0.000304
814	0.0003116
826	0.0001672
838	0.0005282
850	0.0006688
862	0.000779
874	0.0008284
886	0.001007
898	0.0010298
910	0.0011476
922	0.0013376
934	0.001805
946	0.0024776
958	0.0035036
970	0.0040736
982	0.00361
994	0.0032262
1006	0.0031084
1018	0.0028956
1030	0.0027284
1042	0.0025308
1054	0.0025118
1066	0.0023902
1078	0.002394
1090	0.0026524
1102	0.0028424
1114	0.0028766
1126	0.0029336
1138	0.0025042
1150	0.001729
1162	0.001387
1174	0.001387
1186	0.0015428
1198	0.0017442
1210	0.002071
1222	0.0023408
1234	0.0024282
1246	0.0022306
1258	0.0020596
1270	0.0019152
1282	0.0018316
1294	0.0017974
1306	0.0017404
1318	0.0015922
1330	0.0016302
1342	0.0019418
1354	0.0023978
1366	0.0029374
1378	0.0033896
1390	0.0032604
1402	0.002185
1414	0.0015314
1426	0.0015162
1438	0.0021394
1450	0.0033098
1462	0.004256
1474	0.0032376
1486	0.0015466
1498	0.0008208
1510	0.000551
1522	0.0003762
1534	0.000285
1546	0.0002508
1558	0.0001938
1570	0.0001786
1582	0.0001634
1594	0.0001482
1606	0.0001292
1618	8.74e-05
1630	9.12e-05
1642	0.0001026
1654	1.9e-05
1666	7.98e-05
1678	8.36e-05
1690	6.46e-05
1702	1.9e-05
1714	3.04e-05
1726	4.94e-05
1738	1.14e-05
1750	5.7e-05
1762	4.18e-05
1774	3.8e-05
1786	6.46e-05
1798	1.9e-05
1810	3.04e-05
1822	4.18e-05
1834	4.56e-05
1846	2.66e-05
1858	4.18e-05
1870	3.8e-05
1882	1.52e-05
1894	1.9e-05
1906	4.18e-05
1918	2.28e-05
1930	2.28e-05
1942	2.28e-05
1954	1.9e-05
1966	2.28e-05
1978	3.8e-05
1990	1.52e-05
2002	1.9e-05
2014	3.04e-05
2026	4.56e-05
2038	3.04e-05
2050	3.8e-05
2062	2.66e-05
2074	4.18e-05
2086	2.66e-05
2098	2.66e-05
2110	1.9e-05
2122	1.52e-05
2134	2.66e-05
2146	3.04e-05
2158	2.66e-05
2170	3.8e-05
2182	4.18e-05
2194	1.9e-05
2206	1.14e-05
2218	4.18e-05
2230	3.8e-05
2242	2.66e-05
2254	5.32e-05
2266	4.94e-05
2278	6.84e-05
2290	6.46e-05
2302	5.7e-05
2314	6.08e-05
2326	6.46e-05
2338	7.22e-05
2350	9.12e-05
2362	5.7e-05
2374	9.5e-05
2386	9.5e-05
2398	0.0001064
2410	9.5e-05
2422	9.88e-05
2434	7.6e-05
2446	8.74e-05
2458	0.0001026
2470	7.98e-05
2482	7.98e-05
2494	5.32e-05
2506	7.98e-05
2518	0.0001064
2530	0.0001178
2542	0.0001368
2554	0.0001558
2566	0.0001748
2578	0.0002318
2590	0.0002584
2602	0.0002774
2614	0.0003268
2626	0.0003192
2638	0.0003838
2650	0.0004446
2662	0.0004978
2674	0.0005358
2686	0.00057
2698	0.0005586
2710	0.00057
2722	0.0006042
2734	0.0007182
2746	0.0008056
2758	0.0008208
2770	0.0009006
2782	0.0010602
2794	0.0012768
2806	0.0016036
2818	0.0021204
2830	0.0030856
2842	0.0053086
2854	0.0102296
2866	0.0150822
2878	0.0155534
2890	0.0141056
2902	0.0141968
2914	0.0205238
2926	0.0325014
2938	0.037829
2950	0.0279376
2962	0.0232712
2974	0.0214016
2986	0.0102752
2998	0.0048108
3010	0.0028082
3022	0.0019836
3034	0.0014744
3046	0.0011248
3058	0.0009158
3070	0.000836
3082	0.0007486
3094	0.0006346
3106	0.0005662
3118	0.0004788
3130	0.0003952
3142	0.0003686
3154	0.0003002
3166	0.0003116
3178	0.0002622
3190	0.0002166
3202	0.0001482
3214	0.0001292
3226	7.6e-05
3238	6.84e-05
3250	8.36e-05
3262	1.52e-05
3274	6.84e-05
3286	5.7e-05
3298	3.8e-05
3310	4.18e-05
3322	5.32e-05
3334	6.84e-05
3346	6.84e-05
3358	4.18e-05
3370	1.9e-05
3382	5.32e-05
3394	0.0001102
3406	6.08e-05
3418	7.6e-05
3430	6.46e-05
3442	0.0001064
3454	0.000114
3466	0.0001292
3478	8.74e-05
3490	4.18e-05
3502	6.84e-05
3514	3.42e-05
3526	2.28e-05
3538	2.66e-05
3550	3.8e-05
3562	5.7e-05
3574	0
3586	0.0001064
3598	7.22e-05
3610	0.00019
3622	0.00038
3634	0.0007068
3646	0.0012616
3658	0.0016226
3670	0.0008968
3682	0.0003762
3694	0.000171
3706	0.0001178
3718	8.74e-05
3730	1.9e-05
3742	3.04e-05
3754	6.08e-05
3766	6.46e-05
3778	5.7e-05
3790	8.74e-05
3802	3.8e-05
3814	8.36e-05
3826	7.22e-05
3838	6.84e-05
