Infrared Spectrum: Diethyl azelate
Formula: C 13 H 24 O 4
CAS: 624-17-9
State: gas
Origin: EPA-IR VAPOR PHASE LIBRARY
1/CM	ABSORBANCE
549.9	0.0020512
559.547	0.0021066
569.193	0.002432
578.84	0.0026891
588.486	0.00298
598.133	0.00348
607.779	0.00324
617.426	0.00316
627.072	0.00301
636.719	0.00316
646.365	0.00298
656.012	0.0025315
665.658	0.0022073
675.305	0.0022376
684.951	0.0024437
694.598	0.0028524
704.245	0.00346
713.891	0.00423
723.538	0.00507
733.184	0.00529
742.831	0.00481
752.477	0.00471
762.124	0.00515
771.77	0.00591
781.417	0.00636
791.063	0.00648
800.71	0.00624
810.356	0.00592
820.003	0.00589
829.649	0.0063
839.296	0.00754
848.943	0.00899
858.589	0.00927
868.236	0.00782
877.882	0.00668
887.529	0.00619
897.175	0.00667
906.822	0.00781
916.468	0.00952
926.115	0.01014
935.761	0.00934
945.408	0.00786
955.054	0.00661
964.701	0.00599
974.347	0.00612
983.994	0.00692
993.64	0.00903
1003.29	0.01359
1012.93	0.02305
1022.58	0.03887
1032.23	0.05786
1041.87	0.06277
1051.52	0.04906
1061.17	0.0425
1070.81	0.04459
1080.46	0.05166
1090.11	0.05979
1099.75	0.06636
1109.4	0.06031
1119.05	0.06114
1128.69	0.07807
1138.34	0.10709
1147.99	0.13917
1157.63	0.16867
1167.28	0.18513
1176.92	0.18174
1186.57	0.16316
1196.22	0.14076
1205.86	0.12472
1215.51	0.11664
1225.16	0.11602
1234.8	0.1187
1244.45	0.11588
1254.1	0.09794
1263.74	0.07563
1273.39	0.06027
1283.04	0.05265
1292.68	0.04929
1302.33	0.04977
1311.98	0.04833
1321.62	0.04361
1331.27	0.04041
1340.92	0.04257
1350.56	0.04242
1360.21	0.03855
1369.86	0.052
1379.5	0.04354
1389.15	0.02587
1398.79	0.01983
1408.44	0.01696
1418.09	0.01831
1427.73	0.02296
1437.38	0.02551
1447.03	0.02726
1456.67	0.03174
1466.32	0.03097
1475.97	0.02216
1485.61	0.0134
1495.26	0.0088
1504.91	0.00644
1514.55	0.00505
1524.2	0.00442
1533.85	0.00407
1543.49	0.00385
1553.14	0.0035
1562.79	0.00335
1572.43	0.00324
1582.08	0.00311
1591.73	0.00302
1601.37	0.00301
1611.02	0.00305
1620.67	0.0031
1630.31	0.00326
1639.96	0.00348
1649.6	0.00385
1659.25	0.00435
1668.9	0.00529
1678.54	0.0067
1688.19	0.00919
1697.84	0.01369
1707.48	0.02122
1717.13	0.0344
1726.78	0.0621
1736.42	0.12432
1746.07	0.22505
1755.72	0.25888
1765.36	0.15238
1775.01	0.06812
1784.66	0.03115
1794.3	0.01698
1803.95	0.01058
1813.6	0.00735
1823.24	0.00566
1832.89	0.00449
1842.54	0.00388
1852.18	0.0034
1861.83	0.00318
1871.47	0.00315
1881.12	0.00316
1890.77	0.00311
1900.41	0.00294
1910.06	0.002804
1919.71	0.0027772
1929.35	0.0027127
1939	0.0026837
1948.65	0.0026473
1958.29	0.0025768
1967.94	0.0025137
1977.59	0.0023938
1987.23	0.0024542
1996.88	0.0024791
2006.53	0.0025242
2016.17	0.0025636
2025.82	0.0025582
2035.47	0.0024118
2045.11	0.0023562
2054.76	0.0022295
2064.41	0.0021155
2074.05	0.0020594
2083.7	0.00198425
2093.35	0.0018588
2102.99	0.001672
2112.64	0.001491
2122.28	0.001419
2131.93	0.00134
2141.58	0.001211
2151.22	0.0012
2160.87	0.001125
2170.52	0.001084
2180.16	0.001039
2189.81	0.001008
2199.46	0.001069
2209.1	0.00105
2218.75	0.00112
2228.4	0.001105
2238.04	0.001092
2247.69	0.001064
2257.34	0.001108
2266.98	0.001106
2276.63	0.001128
2286.28	0.001173
2295.92	0.001193
2305.57	0.001317
2315.22	0.001314
2324.86	0.00134
2334.51	0.001387
2344.16	0.001253
2353.8	0.00124
2363.45	0.001229
2373.09	0.001143
2382.74	0.001183
2392.39	0.001067
2402.03	0.000989
2411.68	0.001011
2421.33	0.000998
2430.97	0.000956
2440.62	0.00088
2450.27	0.00083
2459.91	0.0008
2469.56	0.00076
2479.21	0.00075
2488.85	0.00065
2498.5	0.00064
2508.15	0.00061
2517.79	0.00062
2527.44	0.00066
2537.09	0.00065
2546.73	0.00062
2556.38	0.00056
2566.03	0.00059
2575.67	0.00057
2585.32	0.00061
2594.96	0.00069
2604.61	0.00078
2614.26	0.00078
2623.9	0.00083
2633.55	0.00086
2643.2	0.00089
2652.84	0.00101
2662.49	0.001131
2672.14	0.001313
2681.78	0.001344
2691.43	0.001423
2701.08	0.001334
2710.72	0.001289
2720.37	0.001356
2730.02	0.001368
2739.66	0.001502
2749.31	0.001682
2758.96	0.00197346
2768.6	0.0022997
2778.25	0.0026455
2787.9	0.00294
2797.54	0.00341
2807.19	0.00417
2816.84	0.00541
2826.48	0.00709
2836.13	0.00949
2845.77	0.01443
2855.42	0.02859
2865.07	0.04707
2874.71	0.04483
2884.36	0.03616
2894.01	0.03372
2903.65	0.04241
2913.3	0.063
2922.95	0.08956
2932.59	0.1229
2942.24	0.14209
2951.89	0.11513
2961.53	0.08393
2971.18	0.07558
2980.83	0.08413
2990.47	0.07339
3000.12	0.04645
3009.77	0.02968
3019.41	0.01801
3029.06	0.01106
3038.71	0.00722
3048.35	0.00501
3058	0.00373
3067.64	0.0027307
3077.29	0.002442
3086.94	0.00199773
3096.58	0.001792
3106.23	0.001668
3115.88	0.001509
3125.52	0.001306
3135.17	0.001089
3144.82	0.000912
3154.46	0.00083
3164.11	0.00081
3173.76	0.00087
3183.4	0.00056
3193.05	0.00062
3202.7	0.00045
3212.34	0.00032
3221.99	0.00035
3231.64	0.00016
3241.28	9e-05
3250.93	8e-05
3260.58	7e-05
3270.22	0.00012
3279.87	2e-05
3289.52	0.00018
3299.16	0.00012
3308.81	0.00015
3318.45	0.00019
3328.1	0.00032
3337.75	0.00032
3347.39	0.00022
3357.04	0.00035
3366.69	0.00038
3376.33	0.00066
3385.98	0.00055
3395.63	0.00054
3405.27	0.00059
3414.92	0.00083
3424.57	0.00072
3434.21	0.00083
3443.86	0.001033
3453.51	0.001301
3463.15	0.001717
3472.8	0.0025201
3482.45	0.00309
3492.09	0.00307
3501.74	0.0020363
3511.39	0.001456
3521.03	0.001118
3530.68	0.000996
3540.33	0.00074
3549.97	0.00078
3559.62	0.0007
3569.26	0.00091
3578.91	0.00081
3588.56	0.001062
3598.2	0.0009
3607.85	0.000978
3617.5	0.00089
3627.14	0.000935
3636.79	0.00082
3646.44	0.000967
3656.08	0.00086
3665.73	0.000928
3675.38	0.001054
3685.02	0.0007
3694.67	0.0009
3704.32	0.0009
3713.96	0.00079
3723.61	0.00079
3733.26	0.00091
3742.9	0.001068
3752.55	0.001109
3762.2	0.001054
3771.84	0.001011
3781.49	0.000999
3791.13	0.001009
3800.78	0.001049
3810.43	0.000948
3820.07	0.001031
3829.72	0.000956
3839.37	0.001111
3849.01	0.000918
3858.66	0.001047
3868.31	0.001079
3877.95	0.000914
3887.6	0.000995
3897.25	0.00088
3906.89	0.00082
3916.54	0.00086
3926.19	0.00089
3935.83	0.001023
3945.48	0.00106
3955.13	0.000994
3964.77	0.001014
3974.42	0.001002
3984.07	0.001013
3993.71	0.001129
