Infrared Spectrum: (+)-2-Aminoheptane
Formula: C 7 H 17 N
CAS: 6240-90-0
State: gas
Origin: EPA-IR VAPOR PHASE LIBRARY
1/CM	ABSORBANCE
549.8	0.001851
559.445	0.002291
569.09	0.002111
578.734	0.001861
588.379	0.002351
598.024	0.002281
607.669	0.0017925
617.313	0.001901
626.958	0.002521
636.603	0.002271
646.248	0.002231
655.893	0.003041
665.537	0.003091
675.182	0.003561
684.827	0.003461
694.472	0.004001
704.116	0.004001
713.761	0.005231
723.406	0.006381
733.051	0.007351
742.695	0.008671
752.34	0.010071
761.985	0.011611
771.63	0.013911
781.275	0.016081
790.919	0.015321
800.564	0.012171
810.209	0.009631
819.854	0.007071
829.498	0.006101
839.143	0.005301
848.788	0.004921
858.433	0.004551
868.078	0.003591
877.722	0.003141
887.367	0.002641
897.012	0.002131
906.657	0.002851
916.301	0.002571
925.946	0.002341
935.591	0.002501
945.236	0.002421
954.88	0.001891
964.525	0.002481
974.17	0.002571
983.815	0.002381
993.46	0.002091
1003.1	0.002721
1012.75	0.002791
1022.39	0.0017276
1032.04	0.002371
1041.68	0.003381
1051.33	0.002721
1060.97	0.003541
1070.62	0.003461
1080.26	0.002621
1089.91	0.003351
1099.55	0.003321
1109.2	0.003551
1118.84	0.004901
1128.49	0.003671
1138.13	0.006031
1147.78	0.007081
1157.42	0.004201
1167.07	0.003581
1176.71	0.002631
1186.36	0.002221
1196	0.001828
1205.64	0.000685
1215.29	0.001971
1224.93	0.002251
1234.58	0.0007951
1244.22	0.0015737
1253.87	0.0009929
1263.51	0.002531
1273.16	0.001971
1282.8	0.001891
1292.45	0.002081
1302.09	0.002811
1311.74	0.003031
1321.38	0.003441
1331.03	0.004561
1340.67	0.005231
1350.32	0.006151
1359.96	0.006541
1369.61	0.008071
1379.25	0.009221
1388.9	0.007421
1398.54	0.004701
1408.18	0.003601
1417.83	0.003031
1427.47	0.003541
1437.12	0.004811
1446.76	0.006811
1456.41	0.008511
1466.05	0.008381
1475.7	0.006491
1485.34	0.004441
1494.99	0.003201
1504.63	0.002741
1514.28	0.002501
1523.92	0.002241
1533.57	0.002391
1543.21	0.002071
1552.86	0.002421
1562.5	0.002471
1572.15	0.002231
1581.79	0.002731
1591.44	0.003311
1601.08	0.004821
1610.73	0.005971
1620.37	0.006401
1630.01	0.005731
1639.66	0.004321
1649.3	0.002821
1658.95	0.002131
1668.59	0.0017505
1678.24	0.00153
1687.88	0.0013162
1697.53	0.0013252
1707.17	0.0013022
1716.82	0.0013792
1726.46	0.0013276
1736.11	0.0010534
1745.75	0.0012258
1755.4	0.0012431
1765.04	0.001211
1774.69	0.0008954
1784.33	0.0011447
1793.98	0.0011188
1803.62	0.0012598
1813.27	0.0010687
1822.91	0.0010101
1832.55	0.0009988
1842.2	0.0012742
1851.84	0.0012405
1861.49	0.0010747
1871.13	0.0012083
1880.78	0.0011888
1890.42	0.0010864
1900.07	0.0011507
1909.71	0.0012007
1919.36	0.0011502
1929	0.0011442
1938.65	0.0010894
1948.29	0.0010892
1957.94	0.0010672
1967.58	0.00094704
1977.23	0.0010383
1986.87	0.0011552
1996.52	0.0011235
2006.16	0.0010452
2015.81	0.0010078
2025.45	0.0012556
2035.1	0.0010584
2044.74	0.0010546
2054.38	0.0010473
2064.03	0.0010502
2073.67	0.0011823
2083.32	0.0010547
2092.96	0.0011011
2102.61	0.0010886
2112.25	0.001106
2121.9	0.0008187
2131.54	0.0012582
2141.19	0.000799
2150.83	0.0011415
2160.48	0.001106
2170.12	0.0007823
2179.77	0.0010181
2189.41	0.0009727
2199.06	0.001238
2208.7	0.0012777
2218.35	0.0013767
2227.99	0.0013379
2237.64	0.0010902
2247.28	0.0012753
2256.92	0.000851862
2266.57	0.0010714
2276.21	0.0012339
2285.86	0.0009782
2295.5	0.0012372
2305.15	0.0011495
2314.79	0.0011961
2324.44	0.0013054
2334.08	0.0010758
2343.73	0.0010345
2353.37	0.001039
2363.02	0.0011158
2372.66	0.0010918
2382.31	0.0010076
2391.95	0.0011749
2401.6	0.0011324
2411.24	0.0011702
2420.89	0.0013167
2430.53	0.0011586
2440.18	0.0013805
2449.82	0.0011987
2459.47	0.0012311
2469.11	0.0012159
2478.75	0.0011862
2488.4	0.0013566
2498.04	0.0011304
2507.69	0.0013263
2517.33	0.0012719
2526.98	0.0015097
2536.62	0.0012114
2546.27	0.0015741
2555.91	0.0015272
2565.56	0.0012784
2575.2	0.0014737
2584.85	0.0013097
2594.49	0.0017118
2604.14	0.001951
2613.78	0.0018489
2623.43	0.002001
2633.07	0.0018197
2642.72	0.002301
2652.36	0.001941
2662.01	0.002281
2671.65	0.002331
2681.29	0.002441
2690.94	0.002091
2700.58	0.002641
2710.23	0.002001
2719.87	0.002651
2729.52	0.002431
2739.16	0.003041
2748.81	0.002761
2758.45	0.002681
2768.1	0.003191
2777.74	0.003131
2787.39	0.003531
2797.03	0.004201
2806.68	0.004821
2816.32	0.005701
2825.97	0.007541
2835.61	0.010521
2845.26	0.015651
2854.9	0.022431
2864.55	0.027521
2874.19	0.029751
2883.84	0.029401
2893.48	0.028451
2903.12	0.032951
2912.77	0.044251
2922.41	0.057781
2932.06	0.066961
2941.7	0.061141
2951.35	0.052331
2960.99	0.055011
2970.64	0.051131
2980.28	0.032351
2989.93	0.016081
2999.57	0.008561
3009.22	0.006121
3018.86	0.004151
3028.51	0.004381
3038.15	0.003031
3047.8	0.003101
3057.44	0.002471
3067.09	0.002401
3076.73	0.002121
3086.38	0.002061
3096.02	0.002051
3105.67	0.0016781
3115.31	0.002081
3124.95	0.0017208
3134.6	0.0018012
3144.24	0.001871
3153.89	0.002111
3163.53	0.0014607
3173.18	0.002251
3182.82	0.0018413
3192.47	0.0014427
3202.11	0.002061
3211.76	0.0010669
3221.4	0.0012585
3231.05	0.0013968
3240.69	0.0010955
3250.34	0.001234
3259.98	0.0014063
3269.63	0.0015037
3279.27	0.0016399
3288.92	0.0012386
3298.56	0.0014528
3308.21	0.0014863
3317.85	0.0012469
3327.49	0.0014413
3337.14	0.0017757
3346.78	0.001517
3356.43	0.0013086
3366.07	0.0010084
3375.72	0.0010605
3385.36	0.0008092
3395.01	0.0013665
3404.65	0.0011108
3414.3	0.001911
3423.94	0.0018048
3433.59	0.0013978
3443.23	0.0012115
3452.88	0.0009779
3462.52	0.000627
3472.17	0.00088553
3481.81	0.000606
3491.46	0.000688
3501.1	0.0008094
3510.75	0.0007812
3520.39	0.0015657
3530.04	0.0007845
3539.68	0.000349
3549.32	0.0013549
3558.97	0
3568.61	0.0007781
3578.26	0.0014356
3587.9	0.000695
3597.55	0.0010779
3607.19	0.0015204
3616.84	0.0010164
3626.48	0.0007834
3636.13	0.000504
3645.77	0.000573
3655.42	0.000349
3665.06	0.0009536
3674.71	0.0012679
3684.35	0.0013997
3694	0.0009133
3703.64	0.0015012
3713.29	0.0014853
3722.93	0.0007638
3732.58	0.0010523
3742.22	0.0011763
3751.86	0.00088055
3761.51	0.0011213
3771.15	0.00088741
3780.8	0.000716
3790.44	0.0008345
3800.09	0.001384
3809.73	0.0013353
3819.38	0.0012678
3829.02	0.0011678
3838.67	0.0012574
3848.31	0.0008063
3857.96	0.0009862
3867.6	0.0009819
3877.25	0.00084507
3886.89	0.00091691
3896.54	0.001891
3906.18	0.0016772
3915.83	0.0010143
3925.47	0.0011438
3935.12	0.0016547
3944.76	0.00094316
3954.41	0.0016313
3964.05	0.0012519
3973.69	0.0010396
3983.34	0.0012962
3992.98	0.0016383
