Infrared Spectrum: Methyl 4-octyloxybenzoate
Formula: C 16 H 24 O 3
CAS: 62435-37-4
State: gas
Origin: EPA-IR VAPOR PHASE LIBRARY
1/CM	ABSORBANCE
549.8	0.00273
559.445	0.0022545
569.09	0.0019609
578.735	0.0018403
588.38	0.0021443
598.025	0.00379
607.67	0.00666
617.315	0.00606
626.96	0.00656
636.605	0.01013
646.251	0.01374
655.896	0.00546
665.541	0.00294
675.186	0.0036
684.831	0.00679
694.476	0.01026
704.121	0.00862
713.766	0.00613
723.411	0.00475
733.056	0.00401
742.701	0.00448
752.346	0.00719
761.991	0.01728
771.636	0.02872
781.281	0.01399
790.926	0.00783
800.571	0.00579
810.216	0.00639
819.861	0.00792
829.507	0.0105
839.152	0.02094
848.797	0.02564
858.442	0.01266
868.087	0.0072
877.732	0.00518
887.377	0.00474
897.022	0.00533
906.667	0.00595
916.312	0.00542
925.957	0.00513
935.602	0.00545
945.247	0.00648
954.892	0.00915
964.537	0.01314
974.182	0.01693
983.827	0.01833
993.472	0.02085
1003.12	0.02456
1012.76	0.0371
1022.41	0.03493
1032.05	0.03997
1041.7	0.03691
1051.34	0.02868
1060.99	0.02479
1070.63	0.02565
1080.28	0.03204
1089.92	0.05636
1099.57	0.09681
1109.21	0.11147
1118.86	0.07396
1128.5	0.0376
1138.15	0.02462
1147.79	0.02358
1157.44	0.04964
1167.08	0.19705
1176.73	0.07616
1186.37	0.039
1196.02	0.03818
1205.66	0.03794
1215.31	0.05268
1224.95	0.08939
1234.6	0.15703
1244.24	0.25656
1253.89	0.26191
1263.53	0.21339
1273.18	0.27287
1282.82	0.1739
1292.47	0.09565
1302.11	0.07124
1311.76	0.05766
1321.4	0.04117
1331.05	0.0261
1340.69	0.01763
1350.34	0.01489
1359.98	0.01352
1369.63	0.01302
1379.27	0.01583
1388.92	0.01856
1398.56	0.01308
1408.21	0.01419
1417.85	0.01896
1427.5	0.02241
1437.14	0.06311
1446.79	0.03074
1456.43	0.02507
1466.08	0.02814
1475.73	0.03084
1485.37	0.01803
1495.02	0.02277
1504.66	0.06704
1514.31	0.06113
1523.95	0.01502
1533.6	0.00988
1543.24	0.00947
1552.89	0.00968
1562.53	0.01277
1572.18	0.02231
1581.82	0.03161
1591.47	0.04888
1601.11	0.10985
1610.76	0.0958
1620.4	0.03706
1630.05	0.01584
1639.69	0.00919
1649.34	0.00783
1658.98	0.00721
1668.63	0.00649
1678.27	0.00678
1687.92	0.00813
1697.56	0.01069
1707.21	0.0135
1716.85	0.02492
1726.5	0.05741
1736.14	0.17672
1745.79	0.17228
1755.43	0.0519
1765.08	0.02123
1774.72	0.01114
1784.37	0.00721
1794.01	0.00626
1803.66	0.00501
1813.3	0.00366
1822.95	0.00267
1832.59	0.0022282
1842.24	0.0020136
1851.88	0.0019395
1861.53	0.0021027
1871.17	0.0022698
1880.82	0.00262
1890.46	0.00312
1900.11	0.0036
1909.75	0.00425
1919.4	0.00409
1929.04	0.00386
1938.69	0.00346
1948.33	0.00268
1957.98	0.002095
1967.62	0.0020424
1977.27	0.0020106
1986.91	0.0022366
1996.56	0.00247
2006.2	0.00267
2015.85	0.00278
2025.49	0.00296
2035.14	0.0029
2044.78	0.00293
2054.43	0.00314
2064.07	0.00344
2073.72	0.00368
2083.36	0.00368
2093.01	0.00321
2102.65	0.00248
2112.3	0.0019977
2121.94	0.001685
2131.59	0.0014945
2141.23	0.0013454
2150.88	0.001167
2160.52	0.001095
2170.17	0.001031
2179.81	0.000974
2189.46	0.000913
2199.1	0.000871
2208.75	0.000937
2218.39	0.001052
2228.04	0.001073
2237.68	0.001187
2247.33	0.0012287
2256.97	0.0012586
2266.62	0.0012121
2276.26	0.00129909
2285.91	0.00130848
2295.55	0.0012438
2305.2	0.0012208
2314.84	0.001111
2324.49	0.000991
2334.13	0.00111
2343.78	0.00117
2353.42	0.001143
2363.07	0.0012315
2372.72	0.00138492
2382.36	0.0015106
2392.01	0.0016276
2401.65	0.0017709
2411.3	0.0017682
2420.94	0.0016895
2430.59	0.0015799
2440.23	0.0016233
2449.88	0.0015896
2459.52	0.0017366
2469.17	0.0018451
2478.81	0.0018396
2488.46	0.0019017
2498.1	0.001854
2507.75	0.0018185
2517.39	0.0021412
2527.04	0.00241
2536.68	0.00279
2546.33	0.00321
2555.97	0.00314
2565.62	0.00283
2575.26	0.0028
2584.91	0.00261
2594.55	0.00246
2604.2	0.0022862
2613.84	0.00206
2623.49	0.0019599
2633.13	0.0019275
2642.78	0.0018121
2652.42	0.0019056
2662.07	0.0019514
2671.71	0.0020813
2681.36	0.0020436
2691	0.0021555
2700.65	0.0020352
2710.29	0.0021713
2719.94	0.00236
2729.58	0.00252
2739.23	0.00305
2748.87	0.00341
2758.52	0.00339
2768.16	0.00363
2777.81	0.00368
2787.45	0.00392
2797.1	0.0046
2806.74	0.00554
2816.39	0.00685
2826.03	0.00928
2835.68	0.01367
2845.32	0.02445
2854.97	0.04042
2864.61	0.05641
2874.26	0.05382
2883.9	0.04979
2893.55	0.04579
2903.19	0.05308
2912.84	0.07445
2922.48	0.10738
2932.13	0.14363
2941.77	0.13816
2951.42	0.11577
2961.06	0.11753
2970.71	0.07943
2980.35	0.04079
2990	0.02479
2999.64	0.01916
3009.29	0.01541
3018.93	0.01286
3028.58	0.01088
3038.22	0.00898
3047.87	0.00861
3057.51	0.00841
3067.16	0.00767
3076.8	0.00857
3086.45	0.00778
3096.09	0.0062
3105.74	0.00539
3115.38	0.00385
3125.03	0.00289
3134.67	0.00205
3144.32	0.001831
3153.96	0.0019604
3163.61	0.00130507
3173.25	0.00130398
3182.9	0.001042
3192.54	0.000788
3202.19	0.000796
3211.83	0.000642
3221.48	0.000472
3231.12	0.000355
3240.77	0.00026
3250.41	0.00027
3260.06	0.00015
3269.7	0.00022
3279.35	0.00021
3289	0.00022
3298.64	8e-05
3308.29	0.00015
3317.93	0.00022
3327.58	0.00024
3337.22	0.000598
3346.87	0.000496
3356.51	0.00025
3366.16	0.00017
3375.8	0.0001
3385.45	0.00026
3395.09	0.00016
3404.74	0.00024
3414.38	0.000337
3424.03	0.000548
3433.67	0.000388
3443.32	0.000563
3452.96	0.001144
3462.61	0.0017077
3472.25	0.000922
3481.9	0.000684
3491.54	0.000392
3501.19	0.00023
3510.83	0.00029
3520.48	0.00011
3530.12	0.00026
3539.77	0.00017
3549.41	9e-05
3559.06	0.00014
3568.7	0.00021
3578.35	0.0002
3587.99	0.00015
3597.64	0.00021
3607.28	9e-05
3616.93	0.00022
3626.57	0.000366
3636.22	0.000414
3645.86	0.000332
3655.51	0.00028
3665.15	0.000385
3674.8	0.000373
3684.44	0.000445
3694.09	0.000444
3703.73	0.000544
3713.38	0.000384
3723.02	0.000442
3732.67	0.000569
3742.31	0.000301
3751.96	0.000546
3761.6	0.000525
3771.25	0.000456
3780.89	0.000483
3790.54	0.000353
3800.18	0.000469
3809.83	0.000645
3819.47	0.000494
3829.12	0.000547
3838.76	0.000458
3848.41	0.000564
3858.05	0.000762
3867.7	0.000518
3877.34	0.000645
3886.99	0.000788
3896.63	0.00057
3906.28	0.00069
3915.92	0.000827
3925.57	0.000649
3935.21	0.000735
3944.86	0.00062
3954.5	0.000798
3964.15	0.0009
3973.79	0.000739
3983.44	0.000733
3993.08	0.000762
