Infrared Spectrum: 5,7-Dimethylchromone-3-carboxaldehyde
Formula: C 12 H 10 O 3
CAS: 62484-76-8
State: gas
Origin: EPA-IR VAPOR PHASE LIBRARY
1/CM	ABSORBANCE
549.8	0.003762
559.445	0.003462
569.09	0.006952
578.734	0.006302
588.379	0.005002
598.024	0.003932
607.669	0.001902
617.313	0.002062
626.958	0.0007787
636.603	0.0004266
646.248	0.0013177
655.893	0.0010753
665.537	0.001622
675.182	0.003392
684.827	0.008982
694.472	0.007372
704.116	0.002812
713.761	0.002182
723.406	0.003602
733.051	0.006232
742.695	0.007892
752.34	0.023892
761.985	0.073472
771.63	0.046042
781.275	0.018662
790.919	0.011322
800.564	0.006412
810.209	0.004532
819.854	0.003642
829.498	0.004022
839.143	0.012682
848.788	0.021432
858.433	0.008502
868.078	0.002602
877.722	0.002612
887.367	0.003962
897.012	0.006752
906.657	0.006492
916.301	0.004322
925.946	0.006692
935.591	0.007572
945.236	0.008672
954.88	0.010042
964.525	0.004762
974.17	0.003212
983.815	0.003322
993.46	0.003842
1003.1	0.004842
1012.75	0.005932
1022.39	0.008292
1032.04	0.011752
1041.68	0.008862
1051.33	0.004802
1060.97	0.002462
1070.62	0.002442
1080.26	0.002612
1089.91	0.001992
1099.55	0.002892
1109.2	0.002822
1118.84	0.003792
1128.49	0.002812
1138.13	0.003002
1147.78	0.003792
1157.42	0.009092
1167.07	0.012042
1176.71	0.006712
1186.36	0.002082
1196	0.003892
1205.64	0.008362
1215.29	0.021222
1224.93	0.030482
1234.58	0.018502
1244.22	0.011132
1253.87	0.016032
1263.51	0.036482
1273.16	0.047812
1282.8	0.058772
1292.45	0.028112
1302.09	0.013282
1311.74	0.015212
1321.38	0.045872
1331.03	0.095802
1340.67	0.049142
1350.32	0.037882
1359.96	0.039702
1369.61	0.018552
1379.25	0.019102
1388.9	0.023792
1398.54	0.046342
1408.18	0.063532
1417.83	0.031632
1427.47	0.021582
1437.12	0.026712
1446.76	0.044022
1456.41	0.047772
1466.05	0.033872
1475.7	0.033782
1485.34	0.024012
1494.99	0.015312
1504.63	0.013652
1514.28	0.013862
1523.92	0.016112
1533.57	0.020812
1543.21	0.032002
1552.86	0.052802
1562.5	0.053702
1572.15	0.028182
1581.79	0.018462
1591.44	0.023992
1601.08	0.061862
1610.73	0.140292
1620.37	0.155762
1630.01	0.085932
1639.66	0.034782
1649.3	0.041012
1658.95	0.107492
1668.59	0.208502
1678.24	0.159332
1687.88	0.065162
1697.53	0.034802
1707.17	0.079672
1716.82	0.117362
1726.46	0.039612
1736.11	0.015462
1745.75	0.010602
1755.4	0.006662
1765.04	0.004912
1774.69	0.003292
1784.33	0.003332
1793.98	0.004092
1803.62	0.004342
1813.27	0.002962
1822.91	0.002732
1832.55	0.002902
1842.2	0.002882
1851.84	0.002762
1861.49	0.002832
1871.13	0.002332
1880.78	0.001992
1890.42	0.001712
1900.07	0.001942
1909.71	0.001762
1919.36	0.001682
1929	0.001732
1938.65	0.001592
1948.29	0.001522
1957.94	0.0013837
1967.58	0.001341
1977.23	0.0012306
1986.87	0.001177
1996.52	0.0010797
2006.16	0.0012027
2015.81	0.0013235
2025.45	0.0011768
2035.1	0.001502
2044.74	0.0012386
2054.38	0.0011114
2064.03	0.0013266
2073.67	0.0010251
2083.32	0.0011053
2092.96	0.0009336
2102.61	0.0009945
2112.25	0.0012483
2121.9	0.0012936
2131.54	0.0013496
2141.19	0.0010521
2150.83	0.0010225
2160.48	0.0010694
2170.12	0.001386
2179.77	0.001502
2189.41	0.001482
2199.06	0.0011453
2208.7	0.001095
2218.35	0.0008595
2227.99	0.0010053
2237.64	0.0010128
2247.28	0.0011621
2256.92	0.0011192
2266.57	0.001126
2276.21	0.0012061
2285.86	0.0011943
2295.5	0.0013384
2305.15	0.0013026
2314.79	0.0009433
2324.44	0.0009922
2334.08	0.0011824
2343.73	0.0011987
2353.37	0.0014197
2363.02	0.001502
2372.66	0.001672
2382.31	0.001652
2391.95	0.0012966
2401.6	0.0013292
2411.24	0.0014188
2420.89	0.001762
2430.53	0.002322
2440.18	0.002212
2449.82	0.001872
2459.47	0.0014143
2469.11	0.0011726
2478.75	0.0011916
2488.4	0.0010441
2498.04	0.0011294
2507.69	0.0013985
2517.33	0.0011721
2526.98	0.000905
2536.62	0.0010003
2546.27	0.0009133
2555.91	0.0010383
2565.56	0.0011579
2575.2	0.0012128
2584.85	0.0010079
2594.49	0.0010037
2604.14	0.0010691
2613.78	0.0011185
2623.43	0.0011188
2633.07	0.0010679
2642.72	0.0011419
2652.36	0.0013297
2662.01	0.0011058
2671.65	0.001224
2681.29	0.001512
2690.94	0.002012
2700.58	0.002382
2710.23	0.001802
2719.87	0.001762
2729.52	0.002132
2739.16	0.003182
2748.81	0.003882
2758.45	0.003022
2768.1	0.002072
2777.74	0.001852
2787.39	0.002012
2797.03	0.002032
2806.68	0.002452
2816.32	0.002562
2825.97	0.003472
2835.61	0.004062
2845.26	0.005272
2854.9	0.011472
2864.55	0.026032
2874.19	0.022362
2883.84	0.008842
2893.48	0.005652
2903.12	0.005552
2912.77	0.006742
2922.41	0.010152
2932.06	0.018362
2941.7	0.020082
2951.35	0.011102
2960.99	0.007292
2970.64	0.007652
2980.28	0.010592
2989.93	0.010322
2999.57	0.007302
3009.22	0.007302
3018.86	0.008282
3028.51	0.009022
3038.15	0.008492
3047.8	0.005572
3057.44	0.004692
3067.09	0.004902
3076.73	0.003782
3086.38	0.002992
3096.02	0.002592
3105.67	0.002162
3115.31	0.001562
3124.95	0.001452
3134.6	0.0012801
3144.24	0.0009469
3153.89	0.00083
3163.53	0.0008993
3173.18	0.0007628
3182.82	0.0007901
3192.47	0.0006947
3202.11	0.0008205
3211.76	0.0010154
3221.4	0.001011
3231.05	0.0011235
3240.69	0.0009159
3250.34	0.0007692
3259.98	0.0009576
3269.63	0.0010245
3279.27	0.0011746
3288.92	0.0009506
3298.56	0.0009594
3308.21	0.0010285
3317.85	0.002132
3327.49	0.002312
3337.14	0.002072
3346.78	0.0010182
3356.43	0.0011964
3366.07	0.0008677
3375.72	0.000584
3385.36	0.0011492
3395.01	0.0012369
3404.65	0.001652
3414.3	0.003002
3423.94	0.002062
3433.59	0.000892
3443.23	0.0006185
3452.88	0.0005527
3462.52	0.0005663
3472.17	0.00052774
3481.81	0.0007231
3491.46	0.000117
3501.1	0.000324
3510.75	0.000307
3520.39	0.00052575
3530.04	0.000303
3539.68	0.00046586
3549.32	0.0004018
3558.97	0.00050263
3568.61	0.0007035
3578.26	0.0008088
3587.9	0.000233
3597.55	0.00050051
3607.19	0.000341
3616.84	0.0006887
3626.48	0.00050112
3636.13	0.000442849
3645.77	0.00049932
3655.42	0.000157
3665.06	0.000302
3674.71	0.00037
3684.35	0.00053337
3694	0.0003893
3703.64	0.00049466
3713.29	0.000768
3722.93	0.000158
3732.58	0.0003488
3742.22	0.00048364
3751.86	0.0006197
3761.51	0.00023
3771.15	0.000233
3780.8	0.00051642
3790.44	0.000309
3800.09	0.0006455
3809.73	0.0004229
3819.38	0.000329
3829.02	0.0003519
3838.67	0.0005893
3848.31	0.0003867
3857.96	0.0003491
3867.6	0.00052665
3877.25	0.0005683
3886.89	0.0006812
3896.54	0.0007345
3906.18	0.00051637
3915.83	0.00026
3925.47	0.0007351
3935.12	0.0005571
3944.76	0.00043896
3954.41	0.0006277
3964.05	0.0003836
3973.69	0.0009354
3983.34	0.0006364
3992.98	0.000259
