Infrared Spectrum: 3,5-Dibromopyridine
Formula: C 5 H 3 Br 2 N
CAS: 625-92-3
State: gas
Origin: EPA-IR VAPOR PHASE LIBRARY
1/CM	ABSORBANCE
549.8	0.0011058
559.445	0.0017526
569.09	0.0020596
578.734	0.0019716
588.379	0.0018295
598.024	0.0016898
607.669	0.00234
617.313	0.00333
626.958	0.00711
636.603	0.00957
646.248	0.00534
655.893	0.00288
665.537	0.00595
675.182	0.02085
684.827	0.03919
694.472	0.02392
704.116	0.00894
713.761	0.0061
723.406	0.00327
733.051	0.00453
742.695	0.00767
752.34	0.04963
761.985	0.13198
771.63	0.02991
781.275	0.00926
790.919	0.00413
800.564	0.00379
810.209	0.00242
819.854	0.0014038
829.498	0.001462
839.143	0.0016303
848.788	0.00241
858.433	0.00956
868.078	0.02487
877.722	0.02617
887.367	0.01114
897.012	0.0032
906.657	0.00223
916.301	0.00361
925.946	0.00254
935.591	0.00221
945.236	0.0018548
954.88	0.0021343
964.525	0.00239
974.17	0.0036
983.815	0.00464
993.46	0.01273
1003.1	0.04425
1012.75	0.06253
1022.39	0.03772
1032.04	0.0086
1041.68	0.00328
1051.33	0.0043
1060.97	0.00603
1070.62	0.01356
1080.26	0.0276
1089.91	0.06599
1099.55	0.04415
1109.2	0.00615
1118.84	0.00488
1128.49	0.00522
1138.13	0.00518
1147.78	0.00261
1157.42	0.0014034
1167.07	0.0025
1176.71	0.00393
1186.36	0.00685
1196	0.01017
1205.64	0.00471
1215.29	0
1224.93	0.0019339
1234.58	0.0017595
1244.22	0.0018206
1253.87	0.0015891
1263.51	0.0020792
1273.16	0.00256
1282.8	0.01451
1292.45	0.04534
1302.09	0.01361
1311.74	0.00306
1321.38	0.00252
1331.03	0.00269
1340.67	0.00322
1350.32	0.00741
1359.96	0.01944
1369.61	0.01943
1379.25	0.00939
1388.9	0.0106
1398.54	0.03583
1408.18	0.1167
1417.83	0.07651
1427.47	0.01726
1437.12	0.00746
1446.76	0.00818
1456.41	0.00635
1466.05	0.00347
1475.7	0.00348
1485.34	0.00246
1494.99	0.00225
1504.63	0.00281
1514.28	0.00421
1523.92	0.00726
1533.57	0.02444
1543.21	0.07816
1552.86	0.06833
1562.5	0.00886
1572.15	0.0032
1581.79	0.0020015
1591.44	0.0015114
1601.08	0.0016017
1610.73	0.0014622
1620.37	0.001268
1630.01	0.0016659
1639.66	0.0018996
1649.3	0.0019573
1658.95	0.0016743
1668.59	0.0018982
1678.24	0.002004
1687.88	0.0017393
1697.53	0.0016456
1707.17	0.0016488
1716.82	0.001822
1726.46	0.00258
1736.11	0.002049
1745.75	0.0017778
1755.4	0.0021244
1765.04	0.00346
1774.69	0.00474
1784.33	0.00393
1793.98	0.00298
1803.62	0.0046
1813.27	0.00509
1822.91	0.00255
1832.55	0.00307
1842.2	0.00454
1851.84	0.0033
1861.49	0.0021587
1871.13	0.00263
1880.78	0.00255
1890.42	0.0018241
1900.07	0.0014701
1909.71	0.0014431
1919.36	0.0015004
1929	0.0016821
1938.65	0.0015016
1948.29	0.0013783
1957.94	0.0014584
1967.58	0.0012866
1977.23	0.0014259
1986.87	0.0013862
1996.52	0.0013251
2006.16	0.0012854
2015.81	0.0015931
2025.45	0.0013641
2035.1	0.0016647
2044.74	0.0019314
2054.38	0.0013391
2064.03	0.0015244
2073.67	0.00123746
2083.32	0.0012798
2092.96	0.0014198
2102.61	0.0013919
2112.25	0.0013785
2121.9	0.0014144
2131.54	0.0013703
2141.19	0.0015404
2150.83	0.0014518
2160.48	0.0014828
2170.12	0.0015135
2179.77	0.0014896
2189.41	0.0015028
2199.06	0.0014632
2208.7	0.0014332
2218.35	0.0013694
2227.99	0.0013749
2237.64	0.0014289
2247.28	0.0013487
2256.92	0.0015135
2266.57	0.0015674
2276.21	0.00121571
2285.86	0.0014703
2295.5	0.0014166
2305.15	0.0015189
2314.79	0.0014119
2324.44	0.00122241
2334.08	0.0015083
2343.73	0.0013337
2353.37	0.0014168
2363.02	0.0017295
2372.66	0.0021084
2382.31	0.00263
2391.95	0.00255
2401.6	0.00222
2411.24	0.001745
2420.89	0.0015691
2430.53	0.0013756
2440.18	0.0012618
2449.82	0.0012774
2459.47	0.0016288
2469.11	0.0015652
2478.75	0.0015484
2488.4	0.0015877
2498.04	0.0014592
2507.69	0.0014779
2517.33	0.0014812
2526.98	0.0013953
2536.62	0.001482
2546.27	0.0014188
2555.91	0.0013505
2565.56	0.0016279
2575.2	0.0015586
2584.85	0.0016149
2594.49	0.0016967
2604.14	0.0015247
2613.78	0.001638
2623.43	0.00166
2633.07	0.0015381
2642.72	0.0015163
2652.36	0.0013211
2662.01	0.0015191
2671.65	0.0015605
2681.29	0.0017145
2690.94	0.001909
2700.58	0.0021371
2710.23	0.00223
2719.87	0.00225
2729.52	0.0021466
2739.16	0.0019454
2748.81	0.0019509
2758.45	0.0014778
2768.1	0.00124991
2777.74	0.00118788
2787.39	0.0012973
2797.03	0.00125731
2806.68	0.0014631
2816.32	0.0013364
2825.97	0.0012617
2835.61	0.001437
2845.26	0.00119536
2854.9	0.0012736
2864.55	0.0014669
2874.19	0.001308
2883.84	0.0013848
2893.48	0.0012916
2903.12	0.00116024
2912.77	0.0014513
2922.41	0.0010718
2932.06	0.0014873
2941.7	0.0016509
2951.35	0.0018051
2960.99	0.0014108
2970.64	0.0014864
2980.28	0.0013882
2989.93	0.0016423
2999.57	0.0013545
3009.22	0.0014483
3018.86	0.0018755
3028.51	0.0017066
3038.15	0.00265
3047.8	0.00749
3057.44	0.01541
3067.09	0.00613
3076.73	0.00286
3086.38	0.00251
3096.02	0.00258
3105.67	0.002142
3115.31	0.0020593
3124.95	0.0015832
3134.6	0.0011094
3144.24	0.0012921
3153.89	0.001285
3163.53	0.0011967
3173.18	0.0011315
3182.82	0.0016289
3192.47	0.00125287
3202.11	0.0013572
3211.76	0.0011335
3221.4	0.0013023
3231.05	0.00122628
3240.69	0.001378
3250.34	0.0015998
3259.98	0.0010954
3269.63	0.0015165
3279.27	0.0013584
3288.92	0.0013228
3298.56	0.0015113
3308.21	0.000953
3317.85	0.0014287
3327.49	0.0016466
3337.14	0.00122027
3346.78	0.00122031
3356.43	0.0013417
3366.07	0.00121573
3375.72	0.0013091
3385.36	0.001
3395.01	0.0014505
3404.65	0.00124359
3414.3	0.0015274
3423.94	0.00115231
3433.59	0.0013562
3443.23	0.001035
3452.88	0.0010878
3462.52	0.001283
3472.17	0.0015998
3481.81	0.0013954
3491.46	0.0013285
3501.1	0.0015739
3510.75	0.0013165
3520.39	0.00123795
3530.04	0.0014616
3539.68	0.000987
3549.32	0.001553
3558.97	0.0014265
3568.61	0.0012811
3578.26	0.0014592
3587.9	0.001391
3597.55	0.0014182
3607.19	0.0014445
3616.84	0.0016106
3626.48	0.00116379
3636.13	0.00115716
3645.77	0.0014888
3655.42	0.00123528
3665.06	0.0015741
3674.71	0.0010841
3684.35	0.0013929
3694	0.001365
3703.64	0.0014037
3713.29	0.0015747
3722.93	0.0012743
3732.58	0.00118305
3742.22	0.0014316
3751.86	0.001324
3761.51	0.0014557
3771.15	0.0017103
3780.8	0.0013505
3790.44	0.0017657
3800.09	0.000946
3809.73	0.0017553
3819.38	0.0016263
3829.02	0.0017164
3838.67	0.0015929
3848.31	0.0016757
3857.96	0.00145
3867.6	0.0014885
3877.25	0.00125788
3886.89	0.0015126
3896.54	0.0015665
3906.18	0.0015533
3915.83	0.0012997
3925.47	0.00115413
3935.12	0.0012938
3944.76	0.0014297
3954.41	0.0016421
3964.05	0.0015466
3973.69	0.001398
3983.34	0.0014257
3992.98	0.0013993
