Infrared Spectrum: BENZENE, 1-CHLORO-3-IODO-
Formula: C6 H4 Cl I
CAS: 625-99-0
State: SOLUTION (10% IN CCl4 FOR 3800-1333 AND 10% IN CS2 FOR 1333-440 CM^-^1) VS. SOLVENT
Class: COBLENTZ III
Instrument: DOW KBr FOREPRISM-GRATING
Instrument parameters: BLAZED AT 3.5, 12.0, 20.0 MICRON, CHANGED AT 5.0, 7.5, 14.9 MICRON
Sampling: TRANSMISSION
Path length: 0.011, 0.011 CM
Resolution: 4
Origin: DOW CHEMICAL COMPANY
1/CM	TRANSMITTANCE
433.061	0.967
441.761	0.967
450.462	0.967
459.162	0.967
467.863	0.967
476.563	0.967
485.263	0.967
493.964	0.968
502.664	0.968
511.365	0.968
520.065	0.971
528.765	0.979
537.466	0.98
546.166	0.98
554.866	0.984
563.567	0.986
572.267	0.984
580.968	0.987
589.668	0.987
598.368	0.989
607.069	0.989
615.769	0.993
624.47	0.987
633.17	0.979
641.87	0.956
650.571	0.956
659.271	0.945
667.972	0.3481
676.672	0.918
685.372	0.96
694.073	0.993
702.773	0.991
711.474	0.984
720.174	0.976
728.874	0.894
737.575	0.18
746.275	0.752
754.975	0.908
763.676	0.663
772.376	0.248
781.077	0.844
789.777	0.974
798.477	0.979
807.178	0.982
815.878	0.99
824.579	0.991
833.279	0.99
841.979	0.987
850.68	0.976
859.38	0.922
868.081	0.3721
876.781	0.937
885.481	0.959
894.182	0.935
902.882	0.974
911.583	0.986
920.283	0.986
928.983	0.98
937.684	0.987
946.384	0.984
955.085	0.98
963.785	0.959
972.485	0.969
981.186	0.949
989.886	0.4751
998.586	0.959
1007.29	0.965
1015.99	0.937
1024.69	0.957
1033.39	0.972
1042.09	0.956
1050.79	0.878
1059.49	0.64
1068.19	0.897
1076.89	0.666
1085.59	0.819
1094.29	0.431
1102.99	0.89
1111.69	0.796
1120.39	0.98
1129.09	0.98
1137.79	0.975
1146.49	0.969
1155.19	0.93
1163.89	0.913
1172.59	0.975
1181.29	0.986
1190	0.979
1198.7	0.983
1207.4	1.002
1216.1	1.009
1224.8	1.015
1233.5	1.008
1242.2	0.995
1250.9	0.979
1259.6	0.986
1268.3	0.991
1277	0.964
1285.7	0.959
1294.4	0.935
1303.1	0.98
1311.8	0.979
1320.5	0.954
1329.2	0.971
1337.9	0.989
1346.6	0.99
1355.3	0.987
1364	0.978
1372.7	0.965
1381.4	0.846
1390.1	0.755
1398.8	0.767
1407.5	0.719
1416.21	0.879
1424.91	0.941
1433.61	0.946
1442.31	0.934
1451.01	0.745
1459.71	0.1651
1468.41	0.881
1477.11	0.819
1485.81	0.883
1494.51	0.967
1503.21	0.969
1511.91	0.964
1520.61	0.971
1529.31	0.965
1538.01	0.938
1546.71	0.878
1555.41	0.754
1564.11	0.02
1572.81	0.4821
1581.51	0.901
1590.21	0.931
1598.91	0.934
1607.61	0.978
1616.31	0.98
1625.01	0.979
1633.72	0.972
1642.42	0.968
1651.12	0.967
1659.82	0.959
1668.52	0.949
1677.22	0.982
1685.92	0.99
1694.62	0.991
1703.32	0.984
1712.02	0.989
1720.72	0.984
1729.42	0.968
1738.12	0.935
1746.82	0.974
1755.52	0.986
1764.22	0.98
1772.92	0.986
1781.62	0.98
1790.32	0.959
1799.02	0.982
1807.72	0.994
1816.42	0.993
1825.12	0.99
1833.82	0.98
1842.52	0.984
1851.22	0.983
1859.93	0.948
1868.63	0.972
1877.33	0.993
1886.03	0.998
1894.73	0.997
1903.43	0.997
1912.13	0.995
1920.83	0.989
1929.53	0.968
1938.23	0.965
1946.93	0.993
1955.63	0.995
1964.33	0.998
1973.03	1.001
1981.73	0.998
1990.43	0.997
1999.13	0.99
2007.83	0.988
2016.53	0.986
2025.23	0.985
2033.93	0.9935
2042.63	0.9905
2051.33	0.986
2060.03	0.988
2068.73	0.99
2077.44	0.9905
2086.14	0.99
2094.84	0.9881
2103.54	0.986
2112.24	0.99
2120.94	0.9905
2129.64	0.987
2138.34	0.987
2147.04	0.987
2155.74	0.987
2164.44	0.984
2173.14	0.9865
2181.84	0.9881
2190.54	0.984
2199.24	0.989
2207.94	0.99
2216.64	0.987
2225.34	0.987
2234.04	0.986
2242.74	0.986
2251.44	0.9879
2260.14	0.989
2268.84	0.9881
2277.54	0.987
2286.24	0.987
2294.94	0.986
2303.65	0.9852
2312.35	0.982
2321.05	0.982
2329.75	0.979
2338.45	0.983
2347.15	0.984
2355.85	0.982
2364.55	0.982
2373.25	0.9824
2381.95	0.984
2390.65	0.9812
2399.35	0.98
2408.05	0.9878
2416.75	0.989
2425.45	0.99
2434.15	0.989
2442.85	0.987
2451.55	0.987
2460.25	0.987
2468.95	0.99
2477.65	0.989
2486.35	0.989
2495.05	0.9866
2503.75	0.982
2512.45	0.9877
2521.16	0.989
2529.86	0.99
2538.56	0.9883
2547.26	0.986
2555.96	0.9834
2564.66	0.9847
2573.36	0.987
2582.06	0.989
2590.76	0.9896
2599.46	0.989
2608.16	0.9837
2616.86	0.976
2625.56	0.9877
2634.26	0.987
2642.96	0.9837
2651.66	0.9797
2660.36	0.986
2669.06	0.984
2677.76	0.9893
2686.46	0.99
2695.16	0.9883
2703.86	0.9863
2712.56	0.99
2721.26	0.9867
2729.96	0.98
2738.66	0.9863
2747.37	0.9903
2756.07	0.991
2764.77	0.9903
2773.47	0.991
2782.17	0.9907
2790.87	0.9893
2799.57	0.9884
2808.27	0.98
2816.97	0.9876
2825.67	0.9897
2834.37	0.9821
2843.07	0.978
2851.77	0.9806
2860.47	0.9893
2869.17	0.99
2877.87	0.9897
2886.57	0.989
2895.27	0.9862
2903.97	0.98
2912.67	0.986
2921.37	0.9855
2930.07	0.9875
2938.77	0.99
2947.47	0.989
2956.17	0.989
2964.88	0.9875
2973.58	0.989
2982.28	0.9837
2990.98	0.98
2999.68	0.9823
3008.38	0.984
3017.08	0.9838
3025.78	0.98
3034.48	0.977
3043.18	0.9593
3051.88	0.9019
3060.58	0.8919
3069.28	0.9223
3077.98	0.9575
3086.68	0.9595
3095.38	0.9695
3104.08	0.974
3112.78	0.9748
3121.48	0.9648
3130.18	0.9614
3138.88	0.9744
3147.58	0.98
3156.28	0.9828
3164.98	0.984
3173.68	0.983
3182.38	0.984
3191.09	0.984
3199.79	0.984
3208.49	0.983
3217.19	0.984
3225.89	0.984
3234.59	0.984
3243.29	0.9838
3251.99	0.983
3260.69	0.982
3269.39	0.98
3278.09	0.98
3286.79	0.9798
3295.49	0.979
3304.19	0.979
3312.89	0.98
3321.59	0.98
3330.29	0.979
3338.99	0.979
3347.69	0.979
3356.39	0.979
3365.09	0.979
3373.79	0.978
3382.49	0.976
3391.19	0.976
3399.89	0.9763
3408.59	0.978
3417.3	0.9782
3426	0.98
3434.7	0.9803
3443.4	0.984
3452.1	0.984
3460.8	0.986
3469.5	0.986
3478.2	0.987
3486.9	0.987
3495.6	0.989
3504.3	0.989
3513	0.9891
3521.7	0.9931
3530.4	0.993
3539.1	0.993
3547.8	0.993
3556.5	0.9939
3565.2	0.995
3573.9	0.994
3582.6	0.995
3591.3	0.995
3600	0.994
3608.7	0.995
3617.4	0.9968
3626.1	0.9949
3634.81	0.993
3643.51	1.001
3652.21	0.9997
3660.91	0.995
3669.61	0.9952
3678.31	0.9927
3687.01	0.9842
3695.71	0.995
3704.41	0.994
3713.11	0.9908
3721.81	0.9901
3730.51	0.993
3739.21	0.995
