Infrared Spectrum: Diacetamide
Formula: C4 H7 N O2
CAS: 625-77-4
State: SOLID (SPLIT MULL), FLUOROLUBE FOR 3800-1330 CM^-^1, NUJOL FOR 1330-400 CM^-^1
Melting point: 75 C
Class: COBLENTZ II
Instrument: DOW KBr FOREPRISM-GRATING
Instrument parameters: BLAZED AT 3.5, 12.0, 20.0 MICRON AND CHANGED AT 5.0, 7.5, 14.9 MICRON
Sampling: TRANSMISSION
Resolution: 2
Origin: DOW CHEMICAL COMPANY
1/CM	TRANSMITTANCE
3804	0.7303
3795	0.7307
3786	0.7314
3777	0.7321
3768	0.733
3759	0.7337
3750	0.7344
3741	0.7345
3732	0.7346
3723	0.7338
3714	0.7318
3705	0.7324
3696	0.7333
3687	0.7346
3678	0.7361
3669	0.7374
3660	0.7378
3651	0.7381
3642	0.7386
3633	0.7389
3624	0.739
3615	0.7388
3606	0.7378
3597	0.7301
3588	0.7276
3579	0.7272
3570	0.7275
3561	0.7278
3552	0.7278
3543	0.7278
3534	0.7278
3525	0.7274
3516	0.7271
3507	0.7265
3498	0.7256
3489	0.7233
3480	0.7182
3471	0.7126
3462	0.7155
3453	0.7172
3444	0.7178
3435	0.7128
3426	0.7046
3417	0.703
3408	0.7044
3399	0.7054
3390	0.7054
3381	0.7042
3372	0.7007
3363	0.6937
3354	0.6796
3345	0.6649
3336	0.6498
3327	0.6333
3318	0.6109
3309	0.566
3300	0.5227
3291	0.452
3282	0.4128
3273	0.4274
3264	0.4321
3255	0.455
3246	0.4631
3237	0.3403
3228	0.3308
3219	0.358
3210	0.4335
3201	0.4839
3192	0.48
3183	0.4407
3174	0.4321
3165	0.4382
3156	0.464
3147	0.4933
3138	0.5205
3129	0.5448
3120	0.5668
3111	0.5873
3102	0.6009
3093	0.6112
3084	0.621
3075	0.629
3066	0.6349
3057	0.6381
3048	0.6385
3039	0.6345
3030	0.6191
3021	0.5593
3012	0.496
3003	0.5135
2994	0.5881
2985	0.6179
2976	0.6394
2967	0.6468
2958	0.6475
2949	0.6451
2940	0.6464
2931	0.6547
2922	0.6626
2913	0.6715
2904	0.6799
2895	0.6875
2886	0.6944
2877	0.7001
2868	0.7041
2859	0.7064
2850	0.7112
2841	0.7161
2832	0.7201
2823	0.7234
2814	0.7264
2805	0.7286
2796	0.7306
2787	0.7315
2778	0.7326
2769	0.7335
2760	0.7332
2751	0.7293
2742	0.7226
2733	0.7165
2724	0.7146
2715	0.7155
2706	0.7225
2697	0.7288
2688	0.7319
2679	0.7351
2670	0.7382
2661	0.741
2652	0.7435
2643	0.7455
2634	0.7467
2625	0.7476
2616	0.7486
2607	0.749
2598	0.7483
2589	0.7469
2580	0.7468
2571	0.7478
2562	0.7485
2553	0.7484
2544	0.748
2535	0.7472
2526	0.7461
2517	0.7447
2508	0.7441
2499	0.7451
2490	0.7461
2481	0.7468
2472	0.7476
2463	0.7478
2454	0.7478
2445	0.7478
2436	0.7478
2427	0.7469
2418	0.745
2409	0.7425
2400	0.7432
2391	0.7467
2382	0.7469
2373	0.7449
2364	0.7437
2355	0.7432
2346	0.7436
2337	0.7444
2328	0.7449
2319	0.7361
2310	0.7303
2301	0.7344
2292	0.7391
2283	0.7394
2274	0.7393
2265	0.7393
2256	0.7396
2247	0.7398
2238	0.7401
2229	0.7411
2220	0.7428
2211	0.7432
2202	0.7433
2193	0.7438
2184	0.7447
2175	0.7455
2166	0.7462
2157	0.7465
2148	0.7468
2139	0.7464
2130	0.7461
2121	0.7461
2112	0.7467
2103	0.7468
2094	0.7468
2085	0.7465
2076	0.7464
2067	0.7456
2058	0.7442
2049	0.7422
2040	0.7428
2031	0.7439
2022	0.7451
2013	0.7453
2004	0.7456
1995	0.7384
1986	0.7287
1977	0.728
1968	0.7275
1959	0.7361
1950	0.7245
1941	0.7221
1932	0.7225
1923	0.7248
1914	0.7268
1905	0.7287
1896	0.7299
1887	0.7306
1878	0.7287
1869	0.7184
1860	0.71
1851	0.7067
1842	0.7004
1833	0.699
1824	0.6993
1815	0.6999
1806	0.6994
1797	0.6976
1788	0.6897
1779	0.6743
1770	0.6536
1761	0.6332
1752	0.6124
1743	0.3534
1734	0.2774
1725	0.3674
1716	0.3342
1707	0.0377
1698	0.0558
1689	0.0287
1680	0.1064
1671	0.2731
1662	0.3608
1653	0.3252
1644	0.3677
1635	0.448
1626	0.5115
1617	0.5304
1608	0.5523
1599	0.5975
1590	0.6369
1581	0.6561
1572	0.6604
1563	0.6628
1554	0.6676
1545	0.6736
1536	0.673
1527	0.6599
1518	0.5996
1509	0.267
1500	0.1704
1491	0.4733
1482	0.574
1473	0.6101
1464	0.6138
1455	0.6067
1446	0.5893
1437	0.5512
1428	0.48
1419	0.4712
1410	0.5088
1401	0.511
1392	0.4366
1383	0.3218
1374	0.2888
1365	0.3992
1356	0.5796
1347	0.6016
1338	0.6041
1329	0.5549
1320	0.1929
1311	0.0551
1302	0.0972
1293	0.1581
1284	0.3918
1275	0.5046
1266	0.5748
1257	0.5929
1248	0.5335
1239	0.4916
1230	0.4407
1221	0.0451
1212	0.1052
1203	0.2941
1194	0.4771
1185	0.5934
1176	0.6695
1167	0.7162
1158	0.7408
1149	0.7501
1140	0.755
1131	0.7557
1122	0.7676
1113	0.7747
1104	0.7785
1095	0.7794
1086	0.7765
1077	0.77
1068	0.7547
1059	0.7364
1050	0.6615
1041	0.3906
1032	0.166
1023	0.2732
1014	0.458
1005	0.5246
996	0.6524
987	0.7201
978	0.7448
969	0.7461
960	0.7525
951	0.7635
942	0.7707
933	0.773
924	0.7731
915	0.7732
906	0.7701
897	0.7618
888	0.7504
879	0.7307
870	0.6705
861	0.596
852	0.5044
843	0.3744
834	0.3393
825	0.5134
816	0.3348
807	0.4409
798	0.5756
789	0.6824
780	0.7367
771	0.7601
762	0.7769
753	0.7897
744	0.7972
735	0.7997
726	0.7984
717	0.79
708	0.8237
699	0.8438
690	0.8541
681	0.8575
672	0.8591
663	0.8546
654	0.4996
645	0.491
636	0.7712
627	0.8083
618	0.82
609	0.5285
600	0.7321
591	0.8178
582	0.7983
573	0.6851
564	0.4601
555	0.7435
546	0.7995
537	0.8153
528	0.8217
519	0.8266
510	0.8293
501	0.8303
492	0.8304
483	0.8294
474	0.8245
465	0.8144
456	0.7951
447	0.7901
438	0.7848
429	0.7762
420	0.7561
411	0.75
402	0.7476
393	0.7464
384	0.7456
