Infrared Spectrum: 2,5-Dimethylpyrrole
Formula: C 6 H 9 N
CAS: 625-84-3
State: gas
Instrument: HP-GC/MS/IRD
Origin: NIST Mass Spectrometry Data Center
1/CM	ABSORBANCE
550	0.0002704
562	0.0003328
574	2.34e-05
586	0.000208
598	0.0005928
610	0.0016198
622	0.0026728
634	0.0048438
646	0.0024674
658	0.0012948
670	0.0004706
682	0.0004238
694	0.0004368
706	0.0005226
718	0.001001
730	0.0029614
742	0.0083278
754	0.014183
766	0.026
778	0.013858
790	0.0069212
802	0.0019708
814	0.0007124
826	0.0005148
838	0.0003926
850	0.0004628
862	0.0006656
874	0.0015392
886	0.0035932
898	0.0069394
910	0.0075608
922	0.0069602
934	0.0035568
946	0.0019396
958	0.0017524
970	0.0019526
982	0.00273
994	0.0028886
1006	0.0030862
1018	0.0027508
1030	0.0038506
1042	0.0033982
1054	0.0026832
1066	0.0013806
1078	0.0006864
1090	0.0004134
1102	0.000455
1114	0.0004316
1126	0.0005252
1138	0.0005408
1150	0.0005772
1162	0.001196
1174	0.0030108
1186	0.002782
1198	0.0012844
1210	0.000572
1222	0.0008632
1234	0.0016172
1246	0.0026156
1258	0.0027404
1270	0.001885
1282	0.0010114
1294	0.0006838
1306	0.000689
1318	0.0008424
1330	0.001105
1342	0.0014742
1354	0.00195
1366	0.0028106
1378	0.0038818
1390	0.0053482
1402	0.0075998
1414	0.0095732
1426	0.008138
1438	0.0038896
1450	0.0024908
1462	0.0019708
1474	0.0019058
1486	0.0019006
1498	0.002418
1510	0.0033098
1522	0.0035178
1534	0.003003
1546	0.0017836
1558	0.001274
1570	0.0013936
1582	0.0027898
1594	0.0047424
1606	0.0044382
1618	0.0025428
1630	0.0018616
1642	0.0017472
1654	0.001209
1666	0.0006812
1678	0.0004004
1690	0.0003016
1702	0.0001794
1714	0.0001352
1726	0.0001144
1738	8.58e-05
1750	5.2e-05
1762	4.42e-05
1774	9.62e-05
1786	0.0001196
1798	0.0001014
1810	7.02e-05
1822	5.98e-05
1834	7.28e-05
1846	8.06e-05
1858	7.02e-05
1870	8.06e-05
1882	5.72e-05
1894	2.34e-05
1906	1.04e-05
1918	5.2e-06
1930	0
1942	3.9e-05
1954	3.38e-05
1966	4.94e-05
1978	5.98e-05
1990	0.0001014
2002	0.0001092
2014	8.84e-05
2026	9.88e-05
2038	8.32e-05
2050	7.28e-05
2062	7.28e-05
2074	5.98e-05
2086	7.8e-05
2098	5.98e-05
2110	4.94e-05
2122	5.2e-05
2134	5.72e-05
2146	4.16e-05
2158	2.08e-05
2170	6.76e-05
2182	0.0001014
2194	0.0001222
2206	0.0001586
2218	0.000143
2230	0.0001066
2242	9.36e-05
2254	8.32e-05
2266	4.16e-05
2278	9.62e-05
2290	0.000104
2302	0.0001092
2314	7.8e-05
2326	7.54e-05
2338	0.000117
2350	0.000156
2362	0.000169
2374	0.0001872
2386	0.0001924
2398	0.0002002
2410	0.000338
2422	0.000507
2434	0.0004992
2446	0.0003874
2458	0.0002314
2470	0.0002548
2482	0.000234
2494	0.0002522
2506	0.000221
2518	0.0001612
2530	0.0001482
2542	0.0001248
2554	0.0001612
2566	0.0001846
2578	0.0002366
2590	0.0002808
2602	0.0002704
2614	0.000299
2626	0.000364
2638	0.0004524
2650	0.0005122
2662	0.000546
2674	0.0005096
2686	0.0004446
2698	0.0003692
2710	0.0003432
2722	0.0005096
2734	0.0009464
2746	0.0014378
2758	0.0014976
2770	0.0010062
2782	0.0008528
2794	0.0009464
2806	0.0011258
2818	0.0015756
2830	0.0024362
2842	0.0036374
2854	0.0055068
2866	0.0082368
2878	0.0106106
2890	0.0115232
2902	0.01274
2914	0.01534
2926	0.017979
2938	0.017251
2950	0.0108264
2962	0.0063206
2974	0.0053404
2986	0.0052676
2998	0.0046852
3010	0.0037102
3022	0.0035958
3034	0.0036764
3046	0.003263
3058	0.0024934
3070	0.00221
3082	0.0027352
3094	0.0033462
3106	0.0039936
3118	0.0035152
3130	0.0024232
3142	0.0009048
3154	0.0003926
3166	0.0002418
3178	0.0002444
3190	0.0002314
3202	0.0002262
3214	0.0001924
3226	0.0002002
3238	0.0001404
3250	0.0001404
3262	0.0001378
3274	0.0001014
3286	0.0001612
3298	0.0002236
3310	0.0001248
3322	0.0001586
3334	0.0001794
3346	0.0001482
3358	0.0001196
3370	0.0001456
3382	0.0001742
3394	0.0001534
3406	0.0002288
3418	0.000286
3430	0.0004602
3442	0.0008736
3454	0.0015184
3466	0.0027742
3478	0.0046644
3490	0.0080782
3502	0.0066742
3514	0.0060268
3526	0.0020072
3538	0.000598
3550	0.0002444
3562	0.0001872
3574	0.0001248
3586	0.0001794
3598	0.0001196
3610	0.00013
3622	9.62e-05
3634	8.84e-05
3646	0.0001716
3658	0.0001118
3670	6.24e-05
3682	0.000182
3694	0.0001248
3706	0.0001716
3718	0.0001742
3730	0.0001508
3742	0.0001378
3754	0.0001716
3766	0.0002236
3778	0.0002366
3790	0.000195
3802	0.0002262
3814	0.0002548
3826	0.0002652
3838	0.0002652
