Infrared Spectrum: 2,4-Dimethyl-2-pentene
Formula: C 7 H 14
CAS: 625-65-0
State: gas
Instrument: HP-GC/MS/IRD
Origin: NIST Mass Spectrometry Data Center
1/CM	ABSORBANCE
550	0.00027
562	0.0001728
574	0.0002106
586	0.000135
598	0.000216
610	0.0002376
622	0.0002214
634	0.0003132
646	0.0002214
658	0.0002268
670	0.0001782
682	0.0002484
694	0.0002376
706	0.0002916
718	0.0002862
730	0.0002916
742	0.0003132
754	0.0002646
766	0.0003942
778	0.0004266
790	0.0006318
802	0.0008856
814	0.0018306
826	0.0035424
838	0.0043308
850	0.0030456
862	0.0014634
874	0.000729
886	0.0005778
898	0.0006102
910	0.000675
922	0.0009234
934	0.001485
946	0.0017604
958	0.0014796
970	0.0011448
982	0.0012258
994	0.0011016
1006	0.0009126
1018	0.0008154
1030	0.0010368
1042	0.0016038
1054	0.0027756
1066	0.0032022
1078	0.0024462
1090	0.0020844
1102	0.0025866
1114	0.0025758
1126	0.0017334
1138	0.0008964
1150	0.0007182
1162	0.0008586
1174	0.0009612
1186	0.0009936
1198	0.0012582
1210	0.0015984
1222	0.0013662
1234	0.0008046
1246	0.0007344
1258	0.0007884
1270	0.0009072
1282	0.0013284
1294	0.0022842
1306	0.0024084
1318	0.0014904
1330	0.0013284
1342	0.0018252
1354	0.0033372
1366	0.0057024
1378	0.0076842
1390	0.0068958
1402	0.004077
1414	0.0029322
1426	0.0034506
1438	0.0048708
1450	0.0065556
1462	0.0071388
1474	0.0057942
1486	0.003618
1498	0.0019818
1510	0.0012798
1522	0.0010314
1534	0.0009504
1546	0.0009234
1558	0.0008586
1570	0.0008694
1582	0.0008694
1594	0.0007884
1606	0.0007128
1618	0.0006642
1630	0.0007128
1642	0.0008964
1654	0.001188
1666	0.0014688
1678	0.0011664
1690	0.0006156
1702	0.0003456
1714	0.000243
1726	0.0002376
1738	0.0001728
1750	0.000216
1762	0.0001728
1774	0.000162
1786	0.0001674
1798	0.0001836
1810	0.0001836
1822	0.0001944
1834	0.0001566
1846	0.000135
1858	0.000162
1870	0.0001458
1882	0.0001782
1894	0.0001728
1906	0.0001944
1918	0.0001728
1930	0.0001782
1942	0.0001998
1954	0.000162
1966	0.0001458
1978	0.0001458
1990	0.0001026
2002	0.0001026
2014	7.02e-05
2026	5.94e-05
2038	5.94e-05
2050	5.4e-05
2062	7.56e-05
2074	7.02e-05
2086	5.94e-05
2098	5.94e-05
2110	3.24e-05
2122	5.94e-05
2134	6.48e-05
2146	8.64e-05
2158	8.64e-05
2170	9.72e-05
2182	0.0001134
2194	0.0001188
2206	0.000108
2218	0.0001296
2230	0.0001134
2242	6.48e-05
2254	4.86e-05
2266	5.94e-05
2278	7.56e-05
2290	4.32e-05
2302	8.1e-05
2314	0.0001404
2326	0.0001134
2338	9.72e-05
2350	0.000135
2362	0.000108
2374	0.0001674
2386	0.000162
2398	0.0001674
2410	0.0002106
2422	0.0001728
2434	0.000162
2446	0.0001728
2458	0.0002376
2470	0.0002322
2482	0.0001836
2494	0.0001512
2506	0.0002106
2518	0.0001998
2530	0.0001566
2542	0.000216
2554	0.0002322
2566	0.0003078
2578	0.0003294
2590	0.0003402
2602	0.0003078
2614	0.0002754
2626	0.0002862
2638	0.000297
2650	0.0003348
2662	0.000324
2674	0.0003726
2686	0.0003726
2698	0.0004752
2710	0.0007452
2722	0.0011448
2734	0.0015768
2746	0.0016632
2758	0.0014418
2770	0.00135
2782	0.0013878
2794	0.0016794
2806	0.002187
2818	0.0027648
2830	0.0036558
2842	0.005481
2854	0.009855
2866	0.0179226
2878	0.0234846
2890	0.0230634
2902	0.0232902
2914	0.0286956
2926	0.0346896
2938	0.0359748
2950	0.0393174
2962	0.0527688
2974	0.0491238
2986	0.027891
2998	0.014553
3010	0.0085752
3022	0.0059346
3034	0.0046116
3046	0.0038988
3058	0.003456
3070	0.0029376
3082	0.0024408
3094	0.002052
3106	0.001728
3118	0.0014688
3130	0.001296
3142	0.0011394
3154	0.0010368
3166	0.0009342
3178	0.0007992
3190	0.0006588
3202	0.0005886
3214	0.0004806
3226	0.0003618
3238	0.0002808
3250	0.0002268
3262	0.000324
3274	0.0002754
3286	0.0002214
3298	0.0002646
3310	0.0001836
3322	0.0002484
3334	0.0002484
3346	0.0002214
3358	0.0002268
3370	0.0001944
3382	0.0002214
3394	0.0002376
3406	0.0002484
3418	0.0001944
3430	0.0002268
3442	0.0001674
3454	0.0001242
3466	0.0001458
3478	0.0001296
3490	0.000108
3502	0.0001404
3514	9.18e-05
3526	0.0001134
3538	7.02e-05
3550	2.7e-05
3562	6.48e-05
3574	8.64e-05
3586	0.000108
3598	5.94e-05
3610	7.02e-05
3622	9.72e-05
3634	7.02e-05
3646	9.18e-05
3658	0.0001404
3670	7.02e-05
3682	4.32e-05
3694	0.0001242
3706	0.0001458
3718	0.000135
3730	0.0001728
3742	0.0001296
3754	0.0001728
3766	0.0002106
3778	0.0002106
3790	0.0001944
3802	0.0002322
3814	0.0002646
3826	0.0002484
3838	0.0002106
