Infrared Spectrum: m-Iodotoluene
Formula: C 7 H 7 I
CAS: 625-95-6
State: gas
Origin: EPA-IR VAPOR PHASE LIBRARY
1/CM	ABSORBANCE
501.5	0.0003243
513.074	0.00245
524.648	0.00291
536.222	0.0003282
547.796	0.0002562
559.37	0.0003671
570.944	0.0003653
582.518	1.83e-05
594.092	9e-06
605.666	0.0002313
617.24	0.0006014
628.814	0.00159
640.388	0.00496
651.962	0.02494
663.536	0.02785
675.11	0.02335
686.684	0.02011
698.258	0.0089
709.832	0.00255
721.406	0.00151
732.98	0.00354
744.554	0.01442
756.128	0.04468
767.702	0.07262
779.276	0.03894
790.85	0.0126
802.423	0.01363
813.997	0.03667
825.571	0.03783
837.145	0.00991
848.719	0.00429
860.293	0.0053
871.867	0.00832
883.441	0.00532
895.015	0.0025
906.589	0.00181
918.163	0.00157
929.737	0.00129
941.311	0.00116
952.885	0.00172
964.459	0.00277
976.033	0.00769
987.607	0.0187
999.181	0.01369
1010.76	0.01097
1022.33	0.00544
1033.9	0.004
1045.48	0.0096
1057.05	0.02693
1068.63	0.0239
1080.2	0.01007
1091.77	0.0056
1103.35	0.00312
1114.92	0.00215
1126.49	0.00126
1138.07	0.0008168
1149.64	0.00118
1161.22	0.00286
1172.79	0.00268
1184.36	0.0025
1195.94	0.00676
1207.51	0.01588
1219.09	0.00572
1230.66	0.0017
1242.23	0.00174
1253.81	0.00183
1265.38	0.00172
1276.96	0.00184
1288.53	0.00314
1300.1	0.00394
1311.68	0.00369
1323.25	0.0038
1334.83	0.00272
1346.4	0.00237
1357.97	0.00349
1369.55	0.00652
1381.12	0.00969
1392.7	0.01065
1404.27	0.01196
1415.84	0.01704
1427.42	0.01787
1438.99	0.01285
1450.57	0.01477
1462.14	0.03201
1473.71	0.05216
1485.29	0.03621
1496.86	0.01545
1508.44	0.01298
1520.01	0.01437
1531.58	0.01602
1543.16	0.01972
1554.73	0.03946
1566.31	0.06159
1577.88	0.04457
1589.45	0.05147
1601.03	0.03525
1612.6	0.00781
1624.18	0.00363
1635.75	0.00306
1647.32	0.00329
1658.9	0.00372
1670.47	0.00215
1682.05	0.0010385
1693.62	0.0008458
1705.19	0.0008623
1716.77	0.00146
1728.34	0.00267
1739.92	0.0034
1751.49	0.00294
1763.06	0.00272
1774.64	0.00256
1786.21	0.00226
1797.79	0.00163
1809.36	0.00132
1820.93	0.00146
1832.51	0.00214
1844.08	0.00283
1855.66	0.00388
1867.23	0.00272
1878.8	0.0010072
1890.38	0.0007113
1901.95	0.0010467
1913.53	0.00194
1925.1	0.00308
1936.67	0.00279
1948.25	0.00129
1959.82	0.0005466
1971.4	0.0003754
1982.97	0.0003744
1994.54	0.0003189
2006.12	0.000313
2017.69	0.0003549
2029.27	0.0003466
2040.84	0.0002919
2052.41	0.0002525
2063.99	0.0002533
2075.56	0.0002119
2087.14	0.00019369
2098.71	0.00015558
2110.28	0.0001702
2121.86	0.00016035
2133.43	0.00015798
2145.01	0.0002462
2156.58	0.0002854
2168.15	0.0003982
2179.73	0.0004456
2191.3	0.0004347
2202.88	0.0005459
2214.45	0.000482
2226.02	0.0004524
2237.6	0.0004744
2249.17	0.0004504
2260.74	0.0004391
2272.32	0.0004205
2283.89	0.0003858
2295.47	0.0003367
2307.04	0.0003206
2318.61	0.0004206
2330.19	0.0006413
2341.76	0.0008464
2353.34	0.0009488
2364.91	0.0009204
2376.48	0.0009286
2388.06	0.0009331
2399.63	0.0009462
2411.21	0.0009448
2422.78	0.0007339
2434.35	0.0005522
2445.93	0.0005242
2457.5	0.0005586
2469.08	0.0005839
2480.65	0.000578
2492.22	0.0006265
2503.8	0.0006712
2515.37	0.0005518
2526.95	0.000529
2538.52	0.0005325
2550.09	0.0005846
2561.67	0.0005693
2573.24	0.0006778
2584.82	0.0008597
2596.39	0.0007977
2607.96	0.000558
2619.54	0.0006892
2631.11	0.0006186
2642.69	0.0005339
2654.26	0.0004988
2665.83	0.0004548
2677.41	0.0003982
2688.98	0.000369
2700.56	0.0004209
2712.13	0.0004973
2723.7	0.0007343
2735.28	0.00123
2746.85	0.00185
2758.43	0.00145
2770	0.0010303
2781.57	0.0009922
2793.15	0.00115
2804.72	0.00141
2816.3	0.00165
2827.87	0.00216
2839.44	0.0034
2851.02	0.00586
2862.59	0.01007
2874.17	0.01368
2885.74	0.0139
2897.31	0.01461
2908.89	0.01783
2920.46	0.0256
2932.04	0.03394
2943.61	0.02845
2955.18	0.01745
2966.76	0.0113
2978.33	0.00933
2989.91	0.0124
3001.48	0.01588
3013.05	0.0179
3024.63	0.02127
3036.2	0.02468
3047.78	0.02601
3059.35	0.03543
3070.92	0.0312
3082.5	0.02114
3094.07	0.01246
3105.65	0.00482
3117.22	0.00244
3128.79	0.00149
3140.37	0.0010957
3151.94	0.0008572
3163.52	0.0007549
3175.09	0.0006928
3186.66	0.0005783
3198.24	0.0004745
3209.81	0.0003381
3221.39	0.0003671
3232.96	0.000322
3244.53	0.000253
3256.11	0.0002543
3267.68	0.0002199
3279.26	0.0002224
3290.83	0.0002261
3302.4	0.00020084
3313.98	0.00020303
3325.55	0.0002389
3337.13	0.0001608
3348.7	0.00018039
3360.27	0.0002305
3371.85	0.0002749
3383.42	0.0003147
3395	0.0002716
3406.57	0.0002866
3418.14	0.0002814
3429.72	0.0002584
3441.29	0.000257
3452.86	0.0002111
3464.44	0.0002942
3476.01	0.00019071
3487.59	0.00019558
3499.16	0.00013842
3510.73	0.00016546
3522.31	0.00013525
3533.88	0.00017203
3545.46	8.31e-05
3557.03	0.0002113
3568.6	0.0002355
3580.18	0.0002628
3591.75	0.0002846
3603.33	0.0002494
3614.9	0.00015108
3626.47	0.00014259
3638.05	0.000115175
3649.62	0.00020074
3661.2	0.0002961
3672.77	0.0003713
3684.34	0.0004255
3695.92	0.0003873
3707.49	0.0003519
3719.07	0.0004086
3730.64	0.0004597
3742.21	0.0005412
3753.79	0.0003281
3765.36	0.00015621
3776.94	0.00013277
3788.51	0.00018884
3800.08	0.00020617
3811.66	0.0002958
3823.23	0.0002377
3834.81	0.0003013
3846.38	0.0002569
3857.95	0.0003768
3869.53	0.0005134
3881.1	0.0006812
3892.68	0.0006378
3904.25	0.0005327
3915.82	0.0005033
3927.4	0.0003652
3938.97	0.0003299
3950.55	0.0003826
3962.12	0.0003697
3973.69	0.0003854
3985.27	0.0004427
3996.84	0.0005007
