Infrared Spectrum: 2,4-DIMETHYLPYRROLE
Formula: C6 H9 N
CAS: 625-82-1
State: LIQUID (NEAT)
Boiling point: 165 C
Class: COBLENTZ III
Instrument: BAIRD (PRISM)
Instrument parameters: NaCl PRISM
Sampling: TRANSMISSION
Path length: 0.003 CM
Resolution: 2
Origin: WYANDOTTE CHEMICALS CORP.
MICROMETERS	TRANSMITTANCE
2	0.96
2.03786	0.9599
2.07571	0.9488
2.11357	0.9291
2.15142	0.925
2.18928	0.8892
2.22714	0.8742
2.26499	0.9198
2.30285	0.939
2.3407	0.9129
2.37856	0.9085
2.41642	0.938
2.45427	0.9381
2.49213	0.925
2.52998	0.9368
2.56784	0.948
2.60569	0.957
2.64355	0.96
2.68141	0.9506
2.71926	0.938
2.75712	0.933
2.79497	0.909
2.83283	0.8516
2.87069	0.6065
2.90854	0.3735
2.9464	0.0788
2.98425	0.018
3.02211	0.1032
3.05997	0.198
3.09782	0.272
3.13568	0.439
3.17353	0.5248
3.21139	0.583
3.24925	0.4093
3.2871	0.5129
3.32496	0.3442
3.36281	0.1613
3.40067	0.05
3.43852	0.0834
3.47638	0.134
3.51424	0.2073
3.55209	0.5605
3.58995	0.7216
3.6278	0.7621
3.66566	0.6546
3.70352	0.8379
3.74137	0.8488
3.77923	0.8835
3.81708	0.894
3.85494	0.9118
3.8928	0.894
3.93065	0.89
3.96851	0.835
4.00636	0.8714
4.04422	0.9017
4.08208	0.9141
4.11993	0.919
4.15779	0.914
4.19564	0.8984
4.2335	0.8861
4.27135	0.914
4.30921	0.9301
4.34707	0.9424
4.38492	0.961
4.42278	0.9571
4.46063	0.961
4.49849	0.966
4.53635	0.96
4.5742	0.956
4.61206	0.9599
4.64991	0.971
4.68777	0.973
4.72563	0.967
4.76348	0.961
4.80134	0.956
4.83919	0.96
4.87705	0.967
4.91491	0.9752
4.95276	0.985
4.99062	0.985
5.02847	0.9781
5.06633	0.9714
5.10418	0.9613
5.14204	0.9644
5.1799	0.9805
5.21775	0.9804
5.25561	0.9795
5.29346	0.973
5.33132	0.977
5.36918	0.9711
5.40703	0.967
5.44489	0.963
5.48274	0.9604
5.5206	0.9445
5.55846	0.945
5.59631	0.949
5.63417	0.945
5.67202	0.941
5.70988	0.9443
5.74774	0.9062
5.78559	0.85
5.82345	0.859
5.8613	0.856
5.89916	0.8547
5.93701	0.8602
5.97487	0.866
6.01273	0.862
6.05058	0.856
6.08844	0.8417
6.12629	0.8168
6.16415	0.7619
6.20201	0.6073
6.23986	0.1721
6.27772	0.4625
6.31557	0.6415
6.35343	0.647
6.39129	0.6589
6.42914	0.6555
6.467	0.6086
6.50485	0.5825
6.54271	0.4458
6.58057	0.3812
6.61842	0.4707
6.65628	0.1743
6.69413	0.25
6.73199	0.3162
6.76985	0.242
6.8077	0.1964
6.84556	0.1615
6.88341	0.1544
6.92127	0.2141
6.95912	0.2364
6.99698	0.1807
7.03484	0.1549
7.07269	0.2859
7.11055	0.3454
7.1484	0.216
7.18626	0.1892
7.22412	0.2231
7.26197	0.3635
7.29983	0.4786
7.33768	0.555
7.37554	0.5749
7.4134	0.576
7.45125	0.5502
7.48911	0.362
7.52696	0.284
7.56482	0.5658
7.60268	0.6659
7.64053	0.6598
7.67839	0.6051
7.71624	0.3784
7.7541	0.3496
7.79195	0.5288
7.82981	0.6441
7.86767	0.6884
7.90552	0.6799
7.94338	0.5735
7.98123	0.5249
8.01909	0.5747
8.05695	0.6525
8.0948	0.661
8.13266	0.6739
8.17051	0.69
8.20837	0.6908
8.24623	0.689
8.28408	0.689
8.32194	0.687
8.35979	0.6873
8.39765	0.6774
8.43551	0.668
8.47336	0.6536
8.51122	0.6013
8.54907	0.4461
8.58693	0.3989
8.62478	0.4558
8.66264	0.4112
8.7005	0.3282
8.73835	0.4794
8.77621	0.514
8.81406	0.5058
8.85192	0.4025
8.88978	0.296
8.92763	0.1397
8.96549	0.0601
9.00334	0.1519
9.0412	0.3061
9.07906	0.4076
9.11691	0.4554
9.15477	0.5034
9.19262	0.5295
9.23048	0.5461
9.26834	0.557
9.30619	0.5609
9.34405	0.563
9.3819	0.569
9.41976	0.569
9.45761	0.5635
9.49547	0.5389
9.53333	0.3826
9.57118	0.1965
9.60904	0.1813
9.64689	0.3196
9.68475	0.4969
9.72261	0.5613
9.76046	0.6153
9.79832	0.6459
9.83617	0.6823
9.87403	0.7122
9.91189	0.7311
9.94974	0.74
9.9876	0.7291
10.0255	0.6871
10.0633	0.5851
10.1012	0.5223
10.139	0.4073
10.1769	0.4371
10.2147	0.5149
10.2526	0.553
10.2904	0.5361
10.3283	0.521
10.3662	0.5183
10.404	0.4886
10.4419	0.4035
10.4797	0.3804
10.5176	0.4456
10.5554	0.5233
10.5933	0.5836
10.6311	0.6417
10.669	0.6647
10.7069	0.6899
10.7447	0.7136
10.7826	0.742
10.8204	0.7609
10.8583	0.7773
10.8961	0.793
10.934	0.8031
10.9719	0.814
11.0097	0.8208
11.0476	0.8257
11.0854	0.8356
11.1233	0.831
11.1611	0.825
11.199	0.825
11.2368	0.8209
11.2747	0.812
11.3126	0.7894
11.3504	0.7592
11.3883	0.7453
11.4261	0.7498
11.464	0.7789
11.5018	0.7974
11.5397	0.808
11.5775	0.8028
11.6154	0.794
11.6533	0.788
11.6911	0.7963
11.729	0.801
11.7668	0.7935
11.8047	0.7841
11.8425	0.7647
11.8804	0.7536
11.9182	0.7347
11.9561	0.712
11.994	0.6961
12.0318	0.6677
12.0697	0.6471
12.1075	0.6168
12.1454	0.5806
12.1832	0.5284
12.2211	0.4731
12.259	0.4095
12.2968	0.3401
12.3347	0.2744
12.3725	0.2239
12.4104	0.171
12.4482	0.1349
12.4861	0.101
12.5239	0.0797
12.5618	0.0678
12.5997	0.0619
12.6375	0.056
12.6754	0.052
12.7132	0.049
12.7511	0.0506
12.7889	0.058
12.8268	0.0936
12.8646	0.1505
12.9025	0.2226
12.9404	0.3001
12.9782	0.3693
13.0161	0.4139
13.0539	0.4675
13.0918	0.5046
13.1296	0.5289
13.1675	0.5414
13.2054	0.5542
13.2432	0.555
13.2811	0.543
13.3189	0.5213
13.3568	0.4968
13.3946	0.459
13.4325	0.4156
13.4703	0.3769
13.5082	0.343
13.5461	0.3103
13.5839	0.2979
13.6218	0.287
13.6596	0.2772
13.6975	0.27
13.7353	0.27
13.7732	0.2776
13.811	0.3007
13.8489	0.3253
13.8868	0.3546
13.9246	0.3991
13.9625	0.4249
14.0003	0.4416
14.0382	0.4495
14.076	0.4685
14.1139	0.5186
14.1517	0.5484
14.1896	0.5876
14.2275	0.6064
14.2653	0.6281
14.3032	0.6409
14.341	0.6548
14.3789	0.6637
14.4167	0.6694
14.4546	0.6773
14.4925	0.6812
14.5303	0.684
14.5682	0.683
14.606	0.687
14.6439	0.6783
14.6817	0.6766
14.7196	0.674
14.7574	0.6706
14.7953	0.6643
14.8332	0.6478
14.871	0.638
14.9089	0.6191
14.9467	0.6112
14.9846	0.6043
15.0224	0.594
15.0603	0.5796
15.0981	0.5463
15.136	0.5187
15.1739	0.5053
15.2117	0.481
15.2496	0.4633
15.2874	0.452
15.3253	0.4403
15.3631	0.428
15.401	0.423
15.4388	0.4227
15.4767	0.422
15.5146	0.428
15.5524	0.44
15.5903	0.4507
15.6281	0.4743
15.666	0.4957
15.7038	0.5268
15.7417	0.5512
15.7796	0.5713
15.8174	0.5992
15.8553	0.6071
15.8931	0.612
15.931	0.6169
