Infrared Spectrum: Di-n-butyl sulphate
Formula: C 8 H 18 O 4 S
CAS: 625-22-9
State: gas
Origin: EPA-IR VAPOR PHASE LIBRARY
1/CM	ABSORBANCE
549.9	0.02431
559.547	0.02512
569.193	0.02747
578.84	0.02754
588.486	0.02457
598.133	0.02613
607.779	0.02989
617.426	0.02149
627.072	0.01256
636.719	0.00837
646.365	0.0067
656.012	0.00591
665.658	0.0059
675.305	0.00602
684.951	0.00666
694.598	0.00784
704.245	0.0105
713.891	0.01621
723.538	0.02584
733.184	0.03365
742.831	0.03296
752.477	0.03154
762.124	0.03267
771.77	0.03635
781.417	0.04115
791.063	0.05036
800.71	0.06502
810.356	0.07712
820.003	0.08868
829.649	0.09211
839.296	0.07888
848.943	0.05721
858.589	0.05018
868.236	0.06881
877.882	0.11035
887.529	0.15244
897.175	0.14357
906.822	0.113
916.468	0.10334
926.115	0.14243
935.761	0.24192
945.408	0.29272
955.054	0.22868
964.701	0.16939
974.347	0.12926
983.994	0.11234
993.64	0.11705
1003.29	0.1179
1012.93	0.10262
1022.58	0.07544
1032.23	0.04575
1041.87	0.03099
1051.52	0.03733
1061.17	0.04015
1070.81	0.03035
1080.46	0.02024
1090.11	0.01519
1099.75	0.01256
1109.4	0.01218
1119.05	0.01296
1128.69	0.013
1138.34	0.01254
1147.99	0.01223
1157.63	0.0126
1167.28	0.01563
1176.92	0.02725
1186.57	0.0769
1196.22	0.20233
1205.86	0.1966
1215.51	0.06778
1225.16	0.0279
1234.8	0.02059
1244.45	0.01707
1254.1	0.01463
1263.74	0.01276
1273.39	0.01065
1283.04	0.00919
1292.68	0.00901
1302.33	0.0095
1311.98	0.00931
1321.62	0.00938
1331.27	0.01038
1340.92	0.01308
1350.56	0.01704
1360.21	0.02431
1369.86	0.0389
1379.5	0.06506
1389.15	0.09913
1398.79	0.1403
1408.44	0.15615
1418.09	0.13643
1427.73	0.0863
1437.38	0.03932
1447.03	0.02633
1456.67	0.02708
1466.32	0.02933
1475.97	0.02567
1485.61	0.01654
1495.26	0.01007
1504.91	0.00703
1514.55	0.00554
1524.2	0.00458
1533.85	0.0040491
1543.49	0.0037235
1553.14	0.0035654
1562.79	0.0033872
1572.43	0.0032368
1582.08	0.00328051
1591.73	0.0033133
1601.37	0.00327615
1611.02	0.00327389
1620.67	0.0033798
1630.31	0.00331259
1639.96	0.003298
1649.6	0.0034755
1659.25	0.0036347
1668.9	0.0038907
1678.54	0.0039138
1688.19	0.0039329
1697.84	0.0038304
1707.48	0.0038967
1717.13	0.0038569
1726.78	0.0038561
1736.42	0.0039111
1746.07	0.0038228
1755.72	0.0037527
1765.36	0.0037023
1775.01	0.003712
1784.66	0.0036366
1794.3	0.003457
1803.95	0.003363
1813.6	0.0032015
1823.24	0.003011
1832.89	0.002821
1842.54	0.002723
1852.18	0.002539
1861.83	0.002402
1871.47	0.002266
1881.12	0.00218
1890.77	0.00211
1900.41	0.00204
1910.06	0.00206
1919.71	0.00199
1929.35	0.00198
1939	0.00193
1948.65	0.00192
1958.29	0.00187
1967.94	0.00182
1977.59	0.00178
1987.23	0.00171
1996.88	0.0017
2006.53	0.00169
2016.17	0.00166
2025.82	0.00177
2035.47	0.00176
2045.11	0.00182
2054.76	0.00175
2064.41	0.00177
2074.05	0.00173
2083.7	0.00181
2093.35	0.00179
2102.99	0.00176
2112.64	0.00181
2122.28	0.00174
2131.93	0.00191
2141.58	0.00194
2151.22	0.00194
2160.87	0.00201
2170.52	0.00199
2180.16	0.00206
2189.81	0.00195
2199.46	0.00188
2209.1	0.00185
2218.75	0.00183
2228.4	0.0017
2238.04	0.00166
2247.69	0.00165
2257.34	0.00163
2266.98	0.00165
2276.63	0.00158
2286.28	0.0016
2295.92	0.00163
2305.57	0.0016
2315.22	0.00158
2324.86	0.00155
2334.51	0.00157
2344.16	0.00165
2353.8	0.00162
2363.45	0.00165
2373.09	0.00183
2382.74	0.00207
2392.39	0.00218
2402.03	0.00209
2411.68	0.00194
2421.33	0.0017
2430.97	0.00171
2440.62	0.00168
2450.27	0.0016
2459.91	0.00154
2469.56	0.00152
2479.21	0.00146
2488.85	0.00144
2498.5	0.00144
2508.15	0.00146
2517.79	0.00155
2527.44	0.00158
2537.09	0.00151
2546.73	0.00158
2556.38	0.00179
2566.03	0.00193
2575.67	0.00222
2585.32	0.002418
2594.96	0.00254
2604.61	0.002431
2614.26	0.002266
2623.9	0.00199
2633.55	0.00184
2643.2	0.00175
2652.84	0.0017
2662.49	0.00187
2672.14	0.00202
2681.78	0.00208
2691.43	0.00209
2701.08	0.00214
2710.72	0.00224
2720.37	0.002289
2730.02	0.00258
2739.66	0.002991
2749.31	0.0034362
2758.96	0.0036132
2768.6	0.0035136
2778.25	0.003616
2787.9	0.0038538
2797.54	0.00434
2807.19	0.00486
2816.84	0.00594
2826.48	0.00733
2836.13	0.00967
2845.77	0.0141
2855.42	0.01972
2865.07	0.02669
2874.71	0.04021
2884.36	0.05518
2894.01	0.05291
2903.65	0.05044
2913.3	0.06001
2922.95	0.06793
2932.59	0.07776
2942.24	0.09942
2951.89	0.10637
2961.53	0.12122
2971.18	0.15517
2980.83	0.1246
2990.47	0.07286
3000.12	0.04198
3009.77	0.02397
3019.41	0.01477
3029.06	0.01019
3038.71	0.00787
3048.35	0.00611
3058	0.00489
3067.64	0.0039008
3077.29	0.0034271
3086.94	0.003041
3096.58	0.002694
3106.23	0.002557
3115.88	0.00207
3125.52	0.00186
3135.17	0.00154
3144.82	0.00152
3154.46	0.00138
3164.11	0.00128
3173.76	0.0012
3183.4	0.00118
3193.05	0.00098
3202.7	0.00095
3212.34	0.00085
3221.99	0.00078
3231.64	0.00051
3241.28	0.00056
3250.93	0.00049
3260.58	0.0003
3270.22	0.00026
3279.87	0.00016
3289.52	0.00034
3299.16	0.00029
3308.81	0.00038
3318.45	0.00018
3328.1	0.00036
3337.75	0.00054
3347.39	0.00053
3357.04	0.00031
3366.69	0.00052
3376.33	0.00054
3385.98	0.00051
3395.63	0.00049
3405.27	0.00044
3414.92	0.00059
3424.57	0.00057
3434.21	0.00051
3443.86	0.00034
3453.51	0.00051
3463.15	0.00055
3472.8	0.00052
3482.45	0.00078
3492.09	0.00069
3501.74	0.00063
3511.39	0.00081
3521.03	0.00086
3530.68	0.00089
3540.33	0.00082
3549.97	0.00088
3559.62	0.00085
3569.26	0.00085
3578.91	0.00074
3588.56	0.00083
3598.2	0.00089
3607.85	0.00092
3617.5	0.00101
3627.14	0.00106
3636.79	0.00114
3646.44	0.00108
3656.08	0.00124
3665.73	0.00116
3675.38	0.00133
3685.02	0.00133
3694.67	0.00131
3704.32	0.00121
3713.96	0.00128
3723.61	0.00135
3733.26	0.00134
3742.9	0.00146
3752.55	0.0014
3762.2	0.00143
3771.84	0.00146
3781.49	0.00155
3791.13	0.00144
3800.78	0.00158
3810.43	0.00147
3820.07	0.00146
3829.72	0.00141
3839.37	0.00149
3849.01	0.00161
3858.66	0.0017
3868.31	0.00173
3877.95	0.0016
3887.6	0.00173
3897.25	0.00182
3906.89	0.00176
3916.54	0.00192
3926.19	0.00179
3935.83	0.0019
3945.48	0.00169
3955.13	0.0018
3964.77	0.00177
3974.42	0.00174
3984.07	0.00176
3993.71	0.0019
