Infrared Spectrum: 2-Methyl-2-hexanol
Formula: C 7 H 16 O
CAS: 625-23-0
State: gas
Instrument: HP-GC/MS/IRD
Origin: NIST Mass Spectrometry Data Center
1/CM	ABSORBANCE
550	0.000391
562	0.0001035
574	0.0001012
586	2.07e-05
598	7.59e-05
610	5.75e-05
622	7.13e-05
634	8.51e-05
646	0.0001219
658	6.21e-05
670	9.2e-05
682	0.0001196
694	0.0001679
706	0.0001932
718	0.0002024
730	0.0003381
742	0.0003565
754	0.0004991
766	0.0004945
778	0.0004439
790	0.0003772
802	0.0002852
814	0.000184
826	0.0002691
838	0.0002162
850	0.0003128
862	0.0004738
874	0.000713
886	0.0013892
898	0.0027048
910	0.0034615
922	0.0024748
934	0.0015824
946	0.0015111
958	0.0015939
970	0.0012328
982	0.0007912
994	0.0005566
1006	0.0004393
1018	0.0004186
1030	0.0005037
1042	0.0007889
1054	0.0013087
1066	0.0018515
1078	0.0021574
1090	0.002208
1102	0.0020539
1114	0.0023713
1126	0.0032729
1138	0.0038847
1150	0.0041998
1162	0.0046161
1174	0.0044137
1186	0.003519
1198	0.0028842
1210	0.0029762
1222	0.0032499
1234	0.003197
1246	0.0027968
1258	0.0024265
1270	0.0021942
1282	0.0020631
1294	0.0020447
1306	0.0021321
1318	0.0022149
1330	0.0023414
1342	0.0024955
1354	0.0029394
1366	0.0043493
1378	0.0053567
1390	0.003956
1402	0.0017687
1414	0.001035
1426	0.0009867
1438	0.0013064
1450	0.0020217
1462	0.0027876
1474	0.0025162
1486	0.0014421
1498	0.0006877
1510	0.0004094
1522	0.0003036
1534	0.0002415
1546	0.0001771
1558	0.0001702
1570	0.0001242
1582	0.0001058
1594	0.0001173
1606	7.59e-05
1618	0.0001081
1630	0.000115
1642	0.0001196
1654	0.0001173
1666	0.0001196
1678	0.0001127
1690	8.97e-05
1702	8.74e-05
1714	6.67e-05
1726	4.6e-05
1738	5.06e-05
1750	5.06e-05
1762	5.06e-05
1774	6.9e-05
1786	5.06e-05
1798	7.36e-05
1810	6.21e-05
1822	6.44e-05
1834	5.75e-05
1846	5.98e-05
1858	3.68e-05
1870	3.68e-05
1882	4.6e-05
1894	3.45e-05
1906	1.15e-05
1918	3.45e-05
1930	2.3e-05
1942	9.2e-06
1954	2.07e-05
1966	2.3e-05
1978	9.2e-06
1990	3.45e-05
2002	2.99e-05
2014	3.45e-05
2026	2.76e-05
2038	3.91e-05
2050	4.37e-05
2062	3.91e-05
2074	2.99e-05
2086	4.14e-05
2098	1.61e-05
2110	1.38e-05
2122	5.06e-05
2134	5.06e-05
2146	4.37e-05
2158	3.68e-05
2170	3.45e-05
2182	1.38e-05
2194	3.91e-05
2206	4.14e-05
2218	2.3e-05
2230	2.07e-05
2242	3.22e-05
2254	4.14e-05
2266	6.44e-05
2278	5.98e-05
2290	5.29e-05
2302	3.68e-05
2314	4.14e-05
2326	3.68e-05
2338	5.75e-05
2350	4.37e-05
2362	4.6e-05
2374	5.98e-05
2386	4.14e-05
2398	5.75e-05
2410	3.22e-05
2422	2.07e-05
2434	3.22e-05
2446	4.6e-05
2458	1.84e-05
2470	1.38e-05
2482	2.53e-05
2494	3.68e-05
2506	2.53e-05
2518	2.53e-05
2530	5.29e-05
2542	3.22e-05
2554	7.13e-05
2566	7.82e-05
2578	5.98e-05
2590	8.51e-05
2602	9.43e-05
2614	8.28e-05
2626	0.0001127
2638	9.43e-05
2650	0.0001334
2662	0.0001564
2674	0.0001541
2686	0.0001702
2698	0.0001932
2710	0.0002254
2722	0.0002783
2734	0.0003381
2746	0.0004002
2758	0.0003749
2770	0.0004002
2782	0.00046
2794	0.0006578
2806	0.0008395
2818	0.0010902
2830	0.001518
2842	0.0024449
2854	0.0040319
2866	0.0063549
2878	0.0083145
2890	0.0083352
2902	0.0083444
2914	0.0105823
2926	0.0146993
2938	0.018561
2950	0.0181631
2962	0.0205321
2974	0.022793
2986	0.0144187
2998	0.0056626
3010	0.0023874
3022	0.001426
3034	0.0009867
3046	0.0007682
3058	0.0006187
3070	0.000506
3082	0.0004669
3094	0.0004301
3106	0.0004002
3118	0.0003634
3130	0.0003289
3142	0.0002415
3154	0.0002415
3166	0.0002484
3178	0.0002622
3190	0.00023
3202	0.000207
3214	0.0001886
3226	0.0001564
3238	0.0001196
3250	0.0001058
3262	7.82e-05
3274	9.2e-06
3286	3.45e-05
3298	3.45e-05
3310	3.68e-05
3322	9.66e-05
3334	9.43e-05
3346	9.66e-05
3358	5.52e-05
3370	0.0001035
3382	6.21e-05
3394	9.66e-05
3406	9.89e-05
3418	9.66e-05
3430	8.51e-05
3442	8.28e-05
3454	8.51e-05
3466	5.52e-05
3478	4.37e-05
3490	5.06e-05
3502	4.6e-05
3514	4.14e-05
3526	3.22e-05
3538	1.61e-05
3550	5.29e-05
3562	3.68e-05
3574	7.36e-05
3586	1.84e-05
3598	6.44e-05
3610	0.0001633
3622	0.0004922
3634	0.0011454
3646	0.0012834
3658	0.0006601
3670	0.0002162
3682	0.000138
3694	0.0001035
3706	7.82e-05
3718	5.98e-05
3730	4.83e-05
3742	4.83e-05
3754	3.45e-05
3766	2.99e-05
3778	2.99e-05
3790	0.000115
3802	8.97e-05
3814	8.28e-05
3826	0.0001104
3838	8.74e-05
