Infrared Spectrum: SUCCINIC ANHYDRIDE, 2-(2-DECENYL)-
Formula: C14 H22 O3
CAS: 62568-81-4
State: LIQUID (NEAT)
Class: COBLENTZ III
Instrument: PERKIN-ELMER 521 (GRATING)
Instrument parameters: FILTERS AT 3150, 2500, 2000, 1150, 700, 410 AND GRATING CHANGES AT 2000, 630 CM^-^1
Sampling: TRANSMISSION
Path length: SMEAR, CsBr CRYSTAL
Resolution: 4
Origin: STANDARD OIL OF OHIO
1/CM	TRANSMITTANCE
263.403	0.827
272.955	0.848
282.508	0.866
292.06	0.873
301.612	0.885
311.164	0.89
320.717	0.891
330.269	0.915
339.821	0.918
349.373	0.91
358.926	0.927
368.478	0.923
378.03	0.924
387.582	0.917
397.135	0.896
406.687	0.864
416.239	0.848
425.791	0.87
435.344	0.901
444.896	0.905
454.448	0.907
464.001	0.905
473.553	0.902
483.105	0.901
492.657	0.899
502.21	0.898
511.762	0.899
521.314	0.897
530.866	0.89
540.419	0.88
549.971	0.884
559.523	0.879
569.075	0.859
578.628	0.796
588.18	0.816
597.732	0.822
607.284	0.81
616.837	0.821
626.389	0.823
635.941	0.821
645.494	0.846
655.046	0.858
664.598	0.865
674.15	0.87
683.703	0.868
693.255	0.865
702.807	0.852
712.359	0.811
721.912	0.705
731.464	0.744
741.016	0.809
750.568	0.846
760.121	0.865
769.673	0.862
779.225	0.855
788.777	0.856
798.33	0.873
807.882	0.884
817.434	0.877
826.987	0.868
836.539	0.872
846.091	0.878
855.643	0.874
865.196	0.858
874.748	0.811
884.3	0.709
893.852	0.578
903.405	0.532
912.957	0.411
922.509	0.35
932.061	0.432
941.614	0.569
951.166	0.685
960.718	0.703
970.27	0.587
979.823	0.538
989.375	0.619
998.927	0.688
1008.48	0.669
1018.03	0.663
1027.58	0.687
1037.14	0.667
1046.69	0.582
1056.24	0.506
1065.79	0.401
1075.35	0.404
1084.9	0.579
1094.45	0.731
1104	0.793
1113.55	0.814
1123.11	0.821
1132.66	0.828
1142.21	0.835
1151.76	0.816
1161.32	0.799
1170.87	0.79
1180.42	0.769
1189.97	0.735
1199.52	0.692
1209.08	0.636
1218.63	0.551
1228.18	0.473
1237.73	0.5
1247.29	0.561
1256.84	0.648
1266.39	0.725
1275.94	0.767
1285.5	0.775
1295.05	0.783
1304.6	0.766
1314.15	0.774
1323.7	0.79
1333.26	0.8
1342.81	0.808
1352.36	0.821
1361.91	0.833
1371.47	0.833
1381.02	0.806
1390.57	0.852
1400.12	0.842
1409.67	0.753
1419.23	0.7371
1428.78	0.787
1438.33	0.716
1447.88	0.729
1457.44	0.696
1466.99	0.682
1476.54	0.828
1486.09	0.86
1495.64	0.87
1505.2	0.878
1514.75	0.88
1524.3	0.884
1533.85	0.885
1543.41	0.886
1552.96	0.887
1562.51	0.886
1572.06	0.887
1581.62	0.887
1591.17	0.887
1600.72	0.886
1610.27	0.885
1619.82	0.885
1629.38	0.884
1638.93	0.882
1648.48	0.882
1658.03	0.871
1667.59	0.864
1677.14	0.874
1686.69	0.873
1696.24	0.86
1705.79	0.853
1715.35	0.846
1724.9	0.841
1734.45	0.816
1744	0.781
1753.56	0.703
1763.11	0.5999
1772.66	0.3318
1782.21	0.11
1791.77	0.1161
1801.32	0.2841
1810.87	0.4921
1820.42	0.598
1829.97	0.629
1839.53	0.605
1849.08	0.566
1858.63	0.4989
1868.18	0.45
1877.74	0.599
1887.29	0.773
1896.84	0.833
1906.39	0.854
1915.94	0.864
1925.5	0.876
1935.05	0.877
1944.6	0.879
1954.15	0.882
1963.71	0.887
1973.26	0.891
1982.81	0.892
1992.36	0.893
2001.91	0.893
2011.47	0.895
2021.02	0.897
2030.57	0.898
2040.12	0.899
2049.68	0.899
2059.23	0.899
2068.78	0.899
2078.33	0.899
2087.89	0.899
2097.44	0.898
2106.99	0.897
2116.54	0.896
2126.09	0.896
2135.65	0.895
2145.2	0.896
2154.75	0.897
2164.3	0.899
2173.86	0.902
2183.41	0.902
2192.96	0.903
2202.51	0.9039
2212.06	0.907
2221.62	0.907
2231.17	0.907
2240.72	0.907
2250.27	0.907
2259.83	0.908
2269.38	0.908
2278.93	0.907
2288.48	0.909
2298.04	0.911
2307.59	0.914
2317.14	0.915
2326.69	0.915
2336.24	0.915
2345.8	0.915
2355.35	0.915
2364.9	0.915
2374.45	0.915
2384.01	0.914
2393.56	0.914
2403.11	0.914
2412.66	0.9158
2422.21	0.916
2431.77	0.916
2441.32	0.917
2450.87	0.918
2460.42	0.918
2469.98	0.918
2479.53	0.917
2489.08	0.9172
2498.63	0.9178
2508.18	0.918
2517.74	0.918
2527.29	0.917
2536.84	0.917
2546.39	0.917
2555.95	0.917
2565.5	0.917
2575.05	0.917
2584.6	0.917
2594.16	0.9167
2603.71	0.9153
2613.26	0.9143
2622.81	0.912
2632.36	0.912
2641.92	0.911
2651.47	0.912
2661.02	0.911
2670.57	0.9103
2680.13	0.911
2689.68	0.9117
2699.23	0.912
2708.78	0.9113
2718.33	0.91
2727.89	0.91
2737.44	0.91
2746.99	0.91
2756.54	0.91
2766.1	0.908
2775.65	0.9043
2785.2	0.9013
2794.75	0.8974
2804.3	0.8857
2813.86	0.8698
2823.41	0.8515
2832.96	0.8055
2842.51	0.6912
2852.07	0.5071
2861.62	0.4646
2871.17	0.5922
2880.72	0.6402
2890.28	0.6503
2899.83	0.575
2909.38	0.4818
2918.93	0.35
2928.48	0.27
2938.04	0.3574
2947.59	0.4797
2957.14	0.4574
2966.69	0.5124
2976.25	0.682
2985.8	0.7625
2995.35	0.7887
3004.9	0.8086
3014.45	0.8231
3024.01	0.8492
3033.56	0.858
3043.11	0.8682
3052.66	0.8856
3062.22	0.899
3071.77	0.9061
3081.32	0.908
3090.87	0.9095
3100.43	0.911
3109.98	0.914
3119.53	0.917
3129.08	0.9175
3138.63	0.918
3148.19	0.918
3157.74	0.918
3167.29	0.918
3176.84	0.918
3186.4	0.918
3195.95	0.918
3205.5	0.918
3215.05	0.918
3224.6	0.9189
3234.16	0.92
3243.71	0.92
3253.26	0.92
3262.81	0.92
3272.37	0.92
3281.92	0.918
3291.47	0.917
3301.02	0.917
3310.57	0.9174
3320.13	0.917
3329.68	0.917
3339.23	0.917
3348.78	0.917
3358.34	0.918
3367.89	0.917
3377.44	0.917
3386.99	0.918
3396.55	0.9188
3406.1	0.92
3415.65	0.92
3425.2	0.9204
3434.75	0.922
3444.31	0.9234
3453.86	0.9264
3463.41	0.927
3472.96	0.927
3482.52	0.927
3492.07	0.9274
3501.62	0.9287
3511.17	0.9277
3520.72	0.927
3530.28	0.927
3539.83	0.927
3549.38	0.927
3558.93	0.927
3568.49	0.927
3578.04	0.9263
3587.59	0.924
3597.14	0.9201
3606.7	0.911
3616.25	0.909
3625.8	0.9083
3635.35	0.909
3644.9	0.9189
3654.46	0.9283
3664.01	0.9306
3673.56	0.933
3683.11	0.935
3692.67	0.938
3702.22	0.938
3711.77	0.939
3721.32	0.94
3730.87	0.94
3740.43	0.941
3749.98	0.94
3759.53	0.94
3769.08	0.94
3778.64	0.94
3788.19	0.94
3797.74	0.94
3807.29	0.94
3816.84	0.94
3826.4	0.94
3835.95	0.94
3845.5	0.94
3855.05	0.94
3864.61	0.94
3874.16	0.94
3883.71	0.94
3893.26	0.942
