Infrared Spectrum: 4-Chlorobenzyl mercaptan
Formula: C 7 H 7 Cl S
CAS: 6258-66-8
State: gas
Instrument: HP-GC/MS/IRD
Origin: NIST Mass Spectrometry Data Center
1/CM	ABSORBANCE
550	0.000561
562	4.25e-05
574	0.0001785
586	0.0001615
598	0.000629
610	0.0023035
622	0.0101915
634	0.014654
646	0.0043605
658	0.002363
670	0.002771
682	0.003893
694	0.004403
706	0.005168
718	0.007378
730	0.0076925
742	0.0054825
754	0.0041395
766	0.004607
778	0.0068085
790	0.014195
802	0.022712
814	0.0342125
826	0.0366945
838	0.022712
850	0.009571
862	0.004216
874	0.0025075
886	0.0019465
898	0.001836
910	0.0016575
922	0.001513
934	0.0015555
946	0.001666
958	0.0019465
970	0.002822
982	0.0036295
994	0.004403
1006	0.0172295
1018	0.0340595
1030	0.005814
1042	0.002805
1054	0.0027965
1066	0.0051085
1078	0.016779
1090	0.071145
1102	0.065943
1114	0.014569
1126	0.0060945
1138	0.003672
1150	0.002754
1162	0.002669
1174	0.0033575
1186	0.0041395
1198	0.00442
1210	0.0045815
1222	0.0068595
1234	0.006902
1246	0.011441
1258	0.011832
1270	0.00544
1282	0.002856
1294	0.0019465
1306	0.001802
1318	0.0017935
1330	0.00153
1342	0.001343
1354	0.0011815
1366	0.0013515
1378	0.002312
1390	0.0051255
1402	0.0083215
1414	0.008415
1426	0.0082025
1438	0.009588
1450	0.007021
1462	0.0068595
1474	0.0168555
1486	0.0693005
1498	0.068119
1510	0.014603
1522	0.005168
1534	0.002176
1546	0.0015555
1558	0.0016745
1570	0.0023375
1582	0.0041905
1594	0.007837
1606	0.0053295
1618	0.0023375
1630	0.0025925
1642	0.002975
1654	0.0024735
1666	0.001394
1678	0.000731
1690	0.0004675
1702	0.000442
1714	0.000731
1726	0.0010455
1738	0.000901
1750	0.0010965
1762	0.0020145
1774	0.0023035
1786	0.0007905
1798	0.0003655
1810	0.000221
1822	0.0001445
1834	0.000119
1846	0.000204
1858	0.0006035
1870	0.001649
1882	0.003196
1894	0.0034595
1906	0.001938
1918	0.000731
1930	0.0003485
1942	0.000323
1954	0.000323
1966	0.0002805
1978	0.000153
1990	5.95e-05
2002	0
2014	8.5e-06
2026	4.25e-05
2038	5.95e-05
2050	1.7e-05
2062	2.55e-05
2074	8.5e-06
2086	8.5e-06
2098	3.4e-05
2110	4.25e-05
2122	2.55e-05
2134	3.4e-05
2146	1.7e-05
2158	8.5e-06
2170	1.7e-05
2182	2.55e-05
2194	8.5e-05
2206	7.65e-05
2218	0.0001445
2230	0.0001615
2242	0.0001445
2254	0.00017
2266	0.000306
2278	0.0005185
2290	0.0005525
2302	0.0004675
2314	0.0003655
2326	0.000289
2338	0.0001785
2350	0.0001275
2362	9.35e-05
2374	0.000136
2386	0.0001445
2398	0.0002635
2410	0.000306
2422	0.000187
2434	8.5e-05
2446	5.1e-05
2458	4.25e-05
2470	8.5e-06
2482	2.55e-05
2494	5.95e-05
2506	8.5e-05
2518	0.000119
2530	0.000187
2542	0.0002805
2554	0.000425
2566	0.0006545
2578	0.0013345
2590	0.0020995
2602	0.0013005
2614	0.0006545
2626	0.0004505
2638	0.0003485
2650	0.000289
2662	0.000357
2674	0.000544
2686	0.0007735
2698	0.000646
2710	0.000374
2722	0.0002635
2734	0.000255
2746	0.0001955
2758	0.0002295
2770	0.000289
2782	0.0003655
2794	0.0004675
2806	0.0004845
2818	0.000663
2830	0.0009945
2842	0.0014365
2854	0.0019635
2866	0.00204
2878	0.0016405
2890	0.001394
2902	0.001717
2914	0.0031535
2926	0.006103
2938	0.0098515
2950	0.0102085
2962	0.008483
2974	0.007463
2986	0.00578
2998	0.003808
3010	0.0034765
3022	0.0064175
3034	0.011339
3046	0.0091035
3058	0.0059415
3070	0.0045135
3082	0.0060945
3094	0.007038
3106	0.004709
3118	0.0015385
3130	0.000527
3142	0.0003315
3154	0.000272
3166	0.000255
3178	0.00017
3190	0.000136
3202	9.35e-05
3214	0.000102
3226	6.8e-05
3238	5.1e-05
3250	0
3262	2.55e-05
3274	6.8e-05
3286	5.1e-05
3298	0.0001445
3310	7.65e-05
3322	8.5e-05
3334	7.65e-05
3346	0.000136
3358	0.0001105
3370	6.8e-05
3382	0.0001105
3394	8.5e-06
3406	4.25e-05
3418	0
3430	1.7e-05
3442	6.8e-05
3454	6.8e-05
3466	1.7e-05
3478	6.8e-05
3490	7.65e-05
3502	4.25e-05
3514	5.1e-05
3526	7.65e-05
3538	0.000119
3550	0.000221
3562	0.000221
3574	0.000221
3586	0.000187
3598	7.65e-05
3610	0.000102
3622	0.000119
3634	6.8e-05
3646	0.000221
3658	0.000272
3670	0.0003145
3682	0.000306
3694	0.0002465
3706	0.000289
3718	0.0004335
3730	0.000391
3742	0.000221
3754	0.0002295
3766	0.0001955
3778	0.0001955
3790	0.000204
3802	0.000187
3814	9.35e-05
3826	0.000221
3838	0.0002125
