Infrared Spectrum: p-Methoxy-.alpha.-toluenethiol
Formula: C 8 H 10 O S
CAS: 6258-60-2
State: gas
Origin: EPA-IR VAPOR PHASE LIBRARY
1/CM	ABSORBANCE
549.8	0.011107
559.445	0.006337
569.09	0.003757
578.734	0.002687
588.379	0.002077
598.024	0.001647
607.669	0.001507
617.313	0.001487
626.958	0.002277
636.603	0.003777
646.248	0.007077
655.893	0.012937
665.537	0.016167
675.182	0.013277
684.827	0.008517
694.472	0.005107
704.116	0.003847
713.761	0.003677
723.406	0.004737
733.051	0.005787
742.695	0.006147
752.34	0.005597
761.985	0.004417
771.63	0.004117
781.275	0.005187
790.919	0.007507
800.564	0.012577
810.209	0.020157
819.854	0.030837
829.498	0.041047
839.143	0.035597
848.788	0.019397
858.433	0.009177
868.078	0.005067
877.722	0.003637
887.367	0.002847
897.012	0.002637
906.657	0.002357
916.301	0.002297
925.946	0.002437
935.591	0.002637
945.236	0.003077
954.88	0.003637
964.525	0.004657
974.17	0.006267
983.815	0.007497
993.46	0.008347
1003.1	0.010887
1012.75	0.016127
1022.39	0.027297
1032.04	0.046357
1041.68	0.056857
1051.33	0.040797
1060.97	0.019357
1070.62	0.010617
1080.26	0.007867
1089.91	0.008867
1099.55	0.011857
1109.2	0.012267
1118.84	0.010087
1128.49	0.007267
1138.13	0.006857
1147.78	0.008427
1157.42	0.015917
1167.07	0.050947
1176.71	0.071277
1186.36	0.034437
1196	0.018857
1205.64	0.019697
1215.29	0.027827
1224.93	0.053747
1234.58	0.133627
1244.22	0.249197
1253.87	0.209337
1263.51	0.094047
1273.16	0.058167
1282.8	0.054247
1292.45	0.058087
1302.09	0.045557
1311.74	0.023727
1321.38	0.017357
1331.03	0.012347
1340.67	0.008527
1350.32	0.006407
1359.96	0.005187
1369.61	0.004297
1379.25	0.003867
1388.9	0.003947
1398.54	0.004817
1408.18	0.006357
1417.83	0.008497
1427.47	0.011927
1437.12	0.019337
1446.76	0.024167
1456.41	0.024677
1466.05	0.031687
1475.7	0.027767
1485.34	0.022597
1494.99	0.044047
1504.63	0.146627
1514.28	0.193717
1523.92	0.062497
1533.57	0.016417
1543.21	0.009887
1552.86	0.008237
1562.5	0.008617
1572.15	0.012087
1581.79	0.019267
1591.44	0.026877
1601.08	0.041577
1610.73	0.052317
1620.37	0.034787
1630.01	0.014587
1639.66	0.008257
1649.3	0.005947
1658.95	0.004427
1668.59	0.003477
1678.24	0.002907
1687.88	0.002477
1697.53	0.001997
1707.17	0.001597
1716.82	0.001627
1726.46	0.001777
1736.11	0.002087
1745.75	0.002767
1755.4	0.002927
1765.04	0.002077
1774.69	0.001627
1784.33	0.001437
1793.98	0.001237
1803.62	0.001177
1813.27	0.001217
1822.91	0.001447
1832.55	0.001747
1842.2	0.002097
1851.84	0.002537
1861.49	0.003007
1871.13	0.003527
1880.78	0.003397
1890.42	0.002887
1900.07	0.002437
1909.71	0.002147
1919.36	0.001907
1929	0.001687
1938.65	0.001507
1948.29	0.001517
1957.94	0.001637
1967.58	0.001867
1977.23	0.002247
1986.87	0.002797
1996.52	0.003087
2006.16	0.002927
2015.81	0.002627
2025.45	0.002527
2035.1	0.002617
2044.74	0.002957
2054.38	0.003407
2064.03	0.003777
2073.67	0.003947
2083.32	0.003557
2092.96	0.002447
2102.61	0.001457
2112.25	0.0010745
2121.9	0.0009164
2131.54	0.000752
2141.19	0.0006494
2150.83	0.0004648
2160.48	0.0005332
2170.12	0.0005664
2179.77	0.0006117
2189.41	0.000614
2199.06	0.0006722
2208.7	0.000812
2218.35	0.0008046
2227.99	0.0007806
2237.64	0.0008849
2247.28	0.0010403
2256.92	0.001297
2266.57	0.001307
2276.21	0.001417
2285.86	0.001397
2295.5	0.001347
2305.15	0.001187
2314.79	0.001197
2324.44	0.001227
2334.08	0.001267
2343.73	0.001317
2353.37	0.0011094
2363.02	0.0008189
2372.66	0.000619
2382.31	0.000644
2391.95	0.0006657
2401.6	0.0008567
2411.24	0.0011469
2420.89	0.001427
2430.53	0.001397
2440.18	0.001207
2449.82	0.0011655
2459.47	0.001217
2469.11	0.001337
2478.75	0.001517
2488.4	0.001747
2498.04	0.001767
2507.69	0.001587
2517.33	0.001677
2526.98	0.001997
2536.62	0.002307
2546.27	0.002587
2555.91	0.002187
2565.56	0.001987
2575.2	0.002607
2584.85	0.003827
2594.49	0.003317
2604.14	0.002027
2613.78	0.001537
2623.43	0.001397
2633.07	0.001317
2642.72	0.001237
2652.36	0.001197
2662.01	0.0010384
2671.65	0.0010617
2681.29	0.001247
2690.94	0.001297
2700.58	0.001267
2710.23	0.0011562
2719.87	0.001237
2729.52	0.001197
2739.16	0.001257
2748.81	0.001497
2758.45	0.001607
2768.1	0.001737
2777.74	0.002027
2787.39	0.002627
2797.03	0.003247
2806.68	0.004467
2816.32	0.006127
2825.97	0.009467
2835.61	0.018807
2845.26	0.027297
2854.9	0.019917
2864.55	0.012677
2874.19	0.010377
2883.84	0.010467
2893.48	0.012687
2903.12	0.017597
2912.77	0.024887
2922.41	0.028867
2932.06	0.035567
2941.7	0.046517
2951.35	0.046057
2960.99	0.037867
2970.64	0.028937
2980.28	0.022787
2989.93	0.022537
2999.57	0.031487
3009.22	0.037987
3018.86	0.025607
3028.51	0.022567
3038.15	0.024217
3047.8	0.016027
3057.44	0.011227
3067.09	0.012047
3076.73	0.012817
3086.38	0.010127
3096.02	0.008507
3105.67	0.007447
3115.31	0.005517
3124.95	0.004017
3134.6	0.002987
3144.24	0.001897
3153.89	0.001487
3163.53	0.001377
3173.18	0.0010994
3182.82	0.0009044
3192.47	0.0007925
3202.11	0.0007882
3211.76	0.0005752
3221.4	0.0005768
3231.05	0.0005724
3240.69	0.0003362
3250.34	0.0004231
3259.98	0.0003329
3269.63	0.0002807
3279.27	0.00020631
3288.92	0.0003166
3298.56	0.00017735
3308.21	0.0003015
3317.85	0.00021286
3327.49	0.000170536
3337.14	0.00018996
3346.78	0.00022175
3356.43	0.00014
3366.07	0.000172574
3375.72	0.0002712
3385.36	0.0001168
3395.01	0.00021242
3404.65	2.9e-05
3414.3	0.0002894
3423.94	0.0002455
3433.59	0.000156
3443.23	0.0003022
3452.88	0.0001483
3462.52	0.00018221
3472.17	0.00019814
3481.81	0.00017199
3491.46	0.00020241
3501.1	0.0003483
3510.75	0.00016394
3520.39	0.00020028
3530.04	0.00025747
3539.68	0.00022451
3549.32	0.00018552
3558.97	0.0003401
3568.61	0.0003086
3578.26	0.000166729
3587.9	5.5e-05
3597.55	0.00020774
3607.19	0.00023967
3616.84	0.0002867
3626.48	0.00020315
3636.13	0.0001208
3645.77	0.00020488
3655.42	0.00018353
3665.06	0.0003984
3674.71	0.00022762
3684.35	0.00026459
3694	0.0003299
3703.64	0.00024152
3713.29	0.0003341
3722.93	0.00026372
3732.58	0.00018691
3742.22	0.00024719
3751.86	0.0003607
3761.51	0.0003909
3771.15	0.0002975
3780.8	0.0002737
3790.44	0.0003986
3800.09	0.0003568
3809.73	0.0002697
3819.38	0.0002215
3829.02	0.00020661
3838.67	0.0002965
3848.31	0.00023536
3857.96	0.0004189
3867.6	0.0003828
3877.25	0.0005683
3886.89	0.0005701
3896.54	0.0006826
3906.18	0.0004079
3915.83	0.0004161
3925.47	0.0003088
3935.12	0.0003755
3944.76	0.0003517
3954.41	0.0004248
3964.05	0.00025342
3973.69	0.000473
3983.34	0.0005362
3992.98	0.0004083
