Infrared Spectrum: 4-Chloro-.alpha.,.alpha.-dimethylphenyl acetic acid
Formula: C 10 H 11 Cl O 2
CAS: 6258-30-6
State: gas
Origin: EPA-IR VAPOR PHASE LIBRARY
1/CM	ABSORBANCE
549.8	0.016727
559.445	0.016527
569.09	0.018247
578.734	0.021117
588.379	0.017417
598.024	0.011037
607.669	0.008077
617.313	0.006687
626.958	0.005907
636.603	0.008357
646.248	0.010117
655.893	0.005977
665.537	0.002727
675.182	0.002387
684.827	0.001537
694.472	0.002317
704.116	0.002587
713.761	0.003637
723.406	0.005687
733.051	0.015277
742.695	0.010757
752.34	0.005147
761.985	0.007377
771.63	0.006947
781.275	0.004417
790.919	0.002987
800.564	0.003907
810.209	0.006937
819.854	0.011287
829.498	0.015137
839.143	0.007937
848.788	0.003587
858.433	0.002127
868.078	0.001192
877.722	0.0012141
887.367	0.0005805
897.012	0.0008899
906.657	0.001577
916.301	0.001437
925.946	0.001637
935.591	0.001947
945.236	0.001977
954.88	0.001697
964.525	0.001457
974.17	0.001147
983.815	0.001817
993.46	0.002377
1003.1	0.006387
1012.75	0.022067
1022.39	0.011927
1032.04	0.004497
1041.68	0.004237
1051.33	0.006417
1060.97	0.009927
1070.62	0.016697
1080.26	0.029787
1089.91	0.055537
1099.55	0.085227
1109.2	0.064827
1118.84	0.042567
1128.49	0.026307
1138.13	0.014977
1147.78	0.011507
1157.42	0.011387
1167.07	0.009597
1176.71	0.009287
1186.36	0.009967
1196	0.011247
1205.64	0.011097
1215.29	0.008897
1224.93	0.006837
1234.58	0.004547
1244.22	0.004157
1253.87	0.003877
1263.51	0.003557
1273.16	0.004127
1282.8	0.005807
1292.45	0.007237
1302.09	0.007507
1311.74	0.006357
1321.38	0.004947
1331.03	0.003717
1340.67	0.003137
1350.32	0.003387
1359.96	0.004357
1369.61	0.005717
1379.25	0.006127
1388.9	0.008167
1398.54	0.009187
1408.18	0.005537
1417.83	0.003417
1427.47	0.002967
1437.12	0.003527
1446.76	0.004947
1456.41	0.006897
1466.05	0.010137
1475.7	0.015567
1485.34	0.025717
1494.99	0.033797
1504.63	0.015747
1514.28	0.005417
1523.92	0.003177
1533.57	0.002507
1543.21	0.002137
1552.86	0.001797
1562.5	0.001677
1572.15	0.001727
1581.79	0.001977
1591.44	0.002747
1601.08	0.002527
1610.73	0.001687
1620.37	0.001747
1630.01	0.001687
1639.66	0.002097
1649.3	0.001857
1658.95	0.001567
1668.59	0.001527
1678.24	0.001587
1687.88	0.001897
1697.53	0.002447
1707.17	0.003527
1716.82	0.006107
1726.46	0.010187
1736.11	0.013207
1745.75	0.021557
1755.4	0.049107
1765.04	0.094147
1774.69	0.068717
1784.33	0.027497
1793.98	0.016757
1803.62	0.010297
1813.27	0.005407
1822.91	0.003127
1832.55	0.002357
1842.2	0.001747
1851.84	0.001517
1861.49	0.001367
1871.13	0.001607
1880.78	0.001887
1890.42	0.001987
1900.07	0.001697
1909.71	0.001477
1919.36	0.0012123
1929	0.0010643
1938.65	0.0008496
1948.29	0.0009238
1957.94	0.0010111
1967.58	0.0010783
1977.23	0.0007172
1986.87	0.0006604
1996.52	0.0007214
2006.16	0.00076
2015.81	0.0007903
2025.45	0.0008044
2035.1	0.0007569
2044.74	0.000627
2054.38	0.0006824
2064.03	0.0005494
2073.67	0.0006169
2083.32	0.0008176
2092.96	0.000667
2102.61	0.0007668
2112.25	0.0006849
2121.9	0.0005867
2131.54	0.0007647
2141.19	0.0005669
2150.83	0.0006543
2160.48	0.0006763
2170.12	0.0007485
2179.77	0.0007276
2189.41	0.0007734
2199.06	0.0009268
2208.7	0.0011338
2218.35	0.0009825
2227.99	0.0011234
2237.64	0.0007874
2247.28	0.000833
2256.92	0.0007237
2266.57	0.0007621
2276.21	0.0006436
2285.86	0.0009235
2295.5	0.0010344
2305.15	0.0010147
2314.79	0.0009581
2324.44	0.0010453
2334.08	0.0007014
2343.73	0.0008253
2353.37	0.0004848
2363.02	0.0006432
2372.66	0.0005823
2382.31	0.0010209
2391.95	0.0007453
2401.6	0.0009365
2411.24	0.0009516
2420.89	0.0006556
2430.53	0.0007197
2440.18	0.000806
2449.82	0.0008131
2459.47	0.0008206
2469.11	0.0007618
2478.75	0.0006455
2488.4	0.0008148
2498.04	0.0004318
2507.69	0.0007593
2517.33	0.0006683
2526.98	0.0007415
2536.62	0.0005662
2546.27	0.0008009
2555.91	0.0007078
2565.56	0.0007204
2575.2	0.0006776
2584.85	0.0009362
2594.49	0.0010017
2604.14	0.0009344
2613.78	0.0009738
2623.43	0.0006643
2633.07	0.0006393
2642.72	0.0007292
2652.36	0.00069
2662.01	0.0008223
2671.65	0.0006121
2681.29	0.0008659
2690.94	0.0006775
2700.58	0.0006589
2710.23	0.0004705
2719.87	0.0006748
2729.52	0.000722
2739.16	0.0008927
2748.81	0.0010957
2758.45	0.0005524
2768.1	0.0009698
2777.74	0.0010016
2787.39	0.0007999
2797.03	0.0009451
2806.68	0.0010822
2816.32	0.0008642
2825.97	0.0010304
2835.61	0.001317
2845.26	0.001417
2854.9	0.001727
2864.55	0.001867
2874.19	0.003147
2883.84	0.003787
2893.48	0.004777
2903.12	0.004327
2912.77	0.004687
2922.41	0.005247
2932.06	0.006957
2941.7	0.009057
2951.35	0.008977
2960.99	0.007947
2970.64	0.008877
2980.28	0.020257
2989.93	0.023707
2999.57	0.014687
3009.22	0.007877
3018.86	0.003607
3028.51	0.002807
3038.15	0.002757
3047.8	0.002237
3057.44	0.002157
3067.09	0.002017
3076.73	0.002687
3086.38	0.003167
3096.02	0.003557
3105.67	0.002477
3115.31	0.002017
3124.95	0.001397
3134.6	0.000988
3144.24	0.0008787
3153.89	0.0009807
3163.53	0.00035673
3173.18	0.0005194
3182.82	0.0008018
3192.47	0.001116
3202.11	0.000966
3211.76	0.0010834
3221.4	0.0006645
3231.05	0.0008153
3240.69	0.0008976
3250.34	0.0007341
3259.98	0.0008363
3269.63	0.001287
3279.27	0.000435
3288.92	0.000115
3298.56	0.0008208
3308.21	0.0008305
3317.85	0.0008231
3327.49	0.0010069
3337.14	0.0008598
3346.78	0.0003773
3356.43	0.001208
3366.07	0.0008791
3375.72	0.0003921
3385.36	0.0010218
3395.01	0.0009064
3404.65	0.0006857
3414.3	0.00031578
3423.94	0.0009404
3433.59	0.0008763
3443.23	0.0007089
3452.88	0.0005578
3462.52	0.0011744
3472.17	0.0010214
3481.81	0.0008827
3491.46	0.0009099
3501.1	0.0009118
3510.75	0.001947
3520.39	0.001697
3530.04	0.002087
3539.68	0.001677
3549.32	0.003787
3558.97	0.011147
3568.61	0.031427
3578.26	0.027627
3587.9	0.008437
3597.55	0.001827
3607.19	0.001677
3616.84	0.0005958
3626.48	0.0006058
3636.13	0.0005034
3645.77	0.0008308
3655.42	0.0007034
3665.06	0.0008193
3674.71	0.0005207
3684.35	0.0010254
3694	0.001027
3703.64	0.0004583
3713.29	0.0004185
3722.93	0.0005088
3732.58	0.0006829
3742.22	0.0009139
3751.86	0.000145
3761.51	0.00034313
3771.15	0.0006726
3780.8	0.000551
3790.44	0.0005861
3800.09	0.0006528
3809.73	0.0006533
3819.38	0.0005723
3829.02	0.0007273
3838.67	0.0009871
3848.31	0.0009625
3857.96	0.00029037
3867.6	0.0007089
3877.25	0.000847
3886.89	0.0005887
3896.54	0.0008528
3906.18	0.0008225
3915.83	0.001317
3925.47	0.0009019
3935.12	0.0006612
3944.76	0.0010655
3954.41	0
3964.05	0.0004984
3973.69	0.0004888
3983.34	0.001457
3992.98	0.0006992
