Infrared Spectrum: 3-BROMO PYRIDINE
Formula: C5 H4 Br N
CAS: 626-55-1
State: SOLUTION (10% CCl4 FOR 2.5-7.5, 10% CS2 FOR 7.5-16 MICRON)
Class: COBLENTZ
Instrument: Not specified, most likely a prism, grating, or hybrid spectrometer.
Sampling: TRANSMISSION
Path length: 0.01 CM, 0.01 CM
Resolution: 4
Origin: DOW CHEMICAL COMPANY
MICROMETERS	TRANSMITTANCE
2.052	0.925
2.09232	0.92
2.13265	0.916
2.17297	0.921
2.2133	0.918
2.25362	0.923
2.29395	0.923
2.33427	0.92
2.3746	0.921
2.41492	0.92
2.45525	0.921
2.49557	0.923
2.5359	0.93
2.57622	0.931
2.61655	0.928
2.65687	0.928
2.6972	0.931
2.73752	0.933
2.77785	0.931
2.81817	0.928
2.8585	0.925
2.89882	0.921
2.93915	0.918
2.97947	0.921
3.0198	0.921
3.06012	0.92
3.10044	0.915
3.14077	0.906
3.18109	0.905
3.22142	0.835
3.26174	0.772
3.30207	0.803
3.34239	0.877
3.38272	0.903
3.42304	0.918
3.46337	0.921
3.50369	0.921
3.54402	0.921
3.58434	0.923
3.62467	0.921
3.66499	0.925
3.70532	0.923
3.74564	0.921
3.78597	0.921
3.82629	0.928
3.86662	0.923
3.90694	0.921
3.94727	0.925
3.98759	0.921
4.02791	0.915
4.06824	0.915
4.10856	0.92
4.14889	0.925
4.18921	0.925
4.22954	0.925
4.26986	0.925
4.31019	0.921
4.35051	0.921
4.39084	0.923
4.43116	0.92
4.47149	0.92
4.51181	0.918
4.55214	0.926
4.59246	0.925
4.63279	0.921
4.67311	0.923
4.71344	0.926
4.75376	0.923
4.79409	0.923
4.83441	0.925
4.87474	0.923
4.91506	0.918
4.95539	0.916
4.99571	0.92
5.03603	0.92
5.07636	0.911
5.11668	0.901
5.15701	0.91
5.19733	0.895
5.23766	0.89
5.27798	0.885
5.31831	0.893
5.35863	0.906
5.39896	0.901
5.43928	0.906
5.47961	0.91
5.51993	0.918
5.56026	0.923
5.60058	0.92
5.64091	0.923
5.68123	0.92
5.72156	0.911
5.76188	0.898
5.80221	0.897
5.84253	0.898
5.88286	0.905
5.92318	0.918
5.96351	0.918
6.00383	0.918
6.04415	0.915
6.08448	0.908
6.1248	0.913
6.16513	0.91
6.20545	0.906
6.24578	0.901
6.2861	0.862
6.32643	0.639
6.36675	0.594
6.40708	0.7
6.4474	0.799
6.48773	0.84
6.52805	0.872
6.56838	0.9
6.6087	0.911
6.64903	0.911
6.68935	0.903
6.72968	0.888
6.77	0.812
6.81033	0.463
6.85065	0.799
6.89098	0.863
6.9313	0.863
6.97163	0.82
7.01195	0.627
7.05227	0.353
7.0926	0.466
7.13292	0.765
7.17325	0.8
7.21357	0.81
7.2539	0.847
7.29422	0.853
7.33455	0.872
7.37487	0.9
7.4152	0.901
7.45552	0.905
7.49585	0.897
7.53617	0.802
7.5765	0.7
7.61682	0.78
7.65715	0.883
7.69747	0.921
7.7378	0.933
7.77812	0.93
7.81845	0.928
7.85877	0.926
7.8991	0.918
7.93942	0.915
7.97974	0.913
8.02007	0.91
8.06039	0.905
8.10072	0.91
8.14104	0.901
8.18137	0.89
8.22169	0.888
8.26202	0.892
8.30234	0.89
8.34267	0.867
8.38299	0.772
8.42332	0.769
8.46364	0.803
8.50397	0.862
8.54429	0.888
8.58462	0.897
8.62494	0.895
8.66527	0.89
8.70559	0.882
8.74592	0.878
8.78624	0.878
8.82657	0.872
8.86689	0.852
8.90722	0.825
8.94754	0.722
8.98786	0.691
9.02819	0.744
9.06851	0.759
9.10884	0.543
9.14916	0.328
9.18949	0.247
9.22981	0.267
9.27014	0.544
9.31046	0.732
9.35079	0.81
9.39111	0.852
9.43144	0.882
9.47176	0.893
9.51209	0.895
9.55241	0.897
9.59274	0.888
9.63306	0.86
9.67339	0.83
9.71371	0.76
9.75404	0.662
9.79436	0.672
9.83469	0.702
9.87501	0.588
9.91534	0.275
9.95566	0.101
9.99598	0.282
10.0363	0.642
10.0766	0.732
10.117	0.797
10.1573	0.843
10.1976	0.86
10.2379	0.863
10.2783	0.862
10.3186	0.868
10.3589	0.878
10.3992	0.883
10.4396	0.89
10.4799	0.892
10.5202	0.89
10.5605	0.88
10.6009	0.852
10.6412	0.832
10.6815	0.848
10.7218	0.877
10.7622	0.895
10.8025	0.898
10.8428	0.895
10.8831	0.88
10.9235	0.845
10.9638	0.823
11.0041	0.853
11.0444	0.885
11.0848	0.908
11.1251	0.92
11.1654	0.916
11.2057	0.911
11.2461	0.911
11.2864	0.921
11.3267	0.931
11.367	0.933
11.4074	0.935
11.4477	0.935
11.488	0.933
11.5283	0.933
11.5687	0.933
11.609	0.931
11.6493	0.933
11.6896	0.933
11.73	0.931
11.7703	0.93
11.8106	0.93
11.8509	0.931
11.8913	0.93
11.9316	0.925
11.9719	0.926
12.0122	0.926
12.0525	0.925
12.0929	0.921
12.1332	0.916
12.1735	0.908
12.2138	0.901
12.2542	0.897
12.2945	0.892
12.3348	0.887
12.3751	0.875
12.4155	0.85
12.4558	0.828
12.4961	0.767
12.5364	0.699
12.5768	0.549
12.6171	0.377
12.6574	0.232
12.6977	0.121
12.7381	0.2
12.7784	0.478
12.8187	0.622
12.859	0.729
12.8994	0.785
12.9397	0.808
12.98	0.827
13.0203	0.852
13.0607	0.875
13.101	0.898
13.1413	0.906
13.1816	0.911
13.222	0.916
13.2623	0.921
13.3026	0.925
13.3429	0.926
13.3833	0.926
13.4236	0.921
13.4639	0.918
13.5042	0.921
13.5446	0.92
13.5849	0.915
13.6252	0.913
13.6655	0.913
13.7059	0.911
13.7462	0.903
13.7865	0.892
13.8268	0.877
13.8672	0.85
13.9075	0.827
13.9478	0.808
13.9881	0.799
14.0285	0.78
14.0688	0.734
14.1091	0.647
14.1494	0.463
14.1898	0.34
14.2301	0.227
14.2704	0.154
14.3107	0.116
14.3511	0.136
14.3914	0.287
14.4317	0.471
14.472	0.576
14.5124	0.632
14.5527	0.699
14.593	0.735
14.6333	0.775
14.6737	0.812
14.714	0.838
14.7543	0.86
14.7946	0.88
14.835	0.893
14.8753	0.901
14.9156	0.91
14.9559	0.918
14.9963	0.93
15.0366	0.935
15.0769	0.938
15.1172	0.94
15.1576	0.94
15.1979	0.941
15.2382	0.945
15.2785	0.945
15.3189	0.945
15.3592	0.945
15.3995	0.945
15.4398	0.946
15.4802	0.948
15.5205	0.951
15.5608	0.953
15.6011	0.953
15.6415	0.955
15.6818	0.956
15.7221	0.958
15.7624	0.958
15.8028	0.958
15.8431	0.958
15.8834	0.958
15.9237	0.958
15.9641	0.963
16.0044	0.963
