Infrared Spectrum: 3-METHYLGLUTARIC ACID
Formula: C6 H10 O4
CAS: 626-51-7
State: SOLID (NUJOL MULL)
Class: COBLENTZ
Instrument: Not specified, most likely a prism, grating, or hybrid spectrometer.
Sampling: TRANSMISSION
Resolution: 4
Origin: TENNESSEE EASTMAN COMPANY, RESEARCH LABORATORIES
MICROMETERS	TRANSMITTANCE
2.044	0.951
2.08148	0.95
2.11896	0.95
2.15644	0.95
2.19392	0.95
2.23139	0.947
2.26887	0.908
2.30635	0.902
2.34383	0.902
2.38131	0.905
2.41879	0.908
2.45627	0.914
2.49375	0.922
2.53123	0.934
2.56871	0.937
2.60618	0.94
2.64366	0.942
2.68114	0.948
2.71862	0.95
2.7561	0.948
2.79358	0.948
2.83106	0.944
2.86854	0.931
2.90602	0.899
2.94349	0.85
2.98097	0.801
3.01845	0.714
3.05593	0.653
3.09341	0.569
3.13089	0.479
3.16837	0.402
3.20585	0.338
3.24333	0.298
3.2808	0.279
3.31828	0.259
3.35576	0.13
3.39324	0.031
3.43072	0.018
3.4682	0.045
3.50568	0.059
3.54316	0.368
3.58064	0.44
3.61812	0.451
3.65559	0.461
3.69307	0.461
3.73055	0.467
3.76803	0.478
3.80551	0.468
3.84299	0.467
3.88047	0.52
3.91795	0.538
3.95543	0.557
3.9929	0.599
4.03038	0.649
4.06786	0.697
4.10534	0.712
4.14282	0.732
4.1803	0.76
4.21778	0.798
4.25526	0.833
4.29274	0.833
4.33021	0.832
4.36769	0.826
4.40517	0.829
4.44265	0.833
4.48013	0.841
4.51761	0.849
4.55509	0.847
4.59257	0.854
4.63005	0.855
4.66753	0.858
4.705	0.86
4.74248	0.864
4.77996	0.874
4.81744	0.88
4.85492	0.878
4.8924	0.878
4.92988	0.874
4.96736	0.868
5.00484	0.866
5.04231	0.861
5.07979	0.858
5.11727	0.857
5.15475	0.846
5.19223	0.84
5.22971	0.821
5.26719	0.816
5.30467	0.816
5.34215	0.812
5.37962	0.799
5.4171	0.796
5.45458	0.787
5.49206	0.763
5.52954	0.734
5.56702	0.711
5.6045	0.656
5.64198	0.633
5.67946	0.596
5.71694	0.546
5.75441	0.414
5.79189	0.226
5.82937	0.097
5.86685	0.041
5.90433	0.035
5.94181	0.049
5.97929	0.229
6.01677	0.375
6.05425	0.489
6.09172	0.546
6.1292	0.61
6.16668	0.669
6.20416	0.722
6.24164	0.754
6.27912	0.77
6.3166	0.782
6.35408	0.787
6.39156	0.802
6.42904	0.809
6.46651	0.827
6.50399	0.824
6.54147	0.826
6.57895	0.824
6.61643	0.81
6.65391	0.796
6.69139	0.739
6.72887	0.624
6.76635	0.413
6.80382	0.27
6.8413	0.273
6.87878	0.33
6.91626	0.355
6.95374	0.284
6.99122	0.173
7.0287	0.263
7.06618	0.319
7.10366	0.226
7.14113	0.54
7.17861	0.574
7.21609	0.44
7.25357	0.38
7.29105	0.529
7.32853	0.597
7.36601	0.616
7.40349	0.607
7.44097	0.673
7.47845	0.683
7.51592	0.635
7.5534	0.524
7.59088	0.495
7.62836	0.425
7.66584	0.212
7.70332	0.197
7.7408	0.503
7.77828	0.652
7.81576	0.711
7.85323	0.745
7.89071	0.725
7.92819	0.614
7.96567	0.436
8.00315	0.341
8.04063	0.411
8.07811	0.204
8.11559	0.093
8.15307	0.135
8.19054	0.369
8.22802	0.527
8.2655	0.633
8.30298	0.684
8.34046	0.7
8.37794	0.624
8.41542	0.385
8.4529	0.197
8.49038	0.459
8.52786	0.611
8.56533	0.664
8.60281	0.68
8.64029	0.663
8.67777	0.639
8.71525	0.667
8.75273	0.736
8.79021	0.771
8.82769	0.785
8.86517	0.795
8.90264	0.804
8.94012	0.813
8.9776	0.818
9.01508	0.819
9.05256	0.819
9.09004	0.798
9.12752	0.717
9.165	0.604
9.20248	0.704
9.23996	0.771
9.27743	0.795
9.31491	0.802
9.35239	0.819
9.38987	0.822
9.42735	0.827
9.46483	0.83
9.50231	0.83
9.53979	0.83
9.57727	0.83
9.61474	0.83
9.65222	0.829
9.6897	0.827
9.72718	0.827
9.76466	0.826
9.80214	0.824
9.83962	0.824
9.8771	0.816
9.91458	0.815
9.95205	0.809
9.98953	0.799
10.027	0.784
10.0645	0.765
10.102	0.729
10.1394	0.701
10.1769	0.698
10.2144	0.7
10.2519	0.701
10.2894	0.7
10.3268	0.689
10.3643	0.669
10.4018	0.636
10.4393	0.6
10.4768	0.565
10.5142	0.5
10.5517	0.45
10.5892	0.413
10.6267	0.375
10.6642	0.374
10.7016	0.417
10.7391	0.44
10.7766	0.447
10.8141	0.465
10.8515	0.47
10.889	0.513
10.9265	0.548
10.964	0.555
11.0015	0.545
11.0389	0.5
11.0764	0.464
11.1139	0.409
11.1514	0.386
11.1889	0.411
11.2263	0.436
11.2638	0.456
11.3013	0.479
11.3388	0.507
11.3763	0.512
11.4137	0.52
11.4512	0.6
11.4887	0.635
11.5262	0.661
11.5636	0.675
11.6011	0.678
11.6386	0.666
11.6761	0.614
11.7136	0.61
11.751	0.67
11.7885	0.739
11.826	0.757
11.8635	0.77
11.901	0.779
11.9384	0.785
11.9759	0.791
12.0134	0.798
12.0509	0.801
12.0884	0.805
12.1258	0.809
12.1633	0.813
12.2008	0.815
12.2383	0.816
12.2757	0.816
12.3132	0.816
12.3507	0.816
12.3882	0.816
12.4257	0.816
12.4631	0.816
12.5006	0.818
12.5381	0.816
12.5756	0.818
12.6131	0.818
12.6505	0.819
12.688	0.821
12.7255	0.822
12.763	0.824
12.8005	0.826
12.8379	0.826
12.8754	0.826
12.9129	0.827
12.9504	0.827
12.9878	0.827
13.0253	0.827
13.0628	0.827
13.1003	0.827
13.1378	0.827
13.1752	0.827
13.2127	0.827
13.2502	0.827
13.2877	0.826
13.3252	0.826
13.3626	0.826
13.4001	0.821
13.4376	0.815
13.4751	0.804
13.5126	0.801
13.55	0.798
13.5875	0.795
13.625	0.793
13.6625	0.791
13.6999	0.787
13.7374	0.782
13.7749	0.777
13.8124	0.777
13.8499	0.776
13.8873	0.777
13.9248	0.777
13.9623	0.779
13.9998	0.781
14.0373	0.779
14.0747	0.774
14.1122	0.762
14.1497	0.748
14.1872	0.728
14.2247	0.701
14.2621	0.663
14.2996	0.627
14.3371	0.572
14.3746	0.531
14.412	0.506
14.4495	0.506
14.487	0.515
14.5245	0.554
14.562	0.586
14.5994	0.602
14.6369	0.607
14.6744	0.607
14.7119	0.604
14.7494	0.599
14.7868	0.593
14.8243	0.591
14.8618	0.597
14.8993	0.605
14.9368	0.625
14.9742	0.644
15.0117	0.666
15.0492	0.669
15.0867	0.67
15.1241	0.67
15.1616	0.67
15.1991	0.67
15.2366	0.67
15.2741	0.67
15.3115	0.67
15.349	0.672
15.3865	0.672
