Infrared Spectrum: m-Phthalaldehyde
Formula: C 8 H 6 O 2
CAS: 626-19-7
State: gas
Origin: EPA-IR VAPOR PHASE LIBRARY
1/CM	ABSORBANCE
549.8	0.0005884
559.445	0.0005416
569.09	0.001524
578.734	0.0012867
588.379	0.001484
598.024	0.001604
607.669	0.001604
617.313	0.002914
626.958	0.006104
636.603	0.013764
646.248	0.021024
655.893	0.019374
665.537	0.012704
675.182	0.012394
684.827	0.014504
694.472	0.012384
704.116	0.007804
713.761	0.004014
723.406	0.002874
733.051	0.002244
742.695	0.002674
752.34	0.003514
761.985	0.005164
771.63	0.010174
781.275	0.020414
790.919	0.027894
800.564	0.017634
810.209	0.007004
819.854	0.003104
829.498	0.001844
839.143	0.001674
848.788	0.0012728
858.433	0.0010261
868.078	0.001804
877.722	0.002494
887.367	0.003814
897.012	0.006484
906.657	0.008114
916.301	0.007454
925.946	0.011084
935.591	0.013934
945.236	0.008964
954.88	0.005144
964.525	0.004924
974.17	0.002934
983.815	0.001984
993.46	0.002884
1003.1	0.003574
1012.75	0.002614
1022.39	0.001454
1032.04	0.0009763
1041.68	0.0006157
1051.33	0.0009264
1060.97	0.001694
1070.62	0.003024
1080.26	0.003094
1089.91	0.002494
1099.55	0.003474
1109.2	0.009914
1118.84	0.025614
1128.49	0.050074
1138.13	0.047704
1147.78	0.017574
1157.42	0.005904
1167.07	0.004134
1176.71	0.003154
1186.36	0.003244
1196	0.003914
1205.64	0.005554
1215.29	0.007444
1224.93	0.010484
1234.58	0.013884
1244.22	0.012164
1253.87	0.007374
1263.51	0.006094
1273.16	0.008504
1282.8	0.011034
1292.45	0.010274
1302.09	0.006324
1311.74	0.003024
1321.38	0.002024
1331.03	0.001524
1340.67	0.001854
1350.32	0.003144
1359.96	0.007594
1369.61	0.011414
1379.25	0.010614
1388.9	0.006144
1398.54	0.003874
1408.18	0.001924
1417.83	0.001714
1427.47	0.002134
1437.12	0.003544
1446.76	0.004644
1456.41	0.003344
1466.05	0.001794
1475.7	0.001974
1485.34	0.002234
1494.99	0.001724
1504.63	0.0010559
1514.28	0.0008021
1523.92	0.0006921
1533.57	0.0008823
1543.21	0.0009385
1552.86	0.0011694
1562.5	0.002024
1572.15	0.003494
1581.79	0.006814
1591.44	0.013504
1601.08	0.020324
1610.73	0.014854
1620.37	0.005154
1630.01	0.002904
1639.66	0.002454
1649.3	0.002734
1658.95	0.003144
1668.59	0.005474
1678.24	0.010904
1687.88	0.019094
1697.53	0.035114
1707.17	0.075174
1716.82	0.150824
1726.46	0.192254
1736.11	0.130624
1745.75	0.036574
1755.4	0.008144
1765.04	0.003954
1774.69	0.003004
1784.33	0.002784
1793.98	0.002794
1803.62	0.002994
1813.27	0.003134
1822.91	0.002754
1832.55	0.002384
1842.2	0.002214
1851.84	0.001964
1861.49	0.001934
1871.13	0.002014
1880.78	0.002014
1890.42	0.001954
1900.07	0.002014
1909.71	0.001914
1919.36	0.001924
1929	0.001744
1938.65	0.0013492
1948.29	0.0011616
1957.94	0.001194
1967.58	0.0013159
1977.23	0.0013179
1986.87	0.0010911
1996.52	0.0008434
2006.16	0.000595
2015.81	0.0005609
2025.45	0.0005851
2035.1	0.0005388
2044.74	0.00052789
2054.38	0.0005549
2064.03	0.00048008
2073.67	0.0005356
2083.32	0.000386
2092.96	0.00047842
2102.61	0.000440047
2112.25	0.00051195
2121.9	0.00053381
2131.54	0.0007049
2141.19	0.0008584
2150.83	0.0007742
2160.48	0.0007871
2170.12	0.0007507
2179.77	0.0006429
2189.41	0.00048148
2199.06	0.0004083
2208.7	0.0003591
2218.35	0.000399
2227.99	0.0003388
2237.64	0.0003793
2247.28	0.000438113
2256.92	0.00049793
2266.57	0.00044402
2276.21	0.00051655
2285.86	0.0004169
2295.5	0.0003934
2305.15	0.000439407
2314.79	0.00051259
2324.44	0.00048257
2334.08	0.0005922
2343.73	0.0006888
2353.37	0.0006646
2363.02	0.0008219
2372.66	0.0007989
2382.31	0.0007666
2391.95	0.0006797
2401.6	0.000438265
2411.24	0.00045288
2420.89	0.00047742
2430.53	0.0004172
2440.18	0.000273
2449.82	0.000296
2459.47	0.000311
2469.11	0.0003609
2478.75	0.00046076
2488.4	0.00050316
2498.04	0.0005805
2507.69	0.00048061
2517.33	0.0005473
2526.98	0.0006051
2536.62	0.0005708
2546.27	0.000541
2555.91	0.0005729
2565.56	0.0007074
2575.2	0.0008144
2584.85	0.0008286
2594.49	0.0009141
2604.14	0.0012491
2613.78	0.0012499
2623.43	0.0013088
2633.07	0.0013491
2642.72	0.001574
2652.36	0.002004
2662.01	0.002384
2671.65	0.002724
2681.29	0.003034
2690.94	0.003754
2700.58	0.008024
2710.23	0.020644
2719.87	0.032834
2729.52	0.028844
2739.16	0.013824
2748.81	0.008664
2758.45	0.008624
2768.1	0.007914
2777.74	0.008514
2787.39	0.014794
2797.03	0.026604
2806.68	0.039984
2816.32	0.038714
2825.97	0.025154
2835.61	0.014734
2845.26	0.008544
2854.9	0.005164
2864.55	0.003434
2874.19	0.002884
2883.84	0.002334
2893.48	0.002024
2903.12	0.001874
2912.77	0.001884
2922.41	0.001694
2932.06	0.001504
2941.7	0.0012521
2951.35	0.0013007
2960.99	0.0011154
2970.64	0.0010337
2980.28	0.001151
2989.93	0.0011212
2999.57	0.0012608
3009.22	0.001804
3018.86	0.002334
3028.51	0.002774
3038.15	0.002794
3047.8	0.003224
3057.44	0.003964
3067.09	0.004884
3076.73	0.005034
3086.38	0.004104
3096.02	0.003184
3105.67	0.002324
3115.31	0.0013739
3124.95	0.0007518
3134.6	0.0005359
3144.24	0.0006197
3153.89	0.00044486
3163.53	0.00047141
3173.18	0.0003486
3182.82	0.00047921
3192.47	0.0005461
3202.11	0.0005368
3211.76	0.00049664
3221.4	0.000205
3231.05	0.0003
3240.69	0.000169
3250.34	0.000184
3259.98	0.000288
3269.63	0.00028
3279.27	0.000311
3288.92	0.00043253
3298.56	0.0003887
3308.21	0.00048538
3317.85	0.000328
3327.49	0.00047448
3337.14	0.0005229
3346.78	0.000407
3356.43	0.000264
3366.07	0.0006261
3375.72	0.0008247
3385.36	0.0007197
3395.01	0.0012595
3404.65	0.001994
3414.3	0.003124
3423.94	0.003894
3433.59	0.003464
3443.23	0.002244
3452.88	0.0013165
3462.52	0.0009684
3472.17	0.0007436
3481.81	0.00052307
3491.46	0.00053282
3501.1	0.000349
3510.75	0.0005953
3520.39	0.000629
3530.04	0.0005512
3539.68	0.0003371
3549.32	0.000440795
3558.97	0.0006341
3568.61	0.0007257
3578.26	0.00049694
3587.9	0.000433675
3597.55	0.0004053
3607.19	0.00047758
3616.84	0.0003
3626.48	0.000311
3636.13	0.0005632
3645.77	0.0003411
3655.42	0.000195
3665.06	0.0007161
3674.71	0.00043424
3684.35	0.00048123
3694	0.0003452
3703.64	0.0005603
3713.29	0.0003396
3722.93	0.000304
3732.58	0.0003926
3742.22	9.4e-05
3751.86	0.00052135
3761.51	0.00042795
3771.15	0.000287
3780.8	0.00048994
3790.44	0.000321
3800.09	0.00053197
3809.73	0.0005952
3819.38	0.000287
3829.02	0.0003808
3838.67	0.00046288
3848.31	0.00043216
3857.96	0.0006719
3867.6	0.0003411
3877.25	0.000341
3886.89	0.0004216
3896.54	0.000172
3906.18	0.0003
3915.83	0.00048052
3925.47	0.0003536
3935.12	0.000208
3944.76	0.00032
3954.41	0.0004097
3964.05	0.000256
3973.69	0.000261
3983.34	0.000319
3992.98	0.000151
