Infrared Spectrum: Melamine hydrochloride
Formula: C3 H7 Cl N6
CAS: 626-32-4
State: SOLID (KBr DISC, 0.8% WT.)
Class: COBLENTZ III
Instrument: PERKIN-ELMER 157
Sampling: TRANSMISSION
Resolution: 2
Origin: BRITISH PETROLEUM CO. LTD., ENGLAND
1/CM	TRANSMITTANCE
668	0.222
677	0.24
686	0.2454
695	0.2837
704	0.2894
713	0.3098
722	0.3654
731	0.4202
740	0.3679
749	0.2895
758	0.2108
767	0.2775
776	0.1687
785	0.2876
794	0.3604
803	0.3792
812	0.3634
821	0.3963
830	0.4276
839	0.5023
848	0.5772
857	0.6016
866	0.6026
875	0.6008
884	0.5986
893	0.5932
902	0.5858
911	0.5767
920	0.564
929	0.5505
938	0.5367
947	0.5119
956	0.4834
965	0.4355
974	0.3403
983	0.2831
992	0.3249
1001	0.3646
1010	0.3807
1019	0.4263
1028	0.439
1037	0.4267
1046	0.4172
1055	0.4051
1064	0.3887
1073	0.354
1082	0.3153
1091	0.286
1100	0.2407
1109	0.1768
1118	0.212
1127	0.1746
1136	0.2796
1145	0.2326
1154	0.1281
1163	0.1176
1172	0.174
1181	0.1619
1190	0.2071
1199	0.2231
1208	0.2152
1217	0.209
1226	0.2007
1235	0.1914
1244	0.186
1253	0.1848
1262	0.1892
1271	0.1929
1280	0.1876
1289	0.1836
1298	0.1775
1307	0.1667
1316	0.1543
1325	0.1393
1334	0.12
1343	0.1108
1352	0.0948
1361	0.0657
1370	0.0814
1379	0.0798
1388	0.0527
1397	0.0348
1406	0.0362
1415	0.0581
1424	0.0979
1433	0.109
1442	0.1092
1451	0.1079
1460	0.0993
1469	0.076
1478	0.045
1487	0.034
1496	0.0269
1505	0.0298
1514	0.0408
1523	0.0584
1532	0.0606
1541	0.0635
1550	0.0746
1559	0.0802
1568	0.0744
1577	0.0591
1586	0.0442
1595	0.0402
1604	0.0377
1613	0.025
1622	0.0192
1631	0.0117
1640	0.0086
1649	0.0153
1658	0.0157
1667	0.0188
1676	0.0201
1685	0.021
1694	0.0218
1703	0.0228
1712	0.0237
1721	0.0246
1730	0.0315
1739	0.0555
1748	0.1382
1757	0.2227
1766	0.3064
1775	0.3828
1784	0.42
1793	0.4711
1802	0.5358
1811	0.5827
1820	0.6374
1829	0.6641
1838	0.6677
1847	0.6695
1856	0.7002
1865	0.7159
1874	0.7177
1883	0.7161
1892	0.7071
1901	0.6917
1910	0.6795
1919	0.6705
1928	0.6621
1937	0.6542
1946	0.6512
1955	0.6466
1964	0.6391
1973	0.6297
1982	0.6195
1991	0.6109
2000	0.6035
2009	0.597
2018	0.5906
2027	0.5842
2036	0.5741
2045	0.5623
2054	0.5492
2063	0.5363
2072	0.5231
2081	0.5052
2090	0.4918
2099	0.4816
2108	0.4766
2117	0.4689
2126	0.448
2135	0.4364
2144	0.4301
2153	0.4273
2162	0.4255
2171	0.4246
2180	0.4165
2189	0.4063
2198	0.3966
2207	0.3906
2216	0.3869
2225	0.3729
2234	0.3622
2243	0.3537
2252	0.3467
2261	0.3386
2270	0.3313
2279	0.3203
2288	0.3077
2297	0.2965
2306	0.2858
2315	0.2741
2324	0.2631
2333	0.2527
2342	0.2426
2351	0.2326
2360	0.2207
2369	0.208
2378	0.1967
2387	0.1874
2396	0.1796
2405	0.1717
2414	0.1631
2423	0.1544
2432	0.1461
2441	0.1384
2450	0.1307
2459	0.1238
2468	0.1178
2477	0.1089
2486	0.1045
2495	0.1019
2504	0.1
2513	0.0982
2522	0.097
2531	0.096
2540	0.0945
2549	0.0896
2558	0.081
2567	0.0715
2576	0.064
2585	0.0584
2594	0.0518
2603	0.0488
2612	0.0472
2621	0.0459
2630	0.0453
2639	0.0447
2648	0.0445
2657	0.0443
2666	0.0431
2675	0.0446
2684	0.0461
2693	0.0542
2702	0.0606
2711	0.0612
2720	0.0618
2729	0.0675
2738	0.0728
2747	0.0774
2756	0.0807
2765	0.0807
2774	0.0805
2783	0.0766
2792	0.0696
2801	0.0648
2810	0.0631
2819	0.0618
2828	0.0612
2837	0.0612
2846	0.0611
2855	0.0618
2864	0.0629
2873	0.0639
2882	0.0642
2891	0.0625
2900	0.0537
2909	0.0501
2918	0.0493
2927	0.0486
2936	0.0482
2945	0.0473
2954	0.0464
2963	0.0448
2972	0.0431
2981	0.0405
2990	0.0378
2999	0.0343
3008	0.0303
3017	0.0264
3026	0.0224
3035	0.0185
3044	0.0151
3053	0.0121
3062	0.01
3071	0.0091
3080	0.009
3089	0.0094
3098	0.0101
3107	0.0108
3116	0.0118
3125	0.0129
3134	0.0142
3143	0.0155
3152	0.0169
3161	0.0182
3170	0.0196
3179	0.0209
3188	0.0219
3197	0.0229
3206	0.0236
3215	0.0243
3224	0.0249
3233	0.0254
3242	0.0257
3251	0.026
3260	0.0262
3269	0.0262
3278	0.0263
3287	0.0263
3296	0.0263
3305	0.0263
3314	0.0262
3323	0.0262
3332	0.0261
3341	0.0264
3350	0.0267
3359	0.0279
3368	0.0333
3377	0.0597
3386	0.0887
3395	0.1176
3404	0.1463
3413	0.1748
3422	0.2033
3431	0.2315
3440	0.2596
3449	0.2929
3458	0.3474
3467	0.3707
3476	0.3886
3485	0.4163
3494	0.4407
3503	0.4577
3512	0.4746
3521	0.4832
3530	0.4914
3539	0.499
3548	0.5064
3557	0.5138
3566	0.5214
3575	0.5293
3584	0.538
3593	0.5479
3602	0.561
3611	0.575
3620	0.5816
3629	0.5867
3638	0.5889
3647	0.5905
3656	0.5903
3665	0.5897
3674	0.5888
3683	0.5867
3692	0.5833
3701	0.5786
3710	0.5727
3719	0.5671
3728	0.5614
3737	0.5577
3746	0.5546
3755	0.5514
3764	0.5487
3773	0.5465
3782	0.5444
3791	0.5421
3800	0.5397
3809	0.535
3818	0.5265
3827	0.5212
3836	0.516
3845	0.5113
3854	0.5069
3863	0.5004
3872	0.4954
3881	0.4937
3890	0.4932
3899	0.4927
3908	0.4923
3917	0.4921
3926	0.4918
3935	0.4915
3944	0.4909
3953	0.4898
3962	0.4879
3971	0.4828
3980	0.4796
3989	0.4768
3998	0.4749
