Infrared Spectrum: PIPERIDINE, 1-METHYL
Formula: C6 H13 N
CAS: 626-67-5
State: LIQUID
Boiling point: 98 C AT 732 mmHg
Class: COBLENTZ
Instrument: Not specified, most likely a prism, grating, or hybrid spectrometer.
Sampling: TRANSMISSION
Path length: SMEAR
Resolution: 4
Origin: DOW CHEMICAL COMPANY
MICROMETERS	TRANSMITTANCE
2.034	0.938
2.07484	0.931
2.11567	0.929
2.15651	0.928
2.19734	0.928
2.23818	0.928
2.27901	0.899
2.31985	0.888
2.36068	0.888
2.40152	0.888
2.44235	0.888
2.48319	0.888
2.52402	0.899
2.56486	0.897
2.60569	0.899
2.64653	0.9
2.68736	0.909
2.7282	0.909
2.76903	0.911
2.80987	0.902
2.8507	0.887
2.89154	0.859
2.93237	0.847
2.97321	0.832
3.01404	0.834
3.05488	0.841
3.09571	0.849
3.13655	0.851
3.17738	0.851
3.21822	0.863
3.25905	0.866
3.29989	0.864
3.34072	0.786
3.38156	0.222
3.42239	0.063
3.46323	0.266
3.50406	0.211
3.5449	0.391
3.58573	0.319
3.62657	0.1
3.6674	0.261
3.70824	0.381
3.74907	0.422
3.78991	0.535
3.83074	0.724
3.87158	0.758
3.91241	0.829
3.95325	0.871
3.99408	0.892
4.03492	0.882
4.07575	0.905
4.11659	0.919
4.15742	0.921
4.19826	0.912
4.23909	0.94
4.27993	0.941
4.32076	0.933
4.3616	0.921
4.40244	0.921
4.44327	0.929
4.48411	0.914
4.52494	0.931
4.56578	0.933
4.60661	0.935
4.64745	0.933
4.68828	0.935
4.72912	0.952
4.76995	0.952
4.81079	0.943
4.85162	0.928
4.89246	0.929
4.93329	0.928
4.97413	0.938
5.01496	0.948
5.0558	0.953
5.09663	0.953
5.13747	0.952
5.1783	0.943
5.21914	0.94
5.25997	0.929
5.30081	0.943
5.34164	0.95
5.38248	0.94
5.42331	0.95
5.46415	0.953
5.50498	0.953
5.54582	0.95
5.58665	0.936
5.62749	0.95
5.66832	0.94
5.70916	0.941
5.74999	0.941
5.79083	0.938
5.83166	0.938
5.8725	0.931
5.91333	0.916
5.95417	0.917
5.995	0.914
6.03584	0.921
6.07667	0.914
6.11751	0.916
6.15834	0.914
6.19918	0.916
6.24001	0.926
6.28085	0.929
6.32168	0.926
6.36252	0.921
6.40335	0.923
6.44419	0.916
6.48502	0.905
6.52586	0.907
6.56669	0.9
6.60753	0.895
6.64836	0.871
6.6892	0.852
6.73004	0.789
6.77087	0.588
6.81171	0.353
6.85254	0.297
6.89338	0.288
6.93421	0.305
6.97505	0.528
7.01588	0.673
7.05672	0.753
7.09755	0.815
7.13839	0.837
7.17922	0.832
7.22006	0.699
7.26089	0.358
7.30173	0.524
7.34256	0.767
7.3834	0.796
7.42423	0.782
7.46507	0.813
7.5059	0.856
7.54674	0.847
7.58757	0.852
7.62841	0.841
7.66924	0.788
7.71008	0.548
7.75091	0.461
7.79175	0.435
7.83258	0.22
7.87342	0.432
7.91425	0.452
7.95509	0.476
7.99592	0.791
8.03676	0.854
8.07759	0.885
8.11843	0.899
8.15926	0.911
8.2001	0.919
8.24093	0.923
8.28177	0.923
8.3226	0.911
8.36344	0.899
8.40427	0.883
8.44511	0.834
8.48594	0.745
8.52678	0.623
8.56761	0.329
8.60845	0.362
8.64928	0.458
8.69012	0.432
8.73095	0.186
8.77179	0.347
8.81262	0.603
8.85346	0.723
8.89429	0.777
8.93513	0.801
8.97596	0.8
9.0168	0.709
9.05764	0.511
9.09847	0.422
9.13931	0.641
9.18014	0.601
9.22098	0.692
9.26181	0.789
9.30265	0.847
9.34348	0.859
9.38432	0.864
9.42515	0.859
9.46599	0.842
9.50682	0.798
9.54766	0.688
9.58849	0.413
9.62933	0.294
9.67016	0.294
9.711	0.475
9.75183	0.629
9.79267	0.779
9.8335	0.835
9.87434	0.854
9.91517	0.856
9.95601	0.823
9.99684	0.606
10.0377	0.439
10.0785	0.675
10.1193	0.808
10.1602	0.863
10.201	0.88
10.2419	0.887
10.2827	0.885
10.3235	0.856
10.3644	0.784
10.4052	0.82
10.446	0.885
10.4869	0.907
10.5277	0.919
10.5685	0.923
10.6094	0.924
10.6502	0.924
10.691	0.924
10.7319	0.924
10.7727	0.924
10.8135	0.926
10.8544	0.929
10.8952	0.929
10.936	0.929
10.9769	0.929
11.0177	0.931
11.0586	0.931
11.0994	0.931
11.1402	0.931
11.1811	0.931
11.2219	0.931
11.2627	0.931
11.3036	0.929
11.3444	0.926
11.3852	0.916
11.4261	0.904
11.4669	0.892
11.5077	0.858
11.5486	0.758
11.5894	0.577
11.6302	0.461
11.6711	0.564
11.7119	0.745
11.7528	0.832
11.7936	0.866
11.8344	0.899
11.8753	0.911
11.9161	0.914
11.9569	0.917
11.9978	0.917
12.0386	0.917
12.0794	0.921
12.1203	0.924
12.1611	0.926
12.2019	0.926
12.2428	0.926
12.2836	0.916
12.3244	0.899
12.3653	0.887
12.4061	0.9
12.4469	0.916
12.4878	0.919
12.5286	0.921
12.5695	0.921
12.6103	0.917
12.6511	0.912
12.692	0.9
12.7328	0.883
12.7736	0.852
12.8145	0.801
12.8553	0.688
12.8961	0.437
12.937	0.312
12.9778	0.396
13.0186	0.558
13.0595	0.678
13.1003	0.75
13.1411	0.801
13.182	0.827
13.2228	0.834
13.2636	0.842
13.3045	0.849
13.3453	0.851
13.3862	0.856
13.427	0.856
13.4678	0.856
13.5087	0.858
13.5495	0.858
13.5903	0.859
13.6312	0.859
13.672	0.859
13.7128	0.859
13.7537	0.859
13.7945	0.856
13.8353	0.854
13.8762	0.849
13.917	0.851
13.9578	0.849
13.9987	0.844
14.0395	0.837
14.0804	0.832
14.1212	0.83
14.162	0.827
14.2029	0.823
14.2437	0.82
14.2845	0.818
14.3254	0.818
14.3662	0.815
14.407	0.813
14.4479	0.808
14.4887	0.801
14.5295	0.8
14.5704	0.796
14.6112	0.791
14.652	0.784
14.6929	0.777
14.7337	0.77
14.7745	0.769
14.8154	0.764
14.8562	0.76
14.8971	0.755
14.9379	0.75
14.9787	0.74
15.0196	0.731
15.0604	0.731
15.1012	0.721
15.1421	0.719
15.1829	0.712
15.2237	0.705
15.2646	0.702
15.3054	0.7
15.3462	0.697
15.3871	0.694
15.4279	0.69
15.4687	0.68
15.5096	0.678
15.5504	0.673
15.5912	0.673
15.6321	0.673
15.6729	0.671
15.7138	0.668
15.7546	0.666
15.7954	0.664
15.8363	0.664
15.8771	0.664
15.9179	0.663
15.9588	0.663
15.9996	0.661
