Infrared Spectrum: Di-sec-butylamine
Formula: C 8 H 19 N
CAS: 626-23-3
State: gas
Origin: EPA-IR VAPOR PHASE LIBRARY
1/CM	ABSORBANCE
501.5	0.003696
513.074	0.003296
524.648	0.003476
536.222	0.003326
547.796	0.003586
559.37	0.003976
570.944	0.004416
582.518	0.004156
594.092	0.003696
605.666	0.003746
617.24	0.004196
628.814	0.005006
640.388	0.006206
651.962	0.007526
663.536	0.008846
675.11	0.009626
686.684	0.009266
698.258	0.007546
709.832	0.005306
721.406	0.003776
732.98	0.002786
744.554	0.002326
756.128	0.002636
767.702	0.003836
779.276	0.004886
790.85	0.004456
802.423	0.003366
813.997	0.002956
825.571	0.002916
837.145	0.002786
848.719	0.002356
860.293	0.001836
871.867	0.001756
883.441	0.001796
895.015	0.001906
906.589	0.001596
918.163	0.001656
929.737	0.002126
941.311	0.002476
952.885	0.002966
964.459	0.004156
976.033	0.004796
987.607	0.004646
999.181	0.005166
1010.76	0.006296
1022.33	0.006256
1033.9	0.007446
1045.48	0.010176
1057.05	0.008746
1068.63	0.005926
1080.2	0.007196
1091.77	0.009986
1103.35	0.011896
1114.92	0.013676
1126.49	0.015076
1138.07	0.017296
1149.64	0.025976
1161.22	0.033956
1172.79	0.025876
1184.36	0.013896
1195.94	0.008216
1207.51	0.005646
1219.09	0.004806
1230.66	0.004366
1242.23	0.004596
1253.81	0.005626
1265.38	0.006546
1276.96	0.006166
1288.53	0.006786
1300.1	0.007906
1311.68	0.008746
1323.25	0.011176
1334.83	0.014736
1346.4	0.017206
1357.97	0.018366
1369.55	0.027406
1381.12	0.032826
1392.7	0.019046
1404.27	0.008826
1415.84	0.007336
1427.42	0.010526
1438.99	0.018936
1450.57	0.027606
1462.14	0.031856
1473.71	0.026916
1485.29	0.015716
1496.86	0.007716
1508.44	0.004396
1520.01	0.003046
1531.58	0.002356
1543.16	0.002046
1554.73	0.001856
1566.31	0.001706
1577.88	0.001646
1589.45	0.001566
1601.03	0.001526
1612.6	0.001506
1624.18	0.001446
1635.75	0.001466
1647.32	0.001406
1658.9	0.001406
1670.47	0.001366
1682.05	0.001266
1693.62	0.001186
1705.19	0.001124
1716.77	0.0010301
1728.34	0.0010039
1739.92	0.0009298
1751.49	0.0007912
1763.06	0.0008192
1774.64	0.000774
1786.21	0.0007656
1797.79	0.0007688
1809.36	0.0008099
1820.93	0.0007658
1832.51	0.0007435
1844.08	0.0006816
1855.66	0.000679
1867.23	0.0005855
1878.8	0.0005507
1890.38	0.0005417
1901.95	0.0005112
1913.53	0.0004709
1925.1	0.0004879
1936.67	0.000473
1948.25	0.0004429
1959.82	0.0003823
1971.4	0.0003215
1982.97	0.0002927
1994.54	0.0003131
2006.12	0.0003238
2017.69	0.000309
2029.27	0.0003102
2040.84	0.000289
2052.41	0.0003372
2063.99	0.0002937
2075.56	0.0002436
2087.14	0.00024939
2098.71	0.00024125
2110.28	0.00025021
2121.86	0.0003353
2133.43	0.0003334
2145.01	0.0003503
2156.58	0.0003897
2168.15	0.0003246
2179.73	0.0003086
2191.3	0.0003365
2202.88	0.0003206
2214.45	0.0002911
2226.02	0.0003049
2237.6	0.0002901
2249.17	0.000323
2260.74	0.000352
2272.32	0.0003714
2283.89	0.0004649
2295.47	0.0004935
2307.04	0.0005535
2318.61	0.0005067
2330.19	0.0005285
2341.76	0.0005388
2353.34	0.0005349
2364.91	0.0005477
2376.48	0.0005864
2388.06	0.0005568
2399.63	0.0005822
2411.21	0.0005807
2422.78	0.0005917
2434.35	0.000605
2445.93	0.0006488
2457.5	0.0006428
2469.08	0.0006119
2480.65	0.0006035
2492.22	0.0005347
2503.8	0.0005087
2515.37	0.0005582
2526.95	0.0006316
2538.52	0.0008103
2550.09	0.0010941
2561.67	0.001446
2573.24	0.001926
2584.82	0.002356
2596.39	0.002576
2607.96	0.002696
2619.54	0.002776
2631.11	0.002836
2642.69	0.002806
2654.26	0.002716
2665.83	0.002816
2677.41	0.002956
2688.98	0.003046
2700.56	0.003236
2712.13	0.003586
2723.7	0.004096
2735.28	0.004576
2746.85	0.004986
2758.43	0.005356
2770	0.006396
2781.57	0.008066
2793.15	0.010166
2804.72	0.012756
2816.3	0.015826
2827.87	0.019066
2839.44	0.022376
2851.02	0.028726
2862.59	0.039796
2874.17	0.052706
2885.74	0.060056
2897.31	0.055536
2908.89	0.060636
2920.46	0.084596
2932.04	0.102066
2943.61	0.096896
2955.18	0.109776
2966.76	0.158686
2978.33	0.133946
2989.91	0.059806
3001.48	0.023116
3013.05	0.012596
3024.63	0.008816
3036.2	0.007186
3047.78	0.006306
3059.35	0.005746
3070.92	0.005296
3082.5	0.004886
3094.07	0.004496
3105.65	0.003896
3117.22	0.003416
3128.79	0.003056
3140.37	0.002776
3151.94	0.002526
3163.52	0.002286
3175.09	0.002226
3186.66	0.001906
3198.24	0.001636
3209.81	0.001326
3221.39	0.0009686
3232.96	0.0007959
3244.53	0.0006809
3256.11	0.0005597
3267.68	0.0005058
3279.26	0.0004852
3290.83	0.0004881
3302.4	0.0004615
3313.98	0.0005839
3325.55	0.0005867
3337.13	0.0006125
3348.7	0.000667
3360.27	0.0006344
3371.85	0.0003563
3383.42	0.0003397
3395	0.0004442
3406.57	0.0002636
3418.14	0.0003242
3429.72	0.0003573
3441.29	0.0002724
3452.86	0.0002754
3464.44	0.0002534
3476.01	0.00020908
3487.59	0.0002512
3499.16	0.000268
3510.73	0.0002864
3522.31	0.00017441
3533.88	0.00018015
3545.46	0.0001011
3557.03	0.0001118
3568.6	0.0001027
3580.18	9.34e-05
3591.75	9.79e-05
3603.33	0.00020137
3614.9	7.98e-05
3626.47	0
3638.05	0.00022903
3649.62	0.000155024
3661.2	0.0003047
3672.77	0.0002578
3684.34	0.0002611
3695.92	0.0002753
3707.49	0.000162926
3719.07	0.000157446
3730.64	0.0001214
3742.21	4.4e-05
3753.79	0.0001055
3765.36	0.00016417
3776.94	0.00018677
3788.51	0.0001493
3800.08	0.00023407
3811.66	0.00022165
3823.23	0.00016997
3834.81	0.00018111
3846.38	0.00021214
3857.95	0.0003929
3869.53	0.0005099
3881.1	0.0004374
3892.68	0.0004359
3904.25	0.0004409
3915.82	0.0005131
3927.4	0.0004474
3938.97	0.0003989
3950.55	0.0004148
3962.12	0.0005871
3973.69	0.0004419
3985.27	0.0005323
3996.84	0.0005516
