Infrared Spectrum: 1-Bromo-4-methylpentane
Formula: C 6 H 13 Br
CAS: 626-88-0
State: gas
Instrument: HP-GC/MS/IRD
Origin: NIST Mass Spectrometry Data Center
1/CM	ABSORBANCE
550	0.0006885
562	0.001161
574	0.0014445
586	0.0004482
598	0.0001809
610	0.0001485
622	0.0002916
634	0.0009477
646	0.0018576
658	0.0009018
670	0.0001971
682	0.0001944
694	5.4e-05
706	0.000135
718	0.0001674
730	0.0004833
742	0.0006102
754	0.0007074
766	0.0004347
778	0.0002646
790	0.0002295
802	0.0002457
814	0.0003456
826	0.000378
838	0.0003888
850	0.00027
862	0.0002079
874	0.0001242
886	0.0001566
898	0.0001971
910	0.0003564
922	0.0006588
934	0.0007101
946	0.0005697
958	0.0004806
970	0.0003456
982	0.0002295
994	0.0001458
1006	0.0001269
1018	0.000216
1030	0.000297
1042	0.0004617
1054	0.0004833
1066	0.0003915
1078	0.0002916
1090	0.0003915
1102	0.0003375
1114	0.000351
1126	0.0002295
1138	0.0003105
1150	0.0004995
1162	0.0009126
1174	0.0008802
1186	0.0006642
1198	0.0013014
1210	0.0024084
1222	0.0017739
1234	0.0015525
1246	0.003051
1258	0.0042633
1270	0.0031185
1282	0.0023112
1294	0.0018117
1306	0.0015255
1318	0.001296
1330	0.0013986
1342	0.0012258
1354	0.001296
1366	0.0020817
1378	0.0023625
1390	0.0022437
1402	0.0011961
1414	0.00081
1426	0.0011745
1438	0.0021762
1450	0.0028863
1462	0.0032913
1474	0.002997
1486	0.0016092
1498	0.0007209
1510	0.0003537
1522	0.0002484
1534	0.0001701
1546	0.0001242
1558	8.91e-05
1570	0.000108
1582	0.0001242
1594	9.99e-05
1606	0.0001107
1618	7.83e-05
1630	7.02e-05
1642	8.37e-05
1654	4.59e-05
1666	5.94e-05
1678	5.13e-05
1690	6.21e-05
1702	5.13e-05
1714	3.51e-05
1726	4.86e-05
1738	8.1e-06
1750	4.05e-05
1762	1.35e-05
1774	0
1786	4.32e-05
1798	4.05e-05
1810	3.51e-05
1822	4.59e-05
1834	1.89e-05
1846	4.59e-05
1858	4.32e-05
1870	4.59e-05
1882	4.05e-05
1894	3.78e-05
1906	5.94e-05
1918	4.59e-05
1930	8.1e-06
1942	5.13e-05
1954	5.94e-05
1966	4.59e-05
1978	5.4e-05
1990	1.35e-05
2002	5.67e-05
2014	5.13e-05
2026	4.05e-05
2038	5.94e-05
2050	5.67e-05
2062	7.56e-05
2074	6.48e-05
2086	3.78e-05
2098	6.75e-05
2110	4.86e-05
2122	4.05e-05
2134	5.94e-05
2146	7.02e-05
2158	6.21e-05
2170	6.75e-05
2182	9.18e-05
2194	7.56e-05
2206	6.21e-05
2218	8.91e-05
2230	9.99e-05
2242	9.45e-05
2254	6.75e-05
2266	6.21e-05
2278	9.45e-05
2290	0.0001107
2302	0.0001107
2314	0.0001161
2326	9.45e-05
2338	6.48e-05
2350	0.0001053
2362	9.45e-05
2374	0.0001107
2386	0.0001431
2398	0.0001134
2410	0.0001674
2422	0.0001323
2434	0.0001188
2446	0.0001215
2458	0.0001404
2470	0.0001242
2482	0.0001431
2494	0.0001539
2506	0.0001728
2518	0.0001593
2530	0.0001647
2542	0.0001647
2554	0.0001755
2566	0.0001782
2578	0.0002187
2590	0.0002349
2602	0.0002646
2614	0.0002808
2626	0.0003213
2638	0.0003726
2650	0.0003321
2662	0.0003483
2674	0.0003321
2686	0.000324
2698	0.0004131
2710	0.0004239
2722	0.0004995
2734	0.0005697
2746	0.0005373
2758	0.0005346
2770	0.0005859
2782	0.0006669
2794	0.0007722
2806	0.0009288
2818	0.0012069
2830	0.0016659
2842	0.0026946
2854	0.0042714
2866	0.0060669
2878	0.008532
2890	0.0094851
2902	0.0102654
2914	0.0121581
2926	0.0132327
2938	0.0148257
2950	0.0171882
2962	0.0256068
2974	0.0220752
2986	0.0077787
2998	0.0035829
3010	0.0028998
3022	0.0020412
3034	0.0011421
3046	0.0007965
3058	0.0006696
3070	0.0005994
3082	0.0005859
3094	0.0005346
3106	0.000513
3118	0.000459
3130	0.0004536
3142	0.0003996
3154	0.0004104
3166	0.0004347
3178	0.0004293
3190	0.0003861
3202	0.0003537
3214	0.0002511
3226	0.0002295
3238	0.0001755
3250	0.0001728
3262	0.0001458
3274	0.0001674
3286	0.0001917
3298	0.0001998
3310	0.0002322
3322	0.0001863
3334	0.0001674
3346	0.0001566
3358	0.0002025
3370	0.0001539
3382	0.0001755
3394	0.0001377
3406	0.0001242
3418	0.0001404
3430	0.0001188
3442	0.0001053
3454	0.0001134
3466	0.0001053
3478	0.0001242
3490	9.99e-05
3502	0.000108
3514	9.18e-05
3526	9.99e-05
3538	0.0001215
3550	0.0001134
3562	7.83e-05
3574	0.0001161
3586	0.0001269
3598	0.000108
3610	0.0001404
3622	0.0001269
3634	0.0001215
3646	7.02e-05
3658	0.0001107
3670	0.0001026
3682	9.72e-05
3694	0.0001377
3706	8.37e-05
3718	0.0001728
3730	8.64e-05
3742	0.0001593
3754	0.0001296
3766	0.0001269
3778	0.0001971
3790	0.0002295
3802	0.0001512
3814	0.0001593
3826	0.0001944
3838	0.0002322
