Infrared Spectrum: ETHYL ALLOPHANATE
Formula: C4 H8 O3 N2
CAS: 626-36-8
State: SOLID (5% KBr PELLET)
Class: COBLENTZ
Instrument: Not specified, most likely a grating spectrometer.
Sampling: TRANSMISSION
Resolution: 4
Origin: STANDARD OIL OF OHIO
MICROMETERS	TRANSMITTANCE
2.054	0.892
2.08778	0.895
2.12157	0.908
2.15535	0.913
2.18914	0.903
2.22292	0.903
2.25671	0.924
2.29049	0.927
2.32428	0.93
2.35806	0.935
2.39185	0.935
2.42563	0.937
2.45942	0.937
2.4932	0.946
2.52699	0.949
2.56077	0.951
2.59456	0.951
2.62834	0.951
2.66213	0.942
2.69591	0.898
2.72969	0.838
2.76348	0.711
2.79726	0.573
2.83105	0.47
2.86483	0.301
2.89862	0.102
2.9324	0.104
2.96619	0.249
2.99997	0.19
3.03376	0.119
3.06754	0.025
3.10133	0.025
3.13511	0.016
3.1689	0.028
3.20268	0.06
3.23647	0.111
3.27025	0.143
3.30403	0.121
3.33782	0.156
3.3716	0.251
3.40539	0.391
3.43917	0.532
3.47296	0.62
3.50674	0.674
3.54053	0.736
3.57431	0.774
3.6081	0.779
3.64188	0.762
3.67567	0.804
3.70945	0.881
3.74324	0.9
3.77702	0.915
3.81081	0.924
3.84459	0.946
3.87838	0.952
3.91216	0.957
3.94594	0.961
3.97973	0.966
4.01351	0.962
4.0473	0.964
4.08108	0.976
4.11487	0.974
4.14865	0.969
4.18244	0.966
4.21622	0.962
4.25001	0.952
4.28379	0.951
4.31758	0.956
4.35136	0.962
4.38515	0.959
4.41893	0.957
4.45272	0.947
4.4865	0.913
4.52029	0.922
4.55407	0.949
4.58785	0.962
4.62164	0.966
4.65542	0.964
4.68921	0.959
4.72299	0.961
4.75678	0.954
4.79056	0.947
4.82435	0.952
4.85813	0.954
4.89192	0.951
4.9257	0.952
4.95949	0.949
4.99327	0.937
5.02706	0.905
5.06084	0.898
5.09463	0.912
5.12841	0.93
5.1622	0.937
5.19598	0.922
5.22976	0.919
5.26355	0.922
5.29733	0.913
5.33112	0.9
5.3649	0.885
5.39869	0.878
5.43247	0.873
5.46626	0.868
5.50004	0.856
5.53383	0.829
5.56761	0.779
5.6014	0.711
5.63518	0.546
5.66897	0.261
5.70275	0.021
5.73654	0.006
5.77032	0.005
5.8041	0.005
5.83789	0.005
5.87167	0.013
5.90546	0.106
5.93924	0.232
5.97303	0.266
6.00681	0.278
6.0406	0.284
6.07438	0.274
6.10817	0.222
6.14195	0.141
6.17574	0.047
6.20952	0.008
6.24331	0.01
6.27709	0.033
6.31088	0.121
6.34466	0.202
6.37845	0.232
6.41223	0.291
6.44601	0.301
6.4798	0.313
6.51358	0.333
6.54737	0.241
6.58115	0.107
6.61494	0.023
6.64872	0.026
6.68251	0.111
6.71629	0.212
6.75008	0.337
6.78386	0.426
6.81765	0.391
6.85143	0.311
6.88522	0.362
6.919	0.391
6.95279	0.295
6.98657	0.178
7.02036	0.089
7.05414	0.013
7.08792	0.035
7.12171	0.111
7.15549	0.183
7.18928	0.256
7.22306	0.448
7.25685	0.494
7.29063	0.453
7.32442	0.632
7.3582	0.674
7.39199	0.689
7.42577	0.701
7.45956	0.706
7.49334	0.693
7.52713	0.662
7.56091	0.632
7.5947	0.596
7.62848	0.554
7.66227	0.539
7.69605	0.534
7.72983	0.521
7.76362	0.475
7.7974	0.419
7.83119	0.328
7.86497	0.178
7.89876	0.064
7.93254	0.008
7.96633	0.005
8.00011	0.003
8.0339	0.003
8.06768	0.003
8.10147	0.005
8.13525	0.011
8.16904	0.106
8.20282	0.192
8.23661	0.251
8.27039	0.362
8.30417	0.423
8.33796	0.462
8.37174	0.47
8.40553	0.46
8.43931	0.446
8.4731	0.435
8.50688	0.424
8.54067	0.435
8.57445	0.458
8.60824	0.468
8.64202	0.473
8.67581	0.472
8.70959	0.462
8.74338	0.431
8.77716	0.357
8.81095	0.224
8.84473	0.126
8.87852	0.112
8.9123	0.237
8.94608	0.249
8.97987	0.239
9.01365	0.18
9.04744	0.107
9.08122	0.072
9.11501	0.247
9.14879	0.396
9.18258	0.524
9.21636	0.623
9.25015	0.676
9.28393	0.736
9.31772	0.774
9.3515	0.799
9.38529	0.809
9.41907	0.824
9.45286	0.833
9.48664	0.839
9.52043	0.841
9.55421	0.836
9.58799	0.806
9.62178	0.75
9.65556	0.625
9.68935	0.381
9.72313	0.128
9.75692	0.116
9.7907	0.355
9.82449	0.453
9.85827	0.559
9.89206	0.662
9.92584	0.725
9.95963	0.753
9.99341	0.78
10.0272	0.792
10.061	0.801
10.0948	0.79
10.1286	0.75
10.1623	0.696
10.1961	0.581
10.2299	0.379
10.2637	0.284
10.2975	0.298
10.3313	0.367
10.365	0.5
10.3988	0.596
10.4326	0.635
10.4664	0.679
10.5002	0.709
10.534	0.736
10.5678	0.753
10.6015	0.767
10.6353	0.774
10.6691	0.784
10.7029	0.79
10.7367	0.797
10.7705	0.804
10.8042	0.804
10.838	0.809
10.8718	0.814
10.9056	0.814
10.9394	0.816
10.9732	0.816
11.007	0.811
11.0407	0.807
11.0745	0.804
11.1083	0.795
11.1421	0.785
11.1759	0.774
11.2097	0.755
11.2434	0.738
11.2772	0.715
11.311	0.688
11.3448	0.632
11.3786	0.553
11.4124	0.416
11.4462	0.252
11.4799	0.198
11.5137	0.254
11.5475	0.377
11.5813	0.403
11.6151	0.408
11.6489	0.381
11.6826	0.345
11.7164	0.283
11.7502	0.239
11.784	0.198
11.8178	0.143
11.8516	0.134
11.8854	0.128
11.9191	0.128
11.9529	0.134
11.9867	0.151
12.0205	0.182
12.0543	0.217
12.0881	0.271
12.1218	0.327
12.1556	0.376
12.1894	0.416
12.2232	0.465
12.257	0.502
12.2908	0.536
12.3246	0.563
12.3583	0.593
12.3921	0.605
12.4259	0.623
12.4597	0.632
12.4935	0.64
12.5273	0.64
12.5611	0.625
12.5948	0.588
12.6286	0.544
12.6624	0.401
12.6962	0.261
12.73	0.123
12.7638	0.023
12.7975	0.015
12.8313	0.065
12.8651	0.214
12.8989	0.404
12.9327	0.516
12.9665	0.591
13.0003	0.632
13.034	0.65
13.0678	0.639
13.1016	0.6
13.1354	0.573
13.1692	0.558
13.203	0.578
13.2367	0.602
13.2705	0.627
13.3043	0.65
13.3381	0.662
13.3719	0.672
13.4057	0.684
13.4395	0.693
13.4732	0.701
13.507	0.723
13.5408	0.733
13.5746	0.74
13.6084	0.752
13.6422	0.76
13.6759	0.765
13.7097	0.77
13.7435	0.774
13.7773	0.779
13.8111	0.782
13.8449	0.787
13.8787	0.787
13.9124	0.79
13.9462	0.792
13.98	0.797
14.0138	0.799
14.0476	0.802
14.0814	0.804
14.1151	0.804
14.1489	0.807
14.1827	0.809
14.2165	0.811
14.2503	0.812
14.2841	0.814
14.3179	0.814
14.3516	0.816
14.3854	0.816
14.4192	0.816
14.453	0.816
14.4868	0.816
14.5206	0.814
14.5543	0.814
14.5881	0.804
14.6219	0.804
14.6557	0.802
14.6895	0.801
14.7233	0.797
14.7571	0.795
14.7908	0.794
14.8246	0.794
14.8584	0.795
14.8922	0.794
14.926	0.79
14.9598	0.785
14.9936	0.784
15.0273	0.785
15.0611	0.785
15.0949	0.782
15.1287	0.779
15.1625	0.777
15.1963	0.777
15.23	0.772
15.2638	0.774
