Infrared Spectrum: 5-Hexen-2-ol
Formula: C 6 H 12 O
CAS: 626-94-8
State: gas
Instrument: HP-GC/MS/IRD
Origin: NIST Mass Spectrometry Data Center
1/CM	ABSORBANCE
550	0.0003625
562	0.0002025
574	0.0001045
586	0.000181
598	0.0001615
610	0.000296
622	0.0004455
634	0.000472
646	0.000385
658	0.0002725
670	0.0002235
682	0.0001445
694	0.000178
706	0.000122
718	3.25e-05
730	4.35e-05
742	0.0001085
754	9.8e-05
766	9.9e-05
778	0.0001685
790	0.000112
802	0.0002215
814	0.0001695
826	0.000293
838	0.0003895
850	0.0004565
862	0.0004565
874	0.00058
886	0.0009505
898	0.0015715
910	0.002524
922	0.0026685
934	0.0021785
946	0.0018745
958	0.0014975
970	0.0011755
982	0.0012675
994	0.0014195
1006	0.0013105
1018	0.001205
1030	0.0013835
1042	0.0015185
1054	0.001693
1066	0.001829
1078	0.001898
1090	0.0020875
1102	0.002279
1114	0.0022795
1126	0.0020855
1138	0.0018705
1150	0.0013385
1162	0.000933
1174	0.000741
1186	0.000767
1198	0.000884
1210	0.000982
1222	0.0010335
1234	0.0012
1246	0.0012745
1258	0.0011855
1270	0.000939
1282	0.000766
1294	0.000687
1306	0.0006495
1318	0.0006545
1330	0.0007145
1342	0.0008105
1354	0.0011085
1366	0.001516
1378	0.001829
1390	0.001668
1402	0.0011405
1414	0.0008635
1426	0.0008205
1438	0.000926
1450	0.0010625
1462	0.000832
1474	0.0004635
1486	0.0002395
1498	0.0001415
1510	0
1522	3.1e-05
1534	6.1e-05
1546	6.05e-05
1558	5e-06
1570	7.5e-05
1582	9.05e-05
1594	0.000159
1606	0.000207
1618	0.000303
1630	0.00072
1642	0.0009005
1654	0.0005085
1666	0.000175
1678	4.9e-05
1690	8.85e-05
1702	4.1e-05
1714	8e-05
1726	0.000119
1738	8.55e-05
1750	5.6e-05
1762	4.55e-05
1774	4.1e-05
1786	3.3e-05
1798	5.4e-05
1810	0.0001215
1822	0.000187
1834	0.000219
1846	0.0001315
1858	8.85e-05
1870	4.85e-05
1882	6.85e-05
1894	5.15e-05
1906	5.05e-05
1918	3.9e-05
1930	4.2e-05
1942	3.35e-05
1954	3e-05
1966	7.15e-05
1978	4.2e-05
1990	5.9e-05
2002	7.25e-05
2014	5.2e-05
2026	6e-05
2038	5.05e-05
2050	3.25e-05
2062	3.3e-05
2074	3.3e-05
2086	4.55e-05
2098	3.7e-05
2110	3.45e-05
2122	5.05e-05
2134	3.4e-05
2146	3e-05
2158	5.5e-05
2170	4.65e-05
2182	3.95e-05
2194	5.5e-05
2206	7.1e-05
2218	4.4e-05
2230	4.35e-05
2242	4.85e-05
2254	5.95e-05
2266	4.15e-05
2278	3.85e-05
2290	5.4e-05
2302	3.65e-05
2314	2.05e-05
2326	3.95e-05
2338	4.65e-05
2350	5.65e-05
2362	5.7e-05
2374	2.65e-05
2386	4.55e-05
2398	7e-05
2410	5.3e-05
2422	2.5e-05
2434	7.05e-05
2446	4.85e-05
2458	5.2e-05
2470	4.1e-05
2482	5.55e-05
2494	7.2e-05
2506	4.3e-05
2518	5.15e-05
2530	4.25e-05
2542	7.75e-05
2554	5.2e-05
2566	5.85e-05
2578	8.3e-05
2590	6.55e-05
2602	7.85e-05
2614	6.8e-05
2626	0.0001055
2638	8e-05
2650	0.000135
2662	0.000119
2674	0.000148
2686	0.000166
2698	0.0001255
2710	0.000121
2722	0.000122
2734	0.000149
2746	0.00016
2758	0.0001405
2770	0.0002055
2782	0.000212
2794	0.00023
2806	0.0002975
2818	0.0004485
2830	0.000662
2842	0.001048
2854	0.0015335
2866	0.001952
2878	0.0022865
2890	0.00246
2902	0.002846
2914	0.0037795
2926	0.004813
2938	0.0048795
2950	0.004081
2962	0.003819
2974	0.0044275
2986	0.003721
2998	0.0022435
3010	0.0013055
3022	0.0007925
3034	0.000562
3046	0.000532
3058	0.000614
3070	0.000914
3082	0.001397
3094	0.001205
3106	0.000502
3118	0.000258
3130	0.0001825
3142	0.000129
3154	0.0001045
3166	9.3e-05
3178	7.7e-05
3190	8.95e-05
3202	9.1e-05
3214	9.05e-05
3226	5.8e-05
3238	4.15e-05
3250	4.3e-05
3262	6.95e-05
3274	7.15e-05
3286	6.05e-05
3298	6.65e-05
3310	4.35e-05
3322	7.7e-05
3334	2.5e-05
3346	6.6e-05
3358	7.65e-05
3370	0.000115
3382	0.0001155
3394	0.0001395
3406	0.0001335
3418	0.000167
3430	0.000137
3442	0.000114
3454	0.000137
3466	0.00011
3478	0.0001285
3490	0.000124
3502	0.0001015
3514	0.000126
3526	0.000113
3538	0.0001275
3550	0.000126
3562	0.000135
3574	0.0001215
3586	0.0001055
3598	0.0001945
3610	0.0002175
3622	0.0004095
3634	0.000603
3646	0.0007895
3658	0.0008555
3670	0.000501
3682	0.0003335
3694	0.000214
3706	0.000152
3718	0.000191
3730	0.000175
3742	0.0001245
3754	0.0001355
3766	0.000138
3778	0.000213
3790	0.000182
3802	0.000133
3814	0.000164
3826	0.0001935
3838	0.000173
