Infrared Spectrum: Carbanilic acid, N-tert-butyl-, ethyl ester
Formula: C13 H19 N O2
CAS: 62603-73-0
State: SOLID (NEAT, MELT)
Class: COBLENTZ III
Instrument: BECKMAN IR-4 (HYBRID PRISM-GRATING)
Instrument parameters: NaCl PRISM
Sampling: TRANSMISSION
Resolution: 2
Origin: MONSANTO (J. FREEMAN)
1/CM	TRANSMITTANCE
661	0.9869
670	0.9029
679	0.9851
688	0.9252
697	0.3801
706	0.8488
715	0.965
724	0.956
733	0.7678
742	0.8365
751	0.9411
760	0.9173
769	0.58
778	0.7358
787	0.8729
796	0.9056
805	0.9487
814	0.9621
823	0.9527
832	0.9584
841	0.9567
850	0.9648
859	0.9314
868	0.8735
877	0.9492
886	0.9804
895	0.9838
904	0.9789
913	0.9668
922	0.9601
931	0.9673
940	0.9709
949	0.9658
958	0.9482
967	0.8462
976	0.8972
985	0.9107
994	0.9218
1003	0.7765
1012	0.9262
1021	0.8759
1030	0.8839
1039	0.8975
1048	0.8676
1057	0.8645
1066	0.6392
1075	0.448
1084	0.2866
1093	0.2619
1102	0.4197
1111	0.6682
1120	0.8172
1129	0.8695
1138	0.8919
1147	0.8883
1156	0.838
1165	0.7006
1174	0.7377
1183	0.8314
1192	0.7259
1201	0.5289
1210	0.6089
1219	0.5841
1228	0.6518
1237	0.7387
1246	0.7242
1255	0.6592
1264	0.5307
1273	0.2111
1282	0.1906
1291	0.4871
1300	0.5214
1309	0.3986
1318	0.2328
1327	0.183
1336	0.351
1345	0.7061
1354	0.7636
1363	0.4749
1372	0.2717
1381	0.523
1390	0.5663
1399	0.4298
1408	0.6878
1417	0.7943
1426	0.8161
1435	0.8009
1444	0.6807
1453	0.5757
1462	0.5485
1471	0.6088
1480	0.6457
1489	0.563
1498	0.423
1507	0.6947
1516	0.8708
1525	0.8951
1534	0.8977
1543	0.8868
1552	0.8883
1561	0.9041
1570	0.902
1579	0.8809
1588	0.7113
1597	0.545
1606	0.806
1615	0.8719
1624	0.8955
1633	0.895
1642	0.8854
1651	0.8684
1660	0.8042
1669	0.7736
1678	0.6948
1687	0.5354
1696	0.2735
1705	0.103
1714	0.124
1723	0.4101
1732	0.6497
1741	0.78
1750	0.8386
1759	0.8699
1768	0.8879
1777	0.9055
1786	0.9124
1795	0.9119
1804	0.9112
1813	0.9132
1822	0.9159
1831	0.9182
1840	0.9216
1849	0.924
1858	0.9262
1867	0.924
1876	0.9179
1885	0.9183
1894	0.921
1903	0.9238
1912	0.9272
1921	0.9293
1930	0.9275
1939	0.9178
1948	0.9109
1957	0.9102
1966	0.9105
1975	0.9147
1984	0.9202
1993	0.9245
2002	0.9284
2011	0.9315
2020	0.9336
2029	0.9351
2038	0.936
2047	0.935
2056	0.9338
2065	0.9328
2074	0.9317
2083	0.9306
2092	0.9297
2101	0.9296
2110	0.9322
2119	0.9345
2128	0.9343
2137	0.933
2146	0.932
2155	0.9318
2164	0.9316
2173	0.9314
2182	0.931
2191	0.9307
2200	0.9302
2209	0.9298
2218	0.9291
2227	0.9279
2236	0.9268
2245	0.9256
2254	0.9247
2263	0.9248
2272	0.925
2281	0.9253
2290	0.9259
2299	0.9264
2308	0.927
2317	0.9279
2326	0.9287
2335	0.9306
2344	0.9327
2353	0.935
2362	0.9363
2371	0.9353
2380	0.9321
2389	0.9271
2398	0.9239
2407	0.9235
2416	0.9236
2425	0.9241
2434	0.9244
2443	0.9244
2452	0.9242
2461	0.924
2470	0.9237
2479	0.9233
2488	0.9229
2497	0.9225
2506	0.9221
2515	0.9215
2524	0.9207
2533	0.92
2542	0.9193
2551	0.9186
2560	0.9179
2569	0.9166
2578	0.9151
2587	0.9137
2596	0.9123
2605	0.9107
2614	0.9098
2623	0.9097
2632	0.9096
2641	0.9095
2650	0.9093
2659	0.9091
2668	0.9089
2677	0.9086
2686	0.9083
2695	0.9079
2704	0.9075
2713	0.9071
2722	0.9068
2731	0.9064
2740	0.9059
2749	0.9055
2758	0.905
2767	0.9042
2776	0.9023
2785	0.9002
2794	0.8977
2803	0.8952
2812	0.8916
2821	0.8875
2830	0.882
2839	0.8726
2848	0.86
2857	0.8409
2866	0.8175
2875	0.7724
2884	0.7273
2893	0.683
2902	0.662
2911	0.6466
2920	0.6327
2929	0.6208
2938	0.6085
2947	0.593
2956	0.5652
2965	0.5104
2974	0.4585
2983	0.4497
2992	0.4853
3001	0.6244
3010	0.7112
3019	0.7327
3028	0.7482
3037	0.7598
3046	0.7703
3055	0.7852
3064	0.7901
3073	0.7963
3082	0.8151
3091	0.847
3100	0.8737
3109	0.8853
3118	0.888
3127	0.8891
3136	0.8898
3145	0.8904
3154	0.8906
3163	0.8908
3172	0.8911
3181	0.8914
3190	0.8916
3199	0.8918
3208	0.892
3217	0.8922
3226	0.8949
3235	0.8926
3244	0.8924
3253	0.8923
3262	0.8921
3271	0.8919
3280	0.8918
3289	0.8911
3298	0.89
3307	0.8886
3316	0.8867
3325	0.8847
3334	0.8828
3343	0.8809
3352	0.879
3361	0.8776
3370	0.8775
3379	0.8774
3388	0.8773
3397	0.8777
3406	0.8781
3415	0.8789
3424	0.8797
3433	0.8805
3442	0.8809
3451	0.8813
3460	0.8814
3469	0.8813
3478	0.8812
3487	0.8811
3496	0.8812
3505	0.8812
3514	0.8813
3523	0.8814
3532	0.8815
3541	0.8815
3550	0.8821
3559	0.8826
3568	0.8831
3577	0.8837
3586	0.8848
3595	0.8857
3604	0.8866
3613	0.8865
3622	0.8864
3631	0.8862
3640	0.886
3649	0.8858
3658	0.8853
3667	0.885
3676	0.8847
3685	0.8843
3694	0.884
3703	0.8837
3712	0.8833
3721	0.883
3730	0.8826
3739	0.8822
3748	0.8818
3757	0.8814
3766	0.8809
3775	0.8805
3784	0.8802
3793	0.8798
3802	0.8792
3811	0.8787
3820	0.8783
3829	0.8777
3838	0.8773
3847	0.8768
3856	0.8764
3865	0.8758
3874	0.8753
3883	0.8749
3892	0.8744
3901	0.8739
3910	0.8735
3919	0.873
3928	0.8724
3937	0.8718
3946	0.8709
3955	0.8702
3964	0.8695
3973	0.8688
3982	0.868
3991	0.8673
4000	0.8666
