Infrared Spectrum: Phenolphthalein, dibutyrate
Formula: C28 H26 O6
CAS: 62625-15-4
State: SOLUTION (5% CCl4 FOR 3800-1330, 5% CS2 FOR 1330-400 CM^-^1)
Class: COBLENTZ III
Instrument: DOW KBr FOREPRISM-GRATING
Instrument parameters: BLAZED AT 3.5, 12.0, 20.0 MICRON AND CHANGED AT 5.0, 7.5, 14.9 MICRON
Sampling: TRANSMISSION
Path length: 0.010 CM, 0.011 CM
Resolution: 2
Origin: DOW CHEMICAL COMPANY
1/CM	TRANSMITTANCE
3800	0.9261
3791	0.9275
3782	0.9262
3773	0.9271
3764	0.9266
3755	0.9269
3746	0.9273
3737	0.9288
3728	0.9291
3719	0.9276
3710	0.9278
3701	0.9234
3692	0.9202
3683	0.9179
3674	0.9188
3665	0.9201
3656	0.9221
3647	0.9236
3638	0.9238
3629	0.9225
3620	0.9215
3611	0.912
3602	0.9095
3593	0.9165
3584	0.898
3575	0.8969
3566	0.9115
3557	0.91
3548	0.9068
3539	0.902
3530	0.8994
3521	0.8961
3512	0.8948
3503	0.8938
3494	0.8937
3485	0.8941
3476	0.8952
3467	0.8961
3458	0.8975
3449	0.8986
3440	0.8992
3431	0.8995
3422	0.8994
3413	0.8989
3404	0.8983
3395	0.8976
3386	0.8978
3377	0.8987
3368	0.9
3359	0.9012
3350	0.903
3341	0.9047
3332	0.9062
3323	0.9078
3314	0.9094
3305	0.9125
3296	0.9129
3287	0.914
3278	0.9158
3269	0.9167
3260	0.9171
3251	0.9174
3242	0.9175
3233	0.9175
3224	0.9178
3215	0.9184
3206	0.9171
3197	0.9175
3188	0.9175
3179	0.9164
3170	0.9167
3161	0.9176
3152	0.9178
3143	0.916
3134	0.9166
3125	0.9156
3116	0.9131
3107	0.9104
3098	0.909
3089	0.9049
3080	0.8825
3071	0.8821
3062	0.8795
3053	0.8767
3044	0.8641
3035	0.8813
3026	0.8927
3017	0.8974
3008	0.8931
2999	0.8753
2990	0.8484
2981	0.6578
2972	0.5284
2963	0.6256
2954	0.7349
2945	0.7516
2936	0.6964
2927	0.7416
2918	0.8144
2909	0.8258
2900	0.841
2891	0.8498
2882	0.8166
2873	0.7433
2864	0.8499
2855	0.8856
2846	0.8994
2837	0.9062
2828	0.9095
2819	0.9144
2810	0.9167
2801	0.9211
2792	0.924
2783	0.9259
2774	0.9277
2765	0.9283
2756	0.9289
2747	0.9294
2738	0.9294
2729	0.9294
2720	0.9294
2711	0.929
2702	0.9284
2693	0.9276
2684	0.9268
2675	0.9261
2666	0.9255
2657	0.9265
2648	0.9257
2639	0.9248
2630	0.9256
2621	0.9273
2612	0.928
2603	0.9286
2594	0.9293
2585	0.9297
2576	0.9299
2567	0.93
2558	0.9297
2549	0.9292
2540	0.9289
2531	0.9283
2522	0.928
2513	0.9279
2504	0.9278
2495	0.928
2486	0.9283
2477	0.9298
2468	0.9301
2459	0.9303
2450	0.9297
2441	0.9309
2432	0.9308
2423	0.9302
2414	0.928
2405	0.9278
2396	0.9261
2387	0.9256
2378	0.9263
2369	0.9226
2360	0.9244
2351	0.9297
2342	0.9304
2333	0.925
2324	0.9229
2315	0.9224
2306	0.9191
2297	0.9176
2288	0.9162
2279	0.9159
2270	0.9156
2261	0.9162
2252	0.9171
2243	0.9178
2234	0.9193
2225	0.921
2216	0.9207
2207	0.9209
2198	0.9211
2189	0.9198
2180	0.9195
2171	0.9205
2162	0.919
2153	0.9187
2144	0.9182
2135	0.9177
2126	0.9171
2117	0.9171
2108	0.9169
2099	0.9169
2090	0.917
2081	0.9173
2072	0.9168
2063	0.9163
2054	0.9175
2045	0.9147
2036	0.9117
2027	0.9069
2018	0.8988
2009	0.8942
2000	0.8961
1991	0.8991
1982	0.8977
1973	0.8941
1964	0.8998
1955	0.9085
1946	0.9014
1937	0.8977
1928	0.903
1919	0.8994
1910	0.8893
1901	0.8886
1892	0.8907
1883	0.8877
1874	0.8929
1865	0.8887
1856	0.8857
1847	0.883
1838	0.8792
1829	0.8581
1820	0.8319
1811	0.7921
1802	0.682
1793	0.5149
1784	0.1431
1775	0.0151
1766	0.0418
1757	0.171
1748	0.3676
1739	0.5778
1730	0.7446
1721	0.807
1712	0.8438
1703	0.8722
1694	0.8878
1685	0.8949
1676	0.8965
1667	0.8954
1658	0.8923
1649	0.8906
1640	0.8898
1631	0.8844
1622	0.8611
1613	0.744
1604	0.7151
1595	0.7191
1586	0.7553
1577	0.796
1568	0.7906
1559	0.7724
1550	0.7561
1541	0.7674
1532	0.7835
1523	0.7906
1514	0.6682
1505	0.2749
1496	0.702
1487	0.8207
1478	0.8391
1469	0.5174
1460	0.7083
1451	0.8089
1442	0.8309
1433	0.8324
1424	0.8319
1415	0.6751
1406	0.8304
1397	0.8571
1388	0.7821
1379	0.7452
1370	0.7137
1361	0.6533
1352	0.7458
1343	0.7374
1334	0.8085
1325	0.8056
1316	0.7986
1307	0.6383
1298	0.6535
1289	0.5546
1280	0.6209
1271	0.715
1262	0.6688
1253	0.4022
1244	0.4637
1235	0.495
1226	0.3978
1217	0.2848
1208	0.1534
1199	0.4242
1190	0.4122
1181	0.3505
1172	0.1979
1163	0.1937
1154	0.2557
1145	0.1287
1136	0.1057
1127	0.3199
1118	0.4533
1109	0.5325
1100	0.2506
1091	0.4392
1082	0.1618
1073	0.3402
1064	0.6982
1055	0.8045
1046	0.8264
1037	0.8092
1028	0.781
1019	0.5528
1010	0.7792
1001	0.8543
992	0.7849
983	0.5896
974	0.3711
965	0.6474
956	0.759
947	0.6714
938	0.5406
929	0.5495
920	0.5626
911	0.7116
902	0.8199
893	0.7774
884	0.8191
875	0.8055
866	0.7694
857	0.7355
848	0.5559
839	0.5912
830	0.7762
821	0.8301
812	0.8387
803	0.8409
794	0.8316
785	0.8682
776	0.9174
767	0.899
758	0.5819
749	0.7318
740	0.8039
731	0.8249
722	0.8286
713	0.841
704	0.8378
695	0.8176
686	0.6226
677	0.8577
668	0.8809
659	0.8341
650	0.8388
641	0.8527
632	0.8553
623	0.8602
614	0.8641
605	0.8636
596	0.8746
587	0.8623
578	0.8626
569	0.8556
560	0.8589
551	0.857
542	0.6265
533	0.7866
524	0.8288
515	0.7539
506	0.8019
497	0.8102
488	0.8417
479	0.8289
470	0.8144
461	0.797
452	0.7762
443	0.747
434	0.7249
425	0.6717
416	0.6112
407	0.4889
398	0.3975
389	0.3552
