Infrared Spectrum: Ether, butyl 2-ethylhexyl
Formula: C12 H26 O
CAS: 62625-25-6
State: SOLUTION (10% CCl4 FOR 3800-1330, 10% CS2 FOR 1330-400 CM^-^1) VS SOLVENT
Class: COBLENTZ III
Instrument: DOW KBr FOREPRISM-GRATING
Instrument parameters: BLAZED AT 3.5, 12.0, 20.0 MICRON AND CHANGED AT 5.0, 7.5, 14.9 MICRON
Sampling: TRANSMISSION
Path length: 0.010 CM, 0.011 CM
Resolution: 2
Origin: DOW CHEMICAL COMPANY
1/CM	TRANSMITTANCE
381	0.8705
390	0.8688
399	0.8657
408	0.8584
417	0.8519
426	0.847
435	0.8428
444	0.8384
453	0.8351
462	0.8363
471	0.837
480	0.8343
489	0.8309
498	0.8285
507	0.8244
516	0.8189
525	0.8143
534	0.8132
543	0.814
552	0.8184
561	0.8242
570	0.8269
579	0.829
588	0.8303
597	0.8323
606	0.8348
615	0.8406
624	0.85
633	0.8569
642	0.8583
651	0.8551
660	0.8522
669	0.8498
678	0.8462
687	0.8405
696	0.8337
705	0.8248
714	0.8053
723	0.7201
732	0.7288
741	0.753
750	0.7766
759	0.7629
768	0.7204
777	0.7389
786	0.7626
795	0.7851
804	0.781
813	0.7694
822	0.758
831	0.7514
840	0.764
849	0.7634
858	0.7815
867	0.7836
876	0.7765
885	0.7665
894	0.7203
903	0.7361
912	0.7332
921	0.7081
930	0.6851
939	0.6825
948	0.6752
957	0.6305
966	0.6174
975	0.6226
984	0.6246
993	0.6134
1002	0.5902
1011	0.5987
1020	0.6212
1029	0.6388
1038	0.5981
1047	0.5543
1056	0.5237
1065	0.5193
1074	0.4874
1083	0.4055
1092	0.2628
1101	0.0929
1110	0.0651
1119	0.0724
1128	0.1105
1137	0.2549
1146	0.3525
1155	0.3827
1164	0.4603
1173	0.5914
1182	0.6497
1191	0.69
1200	0.6825
1209	0.6762
1218	0.6769
1227	0.64
1236	0.5945
1245	0.5998
1254	0.5903
1263	0.5886
1272	0.5994
1281	0.629
1290	0.6205
1299	0.5932
1308	0.5985
1317	0.6297
1326	0.6411
1335	0.7365
1344	0.7264
1353	0.6514
1362	0.5971
1371	0.534
1380	0.3624
1389	0.6511
1398	0.7656
1407	0.7693
1416	0.7646
1425	0.7664
1434	0.6663
1443	0.6471
1452	0.4796
1461	0.201
1470	0.1757
1479	0.5818
1488	0.6169
1497	0.7987
1506	0.8258
1515	0.8412
1524	0.8551
1533	0.868
1542	0.8785
1551	0.8848
1560	0.8853
1569	0.8827
1578	0.8785
1587	0.8783
1596	0.8906
1605	0.8807
1614	0.885
1623	0.8871
1632	0.8771
1641	0.8586
1650	0.8628
1659	0.8693
1668	0.8785
1677	0.8692
1686	0.8611
1695	0.8524
1704	0.8229
1713	0.775
1722	0.766
1731	0.7677
1740	0.8027
1749	0.8566
1758	0.8717
1767	0.8759
1776	0.877
1785	0.8769
1794	0.8787
1803	0.8789
1812	0.8782
1821	0.8771
1830	0.8762
1839	0.8752
1848	0.8744
1857	0.8738
1866	0.8741
1875	0.8743
1884	0.8744
1893	0.8741
1902	0.8738
1911	0.8727
1920	0.8712
1929	0.8706
1938	0.87
1947	0.8689
1956	0.8682
1965	0.8676
1974	0.8655
1983	0.8629
1992	0.8632
2001	0.8654
2010	0.8645
2019	0.8622
2028	0.8611
2037	0.8601
2046	0.8593
2055	0.859
2064	0.8593
2073	0.8601
2082	0.8605
2091	0.8611
2100	0.862
2109	0.8629
2118	0.864
2127	0.865
2136	0.8661
2145	0.867
2154	0.8672
2163	0.867
2172	0.8665
2181	0.8658
2190	0.8651
2199	0.8643
2208	0.8636
2217	0.863
2226	0.8625
2235	0.862
2244	0.8616
2253	0.8613
2262	0.862
2271	0.8628
2280	0.8646
2289	0.8667
2298	0.8707
2307	0.8754
2316	0.8836
2325	0.8845
2334	0.878
2343	0.8698
2352	0.8622
2361	0.8584
2370	0.8573
2379	0.8564
2388	0.8566
2397	0.8578
2406	0.8595
2415	0.8608
2424	0.8623
2433	0.8597
2442	0.8581
2451	0.8574
2460	0.8568
2469	0.8562
2478	0.8556
2487	0.8549
2496	0.8543
2505	0.8537
2514	0.8536
2523	0.8532
2532	0.8514
2541	0.8493
2550	0.8452
2559	0.8395
2568	0.8324
2577	0.8237
2586	0.8181
2595	0.8177
2604	0.8179
2613	0.8185
2622	0.8188
2631	0.8181
2640	0.8143
2649	0.8077
2658	0.7998
2667	0.7907
2676	0.781
2685	0.7703
2694	0.7591
2703	0.7471
2712	0.7346
2721	0.7199
2730	0.7041
2739	0.7233
2748	0.7362
2757	0.7361
2766	0.7247
2775	0.6927
2784	0.6277
2793	0.5001
2802	0.5413
2811	0.5904
2820	0.5416
2829	0.4039
2838	0.2786
2847	0.1212
2856	0.0098
2865	0.0074
2874	0.0093
2883	0.0819
2892	0.1159
2901	0.0946
2910	0.0359
2919	0.0068
2928	0.0001
2937	0.0013
2946	0.0266
2955	0.0031
2964	0
2973	0.0841
2982	0.2996
2991	0.4095
3000	0.522
3009	0.6985
3018	0.7316
3027	0.7545
3036	0.7706
3045	0.7838
3054	0.796
3063	0.8043
3072	0.8111
3081	0.8164
3090	0.8211
3099	0.824
3108	0.8271
3117	0.8299
3126	0.8328
3135	0.8355
3144	0.8377
3153	0.8391
3162	0.8406
3171	0.8418
3180	0.8429
3189	0.845
3198	0.8492
3207	0.8563
3216	0.8638
3225	0.8688
3234	0.8718
3243	0.8726
3252	0.8743
3261	0.8793
3270	0.8824
3279	0.8864
3288	0.8923
3297	0.8977
3306	0.9064
3315	0.9132
3324	0.9135
3333	0.9106
3342	0.9053
3351	0.8971
3360	0.8875
3369	0.8779
3378	0.8724
3387	0.87
3396	0.8722
3405	0.876
3414	0.8821
3423	0.8901
3432	0.899
3441	0.9078
3450	0.9134
3459	0.9101
3468	0.9044
3477	0.8977
3486	0.8921
3495	0.8876
3504	0.8849
3513	0.883
3522	0.8829
3531	0.8846
3540	0.8868
3549	0.8874
3558	0.8862
3567	0.8851
3576	0.8816
3585	0.8788
3594	0.8811
3603	0.8808
3612	0.8802
3621	0.8796
3630	0.8785
3639	0.8775
3648	0.8767
3657	0.8762
3666	0.8761
3675	0.8762
3684	0.8766
3693	0.8789
3702	0.8826
3711	0.8837
3720	0.8834
3729	0.8838
3738	0.8851
3747	0.8849
3756	0.8846
3765	0.884
3774	0.8838
3783	0.8839
3792	0.8828
3801	0.881
