Infrared Spectrum: Benzyl ethyl sulfide
Formula: C9 H12 S
CAS: 6263-62-3
State: SOLUTION (10% CCl4 FOR 3800-1340, 10% CS2 FOR 1340-470 CM^-^1) VS SOLVENT
Class: COBLENTZ III
Instrument: DOW KBr FOREPRISM-GRATING
Instrument parameters: BLAZED AT 3.5, 12.0, 20.0 MICRON AND CHANGED AT 5.0, 7.5, 14.9 MICRON
Sampling: TRANSMISSION
Path length: 0.011 CM, 0.011 CM
Resolution: 2
Origin: DOW CHEMICAL COMPANY
1/CM	TRANSMITTANCE
3800	0.9736
3791	0.9732
3782	0.9718
3773	0.9696
3764	0.9683
3755	0.9704
3746	0.9751
3737	0.9778
3728	0.975
3719	0.9709
3710	0.9671
3701	0.9645
3692	0.963
3683	0.962
3674	0.9645
3665	0.9677
3656	0.9654
3647	0.9634
3638	0.963
3629	0.9637
3620	0.964
3611	0.9639
3602	0.9638
3593	0.9646
3584	0.9653
3575	0.9662
3566	0.9671
3557	0.9674
3548	0.9678
3539	0.9682
3530	0.9687
3521	0.9682
3512	0.967
3503	0.9664
3494	0.9665
3485	0.9665
3476	0.9664
3467	0.9663
3458	0.9661
3449	0.9657
3440	0.9654
3431	0.965
3422	0.9648
3413	0.9646
3404	0.9644
3395	0.9641
3386	0.9634
3377	0.9625
3368	0.9623
3359	0.961
3350	0.9593
3341	0.9583
3332	0.9575
3323	0.9568
3314	0.956
3305	0.9554
3296	0.955
3287	0.9544
3278	0.9541
3269	0.9536
3260	0.9532
3251	0.9527
3242	0.9523
3233	0.9518
3224	0.9513
3215	0.9507
3206	0.9502
3197	0.9493
3188	0.9485
3179	0.9434
3170	0.941
3161	0.941
3152	0.9403
3143	0.9387
3134	0.9362
3125	0.9253
3116	0.8997
3107	0.8585
3098	0.6844
3089	0.7391
3080	0.7241
3071	0.6306
3062	0.7592
3053	0.7583
3044	0.5622
3035	0.4875
3026	0.6441
3017	0.7908
3008	0.8042
2999	0.7478
2990	0.5957
2981	0.4041
2972	0.3507
2963	0.5033
2954	0.6086
2945	0.5951
2936	0.383
2927	0.3506
2918	0.4027
2909	0.5653
2900	0.7183
2891	0.7545
2882	0.6665
2873	0.7046
2864	0.7696
2855	0.8242
2846	0.8492
2837	0.8402
2828	0.8771
2819	0.9101
2810	0.9291
2801	0.9423
2792	0.95
2783	0.9555
2774	0.958
2765	0.9603
2756	0.9613
2747	0.9593
2738	0.9513
2729	0.9462
2720	0.948
2711	0.9503
2702	0.9516
2693	0.9528
2684	0.9542
2675	0.9559
2666	0.9575
2657	0.9593
2648	0.9606
2639	0.9618
2630	0.963
2621	0.9642
2612	0.9653
2603	0.9661
2594	0.967
2585	0.9677
2576	0.9677
2567	0.9678
2558	0.9677
2549	0.9675
2540	0.9675
2531	0.9671
2522	0.9668
2513	0.9664
2504	0.9661
2495	0.9656
2486	0.9652
2477	0.9657
2468	0.9665
2459	0.9691
2450	0.9708
2441	0.9707
2432	0.9658
2423	0.9643
2414	0.9652
2405	0.966
2396	0.9668
2387	0.9675
2378	0.9683
2369	0.9671
2360	0.9659
2351	0.9647
2342	0.9638
2333	0.963
2324	0.9624
2315	0.9625
2306	0.9634
2297	0.9641
2288	0.9649
2279	0.9656
2270	0.9664
2261	0.9674
2252	0.9687
2243	0.971
2234	0.9735
2225	0.9759
2216	0.9785
2207	0.9805
2198	0.9817
2189	0.9828
2180	0.9841
2171	0.9853
2162	0.9865
2153	0.9871
2144	0.9878
2135	0.9887
2126	0.9894
2117	0.9902
2108	0.9911
2099	0.9923
2090	0.9937
2081	0.995
2072	0.9964
2063	0.9975
2054	0.9984
2045	0.9992
2036	0.9999
2027	1.0005
2018	1.0008
2009	1
2000	0.9988
1991	0.9928
1982	0.9875
1973	0.9818
1964	0.9528
1955	0.9513
1946	0.9104
1937	0.9634
1928	0.9765
1919	0.9788
1910	0.9748
1901	0.9521
1892	0.9441
1883	0.9368
1874	0.9436
1865	0.9634
1856	0.9724
1847	0.9751
1838	0.9714
1829	0.9628
1820	0.9547
1811	0.9386
1802	0.9217
1793	0.9595
1784	0.967
1775	0.9616
1766	0.9533
1757	0.9339
1748	0.9468
1739	0.9545
1730	0.9554
1721	0.9531
1712	0.9291
1703	0.9535
1694	0.9662
1685	0.9649
1676	0.9653
1667	0.9711
1658	0.9755
1649	0.9764
1640	0.9752
1631	0.9667
1622	0.9542
1613	0.9264
1604	0.7161
1595	0.9161
1586	0.9148
1577	0.9578
1568	0.9542
1559	0.9652
1550	0.9563
1541	0.9507
1532	0.9545
1523	0.9595
1514	0.9458
1505	0.7948
1496	0.4388
1487	0.8675
1478	0.9121
1469	0.8809
1460	0.3994
1451	0.4326
1442	0.7198
1433	0.8185
1424	0.6833
1415	0.8475
1406	0.9038
1397	0.9286
1388	0.9075
1379	0.7083
1370	0.9051
1361	0.9471
1352	0.9606
1343	0.9641
1334	0.9378
1325	0.9458
1316	0.9158
1307	0.9403
1298	0.9431
1289	0.9347
1280	0.9084
1271	0.7754
1262	0.5744
1253	0.8312
1244	0.82
1235	0.5967
1226	0.8675
1217	0.9363
1208	0.9286
1199	0.8217
1190	0.8877
1181	0.8928
1172	0.8968
1163	0.8994
1154	0.8913
1145	0.9093
1136	0.924
1127	0.9358
1118	0.9338
1109	0.9234
1100	0.9164
1091	0.9314
1082	0.9328
1073	0.6494
1064	0.8743
1055	0.8768
1046	0.8978
1037	0.9049
1028	0.7904
1019	0.9228
1010	0.9504
1001	0.9389
992	0.9412
983	0.8577
974	0.8374
965	0.8688
956	0.9314
947	0.9487
938	0.9551
929	0.9461
920	0.8992
911	0.8238
902	0.9368
893	0.947
884	0.9449
875	0.9317
866	0.8815
857	0.929
848	0.9394
839	0.9271
830	0.9368
821	0.9332
812	0.9041
803	0.8962
794	0.9027
785	0.8101
776	0.8182
767	0.5738
758	0.7203
749	0.7821
740	0.8464
731	0.8189
722	0.5682
713	0.2395
704	0.1307
695	0.2011
686	0.8014
677	0.9345
668	0.9146
659	0.922
650	0.9073
641	0.9762
632	0.9868
623	0.9566
614	0.9814
605	0.9825
596	0.9785
587	0.9752
578	0.9663
569	0.7894
560	0.9131
551	0.9577
542	0.9703
533	0.9751
524	0.9768
515	0.978
506	0.9773
497	0.9765
488	0.9698
479	0.9132
470	0.8759
