Infrared Spectrum: 1,3,5-Triphenyl-1,5-pentadione
Formula: C 23 H 19 O 2
CAS: 6263-84-9
State: gas
Origin: EPA-IR VAPOR PHASE LIBRARY
1/CM	ABSORBANCE
551.7	0.004571
563.274	0.003801
574.848	0.002511
586.421	0.002121
597.995	0.002571
609.569	0.003331
621.143	0.002621
632.717	0.001341
644.291	0.001821
655.864	0.003711
667.438	0.005751
679.012	0.008531
690.586	0.019741
702.16	0.015011
713.734	0.006101
725.307	0.006081
736.881	0.009431
748.455	0.011931
760.029	0.008271
771.603	0.003991
783.177	0.002531
794.75	0.001781
806.324	0.001481
817.898	0.001321
829.472	0.001611
841.046	0.001471
852.619	0.0010165
864.193	0.001481
875.767	0.001751
887.341	0.001391
898.915	0.001471
910.489	0.001691
922.062	0.001761
933.636	0.001941
945.21	0.002601
956.784	0.003661
968.358	0.005551
979.932	0.008811
991.505	0.007271
1003.08	0.007581
1014.65	0.006201
1026.23	0.004731
1037.8	0.002681
1049.37	0.002541
1060.95	0.002641
1072.52	0.003161
1084.1	0.001971
1095.67	0.001531
1107.24	0.001581
1118.82	0.001741
1130.39	0.001831
1141.97	0.002181
1153.54	0.003641
1165.11	0.004861
1176.69	0.010681
1188.26	0.010371
1199.83	0.011791
1211.41	0.015011
1222.98	0.013001
1234.56	0.011251
1246.13	0.011351
1257.7	0.015411
1269.28	0.016721
1280.85	0.012651
1292.42	0.009901
1304	0.008971
1315.57	0.009241
1327.15	0.008751
1338.72	0.007911
1350.29	0.007551
1361.87	0.007521
1373.44	0.005341
1385.02	0.003301
1396.59	0.002451
1408.16	0.002911
1419.74	0.003171
1431.31	0.003451
1442.88	0.007171
1454.46	0.006761
1466.03	0.002151
1477.61	0.001751
1489.18	0.003091
1500.75	0.002921
1512.33	0.001341
1523.9	0.001201
1535.48	0.0011541
1547.05	0.0011728
1558.62	0.001371
1570.2	0.002511
1581.77	0.004451
1593.34	0.005411
1604.92	0.004911
1616.49	0.002371
1628.07	0.001641
1639.64	0.001831
1651.21	0.002731
1662.79	0.004241
1674.36	0.008091
1685.93	0.020501
1697.51	0.039541
1709.08	0.021751
1720.66	0.006691
1732.23	0.003181
1743.8	0.002131
1755.38	0.001721
1766.95	0.001401
1778.53	0.001281
1790.1	0.001371
1801.67	0.001661
1813.25	0.001321
1824.82	0.0008459
1836.39	0.0007313
1847.97	0.0006789
1859.54	0.0007494
1871.12	0.0008977
1882.69	0.0010041
1894.26	0.0010759
1905.84	0.0009725
1917.41	0.0008046
1928.99	0.0008562
1940.56	0.0010687
1952.13	0.001351
1963.71	0.0011471
1975.28	0.0008469
1986.85	0.0004847
1998.43	0.0004572
2010	0.0003859
2021.58	0.0003882
2033.15	0.0003609
2044.72	0.0002953
2056.3	0.0003571
2067.87	0.0002956
2079.44	0.0002627
2091.02	0.00026592
2102.59	0.00028547
2114.17	0.00026749
2125.74	0.00023511
2137.31	0.00021546
2148.89	0.00025007
2160.46	0.0003105
2172.04	0.00021204
2183.61	0.00027107
2195.18	0.00025723
2206.76	0.00027521
2218.33	0.0003242
2229.9	0.00024599
2241.48	0.0003002
2253.05	0.0003151
2264.63	0.000348
2276.2	0.0003129
2287.77	0.0003511
2299.35	0.0003642
2310.92	0.0004374
2322.5	0.0005383
2334.07	0.0004676
2345.64	0.000439
2357.22	0.0003484
2368.79	0.0003333
2380.36	0.0003472
2391.94	0.0003134
2403.51	0.0003267
2415.09	0.0003055
2426.66	0.0003019
2438.23	0.0003113
2449.81	0.0003273
2461.38	0.0003275
2472.96	0.0003115
2484.53	0.00018559
2496.1	0.00026456
2507.68	0.0002948
2519.25	0.0003299
2530.82	0.0002877
2542.4	0.00027383
2553.97	0.00027285
2565.55	0.0003006
2577.12	0.0003068
2588.69	0.0003707
2600.27	0.0003763
2611.84	0.0003512
2623.41	0.0003381
2634.99	0.00028261
2646.56	0.0003807
2658.14	0.00026049
2669.71	0.00026762
2681.28	0.0003071
2692.86	0.0003817
2704.43	0.0003006
2716.01	0.00026875
2727.58	0.0003619
2739.15	0.0003186
2750.73	0.0003472
2762.3	0.00026812
2773.87	0.0003159
2785.45	0.0003014
2797.02	0.0004505
2808.6	0.0003934
2820.17	0.0004559
2831.74	0.0004606
2843.32	0.0006144
2854.89	0.0007893
2866.47	0.0009391
2878.04	0.0010986
2889.61	0.001791
2901.19	0.003051
2912.76	0.003041
2924.33	0.002761
2935.91	0.002451
2947.48	0.002291
2959.06	0.002501
2970.63	0.002851
2982.2	0.002061
2993.78	0.001491
3005.35	0.001911
3016.92	0.002951
3028.5	0.006601
3040.07	0.007241
3051.65	0.005781
3063.22	0.010251
3074.79	0.012991
3086.37	0.008161
3097.94	0.005191
3109.52	0.002831
3121.09	0.001321
3132.66	0.0007316
3144.24	0.0007822
3155.81	0.0006215
3167.38	0.0004934
3178.96	0.0003823
3190.53	0.00025532
3202.11	0.00024808
3213.68	0.00022271
3225.25	0.0001405
3236.83	0.00021755
3248.4	0.00018
3259.98	0.00022648
3271.55	0.0001727
3283.12	0.0001762
3294.7	0.0001671
3306.27	0.00027389
3317.84	0.0002978
3329.42	0.00018736
3340.99	0.000405
3352.57	0.0004352
3364.14	0.000589
3375.71	0.0005695
3387.29	0.0007666
3398.86	0.0004317
3410.43	0.00029007
3422.01	0.000312
3433.58	0.0003302
3445.16	0.00026835
3456.73	0.000197352
3468.3	0.000197819
3479.88	0.0003399
3491.45	0.000172
3503.03	0.0001615
3514.6	0.0001436
3526.17	0.0001418
3537.75	9.75e-05
3549.32	3.6e-05
3560.89	0.00025584
3572.47	0.0001645
3584.04	0.00020989
3595.62	0.00020158
3607.19	0.0001633
3618.76	0.00026765
3630.34	0.0003287
3641.91	0.0003138
3653.49	0.00023521
3665.06	0.00025559
3676.63	0.00028603
3688.21	0.0003173
3699.78	0.00019755
3711.35	0.00026659
3722.93	0.00026955
3734.5	0.0001783
3746.08	0.0002034
3757.65	0.0003585
3769.22	0.00021707
3780.8	8.4e-05
3792.37	0.0001295
3803.94	0.0001505
3815.52	0.0003551
3827.09	0.0003062
3838.67	0.00022456
3850.24	0.00013
3861.81	0.00021286
3873.39	0.0001556
3884.96	0.0001202
3896.54	0.0001647
3908.11	0.0001335
3919.68	0.0001131
3931.26	0.00020327
3942.83	0.0001779
3954.4	0.00020723
3965.98	0.00022101
3977.55	0.0001429
3989.13	2e-06
4000.7	0.00026685
