Infrared Spectrum: ADIPAMIDE, N,N'-BIS(2-CHLOROETHYL)-
Formula: C10 H18 Cl2 N2 O2
CAS: 6265-81-2
State: SOLID (1 mg / 650 mg KBr DISC)
Melting point: 154 C
Class: COBLENTZ III
Instrument: PERKIN-ELMER 221 (GRATING)
Instrument parameters: FILTER CHANGES AT 2490, 980 CM^-^1, GRATING FOR 4000-1428 CM^-^1, NaCl PRISM FOR 1428-650 CM^-^1
Sampling: TRANSMISSION
Resolution: 4
Origin: SOUTHERN RESEARCH INST.
1/CM	TRANSMITTANCE
635.063	0.615
644.566	0.52
654.069	0.451
663.572	0.562
673.075	0.62
682.578	0.587
692.081	0.5
701.584	0.452
711.087	0.47
720.59	0.532
730.093	0.595
739.596	0.679
749.099	0.711
758.602	0.734
768.105	0.749
777.608	0.767
787.111	0.779
796.614	0.79
806.117	0.797
815.62	0.803
825.123	0.805
834.626	0.805
844.129	0.766
853.632	0.801
863.135	0.798
872.638	0.797
882.141	0.793
891.644	0.778
901.147	0.722
910.65	0.573
920.153	0.751
929.656	0.765
939.159	0.732
948.662	0.647
958.165	0.515
967.668	0.517
977.171	0.722
986.674	0.773
996.177	0.77
1005.68	0.752
1015.18	0.646
1024.69	0.653
1034.19	0.764
1043.69	0.764
1053.2	0.727
1062.7	0.612
1072.2	0.75
1081.7	0.762
1091.21	0.756
1100.71	0.744
1110.21	0.739
1119.72	0.73
1129.22	0.716
1138.72	0.707
1148.23	0.683
1157.73	0.666
1167.23	0.64
1176.73	0.625
1186.24	0.525
1195.74	0.491
1205.24	0.522
1214.75	0.531
1224.25	0.702
1233.75	0.681
1243.26	0.64
1252.76	0.558
1262.26	0.46
1271.76	0.464
1281.27	0.41
1290.77	0.434
1300.27	0.501
1309.78	0.456
1319.28	0.566
1328.78	0.621
1338.29	0.605
1347.79	0.552
1357.29	0.481
1366.79	0.388
1376.3	0.507
1385.8	0.475
1395.3	0.532
1404.81	0.526
1414.31	0.438
1423.81	0.515
1433.32	0.532
1442.82	0.474
1452.32	0.591
1461.82	0.631
1471.33	0.46
1480.83	0.595
1490.33	0.65
1499.84	0.611
1509.34	0.582
1518.84	0.526
1528.35	0.454
1537.85	0.361
1547.35	0.28
1556.85	0.283
1566.36	0.355
1575.86	0.431
1585.36	0.522
1594.87	0.53
1604.37	0.486
1613.87	0.444
1623.38	0.393
1632.88	0.314
1642.38	0.207
1651.88	0.217
1661.39	0.314
1670.89	0.382
1680.39	0.441
1689.9	0.501
1699.4	0.546
1708.9	0.585
1718.41	0.614
1727.91	0.641
1737.41	0.657
1746.91	0.665
1756.42	0.704
1765.92	0.74
1775.42	0.759
1784.93	0.771
1794.43	0.787
1803.93	0.799
1813.44	0.812
1822.94	0.82
1832.44	0.827
1841.94	0.838
1851.45	0.841
1860.95	0.846
1870.45	0.85
1879.96	0.852
1889.46	0.853
1898.96	0.854
1908.47	0.854
1917.97	0.855
1927.47	0.857
1936.97	0.857
1946.48	0.857
1955.98	0.857
1965.48	0.856
1974.99	0.856
1984.49	0.856
1993.99	0.856
2003.5	0.855
2013	0.855
2022.5	0.854
2032	0.854
2041.51	0.853
2051.01	0.853
2060.51	0.853
2070.02	0.853
2079.52	0.853
2089.02	0.853
2098.53	0.854
2108.03	0.855
2117.53	0.855
2127.03	0.856
2136.54	0.856
2146.04	0.857
2155.54	0.858
2165.05	0.858
2174.55	0.859
2184.05	0.857
2193.56	0.856
2203.06	0.855
2212.56	0.854
2222.06	0.854
2231.57	0.854
2241.07	0.854
2250.57	0.853
2260.08	0.85
2269.58	0.85
2279.08	0.85
2288.59	0.852
2298.09	0.853
2307.59	0.853
2317.09	0.85
2326.6	0.85
2336.1	0.85
2345.6	0.85
2355.11	0.847
2364.61	0.842
2374.11	0.838
2383.62	0.835
2393.12	0.836
2402.62	0.838
2412.12	0.838
2421.63	0.837
2431.13	0.835
2440.63	0.835
2450.14	0.833
2459.64	0.831
2469.14	0.829
2478.65	0.827
2488.15	0.826
2497.65	0.825
2507.15	0.827
2516.66	0.827
2526.16	0.83
2535.66	0.83
2545.17	0.827
2554.67	0.822
2564.17	0.818
2573.68	0.813
2583.18	0.808
2592.68	0.808
2602.18	0.807
2611.69	0.805
2621.19	0.803
2630.69	0.803
2640.2	0.803
2649.7	0.803
2659.2	0.803
2668.71	0.804
2678.21	0.802
2687.71	0.801
2697.21	0.794
2706.72	0.792
2716.22	0.782
2725.72	0.776
2735.23	0.772
2744.73	0.76
2754.23	0.75
2763.74	0.749
2773.24	0.747
2782.74	0.728
2792.24	0.719
2801.75	0.719
2811.25	0.718
2820.75	0.704
2830.26	0.682
2839.76	0.684
2849.26	0.678
2858.77	0.647
2868.27	0.61
2877.77	0.576
2887.27	0.625
2896.78	0.64
2906.28	0.625
2915.78	0.561
2925.29	0.505
2934.79	0.476
2944.29	0.457
2953.8	0.46
2963.3	0.59
2972.8	0.604
2982.3	0.62
2991.81	0.701
3001.31	0.711
3010.81	0.713
3020.32	0.695
3029.82	0.69
3039.32	0.685
3048.83	0.669
3058.33	0.631
3067.83	0.575
3077.33	0.528
3086.84	0.561
3096.34	0.599
3105.84	0.648
3115.35	0.671
3124.85	0.681
3134.35	0.681
3143.86	0.677
3153.36	0.672
3162.86	0.659
3172.36	0.647
3181.87	0.629
3191.37	0.591
3200.87	0.569
3210.38	0.565
3219.88	0.561
3229.38	0.558
3238.89	0.547
3248.39	0.518
3257.89	0.483
3267.39	0.45
3276.9	0.408
3286.4	0.348
3295.9	0.306
3305.41	0.255
3314.91	0.244
3324.41	0.267
3333.92	0.331
3343.42	0.393
3352.92	0.438
3362.42	0.485
3371.93	0.519
3381.43	0.548
3390.93	0.578
3400.44	0.602
3409.94	0.625
3419.44	0.643
3428.95	0.653
3438.45	0.662
3447.95	0.673
3457.45	0.674
3466.96	0.688
3476.46	0.699
3485.96	0.7
3495.47	0.7
3504.97	0.706
3514.47	0.714
3523.98	0.72
3533.48	0.73
3542.98	0.737
3552.48	0.741
3561.99	0.741
3571.49	0.742
3580.99	0.757
3590.5	0.76
3600	0.764
3609.5	0.768
3619.01	0.771
3628.51	0.773
3638.01	0.775
3647.51	0.779
3657.02	0.782
3666.52	0.786
3676.02	0.789
3685.53	0.791
3695.03	0.794
3704.53	0.796
3714.04	0.797
3723.54	0.796
3733.04	0.793
3742.54	0.79
3752.05	0.787
3761.55	0.792
3771.05	0.797
3780.56	0.801
3790.06	0.801
3799.56	0.798
3809.07	0.795
3818.57	0.793
3828.07	0.792
3837.57	0.791
3847.08	0.791
3856.58	0.791
3866.08	0.791
3875.59	0.791
3885.09	0.79
3894.59	0.789
3904.1	0.789
3913.6	0.79
3923.1	0.79
3932.6	0.79
3942.11	0.79
3951.61	0.79
3961.11	0.79
3970.62	0.79
3980.12	0.79
3989.62	0.79
3999.13	0.788
4008.63	0.786
