Infrared Spectrum: 2,5-Bis(2-fluorophenyl)-1,34-oxadiazole
Formula: C 14 H 8 F 2 N 2 O
CAS: 62681-98-5
State: gas
Origin: EPA-IR VAPOR PHASE LIBRARY
1/CM	ABSORBANCE
549.8	0.006151
559.445	0.002161
569.09	0.001661
578.734	0.001681
588.379	0.001691
598.024	0.0011937
607.669	0.000696
617.313	0.0009913
626.958	0.0013201
636.603	0.00044122
646.248	0.001461
655.893	0.002531
665.537	0.004681
675.182	0.018221
684.827	0.009521
694.472	0.005191
704.116	0.006591
713.761	0.003911
723.406	0.003641
733.051	0.010041
742.695	0.038841
752.34	0.047821
761.985	0.038081
771.63	0.023721
781.275	0.007491
790.919	0.003641
800.564	0.003371
810.209	0.006721
819.854	0.013011
829.498	0.013651
839.143	0.006151
848.788	0.003511
858.433	0.002111
868.078	0.002941
877.722	0.001571
887.367	0.0009785
897.012	0.0013294
906.657	0.0012261
916.301	0.0013697
925.946	0.001691
935.591	0.002701
945.236	0.005051
954.88	0.005891
964.525	0.006821
974.17	0.005011
983.815	0.003301
993.46	0.003741
1003.1	0.003911
1012.75	0.005951
1022.39	0.018931
1032.04	0.020841
1041.68	0.008751
1051.33	0.020861
1060.97	0.021421
1070.62	0.012351
1080.26	0.004101
1089.91	0.004651
1099.55	0.006271
1109.2	0.016321
1118.84	0.009881
1128.49	0.004121
1138.13	0.002601
1147.78	0.003491
1157.42	0.007051
1167.07	0.003551
1176.71	0.001641
1186.36	0.001451
1196	0.002651
1205.64	0.005381
1215.29	0.008771
1224.93	0.021191
1234.58	0.029911
1244.22	0.029281
1253.87	0.024651
1263.51	0.019701
1273.16	0.020301
1282.8	0.014211
1292.45	0.015511
1302.09	0.012301
1311.74	0.004071
1321.38	0.002341
1331.03	0.001791
1340.67	0.001741
1350.32	0.002271
1359.96	0.002841
1369.61	0.002081
1379.25	0.002111
1388.9	0.002971
1398.54	0.003441
1408.18	0.002931
1417.83	0.003461
1427.47	0.005891
1437.12	0.012601
1446.76	0.019781
1456.41	0.030951
1466.05	0.050691
1475.7	0.069611
1485.34	0.032851
1494.99	0.034701
1504.63	0.020961
1514.28	0.010291
1523.92	0.007131
1533.57	0.007661
1543.21	0.015911
1552.86	0.021191
1562.5	0.012971
1572.15	0.012251
1581.79	0.019201
1591.44	0.025571
1601.08	0.018651
1610.73	0.017491
1620.37	0.034451
1630.01	0.016441
1639.66	0.005001
1649.3	0.002791
1658.95	0.002091
1668.59	0.0013606
1678.24	0.001671
1687.88	0.001831
1697.53	0.002681
1707.17	0.002711
1716.82	0.001981
1726.46	0.001441
1736.11	0.0010961
1745.75	0.0008984
1755.4	0.0009934
1765.04	0.0009124
1774.69	0.0011463
1784.33	0.001531
1793.98	0.002351
1803.62	0.002961
1813.27	0.001961
1822.91	0.0014014
1832.55	0.001991
1842.2	0.0013223
1851.84	0.0009697
1861.49	0.0008012
1871.13	0.0008981
1880.78	0.0011883
1890.42	0.001831
1900.07	0.001701
1909.71	0.002741
1919.36	0.003561
1929	0.002451
1938.65	0.002021
1948.29	0.002901
1957.94	0.001841
1967.58	0.0010634
1977.23	0.0010158
1986.87	0.0008518
1996.52	0.0009317
2006.16	0.0008029
2015.81	0.0009348
2025.45	0.0007903
2035.1	0.0008267
2044.74	0.0011559
2054.38	0.0011653
2064.03	0.0013212
2073.67	0.0012619
2083.32	0.0012022
2092.96	0.0010576
2102.61	0.0007821
2112.25	0.0007547
2121.9	0.0007523
2131.54	0.0008152
2141.19	0.0006969
2150.83	0.0005216
2160.48	0.0009184
2170.12	0.000886
2179.77	0.0008363
2189.41	0.0006697
2199.06	0.0006623
2208.7	0.0007123
2218.35	0.0009139
2227.99	0.0006994
2237.64	0.0008554
2247.28	0.000644
2256.92	0.0009523
2266.57	0.0009115
2276.21	0.0010792
2285.86	0.000956
2295.5	0.0012282
2305.15	0.0011866
2314.79	0.0013076
2324.44	0.0010856
2334.08	0.0008687
2343.73	0.0006461
2353.37	0.0006054
2363.02	0.0007262
2372.66	0.0006955
2382.31	0.0006824
2391.95	0.0006792
2401.6	0.0007965
2411.24	0.0007055
2420.89	0.0008902
2430.53	0.0008573
2440.18	0.0010805
2449.82	0.0013262
2459.47	0.001055
2469.11	0.0009359
2478.75	0.0010127
2488.4	0.0010092
2498.04	0.0009357
2507.69	0.0006679
2517.33	0.0009469
2526.98	0.0006914
2536.62	0.0011658
2546.27	0.0008188
2555.91	0.0010028
2565.56	0.0009619
2575.2	0.0008693
2584.85	0.000874
2594.49	0.0009626
2604.14	0.0009265
2613.78	0.0008968
2623.43	0.0009822
2633.07	0.000746
2642.72	0.0005985
2652.36	0.0010179
2662.01	0.0005144
2671.65	0.0010022
2681.29	0.0009725
2690.94	0.0010376
2700.58	0.0008146
2710.23	0.0007996
2719.87	0.0005274
2729.52	0.0008656
2739.16	0.0006713
2748.81	0.0007748
2758.45	0.0007745
2768.1	0.0009482
2777.74	0.00046457
2787.39	0.0006449
2797.03	0.0005225
2806.68	0.0005365
2816.32	0.0005508
2825.97	0.0008136
2835.61	0.0009098
2845.26	0.0006175
2854.9	0.0009235
2864.55	0.0008087
2874.19	0.0008958
2883.84	0.0008453
2893.48	0.0008147
2903.12	0.0008422
2912.77	0.0010782
2922.41	0.0008629
2932.06	0.0009878
2941.7	0.0005817
2951.35	0.000269
2960.99	0.0005714
2970.64	0.000787
2980.28	0.0007308
2989.93	0.0008254
2999.57	0.0013858
3009.22	0.0013709
3018.86	0.001671
3028.51	0.001981
3038.15	0.002451
3047.8	0.003731
3057.44	0.005271
3067.09	0.006841
3076.73	0.008621
3086.38	0.009511
3096.02	0.007491
3105.67	0.003621
3115.31	0.0012862
3124.95	0.001481
3134.6	0.000962
3144.24	0.0011018
3153.89	0.0008363
3163.53	0.0012074
3173.18	0.0010059
3182.82	0.0005148
3192.47	0.0010059
3202.11	0.000176
3211.76	0.0007111
3221.4	0.0008009
3231.05	0.000279
3240.69	0.00045702
3250.34	0.000238
3259.98	0.00049962
3269.63	0.0003598
3279.27	0.00050375
3288.92	7e-05
3298.56	0.000283
3308.21	0.0003756
3317.85	0.00044045
3327.49	0.0006215
3337.14	0.000204
3346.78	0.000239
3356.43	0.0006348
3366.07	0.0006509
3375.72	0.000109
3385.36	0.00043559
3395.01	0.000241
3404.65	0.00046516
3414.3	0.000416596
3423.94	0.0003605
3433.59	4.8e-05
3443.23	0.00062
3452.88	0.0006156
3462.52	0.00043002
3472.17	0.0009129
3481.81	0.0005814
3491.46	0.000184
3501.1	0.0006775
3510.75	0.0009418
3520.39	0.0006639
3530.04	0.00044701
3539.68	0.00042225
3549.32	0.0007639
3558.97	0.000761
3568.61	3e-05
3578.26	0.0007285
3587.9	0.0005729
3597.55	0.0007536
3607.19	0.0006013
3616.84	0.0006605
3626.48	0.0006622
3636.13	0.000420227
3645.77	0.00050372
3655.42	0.00046608
3665.06	0.0005608
3674.71	0.0005479
3684.35	0.0003239
3694	0.00043136
3703.64	0.0005186
3713.29	0.0006257
3722.93	0.0005863
3732.58	0.0006407
3742.22	0.0005846
3751.86	0.000259
3761.51	0.0003666
3771.15	0.0003301
3780.8	0.0005863
3790.44	0.0003578
3800.09	0.0006327
3809.73	0.0005192
3819.38	0.0006542
3829.02	0.00047149
3838.67	0.000412198
3848.31	0.0005405
3857.96	0.000254
3867.6	0.0010278
3877.25	0.0008257
3886.89	0.0003402
3896.54	0.0006998
3906.18	0.0007311
3915.83	0.0009639
3925.47	0.00092
3935.12	0.00045746
3944.76	0.00048691
3954.41	0.0010725
3964.05	0.000185
3973.69	0.000248
3983.34	0.00044743
3992.98	0.0010047
