Infrared Spectrum: 1-PHENYL-3-o-TOLYLGUANIDINE
Formula: C14 H15 N3
CAS: 6268-14-0
State: SOLID (OIL MULL)
Class: COBLENTZ III
Instrument: BAIRD NaCl PRISM
Sampling: TRANSMISSION
Resolution: 4
Origin: WYANDOTTE CHEMICALS CORP.
MICROMETERS	TRANSMITTANCE
2.015	0.276
2.05409	0.28
2.09318	0.29
2.13227	0.298
2.17136	0.302
2.21045	0.304
2.24954	0.312
2.28863	0.328
2.32772	0.337
2.36681	0.35
2.40591	0.356
2.445	0.364
2.48409	0.373
2.52318	0.384
2.56227	0.399
2.60136	0.412
2.64045	0.428
2.67954	0.445
2.71863	0.452
2.75772	0.461
2.79681	0.485
2.8359	0.49
2.87499	0.358
2.91408	0.345
2.95317	0.325
2.99226	0.296
3.03135	0.303
3.07044	0.29
3.10954	0.325
3.14863	0.301
3.18772	0.257
3.22681	0.253
3.2659	0.233
3.30499	0.2
3.34408	0.079
3.38317	0.033
3.42226	0.041
3.46135	0.099
3.50044	0.119
3.53953	0.533
3.57862	0.576
3.61771	0.585
3.6568	0.571
3.69589	0.576
3.73498	0.592
3.77407	0.605
3.81317	0.62
3.85226	0.637
3.89135	0.641
3.93044	0.647
3.96953	0.652
4.00862	0.663
4.04771	0.671
4.0868	0.674
4.12589	0.685
4.16498	0.689
4.20407	0.69
4.24316	0.69
4.28225	0.694
4.32134	0.703
4.36043	0.729
4.39952	0.739
4.43861	0.739
4.4777	0.744
4.5168	0.751
4.55589	0.764
4.59498	0.767
4.63407	0.769
4.67316	0.773
4.71225	0.783
4.75134	0.787
4.79043	0.802
4.82952	0.811
4.86861	0.817
4.9077	0.821
4.94679	0.822
4.98588	0.827
5.02497	0.832
5.06406	0.833
5.10315	0.839
5.14224	0.842
5.18133	0.826
5.22043	0.851
5.25952	0.855
5.29861	0.86
5.3377	0.864
5.37679	0.866
5.41588	0.882
5.45497	0.898
5.49406	0.909
5.53315	0.905
5.57224	0.888
5.61133	0.911
5.65042	0.92
5.68951	0.911
5.7286	0.904
5.76769	0.911
5.80678	0.908
5.84587	0.893
5.88496	0.85
5.92406	0.804
5.96315	0.678
6.00224	0.407
6.04133	0.228
6.08042	0.128
6.11951	0.159
6.1586	0.272
6.19769	0.31
6.23678	0.246
6.27587	0.118
6.31496	0.277
6.35405	0.362
6.39314	0.25
6.43223	0.166
6.47132	0.078
6.51041	0.08
6.5495	0.155
6.58859	0.314
6.62769	0.249
6.66678	0.232
6.70587	0.116
6.74496	0.188
6.78405	0.175
6.82314	0.091
6.86223	0.159
6.90132	0.154
6.94041	0.359
6.9795	0.477
7.01859	0.532
7.05768	0.577
7.09677	0.599
7.13586	0.608
7.17495	0.549
7.21404	0.39
7.25313	0.37
7.29222	0.291
7.33132	0.188
7.37041	0.231
7.4095	0.401
7.44859	0.496
7.48768	0.563
7.52677	0.599
7.56586	0.615
7.60495	0.582
7.64404	0.438
7.68313	0.401
7.72222	0.458
7.76131	0.592
7.8004	0.625
7.83949	0.624
7.87858	0.66
7.91767	0.658
7.95676	0.555
7.99585	0.339
8.03495	0.28
8.07404	0.283
8.11313	0.389
8.15222	0.521
8.19131	0.603
8.2304	0.651
8.26949	0.667
8.30858	0.686
8.34767	0.692
8.38676	0.682
8.42585	0.63
8.46494	0.711
8.50403	0.686
8.54312	0.733
8.58221	0.742
8.6213	0.702
8.66039	0.717
8.69948	0.769
8.73858	0.777
8.77767	0.784
8.81676	0.785
8.85585	0.776
8.89494	0.72
8.93403	0.641
8.97312	0.662
9.01221	0.716
9.0513	0.733
9.09039	0.741
9.12948	0.745
9.16857	0.756
9.20766	0.742
9.24675	0.702
9.28584	0.68
9.32493	0.713
9.36402	0.753
9.40311	0.767
9.44221	0.767
9.4813	0.761
9.52039	0.673
9.55948	0.679
9.59857	0.734
9.63766	0.731
9.67675	0.651
9.71584	0.643
9.75493	0.734
9.79402	0.755
9.83311	0.761
9.8722	0.706
9.91129	0.631
9.95038	0.69
9.98947	0.742
10.0286	0.742
10.0677	0.738
10.1067	0.729
10.1458	0.733
10.1849	0.744
10.224	0.761
10.2631	0.773
10.3022	0.784
10.3413	0.79
10.3804	0.79
10.4195	0.793
10.4586	0.804
10.4976	0.81
10.5367	0.817
10.5758	0.812
10.6149	0.809
10.654	0.791
10.6931	0.736
10.7322	0.742
10.7713	0.79
10.8104	0.8
10.8495	0.804
10.8886	0.804
10.9276	0.795
10.9667	0.782
11.0058	0.725
11.0449	0.692
11.084	0.741
11.1231	0.751
11.1622	0.717
11.2013	0.734
11.2404	0.768
11.2795	0.782
11.3186	0.78
11.3576	0.773
11.3967	0.735
11.4358	0.707
11.4749	0.712
11.514	0.733
11.5531	0.735
11.5922	0.746
11.6313	0.747
11.6704	0.764
11.7095	0.776
11.7485	0.784
11.7876	0.779
11.8267	0.769
11.8658	0.744
11.9049	0.7
11.944	0.631
11.9831	0.599
12.0222	0.608
12.0613	0.642
12.1004	0.657
12.1395	0.673
12.1785	0.7
12.2176	0.708
12.2567	0.724
12.2958	0.751
12.3349	0.776
12.374	0.79
12.4131	0.807
12.4522	0.813
12.4913	0.818
12.5304	0.822
12.5694	0.822
12.6085	0.812
12.6476	0.777
12.6867	0.705
12.7258	0.69
12.7649	0.695
12.804	0.646
12.8431	0.707
12.8822	0.776
12.9213	0.79
12.9604	0.795
12.9994	0.795
13.0385	0.773
13.0776	0.72
13.1167	0.636
13.1558	0.518
13.1949	0.357
13.234	0.253
13.2731	0.217
13.3122	0.211
13.3513	0.197
13.3904	0.231
13.4294	0.365
13.4685	0.493
13.5076	0.571
13.5467	0.613
13.5858	0.651
13.6249	0.674
13.664	0.691
13.7031	0.697
13.7422	0.694
13.7813	0.664
13.8203	0.576
13.8594	0.515
13.8985	0.553
13.9376	0.625
13.9767	0.654
14.0158	0.671
14.0549	0.653
14.094	0.626
14.1331	0.588
14.1722	0.541
14.2113	0.455
14.2503	0.397
14.2894	0.379
14.3285	0.436
14.3676	0.472
14.4067	0.463
14.4458	0.434
14.4849	0.443
14.524	0.493
14.5631	0.542
14.6022	0.581
14.6412	0.602
14.6803	0.62
14.7194	0.63
14.7585	0.635
14.7976	0.638
14.8367	0.649
14.8758	0.647
14.9149	0.652
14.954	0.648
14.9931	0.626
15.0322	0.598
15.0712	0.582
15.1103	0.602
15.1494	0.61
15.1885	0.609
15.2276	0.603
15.2667	0.593
15.3058	0.581
15.3449	0.57
15.384	0.564
15.4231	0.555
15.4622	0.552
15.5012	0.542
15.5403	0.526
15.5794	0.532
15.6185	0.521
15.6576	0.518
15.6967	0.512
15.7358	0.504
15.7749	0.496
15.814	0.495
15.8531	0.488
15.8921	0.476
15.9312	0.471
15.9703	0.466
