Infrared Spectrum: N-p-NITROPHENYLPIPERAZINE
Formula: C10 H13 N3 O2
CAS: 6269-89-2
State: SOLUTION (7% IN CHCl3)
Class: COBLENTZ
Instrument: PERKIN-ELMER
Sampling: TRANSMISSION
Path length: 0.010 CM
Resolution: 4
Origin: ABBOTT LABORATORIES - WASHBURN
MICROMETERS	TRANSMITTANCE
2.063	0.966
2.0966	0.968
2.1302	0.9761
2.1638	0.981
2.1974	0.9858
2.231	0.989
2.2646	0.9929
2.2982	0.9929
2.3318	0.9891
2.3654	0.993
2.399	0.993
2.4326	0.984
2.4662	0.988
2.4998	0.991
2.5334	0.9997
2.567	1.0046
2.6006	1.01
2.6342	1.011
2.6678	1.011
2.7014	1.011
2.735	1.008
2.7686	0.996
2.8022	1.005
2.8358	0.9757
2.8694	0.9519
2.903	0.9606
2.9366	0.9561
2.9702	0.9412
3.0038	0.9074
3.0374	0.873
3.071	0.897
3.1046	0.905
3.1382	0.909
3.1718	0.914
3.2054	0.9268
3.239	0.9311
3.2726	0.8954
3.3062	0.8894
3.3398	0.8451
3.3734	0.7426
3.407	0.61
3.4406	0.534
3.4742	0.6014
3.5078	0.6871
3.5414	0.5958
3.575	0.5435
3.6086	0.8047
3.6422	0.8893
3.6758	0.878
3.7094	0.9288
3.743	0.946
3.7766	0.9271
3.8102	0.919
3.8438	0.9211
3.8774	0.9534
3.911	0.979
3.9446	0.9634
3.9782	0.9641
4.0118	0.9521
4.0454	0.9313
4.079	0.922
4.1126	0.915
4.1462	0.8902
4.1798	0.9198
4.2134	0.9626
4.247	0.964
4.2806	0.969
4.3142	0.9591
4.3478	0.951
4.3814	0.9521
4.415	0.949
4.4486	0.956
4.4822	0.941
4.5158	0.9275
4.5494	0.9258
4.583	0.932
4.6166	0.924
4.6502	0.926
4.6838	0.927
4.7174	0.9221
4.751	0.912
4.7846	0.915
4.8182	0.9152
4.8518	0.9149
4.8854	0.919
4.919	0.914
4.9526	0.9169
4.9862	0.9121
5.0198	0.9052
5.0534	0.8945
5.087	0.8986
5.1206	0.904
5.1542	0.9063
5.1878	0.9
5.2214	0.8974
5.255	0.8727
5.2886	0.8834
5.3222	0.894
5.3558	0.8917
5.3894	0.882
5.42301	0.8851
5.45661	0.895
5.49021	0.9048
5.52381	0.904
5.55741	0.899
5.59101	0.8916
5.62461	0.8833
5.65821	0.8741
5.69181	0.8653
5.72541	0.8607
5.75901	0.8683
5.79261	0.8771
5.82621	0.8852
5.85981	0.8851
5.89341	0.8853
5.92701	0.8746
5.96061	0.8555
5.99421	0.8473
6.02781	0.8282
6.06141	0.831
6.09501	0.8132
6.12861	0.7862
6.16221	0.7081
6.19581	0.5781
6.22941	0.1699
6.26301	0.028
6.29661	0.0395
6.33021	0.2265
6.36381	0.4808
6.39741	0.6296
6.43101	0.7169
6.46461	0.7391
6.49821	0.7501
6.53181	0.7033
6.56541	0.5843
6.59901	0.3879
6.63261	0.1303
6.66621	0.0911
6.69981	0.0807
6.73341	0.1915
6.76701	0.4252
6.80061	0.5714
6.83421	0.6164
6.86781	0.5496
6.90141	0.3545
6.93501	0.3975
6.96861	0.4909
7.00221	0.6055
7.03581	0.6802
7.06941	0.7065
7.10301	0.6572
7.13661	0.5858
7.17021	0.5412
7.20381	0.5069
7.23741	0.4243
7.27101	0.4497
7.30461	0.5168
7.33821	0.54
7.37181	0.5414
7.40541	0.5242
7.43901	0.3943
7.47261	0.2119
7.50621	0.0659
7.53981	0.0297
7.57341	0.021
7.60701	0.0265
7.64061	0.0598
7.67421	0.2003
7.70781	0.3169
7.74141	0.256
7.77501	0.1927
7.80861	0.3317
7.84221	0.4247
7.87581	0.4984
7.90941	0.4857
7.94301	0.4116
7.97661	0.3344
8.01021	0.2029
8.04381	0.0783
8.07741	0.0451
8.11101	0.0446
8.14461	0.093
8.17821	0.1734
8.21181	0.2461
8.24541	0.2813
8.27901	0.3362
8.31261	0.3871
8.34621	0.413
8.37981	0.4157
8.41341	0.5015
8.44701	0.602
8.48061	0.6672
8.51421	0.7013
8.54781	0.7036
8.58141	0.7
8.61501	0.6956
8.64861	0.6732
8.68221	0.5694
8.71581	0.4609
8.74941	0.4601
8.78301	0.513
8.81661	0.5697
8.85021	0.573
8.88381	0.5412
8.91741	0.3888
8.95101	0.1762
8.98461	0.0923
9.01821	0.085
9.05181	0.1277
9.08541	0.0962
9.11901	0.1976
9.15261	0.426
9.18621	0.5537
9.21981	0.6445
9.25341	0.6912
9.28701	0.7154
9.32061	0.729
9.35421	0.731
9.38781	0.715
9.42141	0.6916
9.45501	0.6124
9.48861	0.5086
9.52221	0.3874
9.55581	0.4479
9.58941	0.546
9.62301	0.7249
9.65661	0.7751
9.69021	0.7944
9.72381	0.7927
9.75741	0.751
9.79101	0.7088
9.82461	0.7039
9.85821	0.7166
9.89181	0.7411
9.92541	0.752
9.95901	0.7252
9.99261	0.6774
10.0262	0.6441
10.0598	0.6843
10.0934	0.755
10.127	0.7935
10.1606	0.8153
10.1942	0.8352
10.2278	0.8419
10.2614	0.8498
10.295	0.852
10.3286	0.85
10.3622	0.8376
10.3958	0.8313
10.4294	0.824
10.463	0.8119
10.4966	0.7805
10.5302	0.7604
10.5638	0.7293
10.5974	0.6785
10.631	0.498
10.6646	0.3688
10.6982	0.3346
10.7318	0.5003
10.7654	0.6301
10.799	0.7274
10.8326	0.7661
10.8662	0.7889
10.8998	0.796
10.9334	0.796
10.967	0.8045
11.0006	0.7938
11.0342	0.7857
11.0678	0.7779
11.1014	0.764
11.135	0.7423
11.1686	0.7156
11.2022	0.6949
11.2358	0.6696
11.2694	0.6174
11.303	0.5774
11.3366	0.5314
11.3702	0.4962
11.4038	0.493
11.4374	0.5338
11.471	0.5974
11.5046	0.6471
11.5382	0.6789
11.5718	0.7068
11.6054	0.712
11.639	0.6981
11.6726	0.6503
11.7062	0.5787
11.7398	0.6255
11.7734	0.6607
11.807	0.673
11.8406	0.6516
11.8742	0.6098
11.9078	0.5453
11.9414	0.4655
11.975	0.3885
12.0086	0.2995
12.0422	0.2655
12.0758	0.2613
12.1094	0.3033
12.143	0.3557
12.1766	0.4294
12.2102	0.4699
12.2438	0.4879
12.2774	0.4977
12.311	0.5093
12.3446	0.5217
12.3782	0.5341
12.4118	0.541
12.4454	0.546
12.479	0.547
12.5126	0.551
12.5462	0.552
12.5798	0.5598
12.6134	0.5672
12.647	0.584
12.6806	0.6009
12.7142	0.613
12.7478	0.6265
12.7814	0.6314
12.815	0.6402
12.8486	0.647
12.8822	0.647
12.9158	0.6575
12.9494	0.6697
12.983	0.6834
13.0166	0.6883
13.0502	0.7046
13.0838	0.71
13.1174	0.714
13.151	0.7178
13.1846	0.722
13.2182	0.722
13.2518	0.721
13.2854	0.719
13.319	0.719
13.3526	0.7208
13.3862	0.721
13.4198	0.7236
13.4534	0.7226
13.487	0.727
13.5206	0.7243
13.5542	0.721
13.5878	0.7226
13.6214	0.727
13.655	0.7274
13.6886	0.7345
13.7222	0.7412
13.7558	0.752
13.7894	0.754
13.823	0.7633
13.8566	0.7724
13.8902	0.7887
13.9238	0.793
13.9574	0.801
13.991	0.805
14.0246	0.806
14.0582	0.8102
14.0918	0.8233
14.1254	0.8248
14.159	0.823
14.1926	0.825
14.2262	0.825
14.2598	0.8113
14.2934	0.7947
14.327	0.7711
14.3606	0.7076
14.3942	0.6283
14.4278	0.5588
14.4614	0.5403
14.495	0.5957
14.5286	0.6876
14.5622	0.7344
14.5958	0.7708
14.6294	0.7976
14.663	0.8153
14.6966	0.8258
14.7302	0.8445
14.7638	0.8715
14.7974	0.8846
14.831	0.89
14.8646	0.8846
14.8982	0.8684
14.9318	0.862
14.9654	0.862
14.999	0.8515
15.0326	0.8045
15.0662	0.7099
15.0998	0.6374
15.1334	0.6103
15.167	0.6145
15.2006	0.6237
15.2342	0.6089
15.2678	0.595
15.3014	0.5858
15.335	0.584
15.3686	0.6101
