Infrared Spectrum: Isobutylethyl ether
Formula: C 6 H 14 O
CAS: 627-02-1
State: gas
Instrument: HP-GC/MS/IRD
Origin: NIST Mass Spectrometry Data Center
1/CM	ABSORBANCE
550	0.00034
562	0.00031
574	0.00021
586	0.000155
598	0.000165
610	0.000155
622	0.0002
634	0.000115
646	3.5e-05
658	6e-05
670	8e-05
682	0.00022
694	0.00023
706	0.00025
718	0.000225
730	0.00017
742	0.00024
754	0.00025
766	0.000295
778	0.000465
790	0.00055
802	0.000715
814	0.000815
826	0.000795
838	0.001095
850	0.001275
862	0.00165
874	0.00213
886	0.002105
898	0.00174
910	0.001445
922	0.001495
934	0.001585
946	0.00187
958	0.002135
970	0.00218
982	0.002365
994	0.003145
1006	0.00374
1018	0.00371
1030	0.0035
1042	0.00418
1054	0.006975
1066	0.01163
1078	0.014905
1090	0.01817
1102	0.027385
1114	0.042565
1126	0.05
1138	0.03609
1150	0.016805
1162	0.011525
1174	0.00911
1186	0.006495
1198	0.004055
1210	0.00266
1222	0.002185
1234	0.001955
1246	0.002025
1258	0.002195
1270	0.002575
1282	0.003085
1294	0.003185
1306	0.002715
1318	0.00231
1330	0.002915
1342	0.004465
1354	0.00645
1366	0.00805
1378	0.011145
1390	0.011395
1402	0.006355
1414	0.00366
1426	0.00323
1438	0.003615
1450	0.00494
1462	0.006535
1474	0.006875
1486	0.0048
1498	0.00246
1510	0.00133
1522	0.00089
1534	0.000615
1546	0.000505
1558	0.000455
1570	0.000405
1582	0.000385
1594	0.000375
1606	0.000405
1618	0.00039
1630	0.00036
1642	0.00033
1654	0.00033
1666	0.000295
1678	0.000275
1690	0.00024
1702	0.000225
1714	0.00018
1726	0.000175
1738	0.000125
1750	0.00013
1762	0.00013
1774	0.000105
1786	0.0001
1798	7.5e-05
1810	5e-05
1822	6e-05
1834	4e-05
1846	8e-05
1858	9e-05
1870	9.5e-05
1882	8.5e-05
1894	0.000135
1906	0.000175
1918	0.000225
1930	0.00028
1942	0.000355
1954	0.00036
1966	0.00038
1978	0.000395
1990	0.00045
2002	0.000455
2014	0.000425
2026	0.00029
2038	0.00019
2050	0.00016
2062	0.00011
2074	0.00014
2086	0.00015
2098	0.00018
2110	0.00021
2122	0.00023
2134	0.000225
2146	0.00019
2158	0.000165
2170	0.000115
2182	0.00014
2194	7e-05
2206	9e-05
2218	0.000105
2230	8e-05
2242	0.000125
2254	0.000155
2266	0.00012
2278	0.00014
2290	0.000115
2302	9e-05
2314	5.5e-05
2326	4.5e-05
2338	3.5e-05
2350	0
2362	6.5e-05
2374	3e-05
2386	7.5e-05
2398	6e-05
2410	0.000105
2422	8e-05
2434	6e-05
2446	6e-05
2458	2.5e-05
2470	7e-05
2482	5e-05
2494	5e-05
2506	3e-05
2518	6.5e-05
2530	0.0001
2542	0.00011
2554	0.000175
2566	0.000245
2578	0.000355
2590	0.000515
2602	0.00055
2614	0.000615
2626	0.00062
2638	0.00066
2650	0.00072
2662	0.00074
2674	0.00086
2686	0.001065
2698	0.0014
2710	0.001875
2722	0.00234
2734	0.00273
2746	0.00297
2758	0.003255
2770	0.00372
2782	0.00453
2794	0.00548
2806	0.006545
2818	0.00798
2830	0.01104
2842	0.017125
2854	0.0255
2866	0.03274
2878	0.03509
2890	0.03064
2902	0.02546
2914	0.024945
2926	0.027505
2938	0.031735
2950	0.035815
2962	0.042835
2974	0.043395
2986	0.03016
2998	0.014485
3010	0.00668
3022	0.00388
3034	0.00282
3046	0.00221
3058	0.001885
3070	0.001615
3082	0.00143
3094	0.00133
3106	0.00125
3118	0.001115
3130	0.00095
3142	0.000925
3154	0.000845
3166	0.000845
3178	0.000805
3190	0.00072
3202	0.000645
3214	0.000525
3226	0.00034
3238	0.000285
3250	0.000255
3262	0.000225
3274	0.00026
3286	0.000185
3298	0.00025
3310	0.00023
3322	0.00021
3334	0.0002
3346	0.0002
3358	0.000215
3370	0.00022
3382	0.000185
3394	0.00018
3406	0.00015
3418	0.00017
3430	0.000115
3442	0.00011
3454	0.00015
3466	0.00015
3478	0.000165
3490	0.00013
3502	6e-05
3514	0.00014
3526	5.5e-05
3538	0.00014
3550	5.5e-05
3562	0.00013
3574	0.00015
3586	1.5e-05
3598	7.5e-05
3610	0.0001
3622	0.000115
3634	0.0001
3646	0.000105
3658	0.000105
3670	0.000155
3682	0.000215
3694	0.000255
3706	0.000225
3718	0.00022
3730	0.000255
3742	0.000345
3754	0.000215
3766	0.000225
3778	0.000255
3790	0.000305
3802	0.0003
3814	0.000335
3826	0.00034
3838	0.00028
