Infrared Spectrum: cis-2-Pentene
Formula: C 5 H 10
CAS: 627-20-3
State: gas
Instrument: HP-GC/MS/IRD
Origin: NIST Mass Spectrometry Data Center
1/CM	ABSORBANCE
550	0.000516
562	0.0002328
574	0.0007224
586	0.0007632
598	0.0007248
610	0.0005832
622	0.0008472
634	0.0011472
646	0.0018216
658	0.003204
670	0.0049368
682	0.0066672
694	0.0068064
706	0.0054408
718	0.0038376
730	0.0024864
742	0.0013584
754	0.0006864
766	0.000456
778	0.0004248
790	0.0003816
802	0.0004872
814	0.0002208
826	0.0002064
838	0.0002784
850	0.00024
862	0.0002424
874	0.0003096
886	0.0001872
898	0.0003936
910	0.0009288
922	0.0017928
934	0.00186
946	0.0015864
958	0.0007248
970	0.0004608
982	0.0004512
994	0.0005784
1006	0.0007896
1018	0.0009384
1030	0.0009432
1042	0.0008952
1054	0.0008952
1066	0.0009096
1078	0.000972
1090	0.000792
1102	0.0005712
1114	0.0004416
1126	0.0003264
1138	0.00036
1150	0.0002712
1162	8.88e-05
1174	4.08e-05
1186	0
1198	3.36e-05
1210	6.72e-05
1222	0.00018
1234	0.0001896
1246	0.000288
1258	0.0002784
1270	0.000432
1282	0.0006816
1294	0.0013368
1306	0.0016416
1318	0.0017352
1330	0.0010584
1342	0.0009264
1354	0.001188
1366	0.0015264
1378	0.0019776
1390	0.002604
1402	0.0029928
1414	0.0031392
1426	0.002952
1438	0.0030072
1450	0.0033576
1462	0.0033528
1474	0.0028656
1486	0.0022416
1498	0.0015936
1510	0.0012312
1522	0.001044
1534	0.0009
1546	0.000792
1558	0.0007104
1570	0.000636
1582	0.0006
1594	0.0005688
1606	0.0006624
1618	0.0008016
1630	0.0011304
1642	0.0014952
1654	0.0016296
1666	0.001488
1678	0.0010584
1690	0.0007272
1702	0.0005496
1714	0.0004272
1726	0.0004032
1738	0.0003408
1750	0.000324
1762	0.0002472
1774	0.0002232
1786	0.00018
1798	0.0001752
1810	0.0001632
1822	0.0001632
1834	0.0001488
1846	0.0001752
1858	0.0001656
1870	0.0001632
1882	0.0001968
1894	0.0001584
1906	0.0002064
1918	0.0002208
1930	0.000168
1942	0.0001776
1954	0.0001776
1966	0.000228
1978	0.0002664
1990	0.0003144
2002	0.0003
2014	0.000324
2026	0.0003048
2038	0.0002616
2050	0.0002544
2062	0.0002136
2074	0.0002208
2086	0.0001824
2098	0.0001656
2110	0.0001776
2122	0.0001656
2134	0.0001536
2146	0.0001896
2158	0.0001752
2170	0.0001824
2182	0.0001968
2194	0.0001728
2206	0.0001872
2218	0.000168
2230	0.0002088
2242	0.000216
2254	0.000228
2266	0.0002208
2278	0.0002304
2290	0.0002376
2302	0.0002424
2314	0.0002544
2326	0.0002328
2338	0.000228
2350	0.000192
2362	0.0002208
2374	0.000264
2386	0.0002736
2398	0.0002952
2410	0.0002808
2422	0.0002472
2434	0.0002472
2446	0.0001944
2458	0.0002328
2470	0.0002424
2482	0.000264
2494	0.0002784
2506	0.000288
2518	0.0003024
2530	0.0002808
2542	0.0002664
2554	0.000264
2566	0.0002856
2578	0.0002952
2590	0.0003024
2602	0.0003216
2614	0.0003048
2626	0.0002928
2638	0.000324
2650	0.0003336
2662	0.0003312
2674	0.000348
2686	0.0003624
2698	0.0004176
2710	0.00054
2722	0.0006864
2734	0.0008376
2746	0.0009096
2758	0.0009672
2770	0.0010512
2782	0.0011184
2794	0.0013224
2806	0.001608
2818	0.0020208
2830	0.0029256
2842	0.0043584
2854	0.0066144
2866	0.009576
2878	0.0130368
2890	0.0142176
2902	0.015
2914	0.0155904
2926	0.0179328
2938	0.020232
2950	0.021816
2962	0.0238824
2974	0.023496
2986	0.0211704
2998	0.0169584
3010	0.0156648
3022	0.0146208
3034	0.013488
3046	0.0093696
3058	0.0055488
3070	0.0033864
3082	0.0023328
3094	0.0017256
3106	0.001368
3118	0.0011064
3130	0.000948
3142	0.0008496
3154	0.0007848
3166	0.0007512
3178	0.0006576
3190	0.0005808
3202	0.0004992
3214	0.0004032
3226	0.0004176
3238	0.0004176
3250	0.0003936
3262	0.0003504
3274	0.000324
3286	0.0003576
3298	0.0003648
3310	0.0003048
3322	0.0002448
3334	0.0002544
3346	0.0002976
3358	0.0002088
3370	0.0002736
3382	0.0002664
3394	0.0002832
3406	0.0002352
3418	0.000252
3430	0.0002976
3442	0.0002376
3454	0.0002712
3466	0.0002376
3478	0.0002784
3490	0.0002664
3502	0.000192
3514	0.0001488
3526	0.000264
3538	0.0002688
3550	0.0002016
3562	0.0002256
3574	0.0002856
3586	0.0002616
3598	0.000264
3610	0.0002616
3622	0.000288
3634	0.00024
3646	0.000276
3658	0.0002904
3670	0.0003096
3682	0.00024
3694	0.0003024
3706	0.0002808
3718	0.000276
3730	0.0002904
3742	0.0003624
3754	0.0003192
3766	0.0002808
3778	0.000312
3790	0.0002928
3802	0.0002976
3814	0.0002928
3826	0.0002304
3838	0.0003696
