Infrared Spectrum: Propargyl acetate
Formula: C 5 H 6 O 2
CAS: 627-09-8
State: gas
Instrument: HP-GC/MS/IRD
Origin: NIST Mass Spectrometry Data Center
1/CM	ABSORBANCE
550	0.000756
562	0.0008442
574	0.0007308
586	0.0011529
598	0.0022365
610	0.0042525
622	0.0071442
634	0.0097965
646	0.0082278
658	0.0071379
670	0.0081522
682	0.0047313
694	0.0015687
706	0.0004599
718	0.0001449
730	8.82e-05
742	0.0001197
754	0.0001134
766	0.0001071
778	0.0001764
790	0.000252
802	0.0005355
814	0.0010206
826	0.0012663
838	0.0013167
850	0.001071
862	0.0009324
874	0.0009198
886	0.0009828
898	0.0009828
910	0.0009513
922	0.0012537
934	0.0019152
946	0.0023877
958	0.0024255
970	0.0022995
982	0.0025137
994	0.0037863
1006	0.0077427
1018	0.0156051
1030	0.0222453
1042	0.0189882
1054	0.0109053
1066	0.0066339
1078	0.0050526
1090	0.0041076
1102	0.0029673
1114	0.0020664
1126	0.0015246
1138	0.0013671
1150	0.0015498
1162	0.0020538
1174	0.0033894
1186	0.0072765
1198	0.0195111
1210	0.0458829
1222	0.063
1234	0.0499842
1246	0.023625
1258	0.0121842
1270	0.0088515
1282	0.0058464
1294	0.0033075
1306	0.0021609
1318	0.0017325
1330	0.0019719
1342	0.0030933
1354	0.0057267
1366	0.0082215
1378	0.0092043
1390	0.0075285
1402	0.0034209
1414	0.0022365
1426	0.0024192
1438	0.0029547
1450	0.0028791
1462	0.0021042
1474	0.0014616
1486	0.001134
1498	0.0009387
1510	0.0008127
1522	0.0007182
1534	0.0006426
1546	0.000567
1558	0.0004788
1570	0.0004536
1582	0.0004599
1594	0.0004536
1606	0.0004788
1618	0.0004914
1630	0.0005229
1642	0.0005292
1654	0.0005355
1666	0.000567
1678	0.0006363
1690	0.0008316
1702	0.0012474
1714	0.0022491
1726	0.00441
1738	0.0088704
1750	0.0173313
1762	0.0287658
1774	0.0323316
1786	0.0247212
1798	0.0115479
1810	0.0041832
1822	0.0018018
1834	0.0011025
1846	0.0008883
1858	0.0007623
1870	0.0006237
1882	0.0004977
1894	0.0004536
1906	0.0003717
1918	0.0003024
1930	0.0002772
1942	0.0002583
1954	0.000252
1966	0.0002835
1978	0.0002772
1990	0.0002772
2002	0.0003087
2014	0.0003339
2026	0.0004095
2038	0.0004095
2050	0.0003528
2062	0.0002835
2074	0.0002268
2086	0.000252
2098	0.000252
2110	0.0002898
2122	0.0002961
2134	0.0002583
2146	0.0001386
2158	7.56e-05
2170	7.56e-05
2182	5.67e-05
2194	6.3e-05
2206	5.04e-05
2218	4.41e-05
2230	6.93e-05
2242	5.67e-05
2254	9.45e-05
2266	6.3e-05
2278	4.41e-05
2290	2.52e-05
2302	8.19e-05
2314	5.67e-05
2326	5.04e-05
2338	6.93e-05
2350	7.56e-05
2362	8.19e-05
2374	7.56e-05
2386	8.82e-05
2398	0.0001197
2410	0.0001008
2422	0.0001512
2434	0.0001575
2446	0.0001638
2458	0.0001701
2470	0.0001512
2482	0.000126
2494	0.0001134
2506	6.3e-05
2518	5.67e-05
2530	5.04e-05
2542	6.93e-05
2554	8.82e-05
2566	0.0001071
2578	0.0001323
2590	0.0001449
2602	0.0001575
2614	0.000126
2626	0.0001071
2638	0.0001323
2650	0.0001575
2662	0.0001449
2674	0.0001197
2686	0.0001134
2698	0.0001071
2710	9.45e-05
2722	0.0001008
2734	8.82e-05
2746	7.56e-05
2758	7.56e-05
2770	0.0001386
2782	7.56e-05
2794	0.000126
2806	0.0001827
2818	0.0001323
2830	0.0001764
2842	0.000189
2854	0.0002898
2866	0.0003591
2878	0.0004284
2890	0.0004347
2902	0.0004788
2914	0.0005544
2926	0.0008442
2938	0.0015435
2950	0.0027279
2962	0.0029862
2974	0.0020601
2986	0.0012348
2998	0.0008694
3010	0.0007056
3022	0.0006489
3034	0.0006804
3046	0.0006111
3058	0.0005733
3070	0.0004788
3082	0.0004536
3094	0.0003465
3106	0.0002835
3118	0.0002583
3130	0.0001953
3142	0.0001575
3154	0.0001449
3166	0.0001197
3178	8.19e-05
3190	0.0001008
3202	0.0001134
3214	0.0001134
3226	0.0001449
3238	0.0002142
3250	0.0001575
3262	0.0003717
3274	0.0007119
3286	0.0012726
3298	0.0027279
3310	0.0041202
3322	0.0077553
3334	0.0067599
3346	0.0028665
3358	0.0008946
3370	0.0004851
3382	0.0002898
3394	0.0002268
3406	0.0001701
3418	0.0001827
3430	0.000189
3442	0.0001575
3454	0.000189
3466	0.0001701
3478	0.0002142
3490	0.0002772
3502	0.0004095
3514	0.0005103
3526	0.000441
3538	0.0004977
3550	0.0003906
3562	0.0002079
3574	0.0001953
3586	0.0001575
3598	8.82e-05
3610	0.0001701
3622	0
3634	9.45e-05
3646	5.67e-05
3658	8.19e-05
3670	5.04e-05
3682	0.0001008
3694	5.04e-05
3706	0
3718	0
3730	0
3742	0
3754	5.67e-05
3766	3.15e-05
3778	4.41e-05
3790	2.52e-05
3802	8.19e-05
3814	5.67e-05
3826	8.19e-05
3838	0
