Infrared Spectrum: 5-Methyl-2-hexanol
Formula: C 7 H 16 O
CAS: 627-59-8
State: gas
Instrument: HP-GC/MS/IRD
Origin: NIST Mass Spectrometry Data Center
1/CM	ABSORBANCE
550	0.0001653
562	0.0002262
574	0.0001305
586	0.0001827
598	0.0001653
610	0.0001508
622	0.0001276
634	0.0001421
646	7.54e-05
658	6.67e-05
670	0.0001044
682	0.0001102
694	0.0001015
706	0.0001421
718	9.86e-05
730	0.0001392
742	0.0001972
754	0.0002465
766	0.0002001
778	0.0002175
790	0.0002059
802	0.0003654
814	0.0004669
826	0.0005452
838	0.0006844
850	0.0008903
862	0.00087
874	0.0008526
886	0.0008555
898	0.000841
910	0.0012818
922	0.002088
934	0.0027927
946	0.0027463
958	0.0018154
970	0.0011571
982	0.0010295
994	0.0012847
1006	0.001856
1018	0.0026506
1030	0.0035322
1042	0.0040948
1054	0.0042804
1066	0.0041992
1078	0.0042978
1090	0.0047241
1102	0.004321
1114	0.0035322
1126	0.0033843
1138	0.0036366
1150	0.0033698
1162	0.0026941
1174	0.0020561
1186	0.0016414
1198	0.00174
1210	0.0021547
1222	0.0025404
1234	0.0029174
1246	0.003103
1258	0.0026738
1270	0.002146
1282	0.00174
1294	0.0015283
1306	0.0015602
1318	0.0017371
1330	0.0020735
1342	0.0026709
1354	0.0034365
1366	0.0047792
1378	0.0062698
1390	0.0056434
1402	0.0033437
1414	0.0019082
1426	0.0015399
1438	0.0018966
1450	0.0028652
1462	0.0036337
1474	0.0031494
1486	0.001711
1498	0.0008091
1510	0.0004437
1522	0.0003132
1534	0.0002233
1546	0.000174
1558	0.0001276
1570	0.0001189
1582	0.0001276
1594	0.000116
1606	9.57e-05
1618	7.83e-05
1630	6.96e-05
1642	7.83e-05
1654	7.25e-05
1666	6.67e-05
1678	7.54e-05
1690	7.54e-05
1702	5.22e-05
1714	6.96e-05
1726	6.67e-05
1738	6.67e-05
1750	1.74e-05
1762	1.74e-05
1774	2.61e-05
1786	3.48e-05
1798	2.9e-05
1810	2.9e-05
1822	4.06e-05
1834	3.77e-05
1846	2.61e-05
1858	2.61e-05
1870	4.35e-05
1882	4.93e-05
1894	2.61e-05
1906	2.61e-05
1918	2.03e-05
1930	2.03e-05
1942	2.61e-05
1954	1.74e-05
1966	1.16e-05
1978	2.32e-05
1990	1.74e-05
2002	1.16e-05
2014	2.32e-05
2026	5.8e-06
2038	1.45e-05
2050	1.16e-05
2062	2.32e-05
2074	0
2086	5.8e-06
2098	8.7e-06
2110	8.7e-06
2122	3.48e-05
2134	2.61e-05
2146	3.19e-05
2158	2.32e-05
2170	3.19e-05
2182	4.93e-05
2194	4.35e-05
2206	3.19e-05
2218	2.03e-05
2230	4.64e-05
2242	4.35e-05
2254	4.35e-05
2266	5.51e-05
2278	5.22e-05
2290	5.8e-05
2302	5.22e-05
2314	6.96e-05
2326	6.67e-05
2338	4.06e-05
2350	6.09e-05
2362	4.06e-05
2374	7.25e-05
2386	9.86e-05
2398	9.57e-05
2410	9.57e-05
2422	9.57e-05
2434	7.54e-05
2446	8.41e-05
2458	8.7e-05
2470	7.83e-05
2482	9.57e-05
2494	9.28e-05
2506	0.0001247
2518	0.0001131
2530	0.0001015
2542	0.0001189
2554	0.0001276
2566	0.0001827
2578	0.0002233
2590	0.0002697
2602	0.0003074
2614	0.0003219
2626	0.0003799
2638	0.0003973
2650	0.0004089
2662	0.0004089
2674	0.0004292
2686	0.0004263
2698	0.0004292
2710	0.0004901
2722	0.0005916
2734	0.0006496
2746	0.0006554
2758	0.0006612
2770	0.0007279
2782	0.0008236
2794	0.0009715
2806	0.0012325
2818	0.0015602
2830	0.0021692
2842	0.0034394
2854	0.0056782
2866	0.0089001
2878	0.0120698
2890	0.0125976
2902	0.0129485
2914	0.0157383
2926	0.0193807
2938	0.0210801
2950	0.0216804
2962	0.0285302
2974	0.0247921
2986	0.0112955
2998	0.0040977
3010	0.0018995
3022	0.0011861
3034	0.0008816
3046	0.0007337
3058	0.0006612
3070	0.0006235
3082	0.0006264
3094	0.0005394
3106	0.0004843
3118	0.0004321
3130	0.0003741
3142	0.0003538
3154	0.0003625
3166	0.0003567
3178	0.0003886
3190	0.0003393
3202	0.0003103
3214	0.0002465
3226	0.0001537
3238	0.0001131
3250	5.8e-05
3262	0.0001044
3274	5.22e-05
3286	6.38e-05
3298	9.57e-05
3310	0.0001131
3322	0.0001044
3334	0.0001015
3346	0.000116
3358	0.0001218
3370	0.0001537
3382	0.0001392
3394	0.0001276
3406	0.0001218
3418	0.0001276
3430	0.0001537
3442	0.0001392
3454	0.0001421
3466	0.0001189
3478	9.28e-05
3490	6.09e-05
3502	6.67e-05
3514	5.8e-05
3526	5.8e-05
3538	2.61e-05
3550	3.77e-05
3562	6.09e-05
3574	3.48e-05
3586	8.41e-05
3598	0.0001247
3610	0.0002117
3622	0.0003857
3634	0.0008178
3646	0.0014964
3658	0.0017139
3670	0.0009773
3682	0.0003828
3694	0.0001827
3706	9.57e-05
3718	9.28e-05
3730	9.28e-05
3742	7.83e-05
3754	8.7e-06
3766	5.51e-05
3778	8.7e-05
3790	9.86e-05
3802	0.0001334
3814	0.0001508
3826	0.0001711
3838	0.0001537
