Infrared Spectrum: 2-Methyl-2-heptene
Formula: C 8 H 16
CAS: 627-97-4
State: gas
Instrument: HP-GC/MS/IRD
Origin: NIST Mass Spectrometry Data Center
1/CM	ABSORBANCE
550	0.0002775
562	0.0001825
574	0
586	6.25e-05
598	0.00013
610	0.0002875
622	0.000315
634	0.0003075
646	0.000265
658	0.00024
670	6.25e-05
682	7.5e-05
694	1e-05
706	6.25e-05
718	9.75e-05
730	0.0001175
742	0.000135
754	0.0002175
766	0.0002075
778	0.0002425
790	0.000325
802	0.0003975
814	0.0002825
826	0.000285
838	0.000315
850	0.0003275
862	0.0004875
874	0.001685
886	0.0046975
898	0.0053975
910	0.0023925
922	0.000665
934	0.00029
946	0.000275
958	0.00036
970	0.000455
982	0.0003675
994	0.000515
1006	0.0006825
1018	0.0006875
1030	0.00046
1042	0.00036
1054	0.0004225
1066	0.000435
1078	0.00057
1090	0.000745
1102	0.000605
1114	0.0003525
1126	0.0002825
1138	0.00029
1150	0.0003225
1162	0.0002475
1174	0.0001725
1186	0.000155
1198	0.000285
1210	0.00038
1222	0.0003525
1234	0.0003
1246	0.00034
1258	0.0003925
1270	0.0004575
1282	0.000445
1294	0.00045
1306	0.00044
1318	0.0004725
1330	0.0004975
1342	0.000505
1354	0.0007025
1366	0.0013575
1378	0.00222
1390	0.0020825
1402	0.0013
1414	0.0011725
1426	0.00144
1438	0.0020775
1450	0.0031825
1462	0.0040075
1474	0.00297
1486	0.00141
1498	0.0007075
1510	0.0004675
1522	0.0004
1534	0.00031
1546	0.000285
1558	0.0002975
1570	0.000275
1582	0.0003125
1594	0.00035
1606	0.0005225
1618	0.0010825
1630	0.002035
1642	0.0024875
1654	0.0015
1666	0.0005675
1678	0.0002775
1690	0.0002025
1702	0.00019
1714	0.0001525
1726	0.0001125
1738	0.000115
1750	0.000115
1762	0.00013
1774	0.00021
1786	0.00038
1798	0.000395
1810	0.000205
1822	9e-05
1834	7.5e-05
1846	7e-05
1858	6e-05
1870	8.5e-05
1882	8e-05
1894	6e-05
1906	3.25e-05
1918	2.75e-05
1930	3.25e-05
1942	3.75e-05
1954	1.25e-05
1966	4.5e-05
1978	1.5e-05
1990	3.5e-05
2002	5e-06
2014	2.75e-05
2026	2e-05
2038	2e-05
2050	3e-05
2062	3e-05
2074	1.75e-05
2086	2.75e-05
2098	3.25e-05
2110	1.25e-05
2122	2.75e-05
2134	4.75e-05
2146	3.25e-05
2158	3.25e-05
2170	2.75e-05
2182	2.5e-05
2194	1.75e-05
2206	3.5e-05
2218	4.5e-05
2230	7.5e-06
2242	4e-05
2254	3.5e-05
2266	5e-05
2278	6.25e-05
2290	6.25e-05
2302	4e-05
2314	4.75e-05
2326	7.75e-05
2338	6e-05
2350	8.25e-05
2362	0.000115
2374	0.0001075
2386	0.0001
2398	9.25e-05
2410	6.25e-05
2422	7.75e-05
2434	0.0001075
2446	7.25e-05
2458	6e-05
2470	7e-05
2482	8e-05
2494	8.25e-05
2506	7e-05
2518	7.5e-05
2530	0.000115
2542	0.000115
2554	0.0001325
2566	0.0001425
2578	0.000155
2590	0.0001575
2602	0.000155
2614	0.0001675
2626	0.0001975
2638	0.0001975
2650	0.0001825
2662	0.0002075
2674	0.00023
2686	0.0002425
2698	0.0002975
2710	0.0003325
2722	0.0003925
2734	0.00049
2746	0.00051
2758	0.000445
2770	0.0005125
2782	0.0005875
2794	0.0007025
2806	0.0008425
2818	0.00109
2830	0.00147
2842	0.002105
2854	0.0034
2866	0.006095
2878	0.00979
2890	0.01091
2902	0.0096225
2914	0.01018
2926	0.0134025
2938	0.015585
2950	0.0158
2962	0.021385
2974	0.0246075
2986	0.014455
2998	0.006025
3010	0.003245
3022	0.0021575
3034	0.00166
3046	0.0014875
3058	0.00164
3070	0.0024725
3082	0.0032725
3094	0.00248
3106	0.0011725
3118	0.0006175
3130	0.0005175
3142	0.0004425
3154	0.0004475
3166	0.000425
3178	0.0003975
3190	0.0003
3202	0.0002725
3214	0.0002125
3226	0.00022
3238	0.0001325
3250	0.00014
3262	0.0001275
3274	9e-05
3286	0.000105
3298	8e-05
3310	0.0001
3322	0.000115
3334	4e-05
3346	0.0001025
3358	9e-05
3370	4.75e-05
3382	3e-05
3394	5.75e-05
3406	6.75e-05
3418	7.25e-05
3430	7.5e-05
3442	8e-05
3454	3.25e-05
3466	2e-05
3478	3.5e-05
3490	5e-05
3502	4.75e-05
3514	6.5e-05
3526	5e-05
3538	3.5e-05
3550	2.75e-05
3562	7.75e-05
3574	2e-05
3586	7.5e-05
3598	8.25e-05
3610	8.75e-05
3622	4.5e-05
3634	3.5e-05
3646	7e-05
3658	4e-05
3670	0.000115
3682	9.5e-05
3694	0.000105
3706	7.5e-05
3718	0.0001275
3730	9.25e-05
3742	0.000125
3754	6.25e-05
3766	0.0001075
3778	6.25e-05
3790	7.25e-05
3802	0.000105
3814	6.75e-05
3826	8.75e-05
3838	9.25e-05
