Infrared Spectrum: ADIPIC ACID, MONO METHYL ESTER
Formula: C7 H12 O4
CAS: 627-91-8
State: LIQUID
Melting point: 8-9 C
Class: COBLENTZ
Instrument: Not specified, most likely a prism, grating, or hybrid spectrometer.
Sampling: TRANSMISSION
Path length: CAPILLARY
Resolution: 4
Origin: WYANDOTTE CHEMICALS CORP., WYANDOTTE, MICHIGAN, USA
MICROMETERS	TRANSMITTANCE
2.048	0.982
2.08884	0.989
2.12967	0.979
2.17051	0.974
2.21134	0.97
2.25218	0.972
2.29301	0.964
2.33385	0.969
2.37468	0.989
2.41552	0.981
2.45635	0.977
2.49719	0.969
2.53802	0.967
2.57886	0.967
2.61969	0.974
2.66053	0.977
2.70136	0.972
2.7422	0.958
2.78303	0.921
2.82387	0.89
2.8647	0.859
2.90554	0.813
2.94637	0.765
2.98721	0.683
3.02804	0.567
3.06888	0.473
3.10971	0.446
3.15055	0.43
3.19138	0.418
3.23222	0.401
3.27305	0.396
3.31389	0.369
3.35472	0.324
3.39556	0.254
3.43639	0.367
3.47723	0.408
3.51806	0.468
3.5589	0.576
3.59973	0.613
3.64057	0.629
3.6814	0.632
3.72224	0.629
3.76308	0.618
3.80391	0.634
3.84475	0.651
3.88558	0.671
3.92642	0.692
3.96725	0.7
4.00809	0.743
4.04892	0.769
4.08976	0.786
4.13059	0.801
4.17143	0.822
4.21226	0.823
4.2531	0.835
4.29393	0.863
4.33477	0.9
4.3756	0.912
4.41644	0.89
4.45727	0.89
4.49811	0.902
4.53894	0.905
4.57978	0.904
4.62061	0.905
4.66145	0.909
4.70228	0.905
4.74312	0.909
4.78395	0.902
4.82479	0.902
4.86562	0.904
4.90646	0.897
4.94729	0.902
4.98813	0.902
5.02896	0.9
5.0698	0.899
5.11063	0.9
5.15147	0.909
5.1923	0.899
5.23314	0.902
5.27397	0.9
5.31481	0.888
5.35564	0.883
5.39648	0.876
5.43732	0.863
5.47815	0.851
5.51899	0.822
5.55982	0.781
5.60066	0.714
5.64149	0.617
5.68233	0.364
5.72316	0.094
5.764	0.082
5.80483	0.082
5.84567	0.075
5.8865	0.169
5.92734	0.321
5.96817	0.5
6.00901	0.588
6.04984	0.675
6.09068	0.724
6.13151	0.76
6.17235	0.782
6.21318	0.801
6.25402	0.817
6.29485	0.837
6.33569	0.835
6.37652	0.839
6.41736	0.834
6.45819	0.83
6.49903	0.813
6.53986	0.822
6.5807	0.818
6.62153	0.8
6.66237	0.794
6.7032	0.76
6.74404	0.671
6.78487	0.449
6.82571	0.382
6.86654	0.335
6.90738	0.254
6.94821	0.276
6.98905	0.341
7.02988	0.348
7.07072	0.376
7.11156	0.461
7.15239	0.519
7.19323	0.511
7.23406	0.468
7.2749	0.439
7.31573	0.43
7.35657	0.451
7.3974	0.475
7.43824	0.487
7.47907	0.485
7.51991	0.47
7.56074	0.415
7.60158	0.382
7.64241	0.357
7.68325	0.319
7.72408	0.271
7.76492	0.254
7.80575	0.241
7.84659	0.247
7.88742	0.237
7.92826	0.235
7.96909	0.225
8.00993	0.217
8.05076	0.211
8.0916	0.21
8.13243	0.203
8.17327	0.196
8.2141	0.196
8.25494	0.189
8.29577	0.179
8.33661	0.179
8.37744	0.2
8.41828	0.21
8.45911	0.203
8.49995	0.188
8.54078	0.203
8.58162	0.242
8.62245	0.27
8.66329	0.268
8.70412	0.264
8.74496	0.271
8.7858	0.317
8.82663	0.406
8.86747	0.514
8.9083	0.608
8.94914	0.673
8.98997	0.716
9.03081	0.726
9.07164	0.717
9.11248	0.683
9.15331	0.634
9.19415	0.574
9.23498	0.543
9.27582	0.555
9.31665	0.577
9.35749	0.579
9.39832	0.598
9.43916	0.627
9.47999	0.659
9.52083	0.688
9.56166	0.705
9.6025	0.726
9.64333	0.731
9.68417	0.719
9.725	0.709
9.76584	0.682
9.80667	0.675
9.84751	0.666
9.88834	0.652
9.92918	0.641
9.97001	0.652
10.0108	0.659
10.0517	0.663
10.0925	0.67
10.1334	0.663
10.1742	0.658
10.215	0.664
10.2559	0.656
10.2967	0.666
10.3375	0.661
10.3784	0.671
10.4192	0.658
10.46	0.656
10.5009	0.651
10.5417	0.641
10.5825	0.622
10.6234	0.62
10.6642	0.61
10.705	0.606
10.7459	0.608
10.7867	0.603
10.8276	0.608
10.8684	0.615
10.9092	0.611
10.9501	0.617
10.9909	0.62
11.0317	0.641
11.0726	0.647
11.1134	0.649
11.1542	0.652
11.1951	0.646
11.2359	0.637
11.2767	0.627
11.3176	0.646
11.3584	0.652
11.3992	0.671
11.4401	0.688
11.4809	0.685
11.5217	0.682
11.5626	0.682
11.6034	0.692
11.6443	0.69
11.6851	0.692
11.7259	0.697
11.7668	0.69
11.8076	0.69
11.8484	0.7
11.8893	0.7
11.9301	0.711
11.9709	0.711
12.0118	0.697
12.0526	0.678
12.0934	0.687
12.1343	0.683
12.1751	0.694
12.2159	0.702
12.2568	0.709
12.2976	0.7
12.3385	0.719
12.3793	0.717
12.4201	0.721
12.461	0.726
12.5018	0.724
12.5426	0.717
12.5835	0.724
12.6243	0.724
12.6651	0.716
12.706	0.724
12.7468	0.721
12.7876	0.717
12.8285	0.719
12.8693	0.712
12.9101	0.711
12.951	0.705
12.9918	0.709
13.0326	0.699
13.0735	0.683
13.1143	0.685
13.1552	0.68
13.196	0.688
13.2368	0.685
13.2777	0.69
13.3185	0.699
13.3593	0.704
13.4002	0.711
13.441	0.719
13.4818	0.728
13.5227	0.736
13.5635	0.736
13.6043	0.743
13.6452	0.75
13.686	0.765
13.7268	0.789
13.7677	0.793
13.8085	0.806
13.8494	0.806
13.8902	0.811
13.931	0.806
13.9719	0.808
14.0127	0.818
14.0535	0.81
14.0944	0.81
14.1352	0.806
14.176	0.808
14.2169	0.803
14.2577	0.806
14.2985	0.801
14.3394	0.796
14.3802	0.801
14.421	0.806
14.4619	0.8
14.5027	0.789
14.5435	0.796
14.5844	0.8
14.6252	0.8
14.6661	0.796
14.7069	0.788
14.7477	0.788
14.7886	0.781
14.8294	0.777
14.8702	0.764
14.9111	0.764
14.9519	0.762
14.9927	0.753
15.0336	0.723
15.0744	0.675
15.1152	0.67
15.1561	0.678
15.1969	0.705
15.2377	0.733
15.2786	0.728
15.3194	0.735
15.3602	0.741
15.4011	0.726
15.4419	0.724
15.4828	0.736
15.5236	0.729
15.5644	0.726
15.6053	0.728
15.6461	0.716
15.6869	0.726
15.7278	0.726
15.7686	0.714
15.8094	0.717
15.8503	0.707
15.8911	0.717
15.9319	0.702
15.9728	0.7
