Infrared Spectrum: Fumaryl chloride
Formula: C 4 H 2 Cl 2 O 2
CAS: 627-63-4
State: gas
Instrument: HP-GC/MS/IRD
Origin: NIST Mass Spectrometry Data Center
1/CM	ABSORBANCE
550	0.0003335
562	0.0002116
574	0.0005313
586	0.0006187
598	0.0010695
610	0.0025323
622	0.0026243
634	0.0006716
646	0.0009407
658	0.0022057
670	0.0044459
682	0.0079304
694	0.0063204
706	0.0023713
718	0.000713
730	0.0004002
742	0.0004508
754	0.0005198
766	0.0009246
778	0.001771
790	0.0035052
802	0.0035374
814	0.0015065
826	0.000759
838	0.0008832
850	0.0006647
862	0.0006049
874	0.000759
886	0.0009384
898	0.0008188
910	0.0005405
922	0.000368
934	0.0006187
946	0.0011362
958	0.0022126
970	0.0027738
982	0.0022655
994	0.0025231
1006	0.0046943
1018	0.0096232
1030	0.0138851
1042	0.0097842
1054	0.0059271
1066	0.0048415
1078	0.0043562
1090	0.0044229
1102	0.004784
1114	0.0056235
1126	0.003151
1138	0.0009545
1150	0.0004324
1162	0.0002323
1174	0.0001978
1186	0.0002277
1198	0.0003358
1210	0.0005221
1222	0.0011868
1234	0.0021482
1246	0.0039767
1258	0.003151
1270	0.0012765
1282	0.0011339
1294	0.0006831
1306	0.0002714
1318	0.0001955
1330	0.0001242
1342	7.13e-05
1354	2.53e-05
1366	4.14e-05
1378	4.6e-05
1390	5.98e-05
1402	3.45e-05
1414	0.0001035
1426	0.0001219
1438	0.0001403
1450	0.0001472
1462	0.0001702
1474	0.0002024
1486	0.0002645
1498	0.0003059
1510	0.0002944
1522	0.0003059
1534	0.000322
1546	0.0003151
1558	0.0003381
1570	0.0003266
1582	0.0002783
1594	0.0003197
1606	0.0003312
1618	0.0004968
1630	0.0005106
1642	0.0001909
1654	0.0001587
1666	0.000138
1678	0.0001702
1690	0.0002668
1702	0.0003358
1714	0.0004876
1726	0.0010166
1738	0.0019987
1750	0.0043079
1762	0.011891
1774	0.0220685
1786	0.0187657
1798	0.0093679
1810	0.0052555
1822	0.0023506
1834	0.0011707
1846	0.0007498
1858	0.0005658
1870	0.0005106
1882	0.0004209
1894	0.0002898
1906	0.0001955
1918	0.0001679
1930	0.0001196
1942	5.98e-05
1954	4.83e-05
1966	6.21e-05
1978	5.06e-05
1990	4.83e-05
2002	6.67e-05
2014	5.75e-05
2026	4.6e-05
2038	7.36e-05
2050	4.14e-05
2062	0
2074	1.15e-05
2086	2.99e-05
2098	4.6e-05
2110	4.14e-05
2122	5.29e-05
2134	8.28e-05
2146	3.45e-05
2158	0.0001081
2170	9.66e-05
2182	0.0001357
2194	0.0001012
2206	0.0001081
2218	9.89e-05
2230	0.0001012
2242	9.2e-05
2254	8.51e-05
2266	8.28e-05
2278	4.6e-05
2290	9.89e-05
2302	0.0001564
2314	0.0002093
2326	0.0002484
2338	0.0002392
2350	0.0002024
2362	0.0003174
2374	0.0002254
2386	0.0001104
2398	5.52e-05
2410	6.21e-05
2422	5.75e-05
2434	6.44e-05
2446	6.21e-05
2458	5.75e-05
2470	7.59e-05
2482	4.83e-05
2494	6.21e-05
2506	7.13e-05
2518	6.21e-05
2530	7.82e-05
2542	7.59e-05
2554	6.21e-05
2566	0.0001242
2578	7.36e-05
2590	6.21e-05
2602	0.0001196
2614	0.0001403
2626	0.0001518
2638	0.0001104
2650	0.0001495
2662	0.0001196
2674	0.0001334
2686	0.0001196
2698	0.0001403
2710	0.0001541
2722	0.0001311
2734	0.0001311
2746	0.0001679
2758	0.0001771
2770	0.0001725
2782	0.0001771
2794	0.000184
2806	0.0001932
2818	0.0001909
2830	0.0001771
2842	0.0002346
2854	0.0001587
2866	0.0001886
2878	0.0001357
2890	0.0001472
2902	0.0001748
2914	0.0001311
2926	0.0001771
2938	0.0001817
2950	0.0001863
2962	0.000207
2974	0.0001794
2986	0.0001771
2998	0.0001541
3010	0.0001863
3022	0.0001817
3034	0.0001265
3046	0.0001357
3058	0.0002047
3070	0.0002369
3082	0.0003036
3094	0.0002139
3106	0.0001472
3118	0.0001173
3130	0.0001357
3142	0.0001311
3154	0.0001104
3166	5.75e-05
3178	0.0001058
3190	0.0001219
3202	8.97e-05
3214	0.0001334
3226	0.0001173
3238	0.0001265
3250	0.000138
3262	7.82e-05
3274	0.0001035
3286	0.0001104
3298	8.51e-05
3310	9.43e-05
3322	4.14e-05
3334	8.28e-05
3346	7.36e-05
3358	0.0001035
3370	0.0001173
3382	9.43e-05
3394	8.97e-05
3406	0.0001242
3418	0.0001288
3430	9.66e-05
3442	2.53e-05
3454	8.51e-05
3466	7.59e-05
3478	0.0001104
3490	0.0001196
3502	0.0002231
3514	0.0003174
3526	0.0003772
3538	0.0004232
3550	0.0003266
3562	0.0002093
3574	0.0001863
3586	0.0001357
3598	0.000115
3610	5.75e-05
3622	0.0001403
3634	9.66e-05
3646	0.0001541
3658	0.000115
3670	0.0001173
3682	0.0001058
3694	0.0001242
3706	8.74e-05
3718	1.38e-05
3730	0.000115
3742	0.0001587
3754	0.0001242
3766	8.05e-05
3778	7.36e-05
3790	0.0001242
3802	0.000161
3814	7.13e-05
3826	0.0001357
3838	0.0001449
