Infrared Spectrum: n-PROPYL CARBAMATE
Formula: C4 H9 N O2
CAS: 627-12-3
State: SOLID (MINERAL OIL MULL)
Melting point: 60-62 C
Class: COBLENTZ
Instrument: Not specified, most likely a prism, grating, or hybrid spectrometer.
Sampling: TRANSMISSION
Resolution: 4
Origin: WYANDOTTE CHEMICALS CORP., WYANDOTTE, MICHIGAN, USA
MICROMETERS	TRANSMITTANCE
2.02	0.95
2.05979	0.956
2.09958	0.963
2.13937	0.955
2.17917	0.956
2.21896	0.945
2.25875	0.943
2.29854	0.951
2.33833	0.961
2.37812	0.942
2.41791	0.958
2.4577	0.963
2.4975	0.966
2.53729	0.971
2.57708	0.983
2.61687	0.981
2.65666	0.99
2.69645	0.995
2.73624	0.991
2.77604	0.951
2.81583	0.917
2.85562	0.809
2.89541	0.435
2.9352	0.104
2.97499	0.096
3.01478	0.134
3.05458	0.157
3.09437	0.157
3.13416	0.16
3.17395	0.453
3.21374	0.639
3.25353	0.682
3.29332	0.687
3.33311	0.448
3.37291	0.089
3.4127	0.087
3.45249	0.145
3.49228	0.175
3.53207	0.365
3.57186	0.683
3.61165	0.778
3.65145	0.781
3.69124	0.794
3.73103	0.86
3.77082	0.889
3.81061	0.917
3.8504	0.92
3.89019	0.927
3.92999	0.932
3.96978	0.915
4.00957	0.918
4.04936	0.927
4.08915	0.932
4.12894	0.943
4.16873	0.94
4.20852	0.92
4.24832	0.93
4.28811	0.94
4.3279	0.958
4.36769	0.975
4.40748	0.981
4.44727	0.947
4.48706	0.942
4.52686	0.942
4.56665	0.951
4.60644	0.963
4.64623	0.97
4.68602	0.961
4.72581	0.973
4.7656	0.976
4.8054	0.983
4.84519	0.988
4.88498	0.983
4.92477	0.95
4.96456	0.942
5.00435	0.947
5.04414	0.951
5.08393	0.885
5.12373	0.875
5.16352	0.923
5.20331	0.937
5.2431	0.928
5.28289	0.925
5.32268	0.92
5.36247	0.908
5.40227	0.88
5.44206	0.849
5.48185	0.798
5.52164	0.738
5.56143	0.675
5.60122	0.594
5.64101	0.448
5.68081	0.341
5.7206	0.284
5.76039	0.188
5.80018	0.129
5.83997	0.096
5.87976	0.072
5.91955	0.059
5.95934	0.056
5.99914	0.087
6.03893	0.157
6.07872	0.177
6.11851	0.144
6.1583	0.056
6.19809	0.147
6.23788	0.309
6.27768	0.379
6.31747	0.49
6.35726	0.519
6.39705	0.551
6.43684	0.546
6.47663	0.551
6.51642	0.544
6.55622	0.541
6.59601	0.509
6.6358	0.433
6.67559	0.369
6.71538	0.198
6.75517	0.132
6.79496	0.105
6.83475	0.119
6.87455	0.129
6.91434	0.099
6.95413	0.069
6.99392	0.071
7.03371	0.122
7.0735	0.215
7.11329	0.329
7.15309	0.417
7.19288	0.336
7.23267	0.135
7.27246	0.119
7.31225	0.076
7.35204	0.061
7.39183	0.069
7.43163	0.11
7.47142	0.172
7.51121	0.246
7.551	0.334
7.59079	0.405
7.63058	0.364
7.67037	0.188
7.71016	0.314
7.74996	0.367
7.78975	0.387
7.82954	0.38
7.86933	0.394
7.90912	0.415
7.94891	0.41
7.9887	0.395
8.0285	0.379
8.06829	0.379
8.10808	0.362
8.14787	0.327
8.18766	0.319
8.22745	0.322
8.26724	0.342
8.30704	0.327
8.34683	0.296
8.38662	0.288
8.42641	0.319
8.4662	0.309
8.50599	0.279
8.54578	0.299
8.58557	0.312
8.62537	0.294
8.66516	0.307
8.70495	0.284
8.74474	0.226
8.78453	0.223
8.82432	0.22
8.86411	0.195
8.90391	0.206
8.9437	0.245
8.98349	0.278
9.02328	0.306
9.06307	0.291
9.10286	0.243
9.14265	0.178
9.18245	0.12
9.22224	0.081
9.26203	0.057
9.30182	0.054
9.34161	0.054
9.3814	0.069
9.42119	0.092
9.46098	0.147
9.50078	0.197
9.54057	0.24
9.58036	0.271
9.62015	0.294
9.65994	0.317
9.69973	0.374
9.73952	0.412
9.77932	0.455
9.81911	0.48
9.8589	0.504
9.89869	0.541
9.93848	0.576
9.97827	0.609
10.0181	0.624
10.0579	0.635
10.0976	0.652
10.1374	0.66
10.1772	0.668
10.217	0.68
10.2568	0.685
10.2966	0.695
10.3364	0.701
10.3762	0.71
10.416	0.715
10.4558	0.718
10.4956	0.721
10.5354	0.726
10.5751	0.726
10.6149	0.725
10.6547	0.716
10.6945	0.706
10.7343	0.667
10.7741	0.61
10.8139	0.538
10.8537	0.445
10.8935	0.412
10.9333	0.402
10.9731	0.399
11.0128	0.443
11.0526	0.523
11.0924	0.571
11.1322	0.615
11.172	0.632
11.2118	0.663
11.2516	0.706
11.2914	0.733
11.3312	0.763
11.371	0.769
11.4108	0.781
11.4506	0.779
11.4903	0.778
11.5301	0.773
11.5699	0.769
11.6097	0.769
11.6495	0.771
11.6893	0.778
11.7291	0.793
11.7689	0.811
11.8087	0.807
11.8485	0.812
11.8883	0.819
11.928	0.822
11.9678	0.821
12.0076	0.819
12.0474	0.812
12.0872	0.801
12.127	0.784
12.1668	0.756
12.2066	0.753
12.2464	0.774
12.2862	0.75
12.326	0.725
12.3658	0.741
12.4055	0.748
12.4453	0.73
12.4851	0.701
12.5249	0.652
12.5647	0.592
12.6045	0.498
12.6443	0.415
12.6841	0.447
12.7239	0.6
12.7637	0.711
12.8035	0.763
12.8433	0.791
12.883	0.799
12.9228	0.798
12.9626	0.776
13.0024	0.746
13.0422	0.703
13.082	0.7
13.1218	0.736
13.1616	0.761
13.2014	0.776
13.2412	0.781
13.281	0.788
13.3207	0.796
13.3605	0.798
13.4003	0.793
13.4401	0.791
13.4799	0.791
13.5197	0.788
13.5595	0.786
13.5993	0.781
13.6391	0.774
13.6789	0.769
13.7187	0.763
13.7585	0.75
13.7982	0.735
13.838	0.731
13.8778	0.718
13.9176	0.711
13.9574	0.701
13.9972	0.698
14.037	0.683
14.0768	0.682
14.1166	0.678
14.1564	0.663
14.1962	0.657
14.2359	0.658
14.2757	0.657
14.3155	0.65
14.3553	0.657
14.3951	0.66
14.4349	0.66
14.4747	0.655
14.5145	0.658
14.5543	0.662
14.5941	0.668
14.6339	0.667
14.6737	0.67
14.7134	0.65
14.7532	0.637
14.793	0.619
14.8328	0.586
14.8726	0.556
14.9124	0.539
14.9522	0.554
14.992	0.574
15.0318	0.599
15.0716	0.6
15.1114	0.602
15.1511	0.607
15.1909	0.614
15.2307	0.647
15.2705	0.655
15.3103	0.652
15.3501	0.658
15.3899	0.658
15.4297	0.647
15.4695	0.64
15.5093	0.629
15.5491	0.637
15.5889	0.63
15.6286	0.629
15.6684	0.627
15.7082	0.622
15.748	0.619
15.7878	0.619
15.8276	0.622
15.8674	0.605
15.9072	0.612
15.947	0.609
15.9868	0.607
