Infrared Spectrum: 5-Ureidonorvaline
Formula: C6 H13 N3 O3
CAS: 627-77-0
State: SOLID (SPLIT MULL)
Class: COBLENTZ II
Instrument: DOW KBr FOREPRISM-GRATING
Instrument parameters: BLAZED AT 3.5, 12.0, 20.0 MICRON AND CHANGED AT 5.0, 7.5, 14.9 MICRON
Sampling: TRANSMISSION
Resolution: 2
Origin: DOW CHEMICAL COMPANY
1/CM	TRANSMITTANCE
3800	0.8351
3791	0.8373
3782	0.8402
3773	0.8425
3764	0.8414
3755	0.8407
3746	0.8427
3737	0.8475
3728	0.8486
3719	0.8475
3710	0.8467
3701	0.846
3692	0.8459
3683	0.8463
3674	0.8468
3665	0.8471
3656	0.8475
3647	0.8478
3638	0.8482
3629	0.8484
3620	0.8485
3611	0.8486
3602	0.8484
3593	0.8478
3584	0.8451
3575	0.8387
3566	0.8402
3557	0.8421
3548	0.8418
3539	0.8407
3530	0.8375
3521	0.8314
3512	0.8202
3503	0.748
3494	0.6293
3485	0.5976
3476	0.6578
3467	0.7132
3458	0.7157
3449	0.7008
3440	0.589
3431	0.5517
3422	0.5685
3413	0.6333
3404	0.6637
3395	0.6804
3386	0.6878
3377	0.6876
3368	0.6383
3359	0.526
3350	0.4209
3341	0.3664
3332	0.3541
3323	0.3721
3314	0.4693
3305	0.5431
3296	0.5945
3287	0.6204
3278	0.639
3269	0.6571
3260	0.6731
3251	0.6846
3242	0.698
3233	0.7061
3224	0.7096
3215	0.7089
3206	0.7045
3197	0.7026
3188	0.7042
3179	0.7051
3170	0.7051
3161	0.7031
3152	0.701
3143	0.6985
3134	0.6939
3125	0.6871
3116	0.6792
3107	0.6668
3098	0.6462
3089	0.6272
3080	0.6014
3071	0.5775
3062	0.559
3053	0.5401
3044	0.5194
3035	0.4846
3026	0.4412
3017	0.4196
3008	0.4058
2999	0.3976
2990	0.3912
2981	0.383
2972	0.3712
2963	0.3462
2954	0.315
2945	0.2974
2936	0.3097
2927	0.3177
2918	0.3202
2909	0.343
2900	0.3634
2891	0.37
2882	0.38
2873	0.3996
2864	0.4154
2855	0.4182
2846	0.4269
2837	0.4394
2828	0.4534
2819	0.4687
2810	0.485
2801	0.5003
2792	0.5144
2783	0.5188
2774	0.5212
2765	0.5226
2756	0.5208
2747	0.5145
2738	0.5101
2729	0.5268
2720	0.5549
2711	0.5726
2702	0.5801
2693	0.5817
2684	0.5784
2675	0.5666
2666	0.5553
2657	0.548
2648	0.5533
2639	0.5743
2630	0.5957
2621	0.6171
2612	0.6351
2603	0.6421
2594	0.6458
2585	0.6468
2576	0.6415
2567	0.6356
2558	0.6432
2549	0.6571
2540	0.6721
2531	0.6846
2522	0.695
2513	0.7041
2504	0.7128
2495	0.7199
2486	0.7282
2477	0.7305
2468	0.7336
2459	0.7365
2450	0.7399
2441	0.7443
2432	0.7489
2423	0.7536
2414	0.7581
2405	0.7597
2396	0.7612
2387	0.7621
2378	0.7632
2369	0.765
2360	0.7671
2351	0.7688
2342	0.769
2333	0.7721
2324	0.7747
2315	0.7728
2306	0.7672
2297	0.7648
2288	0.7668
2279	0.7701
2270	0.7725
2261	0.7746
2252	0.775
2243	0.775
2234	0.7758
2225	0.7778
2216	0.7808
2207	0.784
2198	0.7865
2189	0.7878
2180	0.7874
2171	0.7889
2162	0.79
2153	0.7906
2144	0.7874
2135	0.7833
2126	0.7788
2117	0.774
2108	0.7688
2099	0.7632
2090	0.7596
2081	0.7578
2072	0.7605
2063	0.765
2054	0.7705
2045	0.7758
2036	0.7808
2027	0.7869
2018	0.7925
2009	0.7987
2000	0.8194
1991	0.8487
1982	0.8542
1973	0.8562
1964	0.8597
1955	0.8631
1946	0.8653
1937	0.8668
1928	0.8697
1919	0.8717
1910	0.8731
1901	0.8745
1892	0.8736
1883	0.8732
1874	0.8735
1865	0.8751
1856	0.8768
1847	0.8783
1838	0.8794
1829	0.8797
1820	0.8792
1811	0.8787
1802	0.8782
1793	0.8771
1784	0.8761
1775	0.8742
1766	0.8717
1757	0.8683
1748	0.8647
1739	0.8595
1730	0.8521
1721	0.8448
1712	0.8292
1703	0.8107
1694	0.7748
1685	0.7128
1676	0.5924
1667	0.2512
1658	0.1312
1649	0.0919
1640	0.1801
1631	0.2593
1622	0.3092
1613	0.3248
1604	0.3198
1595	0.0763
1586	0.0471
1577	0.0826
1568	0.1534
1559	0.2448
1550	0.3644
1541	0.4548
1532	0.4968
1523	0.4637
1514	0.5732
1505	0.6352
1496	0.666
1487	0.6785
1478	0.598
1469	0.6819
1460	0.7028
1451	0.6562
1442	0.7067
1433	0.7007
1424	0.3386
1415	0.2361
1406	0.5555
1397	0.6218
1388	0.6599
1379	0.6965
1370	0.6448
1361	0.6858
1352	0.5834
1343	0.3226
1334	0.1998
1325	0.3437
1316	0.5345
1307	0.5869
1298	0.5771
1289	0.5942
1280	0.6818
1271	0.7208
1262	0.7331
1253	0.7375
1244	0.6911
1235	0.7054
1226	0.7461
1217	0.7562
1208	0.7575
1199	0.7555
1190	0.7458
1181	0.5464
1172	0.5602
1163	0.649
1154	0.5427
1145	0.6022
1136	0.7076
1127	0.7393
1118	0.7301
1109	0.6715
1100	0.6554
1091	0.696
1082	0.733
1073	0.7425
1064	0.7044
1055	0.7378
1046	0.7711
1037	0.785
1028	0.7675
1019	0.7894
1010	0.8032
1001	0.8139
992	0.821
983	0.8205
974	0.8071
965	0.8048
956	0.7944
947	0.7958
938	0.8192
929	0.8266
920	0.8283
911	0.8058
902	0.7664
893	0.7594
884	0.8114
875	0.843
866	0.8577
857	0.864
848	0.8661
839	0.858
830	0.8447
821	0.8689
812	0.8725
803	0.8767
794	0.8782
785	0.8311
776	0.7824
767	0.8352
758	0.8396
749	0.8054
740	0.7744
731	0.7801
722	0.7267
713	0.7328
704	0.6265
695	0.6628
686	0.7036
677	0.7274
668	0.7397
659	0.7547
650	0.7551
641	0.7583
632	0.7849
623	0.8033
614	0.8086
605	0.8028
596	0.7936
587	0.7804
578	0.7597
569	0.6958
560	0.61
551	0.6207
542	0.4812
533	0.654
524	0.6983
515	0.713
506	0.726
497	0.7343
488	0.7281
479	0.7178
470	0.7076
461	0.6741
452	0.4356
443	0.5226
434	0.6081
425	0.6121
416	0.6103
407	0.6007
398	0.5915
389	0.5848
