Infrared Spectrum: Propyl nitrate
Formula: C3 H7 N O3
CAS: 627-13-4
State: LIQUID (NEAT)
Class: COBLENTZ III
Instrument: BAIRD (GRATING)
Instrument parameters: NaCl PRISM
Path length: 0.003 CM
Resolution: 2
Origin: WYANDOTTE CHEMICALS CORP.
1/CM	TRANSMITTANCE
624.827	0.6532
633.704	0.651
642.58	0.5953
651.457	0.5181
660.334	0.5773
669.21	0.6536
678.087	0.653
686.963	0.5197
695.84	0.333
704.717	0.6026
713.593	0.7681
722.47	0.8116
731.347	0.8158
740.223	0.7861
749.1	0.6871
757.977	0.1969
766.853	0.4732
775.73	0.5034
784.606	0.6575
793.483	0.7294
802.36	0.7268
811.236	0.6989
820.113	0.6392
828.99	0.5376
837.866	0.2635
846.743	0.0741
855.62	0.0262
864.496	0.0232
873.373	0.0252
882.25	0.0282
891.126	0.0388
900.003	0.132
908.879	0.3407
917.756	0.2677
926.633	0.3806
935.509	0.3204
944.386	0.0821
953.263	0.0367
962.139	0.1356
971.016	0.1835
979.893	0.0656
988.769	0.1488
997.646	0.4817
1006.52	0.6465
1015.4	0.6755
1024.28	0.6703
1033.15	0.5659
1042.03	0.5166
1050.91	0.3329
1059.78	0.4127
1068.66	0.6466
1077.54	0.6892
1086.41	0.7049
1095.29	0.6909
1104.17	0.7183
1113.04	0.7312
1121.92	0.769
1130.8	0.787
1139.67	0.8058
1148.55	0.82
1157.43	0.8267
1166.3	0.8346
1175.18	0.854
1184.06	0.8525
1192.93	0.8311
1201.81	0.8178
1210.69	0.7992
1219.56	0.7737
1228.44	0.7414
1237.32	0.6891
1246.19	0.5591
1255.07	0.5295
1263.94	0.3083
1272.82	0.0557
1281.7	0.0293
1290.57	0.0283
1299.45	0.067
1308.33	0.1776
1317.2	0.1086
1326.08	0.3269
1334.96	0.5559
1343.83	0.6593
1352.71	0.6271
1361.59	0.5979
1370.46	0.6314
1379.34	0.5577
1388.22	0.4569
1397.09	0.3888
1405.97	0.5805
1414.85	0.7054
1423.72	0.7204
1432.6	0.7029
1441.48	0.6625
1450.35	0.411
1459.23	0.2985
1468.11	0.2768
1476.98	0.1783
1485.86	0.31
1494.74	0.4794
1503.61	0.6452
1512.49	0.677
1521.37	0.6795
1530.24	0.6781
1539.12	0.6872
1548	0.6875
1556.87	0.6764
1565.75	0.652
1574.63	0.6263
1583.5	0.5987
1592.38	0.5581
1601.26	0.4997
1610.13	0.3517
1619.01	0.1318
1627.89	0.0258
1636.76	0.0208
1645.64	0.021
1654.52	0.0264
1663.39	0.0422
1672.27	0.1246
1681.15	0.2901
1690.02	0.4539
1698.9	0.6318
1707.78	0.671
1716.65	0.6937
1725.53	0.7097
1734.41	0.7278
1743.28	0.7659
1752.16	0.7951
1761.04	0.8192
1769.91	0.8619
1778.79	0.8765
1787.67	0.8962
1796.54	0.9014
1805.42	0.9034
1814.3	0.9039
1823.17	0.9033
1832.05	0.9
1840.93	0.8974
1849.8	0.9052
1858.68	0.9126
1867.56	0.9154
1876.43	0.9119
1885.31	0.9097
1894.19	0.9097
1903.06	0.9114
1911.94	0.9134
1920.82	0.9157
1929.69	0.9183
1938.57	0.9232
1947.45	0.926
1956.32	0.9275
1965.2	0.9289
1974.08	0.9298
1982.95	0.9305
1991.83	0.9313
2000.71	0.9319
2009.58	0.9324
2018.46	0.9332
2027.34	0.9341
2036.21	0.9352
2045.09	0.9356
2053.97	0.9352
2062.84	0.9348
2071.72	0.9335
2080.6	0.9306
2089.47	0.9274
2098.35	0.9242
2107.23	0.9211
2116.1	0.9181
2124.98	0.918
2133.86	0.9195
2142.73	0.9236
2151.61	0.9269
2160.49	0.9261
2169.36	0.9241
2178.24	0.9225
2187.12	0.9208
2195.99	0.9189
2204.87	0.9172
2213.75	0.9161
2222.62	0.9168
2231.5	0.9178
2240.38	0.9187
2249.25	0.9197
2258.13	0.9207
2267.01	0.9229
2275.88	0.9254
2284.76	0.9283
2293.63	0.9305
2302.51	0.932
2311.39	0.9326
2320.26	0.9326
2329.14	0.9316
2338.02	0.9293
2346.89	0.9263
2355.77	0.9227
2364.65	0.9188
2373.52	0.9145
2382.4	0.9102
2391.28	0.9078
2400.15	0.9064
2409.03	0.9065
2417.91	0.9065
2426.78	0.9077
2435.66	0.9093
2444.54	0.9104
2453.41	0.9107
2462.29	0.9048
2471.17	0.8973
2480.04	0.8922
2488.92	0.8908
2497.8	0.8933
2506.67	0.8962
2515.55	0.8979
2524.43	0.8939
2533.3	0.8841
2542.18	0.8723
2551.06	0.8608
2559.93	0.8553
2568.81	0.8572
2577.69	0.8659
2586.56	0.874
2595.44	0.8797
2604.32	0.8835
2613.19	0.8863
2622.07	0.8877
2630.95	0.8881
2639.82	0.8885
2648.7	0.8879
2657.58	0.8866
2666.45	0.8846
2675.33	0.8809
2684.21	0.8774
2693.08	0.8752
2701.96	0.8742
2710.84	0.8738
2719.71	0.8726
2728.59	0.8708
2737.47	0.8658
2746.34	0.8565
2755.22	0.845
2764.1	0.8368
2772.97	0.8311
2781.85	0.8296
2790.73	0.829
2799.6	0.8288
2808.48	0.8282
2817.36	0.827
2826.23	0.8194
2835.11	0.8042
2843.99	0.7811
2852.86	0.7442
2861.74	0.6971
2870.62	0.6703
2879.49	0.6449
2888.37	0.6193
2897.25	0.5962
2906.12	0.4607
2915	0.2986
2923.88	0.2797
2932.75	0.2953
2941.63	0.3212
2950.51	0.328
2959.38	0.2907
2968.26	0.2501
2977.14	0.2098
2986.01	0.1699
2994.89	0.129
3003.77	0.1017
3012.64	0.1495
3021.52	0.2363
3030.4	0.3225
3039.27	0.4083
3048.15	0.4936
3057.03	0.6542
3065.9	0.7819
3074.78	0.7932
3083.66	0.8008
3092.53	0.8052
3101.41	0.8082
3110.29	0.8111
3119.16	0.8141
3128.04	0.817
3136.92	0.8198
3145.79	0.8233
3154.67	0.8279
3163.55	0.8336
3172.42	0.8399
3181.3	0.8537
3190.18	0.8654
3199.05	0.8681
3207.93	0.8691
3216.81	0.8703
3225.68	0.8711
3234.56	0.8715
3243.44	0.8718
3252.31	0.8721
3261.19	0.8738
3270.07	0.8799
3278.94	0.8916
3287.82	0.9067
3296.7	0.9125
3305.57	0.9143
3314.45	0.9161
3323.32	0.9168
3332.2	0.9172
3341.08	0.9176
3349.95	0.9178
3358.83	0.9179
3367.71	0.9179
3376.58	0.918
3385.46	0.9181
3394.34	0.9181
3403.21	0.9182
3412.09	0.9183
3420.97	0.9183
3429.84	0.9184
3438.72	0.9184
3447.6	0.9184
3456.47	0.9184
3465.35	0.9185
3474.23	0.9185
3483.1	0.9187
3491.98	0.9192
3500.86	0.9197
3509.73	0.9202
3518.61	0.9206
3527.49	0.9212
3536.36	0.9221
3545.24	0.9242
3554.12	0.9263
3562.99	0.9284
3571.87	0.9306
3580.75	0.9331
3589.62	0.9358
3598.5	0.9385
3607.38	0.9414
3616.25	0.9442
3625.13	0.9463
3634.01	0.9478
3642.88	0.9493
3651.76	0.9504
3660.64	0.9505
3669.51	0.9505
3678.39	0.9506
3687.27	0.9506
3696.14	0.9506
3705.02	0.9506
3713.9	0.9506
3722.77	0.9505
3731.65	0.9502
3740.53	0.95
3749.4	0.9498
3758.28	0.9496
3767.16	0.9494
3776.03	0.9492
3784.91	0.9491
3793.79	0.9488
3802.66	0.9486
3811.54	0.9484
3820.42	0.948
3829.29	0.9475
3838.17	0.9471
3847.05	0.9466
3855.92	0.9461
3864.8	0.9457
3873.68	0.9452
3882.55	0.9447
3891.43	0.9443
3900.31	0.9438
3909.18	0.9433
3918.06	0.9428
3926.94	0.9424
3935.81	0.9418
3944.69	0.9413
