Infrared Spectrum: 1-Nitrobutane
Formula: C 4 H 9 N O 2
CAS: 627-05-4
State: gas
Instrument: HP-GC/MS/IRD
Origin: NIST Mass Spectrometry Data Center
1/CM	ABSORBANCE
550	0.0007821
562	0.000594
574	0.0010296
586	0.0017523
598	0.0025641
610	0.0032472
622	0.0032967
634	0.002871
646	0.0022968
658	0.0016335
670	0.0011781
682	0.0011088
694	0.0013167
706	0.0020691
718	0.0029799
730	0.0031086
742	0.003069
754	0.0042966
766	0.0041679
778	0.0024354
790	0.0014553
802	0.0009009
814	0.0007326
826	0.0007128
838	0.0012375
850	0.0024849
862	0.0028215
874	0.001782
886	0.0012177
898	0.0013464
910	0.0016137
922	0.0012672
934	0.0006336
946	0.0003366
958	0.0003366
970	0.0002376
982	0.0001881
994	0.0001287
1006	0.0001089
1018	0
1030	5.94e-05
1042	0.0001386
1054	0.0003564
1066	0.0004851
1078	0.0006336
1090	0.0008217
1102	0.0016533
1114	0.003168
1126	0.0038907
1138	0.0031185
1150	0.0021285
1162	0.0016929
1174	0.0017919
1186	0.0025641
1198	0.003762
1210	0.0045342
1222	0.0042966
1234	0.0035046
1246	0.00297
1258	0.0027621
1270	0.0027423
1282	0.0029007
1294	0.0033858
1306	0.0039699
1318	0.004752
1330	0.0067518
1342	0.0107613
1354	0.0167607
1366	0.0253935
1378	0.0314325
1390	0.0245223
1402	0.0103059
1414	0.0068112
1426	0.0091674
1438	0.0135432
1450	0.0146421
1462	0.0113751
1474	0.009009
1486	0.0067716
1498	0.0061182
1510	0.0083061
1522	0.015444
1534	0.0315612
1546	0.0589248
1558	0.0891297
1570	0.099
1582	0.0878427
1594	0.049896
1606	0.020889
1618	0.0077517
1630	0.0033957
1642	0.0019206
1654	0.0012771
1666	0.0009009
1678	0.0006831
1690	0.0005445
1702	0.0004554
1714	0.0003762
1726	0.0003069
1738	0.0002475
1750	0.0002277
1762	0.0001782
1774	0.0001782
1786	0.0001386
1798	0.0001386
1810	0.0001188
1822	0.0001485
1834	0.0001287
1846	0.0001089
1858	7.92e-05
1870	6.93e-05
1882	7.92e-05
1894	7.92e-05
1906	5.94e-05
1918	3.96e-05
1930	4.95e-05
1942	4.95e-05
1954	3.96e-05
1966	3.96e-05
1978	9.9e-06
1990	2.97e-05
2002	3.96e-05
2014	2.97e-05
2026	5.94e-05
2038	6.93e-05
2050	8.91e-05
2062	9.9e-05
2074	6.93e-05
2086	3.96e-05
2098	9.9e-06
2110	2.97e-05
2122	3.96e-05
2134	4.95e-05
2146	4.95e-05
2158	4.95e-05
2170	5.94e-05
2182	7.92e-05
2194	9.9e-05
2206	0.0001287
2218	0.0001683
2230	0.0002574
2242	0.0003762
2254	0.0006336
2266	0.0008217
2278	0.000792
2290	0.0005841
2302	0.000396
2314	0.000297
2326	0.0002277
2338	0.0002079
2350	0.0001683
2362	0.0002178
2374	0.0002079
2386	0.0002079
2398	0.0002277
2410	0.0002574
2422	0.000297
2434	0.0003069
2446	0.0002772
2458	0.0002574
2470	0.0002673
2482	0.0002376
2494	0.0002079
2506	0.0001089
2518	5.94e-05
2530	2.97e-05
2542	2.97e-05
2554	7.92e-05
2566	6.93e-05
2578	6.93e-05
2590	7.92e-05
2602	6.93e-05
2614	5.94e-05
2626	7.92e-05
2638	0.0001188
2650	0.0001485
2662	0.0002376
2674	0.0003366
2686	0.0004059
2698	0.0005148
2710	0.0006534
2722	0.0008811
2734	0.001089
2746	0.0012177
2758	0.0011781
2770	0.0010593
2782	0.0010098
2794	0.0010989
2806	0.0013464
2818	0.0017226
2830	0.0022869
2842	0.0033462
2854	0.0053559
2866	0.0085734
2878	0.0136026
2890	0.0160677
2902	0.015543
2914	0.0163251
2926	0.0202752
2938	0.0265023
2950	0.0315414
2962	0.0363528
2974	0.0394713
2986	0.0293535
2998	0.0144144
3010	0.0077814
3022	0.0051579
3034	0.003663
3046	0.0025443
3058	0.0018018
3070	0.0013563
3082	0.0011286
3094	0.00099
3106	0.000792
3118	0.0006435
3130	0.0005841
3142	0.0005445
3154	0.0004653
3166	0.0004554
3178	0.0004059
3190	0.0003366
3202	0.0003168
3214	0.0002574
3226	0.0001485
3238	9.9e-05
3250	9.9e-05
3262	3.96e-05
3274	5.94e-05
3286	2.97e-05
3298	5.94e-05
3310	3.96e-05
3322	5.94e-05
3334	6.93e-05
3346	0
3358	8.91e-05
3370	1.98e-05
3382	0
3394	7.92e-05
3406	3.96e-05
3418	5.94e-05
3430	8.91e-05
3442	2.97e-05
3454	8.91e-05
3466	0.0001188
3478	7.92e-05
3490	0.0001287
3502	0.0001089
3514	9.9e-05
3526	8.91e-05
3538	0.0001584
3550	0.0001089
3562	2.97e-05
3574	9.9e-05
3586	0.0001287
3598	9.9e-05
3610	0.0001386
3622	0.0001386
3634	0.0002079
3646	0.0001683
3658	0.0001683
3670	0.000198
3682	0.000198
3694	0.0001485
3706	0.0002079
3718	0.0001188
3730	0.0001485
3742	0.0002079
3754	0.0001584
3766	0.0001188
3778	0.0001485
3790	0.0001485
3802	0.0002673
3814	0.0001782
3826	0.0002277
3838	0.0001485
