Infrared Spectrum: ETHYLENE DIMYRISTATE
Formula: C30 H58 O4
CAS: 627-84-9
State: SOLID (MINERAL OIL MULL)
Melting point: 59-66 C
Class: COBLENTZ
Instrument: Not specified, most likely a prism, grating, or hybrid spectrometer.
Sampling: TRANSMISSION
Resolution: 4
Origin: WYANDOTTE CHEMICALS CORP., WYANDOTTE, MICHIGAN, USA
MICROMETERS	TRANSMITTANCE
2.047	0.9
2.08687	0.902
2.12673	0.9
2.1666	0.854
2.20646	0.643
2.24633	0.661
2.28619	0.666
2.32606	0.661
2.36592	0.699
2.40579	0.772
2.44566	0.802
2.48552	0.822
2.52539	0.825
2.56525	0.839
2.60512	0.85
2.64498	0.864
2.68485	0.86
2.72471	0.85
2.76458	0.847
2.80445	0.864
2.84431	0.85
2.88418	0.771
2.92404	0.809
2.96391	0.827
3.00377	0.829
3.04364	0.835
3.08351	0.839
3.12337	0.804
3.16324	0.782
3.2031	0.771
3.24297	0.661
3.28283	0.525
3.3227	0.189
3.36256	0.028
3.40243	0.028
3.4423	0.028
3.48216	0.029
3.52203	0.041
3.56189	0.185
3.60176	0.414
3.64162	0.548
3.68149	0.53
3.72135	0.628
3.76122	0.605
3.80109	0.61
3.84095	0.668
3.88082	0.716
3.92068	0.776
3.96055	0.835
4.00041	0.859
4.04028	0.868
4.08014	0.888
4.12001	0.895
4.15988	0.893
4.19974	0.89
4.23961	0.882
4.27947	0.882
4.31934	0.878
4.3592	0.875
4.39907	0.89
4.43894	0.895
4.4788	0.91
4.51867	0.923
4.55853	0.933
4.5984	0.938
4.63826	0.94
4.67813	0.945
4.71799	0.941
4.75786	0.953
4.79773	0.965
4.83759	0.963
4.87746	0.96
4.91732	0.956
4.95719	0.955
4.99705	0.943
5.03692	0.945
5.07678	0.951
5.11665	0.956
5.15652	0.963
5.19638	0.956
5.23625	0.968
5.27611	0.953
5.31598	0.922
5.35584	0.94
5.39571	0.928
5.43557	0.91
5.47544	0.897
5.51531	0.847
5.55517	0.766
5.59504	0.711
5.6349	0.459
5.67477	0.426
5.71463	0.155
5.7545	0.033
5.79437	0.131
5.83423	0.247
5.8741	0.363
5.91396	0.538
5.95383	0.618
5.99369	0.679
6.03356	0.723
6.07342	0.757
6.11329	0.777
6.15316	0.791
6.19302	0.797
6.23289	0.797
6.27275	0.819
6.31262	0.817
6.35248	0.81
6.39235	0.815
6.43221	0.804
6.47208	0.791
6.51195	0.771
6.55181	0.759
6.59168	0.731
6.63154	0.663
6.67141	0.582
6.71127	0.323
6.75114	0.089
6.791	0.028
6.83087	0.034
6.87074	0.043
6.9106	0.116
6.95047	0.21
6.99033	0.202
7.0302	0.341
7.07006	0.164
7.10993	0.422
7.1498	0.323
7.18966	0.121
7.22953	0.079
7.26939	0.082
7.30926	0.159
7.34912	0.306
7.38899	0.359
7.42885	0.401
7.46872	0.364
7.50859	0.487
7.54845	0.538
7.58832	0.545
7.62818	0.459
7.66805	0.411
7.70791	0.517
7.74778	0.52
7.78764	0.353
7.82751	0.344
7.86738	0.369
7.90724	0.469
7.94711	0.505
7.98697	0.426
8.02684	0.567
8.0667	0.562
8.10657	0.495
8.14643	0.295
8.1863	0.494
8.22617	0.56
8.26603	0.484
8.3059	0.2
8.34576	0.24
8.38563	0.429
8.42549	0.194
8.46536	0.081
8.50523	0.276
8.54509	0.399
8.58496	0.461
8.62482	0.492
8.66469	0.5
8.70455	0.5
8.74442	0.522
8.78428	0.606
8.82415	0.64
8.86402	0.626
8.90388	0.601
8.94375	0.54
8.98361	0.658
9.02348	0.698
9.06334	0.698
9.10321	0.598
9.14307	0.625
9.18294	0.676
9.22281	0.699
9.26267	0.704
9.30254	0.703
9.3424	0.688
9.38227	0.65
9.42213	0.626
9.462	0.575
9.50186	0.665
9.54173	0.693
9.5816	0.635
9.62146	0.615
9.66133	0.656
9.70119	0.608
9.74106	0.65
9.78092	0.671
9.82079	0.593
9.86066	0.439
9.90052	0.437
9.94039	0.598
9.98025	0.578
10.0201	0.527
10.06	0.353
10.0998	0.245
10.1397	0.436
10.1796	0.553
10.2194	0.6
10.2593	0.529
10.2992	0.489
10.339	0.608
10.3789	0.655
10.4188	0.681
10.4586	0.688
10.4985	0.681
10.5384	0.699
10.5782	0.719
10.6181	0.723
10.658	0.726
10.6978	0.721
10.7377	0.716
10.7776	0.719
10.8174	0.721
10.8573	0.719
10.8972	0.669
10.937	0.618
10.9769	0.613
11.0168	0.59
11.0566	0.472
11.0965	0.348
11.1364	0.2
11.1762	0.092
11.2161	0.22
11.256	0.484
11.2958	0.625
11.3357	0.696
11.3755	0.733
11.4154	0.752
11.4553	0.767
11.4951	0.764
11.535	0.761
11.5749	0.769
11.6147	0.762
11.6546	0.694
11.6945	0.668
11.7343	0.731
11.7742	0.756
11.8141	0.761
11.8539	0.772
11.8938	0.777
11.9337	0.789
11.9735	0.787
12.0134	0.791
12.0533	0.797
12.0931	0.797
12.133	0.792
12.1729	0.777
12.2127	0.746
12.2526	0.621
12.2925	0.436
12.3323	0.394
12.3722	0.653
12.4121	0.757
12.4519	0.787
12.4918	0.8
12.5316	0.802
12.5715	0.787
12.6114	0.741
12.6512	0.716
12.6911	0.747
12.731	0.779
12.7708	0.751
12.8107	0.64
12.8506	0.502
12.8904	0.603
12.9303	0.729
12.9702	0.759
13.01	0.764
13.0499	0.761
13.0898	0.749
13.1296	0.737
13.1695	0.713
13.2094	0.606
13.2492	0.454
13.2891	0.29
13.329	0.33
13.3688	0.462
13.4087	0.6
13.4486	0.601
13.4884	0.525
13.5283	0.416
13.5682	0.339
13.608	0.29
13.6479	0.197
13.6878	0.101
13.7276	0.077
13.7675	0.102
13.8073	0.144
13.8472	0.169
13.8871	0.164
13.9269	0.121
13.9668	0.142
14.0067	0.308
14.0465	0.447
14.0864	0.54
14.1263	0.58
14.1661	0.605
14.206	0.603
14.2459	0.6
14.2857	0.568
14.3256	0.538
14.3655	0.5
14.4053	0.467
14.4452	0.456
14.4851	0.466
14.5249	0.51
14.5648	0.557
14.6047	0.605
14.6445	0.645
14.6844	0.681
14.7243	0.703
14.7641	0.726
14.804	0.741
14.8439	0.747
14.8837	0.767
14.9236	0.767
14.9635	0.769
15.0033	0.759
15.0432	0.739
15.083	0.731
15.1229	0.749
15.1628	0.766
15.2026	0.771
15.2425	0.769
15.2824	0.759
15.3222	0.752
15.3621	0.751
15.402	0.744
15.4418	0.741
15.4817	0.739
15.5216	0.734
15.5614	0.733
15.6013	0.731
15.6412	0.728
15.681	0.723
15.7209	0.719
15.7608	0.716
15.8006	0.711
15.8405	0.706
15.8804	0.698
15.9202	0.696
15.9601	0.691
16	0.689
