Infrared Spectrum: URACIL, 5-AMINO-6-METHYL-
Formula: C5 H7 N3 O2
CAS: 6270-46-8
State: SOLID (SPLIT MULL)
Class: COBLENTZ III
Instrument: DOW KBr FOREPRISM-GRATING
Instrument parameters: BLAZED AT 3.5, 12.0, 20.0 MICRON AND CHANGED AT 5.0, 7.5, 14.9 MICRON
Sampling: TRANSMISSION
Resolution: 2
Origin: DOW CHEMICAL COMPANY
1/CM	TRANSMITTANCE
384	0.601
393	0.5982
402	0.5935
411	0.6048
420	0.6231
429	0.6496
438	0.7078
447	0.7575
456	0.7836
465	0.7776
474	0.6708
483	0.4577
492	0.7915
501	0.7694
510	0.7192
519	0.3245
528	0.2448
537	0.5959
546	0.7628
555	0.8157
564	0.834
573	0.842
582	0.85
591	0.8528
600	0.8513
609	0.8466
618	0.7951
627	0.6302
636	0.8158
645	0.8231
654	0.7985
663	0.7878
672	0.7458
681	0.7121
690	0.6751
699	0.6578
708	0.6496
717	0.6299
726	0.6247
735	0.6586
744	0.6451
753	0.5652
762	0.4542
771	0.6048
780	0.611
789	0.4541
798	0.4152
807	0.5616
816	0.5628
825	0.5165
834	0.5506
843	0.6136
852	0.617
861	0.5766
870	0.527
879	0.5451
888	0.521
897	0.5721
906	0.6607
915	0.7125
924	0.6994
933	0.6581
942	0.6108
951	0.6558
960	0.7008
969	0.7051
978	0.705
987	0.6993
996	0.7781
1005	0.7838
1014	0.79
1023	0.7868
1032	0.7678
1041	0.7754
1050	0.7708
1059	0.7369
1068	0.7415
1077	0.7276
1086	0.7534
1095	0.7853
1104	0.7904
1113	0.7762
1122	0.7165
1131	0.758
1140	0.7684
1149	0.7443
1158	0.7348
1167	0.7328
1176	0.7248
1185	0.7075
1194	0.6924
1203	0.6669
1212	0.629
1221	0.5145
1230	0.5438
1239	0.4624
1248	0.4457
1257	0.3397
1266	0.3314
1275	0.284
1284	0.4499
1293	0.6298
1302	0.6174
1311	0.6009
1320	0.6093
1329	0.5524
1338	0.4822
1347	0.4607
1356	0.5832
1365	0.5917
1374	0.5681
1383	0.4871
1392	0.3837
1401	0.2492
1410	0.1941
1419	0.2727
1428	0.5784
1437	0.5912
1446	0.5575
1455	0.58
1464	0.4967
1473	0.5508
1482	0.624
1491	0.6104
1500	0.5065
1509	0.5605
1518	0.5883
1527	0.6156
1536	0.5965
1545	0.556
1554	0.5098
1563	0.4662
1572	0.4096
1581	0.3194
1590	0.2559
1599	0.2184
1608	0.2449
1617	0.3121
1626	0.2863
1635	0.2227
1644	0.149
1653	0.1018
1662	0.0981
1671	0.1208
1680	0.1894
1689	0.3382
1698	0.2627
1707	0.1686
1716	0.1744
1725	0.4107
1734	0.6054
1743	0.7131
1752	0.7899
1761	0.8196
1770	0.8532
1779	0.8789
1788	0.8944
1797	0.9081
1806	0.9206
1815	0.9267
1824	0.9278
1833	0.9257
1842	0.921
1851	0.9155
1860	0.9103
1869	0.9053
1878	0.9163
1887	0.9214
1896	0.9182
1905	0.914
1914	0.9101
1923	0.9059
1932	0.901
1941	0.8973
1950	0.8949
1959	0.8924
1968	0.8785
1977	0.873
1986	0.8702
1995	0.8681
2004	0.8725
2013	0.8721
2022	0.8699
2031	0.8677
2040	0.8654
2049	0.8636
2058	0.8614
2067	0.8607
2076	0.8625
2085	0.8638
2094	0.8616
2103	0.8581
2112	0.8544
2121	0.8504
2130	0.8459
2139	0.8408
2148	0.8353
2157	0.83
2166	0.8247
2175	0.8188
2184	0.813
2193	0.8071
2202	0.8003
2211	0.7932
2220	0.786
2229	0.7788
2238	0.7711
2247	0.7634
2256	0.7544
2265	0.7451
2274	0.7367
2283	0.7285
2292	0.7214
2301	0.7151
2310	0.7096
2319	0.7058
2328	0.7058
2337	0.7064
2346	0.7075
2355	0.7083
2364	0.7087
2373	0.7058
2382	0.6961
2391	0.6903
2400	0.6874
2409	0.6849
2418	0.6825
2427	0.6799
2436	0.6768
2445	0.6725
2454	0.6645
2463	0.6569
2472	0.6537
2481	0.6535
2490	0.6533
2499	0.6514
2508	0.6451
2517	0.6376
2526	0.6301
2535	0.6225
2544	0.615
2553	0.6074
2562	0.5999
2571	0.5924
2580	0.5856
2589	0.5781
2598	0.5708
2607	0.5656
2616	0.5633
2625	0.5592
2634	0.5489
2643	0.5388
2652	0.5294
2661	0.5197
2670	0.5098
2679	0.5004
2688	0.493
2697	0.4846
2706	0.4755
2715	0.4656
2724	0.454
2733	0.4394
2742	0.4223
2751	0.4062
2760	0.391
2769	0.376
2778	0.3499
2787	0.3234
2796	0.3214
2805	0.3252
2814	0.33
2823	0.3259
2832	0.317
2841	0.3084
2850	0.3065
2859	0.3079
2868	0.3055
2877	0.2909
2886	0.2784
2895	0.2713
2904	0.2679
2913	0.264
2922	0.2576
2931	0.251
2940	0.2447
2949	0.2384
2958	0.2322
2967	0.226
2976	0.2201
2985	0.2155
2994	0.2109
3003	0.2065
3012	0.2039
3021	0.2019
3030	0.2004
3039	0.1993
3048	0.2016
3057	0.2228
3066	0.2494
3075	0.2574
3084	0.2589
3093	0.2573
3102	0.2525
3111	0.2434
3120	0.2284
3129	0.2167
3138	0.2173
3147	0.2252
3156	0.2381
3165	0.258
3174	0.2991
3183	0.3296
3192	0.36
3201	0.3905
3210	0.421
3219	0.4515
3228	0.482
3237	0.5187
3246	0.5515
3255	0.5792
3264	0.5866
3273	0.5901
3282	0.616
3291	0.6348
3300	0.6351
3309	0.6264
3318	0.5786
3327	0.4865
3336	0.6686
3345	0.7471
3354	0.7545
3363	0.7411
3372	0.7193
3381	0.6946
3390	0.6203
3399	0.6224
3408	0.7665
3417	0.7703
3426	0.7687
3435	0.7607
3444	0.7462
3453	0.7225
3462	0.7098
3471	0.7472
3480	0.7547
3489	0.7483
3498	0.7392
3507	0.7268
3516	0.7078
3525	0.6785
3534	0.6801
3543	0.7349
3552	0.7534
3561	0.765
3570	0.7707
3579	0.7724
3588	0.7711
3597	0.7692
3606	0.7667
3615	0.7647
3624	0.7625
3633	0.76
3642	0.7575
3651	0.755
3660	0.7517
3669	0.7478
3678	0.7415
3687	0.7336
3696	0.7364
3705	0.7392
3714	0.7348
3723	0.7305
3732	0.7264
3741	0.7228
3750	0.7196
3759	0.7165
3768	0.7135
3777	0.7101
3786	0.7067
3795	0.7033
