Infrared Spectrum: 2-FURFURYL ETHYL ETHER
Formula: C7 H10 O2
CAS: 6270-56-0
State: SOLUTION (10% CCl4 FOR 5000-1330, 10% CS2 FOR 1330-625 CM^-^1)
Class: COBLENTZ
Instrument: Not specified, most likely a prism, grating, or hybrid spectrometer.
Sampling: TRANSMISSION
Path length: 0.0119 CM, 0.0112 CM
Resolution: 4
Origin: DOW CHEMICAL COMPANY
MICROMETERS	TRANSMITTANCE
2.055	0.902
2.09614	0.9
2.13727	0.9
2.17841	0.897
2.21954	0.885
2.26068	0.88
2.30181	0.887
2.34295	0.89
2.38409	0.888
2.42522	0.88
2.46636	0.88
2.50749	0.892
2.54863	0.897
2.58977	0.9
2.6309	0.904
2.67204	0.897
2.71317	0.9
2.75431	0.883
2.79544	0.888
2.83658	0.878
2.87772	0.88
2.91885	0.892
2.95999	0.899
3.00112	0.9
3.04226	0.895
3.08339	0.883
3.12453	0.873
3.16567	0.847
3.2068	0.849
3.24794	0.868
3.28907	0.83
3.33021	0.511
3.37134	0.434
3.41248	0.391
3.45362	0.251
3.49475	0.338
3.53589	0.683
3.57702	0.747
3.61816	0.806
3.6593	0.837
3.70043	0.87
3.74157	0.883
3.7827	0.883
3.82384	0.887
3.86497	0.9
3.90611	0.909
3.94725	0.912
3.98838	0.914
4.02952	0.909
4.07065	0.904
4.11179	0.904
4.15292	0.907
4.19406	0.899
4.2352	0.892
4.27633	0.894
4.31747	0.892
4.3586	0.897
4.39974	0.904
4.44087	0.9
4.48201	0.9
4.52315	0.909
4.56428	0.912
4.60542	0.914
4.64655	0.914
4.68769	0.912
4.72883	0.907
4.76996	0.895
4.8111	0.9
4.85223	0.907
4.89337	0.912
4.9345	0.902
4.97564	0.895
5.01678	0.892
5.05791	0.904
5.09905	0.904
5.14018	0.894
5.18132	0.897
5.22245	0.907
5.26359	0.914
5.30473	0.917
5.34586	0.917
5.387	0.916
5.42813	0.914
5.46927	0.919
5.51041	0.916
5.55154	0.916
5.59268	0.917
5.63381	0.916
5.67495	0.909
5.71608	0.9
5.75722	0.882
5.79836	0.858
5.83949	0.859
5.88063	0.88
5.92176	0.878
5.9629	0.858
6.00403	0.858
6.04517	0.88
6.08631	0.873
6.12744	0.834
6.16858	0.765
6.20971	0.627
6.25085	0.601
6.29198	0.598
6.33312	0.584
6.37426	0.533
6.41539	0.466
6.45653	0.444
6.49766	0.552
6.5388	0.598
6.57994	0.594
6.62107	0.451
6.66221	0.452
6.70334	0.629
6.74448	0.668
6.78561	0.692
6.82675	0.642
6.86789	0.577
6.90902	0.524
6.95016	0.685
6.99129	0.764
7.03243	0.738
7.07356	0.707
7.1147	0.642
7.15584	0.567
7.19697	0.567
7.23811	0.547
7.27924	0.456
7.32038	0.531
7.36151	0.376
7.40265	0.37
7.44379	0.723
7.48492	0.82
7.52606	0.851
7.56719	0.864
7.60833	0.864
7.64947	0.834
7.6906	0.769
7.73174	0.692
7.77287	0.615
7.81401	0.629
7.85514	0.651
7.89628	0.687
7.93742	0.776
7.97855	0.801
8.01969	0.803
8.06082	0.776
8.10196	0.666
8.14309	0.499
8.18423	0.446
8.22537	0.632
8.2665	0.711
8.30764	0.735
8.34877	0.753
8.38991	0.762
8.43105	0.748
8.47218	0.666
8.51332	0.572
8.55445	0.528
8.59559	0.495
8.63672	0.333
8.67786	0.09
8.719	0.193
8.76013	0.41
8.80127	0.531
8.8424	0.461
8.88354	0.305
8.92467	0.2
8.96581	0.15
9.00695	0.097
9.04808	0.071
9.08922	0.037
9.13035	0.022
9.17149	0.027
9.21262	0.07
9.25376	0.124
9.2949	0.193
9.33603	0.285
9.37717	0.333
9.4183	0.41
9.45944	0.577
9.50058	0.656
9.54171	0.702
9.58285	0.723
9.62398	0.719
9.66512	0.7
9.70625	0.658
9.74739	0.593
9.78853	0.49
9.82966	0.232
9.8708	0.123
9.91193	0.188
9.95307	0.28
9.9942	0.391
10.0353	0.524
10.0765	0.584
10.1176	0.605
10.1587	0.601
10.1999	0.598
10.241	0.623
10.2822	0.676
10.3233	0.736
10.3644	0.789
10.4056	0.823
10.4467	0.842
10.4878	0.851
10.529	0.847
10.5701	0.825
10.6112	0.789
10.6524	0.769
10.6935	0.733
10.7346	0.675
10.7758	0.576
10.8169	0.396
10.8581	0.213
10.8992	0.223
10.9403	0.413
10.9815	0.582
11.0226	0.673
11.0637	0.712
11.1049	0.712
11.146	0.678
11.1871	0.63
11.2283	0.581
11.2694	0.494
11.3105	0.425
11.3517	0.589
11.3928	0.635
11.434	0.651
11.4751	0.659
11.5162	0.659
11.5574	0.644
11.5985	0.618
11.6396	0.588
11.6808	0.582
11.7219	0.596
11.763	0.589
11.8042	0.567
11.8453	0.562
11.8865	0.606
11.9276	0.652
11.9687	0.68
12.0099	0.695
12.051	0.712
12.0921	0.717
12.1333	0.711
12.1744	0.685
12.2155	0.641
12.2567	0.584
12.2978	0.502
12.3389	0.36
12.3801	0.222
12.4212	0.198
12.4624	0.294
12.5035	0.4
12.5446	0.517
12.5858	0.588
12.6269	0.651
12.668	0.682
12.7092	0.702
12.7503	0.712
12.7914	0.723
12.8326	0.731
12.8737	0.733
12.9148	0.731
12.956	0.721
12.9971	0.704
13.0383	0.683
13.0794	0.656
13.1205	0.625
13.1617	0.567
13.2028	0.488
13.2439	0.415
13.2851	0.287
13.3262	0.177
13.3673	0.123
13.4085	0.123
13.4496	0.14
13.4907	0.133
13.5319	0.082
13.573	0.035
13.6142	0.001
13.6553	0.005
13.6964	0.029
13.7376	0.082
13.7787	0.17
13.8198	0.278
13.861	0.379
13.9021	0.471
13.9432	0.543
13.9844	0.582
14.0255	0.601
14.0666	0.627
14.1078	0.641
14.1489	0.649
14.1901	0.656
14.2312	0.659
14.2723	0.661
14.3135	0.661
14.3546	0.663
14.3957	0.659
14.4369	0.658
14.478	0.656
14.5191	0.652
14.5603	0.649
14.6014	0.646
14.6425	0.637
14.6837	0.632
14.7248	0.625
14.766	0.615
14.8071	0.608
14.8482	0.603
14.8894	0.593
14.9305	0.579
14.9716	0.574
15.0128	0.572
15.0539	0.56
15.095	0.55
15.1362	0.538
15.1773	0.528
15.2184	0.512
15.2596	0.5
15.3007	0.49
15.3419	0.483
15.383	0.473
15.4241	0.464
15.4653	0.452
15.5064	0.444
15.5475	0.437
15.5887	0.43
15.6298	0.423
15.6709	0.418
15.7121	0.41
15.7532	0.403
15.7943	0.4
15.8355	0.393
15.8766	0.388
