Infrared Spectrum: 4-(2,3-Epoxypropyl)morpholine
Formula: C 7 H 13 N O 2
CAS: 6270-19-5
State: gas
Origin: EPA-IR VAPOR PHASE LIBRARY
1/CM	ABSORBANCE
549.8	0.0004033
559.445	0.0010833
569.09	0.0006935
578.734	0.000717
588.379	0.00028546
598.024	0.0005587
607.669	0.0009564
617.313	0.003106
626.958	0.006926
636.603	0.005826
646.248	0.002296
655.893	0.001836
665.537	0.001226
675.182	0.0009035
684.827	0.0007232
694.472	0.0007257
704.116	0.0007583
713.761	0.0010647
723.406	0.001123
733.051	0.002256
742.695	0.003586
752.34	0.005876
761.985	0.009606
771.63	0.012616
781.275	0.011276
790.919	0.011576
800.564	0.013686
810.209	0.016096
819.854	0.017406
829.498	0.022376
839.143	0.031976
848.788	0.033516
858.433	0.035916
868.078	0.046676
877.722	0.035876
887.367	0.019716
897.012	0.021686
906.657	0.028816
916.301	0.033936
925.946	0.033806
935.591	0.023766
945.236	0.012496
954.88	0.008916
964.525	0.010476
974.17	0.012556
983.815	0.012566
993.46	0.016116
1003.1	0.035806
1012.75	0.045136
1022.39	0.025796
1032.04	0.013986
1041.68	0.009756
1051.33	0.008396
1060.97	0.010756
1070.62	0.014966
1080.26	0.016286
1089.91	0.017676
1099.55	0.032986
1109.2	0.070136
1118.84	0.120506
1128.49	0.138146
1138.13	0.114636
1147.78	0.083806
1157.42	0.042526
1167.07	0.017866
1176.71	0.011486
1186.36	0.008556
1196	0.007246
1205.64	0.007936
1215.29	0.007576
1224.93	0.008826
1234.58	0.013176
1244.22	0.017306
1253.87	0.021186
1263.51	0.025606
1273.16	0.028526
1282.8	0.031776
1292.45	0.033586
1302.09	0.027116
1311.74	0.023236
1321.38	0.029756
1331.03	0.032866
1340.67	0.027546
1350.32	0.021776
1359.96	0.015606
1369.61	0.014106
1379.25	0.013346
1388.9	0.011576
1398.54	0.009266
1408.18	0.007246
1417.83	0.007176
1427.47	0.009076
1437.12	0.014026
1446.76	0.023086
1456.41	0.028746
1466.05	0.021056
1475.7	0.011776
1485.34	0.007456
1494.99	0.004776
1504.63	0.002786
1514.28	0.002126
1523.92	0.002106
1533.57	0.002066
1543.21	0.001866
1552.86	0.001526
1562.5	0.001286
1572.15	0.0010924
1581.79	0.0011558
1591.44	0.0010077
1601.08	0.001039
1610.73	0.0011208
1620.37	0.0009987
1630.01	0.0009992
1639.66	0.000962
1649.3	0.0009143
1658.95	0.000779
1668.59	0.0008691
1678.24	0.0009357
1687.88	0.0009153
1697.53	0.0008887
1707.17	0.0009966
1716.82	0.0010652
1726.46	0.001206
1736.11	0.0011405
1745.75	0.0009507
1755.4	0.0008764
1765.04	0.0008718
1774.69	0.0008262
1784.33	0.0007658
1793.98	0.0007227
1803.62	0.0007357
1813.27	0.0005785
1822.91	0.000618
1832.55	0.0006684
1842.2	0.000688
1851.84	0.0007162
1861.49	0.0007779
1871.13	0.0009347
1880.78	0.0009716
1890.42	0.0011522
1900.07	0.001356
1909.71	0.001536
1919.36	0.001796
1929	0.002066
1938.65	0.002046
1948.29	0.001936
1957.94	0.001976
1967.58	0.002376
1977.23	0.002816
1986.87	0.002746
1996.52	0.002216
2006.16	0.001566
2015.81	0.001316
2025.45	0.001326
2035.1	0.001266
2044.74	0.001246
2054.38	0.0011444
2064.03	0.0010419
2073.67	0.0010443
2083.32	0.001216
2092.96	0.001306
2102.61	0.001256
2112.25	0.001246
2121.9	0.001226
2131.54	0.0011034
2141.19	0.001183
2150.83	0.0011567
2160.48	0.001206
2170.12	0.0011845
2179.77	0.0011442
2189.41	0.0011757
2199.06	0.001206
2208.7	0.001236
2218.35	0.001406
2227.99	0.001676
2237.64	0.002036
2247.28	0.002316
2256.92	0.002176
2266.57	0.002026
2276.21	0.001966
2285.86	0.001946
2295.5	0.001806
2305.15	0.001596
2314.79	0.001396
2324.44	0.0011708
2334.08	0.0010267
2343.73	0.0009575
2353.37	0.0009203
2363.02	0.0010038
2372.66	0.0011022
2382.31	0.001216
2391.95	0.001296
2401.6	0.001256
2411.24	0.0011708
2420.89	0.0011004
2430.53	0.0010598
2440.18	0.0009478
2449.82	0.0010008
2459.47	0.0011738
2469.11	0.001216
2478.75	0.001226
2488.4	0.001236
2498.04	0.001286
2507.69	0.0011807
2517.33	0.001206
2526.98	0.0011668
2536.62	0.001196
2546.27	0.001306
2555.91	0.001546
2565.56	0.001786
2575.2	0.001936
2584.85	0.001846
2594.49	0.001996
2604.14	0.002306
2613.78	0.002626
2623.43	0.002896
2633.07	0.003636
2642.72	0.004736
2652.36	0.005986
2662.01	0.007046
2671.65	0.008346
2681.29	0.010796
2690.94	0.012676
2700.58	0.013346
2710.23	0.012896
2719.87	0.013356
2729.52	0.015866
2739.16	0.020086
2748.81	0.024316
2758.45	0.026666
2768.1	0.028516
2777.74	0.034256
2787.39	0.050006
2797.03	0.074616
2806.68	0.096446
2816.32	0.095196
2825.97	0.074216
2835.61	0.057606
2845.26	0.060236
2854.9	0.087116
2864.55	0.103236
2874.19	0.074846
2883.84	0.053026
2893.48	0.049826
2903.12	0.056956
2912.77	0.064796
2922.41	0.076106
2932.06	0.082776
2941.7	0.077356
2951.35	0.071036
2960.99	0.092916
2970.64	0.112626
2980.28	0.089156
2989.93	0.049406
2999.57	0.040066
3009.22	0.029096
3018.86	0.017406
3028.51	0.013886
3038.15	0.021136
3047.8	0.030826
3057.44	0.023476
3067.09	0.011056
3076.73	0.004566
3086.38	0.002706
3096.02	0.002046
3105.67	0.001836
3115.31	0.001696
3124.95	0.001466
3134.6	0.0011516
3144.24	0.001002
3153.89	0.0011374
3163.53	0.0008887
3173.18	0.0008818
3182.82	0.0007493
3192.47	0.0008809
3202.11	0.0007111
3211.76	0.0009051
3221.4	0.0009343
3231.05	0.0008865
3240.69	0.0008468
3250.34	0.0007899
3259.98	0.0005971
3269.63	0.000504
3279.27	0.0004621
3288.92	0.0004185
3298.56	0.0005529
3308.21	0.0004877
3317.85	0.0003144
3327.49	0.0003418
3337.14	0.000203765
3346.78	0.0004053
3356.43	0.0004815
3366.07	0.0001742
3375.72	0.0003617
3385.36	0.00021644
3395.01	0.000471
3404.65	0.0003141
3414.3	0.00023108
3423.94	0.0003271
3433.59	0.0003599
3443.23	0.000488
3452.88	0.0006062
3462.52	0.0005419
3472.17	9e-05
3481.81	0.0003957
3491.46	0.00027266
3501.1	0.0003432
3510.75	0.0001655
3520.39	0.00024457
3530.04	0
3539.68	0.0001909
3549.32	0.00025203
3558.97	2.9e-05
3568.61	0.00027961
3578.26	0.0001449
3587.9	0.00026997
3597.55	0.0003447
3607.19	0.0004486
3616.84	0.00027248
3626.48	0.00028386
3636.13	0.0003716
3645.77	0.00023185
3655.42	0.0001257
3665.06	0.0003723
3674.71	0.0004085
3684.35	0.0004663
3694	0.0003751
3703.64	0.0001692
3713.29	0.0005813
3722.93	0.0005202
3732.58	0.0005671
3742.22	0.0006414
3751.86	0.0006833
3761.51	0.0008871
3771.15	0.0009421
3780.8	0.0008585
3790.44	0.0007183
3800.09	0.000818
3809.73	0.0008441
3819.38	0.0010333
3829.02	0.0008311
3838.67	0.0008696
3848.31	0.0010591
3857.96	0.0010425
3867.6	0.0009974
3877.25	0.0009452
3886.89	0.0006678
3896.54	0.0009296
3906.18	0.0009261
3915.83	0.0011237
3925.47	0.0011625
3935.12	0.0010494
3944.76	0.0011828
3954.41	0.001306
3964.05	0.001446
3973.69	0.001656
3983.34	0.001456
3992.98	0.001476
