Infrared Spectrum: p-Pentyloxycinnamic acid
Formula: C 14 H 18 O 3
CAS: 62718-63-2
State: gas
Origin: EPA-IR VAPOR PHASE LIBRARY
1/CM	ABSORBANCE
549.8	0.003906
559.445	0.005116
569.09	0.005856
578.734	0.004996
588.379	0.003026
598.024	0.001546
607.669	0.0011365
617.313	0.001426
626.958	0.002616
636.603	0.002196
646.248	0.001916
655.893	0.0008785
665.537	0.0009701
675.182	0.000675
684.827	0.001566
694.472	0.0013476
704.116	0.0008673
713.761	0.0011376
723.406	0.001061
733.051	0.001946
742.695	0.001726
752.34	0.001516
761.985	0.0012826
771.63	0.0007256
781.275	0.0013914
790.919	0.0007242
800.564	0.0013917
810.209	0.002136
819.854	0.003006
829.498	0.004286
839.143	0.002616
848.788	0.002406
858.433	0.001466
868.078	0.001456
877.722	0.0012633
887.367	0.0013926
897.012	0.001916
906.657	0.0013759
916.301	0.001404
925.946	0.001646
935.591	0.001806
945.236	0.001976
954.88	0.001506
964.525	0.001816
974.17	0.003296
983.815	0.003866
993.46	0.003596
1003.1	0.003746
1012.75	0.003086
1022.39	0.003796
1032.04	0.004566
1041.68	0.004076
1051.33	0.003326
1060.97	0.002666
1070.62	0.002366
1080.26	0.002426
1089.91	0.004386
1099.55	0.008106
1109.2	0.019476
1118.84	0.021756
1128.49	0.009566
1138.13	0.007016
1147.78	0.011086
1157.42	0.012556
1167.07	0.008776
1176.71	0.009636
1186.36	0.004956
1196	0.004546
1205.64	0.005196
1215.29	0.006576
1224.93	0.009476
1234.58	0.013916
1244.22	0.017406
1253.87	0.015806
1263.51	0.010076
1273.16	0.007646
1282.8	0.006636
1292.45	0.007176
1302.09	0.005956
1311.74	0.004466
1321.38	0.003586
1331.03	0.002986
1340.67	0.003536
1350.32	0.005156
1359.96	0.005546
1369.61	0.003376
1379.25	0.002706
1388.9	0.002726
1398.54	0.001906
1408.18	0.001866
1417.83	0.002846
1427.47	0.002116
1437.12	0.001686
1446.76	0.001856
1456.41	0.002196
1466.05	0.002686
1475.7	0.003706
1485.34	0.002876
1494.99	0.004366
1504.63	0.011126
1514.28	0.012396
1523.92	0.003066
1533.57	0.001716
1543.21	0.001656
1552.86	0.0013484
1562.5	0.001926
1572.15	0.002846
1581.79	0.003556
1591.44	0.005746
1601.08	0.011836
1610.73	0.009346
1620.37	0.004556
1630.01	0.006486
1639.66	0.008786
1649.3	0.003656
1658.95	0.001806
1668.59	0.001466
1678.24	0.0012379
1687.88	0.0013988
1697.53	0.001716
1707.17	0.002316
1716.82	0.002926
1726.46	0.004546
1736.11	0.008316
1745.75	0.019126
1755.4	0.023506
1765.04	0.010856
1774.69	0.005186
1784.33	0.003786
1793.98	0.003076
1803.62	0.002036
1813.27	0.0013938
1822.91	0.0011504
1832.55	0.001102
1842.2	0.0009359
1851.84	0.0007684
1861.49	0.0008859
1871.13	0.0009033
1880.78	0.0007172
1890.42	0.0009065
1900.07	0.0009768
1909.71	0.0007272
1919.36	0.0008029
1929	0.0007481
1938.65	0.0006698
1948.29	0.0007233
1957.94	0.0008167
1967.58	0.0007436
1977.23	0.0006359
1986.87	0.0006468
1996.52	0.0007908
2006.16	0.0006992
2015.81	0.0007436
2025.45	0.000775
2035.1	0.0006851
2044.74	0.0006668
2054.38	0.0007473
2064.03	0.0008065
2073.67	0.0007189
2083.32	0.00059
2092.96	0.0006086
2102.61	0.0007664
2112.25	0.0006044
2121.9	0.0006906
2131.54	0.00051722
2141.19	0.000579
2150.83	0.000537
2160.48	0.000431264
2170.12	0.00047565
2179.77	0.0005978
2189.41	0.00052466
2199.06	0.0005639
2208.7	0.0005371
2218.35	0.0005835
2227.99	0.0006603
2237.64	0.0006759
2247.28	0.0006797
2256.92	0.0005852
2266.57	0.00044522
2276.21	0.0007069
2285.86	0.000715
2295.5	0.000683
2305.15	0.0005299
2314.79	0.0005557
2324.44	0.000733
2334.08	0.0005743
2343.73	0.0007088
2353.37	0.0006622
2363.02	0.0006337
2372.66	0.0005568
2382.31	0.00044783
2391.95	0.000765
2401.6	0.0006574
2411.24	0.00049894
2420.89	0.0007067
2430.53	0.0005271
2440.18	0.00051343
2449.82	0.00042102
2459.47	0.0005481
2469.11	0.0006307
2478.75	0.00046689
2488.4	0.0003962
2498.04	0.0006626
2507.69	0.0006122
2517.33	0.0006932
2526.98	0.0006479
2536.62	0.0007572
2546.27	0.0005765
2555.91	0.0007251
2565.56	0.000671
2575.2	0.0007591
2584.85	0.0006136
2594.49	0.0005445
2604.14	0.0004045
2613.78	0.00044034
2623.43	0.000283
2633.07	0.0006046
2642.72	0.0004544
2652.36	0.0005929
2662.01	0.0007228
2671.65	0.000428895
2681.29	0.0006619
2690.94	0.00051738
2700.58	0.00052234
2710.23	0.0005434
2719.87	0.0008289
2729.52	0.000742
2739.16	0.0007556
2748.81	0.00048538
2758.45	0.00051485
2768.1	0.0008357
2777.74	0.0005882
2787.39	0.0006428
2797.03	0.0005887
2806.68	0.0007438
2816.32	0.0007313
2825.97	0.0009317
2835.61	0.0010836
2845.26	0.001716
2854.9	0.001806
2864.55	0.002636
2874.19	0.003656
2883.84	0.003596
2893.48	0.003226
2903.12	0.002946
2912.77	0.003876
2922.41	0.005046
2932.06	0.006396
2941.7	0.007056
2951.35	0.006716
2960.99	0.006206
2970.64	0.006516
2980.28	0.003606
2989.93	0.002206
2999.57	0.001756
3009.22	0.00124
3018.86	0.0011664
3028.51	0.0012686
3038.15	0.001816
3047.8	0.001706
3057.44	0.0012013
3067.09	0.0011974
3076.73	0.001686
3086.38	0.0012444
3096.02	0.0011576
3105.67	0.0010286
3115.31	0.00044371
3124.95	0.0007917
3134.6	0.0006539
3144.24	0.00047304
3153.89	0.0007466
3163.53	0.0004087
3173.18	0.0007079
3182.82	0.0005626
3192.47	0.000275
3202.11	0.000426532
3211.76	0.000208
3221.4	0.000679
3231.05	0.000397
3240.69	0.0006136
3250.34	0.0005577
3259.98	0.0003525
3269.63	0.00050238
3279.27	0.0008068
3288.92	0.00048008
3298.56	0.00051228
3308.21	0.00048754
3317.85	0.000324
3327.49	0.0005969
3337.14	0.0007245
3346.78	0.000193
3356.43	0.00027
3366.07	0.0008305
3375.72	0.0006131
3385.36	0.00044386
3395.01	0.000377
3404.65	0.0004051
3414.3	0.00025
3423.94	0.0003569
3433.59	0.000895
3443.23	0.00044543
3452.88	0.00046323
3462.52	0.000663
3472.17	0.0006562
3481.81	0.00047598
3491.46	0.0003655
3501.1	0.0010766
3510.75	0.0008064
3520.39	0.000427891
3530.04	0.0006077
3539.68	0.000201
3549.32	0.0006999
3558.97	0.0009755
3568.61	0.001696
3578.26	0.006486
3587.9	0.007786
3597.55	0.001476
3607.19	0.0006912
3616.84	0.00050945
3626.48	0.00047395
3636.13	0.00046263
3645.77	0.0004589
3655.42	0.0004063
3665.06	0.00049073
3674.71	0.000304
3684.35	0.0005825
3694	0.0003742
3703.64	0.0006583
3713.29	0.0004065
3722.93	0.0003397
3732.58	0.00051889
3742.22	0.0006013
3751.86	0.0005491
3761.51	0.0004141
3771.15	0.0007043
3780.8	0.0005602
3790.44	0.0006246
3800.09	0.000256
3809.73	0.000409
3819.38	0.0006474
3829.02	5.8e-05
3838.67	0.0005522
3848.31	0.00052067
3857.96	0.00042093
3867.6	0.0005814
3877.25	0.0005928
3886.89	0.00049795
3896.54	0.0005258
3906.18	0.000248
3915.83	0.0003927
3925.47	0.0006566
3935.12	0.000198
3944.76	0.0003408
3954.41	0.000402
3964.05	0.00048717
3973.69	0.000298
3983.34	0.000321
3992.98	0.00022
