Infrared Spectrum: 1,2-DIPHENYL SULFONYL HYDRAZINE
Formula: C12 H12 N2 O4 S2
CAS: 6272-36-2
State: SOLID (MINERAL OIL MULL)
Class: COBLENTZ
Instrument: Not specified, most likely a prism, grating, or hybrid spectrometer.
Sampling: TRANSMISSION
Resolution: 4
Origin: DOW CHEMICAL COMPANY
MICROMETERS	TRANSMITTANCE
2.033	0.697
2.07312	0.699
2.11323	0.699
2.15335	0.707
2.19346	0.714
2.23358	0.717
2.2737	0.704
2.31381	0.711
2.35393	0.722
2.39404	0.726
2.43416	0.736
2.47428	0.752
2.51439	0.764
2.55451	0.771
2.59462	0.774
2.63474	0.779
2.67486	0.789
2.71497	0.794
2.75509	0.799
2.7952	0.801
2.83532	0.803
2.87544	0.806
2.91555	0.806
2.95567	0.806
2.99578	0.779
3.0359	0.654
3.07602	0.27
3.11613	0.071
3.15625	0.378
3.19636	0.569
3.23648	0.606
3.2766	0.612
3.31671	0.585
3.35683	0.285
3.39694	0.018
3.43706	0.058
3.47718	0.121
3.51729	0.434
3.55741	0.709
3.59752	0.774
3.63764	0.764
3.67776	0.806
3.71787	0.799
3.75799	0.816
3.7981	0.831
3.83822	0.839
3.87834	0.849
3.91845	0.863
3.95857	0.866
3.99868	0.878
4.0388	0.881
4.07892	0.881
4.11903	0.881
4.15915	0.881
4.19926	0.881
4.23938	0.878
4.2795	0.893
4.31961	0.904
4.35973	0.894
4.39985	0.896
4.43996	0.899
4.48008	0.909
4.52019	0.914
4.56031	0.914
4.60043	0.916
4.64054	0.919
4.68066	0.924
4.72077	0.928
4.76089	0.933
4.80101	0.934
4.84112	0.934
4.88124	0.938
4.92135	0.941
4.96147	0.936
5.00159	0.909
5.0417	0.909
5.08182	0.909
5.12193	0.944
5.16205	0.933
5.20217	0.921
5.24228	0.898
5.2824	0.918
5.32251	0.948
5.36263	0.949
5.40275	0.944
5.44286	0.941
5.48298	0.926
5.52309	0.914
5.56321	0.943
5.60333	0.941
5.64344	0.931
5.68356	0.951
5.72367	0.959
5.76379	0.959
5.80391	0.959
5.84402	0.953
5.88414	0.939
5.92425	0.921
5.96437	0.939
6.00449	0.946
6.0446	0.944
6.08472	0.939
6.12483	0.938
6.16495	0.913
6.20507	0.891
6.24518	0.868
6.2853	0.792
6.32541	0.843
6.36553	0.901
6.40565	0.903
6.44576	0.899
6.48588	0.893
6.52599	0.893
6.56611	0.894
6.60623	0.891
6.64634	0.859
6.68646	0.772
6.72657	0.545
6.76669	0.355
6.80681	0.317
6.84692	0.252
6.88704	0.213
6.92715	0.575
6.96727	0.747
7.00739	0.734
7.0475	0.636
7.08762	0.717
7.12773	0.759
7.16785	0.744
7.20797	0.607
7.24808	0.485
7.2882	0.524
7.32831	0.535
7.36843	0.28
7.40855	0.061
7.44866	0.05
7.48878	0.073
7.52889	0.292
7.56901	0.422
7.60913	0.449
7.64924	0.624
7.68936	0.674
7.72947	0.694
7.76959	0.726
7.80971	0.809
7.84982	0.831
7.88994	0.853
7.93005	0.864
7.97017	0.861
8.01029	0.856
8.0504	0.866
8.09052	0.868
8.13063	0.861
8.17075	0.846
8.21087	0.826
8.25098	0.786
8.2911	0.721
8.33121	0.555
8.37133	0.247
8.41145	0.026
8.45156	0.045
8.49168	0.051
8.53179	0.041
8.57191	0.161
8.61203	0.342
8.65214	0.535
8.69226	0.646
8.73237	0.692
8.77249	0.721
8.81261	0.781
8.85272	0.799
8.89284	0.806
8.93295	0.803
8.97307	0.791
9.01319	0.787
9.0533	0.747
9.09342	0.627
9.13354	0.422
9.17365	0.278
9.21377	0.457
9.25388	0.766
9.294	0.782
9.33412	0.701
9.37423	0.719
9.41435	0.818
9.45446	0.856
9.49458	0.876
9.5347	0.884
9.57481	0.898
9.61493	0.896
9.65504	0.893
9.69516	0.856
9.73528	0.769
9.77539	0.811
9.81551	0.849
9.85562	0.859
9.89574	0.873
9.93586	0.873
9.97597	0.814
10.0161	0.752
10.0562	0.816
10.0963	0.883
10.1364	0.893
10.1766	0.896
10.2167	0.893
10.2568	0.881
10.2969	0.853
10.337	0.861
10.3771	0.884
10.4172	0.889
10.4574	0.883
10.4975	0.864
10.5376	0.851
10.5777	0.829
10.6178	0.809
10.6579	0.787
10.6981	0.784
10.7382	0.779
10.7783	0.767
10.8184	0.782
10.8585	0.796
10.8986	0.819
10.9388	0.841
10.9789	0.853
11.019	0.864
11.0591	0.871
11.0992	0.874
11.1393	0.874
11.1795	0.871
11.2196	0.849
11.2597	0.823
11.2998	0.823
11.3399	0.849
11.38	0.871
11.4201	0.884
11.4603	0.893
11.5004	0.896
11.5405	0.898
11.5806	0.901
11.6207	0.904
11.6608	0.909
11.701	0.909
11.7411	0.906
11.7812	0.901
11.8213	0.894
11.8614	0.871
11.9015	0.814
11.9417	0.821
11.9818	0.868
12.0219	0.898
12.062	0.901
12.1021	0.901
12.1422	0.901
12.1824	0.901
12.2225	0.898
12.2626	0.896
12.3027	0.896
12.3428	0.889
12.3829	0.881
12.423	0.863
12.4632	0.839
12.5033	0.824
12.5434	0.824
12.5835	0.828
12.6236	0.821
12.6637	0.809
12.7039	0.799
12.744	0.782
12.7841	0.771
12.8242	0.751
12.8643	0.732
12.9044	0.717
12.9446	0.681
12.9847	0.644
13.0248	0.559
13.0649	0.465
13.105	0.277
13.1451	0.163
13.1853	0.085
13.2254	0.13
13.2655	0.247
13.3056	0.357
13.3457	0.372
13.3858	0.307
13.4259	0.238
13.4661	0.141
13.5062	0.066
13.5463	0.021
13.5864	0.01
13.6265	0.003
13.6666	0.005
13.7068	0.02
13.7469	0.061
13.787	0.14
13.8271	0.222
13.8672	0.317
13.9073	0.417
13.9475	0.485
13.9876	0.545
14.0277	0.584
14.0678	0.602
14.1079	0.612
14.148	0.609
14.1882	0.604
14.2283	0.58
14.2684	0.549
14.3085	0.509
14.3486	0.467
14.3887	0.419
14.4288	0.352
14.469	0.268
14.5091	0.185
14.5492	0.091
14.5893	0.04
14.6294	0.011
14.6695	0.011
14.7097	0.015
14.7498	0.026
14.7899	0.045
14.83	0.066
14.8701	0.095
14.9102	0.12
14.9504	0.165
14.9905	0.208
15.0306	0.268
15.0707	0.295
15.1108	0.315
15.1509	0.333
15.1911	0.352
15.2312	0.368
15.2713	0.382
15.3114	0.397
15.3515	0.404
15.3916	0.415
15.4317	0.42
15.4719	0.425
15.512	0.432
15.5521	0.435
15.5922	0.44
15.6323	0.44
15.6724	0.442
15.7126	0.442
15.7527	0.442
15.7928	0.442
15.8329	0.442
15.873	0.445
15.9131	0.442
