Infrared Spectrum: [(3-Hydroxy-2-quinoxalinyl)carbonyl] urea
Formula: C10 H8 N4 O3
CAS: 6275-81-6
State: SOLID (SPLIT MULL)
Class: COBLENTZ III
Instrument: DOW KBr FOREPRISM-GRATING
Instrument parameters: BLAZED AT 3.5, 12.0, 20.0 MICRON AND CHANGED AT 5.0, 7.5, 14.9 MICRON
Sampling: TRANSMISSION
Resolution: 2
Origin: DOW CHEMICAL COMPANY
1/CM	TRANSMITTANCE
3800	0.8165
3791	0.8175
3782	0.8188
3773	0.82
3764	0.8214
3755	0.8227
3746	0.8233
3737	0.8238
3728	0.8248
3719	0.8261
3710	0.8275
3701	0.8292
3692	0.8309
3683	0.8321
3674	0.833
3665	0.8344
3656	0.8359
3647	0.8371
3638	0.8385
3629	0.8394
3620	0.8404
3611	0.8418
3602	0.8439
3593	0.8444
3584	0.8442
3575	0.84
3566	0.8412
3557	0.8438
3548	0.8449
3539	0.8453
3530	0.8453
3521	0.8432
3512	0.8399
3503	0.8337
3494	0.8268
3485	0.8155
3476	0.799
3467	0.7688
3458	0.7308
3449	0.6455
3440	0.5808
3431	0.5564
3422	0.5766
3413	0.6114
3404	0.6374
3395	0.6471
3386	0.6102
3377	0.3944
3368	0.4087
3359	0.5523
3350	0.6348
3341	0.6561
3332	0.6578
3323	0.653
3314	0.6496
3305	0.6558
3296	0.6687
3287	0.6818
3278	0.6855
3269	0.6851
3260	0.6838
3251	0.6793
3242	0.67
3233	0.6553
3224	0.6328
3215	0.6097
3206	0.581
3197	0.5405
3188	0.4792
3179	0.4217
3170	0.3749
3161	0.3342
3152	0.319
3143	0.328
3134	0.3382
3125	0.34
3116	0.3354
3107	0.332
3098	0.3582
3089	0.4138
3080	0.4412
3071	0.4476
3062	0.43
3053	0.3908
3044	0.4057
3035	0.454
3026	0.4895
3017	0.4854
3008	0.4894
2999	0.501
2990	0.5218
2981	0.5293
2972	0.5377
2963	0.5735
2954	0.5662
2945	0.5703
2936	0.6134
2927	0.6372
2918	0.6371
2909	0.6023
2900	0.6291
2891	0.6531
2882	0.7011
2873	0.7346
2864	0.7461
2855	0.749
2846	0.7189
2837	0.6918
2828	0.7298
2819	0.758
2810	0.7735
2801	0.7854
2792	0.7943
2783	0.8025
2774	0.81
2765	0.8171
2756	0.8256
2747	0.833
2738	0.8403
2729	0.845
2720	0.845
2711	0.8414
2702	0.839
2693	0.8451
2684	0.8543
2675	0.8548
2666	0.8559
2657	0.8595
2648	0.8678
2639	0.877
2630	0.8841
2621	0.8862
2612	0.8875
2603	0.8913
2594	0.8948
2585	0.8983
2576	0.9018
2567	0.9043
2558	0.9064
2549	0.9084
2540	0.9103
2531	0.9117
2522	0.9137
2513	0.9159
2504	0.9177
2495	0.9184
2486	0.9188
2477	0.9191
2468	0.9209
2459	0.9228
2450	0.9249
2441	0.9267
2432	0.9278
2423	0.9289
2414	0.9301
2405	0.9303
2396	0.9305
2387	0.9306
2378	0.9304
2369	0.9297
2360	0.9289
2351	0.9275
2342	0.9265
2333	0.9259
2324	0.9259
2315	0.9263
2306	0.9274
2297	0.9285
2288	0.9304
2279	0.9328
2270	0.9358
2261	0.9391
2252	0.9425
2243	0.9463
2234	0.95
2225	0.9537
2216	0.957
2207	0.9602
2198	0.9636
2189	0.9661
2180	0.9687
2171	0.9711
2162	0.9735
2153	0.9761
2144	0.9791
2135	0.9815
2126	0.9839
2117	0.9868
2108	0.9897
2099	0.9921
2090	0.9943
2081	0.9955
2072	0.9938
2063	0.992
2054	0.9944
2045	0.9982
2036	1.0017
2027	1.0052
2018	1.0073
2009	1.0065
2000	0.9932
1991	0.9634
1982	0.9823
1973	0.9939
1964	0.997
1955	0.9775
1946	0.9885
1937	0.9965
1928	0.99
1919	0.9749
1910	0.9858
1901	0.9971
1892	0.9999
1883	1.0004
1874	0.9978
1865	0.9941
1856	0.9935
1847	0.9954
1838	0.9968
1829	0.979
1820	0.9808
1811	0.9906
1802	0.9944
1793	0.993
1784	0.987
1775	0.9775
1766	0.9624
1757	0.9434
1748	0.8655
1739	0.827
1730	0.6661
1721	0.2045
1712	0.3429
1703	0.1473
1694	0.0825
1685	0.3179
1676	0.5312
1667	0.4444
1658	0.1217
1649	0.1718
1640	0.229
1631	0.4935
1622	0.6123
1613	0.5087
1604	0.5041
1595	0.4162
1586	0.3859
1577	0.3273
1568	0.2575
1559	0.3941
1550	0.5359
1541	0.5877
1532	0.4837
1523	0.6103
1514	0.436
1505	0.286
1496	0.3984
1487	0.4406
1478	0.4745
1469	0.4698
1460	0.7248
1451	0.7642
1442	0.7334
1433	0.6076
1424	0.4012
1415	0.5956
1406	0.5929
1397	0.4606
1388	0.3709
1379	0.2859
1370	0.3393
1361	0.5362
1352	0.6252
1343	0.6768
1334	0.7267
1325	0.7324
1316	0.7558
1307	0.7803
1298	0.8015
1289	0.7647
1280	0.7357
1271	0.7833
1262	0.8375
1253	0.8293
1244	0.7203
1235	0.7672
1226	0.8327
1217	0.854
1208	0.8588
1199	0.8325
1190	0.6771
1181	0.7639
1172	0.8628
1163	0.8645
1154	0.6096
1145	0.6828
1136	0.7451
1127	0.8081
1118	0.8459
1109	0.8196
1100	0.6775
1091	0.8111
1082	0.8523
1073	0.8797
1064	0.9043
1055	0.9198
1046	0.9305
1037	0.9353
1028	0.9365
1019	0.9358
1010	0.9343
1001	0.9317
992	0.919
983	0.9299
974	0.9038
965	0.8554
956	0.8818
947	0.8867
938	0.8948
929	0.8861
920	0.8467
911	0.7918
902	0.8425
893	0.8653
884	0.8175
875	0.8011
866	0.8524
857	0.8674
848	0.8709
839	0.8287
830	0.6922
821	0.4883
812	0.6172
803	0.7537
794	0.7993
785	0.8288
776	0.4282
767	0.8275
758	0.7786
749	0.9101
740	0.9164
731	0.9057
722	0.8647
713	0.9321
704	0.9491
695	0.9333
686	0.7528
677	0.873
668	0.9174
659	0.9232
650	0.9206
641	0.7274
632	0.6583
623	0.8118
614	0.6811
605	0.6405
596	0.8157
587	0.5294
578	0.8332
569	0.8808
560	0.6109
551	0.7521
542	0.775
533	0.8204
524	0.8581
515	0.8863
506	0.9068
497	0.9239
488	0.9324
479	0.9048
470	0.6642
461	0.7626
452	0.8862
443	0.8943
434	0.8949
425	0.8625
416	0.8181
407	0.8154
398	0.8147
389	0.816
