Infrared Spectrum: P-PHENYLAZO CARBANILIC ACID, ETHYL ESTER
Formula: C15 H15 N3 O2
CAS: 6275-71-4
State: SOLID (1.8 mg / 200 mg KBr)
Melting point: 152-154 C
Class: COBLENTZ
Instrument: Not specified, most likely a grating spectrometer.
Sampling: TRANSMISSION
Resolution: 4
Origin: CITRUS EXPERIMENT STATION, UNIVERSITY OF FLORIDA (G. EDWARDS)
MICROMETERS	TRANSMITTANCE
2.013	0.714
2.04618	0.718
2.07935	0.722
2.11253	0.73
2.1457	0.732
2.17888	0.735
2.21206	0.738
2.24523	0.739
2.27841	0.746
2.31158	0.751
2.34476	0.754
2.37794	0.755
2.41111	0.761
2.44429	0.766
2.47746	0.769
2.51064	0.775
2.54382	0.782
2.57699	0.783
2.61017	0.786
2.64334	0.789
2.67652	0.79
2.7097	0.791
2.74287	0.791
2.77605	0.79
2.80922	0.786
2.8424	0.785
2.87558	0.782
2.90875	0.781
2.94193	0.753
2.9751	0.345
3.00828	0.459
3.04146	0.654
3.07463	0.728
3.10781	0.722
3.14098	0.769
3.17416	0.746
3.20734	0.773
3.24051	0.722
3.27369	0.762
3.30686	0.758
3.34004	0.699
3.37322	0.74
3.40639	0.757
3.43957	0.787
3.47274	0.797
3.50592	0.814
3.5391	0.819
3.57227	0.821
3.60545	0.829
3.63862	0.839
3.6718	0.847
3.70498	0.851
3.73815	0.85
3.77133	0.85
3.8045	0.851
3.83768	0.851
3.87086	0.855
3.90403	0.865
3.93721	0.87
3.97038	0.87
4.00356	0.874
4.03674	0.873
4.06991	0.875
4.10309	0.883
4.13626	0.881
4.16944	0.875
4.20262	0.873
4.23579	0.886
4.26897	0.89
4.30214	0.893
4.33532	0.898
4.3685	0.902
4.40167	0.907
4.43485	0.91
4.46802	0.901
4.5012	0.902
4.53438	0.919
4.56755	0.923
4.60073	0.923
4.6339	0.926
4.66708	0.93
4.70026	0.929
4.73343	0.926
4.76661	0.933
4.79978	0.931
4.83296	0.939
4.86614	0.941
4.89931	0.942
4.93249	0.945
4.96566	0.95
4.99884	0.947
5.03202	0.942
5.06519	0.93
5.09837	0.931
5.13154	0.946
5.16472	0.947
5.1979	0.939
5.23107	0.941
5.26425	0.947
5.29742	0.966
5.3306	0.974
5.36378	0.971
5.39695	0.966
5.43013	0.974
5.4633	0.977
5.49648	0.966
5.52966	0.963
5.56283	0.962
5.59601	0.961
5.62918	0.965
5.66236	0.95
5.69554	0.873
5.72871	0.755
5.76189	0.485
5.79506	0.273
5.82824	0.136
5.86142	0.431
5.89459	0.622
5.92777	0.73
5.96094	0.757
5.99412	0.826
6.0273	0.867
6.06047	0.891
6.09365	0.874
6.12682	0.851
6.16	0.732
6.19317	0.56
6.22635	0.178
6.25953	0.156
6.2927	0.441
6.32588	0.682
6.35905	0.691
6.39223	0.351
6.42541	0.206
6.45858	0.252
6.49176	0.303
6.52493	0.471
6.55811	0.566
6.59129	0.52
6.62446	0.5
6.65764	0.564
6.69081	0.67
6.72399	0.708
6.75717	0.712
6.79034	0.682
6.82352	0.687
6.85669	0.755
6.88987	0.698
6.92305	0.611
6.95622	0.783
6.9894	0.831
7.02257	0.778
7.05575	0.56
7.08893	0.355
7.1221	0.622
7.15528	0.731
7.18845	0.738
7.22163	0.73
7.25481	0.67
7.28798	0.67
7.32116	0.763
7.35433	0.823
7.38751	0.842
7.42069	0.846
7.45386	0.813
7.48704	0.738
7.52021	0.502
7.55339	0.312
7.58657	0.221
7.61974	0.271
7.65292	0.431
7.68609	0.571
7.71927	0.706
7.75245	0.775
7.78562	0.805
7.8188	0.809
7.85197	0.805
7.88515	0.797
7.91833	0.747
7.9515	0.643
7.98468	0.503
8.01785	0.307
8.05103	0.106
8.08421	0.052
8.11738	0.069
8.15056	0.152
8.18373	0.293
8.21691	0.411
8.25009	0.492
8.28326	0.571
8.31644	0.651
8.34961	0.691
8.38279	0.722
8.41597	0.736
8.44914	0.754
8.48232	0.734
8.51549	0.682
8.54867	0.711
8.58185	0.711
8.61502	0.539
8.6482	0.389
8.68137	0.467
8.71455	0.58
8.74773	0.528
8.7809	0.662
8.81408	0.739
8.84725	0.782
8.88043	0.797
8.91361	0.801
8.94678	0.799
8.97996	0.77
9.01313	0.748
9.04631	0.787
9.07949	0.773
9.11266	0.582
9.14584	0.452
9.17901	0.611
9.21219	0.722
9.24537	0.751
9.27854	0.744
9.31172	0.663
9.34489	0.472
9.37807	0.275
9.41125	0.149
9.44442	0.234
9.4776	0.387
9.51077	0.532
9.54395	0.602
9.57713	0.652
9.6103	0.691
9.64348	0.722
9.67665	0.751
9.70983	0.763
9.74301	0.783
9.77618	0.777
9.80936	0.738
9.84253	0.778
9.87571	0.786
9.90889	0.791
9.94206	0.811
9.97524	0.814
10.0084	0.787
10.0416	0.815
10.0748	0.833
10.1079	0.837
10.1411	0.834
10.1743	0.853
10.2075	0.857
10.2406	0.863
10.2738	0.863
10.307	0.857
10.3402	0.829
10.3733	0.818
10.4065	0.853
10.4397	0.862
10.4729	0.858
10.5061	0.855
10.5392	0.866
10.5724	0.881
10.6056	0.883
10.6388	0.883
10.6719	0.878
10.7051	0.87
10.7383	0.835
10.7715	0.81
10.8046	0.827
10.8378	0.838
10.871	0.831
10.9042	0.842
10.9373	0.854
10.9705	0.867
11.0037	0.871
11.0369	0.874
11.07	0.878
11.1032	0.881
11.1364	0.877
11.1696	0.885
11.2027	0.893
11.2359	0.897
11.2691	0.905
11.3023	0.903
11.3355	0.902
11.3686	0.903
11.4018	0.903
11.435	0.902
11.4682	0.895
11.5013	0.89
11.5345	0.887
11.5677	0.881
11.6009	0.873
11.634	0.842
11.6672	0.787
11.7004	0.696
11.7336	0.506
11.7667	0.363
11.7999	0.352
11.8331	0.432
11.8663	0.538
11.8994	0.614
11.9326	0.686
11.9658	0.72
11.999	0.739
12.0321	0.751
12.0653	0.738
12.0985	0.735
12.1317	0.765
12.1649	0.794
12.198	0.823
12.2312	0.835
12.2644	0.849
12.2976	0.855
12.3307	0.859
12.3639	0.865
12.3971	0.867
12.4303	0.855
12.4634	0.846
12.4966	0.814
12.5298	0.783
12.563	0.798
12.5961	0.835
12.6293	0.851
12.6625	0.853
12.6957	0.851
12.7288	0.851
12.762	0.851
12.7952	0.85
12.8284	0.843
12.8615	0.837
12.8947	0.809
12.9279	0.755
12.9611	0.688
12.9943	0.671
13.0274	0.676
13.0606	0.656
13.0938	0.599
13.127	0.493
13.1601	0.463
13.1933	0.544
13.2265	0.654
13.2597	0.72
13.2928	0.763
13.326	0.794
13.3592	0.809
13.3924	0.811
13.4255	0.813
13.4587	0.815
13.4919	0.817
13.5251	0.817
13.5582	0.814
13.5914	0.815
13.6246	0.807
13.6578	0.791
13.6909	0.769
13.7241	0.748
13.7573	0.744
13.7905	0.744
13.8237	0.746
13.8568	0.732
13.89	0.7
13.9232	0.652
13.9564	0.634
13.9895	0.64
14.0227	0.672
14.0559	0.686
14.0891	0.695
14.1222	0.695
14.1554	0.688
14.1886	0.678
14.2218	0.666
14.2549	0.648
14.2881	0.634
14.3213	0.61
14.3545	0.591
14.3876	0.567
14.4208	0.526
14.454	0.461
14.4872	0.404
14.5203	0.357
14.5535	0.361
14.5867	0.397
14.6199	0.448
14.6531	0.495
14.6862	0.528
14.7194	0.552
14.7526	0.582
14.7858	0.594
14.8189	0.6
14.8521	0.61
14.8853	0.622
14.9185	0.63
14.9516	0.631
14.9848	0.635
15.018	0.644
15.0512	0.64
