Infrared Spectrum: 4-METHYL-1,5-BENZO-DIAZEPIN-2-ONE
Formula: C10 H10 N2 O
CAS: 6276-48-8
State: SOLID (KBr PELLET)
Melting point: 148-150 C
Class: COBLENTZ
Instrument: Not specified, most likely a prism, grating, or hybrid spectrometer.
Sampling: TRANSMISSION
Resolution: 4
Origin: TENNESSEE EASTMAN COMPANY, RESEARCH LABORATORIES
MICROMETERS	TRANSMITTANCE
2.034	0.629
2.07486	0.637
2.11571	0.642
2.15657	0.654
2.19742	0.666
2.23828	0.668
2.27913	0.673
2.31999	0.678
2.36084	0.685
2.4017	0.688
2.44256	0.695
2.48341	0.7
2.52427	0.702
2.56512	0.704
2.60598	0.704
2.64683	0.709
2.68769	0.71
2.72854	0.707
2.7694	0.668
2.81026	0.649
2.85111	0.615
2.89197	0.602
2.93282	0.602
2.97368	0.622
3.01453	0.615
3.05539	0.598
3.09624	0.496
3.1371	0.232
3.17796	0.202
3.21881	0.158
3.25967	0.153
3.30052	0.27
3.34138	0.224
3.38223	0.386
3.42309	0.2
3.46394	0.469
3.5048	0.591
3.54566	0.659
3.58651	0.702
3.62737	0.712
3.66822	0.729
3.70908	0.763
3.74993	0.777
3.79079	0.795
3.83164	0.807
3.8725	0.818
3.91336	0.824
3.95421	0.826
3.99507	0.828
4.03592	0.831
4.07678	0.833
4.11763	0.835
4.15849	0.836
4.19934	0.843
4.2402	0.814
4.28106	0.807
4.32191	0.818
4.36277	0.858
4.40362	0.869
4.44448	0.872
4.48533	0.874
4.52619	0.877
4.56704	0.882
4.6079	0.884
4.64876	0.886
4.68961	0.889
4.73047	0.892
4.77132	0.892
4.81218	0.892
4.85303	0.892
4.89389	0.894
4.93474	0.897
4.9756	0.901
5.01646	0.909
5.05731	0.897
5.09817	0.85
5.13902	0.894
5.17988	0.874
5.22073	0.894
5.26159	0.891
5.30244	0.891
5.3433	0.894
5.38416	0.896
5.42501	0.891
5.46587	0.887
5.50672	0.833
5.54758	0.85
5.58843	0.846
5.62929	0.799
5.67014	0.773
5.711	0.726
5.75186	0.671
5.79271	0.527
5.83357	0.357
5.87442	0.124
5.91528	0.017
5.95613	0.018
5.99699	0.202
6.03784	0.321
6.0787	0.086
6.11956	0.091
6.16041	0.284
6.20127	0.34
6.24212	0.302
6.28298	0.467
6.32383	0.494
6.36469	0.413
6.40554	0.651
6.4464	0.714
6.48726	0.731
6.52811	0.778
6.56897	0.777
6.60982	0.642
6.65068	0.647
6.69153	0.488
6.73239	0.159
6.77324	0.619
6.8141	0.741
6.85496	0.76
6.89581	0.704
6.93667	0.326
6.97752	0.282
7.01838	0.251
7.05923	0.576
7.10009	0.717
7.14094	0.75
7.1818	0.647
7.22266	0.28
7.26351	0.357
7.30437	0.12
7.34522	0.38
7.38608	0.62
7.42693	0.717
7.46779	0.744
7.50864	0.802
7.5495	0.836
7.59036	0.802
7.63121	0.71
7.67207	0.741
7.71292	0.193
7.75378	0.54
7.79463	0.789
7.83549	0.838
7.87634	0.785
7.9172	0.232
7.95806	0.619
7.99891	0.653
8.03977	0.433
8.08062	0.605
8.12148	0.646
8.16233	0.642
8.20319	0.44
8.24404	0.588
8.2849	0.804
8.32576	0.855
8.36661	0.882
8.40747	0.899
8.44832	0.903
8.48918	0.903
8.53003	0.908
8.57089	0.901
8.61174	0.831
8.6526	0.899
8.69346	0.867
8.73431	0.824
8.77517	0.816
8.81602	0.607
8.85688	0.44
8.89773	0.738
8.93859	0.785
8.97944	0.857
9.0203	0.877
9.06116	0.892
9.10201	0.906
9.14287	0.909
9.18372	0.913
9.22458	0.914
9.26543	0.916
9.30629	0.918
9.34714	0.921
9.388	0.921
9.42886	0.92
9.46971	0.875
9.51057	0.765
9.55142	0.595
9.59228	0.775
9.63313	0.831
9.67399	0.835
9.71484	0.819
9.7557	0.731
9.79656	0.67
9.83741	0.794
9.87827	0.875
9.91912	0.913
9.95998	0.931
10.0008	0.937
10.0417	0.938
10.0825	0.938
10.1234	0.884
10.1643	0.87
10.2051	0.928
10.246	0.943
10.2868	0.947
10.3277	0.945
10.3685	0.935
10.4094	0.889
10.4502	0.695
10.4911	0.45
10.532	0.75
10.5728	0.811
10.6137	0.777
10.6545	0.775
10.6954	0.807
10.7362	0.887
10.7771	0.926
10.8179	0.942
10.8588	0.95
10.8997	0.959
10.9405	0.962
10.9814	0.962
11.0222	0.962
11.0631	0.96
11.1039	0.957
11.1448	0.95
11.1856	0.94
11.2265	0.926
11.2674	0.906
11.3082	0.835
11.3491	0.773
11.3899	0.814
11.4308	0.836
11.4716	0.782
11.5125	0.724
11.5533	0.853
11.5942	0.897
11.6351	0.906
11.6759	0.901
11.7168	0.87
11.7576	0.828
11.7985	0.727
11.8393	0.625
11.8802	0.675
11.921	0.748
11.9619	0.75
12.0028	0.673
12.0436	0.571
12.0845	0.464
12.1253	0.397
12.1662	0.394
12.207	0.472
12.2479	0.566
12.2887	0.479
12.3296	0.234
12.3705	0.153
12.4113	0.243
12.4522	0.353
12.493	0.498
12.5339	0.59
12.5747	0.646
12.6156	0.693
12.6564	0.722
12.6973	0.741
12.7382	0.743
12.779	0.7
12.8199	0.559
12.8607	0.248
12.9016	0.1
12.9424	0.137
12.9833	0.329
13.0241	0.61
13.065	0.715
13.1059	0.794
13.1467	0.836
13.1876	0.879
13.2284	0.906
13.2693	0.933
13.3101	0.947
13.351	0.945
13.3918	0.806
13.4327	0.653
13.4736	0.748
13.5144	0.858
13.5553	0.904
13.5961	0.933
13.637	0.95
13.6778	0.964
13.7187	0.976
13.7595	0.979
13.8004	0.981
13.8413	0.986
13.8821	0.989
13.923	0.993
13.9638	0.994
14.0047	0.994
14.0455	0.994
14.0864	0.994
14.1272	0.994
14.1681	0.994
14.209	0.996
14.2498	0.996
14.2907	0.996
14.3315	0.982
14.3724	0.982
14.4132	0.981
14.4541	0.979
14.4949	0.976
14.5358	0.976
14.5767	0.972
14.6175	0.965
14.6584	0.962
14.6992	0.95
14.7401	0.942
14.7809	0.911
14.8218	0.867
14.8626	0.821
14.9035	0.76
14.9444	0.67
14.9852	0.598
15.0261	0.61
15.0669	0.697
15.1078	0.767
15.1486	0.823
15.1895	0.845
15.2303	0.853
15.2712	0.853
15.3121	0.836
15.3529	0.807
15.3938	0.79
15.4346	0.789
15.4755	0.789
15.5163	0.801
15.5572	0.804
15.598	0.807
15.6389	0.811
15.6798	0.809
15.7206	0.799
15.7615	0.78
15.8023	0.775
15.8432	0.758
15.884	0.738
15.9249	0.705
15.9657	0.681
16.0066	0.673
