Infrared Spectrum: P-QUINONE, P-ETHOXYPHENYL
Formula: C14 H12 O3
CAS: 6276-62-6
State: SOLID ( MULL)
Class: COBLENTZ
Instrument: Not specified, most likely a prism, grating, or hybrid spectrometer.
Sampling: TRANSMISSION
Resolution: 4
Origin: TENNESSEE EASTMAN COMPANY, RESEARCH LABORATORIES
MICROMETERS	TRANSMITTANCE
2.014	0.572
2.05523	0.577
2.09645	0.588
2.13768	0.593
2.1789	0.598
2.22013	0.608
2.26135	0.613
2.30258	0.615
2.34381	0.615
2.38503	0.618
2.42626	0.622
2.46748	0.623
2.50871	0.629
2.54993	0.644
2.59116	0.656
2.63239	0.659
2.67361	0.651
2.71484	0.659
2.75606	0.661
2.79729	0.661
2.83851	0.658
2.87974	0.658
2.92097	0.659
2.96219	0.661
3.00342	0.664
3.04464	0.664
3.08587	0.668
3.1271	0.668
3.16832	0.671
3.20955	0.68
3.25077	0.68
3.292	0.658
3.33322	0.656
3.37445	0.521
3.41568	0.196
3.4569	0.215
3.49813	0.335
3.53935	0.401
3.58058	0.649
3.6218	0.697
3.66303	0.704
3.70426	0.711
3.74548	0.712
3.78671	0.717
3.82793	0.719
3.86916	0.724
3.91038	0.728
3.95161	0.731
3.99284	0.736
4.03406	0.738
4.07529	0.74
4.11651	0.743
4.15774	0.747
4.19896	0.748
4.24019	0.757
4.28142	0.793
4.32264	0.777
4.36387	0.753
4.40509	0.755
4.44632	0.764
4.48754	0.769
4.52877	0.77
4.57	0.772
4.61122	0.777
4.65245	0.776
4.69367	0.777
4.7349	0.779
4.77613	0.781
4.81735	0.781
4.85858	0.781
4.8998	0.782
4.94103	0.782
4.98225	0.784
5.02348	0.788
5.06471	0.786
5.10593	0.788
5.14716	0.788
5.18838	0.789
5.22961	0.793
5.27083	0.786
5.31206	0.782
5.35329	0.794
5.39451	0.781
5.43574	0.793
5.47696	0.789
5.51819	0.784
5.55941	0.793
5.60064	0.794
5.64187	0.794
5.68309	0.781
5.72432	0.796
5.76554	0.786
5.80677	0.781
5.84799	0.793
5.88922	0.782
5.93045	0.769
5.97167	0.769
6.0129	0.577
6.05412	0.287
6.09535	0.311
6.13657	0.377
6.1778	0.593
6.21903	0.593
6.26025	0.461
6.30148	0.401
6.3427	0.635
6.38393	0.697
6.42516	0.717
6.46638	0.752
6.50761	0.741
6.54883	0.75
6.59006	0.533
6.63128	0.417
6.67251	0.683
6.71374	0.707
6.75496	0.671
6.79619	0.567
6.83741	0.533
6.87864	0.54
6.91986	0.591
6.96109	0.673
7.00232	0.724
7.04354	0.709
7.08477	0.736
7.12599	0.74
7.16722	0.627
7.20844	0.63
7.24967	0.613
7.2909	0.613
7.33212	0.666
7.37335	0.685
7.41457	0.644
7.4558	0.627
7.49702	0.678
7.53825	0.697
7.57948	0.685
7.6207	0.617
7.66193	0.49
7.70315	0.447
7.74438	0.642
7.7856	0.634
7.82683	0.625
7.86806	0.632
7.90928	0.613
7.95051	0.512
7.99173	0.307
8.03296	0.304
8.07419	0.495
8.11541	0.593
8.15664	0.623
8.19786	0.639
8.23909	0.654
8.28031	0.659
8.32154	0.663
8.36277	0.664
8.40399	0.569
8.44522	0.384
8.48644	0.584
8.52767	0.627
8.56889	0.644
8.61012	0.659
8.65135	0.659
8.69257	0.663
8.7338	0.683
8.77502	0.694
8.81625	0.699
8.85747	0.695
8.8987	0.663
8.93993	0.6
8.98115	0.417
9.02238	0.382
9.0636	0.483
9.10483	0.593
9.14605	0.647
9.18728	0.67
9.22851	0.678
9.26973	0.687
9.31096	0.699
9.35218	0.707
9.39341	0.711
9.43463	0.711
9.47586	0.692
9.51709	0.586
9.55831	0.435
9.59954	0.56
9.64076	0.632
9.68199	0.659
9.72322	0.67
9.76444	0.673
9.80567	0.683
9.84689	0.68
9.88812	0.694
9.92934	0.716
9.97057	0.729
10.0118	0.74
10.053	0.745
10.0942	0.748
10.1355	0.745
10.1767	0.606
10.2179	0.588
10.2591	0.676
10.3004	0.714
10.3416	0.736
10.3828	0.745
10.4241	0.743
10.4653	0.74
10.5065	0.753
10.5477	0.76
10.589	0.765
10.6302	0.764
10.6714	0.772
10.7126	0.772
10.7539	0.757
10.7951	0.67
10.8363	0.451
10.8775	0.617
10.9188	0.709
10.96	0.755
11.0012	0.774
11.0424	0.782
11.0837	0.788
11.1249	0.791
11.1661	0.794
11.2073	0.8
11.2486	0.801
11.2898	0.803
11.331	0.805
11.3722	0.808
11.4135	0.811
11.4547	0.811
11.4959	0.813
11.5371	0.813
11.5784	0.813
11.6196	0.788
11.6608	0.617
11.7021	0.49
11.7433	0.635
11.7845	0.705
11.8257	0.762
11.867	0.791
11.9082	0.798
11.9494	0.8
11.9906	0.776
12.0319	0.752
12.0731	0.762
12.1143	0.724
12.1555	0.695
12.1968	0.668
12.238	0.752
12.2792	0.779
12.3204	0.764
12.3617	0.753
12.4029	0.733
12.4441	0.767
12.4853	0.755
12.5266	0.707
12.5678	0.709
12.609	0.755
12.6502	0.77
12.6915	0.781
12.7327	0.772
12.7739	0.743
12.8151	0.755
12.8564	0.776
12.8976	0.782
12.9388	0.788
12.98	0.789
13.0213	0.789
13.0625	0.793
13.1037	0.794
13.145	0.793
13.1862	0.793
13.2274	0.793
13.2686	0.793
13.3099	0.793
13.3511	0.791
13.3923	0.789
13.4335	0.784
13.4748	0.782
13.516	0.774
13.5572	0.77
13.5984	0.767
13.6397	0.762
13.6809	0.753
13.7221	0.748
13.7633	0.736
13.8046	0.733
13.8458	0.733
13.887	0.731
13.9282	0.731
13.9695	0.729
14.0107	0.731
14.0519	0.728
14.0931	0.726
14.1344	0.728
14.1756	0.726
14.2168	0.726
14.258	0.726
14.2993	0.726
14.3405	0.726
14.3817	0.726
14.423	0.726
14.4642	0.724
14.5054	0.723
14.5466	0.719
14.5879	0.717
14.6291	0.714
14.6703	0.709
14.7115	0.705
14.7528	0.702
14.794	0.699
14.8352	0.695
14.8764	0.692
14.9177	0.68
14.9589	0.673
15.0001	0.664
15.0413	0.654
15.0826	0.635
15.1238	0.622
15.165	0.62
15.2062	0.618
15.2475	0.618
15.2887	0.618
15.3299	0.617
15.3711	0.613
15.4124	0.611
15.4536	0.61
15.4948	0.606
15.536	0.601
15.5773	0.598
15.6185	0.594
15.6597	0.593
15.7009	0.589
15.7422	0.588
15.7834	0.588
15.8246	0.586
15.8659	0.586
15.9071	0.586
15.9483	0.586
15.9895	0.586
