Infrared Spectrum: 3,5-Dinitroiodobenzene
Formula: C 6 H 3 I N 2 O 4
CAS: 6276-04-6
State: gas
Origin: EPA-IR VAPOR PHASE LIBRARY
1/CM	ABSORBANCE
501.5	0.00028681
513.074	0.000175
524.648	0.0002388
536.222	0.0004991
547.796	0.000252
559.37	6.6e-05
570.944	0.0002792
582.518	0.0005256
594.092	0.000186
605.666	0.0002967
617.24	0.0005005
628.814	0.0005104
640.388	0.0011994
651.962	0.002475
663.536	0.001655
675.11	0.0011705
686.684	0.001665
698.258	0.003175
709.832	0.011305
721.406	0.040965
732.98	0.025665
744.554	0.005025
756.128	0.002785
767.702	0.001355
779.276	0.0008361
790.85	0.0006939
802.423	0.0007404
813.997	0.0006822
825.571	0.0007536
837.145	0.0011576
848.719	0.001725
860.293	0.0007954
871.867	0.0011221
883.441	0.003265
895.015	0.006405
906.589	0.010715
918.163	0.008435
929.737	0.001615
941.311	0.0008656
952.885	0.0008409
964.459	0.0006608
976.033	0.0005023
987.607	0.0007583
999.181	0.001885
1010.76	0.0008865
1022.33	0.0005214
1033.9	0.000753
1045.48	0.0012431
1057.05	0.003095
1068.63	0.008365
1080.2	0.005385
1091.77	0.003295
1103.35	0.001955
1114.92	0.0012826
1126.49	0.001465
1138.07	0.001905
1149.64	0.005435
1161.22	0.004465
1172.79	0.0011628
1184.36	0.0009217
1195.94	0.0010452
1207.51	0.001315
1219.09	0.001505
1230.66	0.002295
1242.23	0.002385
1253.81	0.002055
1265.38	0.001945
1276.96	0.002645
1288.53	0.005295
1300.1	0.004655
1311.68	0.005955
1323.25	0.011715
1334.83	0.053085
1346.4	0.099235
1357.97	0.035065
1369.55	0.008215
1381.12	0.003855
1392.7	0.002995
1404.27	0.003165
1415.84	0.004295
1427.42	0.005045
1438.99	0.004435
1450.57	0.002655
1462.14	0.002385
1473.71	0.003515
1485.29	0.004845
1496.86	0.005735
1508.44	0.012165
1520.01	0.012205
1531.58	0.016755
1543.16	0.079765
1554.73	0.139875
1566.31	0.031075
1577.88	0.013235
1589.45	0.016745
1601.03	0.014145
1612.6	0.007025
1624.18	0.003235
1635.75	0.003305
1647.32	0.002885
1658.9	0.001855
1670.47	0.001365
1682.05	0.001237
1693.62	0.001208
1705.19	0.0007092
1716.77	0.0005172
1728.34	0.000496
1739.92	0.0004482
1751.49	0.0004488
1763.06	0.0004173
1774.64	0.0005335
1786.21	0.0008306
1797.79	0.001495
1809.36	0.002015
1820.93	0.001605
1832.51	0.0010162
1844.08	0.000559
1855.66	0.0004443
1867.23	0.0004086
1878.8	0.0004126
1890.38	0.00032387
1901.95	0.0003073
1913.53	0.00033383
1925.1	0.000297529
1936.67	0.0002842
1948.25	0.0002341
1959.82	0.0002407
1971.4	0.0002561
1982.97	0.0002562
1994.54	0.000269
2006.12	0.0002484
2017.69	0.000227
2029.27	0.0002602
2040.84	0.000248
2052.41	0.0002649
2063.99	0.00031559
2075.56	0.000278
2087.14	0.0002513
2098.71	0.0002449
2110.28	0.000229
2121.86	0.0002527
2133.43	0.0002406
2145.01	0.0002569
2156.58	0.0002116
2168.15	0.0002482
2179.73	0.0002734
2191.3	0.00028549
2202.88	0.0002931
2214.45	0.0002238
2226.02	0.0002308
2237.6	0.0002042
2249.17	0.0002195
2260.74	0.0002018
2272.32	0.0002469
2283.89	0.0002426
2295.47	0.0002832
2307.04	0.00034054
2318.61	0.00033243
2330.19	0.00033659
2341.76	0.00032385
2353.34	0.0002808
2364.91	0.0002751
2376.48	0.0002814
2388.06	0.00033845
2399.63	0.00036834
2411.21	0.00028663
2422.78	0.0002669
2434.35	0.0002564
2445.93	0.00031173
2457.5	0.00037341
2469.08	0.00036271
2480.65	0.000298841
2492.22	0.00033601
2503.8	0.00039468
2515.37	0.0002842
2526.95	0.0002448
2538.52	0.0002379
2550.09	0.0002628
2561.67	0.0003157
2573.24	0.00038429
2584.82	0.0004926
2596.39	0.00036383
2607.96	0.0002569
2619.54	0.0002642
2631.11	0.00032176
2642.69	0.00038728
2654.26	0.0005461
2665.83	0.0005984
2677.41	0.0008907
2688.98	0.0009849
2700.56	0.0006102
2712.13	0.0004197
2723.7	0.00041
2735.28	0.0004699
2746.85	0.0005749
2758.43	0.0005303
2770	0.0004659
2781.57	0.0004064
2793.15	0.0004149
2804.72	0.0004406
2816.3	0.0005303
2827.87	0.0006332
2839.44	0.0007996
2851.02	0.0009413
2862.59	0.0010353
2874.17	0.001385
2885.74	0.002225
2897.31	0.002025
2908.89	0.0009772
2920.46	0.0007932
2932.04	0.0009206
2943.61	0.0006798
2955.18	0.0005311
2966.76	0.0004037
2978.33	0.00038563
2989.91	0.0004627
3001.48	0.0004463
3013.05	0.0004544
3024.63	0.0004015
3036.2	0.00035077
3047.78	0.00035928
3059.35	0.0004417
3070.92	0.0007619
3082.5	0.002335
3094.07	0.006565
3105.65	0.008525
3117.22	0.004235
3128.79	0.001168
3140.37	0.0008806
3151.94	0.0006935
3163.52	0.0006154
3175.09	0.0005761
3186.66	0.0004735
3198.24	0.0002849
3209.81	0.0002674
3221.39	0.0002657
3232.96	0.0002088
3244.53	0.0002241
3256.11	0.000155
3267.68	0.00017
3279.26	0.00019
3290.83	0.0002078
3302.4	0.0002526
3313.98	0.000187
3325.55	0.000191
3337.13	0.000159
3348.7	0.00018
3360.27	0.0002122
3371.85	0.000156
3383.42	0.0002087
3395	0.0002123
3406.57	0.0002055
3418.14	0.0002558
3429.72	0.0002445
3441.29	0.00019
3452.86	0.0002527
3464.44	0.0002283
3476.01	0.0002061
3487.59	0.0002474
3499.16	0.0002578
3510.73	0.0002667
3522.31	0.00019
3533.88	0.0002179
3545.46	0.00026
3557.03	0.0002476
3568.6	0.0002047
3580.18	0.000187
3591.75	0.0002387
3603.33	0.000242
3614.9	0.00017
3626.47	0.0002404
3638.05	0.000294018
3649.62	0.00034205
3661.2	0.000216
3672.77	0.0002481
3684.34	0.0002258
3695.92	0.0002059
3707.49	0.0002172
3719.07	0.0002094
3730.64	0.0002626
3742.21	0.00031564
3753.79	0.00032768
3765.36	0.0002644
3776.94	0.0002153
3788.51	0.000236
3800.08	0.0002612
3811.66	0.00037011
3823.23	0.00032735
3834.81	0.000254
3846.38	0.00028796
3857.95	0.00031188
3869.53	0.0002109
3881.1	0.0002713
3892.68	0.0002801
3904.25	0.0002175
3915.82	0.000193
3927.4	0.0002293
3938.97	0.0002497
3950.55	0.00029379
3962.12	0.0002839
3973.69	0.0002793
3985.27	0.000295491
3996.84	0.000252
