Infrared Spectrum: ACETIC ACID, 6(9H)-HYDRAZINOPURIN-9-YL-, HYDRAZIDE
Formula: C7 H10 N8 O
CAS: 6277-53-8
State: SOLID (0.5 mg / 650 mg KBr DISC)
Class: COBLENTZ III
Instrument: PERKIN-ELMER 21 (GRATING)
Instrument parameters: FILTER CHANGE ABOUT 1090 CM^-^1
Sampling: TRANSMISSION
Resolution: 2
Origin: SOUTHERN RESEARCH INSTITUTE
1/CM	TRANSMITTANCE
598	0.8744
607.019	0.8696
616.037	0.8561
625.056	0.8333
634.074	0.7289
643.093	0.5624
652.111	0.8123
661.13	0.7459
670.148	0.7282
679.167	0.8874
688.185	0.8732
697.204	0.8153
706.222	0.77
715.241	0.7224
724.259	0.6827
733.278	0.6583
742.296	0.5431
751.315	0.6912
760.333	0.7775
769.352	0.7488
778.37	0.6132
787.389	0.5321
796.407	0.7253
805.426	0.732
814.444	0.7672
823.463	0.7553
832.481	0.7415
841.5	0.7426
850.519	0.7537
859.537	0.7803
868.556	0.774
877.574	0.7581
886.593	0.7649
895.611	0.7783
904.63	0.782
913.648	0.7479
922.667	0.7315
931.685	0.6911
940.704	0.6489
949.722	0.611
958.741	0.7439
967.759	0.7635
976.778	0.7551
985.796	0.6954
994.815	0.5712
1003.83	0.6225
1012.85	0.668
1021.87	0.7564
1030.89	0.8108
1039.91	0.8378
1048.93	0.8407
1057.94	0.8398
1066.96	0.8426
1075.98	0.8506
1085	0.8635
1094.02	0.8079
1103.04	0.7982
1112.06	0.7799
1121.07	0.7291
1130.09	0.6231
1139.11	0.5401
1148.13	0.6269
1157.15	0.7779
1166.17	0.7337
1175.19	0.7661
1184.2	0.7508
1193.22	0.7864
1202.24	0.7769
1211.26	0.7207
1220.28	0.6195
1229.3	0.4421
1238.31	0.5188
1247.33	0.7479
1256.35	0.7561
1265.37	0.7387
1274.39	0.7001
1283.41	0.5762
1292.43	0.4629
1301.44	0.4287
1310.46	0.5478
1319.48	0.4881
1328.5	0.4508
1337.52	0.6791
1346.54	0.7232
1355.56	0.6622
1364.57	0.679
1373.59	0.689
1382.61	0.5571
1391.63	0.6317
1400.65	0.6133
1409.67	0.532
1418.69	0.4987
1427.7	0.5771
1436.72	0.6997
1445.74	0.6635
1454.76	0.6218
1463.78	0.541
1472.8	0.3866
1481.81	0.3835
1490.83	0.5071
1499.85	0.7035
1508.87	0.7018
1517.89	0.6745
1526.91	0.6167
1535.93	0.5639
1544.94	0.5125
1553.96	0.4398
1562.98	0.3913
1572	0.3277
1581.02	0.3103
1590.04	0.3219
1599.06	0.19
1608.07	0.1316
1617.09	0.1996
1626.11	0.3098
1635.13	0.3979
1644.15	0.4705
1653.17	0.5678
1662.19	0.543
1671.2	0.3095
1680.22	0.2995
1689.24	0.3611
1698.26	0.5357
1707.28	0.6822
1716.3	0.7673
1725.31	0.8247
1734.33	0.8455
1743.35	0.8585
1752.37	0.8716
1761.39	0.8883
1770.41	0.9012
1779.43	0.9073
1788.44	0.9053
1797.46	0.905
1806.48	0.9096
1815.5	0.9114
1824.52	0.9115
1833.54	0.9097
1842.56	0.9086
1851.57	0.9067
1860.59	0.9049
1869.61	0.9031
1878.63	0.9025
1887.65	0.9019
1896.67	0.8948
1905.69	0.8942
1914.7	0.893
1923.72	0.8917
1932.74	0.8888
1941.76	0.8829
1950.78	0.8763
1959.8	0.8745
1968.81	0.8789
1977.83	0.881
1986.85	0.8804
1995.87	0.8791
2004.89	0.8767
2013.91	0.8735
2022.93	0.8717
2031.94	0.8681
2040.96	0.8626
2049.98	0.858
2059	0.854
2068.02	0.8527
2077.04	0.8552
2086.06	0.859
2095.07	0.8562
2104.09	0.8535
2113.11	0.853
2122.13	0.8526
2131.15	0.852
2140.17	0.8513
2149.19	0.8507
2158.2	0.8504
2167.22	0.8503
2176.24	0.8492
2185.26	0.8465
2194.28	0.8421
2203.3	0.836
2212.31	0.8349
2221.33	0.8324
2230.35	0.8344
2239.37	0.8408
2248.39	0.8389
2257.41	0.836
2266.43	0.8327
2275.44	0.8299
2284.46	0.8286
2293.48	0.8278
2302.5	0.8295
2311.52	0.8328
2320.54	0.8368
2329.56	0.8443
2338.57	0.8459
2347.59	0.8409
2356.61	0.8346
2365.63	0.8269
2374.65	0.8166
2383.67	0.8078
2392.69	0.8012
2401.7	0.7971
2410.72	0.7975
2419.74	0.7954
2428.76	0.7936
2437.78	0.7908
2446.8	0.785
2455.81	0.7772
2464.83	0.7718
2473.85	0.7721
2482.87	0.7724
2491.89	0.7633
2500.91	0.7636
2509.93	0.7634
2518.94	0.7627
2527.96	0.7609
2536.98	0.7591
2546	0.7481
2555.02	0.7414
2564.04	0.7405
2573.06	0.7373
2582.07	0.7342
2591.09	0.7261
2600.11	0.7298
2609.13	0.7229
2618.15	0.7186
2627.17	0.7148
2636.19	0.7068
2645.2	0.695
2654.22	0.6888
2663.24	0.6859
2672.26	0.6828
2681.28	0.6795
2690.3	0.6751
2699.31	0.6691
2708.33	0.6619
2717.35	0.6555
2726.37	0.6478
2735.39	0.6407
2744.41	0.6355
2753.43	0.63
2762.44	0.6253
2771.46	0.6083
2780.48	0.5939
2789.5	0.5809
2798.52	0.5679
2807.54	0.5544
2816.56	0.5407
2825.57	0.5253
2834.59	0.5105
2843.61	0.4978
2852.63	0.4879
2861.65	0.4802
2870.67	0.4725
2879.69	0.4637
2888.7	0.4533
2897.72	0.4383
2906.74	0.4239
2915.76	0.415
2924.78	0.4105
2933.8	0.4198
2942.81	0.4241
2951.83	0.4348
2960.85	0.4312
2969.87	0.4188
2978.89	0.4114
2987.91	0.4069
2996.93	0.3997
3005.94	0.3965
3014.96	0.4009
3023.98	0.405
3033	0.4088
3042.02	0.4139
3051.04	0.4397
3060.06	0.4566
3069.07	0.4654
3078.09	0.4694
3087.11	0.4686
3096.13	0.4625
3105.15	0.4522
3114.17	0.4419
3123.19	0.4348
3132.2	0.4311
3141.22	0.4361
3150.24	0.4254
3159.26	0.4188
3168.28	0.4148
3177.3	0.4102
3186.31	0.404
3195.33	0.3975
3204.35	0.3923
3213.37	0.3885
3222.39	0.3902
3231.41	0.3966
3240.43	0.4076
3249.44	0.4152
3258.46	0.4262
3267.48	0.4544
3276.5	0.4715
3285.52	0.4884
3294.54	0.5033
3303.56	0.5001
3312.57	0.4747
3321.59	0.4484
3330.61	0.4538
3339.63	0.481
3348.65	0.5097
3357.67	0.5682
3366.69	0.582
3375.7	0.5847
3384.72	0.5882
3393.74	0.5825
3402.76	0.5782
3411.78	0.5757
3420.8	0.5691
3429.81	0.5643
3438.83	0.5643
3447.85	0.5671
3456.87	0.5718
3465.89	0.5764
3474.91	0.5808
3483.93	0.5865
3492.94	0.5936
3501.96	0.601
3510.98	0.6045
3520	0.6092
3529.02	0.6127
3538.04	0.6107
3547.06	0.6343
3556.07	0.6483
3565.09	0.662
3574.11	0.6733
3583.13	0.6839
3592.15	0.6945
3601.17	0.7078
3610.19	0.7197
3619.2	0.7301
3628.22	0.7398
3637.24	0.7527
3646.26	0.7607
3655.28	0.7662
3664.3	0.7697
3673.31	0.7749
3682.33	0.772
3691.35	0.7612
3700.37	0.7591
3709.39	0.7612
3718.41	0.7639
3727.43	0.7651
3736.44	0.763
3745.46	0.7609
3754.48	0.7646
3763.5	0.7716
3772.52	0.7709
3781.54	0.7669
3790.56	0.7643
3799.57	0.7619
3808.59	0.7585
3817.61	0.7523
3826.63	0.7443
3835.65	0.7486
3844.67	0.7516
3853.69	0.7521
3862.7	0.7591
3871.72	0.7582
3880.74	0.7548
3889.76	0.7591
3898.78	0.7568
3907.8	0.7514
3916.81	0.7426
3925.83	0.7368
3934.85	0.7416
3943.87	0.7432
3952.89	0.7426
3961.91	0.7471
3970.93	0.7501
3979.94	0.7486
3988.96	0.7366
3997.98	0.7197
4007	0.7006
