Infrared Spectrum: 4-Methoxy-3-nitroacetophenone
Formula: C 9 H 9 N O 4
CAS: 6277-38-9
State: gas
Origin: EPA-IR VAPOR PHASE LIBRARY
1/CM	ABSORBANCE
549.9	0.001481
559.547	0.001781
569.193	0.002451
578.84	0.003021
588.486	0.002281
598.133	0.001401
607.779	0.0010619
617.426	0.0009653
627.072	0.0009917
636.719	0.0010017
646.365	0.0008966
656.012	0.0011634
665.658	0.0011165
675.305	0.0008434
684.951	0.0010456
694.598	0.0011786
704.245	0.0008326
713.891	0.0007952
723.538	0.0008494
733.184	0.0009113
742.831	0.0008464
752.477	0.0007521
762.124	0.0007372
771.77	0.0007553
781.417	0.0007934
791.063	0.001032
800.71	0.001761
810.356	0.002141
820.003	0.001981
829.649	0.001731
839.296	0.0011616
848.943	0.0007787
858.589	0.0006577
868.236	0.0006341
877.882	0.000914
887.529	0.001441
897.175	0.001601
906.822	0.0009554
916.468	0.0007328
926.115	0.0006086
935.761	0.0006238
945.408	0.0008716
955.054	0.001431
964.701	0.001461
974.347	0.0012646
983.994	0.0010529
993.64	0.001351
1003.29	0.002071
1012.93	0.003081
1022.58	0.003361
1032.23	0.002541
1041.87	0.001401
1051.52	0.0010012
1061.17	0.0012459
1070.81	0.002151
1080.46	0.002501
1090.11	0.002821
1099.75	0.003511
1109.4	0.002371
1119.05	0.001371
1128.69	0.0011931
1138.34	0.0012538
1147.99	0.001911
1157.63	0.001891
1167.28	0.001461
1176.92	0.001651
1186.57	0.001951
1196.22	0.001831
1205.86	0.002051
1215.51	0.003191
1225.16	0.004741
1234.8	0.008271
1244.45	0.011161
1254.1	0.012311
1263.74	0.015031
1273.39	0.016711
1283.04	0.013561
1292.68	0.008411
1302.33	0.005281
1311.98	0.003291
1321.62	0.002421
1331.27	0.002401
1340.92	0.003741
1350.56	0.007181
1360.21	0.010001
1369.86	0.006691
1379.5	0.002781
1389.15	0.001861
1398.79	0.002031
1408.44	0.002241
1418.09	0.002091
1427.73	0.001801
1437.38	0.001851
1447.03	0.001941
1456.67	0.001891
1466.32	0.001951
1475.97	0.001821
1485.61	0.002091
1495.26	0.003481
1504.91	0.004181
1514.55	0.003601
1524.2	0.004411
1533.85	0.006111
1543.49	0.009581
1553.14	0.011081
1562.79	0.007081
1572.43	0.004921
1582.08	0.004131
1591.73	0.004511
1601.37	0.007781
1611.02	0.011571
1620.67	0.008191
1630.31	0.003211
1639.96	0.001501
1649.6	0.0010812
1659.25	0.0011061
1668.9	0.001302
1678.54	0.001229
1688.19	0.001891
1697.84	0.006101
1707.48	0.011751
1717.13	0.005871
1726.78	0.001421
1736.42	0.0008703
1746.07	0.0009731
1755.72	0.0008063
1765.36	0.0004609
1775.01	0.000345868
1784.66	0.00033421
1794.3	0.0003004
1803.95	0.00024
1813.6	0.0002642
1823.24	0.0002555
1832.89	0.0002432
1842.54	0.0003098
1852.18	0.0002751
1861.83	0.000227
1871.47	0.000265
1881.12	0.000211
1890.77	0.000226
1900.41	0.000216
1910.06	0.000225
1919.71	0.0002473
1929.35	0.0002753
1939	0.0002676
1948.65	0.000228
1958.29	0.000239
1967.94	0.000215
1977.59	0.0002667
1987.23	0.000225
1996.88	0.000215
2006.53	0.000215
2016.17	0.000232
2025.82	0.0002474
2035.47	0.0002429
2045.11	0.0002599
2054.76	0.000222
2064.41	0.000173
2074.05	0.000186
2083.7	0.000223
2093.35	0.000187
2102.99	0.000127
2112.64	0.000114
2122.28	6.4e-05
2131.93	5.7e-05
2141.58	8.9e-05
2151.22	8.1e-05
2160.87	0.000117
2170.52	5.8e-05
2180.16	9.5e-05
2189.81	0.000107
2199.46	9.8e-05
2209.1	0.000106
2218.75	9.4e-05
2228.4	7.1e-05
2238.04	7.2e-05
2247.69	5.5e-05
2257.34	8.4e-05
2266.98	7.2e-05
2276.63	2.9e-05
2286.28	7.7e-05
2295.92	0.000123
2305.57	9.2e-05
2315.22	8.2e-05
2324.86	9.1e-05
2334.51	0.000144
2344.16	9.1e-05
2353.8	0.000146
2363.45	0.000109
2373.09	8.8e-05
2382.74	6.7e-05
2392.39	3e-05
2402.03	9e-05
2411.68	6.4e-05
2421.33	6.2e-05
2430.97	8e-05
2440.62	6e-05
2450.27	7.3e-05
2459.91	5.1e-05
2469.56	4e-05
2479.21	6.7e-05
2488.85	6.4e-05
2498.5	7.8e-05
2508.15	0.000123
2517.79	5.3e-05
2527.44	8.1e-05
2537.09	0.000117
2546.73	0.000109
2556.38	0.000153
2566.03	0.0002
2575.67	0.000158
2585.32	0.000148
2594.96	0.000154
2604.61	4.5e-05
2614.26	7.1e-05
2623.9	5.7e-05
2633.55	5.9e-05
2643.2	7.4e-05
2652.84	8.6e-05
2662.49	5.4e-05
2672.14	5.7e-05
2681.78	0.000122
2691.43	0.000116
2701.08	7.6e-05
2710.72	2.7e-05
2720.37	5.6e-05
2730.02	5.5e-05
2739.66	8.5e-05
2749.31	7.1e-05
2758.96	7e-05
2768.6	8.1e-05
2778.25	0.000126
2787.9	9.4e-05
2797.54	0.000128
2807.19	0.000134
2816.84	0.000214
2826.48	0.0002758
2836.13	0.00042395
2845.77	0.0008079
2855.42	0.000997
2865.07	0.0007783
2874.71	0.0005869
2884.36	0.0006443
2894.01	0.0006524
2903.65	0.0008204
2913.3	0.0008927
2922.95	0.0009186
2932.59	0.0011602
2942.24	0.001451
2951.89	0.001941
2961.53	0.001631
2971.18	0.001371
2980.83	0.001391
2990.47	0.0010511
3000.12	0.0009231
3009.77	0.0012198
3019.41	0.001551
3029.06	0.0012449
3038.71	0.0006369
3048.35	0.0006246
3058	0.0006846
3067.64	0.000831
3077.29	0.0009203
3086.94	0.0008567
3096.58	0.000741
3106.23	0.0006335
3115.88	0.0006717
3125.52	0.0006108
3135.17	0.0005639
3144.82	0.0005213
3154.46	0.0004865
3164.11	0.00053
3173.76	0.0005125
3183.4	0.0004976
3193.05	0.0005806
3202.7	0.000659
3212.34	0.0005793
3221.99	0.0006912
3231.64	0.000602
3241.28	0.0006156
3250.93	0.0007722
3260.58	0.0004993
3270.22	0.0007269
3279.87	0.000673
3289.52	0.0006628
3299.16	0.0006399
3308.81	0.0007362
3318.45	0.0007267
3328.1	0.0008505
3337.75	0.0008092
3347.39	0.0009809
3357.04	0.0008194
3366.69	0.0007457
3376.33	0.0008272
3385.98	0.0009623
3395.63	0.0010859
3405.27	0.0009267
3414.92	0.000887
3424.57	0.0008801
3434.21	0.0008275
3443.86	0.0008482
3453.51	0.0006943
3463.15	0.0007223
3472.8	0.0007636
3482.45	0.000753
3492.09	0.0006925
3501.74	0.0008284
3511.39	0.0007623
3521.03	0.0006711
3530.68	0.0007601
3540.33	0.0007772
3549.97	0.0008195
3559.62	0.0006922
3569.26	0.0008494
3578.91	0.0006777
3588.56	0.0007851
3598.2	0.000701
3607.85	0.000751
3617.5	0.0007638
3627.14	0.0007386
3636.79	0.0006983
3646.44	0.0007826
3656.08	0.0006148
3665.73	0.0007365
3675.38	0.0007735
3685.02	0.0006999
3694.67	0.0006269
3704.32	0.0007227
3713.96	0.0007462
3723.61	0.0007007
3733.26	0.0006443
3742.9	0.0005455
3752.55	0.0007984
3762.2	0.0005598
3771.84	0.0006661
3781.49	0.0005761
3791.13	0.0005476
3800.78	0.0006066
3810.43	0.0006221
3820.07	0.000589
3829.72	0.0006617
3839.37	0.0005568
3849.01	0.0005329
3858.66	0.0005598
3868.31	0.0005462
3877.95	0.0005273
3887.6	0.0005633
3897.25	0.0005365
3906.89	0.0004873
3916.54	0.0005401
3926.19	0.0005926
3935.83	0.0005244
3945.48	0.0005011
3955.13	0.0005581
3964.77	0.0004842
3974.42	0.0005101
3984.07	0.00041034
3993.71	0.0004744
