Infrared Spectrum: Diethyl 2-methylbenzylphosphonate
Formula: C 12 H 19 O 3 P
CAS: 62778-16-9
State: gas
Origin: EPA-IR VAPOR PHASE LIBRARY
1/CM	ABSORBANCE
549.9	0.05709
559.547	0.07529
569.193	0.03128
578.84	0.01325
588.486	0.00913
598.133	0.01131
607.779	0.01284
617.426	0.00714
627.072	0.00619
636.719	0.00611
646.365	0.00623
656.012	0.00649
665.658	0.00716
675.305	0.00894
684.951	0.01269
694.598	0.01795
704.245	0.01917
713.891	0.02568
723.538	0.05127
733.184	0.05472
742.831	0.04148
752.477	0.04279
762.124	0.05126
771.77	0.08506
781.417	0.10421
791.063	0.08149
800.71	0.06558
810.356	0.05096
820.003	0.04059
829.649	0.04968
839.296	0.06
848.943	0.0519
858.589	0.04724
868.236	0.02995
877.882	0.0206
887.529	0.02055
897.175	0.02456
906.822	0.0328
916.468	0.049
926.115	0.08386
935.761	0.15961
945.408	0.24635
955.054	0.24856
964.701	0.17569
974.347	0.10394
983.994	0.0687
993.64	0.06311
1003.29	0.0809
1012.93	0.13812
1022.58	0.26769
1032.23	0.42633
1041.87	0.43358
1051.52	0.37437
1061.17	0.34447
1070.81	0.23024
1080.46	0.13977
1090.11	0.12146
1099.75	0.12272
1109.4	0.0827
1119.05	0.05706
1128.69	0.04674
1138.34	0.04455
1147.99	0.04583
1157.63	0.04338
1167.28	0.04097
1176.92	0.04021
1186.57	0.03056
1196.22	0.02296
1205.86	0.02373
1215.51	0.02886
1225.16	0.0374
1234.8	0.05673
1244.45	0.0592
1254.1	0.08174
1263.74	0.16427
1273.39	0.17712
1283.04	0.11659
1292.68	0.07442
1302.33	0.04424
1311.98	0.02604
1321.62	0.01696
1331.27	0.01313
1340.92	0.01171
1350.56	0.01216
1360.21	0.01484
1369.86	0.02162
1379.5	0.02658
1389.15	0.04116
1398.79	0.04244
1408.44	0.03023
1418.09	0.02747
1427.73	0.02067
1437.38	0.02111
1447.03	0.02584
1456.67	0.02833
1466.32	0.02834
1475.97	0.02526
1485.61	0.03168
1495.26	0.04254
1504.91	0.02138
1514.55	0.01096
1524.2	0.00823
1533.85	0.00688
1543.49	0.00618
1553.14	0.00574
1562.79	0.00564
1572.43	0.00636
1582.08	0.00771
1591.73	0.00868
1601.37	0.01104
1611.02	0.00863
1620.67	0.00573
1630.31	0.00504
1639.96	0.00492
1649.6	0.00499
1659.25	0.00529
1668.9	0.00571
1678.54	0.00578
1688.19	0.00596
1697.84	0.00584
1707.48	0.00578
1717.13	0.00619
1726.78	0.00623
1736.42	0.00604
1746.07	0.00609
1755.72	0.00639
1765.36	0.00649
1775.01	0.00656
1784.66	0.00717
1794.3	0.0079
1803.95	0.00729
1813.6	0.00681
1823.24	0.00719
1832.89	0.00705
1842.54	0.00609
1852.18	0.00555
1861.83	0.00559
1871.47	0.00579
1881.12	0.00541
1890.77	0.00543
1900.41	0.00667
1910.06	0.0063
1919.71	0.0045404
1929.35	0.00465
1939	0.00562
1948.65	0.0040609
1958.29	0.003027
1967.94	0.002903
1977.59	0.002815
1987.23	0.002755
1996.88	0.002682
2006.53	0.0026
2016.17	0.00255
2025.82	0.00242
2035.47	0.00238
2045.11	0.00226
2054.76	0.00224
2064.41	0.00224
2074.05	0.00224
2083.7	0.00228
2093.35	0.00232
2102.99	0.00233
2112.64	0.00222
2122.28	0.00218
2131.93	0.00217
2141.58	0.00226
2151.22	0.0022
2160.87	0.00217
2170.52	0.0021
2180.16	0.00202
2189.81	0.00204
2199.46	0.002
2209.1	0.00205
2218.75	0.00208
2228.4	0.00202
2238.04	0.00205
2247.69	0.00208
2257.34	0.00218
2266.98	0.00214
2276.63	0.00201
2286.28	0.00197
2295.92	0.00203
2305.57	0.00213
2315.22	0.00232
2324.86	0.002682
2334.51	0.00253
2344.16	0.00237
2353.8	0.00206
2363.45	0.00191
2373.09	0.00181
2382.74	0.00171
2392.39	0.00177
2402.03	0.0018
2411.68	0.00198
2421.33	0.00211
2430.97	0.00222
2440.62	0.0023
2450.27	0.0024
2459.91	0.00238
2469.56	0.00213
2479.21	0.00187
2488.85	0.00179
2498.5	0.00175
2508.15	0.00169
2517.79	0.00176
2527.44	0.00172
2537.09	0.00159
2546.73	0.00158
2556.38	0.00167
2566.03	0.00162
2575.67	0.00166
2585.32	0.00173
2594.96	0.00185
2604.61	0.00167
2614.26	0.00165
2623.9	0.00166
2633.55	0.00161
2643.2	0.00159
2652.84	0.00161
2662.49	0.00141
2672.14	0.00142
2681.78	0.00142
2691.43	0.00153
2701.08	0.00163
2710.72	0.00186
2720.37	0.00235
2730.02	0.003056
2739.66	0.003509
2749.31	0.0038146
2758.96	0.0036789
2768.6	0.0038856
2778.25	0.0041821
2787.9	0.0038847
2797.54	0.0039466
2807.19	0.0044051
2816.84	0.00524
2826.48	0.00618
2836.13	0.00724
2845.77	0.00904
2855.42	0.01218
2865.07	0.01829
2874.71	0.02752
2884.36	0.03339
2894.01	0.03527
2903.65	0.04373
2913.3	0.05501
2922.95	0.064
2932.59	0.08376
2942.24	0.0886
2951.89	0.06777
2961.53	0.06712
2971.18	0.08056
2980.83	0.10963
2990.47	0.10289
3000.12	0.06907
3009.77	0.05047
3019.41	0.05155
3029.06	0.04816
3038.71	0.03096
3048.35	0.02674
3058	0.034
3067.64	0.04163
3077.29	0.03529
3086.94	0.01845
3096.58	0.01029
3106.23	0.00834
3115.88	0.00551
3125.52	0.00367664
3135.17	0.002966
3144.82	0.002695
3154.46	0.00257
3164.11	0.00193
3173.76	0.00137
3183.4	0.00121
3193.05	0.00103
3202.7	0.00112
3212.34	0.00091
3221.99	0.00094
3231.64	0.00051
3241.28	0.00057
3250.93	0.00045
3260.58	0.00029
3270.22	7e-05
3279.87	0.00023
3289.52	0
3299.16	0.0002
3308.81	0.0001
3318.45	0.00018
3328.1	0.00021
3337.75	0.00025
3347.39	0.00029
3357.04	0.00031
3366.69	0.00056
3376.33	0.00062
3385.98	0.00048
3395.63	0.00043
3405.27	0.00054
3414.92	0.00058
3424.57	0.00055
3434.21	0.00059
3443.86	0.0007
3453.51	0.00063
3463.15	0.00079
3472.8	0.00083
3482.45	0.00088
3492.09	0.0008
3501.74	0.00086
3511.39	0.00074
3521.03	0.00077
3530.68	0.00097
3540.33	0.00095
3549.97	0.001
3559.62	0.00088
3569.26	0.00093
3578.91	0.00104
3588.56	0.00106
3598.2	0.00119
3607.85	0.00115
3617.5	0.0012
3627.14	0.00132
3636.79	0.00123
3646.44	0.00125
3656.08	0.00132
3665.73	0.00132
3675.38	0.00133
3685.02	0.00128
3694.67	0.00128
3704.32	0.00144
3713.96	0.00146
3723.61	0.00144
3733.26	0.0015
3742.9	0.00171
3752.55	0.00156
3762.2	0.00168
3771.84	0.00182
3781.49	0.0017
3791.13	0.00177
3800.78	0.00158
3810.43	0.00166
3820.07	0.00173
3829.72	0.00175
3839.37	0.00181
3849.01	0.00178
3858.66	0.00181
3868.31	0.00184
3877.95	0.00195
3887.6	0.00197
3897.25	0.00208
3906.89	0.00228
3916.54	0.00213
3926.19	0.002
3935.83	0.00208
3945.48	0.00203
3955.13	0.0019
3964.77	0.00214
3974.42	0.00211
3984.07	0.00199
3993.71	0.00212
