Infrared Spectrum: Acetone 2-benzothiazolyhydrazone
Formula: C 10 H 11 N 3 S
CAS: 6277-26-5
State: gas
Origin: EPA-IR VAPOR PHASE LIBRARY
1/CM	ABSORBANCE
549.8	0.0043453
559.445	0.003171
569.09	0.00499
578.734	0.00454
588.379	0.00512
598.024	0.00463
607.669	0.0047
617.313	0.00486
626.958	0.0043582
636.603	0.00527
646.248	0.0068
655.893	0.00769
665.537	0.00742
675.182	0.00732
684.827	0.0112
694.472	0.00794
704.116	0.00753
713.761	0.01098
723.406	0.01672
733.051	0.01746
742.695	0.01845
752.34	0.0181
761.985	0.01024
771.63	0.00551
781.275	0.00494
790.919	0.00505
800.564	0.00524
810.209	0.00496
819.854	0.0053
829.498	0.00621
839.143	0.00596
848.788	0.00603
858.433	0.00588
868.078	0.00805
877.722	0.01287
887.367	0.00933
897.012	0.00627
906.657	0.00574
916.301	0.0062
925.946	0.00586
935.591	0.00548
945.236	0.00526
954.88	0.00586
964.525	0.00546
974.17	0.0059
983.815	0.00566
993.46	0.00636
1003.1	0.00754
1012.75	0.01059
1022.39	0.01038
1032.04	0.00936
1041.68	0.01158
1051.33	0.01135
1060.97	0.00977
1070.62	0.01014
1080.26	0.01123
1089.91	0.01162
1099.55	0.01548
1109.2	0.01684
1118.84	0.02375
1128.49	0.0252
1138.13	0.01333
1147.78	0.00577
1157.42	0.00472
1167.07	0.00347819
1176.71	0.00091
1186.36	0.00183
1196	0.00096
1205.64	0.003108
1215.29	0.00686
1224.93	0.01303
1234.58	0.02044
1244.22	0.03017
1253.87	0.01951
1263.51	0.00685
1273.16	0.00829
1282.8	0.00949
1292.45	0.00953
1302.09	0.01493
1311.74	0.01534
1321.38	0.02186
1331.03	0.01647
1340.67	0.0093
1350.32	0.00826
1359.96	0.01096
1369.61	0.01414
1379.25	0.01396
1388.9	0.01317
1398.54	0.01224
1408.18	0.01046
1417.83	0.00934
1427.47	0.01213
1437.12	0.02762
1446.76	0.03523
1456.41	0.01913
1466.05	0.02013
1475.7	0.01809
1485.34	0.00926
1494.99	0.00851
1504.63	0.00941
1514.28	0.0114
1523.92	0.01793
1533.57	0.03815
1543.21	0.08631
1552.86	0.10279
1562.5	0.06276
1572.15	0.04068
1581.79	0.03057
1591.44	0.04018
1601.08	0.07168
1610.73	0.07042
1620.37	0.04194
1630.01	0.03503
1639.66	0.04458
1649.3	0.03296
1658.95	0.01639
1668.59	0.01035
1678.24	0.00791
1687.88	0.00666
1697.53	0.00558
1707.17	0.00524
1716.82	0.00473
1726.46	0.00445
1736.11	0.0041091
1745.75	0.0044108
1755.4	0.0043451
1765.04	0.0043664
1774.69	0.0043745
1784.33	0.0042664
1793.98	0.0042557
1803.62	0.00468
1813.27	0.00464
1822.91	0.00453
1832.55	0.00471
1842.2	0.00443
1851.84	0.00464
1861.49	0.00476
1871.13	0.00509
1880.78	0.00506
1890.42	0.00504
1900.07	0.00464
1909.71	0.00481
1919.36	0.0053
1929	0.00499
1938.65	0.00442
1948.29	0.00451
1957.94	0.0042643
1967.58	0.00454
1977.23	0.0041982
1986.87	0.0043019
1996.52	0.00456
2006.16	0.0043632
2015.81	0.0047
2025.45	0.0042796
2035.1	0.00444
2044.74	0.00453
2054.38	0.00442
2064.03	0.00445
2073.67	0.00458
2083.32	0.00459
2092.96	0.00457
2102.61	0.0043728
2112.25	0.00448
2121.9	0.00464
2131.54	0.00472
2141.19	0.00456
2150.83	0.00451
2160.48	0.00476
2170.12	0.00479
2179.77	0.00447
2189.41	0.00468
2199.06	0.00498
2208.7	0.00451
2218.35	0.00472
2227.99	0.00482
2237.64	0.00496
2247.28	0.00478
2256.92	0.00464
2266.57	0.00468
2276.21	0.00473
2285.86	0.00462
2295.5	0.00485
2305.15	0.00479
2314.79	0.00497
2324.44	0.00455
2334.08	0.00489
2343.73	0.00475
2353.37	0.00454
2363.02	0.00465
2372.66	0.00446
2382.31	0.00473
2391.95	0.00448
2401.6	0.0047
2411.24	0.00459
2420.89	0.00502
2430.53	0.00528
2440.18	0.00491
2449.82	0.00515
2459.47	0.00489
2469.11	0.00512
2478.75	0.00511
2488.4	0.00528
2498.04	0.00488
2507.69	0.00484
2517.33	0.00455
2526.98	0.00515
2536.62	0.00501
2546.27	0.00476
2555.91	0.00462
2565.56	0.00511
2575.2	0.00478
2584.85	0.00513
2594.49	0.00565
2604.14	0.00534
2613.78	0.0054
2623.43	0.00524
2633.07	0.00513
2642.72	0.00481
2652.36	0.00537
2662.01	0.00474
2671.65	0.00524
2681.29	0.00518
2690.94	0.00507
2700.58	0.00514
2710.23	0.0051
2719.87	0.0052
2729.52	0.00571
2739.16	0.00539
2748.81	0.00516
2758.45	0.00511
2768.1	0.00549
2777.74	0.00549
2787.39	0.00501
2797.03	0.00551
2806.68	0.00584
2816.32	0.00583
2825.97	0.0062
2835.61	0.0066
2845.26	0.00747
2854.9	0.0086
2864.55	0.00896
2874.19	0.0087
2883.84	0.00803
2893.48	0.0083
2903.12	0.0088
2912.77	0.01153
2922.41	0.01876
2932.06	0.01558
2941.7	0.0108
2951.35	0.0107
2960.99	0.00892
2970.64	0.00785
2980.28	0.00768
2989.93	0.00861
2999.57	0.00985
3009.22	0.0086
3018.86	0.00809
3028.51	0.00805
3038.15	0.00881
3047.8	0.00921
3057.44	0.01069
3067.09	0.01469
3076.73	0.01509
3086.38	0.01091
3096.02	0.00782
3105.67	0.00592
3115.31	0.00591
3124.95	0.00562
3134.6	0.00517
3144.24	0.00535
3153.89	0.00498
3163.53	0.00519
3173.18	0.00498
3182.82	0.00464
3192.47	0.0042731
3202.11	0.00449
3211.76	0.00565
3221.4	0.00522
3231.05	0.00456
3240.69	0.0046
3250.34	0.00478
3259.98	0.00498
3269.63	0.0043551
3279.27	0.00469
3288.92	0.0049
3298.56	0.00467
3308.21	0.0038867
3317.85	0.00481
3327.49	0.00464
3337.14	0.00468
3346.78	0.00482
3356.43	0.00617
3366.07	0.00686
3375.72	0.00832
3385.36	0.00811
3395.01	0.00616
3404.65	0.00506
3414.3	0.00516
3423.94	0.00613
3433.59	0.00703
3443.23	0.00561
3452.88	0.00519
3462.52	0.00602
3472.17	0.00674
3481.81	0.00591
3491.46	0.00456
3501.1	0.0037056
3510.75	0.0042061
3520.39	0.0036099
3530.04	0.0041914
3539.68	0.0039914
3549.32	0.004002
3558.97	0.0036949
3568.61	0.0036721
3578.26	0.00344748
3587.9	0.0043491
3597.55	0.003541
3607.19	0.0039647
3616.84	0.0043233
3626.48	0.003249
3636.13	0.004346
3645.77	0.0044165
3655.42	0.0042523
3665.06	0.0036741
3674.71	0.0038475
3684.35	0.003703
3694	0.0038037
3703.64	0.0037148
3713.29	0.00456
3722.93	0.0038078
3732.58	0.0043013
3742.22	0.0041933
3751.86	0.0037757
3761.51	0.0040184
3771.15	0.0039419
3780.8	0.0042754
3790.44	0.0041901
3800.09	0.0037101
3809.73	0.0040567
3819.38	0.0039747
3829.02	0.0037922
3838.67	0.0042525
3848.31	0.0038019
3857.96	0.0039695
3867.6	0.0043126
3877.25	0.00459
3886.89	0.0038862
3896.54	0.0043
3906.18	0.0039276
3915.83	0.0034527
3925.47	0.00449
3935.12	0.00459
3944.76	0.0043904
3954.41	0.00483
3964.05	0.00496
3973.69	0.0038118
3983.34	0.0042847
3992.98	0.00518
