Infrared Spectrum: 1-METHYL-3,4-DIHYDRO-2-NAPHTHOIC ACID
Formula: C12 H12 O2
CAS: 6279-88-5
State: SOLID (1.0% IN KBr PELLET)
Class: COBLENTZ
Instrument: Not specified, most likely a prism, grating, or hybrid spectrometer.
Sampling: TRANSMISSION
Path length: 0.0355 CM THICK
Resolution: 4
Origin: ANDERSON PHYSICAL LABORATORY
1/CM	TRANSMITTANCE
670.306	0.725
678.728	0.725
687.149	0.728
695.571	0.72
703.993	0.704
712.415	0.6261
720.836	0.632
729.258	0.2401
737.68	0.5429
746.101	0.642
754.523	0.165
762.945	0.3454
771.367	0.4834
779.788	0.5988
788.21	0.5339
796.632	0.818
805.053	0.831
813.475	0.827
821.897	0.809
830.319	0.78
838.74	0.74
847.162	0.6651
855.584	0.6389
864.005	0.726
872.427	0.738
880.849	0.698
889.271	0.707
897.692	0.699
906.114	0.654
914.536	0.579
922.957	0.481
931.379	0.397
939.801	0.391
948.223	0.4348
956.644	0.587
965.066	0.669
973.488	0.711
981.909	0.72
990.331	0.72
998.753	0.764
1007.17	0.753
1015.6	0.6871
1024.02	0.581
1032.44	0.63
1040.86	0.686
1049.28	0.75
1057.7	0.753
1066.13	0.755
1074.55	0.758
1082.97	0.767
1091.39	0.768
1099.81	0.755
1108.24	0.732
1116.66	0.702
1125.08	0.605
1133.5	0.645
1141.92	0.602
1150.34	0.66
1158.77	0.653
1167.19	0.54
1175.61	0.438
1184.03	0.549
1192.45	0.519
1200.87	0.447
1209.3	0.387
1217.72	0.3241
1226.14	0.213
1234.56	0.412
1242.98	0.474
1251.4	0.439
1259.83	0.315
1268.25	0.1481
1276.67	0.1629
1285.09	0.2161
1293.51	0.12
1301.93	0.18
1310.36	0.157
1318.78	0.121
1327.2	0.322
1335.62	0.599
1344.04	0.552
1352.46	0.6139
1360.89	0.5721
1369.31	0.5
1377.73	0.603
1386.15	0.4631
1394.57	0.369
1403	0.501
1411.42	0.444
1419.84	0.474
1428.26	0.384
1436.68	0.2101
1445.1	0.2799
1453.53	0.354
1461.95	0.2999
1470.37	0.528
1478.79	0.657
1487.21	0.714
1495.63	0.68
1504.06	0.738
1512.48	0.732
1520.9	0.698
1529.32	0.668
1537.74	0.656
1546.16	0.63
1554.59	0.575
1563.01	0.489
1571.43	0.307
1579.85	0.465
1588.27	0.495
1596.69	0.399
1605.12	0.2441
1613.54	0.168
1621.96	0.2729
1630.38	0.288
1638.8	0.21
1647.23	0.103
1655.65	0.025
1664.07	0.013
1672.49	0.033
1680.91	0.103
1689.33	0.111
1697.76	0.1319
1706.18	0.3159
1714.6	0.5629
1723.02	0.683
1731.44	0.78
1739.86	0.791
1748.29	0.815
1756.71	0.824
1765.13	0.821
1773.55	0.803
1781.97	0.783
1790.39	0.756
1798.82	0.746
1807.24	0.728
1815.66	0.728
1824.08	0.743
1832.5	0.747
1840.92	0.735
1849.35	0.738
1857.77	0.747
1866.19	0.741
1874.61	0.737
1883.03	0.731
1891.45	0.723
1899.88	0.731
1908.3	0.732
1916.72	0.72
1925.14	0.717
1933.56	0.737
1941.99	0.738
1950.41	0.723
1958.83	0.726
1967.25	0.744
1975.67	0.749
1984.09	0.749
1992.52	0.747
2000.94	0.746
2009.36	0.744
2017.78	0.7403
2026.2	0.737
2034.62	0.732
2043.05	0.7284
2051.47	0.7252
2059.89	0.723
2068.31	0.723
2076.73	0.723
2085.15	0.723
2093.58	0.722
2102	0.7182
2110.42	0.7144
2118.84	0.7023
2127.26	0.699
2135.68	0.696
2144.11	0.6914
2152.53	0.6836
2160.95	0.6799
2169.37	0.6777
2177.79	0.6724
2186.21	0.6682
2194.64	0.6648
2203.06	0.6591
2211.48	0.6523
2219.9	0.6446
2228.32	0.6417
2236.75	0.6327
2245.17	0.63
2253.59	0.6245
2262.01	0.6209
2270.43	0.6193
2278.85	0.6132
2287.28	0.6063
2295.7	0.5999
2304.12	0.5937
2312.54	0.5852
2320.96	0.5795
2329.38	0.5726
2337.81	0.5649
2346.23	0.5592
2354.65	0.5554
2363.07	0.5519
2371.49	0.5486
2379.91	0.5411
2388.34	0.537
2396.76	0.523
2405.18	0.5085
2413.6	0.4961
2422.02	0.4909
2430.44	0.4832
2438.87	0.4705
2447.29	0.4581
2455.71	0.4503
2464.13	0.4397
2472.55	0.4198
2480.97	0.4084
2489.4	0.403
2497.82	0.3964
2506.24	0.385
2514.66	0.3741
2523.08	0.3633
2531.51	0.3575
2539.93	0.3473
2548.35	0.3386
2556.77	0.3314
2565.19	0.3264
2573.61	0.3231
2582.04	0.3166
2590.46	0.3131
2598.88	0.2998
2607.3	0.2931
2615.72	0.292
2624.14	0.2948
2632.57	0.297
2640.99	0.297
2649.41	0.2926
2657.83	0.292
2666.25	0.2942
2674.67	0.2975
2683.1	0.3022
2691.52	0.304
2699.94	0.3062
2708.36	0.308
2716.78	0.3115
2725.2	0.316
2733.63	0.319
2742.05	0.321
2750.47	0.3195
2758.89	0.319
2767.31	0.315
2775.73	0.31
2784.16	0.2932
2792.58	0.2789
2801	0.2679
2809.42	0.2535
2817.84	0.2492
2826.27	0.2428
2834.69	0.2176
2843.11	0.2054
2851.53	0.204
2859.95	0.202
2868.37	0.202
2876.8	0.202
2885.22	0.202
2893.64	0.202
2902.06	0.202
2910.48	0.2015
2918.9	0.1994
2927.33	0.1979
2935.75	0.196
2944.17	0.198
2952.59	0.199
2961.01	0.204
2969.43	0.1978
2977.86	0.1939
2986.28	0.19
2994.7	0.1924
3003.12	0.2075
3011.54	0.2152
3019.96	0.217
3028.39	0.213
3036.81	0.2133
3045.23	0.2184
3053.65	0.2255
3062.07	0.2262
3070.49	0.2283
3078.92	0.2346
3087.34	0.2539
3095.76	0.2722
3104.18	0.2987
3112.6	0.3192
3121.03	0.3324
3129.45	0.3471
3137.87	0.3703
3146.29	0.3902
3154.71	0.4038
3163.13	0.4282
3171.56	0.4492
3179.98	0.4668
3188.4	0.4766
3196.82	0.4954
3205.24	0.5018
3213.66	0.5099
3222.09	0.5207
3230.51	0.5244
3238.93	0.5318
3247.35	0.5442
3255.77	0.5662
3264.19	0.5705
3272.62	0.5811
3281.04	0.585
3289.46	0.5954
3297.88	0.6044
3306.3	0.6123
3314.72	0.615
3323.15	0.6169
3331.57	0.6184
3339.99	0.6219
3348.41	0.623
3356.83	0.623
3365.25	0.62
3373.68	0.6157
3382.1	0.6096
3390.52	0.6051
3398.94	0.598
3407.36	0.5896
3415.79	0.5819
3424.21	0.579
3432.63	0.5746
3441.05	0.5711
3449.47	0.569
3457.89	0.569
3466.32	0.569
3474.74	0.5695
3483.16	0.5722
3491.58	0.576
3500	0.578
3508.42	0.579
3516.85	0.5817
3525.27	0.585
3533.69	0.5885
3542.11	0.592
3550.53	0.593
3558.95	0.591
3567.38	0.591
3575.8	0.593
3584.22	0.5998
3592.64	0.6031
3601.06	0.6065
3609.48	0.6131
3617.91	0.6196
3626.33	0.6211
3634.75	0.6263
3643.17	0.627
3651.59	0.629
3660.02	0.633
3668.44	0.635
3676.86	0.635
3685.28	0.6376
3693.7	0.638
3702.12	0.638
3710.55	0.638
3718.97	0.638
3727.39	0.638
3735.81	0.6374
3744.23	0.635
3752.65	0.6325
3761.08	0.632
3769.5	0.632
3777.92	0.632
3786.34	0.632
3794.76	0.6297
3803.18	0.6253
3811.61	0.6186
3820.03	0.6153
3828.45	0.614
3836.87	0.612
3845.29	0.611
3853.71	0.611
3862.14	0.611
3870.56	0.611
3878.98	0.609
3887.4	0.609
3895.82	0.606
3904.24	0.6056
3912.67	0.6037
3921.09	0.602
3929.51	0.602
3937.93	0.6012
3946.35	0.6
3954.78	0.5972
3963.2	0.5956
3971.62	0.5906
