Infrared Spectrum: 1,6-DI-(2,4-DINITRO-PHENYL)-HEXANE
Formula: C18 H18 N4 O8
CAS: 6279-98-7
State: SOLID (0.30% IN KBr PELLET)
Class: COBLENTZ
Instrument: Not specified, most likely a prism, grating, or hybrid spectrometer.
Sampling: TRANSMISSION
Path length: 0.0355 CM THICK
Resolution: 4
Origin: ANDERSON PHYSICAL LABORATORY
1/CM	TRANSMITTANCE
670.412	0.754
678.839	0.812
687.266	0.859
695.693	0.859
704.12	0.847
712.547	0.811
720.974	0.46
729.401	0.5559
737.828	0.755
746.255	0.383
754.682	0.881
763.109	0.913
771.536	0.913
779.963	0.928
788.39	0.893
796.817	0.916
805.244	0.881
813.671	0.733
822.097	0.874
830.524	0.859
838.951	0.532
847.378	0.896
855.805	0.7421
864.232	0.8499
872.659	0.937
881.086	0.931
889.513	0.923
897.94	0.901
906.367	0.796
914.794	0.544
923.221	0.731
931.648	0.8738
940.075	0.934
948.502	0.929
956.929	0.919
965.356	0.911
973.783	0.902
982.21	0.89
990.637	0.892
999.064	0.817
1007.49	0.895
1015.92	0.896
1024.34	0.892
1032.77	0.886
1041.2	0.865
1049.63	0.856
1058.05	0.808
1066.48	0.659
1074.91	0.815
1083.33	0.839
1091.76	0.809
1100.19	0.7089
1108.61	0.854
1117.04	0.857
1125.47	0.853
1133.9	0.841
1142.32	0.7631
1150.75	0.758
1159.18	0.6169
1167.6	0.86
1176.03	0.868
1184.46	0.863
1192.88	0.859
1201.31	0.847
1209.74	0.836
1218.17	0.818
1226.59	0.853
1235.02	0.847
1243.45	0.836
1251.87	0.806
1260.3	0.794
1268.73	0.784
1277.15	0.754
1285.58	0.712
1294.01	0.724
1302.43	0.707
1310.86	0.616
1319.29	0.599
1327.72	0.535
1336.14	0.406
1344.57	0.124
1353	0.041
1361.42	0.1309
1369.85	0.3309
1378.28	0.509
1386.7	0.673
1395.13	0.794
1403.56	0.788
1411.99	0.755
1420.41	0.815
1428.84	0.827
1437.27	0.811
1445.69	0.77
1454.12	0.734
1462.55	0.676
1470.97	0.6371
1479.4	0.4639
1487.83	0.593
1496.26	0.569
1504.68	0.422
1513.11	0.227
1521.54	0.0821
1529.96	0.055
1538.39	0.0819
1546.82	0.2059
1555.24	0.3769
1563.67	0.6109
1572.1	0.686
1580.52	0.737
1588.95	0.724
1597.38	0.577
1605.81	0.2603
1614.23	0.2959
1622.66	0.6368
1631.09	0.772
1639.51	0.814
1647.94	0.823
1656.37	0.875
1664.79	0.88
1673.22	0.895
1681.65	0.899
1690.08	0.908
1698.5	0.896
1706.93	0.905
1715.36	0.896
1723.78	0.917
1732.21	0.911
1740.64	0.919
1749.06	0.923
1757.49	0.923
1765.92	0.922
1774.35	0.923
1782.77	0.92
1791.2	0.917
1799.63	0.922
1808.05	0.917
1816.48	0.908
1824.91	0.887
1833.33	0.896
1841.76	0.905
1850.19	0.916
1858.61	0.913
1867.04	0.913
1875.47	0.916
1883.9	0.914
1892.32	0.914
1900.75	0.911
1909.18	0.911
1917.6	0.907
1926.03	0.907
1934.46	0.905
1942.88	0.901
1951.31	0.895
1959.74	0.887
1968.17	0.887
1976.59	0.899
1985.02	0.901
1993.45	0.901
2001.87	0.898
2010.3	0.898
2018.73	0.896
2027.15	0.896
2035.58	0.896
2044.01	0.8953
2052.44	0.893
2060.86	0.89
2069.29	0.889
2077.72	0.889
2086.14	0.889
2094.57	0.889
2103	0.89
2111.42	0.89
2119.85	0.889
2128.28	0.889
2136.7	0.887
2145.13	0.887
2153.56	0.887
2161.99	0.886
2170.41	0.884
2178.84	0.883
2187.27	0.881
2195.69	0.88
2204.12	0.88
2212.55	0.878
2220.97	0.878
2229.4	0.878
2237.83	0.877
2246.26	0.8743
2254.68	0.872
2263.11	0.869
2271.54	0.868
2279.96	0.866
2288.39	0.865
2296.82	0.863
2305.24	0.864
2313.67	0.865
2322.1	0.866
2330.53	0.8665
2338.95	0.8685
2347.38	0.869
2355.81	0.869
2364.23	0.868
2372.66	0.867
2381.09	0.865
2389.51	0.859
2397.94	0.8555
2406.37	0.853
2414.8	0.853
2423.22	0.851
2431.65	0.8508
2440.08	0.85
2448.5	0.8473
2456.93	0.844
2465.36	0.8418
2473.78	0.841
2482.21	0.841
2490.64	0.841
2499.06	0.841
2507.49	0.843
2515.92	0.844
2524.35	0.844
2532.77	0.844
2541.2	0.843
2549.63	0.842
2558.05	0.842
2566.48	0.8405
2574.91	0.8385
2583.33	0.8365
2591.76	0.835
2600.19	0.8315
2608.62	0.828
2617.04	0.8245
2625.47	0.823
2633.9	0.821
2642.32	0.8205
2650.75	0.8185
2659.18	0.817
2667.6	0.814
2676.03	0.812
2684.46	0.811
2692.89	0.811
2701.31	0.809
2709.74	0.807
2718.17	0.805
2726.59	0.803
2735.02	0.8015
2743.45	0.799
2751.87	0.7975
2760.3	0.794
2768.73	0.7895
2777.15	0.7865
2785.58	0.7753
2794.01	0.761
2802.44	0.7578
2810.86	0.7436
2819.29	0.7259
2827.72	0.695
2836.14	0.6206
2844.57	0.6
2853	0.6054
2861.42	0.634
2869.85	0.6625
2878.28	0.673
2886.71	0.674
2895.13	0.6532
2903.56	0.6288
2911.99	0.5952
2920.41	0.5554
2928.84	0.553
2937.27	0.6107
2945.69	0.6639
2954.12	0.7113
2962.55	0.7339
2970.98	0.7392
2979.4	0.7455
2987.83	0.749
2996.26	0.752
3004.68	0.7503
3013.11	0.7455
3021.54	0.7435
3029.96	0.74
3038.39	0.7323
3046.82	0.726
3055.24	0.7243
3063.67	0.721
3072.1	0.712
3080.53	0.6986
3088.95	0.6695
3097.38	0.6461
3105.81	0.6325
3114.23	0.6474
3122.66	0.6677
3131.09	0.7209
3139.51	0.76
3147.94	0.76
3156.37	0.76
3164.8	0.758
3173.22	0.757
3181.65	0.755
3190.08	0.754
3198.5	0.751
3206.93	0.7488
3215.36	0.747
3223.78	0.7453
3232.21	0.745
3240.64	0.7415
3249.07	0.739
3257.49	0.7363
3265.92	0.733
3274.35	0.7295
3282.77	0.726
3291.2	0.7218
3299.63	0.718
3308.05	0.715
3316.48	0.711
3324.91	0.709
3333.33	0.703
3341.76	0.7008
3350.19	0.696
3358.62	0.6853
3367.04	0.676
3375.47	0.6671
3383.9	0.6615
3392.32	0.6538
3400.75	0.65
3409.18	0.65
3417.6	0.651
3426.03	0.6527
3434.46	0.653
3442.89	0.6552
3451.31	0.6585
3459.74	0.6632
3468.17	0.667
3476.59	0.6702
3485.02	0.6735
3493.45	0.6767
3501.87	0.682
3510.3	0.6835
3518.73	0.6855
3527.16	0.6875
3535.58	0.689
3544.01	0.6947
3552.44	0.7005
3560.86	0.7084
3569.29	0.713
3577.72	0.7197
3586.14	0.7245
3594.57	0.7265
3603	0.728
3611.42	0.7332
3619.85	0.736
3628.28	0.737
3636.71	0.737
3645.13	0.737
3653.56	0.737
3661.99	0.737
3670.41	0.737
3678.84	0.737
3687.27	0.738
3695.69	0.74
3704.12	0.739
3712.55	0.736
3720.98	0.736
3729.4	0.736
3737.83	0.736
3746.26	0.736
3754.68	0.7365
3763.11	0.737
3771.54	0.736
3779.96	0.736
3788.39	0.736
3796.82	0.736
3805.25	0.734
3813.67	0.734
3822.1	0.735
3830.53	0.736
3838.95	0.734
3847.38	0.734
3855.81	0.734
3864.23	0.734
3872.66	0.734
3881.09	0.7345
3889.51	0.736
3897.94	0.736
3906.37	0.736
3914.8	0.7355
3923.22	0.7335
3931.65	0.731
3940.08	0.73
3948.5	0.727
3956.93	0.727
3965.36	0.725
3973.78	0.727
