Infrared Spectrum: 4'-CHLORO-2-HYDROXY-5-METHYLBENZOPHENONE
Formula: C14 H11 Cl O2
CAS: 6279-05-6
State: SOLUTION (10% IN CCl4 FOR 5000-1350 CM^-^1, 10% IN CS2 FOR 1350-625 CM^-^1)
Class: COBLENTZ
Instrument: Not specified, most likely a prism, grating, or hybrid spectrometer.
Sampling: TRANSMISSION
Path length: 0.01 CM, 0.01 CM
Resolution: 4
Origin: DOW CHEMICAL COMPANY
MICROMETERS	TRANSMITTANCE
2.022	0.849
2.06112	0.851
2.10024	0.849
2.13935	0.841
2.17847	0.847
2.21759	0.851
2.25671	0.851
2.29583	0.849
2.33495	0.852
2.37406	0.859
2.41318	0.862
2.4523	0.864
2.49142	0.87
2.53054	0.87
2.56966	0.868
2.60877	0.867
2.64789	0.865
2.68701	0.862
2.72613	0.859
2.76525	0.855
2.80437	0.846
2.84348	0.843
2.8826	0.822
2.92172	0.8
2.96084	0.775
2.99996	0.744
3.03908	0.708
3.07819	0.671
3.11731	0.65
3.15643	0.644
3.19555	0.632
3.23467	0.611
3.27379	0.577
3.3129	0.6
3.35202	0.619
3.39114	0.595
3.43026	0.677
3.46938	0.708
3.5085	0.778
3.54761	0.784
3.58673	0.8
3.62585	0.804
3.66497	0.812
3.70409	0.823
3.74321	0.839
3.78232	0.844
3.82144	0.839
3.86056	0.839
3.89968	0.847
3.9388	0.862
3.97792	0.87
4.01703	0.877
4.05615	0.872
4.09527	0.873
4.13439	0.878
4.17351	0.872
4.21263	0.859
4.25174	0.852
4.29086	0.868
4.32998	0.862
4.3691	0.873
4.40822	0.885
4.44734	0.891
4.48645	0.899
4.52557	0.894
4.56469	0.898
4.60381	0.896
4.64293	0.896
4.68205	0.899
4.72116	0.898
4.76028	0.891
4.7994	0.877
4.83852	0.891
4.87764	0.889
4.91675	0.881
4.95587	0.883
4.99499	0.881
5.03411	0.885
5.07323	0.881
5.11235	0.888
5.15146	0.867
5.19058	0.813
5.2297	0.86
5.26882	0.881
5.30794	0.878
5.34706	0.86
5.38617	0.857
5.42529	0.877
5.46441	0.87
5.50353	0.87
5.54265	0.841
5.58177	0.82
5.62088	0.854
5.66	0.87
5.69912	0.857
5.73824	0.841
5.77736	0.83
5.81648	0.83
5.85559	0.815
5.89471	0.789
5.93383	0.741
5.97295	0.7
6.01207	0.624
6.05119	0.456
6.0903	0.114
6.12942	0.092
6.16854	0.132
6.20766	0.051
6.24678	0.064
6.2859	0.074
6.32501	0.26
6.36413	0.266
6.40325	0.292
6.44237	0.328
6.48149	0.394
6.52061	0.449
6.55972	0.472
6.59884	0.483
6.63796	0.396
6.67708	0.265
6.7162	0.048
6.75532	0.2
6.79443	0.456
6.83355	0.548
6.87267	0.577
6.91179	0.588
6.95091	0.611
6.99003	0.658
7.02914	0.606
7.06826	0.485
7.10738	0.328
7.1465	0.37
7.18562	0.516
7.22474	0.542
7.26385	0.512
7.30297	0.469
7.34209	0.375
7.38121	0.221
7.42033	0.084
7.45945	0.046
7.49856	0.134
7.53768	0.294
7.5768	0.411
7.61592	0.388
7.65504	0.224
7.69415	0.101
7.73327	0.31
7.77239	0.491
7.81151	0.522
7.85063	0.553
7.88975	0.504
7.92886	0.396
7.96798	0.171
8.0071	0.045
8.04622	0.165
8.08534	0.205
8.12446	0.126
8.16357	0.033
8.20269	0.085
8.24181	0.153
8.28093	0.224
8.32005	0.42
8.35917	0.588
8.39828	0.64
8.4374	0.611
8.47652	0.47
8.51564	0.616
8.55476	0.729
8.59388	0.758
8.63299	0.76
8.67211	0.749
8.71123	0.677
8.75035	0.49
8.78947	0.268
8.82859	0.491
8.8677	0.598
8.90682	0.495
8.94594	0.525
8.98506	0.61
9.02418	0.584
9.0633	0.588
9.10241	0.503
9.14153	0.255
9.18065	0.158
9.21977	0.595
9.25889	0.775
9.29801	0.789
9.33712	0.799
9.37624	0.815
9.41536	0.813
9.45448	0.8
9.4936	0.797
9.53272	0.779
9.57183	0.77
9.61095	0.791
9.65007	0.815
9.68919	0.826
9.72831	0.822
9.76743	0.741
9.80654	0.48
9.84566	0.59
9.88478	0.826
9.9239	0.841
9.96302	0.868
10.0021	0.873
10.0413	0.872
10.0804	0.868
10.1195	0.862
10.1586	0.851
10.1977	0.831
10.2368	0.786
10.276	0.71
10.3151	0.59
10.3542	0.414
10.3933	0.182
10.4324	0.207
10.4716	0.454
10.5107	0.482
10.5498	0.538
10.5889	0.69
10.628	0.781
10.6671	0.81
10.7063	0.831
10.7454	0.839
10.7845	0.839
10.8236	0.833
10.8627	0.833
10.9019	0.833
10.941	0.826
10.9801	0.822
11.0192	0.81
11.0583	0.799
11.0974	0.779
11.1366	0.739
11.1757	0.711
11.2148	0.731
11.2539	0.742
11.293	0.729
11.3322	0.702
11.3713	0.673
11.4104	0.635
11.4495	0.572
11.4886	0.495
11.5277	0.375
11.5669	0.229
11.606	0.169
11.6451	0.281
11.6842	0.407
11.7233	0.47
11.7625	0.472
11.8016	0.393
11.8407	0.21
11.8798	0.142
11.9189	0.27
11.9581	0.372
11.9972	0.368
12.0363	0.21
12.0754	0.069
12.1145	0.144
12.1536	0.323
12.1928	0.446
12.2319	0.525
12.271	0.542
12.3101	0.542
12.3492	0.529
12.3884	0.506
12.4275	0.474
12.4666	0.43
12.5057	0.375
12.5448	0.297
12.5839	0.223
12.6231	0.144
12.6622	0.076
12.7013	0.04
12.7404	0.061
12.7795	0.142
12.8187	0.286
12.8578	0.422
12.8969	0.543
12.936	0.6
12.9751	0.627
13.0142	0.637
13.0534	0.626
13.0925	0.605
13.1316	0.59
13.1707	0.571
13.2098	0.55
13.249	0.527
13.2881	0.509
13.3272	0.498
13.3663	0.482
13.4054	0.47
13.4445	0.451
13.4837	0.401
13.5228	0.325
13.5619	0.315
13.601	0.38
13.6401	0.438
13.6793	0.461
13.7184	0.474
13.7575	0.488
13.7966	0.495
13.8357	0.462
13.8748	0.404
13.914	0.389
13.9531	0.417
13.9922	0.448
14.0313	0.469
14.0704	0.487
14.1096	0.496
14.1487	0.503
14.1878	0.509
14.2269	0.514
14.266	0.517
14.3051	0.519
14.3443	0.519
14.3834	0.516
14.4225	0.504
14.4616	0.491
14.5007	0.474
14.5399	0.456
14.579	0.444
14.6181	0.432
14.6572	0.401
14.6963	0.352
14.7355	0.291
14.7746	0.266
14.8137	0.309
14.8528	0.359
14.8919	0.402
14.931	0.44
14.9702	0.472
15.0093	0.49
15.0484	0.493
15.0875	0.485
15.1266	0.475
15.1658	0.469
15.2049	0.461
15.244	0.454
15.2831	0.448
15.3222	0.441
15.3613	0.436
15.4005	0.432
15.4396	0.427
15.4787	0.423
15.5178	0.417
15.5569	0.411
15.5961	0.404
15.6352	0.399
15.6743	0.391
15.7134	0.386
15.7525	0.381
15.7916	0.373
15.8308	0.365
15.8699	0.367
15.909	0.38
