Infrared Spectrum: 3-ACETAMIDO-4-METHOXY-BIPHENYL
Formula: C15 H15 N O2
CAS: 6279-48-7
State: SOLID (1.0% IN KBr PELLET)
Class: COBLENTZ
Instrument: Not specified, most likely a prism, grating, or hybrid spectrometer.
Sampling: TRANSMISSION
Path length: 0.0355 CM THICK
Resolution: 4
Origin: ANDERSON PHYSICAL LABORATORY
1/CM	TRANSMITTANCE
670.2	0.582
678.616	0.565
687.033	0.576
695.449	0.3902
703.866	0.4288
712.282	0.681
720.699	0.764
729.115	0.747
737.532	0.808
745.948	0.796
754.365	0.724
762.781	0.0614
771.198	0.3747
779.614	0.835
788.031	0.871
796.447	0.782
804.864	0.869
813.28	0.6552
821.697	0.679
830.113	0.884
838.529	0.892
846.946	0.857
855.362	0.865
863.779	0.89
872.195	0.875
880.612	0.827
889.028	0.408
897.445	0.841
905.861	0.854
914.278	0.839
922.694	0.832
931.111	0.841
939.527	0.853
947.944	0.851
956.36	0.826
964.777	0.75
973.193	0.682
981.609	0.778
990.026	0.775
998.442	0.73
1006.86	0.607
1015.28	0.2846
1023.69	0.1389
1032.11	0.5188
1040.52	0.657
1048.94	0.648
1057.36	0.5889
1065.77	0.827
1074.19	0.823
1082.61	0.814
1091.02	0.808
1099.44	0.803
1107.86	0.788
1116.27	0.751
1124.69	0.715
1133.11	0.613
1141.52	0.2611
1149.94	0.2989
1158.36	0.658
1166.77	0.646
1175.19	0.646
1183.6	0.5068
1192.02	0.586
1200.44	0.6099
1208.85	0.597
1217.27	0.633
1225.69	0.594
1234.1	0.507
1242.52	0.324
1250.94	0.104
1259.35	0.194
1267.77	0.193
1276.19	0.041
1284.6	0.2688
1293.02	0.517
1301.44	0.3981
1309.85	0.4349
1318.27	0.351
1326.68	0.446
1335.1	0.488
1343.52	0.559
1351.93	0.621
1360.35	0.604
1368.77	0.5081
1377.18	0.302
1385.6	0.4399
1394.02	0.483
1402.43	0.417
1410.85	0.35
1419.27	0.065
1427.68	0.233
1436.1	0.377
1444.52	0.2
1452.93	0.3679
1461.35	0.2811
1469.76	0.179
1478.18	0.211
1486.6	0.047
1495.01	0.085
1503.43	0.131
1511.85	0.1851
1520.26	0.335
1528.68	0.423
1537.1	0.2881
1545.51	0.067
1553.93	0.056
1562.35	0.205
1570.76	0.303
1579.18	0.209
1587.6	0.345
1596.01	0.134
1604.43	0.2809
1612.84	0.3779
1621.26	0.505
1629.68	0.537
1638.09	0.555
1646.51	0.522
1654.93	0.266
1663.34	0.061
1671.76	0.071
1680.18	0.299
1688.59	0.6298
1697.01	0.752
1705.43	0.899
1713.84	0.929
1722.26	0.955
1730.68	0.949
1739.09	0.949
1747.51	0.955
1755.93	0.953
1764.34	0.932
1772.76	0.94
1781.17	0.989
1789.59	0.988
1798.01	0.985
1806.42	0.971
1814.84	0.952
1823.26	0.964
1831.67	0.976
1840.09	0.968
1848.51	0.964
1856.92	0.935
1865.34	0.94
1873.76	0.964
1882.17	0.953
1890.59	0.934
1899.01	0.934
1907.42	0.932
1915.84	0.937
1924.25	0.949
1932.67	0.941
1941.09	0.938
1949.5	0.935
1957.92	0.929
1966.34	0.895
1974.75	0.895
1983.17	0.908
1991.59	0.91
2000	0.931
2008.42	0.929
2016.84	0.9235
2025.25	0.9123
2033.67	0.901
2042.09	0.8953
2050.5	0.9015
2058.92	0.9062
2067.33	0.908
2075.75	0.911
2084.17	0.911
2092.58	0.911
2101	0.911
2109.42	0.9095
2117.83	0.908
2126.25	0.908
2134.67	0.908
2143.08	0.907
2151.5	0.903
2159.92	0.8982
2168.33	0.896
2176.75	0.896
2185.17	0.895
2193.58	0.8934
2202	0.8919
2210.41	0.8862
2218.83	0.882
2227.25	0.88
2235.66	0.878
2244.08	0.878
2252.5	0.8759
2260.91	0.87
2269.33	0.869
2277.75	0.8674
2286.16	0.8639
2294.58	0.863
2303	0.86
2311.41	0.8531
2319.83	0.85
2328.25	0.85
2336.66	0.85
2345.08	0.85
2353.49	0.85
2361.91	0.85
2370.33	0.85
2378.74	0.848
2387.16	0.8459
2395.58	0.8424
2403.99	0.8389
2412.41	0.836
2420.83	0.8354
2429.24	0.8334
2437.66	0.8319
2446.08	0.83
2454.49	0.8294
2462.91	0.8274
2471.33	0.8239
2479.74	0.8177
2488.16	0.8133
2496.57	0.806
2504.99	0.7989
2513.41	0.7967
2521.82	0.7948
2530.24	0.793
2538.66	0.7909
2547.07	0.7893
2555.49	0.7874
2563.91	0.7853
2572.32	0.7849
2580.74	0.781
2589.16	0.7784
2597.57	0.7763
2605.99	0.775
2614.41	0.7727
2622.82	0.772
2631.24	0.772
2639.65	0.773
2648.07	0.772
2656.49	0.7694
2664.9	0.7662
2673.32	0.7627
2681.74	0.758
2690.15	0.758
2698.57	0.7571
2706.99	0.7518
2715.4	0.7476
2723.82	0.7402
2732.24	0.738
2740.65	0.7345
2749.07	0.7255
2757.49	0.7191
2765.9	0.7127
2774.32	0.7059
2782.73	0.702
2791.15	0.7
2799.57	0.6972
2807.98	0.6778
2816.4	0.6588
2824.82	0.654
2833.23	0.6597
2841.65	0.6674
2850.07	0.672
2858.48	0.6681
2866.9	0.6613
2875.32	0.646
2883.73	0.6397
2892.15	0.6242
2900.57	0.6024
2908.98	0.5937
2917.4	0.5844
2925.81	0.5612
2934.23	0.5524
2942.65	0.5485
2951.06	0.5406
2959.48	0.5442
2967.9	0.5515
2976.31	0.5593
2984.73	0.5543
2993.15	0.5374
3001.56	0.5292
3009.98	0.5193
3018.4	0.514
3026.81	0.5153
3035.23	0.5169
3043.65	0.517
3052.06	0.517
3060.48	0.517
3068.89	0.5142
3077.31	0.513
3085.73	0.511
3094.14	0.51
3102.56	0.51
3110.98	0.5067
3119.39	0.4993
3127.81	0.4888
3136.23	0.4734
3144.64	0.4606
3153.06	0.4547
3161.48	0.4458
3169.89	0.4293
3178.31	0.4157
3186.73	0.4044
3195.14	0.3962
3203.56	0.3813
3211.97	0.3738
3220.39	0.3617
3228.81	0.328
3237.22	0.2918
3245.64	0.2496
3254.06	0.228
3262.47	0.2173
3270.89	0.217
3279.31	0.2184
3287.72	0.2281
3296.14	0.259
3304.56	0.3011
3312.97	0.3346
3321.39	0.3831
3329.81	0.4304
3338.22	0.4751
3346.64	0.5025
3355.05	0.5184
3363.47	0.53
3371.89	0.5399
3380.3	0.5414
3388.72	0.5435
3397.14	0.544
3405.55	0.546
3413.97	0.547
3422.39	0.549
3430.8	0.5515
3439.22	0.5608
3447.64	0.568
3456.05	0.57
3464.47	0.57
3472.89	0.571
3481.3	0.5737
3489.72	0.5795
3498.13	0.582
3506.55	0.583
3514.97	0.5852
3523.38	0.588
3531.8	0.5905
3540.22	0.594
3548.63	0.5973
3557.05	0.598
3565.47	0.6
3573.88	0.6041
3582.3	0.6123
3590.72	0.6165
3599.13	0.6188
3607.55	0.6251
3615.97	0.6348
3624.38	0.639
3632.8	0.639
3641.21	0.639
3649.63	0.639
3658.05	0.639
3666.46	0.637
3674.88	0.637
3683.3	0.637
3691.71	0.637
3700.13	0.636
3708.55	0.636
3716.96	0.634
3725.38	0.636
3733.8	0.637
3742.21	0.639
3750.63	0.637
3759.05	0.636
3767.46	0.6306
3775.88	0.6239
3784.29	0.622
3792.71	0.621
3801.13	0.619
3809.54	0.6159
3817.96	0.612
3826.38	0.612
3834.79	0.6104
3843.21	0.6059
3851.63	0.6037
3860.04	0.601
3868.46	0.6002
3876.88	0.5999
3885.29	0.5977
3893.71	0.597
3902.13	0.595
3910.54	0.5919
3918.96	0.591
3927.38	0.589
3935.79	0.588
3944.21	0.5859
3952.62	0.585
3961.04	0.5824
3969.46	0.582
3977.87	0.58
