Infrared Spectrum: 2-Chlorooctane
Formula: C 8 H 17 Cl
CAS: 628-61-5
State: gas
Instrument: HP-GC/MS/IRD
Origin: NIST Mass Spectrometry Data Center
1/CM	ABSORBANCE
550	0.0001258
562	0.0001665
574	0.0001369
586	0.0003478
598	0.0007326
610	0.0017094
622	0.0025678
634	0.001961
646	0.0010693
658	0.000888
670	0.0016132
682	0.0018833
694	0.0009139
706	0.0005957
718	0.0008843
730	0.0009842
742	0.0007992
754	0.0007289
766	0.000666
778	0.0005106
790	0.0004884
802	0.0004699
814	0.0005032
826	0.00037
838	0.00037
850	0.0003885
862	0.0005698
874	0.0007363
886	0.00074
898	0.0006993
910	0.000629
922	0.0004884
934	0.000333
946	0.00037
958	0.0004884
970	0.0006586
982	0.0007289
994	0.0008991
1006	0.0011618
1018	0.0014578
1030	0.0013135
1042	0.0009657
1054	0.000814
1066	0.0008769
1078	0.0008288
1090	0.0009139
1102	0.0010064
1114	0.0009324
1126	0.0011433
1138	0.0011951
1150	0.0008806
1162	0.0006031
1174	0.0006216
1186	0.0009176
1198	0.0009028
1210	0.0010804
1222	0.0013468
1234	0.0017686
1246	0.0023606
1258	0.0026085
1270	0.0028009
1282	0.0025789
1294	0.0020868
1306	0.0017871
1318	0.0013949
1330	0.0012136
1342	0.0013061
1354	0.001443
1366	0.0018056
1378	0.0030673
1390	0.0028231
1402	0.0012876
1414	0.0010064
1426	0.0014652
1438	0.0026529
1450	0.0043031
1462	0.0049025
1474	0.0032967
1486	0.0014726
1498	0.00074
1510	0.0004255
1522	0.000333
1534	0.0002146
1546	0.0001813
1558	0.000148
1570	0.0001258
1582	0.0001036
1594	0.000111
1606	0.0001073
1618	0.0001036
1630	0.0001147
1642	0.0001184
1654	9.25e-05
1666	6.66e-05
1678	9.25e-05
1690	7.4e-05
1702	8.14e-05
1714	7.03e-05
1726	1.85e-05
1738	3.7e-05
1750	2.96e-05
1762	3.33e-05
1774	4.07e-05
1786	1.48e-05
1798	2.22e-05
1810	2.96e-05
1822	1.11e-05
1834	2.96e-05
1846	4.44e-05
1858	3.7e-05
1870	1.85e-05
1882	1.85e-05
1894	7.4e-06
1906	2.59e-05
1918	3.7e-06
1930	3.7e-06
1942	7.4e-06
1954	1.48e-05
1966	0
1978	2.22e-05
1990	2.59e-05
2002	1.48e-05
2014	1.11e-05
2026	5.18e-05
2038	6.66e-05
2050	6.29e-05
2062	3.7e-05
2074	3.7e-05
2086	4.07e-05
2098	2.22e-05
2110	1.48e-05
2122	1.48e-05
2134	2.59e-05
2146	1.48e-05
2158	2.22e-05
2170	3.7e-05
2182	2.96e-05
2194	6.66e-05
2206	4.81e-05
2218	4.07e-05
2230	2.22e-05
2242	4.07e-05
2254	5.55e-05
2266	3.7e-05
2278	4.44e-05
2290	4.07e-05
2302	6.66e-05
2314	5.92e-05
2326	5.92e-05
2338	6.29e-05
2350	6.66e-05
2362	8.51e-05
2374	8.14e-05
2386	0.0001036
2398	7.77e-05
2410	8.88e-05
2422	8.51e-05
2434	0.0001036
2446	6.66e-05
2458	9.99e-05
2470	7.77e-05
2482	7.03e-05
2494	0.0001184
2506	8.88e-05
2518	0.0001295
2530	0.0001369
2542	0.0001776
2554	0.0001776
2566	0.000185
2578	0.000185
2590	0.0002257
2602	0.0002368
2614	0.0002701
2626	0.0002664
2638	0.0003515
2650	0.0003515
2662	0.00037
2674	0.000407
2686	0.0004477
2698	0.0004329
2710	0.0004514
2722	0.0004921
2734	0.0006179
2746	0.0006512
2758	0.0006697
2770	0.0006956
2782	0.0008251
2794	0.0010915
2806	0.0014023
2818	0.0018278
2830	0.0027454
2842	0.0046583
2854	0.0089059
2866	0.0137307
2878	0.0141858
2890	0.0124727
2902	0.0131313
2914	0.0189514
2926	0.0305916
2938	0.037
2950	0.0304473
2962	0.0257224
2974	0.0233433
2986	0.0144633
2998	0.0087024
3010	0.0036815
3022	0.0021571
3034	0.00148
3046	0.0011877
3058	0.0009472
3070	0.0008029
3082	0.0006771
3094	0.0006216
3106	0.0005883
3118	0.0004625
3130	0.0004514
3142	0.0004218
3154	0.0004033
3166	0.0003256
3178	0.0003293
3190	0.0002812
3202	0.0002775
3214	0.000259
3226	0.0002072
3238	0.0001739
3250	0.0001702
3262	0.000148
3274	0.0001332
3286	8.14e-05
3298	0.0001258
3310	0.0001036
3322	8.88e-05
3334	0.0001036
3346	6.66e-05
3358	8.51e-05
3370	7.77e-05
3382	6.29e-05
3394	8.51e-05
3406	8.88e-05
3418	8.14e-05
3430	5.18e-05
3442	4.81e-05
3454	3.33e-05
3466	4.81e-05
3478	2.59e-05
3490	3.33e-05
3502	2.96e-05
3514	8.14e-05
3526	5.18e-05
3538	4.07e-05
3550	7.03e-05
3562	2.59e-05
3574	4.44e-05
3586	6.66e-05
3598	6.29e-05
3610	4.07e-05
3622	9.99e-05
3634	8.14e-05
3646	8.14e-05
3658	7.77e-05
3670	0.0001369
3682	9.62e-05
3694	0.000111
3706	9.25e-05
3718	8.51e-05
3730	8.51e-05
3742	6.29e-05
3754	5.55e-05
3766	7.77e-05
3778	0.0001036
3790	9.62e-05
3802	8.14e-05
3814	0.0001036
3826	0.0001665
3838	0.0001332
