Infrared Spectrum: Acetonitrile, iminodi
Formula: C4 H5 N3
CAS: 628-87-5
State: SOLID (OIL MULL)
Class: COBLENTZ III
Instrument: PERKIN-ELMER 521 (GRATING)
Instrument parameters: FILTERS AT 3150, 2500, 2000, 1150, 700, 410. GRATING CHANGES: 2000, 630
Path length: CsBr PLATES
Resolution: 2
Origin: STANDARD OIL OF OHIO
1/CM	TRANSMITTANCE
240	0.4827
250	0.3537
260	0.3335
270	0.6395
280	0.7971
290	0.7942
300	0.776
310	0.7205
320	0.6242
330	0.1747
340	0.5198
350	0.7691
360	0.4371
370	0.1536
380	0.7861
390	0.8732
400	0.8901
410	0.8953
420	0.8911
430	0.8846
440	0.8767
450	0.867
460	0.855
470	0.8428
480	0.8531
490	0.854
500	0.8472
510	0.8405
520	0.8275
530	0.6518
540	0.8101
550	0.8107
560	0.8056
570	0.7902
580	0.7738
590	0.7585
600	0.7195
610	0.6951
620	0.6837
630	0.6404
640	0.6141
650	0.5814
660	0.5488
670	0.4995
680	0.433
690	0.3937
700	0.2862
710	0.2098
720	0.1447
730	0.0827
740	0.0424
750	0.0384
760	0.0561
770	0.1635
780	0.3614
790	0.4614
800	0.5589
810	0.5975
820	0.5899
830	0.4898
840	0.2847
850	0.0746
860	0.0306
870	0.1195
880	0.24
890	0.1337
900	0.4833
910	0.5458
920	0.222
930	0.4202
940	0.7174
950	0.7204
960	0.7633
970	0.7853
980	0.7811
990	0.7917
1000	0.7785
1010	0.7541
1020	0.7246
1030	0.7231
1040	0.7381
1050	0.7322
1060	0.658
1070	0.2415
1080	0.4059
1090	0.4241
1100	0.2823
1110	0.1404
1120	0.0748
1130	0.2891
1140	0.2832
1150	0.4032
1160	0.6106
1170	0.6806
1180	0.7079
1190	0.7189
1200	0.7178
1210	0.7231
1220	0.7346
1230	0.7368
1240	0.6984
1250	0.6086
1260	0.6925
1270	0.6029
1280	0.6305
1290	0.5572
1300	0.16
1310	0.4338
1320	0.5019
1330	0.2409
1340	0.5573
1350	0.4934
1360	0.3407
1370	0.5001
1380	0.4401
1390	0.0424
1400	0.0816
1410	0.4438
1420	0.3121
1430	0.1528
1440	0.0315
1450	0.1805
1460	0.3678
1470	0.4961
1480	0.5442
1490	0.5528
1500	0.5588
1510	0.6149
1520	0.6714
1530	0.6891
1540	0.6683
1550	0.7124
1560	0.7436
1570	0.7411
1580	0.742
1590	0.7531
1600	0.7501
1610	0.7368
1620	0.7263
1630	0.737
1640	0.7341
1650	0.7247
1660	0.7129
1670	0.6744
1680	0.5732
1690	0.6812
1700	0.7254
1710	0.7524
1720	0.7503
1730	0.745
1740	0.752
1750	0.7493
1760	0.7386
1770	0.7529
1780	0.7383
1790	0.7161
1800	0.7186
1810	0.7235
1820	0.6865
1830	0.6876
1840	0.7206
1850	0.7242
1860	0.7165
1870	0.6868
1880	0.6308
1890	0.6673
1900	0.7077
1910	0.7258
1920	0.7329
1930	0.7344
1940	0.7294
1950	0.7232
1960	0.7307
1970	0.728
1980	0.6921
1990	0.6628
2000	0.6669
2010	0.6534
2020	0.6503
2030	0.6631
2040	0.6888
2050	0.7161
2060	0.7163
2070	0.7126
2080	0.7115
2090	0.7112
2100	0.6978
2110	0.6875
2120	0.6964
2130	0.703
2140	0.6989
2150	0.6944
2160	0.6875
2170	0.6783
2180	0.6256
2190	0.6473
2200	0.6335
2210	0.592
2220	0.5595
2230	0.2587
2240	0.0601
2250	0.532
2260	0.6712
2270	0.6689
2280	0.6587
2290	0.6585
2300	0.6364
2310	0.572
2320	0.6318
2330	0.6699
2340	0.6697
2350	0.67
2360	0.6786
2370	0.6867
2380	0.6859
2390	0.6711
2400	0.6728
2410	0.6769
2420	0.6769
2430	0.6767
2440	0.6688
2450	0.6674
2460	0.6655
2470	0.6392
2480	0.6064
2490	0.6417
2500	0.6183
2510	0.633
2520	0.653
2530	0.6556
2540	0.6463
2550	0.6328
2560	0.623
2570	0.6107
2580	0.6077
2590	0.6026
2600	0.6173
2610	0.6222
2620	0.6197
2630	0.6168
2640	0.611
2650	0.5735
2660	0.5272
2670	0.5503
2680	0.5806
2690	0.5653
2700	0.6106
2710	0.6141
2720	0.6016
2730	0.591
2740	0.61
2750	0.6156
2760	0.6151
2770	0.6098
2780	0.5881
2790	0.5781
2800	0.5502
2810	0.5046
2820	0.4349
2830	0.3584
2840	0.1777
2850	0.0459
2860	0.0644
2870	0.0808
2880	0.0973
2890	0.0706
2900	0.0453
2910	0.0156
2920	0.0079
2930	0.0078
2940	0.0191
2950	0.0305
2960	0.0311
2970	0.0283
2980	0.1442
2990	0.1821
3000	0.2319
3010	0.262
3020	0.2795
3030	0.295
3040	0.3071
3050	0.3158
3060	0.3201
3070	0.323
3080	0.3393
3090	0.3397
3100	0.3065
3110	0.3173
3120	0.3539
3130	0.3773
3140	0.3792
3150	0.3815
3160	0.3844
3170	0.3864
3180	0.3851
3190	0.3832
3200	0.3796
3210	0.3739
3220	0.3677
3230	0.3609
3240	0.3533
3250	0.3454
3260	0.3297
3270	0.3104
3280	0.2863
3290	0.2643
3300	0.2416
3310	0.2067
3320	0.1348
3330	0.0831
3340	0.0194
3350	0.0249
3360	0.2147
3370	0.4591
3380	0.5445
3390	0.53
3400	0.5149
3410	0.4998
3420	0.4955
3430	0.4932
3440	0.4803
3450	0.4575
3460	0.4604
3470	0.4611
3480	0.4441
3490	0.4279
3500	0.4284
3510	0.4651
3520	0.4799
3530	0.4863
3540	0.488
3550	0.4895
3560	0.4868
3570	0.4846
3580	0.4821
3590	0.4804
3600	0.4821
3610	0.478
3620	0.458
3630	0.4473
3640	0.469
3650	0.4827
3660	0.4834
3670	0.4808
3680	0.477
3690	0.4689
3700	0.466
3710	0.4729
3720	0.4744
3730	0.4681
3740	0.4676
3750	0.4764
3760	0.4747
3770	0.4729
3780	0.4714
3790	0.4702
3800	0.4691
3810	0.4679
3820	0.4666
3830	0.4641
3840	0.4524
3850	0.4616
3860	0.4626
3870	0.4496
3880	0.4391
3890	0.4558
3900	0.4598
