Infrared Spectrum: Butyl ethyl ether
Formula: C 6 H 14 O
CAS: 628-81-9
State: gas
Instrument: HP-GC/MS/IRD
Origin: NIST Mass Spectrometry Data Center
1/CM	ABSORBANCE
550	0.0003213
562	0.0003519
574	0.0002652
586	0.0001479
598	0.0001224
610	0.0001479
622	0.0001632
634	0.0001734
646	0.0001275
658	0.0002703
670	0.0002397
682	0.0003009
694	0.0002958
706	0.0002907
718	0.000408
730	0.0005457
742	0.0007344
754	0.000765
766	0.0007395
778	0.0007548
790	0.0009435
802	0.0011526
814	0.0012597
826	0.001581
838	0.0015351
850	0.0014586
862	0.0014433
874	0.0013923
886	0.0015606
898	0.0018615
910	0.0015963
922	0.0012852
934	0.0012342
946	0.001632
958	0.0021879
970	0.0026622
982	0.0028101
994	0.002856
1006	0.0032079
1018	0.0034935
1030	0.0038658
1042	0.0051969
1054	0.0076551
1066	0.0102051
1078	0.0126582
1090	0.0172533
1102	0.0257193
1114	0.0399789
1126	0.051
1138	0.0404175
1150	0.0211752
1162	0.0127551
1174	0.0085272
1186	0.0055284
1198	0.0034374
1210	0.0027183
1222	0.0026775
1234	0.0029631
1246	0.0028713
1258	0.0027387
1270	0.0026571
1282	0.0026316
1294	0.0030753
1306	0.0030396
1318	0.0026316
1330	0.0030345
1342	0.0046614
1354	0.0070635
1366	0.0087975
1378	0.0105366
1390	0.0090321
1402	0.0046869
1414	0.003519
1426	0.0034833
1438	0.0041208
1450	0.0050796
1462	0.0056763
1474	0.0052173
1486	0.0036312
1498	0.0021726
1510	0.0012954
1522	0.0008415
1534	0.000612
1546	0.0004488
1558	0.000408
1570	0.000357
1582	0.0002805
1594	0.0003519
1606	0.0003519
1618	0.0003264
1630	0.0002856
1642	0.0002397
1654	0.0002091
1666	0.000153
1678	0.0001479
1690	0.0001173
1702	7.14e-05
1714	6.12e-05
1726	6.12e-05
1738	1.53e-05
1750	2.04e-05
1762	4.08e-05
1774	3.57e-05
1786	8.16e-05
1798	7.65e-05
1810	7.14e-05
1822	6.63e-05
1834	8.67e-05
1846	0.000102
1858	0.0001479
1870	0.0001479
1882	0.0001836
1894	0.0002499
1906	0.0002907
1918	0.000357
1930	0.0004233
1942	0.0004692
1954	0.0004947
1966	0.0004743
1978	0.0004335
1990	0.0003774
2002	0.0003417
2014	0.0002805
2026	0.0002397
2038	0.0002295
2050	0.0001836
2062	0.0001632
2074	0.0001785
2086	0.0001938
2098	0.0002295
2110	0.0002244
2122	0.0002295
2134	0.000204
2146	0.0001581
2158	0.0001377
2170	0.0001479
2182	0.0001581
2194	0.0001173
2206	0.0001173
2218	0.000102
2230	0.0001224
2242	0.0001479
2254	0.0001836
2266	0.0001989
2278	0.0001479
2290	0.0001632
2302	0.000102
2314	8.16e-05
2326	0.000102
2338	0.0001326
2350	0.0001326
2362	0.0001632
2374	0.0001071
2386	0.0001479
2398	0.0001938
2410	0.0001887
2422	0.0001785
2434	0.0002142
2446	0.0001836
2458	0.0001428
2470	0.0001275
2482	0.0001224
2494	0.0001122
2506	0.0001275
2518	0.0001377
2530	0.0001683
2542	0.0001785
2554	0.0002397
2566	0.0003009
2578	0.0004437
2590	0.0005457
2602	0.0005916
2614	0.0006732
2626	0.0006681
2638	0.0006936
2650	0.0008007
2662	0.0009078
2674	0.0010659
2686	0.0013872
2698	0.0016575
2710	0.0020196
2722	0.0023256
2734	0.0026775
2746	0.00306
2758	0.0033303
2770	0.0037995
2782	0.0045849
2794	0.0055437
2806	0.0066045
2818	0.0079968
2830	0.0111078
2842	0.0178194
2854	0.027948
2866	0.0372606
2878	0.0400911
2890	0.0336141
2902	0.0272391
2914	0.0287538
2926	0.0355878
2938	0.0435948
2950	0.0441558
2962	0.043299
2974	0.0416262
2986	0.029172
2998	0.0155091
3010	0.0083538
3022	0.0051459
3034	0.0036822
3046	0.002754
3058	0.0020604
3070	0.0016014
3082	0.0013209
3094	0.001173
3106	0.0010761
3118	0.0009996
3130	0.0008925
3142	0.0008211
3154	0.0007395
3166	0.0007038
3178	0.0007089
3190	0.0006324
3202	0.0006069
3214	0.0005202
3226	0.000459
3238	0.0003621
3250	0.0003417
3262	0.0003315
3274	0.0002652
3286	0.0001785
3298	0.0001989
3310	0.0001989
3322	0.0002091
3334	0.0002703
3346	0.0002193
3358	0.0002193
3370	0.0002397
3382	0.0002703
3394	0.0001938
3406	0.000204
3418	0.0002295
3430	0.000204
3442	0.0001734
3454	0.0002601
3466	0.000153
3478	0.0002142
3490	0.0001836
3502	0.0002142
3514	0.0001122
3526	0.0001938
3538	0.0002091
3550	0.0001632
3562	0.000153
3574	0.0001326
3586	0.0001836
3598	0.0002244
3610	0.0002244
3622	0.0002754
3634	0.0002907
3646	0.0003417
3658	0.0003009
3670	0.000306
3682	0.0003315
3694	0.0004386
3706	0.0003162
3718	0.0002856
3730	0.0003366
3742	0.0004437
3754	0.0004539
3766	0.0003927
3778	0.0003621
3790	0.000408
3802	0.0004131
3814	0.0004182
3826	0.0004233
3838	0.0004794
