Infrared Spectrum: 1-Heptyne
Formula: C 7 H 12
CAS: 628-71-7
State: gas
Instrument: HP-GC/MS/IRD
Origin: NIST Mass Spectrometry Data Center
1/CM	ABSORBANCE
550	0.0010208
562	0.0006752
574	0.0006048
586	0.0006816
598	0.0015616
610	0.0046336
622	0.0139296
634	0.0315392
646	0.0138144
658	0.0036672
670	0.0012352
682	0.0006368
694	0.0004992
706	0.0004512
718	0.0005792
730	0.000704
742	0.0006848
754	0.0005344
766	0.0004416
778	0.0003488
790	0.0002432
802	0.0001696
814	0.0001504
826	0.00016
838	0.00016
850	0.000176
862	0.000224
874	0.000208
886	0.0003232
898	0.0002528
910	0.0002464
922	0.0002048
934	0.0002848
946	0.0003584
958	0.0005248
970	0.000576
982	0.000544
994	0.0003904
1006	0.000272
1018	0.0002368
1030	0.000272
1042	0.00024
1054	0.0001792
1066	0.0001792
1078	0.0001984
1090	0.0003296
1102	0.0003584
1114	0.0003872
1126	0.0002016
1138	0.000128
1150	0.000128
1162	0.000144
1174	0.0001792
1186	0.0002528
1198	0.0003712
1210	0.000512
1222	0.0011808
1234	0.003744
1246	0.0067008
1258	0.00552
1270	0.0018304
1282	0.0012
1294	0.001024
1306	0.0010336
1318	0.0013312
1330	0.0015136
1342	0.00152
1354	0.0012384
1366	0.0011072
1378	0.0012416
1390	0.001248
1402	0.000912
1414	0.0009696
1426	0.0016608
1438	0.0028416
1450	0.0035104
1462	0.00352
1474	0.0026912
1486	0.0015584
1498	0.0008032
1510	0.0005152
1522	0.0003424
1534	0.0002976
1546	0.0002464
1558	0.0002112
1570	0.0001728
1582	0.0001408
1594	0.0001312
1606	0.0001152
1618	0.0001056
1630	0.0001152
1642	8.96e-05
1654	8.96e-05
1666	4.48e-05
1678	6.72e-05
1690	4.8e-05
1702	4.48e-05
1714	5.44e-05
1726	2.24e-05
1738	1.6e-05
1750	4.16e-05
1762	3.2e-05
1774	3.2e-05
1786	3.2e-06
1798	1.92e-05
1810	2.88e-05
1822	1.6e-05
1834	4.16e-05
1846	2.56e-05
1858	3.2e-05
1870	5.44e-05
1882	4.48e-05
1894	3.2e-05
1906	6.4e-06
1918	3.84e-05
1930	2.56e-05
1942	2.88e-05
1954	6.4e-05
1966	2.56e-05
1978	5.12e-05
1990	5.44e-05
2002	3.84e-05
2014	5.76e-05
2026	7.36e-05
2038	0.0001248
2050	9.28e-05
2062	0.0001216
2074	0.0001888
2086	0.0003264
2098	0.0007136
2110	0.0012992
2122	0.001408
2134	0.0007552
2146	0.0002432
2158	0.0001472
2170	0.0001472
2182	0.0001184
2194	0.0001184
2206	0.0001024
2218	0.000112
2230	0.0001248
2242	0.000112
2254	0.0001184
2266	0.000128
2278	0.00016
2290	0.0001504
2302	0.000192
2314	0.000176
2326	0.000192
2338	0.0001728
2350	0.0001824
2362	0.00016
2374	0.0002336
2386	0.0002112
2398	0.0001984
2410	0.0002048
2422	0.0002176
2434	0.0001888
2446	0.0001856
2458	0.0002016
2470	0.0001952
2482	0.0001824
2494	0.0002048
2506	0.0002208
2518	0.0002272
2530	0.0002496
2542	0.0002912
2554	0.0002848
2566	0.0003328
2578	0.0003296
2590	0.0003296
2602	0.0003712
2614	0.0003904
2626	0.0004224
2638	0.0004896
2650	0.0005504
2662	0.0006144
2674	0.0006336
2686	0.000672
2698	0.0007104
2710	0.0006144
2722	0.0006144
2734	0.0007072
2746	0.0008064
2758	0.0008288
2770	0.0008128
2782	0.0009632
2794	0.001136
2806	0.0013728
2818	0.0017824
2830	0.0025088
2842	0.0041824
2854	0.0071936
2866	0.0106624
2878	0.0125728
2890	0.0116256
2902	0.0112576
2914	0.0154624
2926	0.02384
2938	0.0311392
2950	0.0304
2962	0.025744
2974	0.0193888
2986	0.0099904
2998	0.0045856
3010	0.0027232
3022	0.0019616
3034	0.0015616
3046	0.001264
3058	0.0010752
3070	0.0009344
3082	0.0008288
3094	0.0007904
3106	0.000704
3118	0.000656
3130	0.0006432
3142	0.000608
3154	0.0004992
3166	0.0005056
3178	0.0004608
3190	0.0004352
3202	0.0004256
3214	0.0004064
3226	0.0004096
3238	0.0004032
3250	0.0005504
3262	0.0007776
3274	0.001136
3286	0.0018656
3298	0.0038144
3310	0.0056928
3322	0.010176
3334	0.0098528
3346	0.0033568
3358	0.0015872
3370	0.000832
3382	0.0004896
3394	0.0003328
3406	0.0002752
3418	0.000192
3430	0.0002112
3442	0.0001792
3454	0.0001888
3466	0.0001536
3478	0.0002048
3490	0.000144
3502	0.0001856
3514	0.0001376
3526	0.0001184
3538	9.6e-05
3550	0.0001376
3562	0.0001344
3574	0.0001312
3586	0.0001312
3598	0.0001344
3610	0.000176
3622	0.0001248
3634	0.0001696
3646	0.0001984
3658	0.0001728
3670	0.0001824
3682	0.0001632
3694	0.0002208
3706	0.0002272
3718	0.0001856
3730	0.0001792
3742	0.0001984
3754	0.0001888
3766	0.0001824
3778	0.0002144
3790	0.0002112
3802	0.0002432
3814	0.0001888
3826	0.0002048
3838	0.0002208
