Infrared Spectrum: 1,5-Dichloropentane
Formula: C 5 H 10 Cl 2
CAS: 628-76-2
State: gas
Instrument: HP-GC/MS/IRD
Origin: NIST Mass Spectrometry Data Center
1/CM	ABSORBANCE
550	0.0001032
562	1.36e-05
574	0.0001792
586	0.0002128
598	0.0001776
610	0.0001608
622	0.000332
634	0.0006816
646	0.0013472
658	0.0024848
670	0.0022712
682	0.0011704
694	0.0008088
706	0.000936
718	0.0015632
730	0.0027296
742	0.0035632
754	0.0033288
766	0.0021248
778	0.0011704
790	0.0007496
802	0.0005544
814	0.0004096
826	0.0005
838	0.0004896
850	0.0004104
862	0.0003952
874	0.0004048
886	0.0004616
898	0.0005824
910	0.0006368
922	0.000492
934	0.0004064
946	0.0004096
958	0.0004512
970	0.000496
982	0.000536
994	0.0005024
1006	0.0005208
1018	0.0004048
1030	0.0004024
1042	0.0004096
1054	0.0003352
1066	0.0002728
1078	0.0002152
1090	0.0002064
1102	7.6e-05
1114	9.28e-05
1126	7.6e-05
1138	8.16e-05
1150	5.92e-05
1162	9.36e-05
1174	6e-05
1186	0.000112
1198	0.00016
1210	0.0002248
1222	0.0002904
1234	0.0005368
1246	0.0011448
1258	0.0014224
1270	0.0016064
1282	0.002504
1294	0.0030592
1306	0.0031424
1318	0.0027216
1330	0.0017208
1342	0.0009592
1354	0.0007056
1366	0.0005424
1378	0.0003488
1390	0.0002632
1402	0.0002376
1414	0.0003416
1426	0.0006808
1438	0.00146
1450	0.0024552
1462	0.0019256
1474	0.0009488
1486	0.0004144
1498	0.0002232
1510	0.0001432
1522	0.000116
1534	9.76e-05
1546	7.12e-05
1558	7.2e-05
1570	4.64e-05
1582	3.04e-05
1594	3.36e-05
1606	1.68e-05
1618	3.68e-05
1630	3.68e-05
1642	1.52e-05
1654	2.24e-05
1666	2.8e-05
1678	1.76e-05
1690	8e-06
1702	3.04e-05
1714	5.28e-05
1726	3.84e-05
1738	3.04e-05
1750	3.04e-05
1762	2.16e-05
1774	1.36e-05
1786	2.56e-05
1798	2.64e-05
1810	1.44e-05
1822	1.36e-05
1834	9.6e-06
1846	2.16e-05
1858	9.6e-06
1870	1.28e-05
1882	3.04e-05
1894	1.2e-05
1906	2.96e-05
1918	2e-05
1930	4.16e-05
1942	8e-06
1954	1.84e-05
1966	2e-05
1978	5.6e-05
1990	2.16e-05
2002	2.88e-05
2014	4.4e-05
2026	4.08e-05
2038	4.96e-05
2050	3.68e-05
2062	3.68e-05
2074	5.28e-05
2086	5.2e-05
2098	3.12e-05
2110	4e-05
2122	5.12e-05
2134	5.36e-05
2146	3.2e-05
2158	6.16e-05
2170	4e-05
2182	5.28e-05
2194	3.92e-05
2206	5.36e-05
2218	2.72e-05
2230	4.8e-05
2242	5.2e-05
2254	4.32e-05
2266	3.44e-05
2278	7.28e-05
2290	5.76e-05
2302	4.64e-05
2314	7.2e-05
2326	5.92e-05
2338	6.4e-05
2350	3.76e-05
2362	4.56e-05
2374	5.36e-05
2386	4.56e-05
2398	3.52e-05
2410	2.96e-05
2422	3.52e-05
2434	1.6e-05
2446	3.68e-05
2458	5.6e-05
2470	2e-05
2482	8e-06
2494	4.56e-05
2506	5.28e-05
2518	4.48e-05
2530	5.04e-05
2542	4.4e-05
2554	3.68e-05
2566	2.48e-05
2578	2e-05
2590	4.64e-05
2602	4.24e-05
2614	4.8e-05
2626	6.48e-05
2638	4.16e-05
2650	5.36e-05
2662	8.16e-05
2674	5.92e-05
2686	0.0001136
2698	9.6e-05
2710	0.000108
2722	0.000128
2734	0.000128
2746	0.0001384
2758	0.0001264
2770	0.0001264
2782	0.0001632
2794	0.0001944
2806	0.0002648
2818	0.0003296
2830	0.0005744
2842	0.0010472
2854	0.001704
2866	0.0023
2878	0.0026896
2890	0.0026072
2902	0.002824
2914	0.0034392
2926	0.0041536
2938	0.005672
2950	0.0074608
2962	0.0078568
2974	0.0058832
2986	0.0039168
2998	0.0037264
3010	0.0022344
3022	0.0009096
3034	0.0004432
3046	0.0003216
3058	0.0002304
3070	0.0001656
3082	0.000128
3094	0.0001168
3106	8.88e-05
3118	7.52e-05
3130	6.88e-05
3142	5.84e-05
3154	4.4e-05
3166	4.88e-05
3178	2e-05
3190	0.0001016
3202	4.08e-05
3214	8.24e-05
3226	4.4e-05
3238	2.8e-05
3250	3.2e-05
3262	4.56e-05
3274	5.12e-05
3286	3.04e-05
3298	2.08e-05
3310	7.6e-05
3322	4.08e-05
3334	1.84e-05
3346	3.28e-05
3358	1.12e-05
3370	4.8e-05
3382	4.08e-05
3394	6.48e-05
3406	3.04e-05
3418	4.88e-05
3430	2.16e-05
3442	3.52e-05
3454	2.96e-05
3466	1.76e-05
3478	3.52e-05
3490	2.64e-05
3502	1.04e-05
3514	6e-05
3526	7.6e-05
3538	3.44e-05
3550	6.64e-05
3562	4.88e-05
3574	2.72e-05
3586	2.24e-05
3598	7.84e-05
3610	7.04e-05
3622	5.44e-05
3634	9.84e-05
3646	6.4e-05
3658	8.16e-05
3670	6.08e-05
3682	5.2e-05
3694	6.64e-05
3706	8.48e-05
3718	6e-05
3730	9.36e-05
3742	7.84e-05
3754	6.32e-05
3766	6.64e-05
3778	3.68e-05
3790	7.12e-05
3802	5.04e-05
3814	5.12e-05
3826	9.68e-05
3838	2.96e-05
