Infrared Spectrum: HEXANENITRILE
Formula: C6 H11 N
CAS: 628-73-9
State: LIQUID
Boiling point: 160-162.5 C
Class: COBLENTZ
Instrument: Not specified, most likely a prism, grating, or hybrid spectrometer.
Sampling: TRANSMISSION
Path length: 0.005 CM
Resolution: 4
Origin: WYANDOTTE CHEMICALS CORP., WYANDOTTE, MICHIGAN, USA
MICROMETERS	TRANSMITTANCE
2.012	0.976
2.04915	0.981
2.0863	0.972
2.12346	0.978
2.16061	0.976
2.19776	0.824
2.23491	0.812
2.27206	0.829
2.30922	0.857
2.34637	0.881
2.38352	0.86
2.42067	0.906
2.45782	0.922
2.49498	0.933
2.53213	0.948
2.56928	0.954
2.60643	0.965
2.64358	0.967
2.68073	0.92
2.71789	0.883
2.75504	0.88
2.79219	0.86
2.82934	0.846
2.86649	0.895
2.90365	0.922
2.9408	0.928
2.97795	0.922
3.0151	0.908
3.05225	0.913
3.08941	0.857
3.12656	0.791
3.16371	0.753
3.20086	0.739
3.23801	0.698
3.27517	0.599
3.31232	0.335
3.34947	0.048
3.38662	0.023
3.42377	0.031
3.46093	0.034
3.49808	0.038
3.53523	0.203
3.57238	0.509
3.60953	0.666
3.64668	0.698
3.68384	0.703
3.72099	0.759
3.75814	0.748
3.79529	0.771
3.83244	0.818
3.8696	0.83
3.90675	0.852
3.9439	0.871
3.98105	0.894
4.0182	0.919
4.05536	0.92
4.09251	0.913
4.12966	0.913
4.16681	0.906
4.20396	0.888
4.24112	0.886
4.27827	0.899
4.31542	0.899
4.35257	0.913
4.38972	0.894
4.42688	0.807
4.46403	0.739
4.50118	0.374
4.53833	0.232
4.57548	0.79
4.61263	0.888
4.64979	0.909
4.68694	0.931
4.72409	0.95
4.76124	0.956
4.79839	0.968
4.83555	0.968
4.8727	0.964
4.90985	0.959
4.947	0.961
4.98415	0.95
5.02131	0.968
5.05846	0.962
5.09561	0.978
5.13276	0.973
5.16991	0.978
5.20707	0.975
5.24422	0.972
5.28137	0.982
5.31852	0.982
5.35567	0.981
5.39283	0.978
5.42998	0.972
5.46713	0.965
5.50428	0.967
5.54143	0.959
5.57858	0.953
5.61574	0.964
5.65289	0.964
5.69004	0.942
5.72719	0.815
5.76434	0.813
5.8015	0.902
5.83865	0.911
5.8758	0.905
5.91295	0.881
5.9501	0.869
5.98726	0.868
6.02441	0.855
6.06156	0.821
6.09871	0.81
6.13586	0.793
6.17302	0.821
6.21017	0.83
6.24732	0.849
6.28447	0.841
6.32162	0.844
6.35878	0.833
6.39593	0.819
6.43308	0.818
6.47023	0.781
6.50738	0.777
6.54453	0.753
6.58169	0.722
6.61884	0.652
6.65599	0.569
6.69314	0.437
6.73029	0.245
6.76745	0.023
6.8046	0.029
6.84175	0.043
6.8789	0.094
6.91605	0.127
6.95321	0.06
6.99036	0.068
7.02751	0.262
7.06466	0.45
7.10181	0.521
7.13897	0.51
7.17612	0.36
7.21327	0.149
7.25042	0.237
7.28757	0.369
7.32473	0.479
7.36188	0.473
7.39903	0.453
7.43618	0.431
7.47333	0.425
7.51048	0.375
7.54764	0.526
7.58479	0.56
7.62194	0.597
7.65909	0.604
7.69624	0.631
7.7334	0.636
7.77055	0.641
7.8077	0.619
7.84485	0.611
7.882	0.683
7.91916	0.703
7.95631	0.712
7.99346	0.717
8.03061	0.694
8.06776	0.69
8.10492	0.645
8.14207	0.559
8.17922	0.594
8.21637	0.649
8.25352	0.659
8.29068	0.664
8.32783	0.652
8.36498	0.658
8.40213	0.706
8.43928	0.751
8.47644	0.75
8.51359	0.729
8.55074	0.753
8.58789	0.788
8.62504	0.81
8.66219	0.819
8.69935	0.818
8.7365	0.826
8.77365	0.818
8.8108	0.795
8.84795	0.74
8.88511	0.656
8.92226	0.509
8.95941	0.456
8.99656	0.507
9.03371	0.604
9.07087	0.652
9.10802	0.68
9.14517	0.683
9.18232	0.681
9.21947	0.68
9.25663	0.656
9.29378	0.658
9.33093	0.672
9.36808	0.697
9.40523	0.734
9.44239	0.742
9.47954	0.76
9.51669	0.76
9.55384	0.753
9.59099	0.732
9.62814	0.704
9.6653	0.708
9.70245	0.714
9.7396	0.703
9.77675	0.72
9.8139	0.739
9.85106	0.756
9.88821	0.768
9.92536	0.776
9.96251	0.768
9.99966	0.762
10.0368	0.746
10.074	0.732
10.1111	0.75
10.1483	0.718
10.1854	0.669
10.2226	0.627
10.2597	0.625
10.2969	0.663
10.334	0.653
10.3712	0.641
10.4083	0.608
10.4455	0.563
10.4826	0.543
10.5198	0.613
10.5569	0.715
10.5941	0.757
10.6312	0.781
10.6684	0.773
10.7056	0.729
10.7427	0.664
10.7799	0.68
10.817	0.728
10.8542	0.76
10.8913	0.77
10.9285	0.759
10.9656	0.69
11.0028	0.683
11.0399	0.731
11.0771	0.757
11.1142	0.743
11.1514	0.731
11.1885	0.714
11.2257	0.703
11.2628	0.722
11.3	0.74
11.3371	0.718
11.3743	0.7
11.4114	0.732
11.4486	0.74
11.4857	0.717
11.5229	0.706
11.56	0.72
11.5972	0.726
11.6343	0.722
11.6715	0.689
11.7087	0.678
11.7458	0.698
11.783	0.729
11.8201	0.729
11.8573	0.726
11.8944	0.701
11.9316	0.669
11.9687	0.652
12.0059	0.666
12.043	0.675
12.0802	0.689
12.1173	0.695
12.1545	0.712
12.1916	0.734
12.2288	0.765
12.2659	0.793
12.3031	0.804
12.3402	0.813
12.3774	0.816
12.4145	0.819
12.4517	0.822
12.4888	0.824
12.526	0.818
12.5631	0.815
12.6003	0.812
12.6375	0.798
12.6746	0.788
12.7118	0.771
12.7489	0.748
12.7861	0.718
12.8232	0.683
12.8604	0.663
12.8975	0.649
12.9347	0.627
12.9718	0.608
13.009	0.607
13.0461	0.624
13.0833	0.621
13.1204	0.628
13.1576	0.602
13.1947	0.588
13.2319	0.576
13.269	0.572
13.3062	0.563
13.3433	0.551
13.3805	0.535
13.4176	0.526
13.4548	0.521
13.4919	0.506
13.5291	0.479
13.5662	0.439
13.6034	0.38
13.6406	0.319
13.6777	0.267
13.7149	0.242
13.752	0.262
13.7892	0.305
13.8263	0.386
13.8635	0.475
13.9006	0.549
13.9378	0.616
13.9749	0.667
14.0121	0.703
14.0492	0.731
14.0864	0.753
14.1235	0.77
14.1607	0.785
14.1978	0.799
14.235	0.813
14.2721	0.818
14.3093	0.822
14.3464	0.824
14.3836	0.822
14.4207	0.84
14.4579	0.832
14.495	0.833
14.5322	0.83
14.5694	0.824
14.6065	0.824
14.6437	0.816
14.6808	0.804
14.718	0.795
14.7551	0.798
14.7923	0.798
14.8294	0.81
14.8666	0.812
14.9037	0.822
14.9409	0.819
14.978	0.802
15.0152	0.787
15.0523	0.776
15.0895	0.793
15.1266	0.813
15.1638	0.81
15.2009	0.802
15.2381	0.795
15.2752	0.791
15.3124	0.784
15.3495	0.779
15.3867	0.773
15.4238	0.767
15.461	0.767
15.4981	0.76
15.5353	0.746
15.5725	0.743
15.6096	0.737
15.6468	0.737
15.6839	0.736
15.7211	0.726
15.7582	0.718
15.7954	0.711
15.8325	0.701
15.8697	0.703
15.9068	0.697
15.944	0.692
15.9811	0.7
