Infrared Spectrum: 1,3-Diacetoxypropane
Formula: C 7 H 12 O 4
CAS: 628-66-0
State: gas
Origin: EPA-IR VAPOR PHASE LIBRARY
1/CM	ABSORBANCE
549.8	0.0006141
559.445	0.000326
569.09	0.0005328
578.734	0.000905
588.379	0.001795
598.024	0.003465
607.669	0.004855
617.313	0.004645
626.958	0.006215
636.603	0.006715
646.248	0.004365
655.893	0.002475
665.537	0.0012852
675.182	0.0010294
684.827	0.0008538
694.472	0.000679
704.116	0.0007401
713.761	0.0006365
723.406	0.0008178
733.051	0.0009688
742.695	0.0012674
752.34	0.001795
761.985	0.002125
771.63	0.002055
781.275	0.002055
790.919	0.001905
800.564	0.001895
810.209	0.002825
819.854	0.003715
829.498	0.004725
839.143	0.004935
848.788	0.004965
858.433	0.004675
868.078	0.004755
877.722	0.005205
887.367	0.005355
897.012	0.004385
906.657	0.003495
916.301	0.002915
925.946	0.003565
935.591	0.005415
945.236	0.007895
954.88	0.007545
964.525	0.006155
974.17	0.006225
983.815	0.006975
993.46	0.009475
1003.1	0.013695
1012.75	0.017525
1022.39	0.022205
1032.04	0.029405
1041.68	0.042945
1051.33	0.058795
1060.97	0.057065
1070.62	0.039835
1080.26	0.028245
1089.91	0.022305
1099.55	0.017175
1109.2	0.012375
1118.84	0.009015
1128.49	0.006825
1138.13	0.005465
1147.78	0.005365
1157.42	0.005685
1167.07	0.007395
1176.71	0.010115
1186.36	0.016945
1196	0.034995
1205.64	0.085105
1215.29	0.191555
1224.93	0.242545
1234.58	0.162615
1244.22	0.106685
1253.87	0.073245
1263.51	0.048335
1273.16	0.032325
1282.8	0.021105
1292.45	0.014835
1302.09	0.011555
1311.74	0.009485
1321.38	0.008215
1331.03	0.007485
1340.67	0.007445
1350.32	0.011695
1359.96	0.026185
1369.61	0.043255
1379.25	0.034495
1388.9	0.023655
1398.54	0.016245
1408.18	0.010355
1417.83	0.007665
1427.47	0.007665
1437.12	0.008105
1446.76	0.008775
1456.41	0.009735
1466.05	0.010275
1475.7	0.009265
1485.34	0.006955
1494.99	0.004965
1504.63	0.004105
1514.28	0.003755
1523.92	0.003305
1533.57	0.003085
1543.21	0.002745
1552.86	0.002755
1562.5	0.002575
1572.15	0.002415
1581.79	0.002385
1591.44	0.002255
1601.08	0.002225
1610.73	0.002385
1620.37	0.002255
1630.01	0.002445
1639.66	0.002555
1649.3	0.002695
1658.95	0.003125
1668.59	0.003305
1678.24	0.003675
1687.88	0.004335
1697.53	0.005675
1707.17	0.008495
1716.82	0.013385
1726.46	0.021805
1736.11	0.036785
1745.75	0.066495
1755.4	0.121845
1765.04	0.151575
1774.69	0.100525
1784.33	0.050895
1793.98	0.025635
1803.62	0.014215
1813.27	0.008425
1822.91	0.005595
1832.55	0.004135
1842.2	0.003135
1851.84	0.002815
1861.49	0.002505
1871.13	0.002295
1880.78	0.002115
1890.42	0.002035
1900.07	0.001855
1909.71	0.001735
1919.36	0.001735
1929	0.001635
1938.65	0.001545
1948.29	0.001455
1957.94	0.0013893
1967.58	0.0014116
1977.23	0.001545
1986.87	0.001555
1996.52	0.001565
2006.16	0.001665
2015.81	0.001675
2025.45	0.001625
2035.1	0.001585
2044.74	0.001715
2054.38	0.001725
2064.03	0.001795
2073.67	0.001785
2083.32	0.001595
2092.96	0.001695
2102.61	0.001695
2112.25	0.001755
2121.9	0.001655
2131.54	0.001565
2141.19	0.0013389
2150.83	0.0011685
2160.48	0.0010202
2170.12	0.0009758
2179.77	0.0010017
2189.41	0.0009562
2199.06	0.0010413
2208.7	0.0008545
2218.35	0.0009685
2227.99	0.0009015
2237.64	0.0008786
2247.28	0.0008734
2256.92	0.0009846
2266.57	0.000856
2276.21	0.0008251
2285.86	0.0008401
2295.5	0.0006952
2305.15	0.000905
2314.79	0.0008757
2324.44	0.0008511
2334.08	0.00086
2343.73	0.0009447
2353.37	0.0007933
2363.02	0.0008855
2372.66	0.0006634
2382.31	0.0007215
2391.95	0.0008696
2401.6	0.0007769
2411.24	0.000869
2420.89	0.0009204
2430.53	0.0010467
2440.18	0.001121
2449.82	0.0011066
2459.47	0.0011447
2469.11	0.0010266
2478.75	0.0009518
2488.4	0.0007788
2498.04	0.0008452
2507.69	0.0007575
2517.33	0.0007134
2526.98	0.0007293
2536.62	0.0005299
2546.27	0.0006308
2555.91	0.0006072
2565.56	0.0007379
2575.2	0.0007589
2584.85	0.0008615
2594.49	0.0008519
2604.14	0.0007816
2613.78	0.0008167
2623.43	0.0006119
2633.07	0.0007496
2642.72	0.0007691
2652.36	0.0007143
2662.01	0.0007518
2671.65	0.0006764
2681.29	0.00065
2690.94	0.0009104
2700.58	0.0007723
2710.23	0.0008565
2719.87	0.0010053
2729.52	0.0008614
2739.16	0.0011066
2748.81	0.0011399
2758.45	0.0010106
2768.1	0.001167
2777.74	0.0009848
2787.39	0.0008801
2797.03	0.0009241
2806.68	0.0009425
2816.32	0.0012687
2825.97	0.0012199
2835.61	0.001655
2845.26	0.001925
2854.9	0.002335
2864.55	0.002635
2874.19	0.002835
2883.84	0.003655
2893.48	0.004965
2903.12	0.006345
2912.77	0.007195
2922.41	0.007875
2932.06	0.009225
2941.7	0.011685
2951.35	0.014985
2960.99	0.018535
2970.64	0.020355
2980.28	0.018685
2989.93	0.014365
2999.57	0.009105
3009.22	0.005495
3018.86	0.004125
3028.51	0.003525
3038.15	0.002975
3047.8	0.002705
3057.44	0.002545
3067.09	0.002295
3076.73	0.002375
3086.38	0.001935
3096.02	0.001735
3105.67	0.001535
3115.31	0.0013653
3124.95	0.0010853
3134.6	0.0011313
3144.24	0.0010237
3153.89	0.0007842
3163.53	0.0006838
3173.18	0.0005646
3182.82	0.0006265
3192.47	0.0006136
3202.11	0.0007348
3211.76	0.0008068
3221.4	0.00049672
3231.05	0.0005631
3240.69	0.00049583
3250.34	0.0004024
3259.98	0.0007224
3269.63	0.00031
3279.27	0.0005586
3288.92	0.0005522
3298.56	0.000357
3308.21	0.000420467
3317.85	0.00045635
3327.49	0.0005332
3337.14	0.00050494
3346.78	0.0007827
3356.43	0.0006748
3366.07	0.00045165
3375.72	0.0006959
3385.36	0.00049293
3395.01	0.00043904
3404.65	0.0006202
3414.3	0.0005871
3423.94	0.0005788
3433.59	0.0006105
3443.23	0.00042821
3452.88	0.0007511
3462.52	0.0006342
3472.17	0.0010744
3481.81	0.0009028
3491.46	0.001575
3501.1	0.002075
3510.75	0.001915
3520.39	0.001875
3530.04	0.001098
3539.68	0.0008762
3549.32	0.0005152
3558.97	0.000521
3568.61	0.00049784
3578.26	0.0006921
3587.9	0.0005526
3597.55	0.0005502
3607.19	0.0006302
3616.84	0.00043943
3626.48	0.0006478
3636.13	0.0003345
3645.77	0.0005201
3655.42	0.0003255
3665.06	0.0003751
3674.71	0.0003692
3684.35	0.0003293
3694	0.000424926
3703.64	0.0003619
3713.29	9.3e-05
3722.93	0.00049638
3732.58	0.000163
3742.22	0.0005726
3751.86	0.000191
3761.51	0.00049798
3771.15	0.0004017
3780.8	0.0005295
3790.44	0.00045164
3800.09	0.0005855
3809.73	0.0003973
3819.38	0.00050301
3829.02	0.00048657
3838.67	0.000219
3848.31	0.0003948
3857.96	0.0006521
3867.6	0.000653
3877.25	0.00040706
3886.89	0.0003355
3896.54	0.0003777
3906.18	0.0003587
3915.83	0.00044833
3925.47	0.0006165
3935.12	0.00041216
3944.76	0.0007095
3954.41	0.0006386
3964.05	0.0006311
3973.69	0.0007615
3983.34	0.0008633
3992.98	0.0007898
