Infrared Spectrum: 3-Methylbutyl isothiocyanate
Formula: C 6 H 11 N S
CAS: 628-03-5
State: gas
Origin: EPA-IR VAPOR PHASE LIBRARY
1/CM	ABSORBANCE
549.8	0.015447
559.445	0.014807
569.09	0.013107
578.734	0.010867
588.379	0.009397
598.024	0.008107
607.669	0.006687
617.313	0.004847
626.958	0.004327
636.603	0.004197
646.248	0.004837
655.893	0.005627
665.537	0.005907
675.182	0.006077
684.827	0.006467
694.472	0.008177
704.116	0.009687
713.761	0.007477
723.406	0.004387
733.051	0.002777
742.695	0.002307
752.34	0.002437
761.985	0.002437
771.63	0.002167
781.275	0.0015486
790.919	0.0010584
800.564	0.0010168
810.209	0.0009321
819.854	0.0008842
829.498	0.0010028
839.143	0.0015939
848.788	0.002497
858.433	0.005317
868.078	0.007027
877.722	0.005837
887.367	0.004567
897.012	0.004717
906.657	0.004687
916.301	0.004797
925.946	0.005227
935.591	0.004917
945.236	0.004037
954.88	0.003427
964.525	0.003297
974.17	0.003267
983.815	0.003447
993.46	0.003637
1003.1	0.004017
1012.75	0.003767
1022.39	0.003557
1032.04	0.003177
1041.68	0.003397
1051.33	0.004487
1060.97	0.004897
1070.62	0.005257
1080.26	0.005477
1089.91	0.006067
1099.55	0.006557
1109.2	0.007597
1118.84	0.008647
1128.49	0.008797
1138.13	0.008317
1147.78	0.008457
1157.42	0.009957
1167.07	0.012457
1176.71	0.010027
1186.36	0.005237
1196	0.004687
1205.64	0.004827
1215.29	0.005427
1224.93	0.007007
1234.58	0.007187
1244.22	0.007357
1253.87	0.008267
1263.51	0.009417
1273.16	0.009937
1282.8	0.009167
1292.45	0.009607
1302.09	0.013347
1311.74	0.019867
1321.38	0.032307
1331.03	0.046467
1340.67	0.053217
1350.32	0.063427
1359.96	0.066247
1369.61	0.052937
1379.25	0.036157
1388.9	0.027097
1398.54	0.018647
1408.18	0.009187
1417.83	0.007677
1427.47	0.009827
1437.12	0.015087
1446.76	0.025577
1456.41	0.041727
1466.05	0.047827
1475.7	0.031747
1485.34	0.016507
1494.99	0.008827
1504.63	0.005367
1514.28	0.003667
1523.92	0.002797
1533.57	0.002347
1543.21	0.002157
1552.86	0.001847
1562.5	0.001787
1572.15	0.001657
1581.79	0.0016421
1591.44	0.0016196
1601.08	0.0016513
1610.73	0.0015467
1620.37	0.0015564
1630.01	0.0015252
1639.66	0.0015572
1649.3	0.0015096
1658.95	0.0015276
1668.59	0.0015245
1678.24	0.0015227
1687.88	0.0015449
1697.53	0.0015925
1707.17	0.0016088
1716.82	0.0015664
1726.46	0.001657
1736.11	0.001727
1745.75	0.001657
1755.4	0.0016538
1765.04	0.001717
1774.69	0.001677
1784.33	0.001667
1793.98	0.001777
1803.62	0.001747
1813.27	0.001827
1822.91	0.001977
1832.55	0.002197
1842.2	0.002457
1851.84	0.003017
1861.49	0.003737
1871.13	0.004527
1880.78	0.005537
1890.42	0.006777
1900.07	0.008577
1909.71	0.010927
1919.36	0.013777
1929	0.017517
1938.65	0.022477
1948.29	0.028667
1957.94	0.036297
1967.58	0.046367
1977.23	0.060047
1986.87	0.079277
1996.52	0.105967
2006.16	0.143497
2015.81	0.197397
2025.45	0.272547
2035.1	0.367277
2044.74	0.464897
2054.38	0.530037
2064.03	0.530107
2073.67	0.463077
2083.32	0.363777
2092.96	0.278217
2102.61	0.220007
2112.25	0.184997
2121.9	0.159777
2131.54	0.131217
2141.19	0.105927
2150.83	0.091277
2160.48	0.085347
2170.12	0.083767
2179.77	0.082897
2189.41	0.078227
2199.06	0.068267
2208.7	0.056977
2218.35	0.046567
2227.99	0.036867
2237.64	0.028187
2247.28	0.021337
2256.92	0.016267
2266.57	0.012747
2276.21	0.010337
2285.86	0.008477
2295.5	0.006997
2305.15	0.005927
2314.79	0.005007
2324.44	0.004367
2334.08	0.003987
2343.73	0.003527
2353.37	0.003347
2363.02	0.002947
2372.66	0.002667
2382.31	0.002477
2391.95	0.002297
2401.6	0.002057
2411.24	0.001967
2420.89	0.001937
2430.53	0.001877
2440.18	0.001927
2449.82	0.001917
2459.47	0.001957
2469.11	0.002047
2478.75	0.002047
2488.4	0.002197
2498.04	0.002277
2507.69	0.002177
2517.33	0.002367
2526.98	0.002347
2536.62	0.002477
2546.27	0.002577
2555.91	0.002707
2565.56	0.002807
2575.2	0.003197
2584.85	0.003117
2594.49	0.002947
2604.14	0.002847
2613.78	0.002677
2623.43	0.002627
2633.07	0.002557
2642.72	0.002477
2652.36	0.002737
2662.01	0.003007
2671.65	0.003247
2681.29	0.003867
2690.94	0.004667
2700.58	0.005697
2710.23	0.006927
2719.87	0.008537
2729.52	0.009937
2739.16	0.010427
2748.81	0.009997
2758.45	0.009147
2768.1	0.008247
2777.74	0.007667
2787.39	0.007127
2797.03	0.006647
2806.68	0.006877
2816.32	0.007337
2825.97	0.008117
2835.61	0.009727
2845.26	0.013327
2854.9	0.018447
2864.55	0.026437
2874.19	0.043747
2883.84	0.058447
2893.48	0.058317
2903.12	0.055417
2912.77	0.063457
2922.41	0.073927
2932.06	0.088097
2941.7	0.107717
2951.35	0.129487
2960.99	0.161197
2970.64	0.161877
2980.28	0.093867
2989.93	0.036807
2999.57	0.018067
3009.22	0.010417
3018.86	0.006497
3028.51	0.005027
3038.15	0.004407
3047.8	0.003897
3057.44	0.003627
3067.09	0.003487
3076.73	0.003287
3086.38	0.003187
3096.02	0.002867
3105.67	0.002707
3115.31	0.002297
3124.95	0.002297
3134.6	0.002127
3144.24	0.002217
3153.89	0.002047
3163.53	0.002007
3173.18	0.002087
3182.82	0.002017
3192.47	0.001867
3202.11	0.0016427
3211.76	0.0013646
3221.4	0.0009157
3231.05	0.00076
3240.69	0.000507
3250.34	0.000342
3259.98	0.0005643
3269.63	0.000487
3279.27	0.000425
3288.92	0.000264
3298.56	0.000532
3308.21	0.000406
3317.85	0.000335
3327.49	0.000431
3337.14	0.000476
3346.78	0.0007895
3356.43	0.00049
3366.07	0.000497
3375.72	0.0006257
3385.36	0.000523
3395.01	0.000449
3404.65	0.000314
3414.3	0.000397
3423.94	0.000333
3433.59	0.00027
3443.23	0.000289
3452.88	0.000295
3462.52	0.000235
3472.17	5.2e-05
3481.81	0.00023
3491.46	0.00023
3501.1	0.00032
3510.75	0.000234
3520.39	1.3e-05
3530.04	4.2e-05
3539.68	7.7e-05
3549.32	0.000144
3558.97	7.8e-05
3568.61	0.000204
3578.26	0
3587.9	0.000125
3597.55	0.000186
3607.19	5.5e-05
3616.84	0.000293
3626.48	7.9e-05
3636.13	0.00039
3645.77	8.4e-05
3655.42	0.000211
3665.06	0.000135
3674.71	0.000251
3684.35	0.00025
3694	0.000294
3703.64	0.000357
3713.29	0.00032
3722.93	0.000443
3732.58	0.000421
3742.22	0.000464
3751.86	0.00041
3761.51	0.000356
3771.15	0.000458
3780.8	0.0005632
3790.44	0.000471
3800.09	0.00067931
3809.73	0.000523
3819.38	0.0007575
3829.02	0.0008178
3838.67	0.00073606
3848.31	0.0007996
3857.96	0.00069171
3867.6	0.00074485
3877.25	0.0008295
3886.89	0.0009475
3896.54	0.0006453
3906.18	0.0008819
3915.83	0.0008137
3925.47	0.0009125
3935.12	0.0009676
3944.76	0.0010153
3954.41	0.0011212
3964.05	0.0011587
3973.69	0.0013492
3983.34	0.0015892
3992.98	0.0016396
