Infrared Spectrum: Dimethallyl ether
Formula: C 8 H 14 O
CAS: 628-56-8
State: gas
Instrument: HP-GC/MS/IRD
Origin: NIST Mass Spectrometry Data Center
1/CM	ABSORBANCE
550	0.0006688
562	0.0009152
574	0.0011088
586	0.0012144
598	0.0007524
610	0.0005016
622	0.0002376
634	2.2e-05
646	0.00022
658	9.24e-05
670	0.0001804
682	0.0001848
694	0.0004004
706	0.000484
718	0.000286
730	0.000132
742	0.0001672
754	0.0001584
766	0.0001364
778	0.0002244
790	0.0003828
802	0.0007524
814	0.0011924
826	0.0013024
838	0.001342
850	0.0016324
862	0.0023672
874	0.004576
886	0.0117084
898	0.0250096
910	0.0215028
922	0.0098076
934	0.0058388
946	0.0045144
958	0.00429
970	0.005126
982	0.0061072
994	0.0056716
1006	0.0051304
1018	0.0055308
1030	0.0065912
1042	0.0079816
1054	0.0109472
1066	0.016456
1078	0.0268356
1090	0.0392568
1102	0.044
1114	0.039314
1126	0.02849
1138	0.0160116
1150	0.0072644
1162	0.0037664
1174	0.0025256
1186	0.0018744
1198	0.0017116
1210	0.0018656
1222	0.0023012
1234	0.0033484
1246	0.004422
1258	0.0039204
1270	0.00286
1282	0.0026576
1294	0.002618
1306	0.0022968
1318	0.0022748
1330	0.0037884
1342	0.0071192
1354	0.0081048
1366	0.0070576
1378	0.0080124
1390	0.0066792
1402	0.0044132
1414	0.0046024
1426	0.00616
1438	0.0082104
1450	0.0104456
1462	0.0095128
1474	0.0057728
1486	0.0030668
1498	0.0018788
1510	0.0013816
1522	0.0011572
1534	0.0009944
1546	0.0009944
1558	0.0010604
1570	0.001122
1582	0.0013068
1594	0.0014784
1606	0.001584
1618	0.0019492
1630	0.002926
1642	0.0048708
1654	0.0061248
1666	0.0045672
1678	0.0021428
1690	0.0009592
1702	0.0005456
1714	0.0003432
1726	0.000242
1738	0.0002112
1750	0.0002112
1762	0.0002816
1774	0.0004312
1786	0.000814
1798	0.001584
1810	0.0018744
1822	0.001144
1834	0.0005104
1846	0.0002508
1858	0.0001628
1870	7.92e-05
1882	6.6e-05
1894	3.96e-05
1906	3.52e-05
1918	5.28e-05
1930	6.16e-05
1942	9.68e-05
1954	0.0001232
1966	0.0001584
1978	0.000154
1990	0.00022
2002	0.0002728
2014	0.000308
2026	0.0003432
2038	0.00033
2050	0.0003652
2062	0.0004004
2074	0.000396
2086	0.0004356
2098	0.0004048
2110	0.0003344
2122	0.0002508
2134	0.0001936
2146	0.000198
2158	0.000198
2170	0.0001892
2182	0.0001848
2194	0.0001716
2206	0.0001452
2218	0.0001188
2230	7.04e-05
2242	5.28e-05
2254	6.6e-05
2266	3.52e-05
2278	0
2290	1.32e-05
2302	4.4e-05
2314	1.76e-05
2326	6.6e-05
2338	6.6e-05
2350	6.6e-05
2362	8.36e-05
2374	5.72e-05
2386	3.52e-05
2398	3.52e-05
2410	3.52e-05
2422	6.6e-05
2434	6.6e-05
2446	6.16e-05
2458	7.04e-05
2470	3.96e-05
2482	6.16e-05
2494	5.72e-05
2506	4.4e-05
2518	4.4e-05
2530	3.08e-05
2542	1.76e-05
2554	2.64e-05
2566	3.08e-05
2578	6.16e-05
2590	0.0001012
2602	9.68e-05
2614	0.0001232
2626	0.0001848
2638	0.0002332
2650	0.0002728
2662	0.000396
2674	0.0005544
2686	0.0007172
2698	0.0009328
2710	0.001188
2722	0.0015488
2734	0.0018744
2746	0.0020856
2758	0.0022088
2770	0.0024508
2782	0.002926
2794	0.0035816
2806	0.0047256
2818	0.0070004
2830	0.0110792
2842	0.0160072
2854	0.019184
2866	0.0192764
2878	0.0177276
2890	0.0168168
2902	0.0171952
2914	0.019712
2926	0.0221452
2938	0.0200156
2950	0.0147708
2962	0.011902
2974	0.0149424
2986	0.0167376
2998	0.0107712
3010	0.0065296
3022	0.0041932
3034	0.0032472
3046	0.003124
3058	0.0042196
3070	0.0076912
3082	0.0110308
3094	0.0077132
3106	0.003916
3118	0.0016456
3130	0.0008712
3142	0.000528
3154	0.0003608
3166	0.000242
3178	0.0001408
3190	7.92e-05
3202	7.48e-05
3214	7.04e-05
3226	8.36e-05
3238	4.84e-05
3250	0.0001056
3262	8.8e-05
3274	0.0001188
3286	0.0001452
3298	0.0001276
3310	0.0001364
3322	9.68e-05
3334	0.0001056
3346	7.48e-05
3358	7.04e-05
3370	7.04e-05
3382	7.48e-05
3394	7.48e-05
3406	0.0001012
3418	8.36e-05
3430	5.72e-05
3442	6.6e-05
3454	7.04e-05
3466	7.92e-05
3478	6.6e-05
3490	5.28e-05
3502	0.0001144
3514	7.48e-05
3526	3.96e-05
3538	5.72e-05
3550	3.08e-05
3562	7.04e-05
3574	5.28e-05
3586	7.48e-05
3598	0.00011
3610	0.0001496
3622	8.8e-05
3634	0.0001364
3646	0.00011
3658	0.0001144
3670	8.8e-05
3682	0.0001012
3694	0.0001276
3706	0.0001276
3718	8.36e-05
3730	0.0001364
3742	0.0001232
3754	0.000154
3766	0.0002112
3778	0.0001892
3790	0.0001276
3802	0.0001804
3814	0.000198
3826	0.0002332
3838	0.00022
