Infrared Spectrum: DL-MALIC ACID, DI-n-BUTYL ESTER
Formula: C12 H22 O5
CAS: 6280-99-5
State: LIQUID
Boiling point: 116-119 C AT 1 mmHg
Class: COBLENTZ
Instrument: Not specified, most likely a prism, grating, or hybrid spectrometer.
Sampling: TRANSMISSION
Path length: 0.003 CM
Resolution: 4
Origin: WYANDOTTE CHEMICALS CORP., WYANDOTTE, MICHIGAN, USA
MICROMETERS	TRANSMITTANCE
2.014	0.95
2.05488	0.955
2.09575	0.969
2.13663	0.97
2.1775	0.953
2.21838	0.933
2.25926	0.936
2.30013	0.947
2.34101	0.95
2.38188	0.953
2.42276	0.955
2.46364	0.957
2.50451	0.969
2.54539	0.972
2.58626	0.976
2.62714	0.977
2.66802	0.976
2.70889	0.965
2.74977	0.909
2.79064	0.699
2.83152	0.41
2.8724	0.362
2.91327	0.394
2.95415	0.492
2.99502	0.617
3.0359	0.721
3.07678	0.765
3.11765	0.781
3.15853	0.781
3.1994	0.777
3.24028	0.755
3.28116	0.711
3.32203	0.466
3.36291	0.044
3.40378	0.104
3.44466	0.234
3.48554	0.201
3.52641	0.6
3.56729	0.77
3.60816	0.813
3.64904	0.829
3.68992	0.842
3.73079	0.864
3.77167	0.88
3.81255	0.887
3.85342	0.897
3.8943	0.911
3.93517	0.917
3.97605	0.917
4.01693	0.919
4.0578	0.923
4.09868	0.926
4.13955	0.931
4.18043	0.931
4.22131	0.928
4.26218	0.94
4.30306	0.957
4.34393	0.965
4.38481	0.97
4.42569	0.962
4.46656	0.965
4.50744	0.965
4.54831	0.965
4.58919	0.967
4.63007	0.967
4.67094	0.967
4.71182	0.969
4.75269	0.969
4.79357	0.969
4.83445	0.969
4.87532	0.969
4.9162	0.969
4.95707	0.967
4.99795	0.967
5.03883	0.965
5.0797	0.962
5.12058	0.965
5.16145	0.962
5.20233	0.964
5.24321	0.95
5.28408	0.94
5.32496	0.94
5.36583	0.931
5.40671	0.929
5.44759	0.919
5.48846	0.895
5.52934	0.856
5.57021	0.788
5.61109	0.695
5.65197	0.475
5.69284	0.066
5.73372	0.037
5.77459	0.034
5.81547	0.061
5.85635	0.23
5.89722	0.476
5.9381	0.629
5.97897	0.7
6.01985	0.726
6.06073	0.699
6.1016	0.798
6.14248	0.829
6.18335	0.847
6.22423	0.859
6.26511	0.87
6.30598	0.871
6.34686	0.87
6.38773	0.868
6.42861	0.858
6.46949	0.849
6.51036	0.842
6.55124	0.83
6.59211	0.818
6.63299	0.793
6.67387	0.741
6.71474	0.562
6.75562	0.294
6.79649	0.2
6.83737	0.295
6.87825	0.427
6.91912	0.482
6.96	0.432
7.00087	0.396
7.04175	0.338
7.08263	0.3
7.1235	0.283
7.16438	0.239
7.20525	0.247
7.24613	0.299
7.28701	0.302
7.32788	0.252
7.36876	0.242
7.40964	0.292
7.45051	0.302
7.49139	0.276
7.53226	0.23
7.57314	0.17
7.61402	0.095
7.65489	0.059
7.69577	0.047
7.73664	0.054
7.77752	0.047
7.8184	0.037
7.85927	0.037
7.90015	0.035
7.94102	0.035
7.9819	0.041
8.02278	0.046
8.06365	0.056
8.10453	0.056
8.1454	0.051
8.18628	0.039
8.22716	0.041
8.26803	0.046
8.30891	0.046
8.34978	0.044
8.39066	0.039
8.43154	0.034
8.47241	0.029
8.51329	0.035
8.55416	0.037
8.59504	0.042
8.63592	0.058
8.67679	0.088
8.71767	0.186
8.75854	0.317
8.79942	0.36
8.8403	0.326
8.88117	0.222
8.92205	0.116
8.96292	0.08
9.0038	0.058
9.04468	0.071
9.08555	0.102
9.12643	0.165
9.1673	0.242
9.20818	0.3
9.24906	0.319
9.28993	0.263
9.33081	0.196
9.37168	0.157
9.41256	0.15
9.45344	0.235
9.49431	0.302
9.53519	0.304
9.57606	0.285
9.61694	0.276
9.65782	0.3
9.69869	0.297
9.73957	0.275
9.78044	0.273
9.82132	0.309
9.8622	0.357
9.90307	0.393
9.94395	0.406
9.98482	0.411
10.0257	0.418
10.0666	0.418
10.1075	0.411
10.1483	0.376
10.1892	0.336
10.2301	0.331
10.271	0.352
10.3118	0.357
10.3527	0.357
10.3936	0.357
10.4345	0.374
10.4753	0.384
10.5162	0.382
10.5571	0.382
10.598	0.411
10.6388	0.444
10.6797	0.485
10.7206	0.529
10.7615	0.582
10.8023	0.623
10.8432	0.659
10.8841	0.694
10.925	0.712
10.9658	0.723
11.0067	0.723
11.0476	0.723
11.0885	0.717
11.1294	0.711
11.1702	0.711
11.2111	0.712
11.252	0.719
11.2929	0.726
11.3337	0.728
11.3746	0.728
11.4155	0.728
11.4564	0.731
11.4972	0.736
11.5381	0.735
11.579	0.735
11.6199	0.733
11.6607	0.731
11.7016	0.729
11.7425	0.717
11.7834	0.695
11.8242	0.647
11.8651	0.606
11.906	0.586
11.9469	0.606
11.9877	0.627
12.0286	0.658
12.0695	0.668
12.1104	0.673
12.1513	0.692
12.1921	0.699
12.233	0.709
12.2739	0.702
12.3148	0.709
12.3556	0.7
12.3965	0.705
12.4374	0.702
12.4783	0.707
12.5191	0.711
12.56	0.714
12.6009	0.707
12.6418	0.702
12.6826	0.692
12.7235	0.682
12.7644	0.673
12.8053	0.664
12.8461	0.658
12.887	0.663
12.9279	0.685
12.9688	0.709
13.0097	0.74
13.0505	0.745
13.0914	0.758
13.1323	0.753
13.1732	0.745
13.214	0.741
13.2549	0.736
13.2958	0.729
13.3367	0.721
13.3775	0.714
13.4184	0.695
13.4593	0.671
13.5002	0.647
13.541	0.642
13.5819	0.656
13.6228	0.694
13.6637	0.731
13.7045	0.762
13.7454	0.774
13.7863	0.788
13.8272	0.793
13.868	0.796
13.9089	0.798
13.9498	0.796
13.9907	0.794
14.0316	0.794
14.0724	0.793
14.1133	0.793
14.1542	0.788
14.1951	0.781
14.2359	0.774
14.2768	0.765
14.3177	0.762
14.3586	0.753
14.3994	0.75
14.4403	0.747
14.4812	0.74
14.5221	0.74
14.5629	0.729
14.6038	0.726
14.6447	0.717
14.6856	0.712
14.7264	0.702
14.7673	0.7
14.8082	0.694
14.8491	0.682
14.8899	0.675
14.9308	0.668
14.9717	0.656
15.0126	0.646
15.0535	0.651
15.0943	0.656
15.1352	0.668
15.1761	0.67
15.217	0.671
15.2578	0.668
15.2987	0.663
15.3396	0.663
15.3805	0.668
15.4213	0.663
15.4622	0.658
15.5031	0.652
15.544	0.646
15.5848	0.649
15.6257	0.644
15.6666	0.641
15.7075	0.637
15.7483	0.635
15.7892	0.632
15.8301	0.632
15.871	0.63
15.9118	0.627
15.9527	0.629
15.9936	0.632
