Infrared Spectrum: 1,4-DI-(P-METHYL BENZOYL)-BUTANE
Formula: C20 H22 O2
CAS: 6280-00-8
State: SOLID (1.0% IN KBr PELLET)
Class: COBLENTZ
Instrument: Not specified, most likely a prism, grating, or hybrid spectrometer.
Sampling: TRANSMISSION
Path length: 0.0355 CM THICK
Resolution: 4
Origin: ANDERSON PHYSICAL LABORATORY
1/CM	TRANSMITTANCE
669.476	0.656
677.903	0.653
686.33	0.663
694.757	0.651
703.184	0.644
711.611	0.651
720.038	0.618
728.465	0.466
736.892	0.444
745.319	0.651
753.746	0.656
762.173	0.627
770.6	0.516
779.027	0.671
787.454	0.629
795.881	0.5011
804.308	0.192
812.735	0.4959
821.162	0.632
829.589	0.671
838.016	0.654
846.443	0.573
854.87	0.668
863.297	0.668
871.724	0.665
880.151	0.66
888.577	0.65
897.004	0.627
905.431	0.602
913.858	0.63
922.285	0.617
930.712	0.599
939.139	0.575
947.566	0.509
955.993	0.3991
964.42	0.229
972.847	0.4899
981.274	0.587
989.701	0.633
998.128	0.683
1006.56	0.674
1014.98	0.5911
1023.41	0.623
1031.84	0.597
1040.26	0.552
1048.69	0.512
1057.12	0.492
1065.54	0.611
1073.97	0.629
1082.4	0.621
1090.83	0.608
1099.25	0.579
1107.68	0.531
1116.11	0.515
1124.53	0.5549
1132.96	0.576
1141.39	0.554
1149.81	0.521
1158.24	0.48
1166.67	0.433
1175.09	0.261
1183.52	0.3276
1191.95	0.39
1200.38	0.606
1208.8	0.665
1217.23	0.609
1225.66	0.563
1234.08	0.495
1242.51	0.417
1250.94	0.318
1259.36	0.162
1267.79	0.3267
1276.22	0.542
1284.65	0.581
1293.07	0.644
1301.5	0.618
1309.93	0.596
1318.35	0.674
1326.78	0.66
1335.21	0.627
1343.63	0.59
1352.06	0.5221
1360.49	0.4301
1368.92	0.2561
1377.34	0.3729
1385.77	0.4529
1394.2	0.557
1402.62	0.411
1411.05	0.375
1419.48	0.414
1427.9	0.551
1436.33	0.546
1444.76	0.53
1453.19	0.495
1461.61	0.375
1470.04	0.5249
1478.47	0.606
1486.89	0.612
1495.32	0.612
1503.75	0.606
1512.17	0.603
1520.6	0.594
1529.03	0.588
1537.45	0.566
1545.88	0.554
1554.31	0.512
1562.74	0.471
1571.16	0.423
1579.59	0.483
1588.02	0.429
1596.44	0.33
1604.87	0.2289
1613.3	0.4629
1621.72	0.542
1630.15	0.509
1638.58	0.474
1647.01	0.429
1655.43	0.358
1663.86	0.219
1672.29	0.108
1680.71	0.316
1689.14	0.4689
1697.57	0.6379
1705.99	0.693
1714.42	0.722
1722.85	0.728
1731.28	0.728
1739.7	0.726
1748.13	0.723
1756.56	0.717
1764.98	0.714
1773.41	0.713
1781.84	0.708
1790.26	0.698
1798.69	0.698
1807.12	0.701
1815.55	0.701
1823.97	0.699
1832.4	0.695
1840.83	0.69
1849.25	0.686
1857.68	0.681
1866.11	0.678
1874.53	0.674
1882.96	0.657
1891.39	0.656
1899.82	0.662
1908.24	0.642
1916.67	0.647
1925.1	0.659
1933.52	0.644
1941.95	0.651
1950.38	0.656
1958.8	0.654
1967.23	0.653
1975.66	0.653
1984.08	0.645
1992.51	0.642
2000.94	0.641
2009.37	0.642
2017.79	0.641
2026.22	0.639
2034.65	0.6375
2043.07	0.6355
2051.5	0.635
2059.93	0.635
2068.35	0.6327
2076.78	0.632
2085.21	0.6292
2093.64	0.624
2102.06	0.6224
2110.49	0.621
2118.92	0.6202
2127.34	0.6199
2135.77	0.618
2144.2	0.615
2152.62	0.615
2161.05	0.612
2169.48	0.611
2177.91	0.609
2186.33	0.608
2194.76	0.6059
2203.19	0.6043
2211.61	0.603
2220.04	0.603
2228.47	0.6018
2236.89	0.6
2245.32	0.599
2253.75	0.5973
2262.18	0.594
2270.6	0.5919
2279.03	0.5874
2287.46	0.587
2295.88	0.585
2304.31	0.584
2312.74	0.5827
2321.16	0.582
2329.59	0.581
2338.02	0.5816
2346.45	0.5797
2354.87	0.5781
2363.3	0.578
2371.73	0.576
2380.15	0.575
2388.58	0.575
2397.01	0.575
2405.43	0.575
2413.86	0.5736
2422.29	0.573
2430.71	0.5694
2439.14	0.567
2447.57	0.566
2456	0.564
2464.42	0.566
2472.85	0.5651
2481.28	0.564
2489.7	0.563
2498.13	0.5625
2506.56	0.559
2514.98	0.557
2523.41	0.552
2531.84	0.551
2540.27	0.548
2548.69	0.5452
2557.12	0.543
2565.55	0.5436
2573.97	0.5471
2582.4	0.548
2590.83	0.548
2599.25	0.5474
2607.68	0.5444
2616.11	0.5404
2624.54	0.536
2632.96	0.5337
2641.39	0.533
2649.82	0.531
2658.24	0.5279
2666.67	0.5264
2675.1	0.525
2683.52	0.524
2691.95	0.5219
2700.38	0.5187
2708.81	0.5168
2717.23	0.5151
2725.66	0.5118
2734.09	0.5083
2742.51	0.5048
2750.94	0.503
2759.37	0.498
2767.79	0.4949
2776.22	0.4863
2784.65	0.4727
2793.08	0.462
2801.5	0.4493
2809.93	0.4269
2818.36	0.4174
2826.78	0.409
2835.21	0.4098
2843.64	0.412
2852.06	0.4111
2860.49	0.4041
2868.92	0.3977
2877.34	0.3892
2885.77	0.3784
2894.2	0.3728
2902.63	0.3739
2911.05	0.4096
2919.48	0.4494
2927.91	0.4514
2936.33	0.453
2944.76	0.453
2953.19	0.453
2961.61	0.453
2970.04	0.4535
2978.47	0.454
2986.9	0.456
2995.32	0.4575
3003.75	0.4595
3012.18	0.4615
3020.6	0.466
3029.03	0.4725
3037.46	0.4745
3045.88	0.4778
3054.31	0.48
3062.74	0.4815
3071.17	0.485
3079.59	0.487
3088.02	0.487
3096.45	0.487
3104.87	0.487
3113.3	0.486
3121.73	0.484
3130.15	0.4837
3138.58	0.481
3147.01	0.4802
3155.44	0.478
3163.86	0.478
3172.29	0.478
3180.72	0.4772
3189.14	0.4748
3197.57	0.47
3206	0.4642
3214.42	0.4622
3222.85	0.462
3231.28	0.462
3239.71	0.46
3248.13	0.4573
3256.56	0.4528
3264.99	0.4489
3273.41	0.4457
3281.84	0.4441
3290.27	0.4416
3298.69	0.4356
3307.12	0.433
3315.55	0.433
3323.97	0.4315
3332.4	0.4248
3340.83	0.4203
3349.26	0.4182
3357.68	0.4148
3366.11	0.4132
3374.54	0.4113
3382.96	0.4091
3391.39	0.409
3399.82	0.409
3408.24	0.4104
3416.67	0.4119
3425.1	0.4126
3433.53	0.4159
3441.95	0.4194
3450.38	0.421
3458.81	0.423
3467.23	0.424
3475.66	0.426
3484.09	0.429
3492.51	0.432
3500.94	0.433
3509.37	0.4372
3517.8	0.439
3526.22	0.4412
3534.65	0.443
3543.08	0.4448
3551.5	0.447
3559.93	0.4485
3568.36	0.45
3576.78	0.451
3585.21	0.453
3593.64	0.454
3602.07	0.456
3610.49	0.456
3618.92	0.456
3627.35	0.456
3635.77	0.456
3644.2	0.4544
3652.63	0.453
3661.05	0.451
3669.48	0.4504
3677.91	0.45
3686.34	0.4479
3694.76	0.4463
3703.19	0.445
3711.62	0.4442
3720.04	0.444
3728.47	0.444
3736.9	0.444
3745.32	0.444
3753.75	0.442
3762.18	0.4402
3770.6	0.4367
3779.03	0.436
3787.46	0.4359
3795.89	0.435
3804.31	0.435
3812.74	0.435
3821.17	0.435
3829.59	0.435
3838.02	0.435
3846.45	0.435
3854.87	0.435
3863.3	0.435
3871.73	0.435
3880.16	0.435
3888.58	0.4328
3897.01	0.4311
3905.44	0.429
3913.86	0.429
3922.29	0.429
3930.72	0.429
3939.14	0.429
3947.57	0.43
3956	0.43
3964.43	0.43
3972.85	0.43
3981.28	0.432
