Infrared Spectrum: 1,3-DI-(2,4-DIMETHYL-BENZOYL)-PROPANE
Formula: C21 H24 O2
CAS: 6280-01-9
State: SOLID (1.0% IN KBr PELLET)
Class: COBLENTZ
Instrument: Not specified, most likely a prism, grating, or hybrid spectrometer.
Sampling: TRANSMISSION
Path length: 0.0355 CM THICK
Resolution: 4
Origin: ANDERSON PHYSICAL LABORATORY
1/CM	TRANSMITTANCE
671.241	0.76
679.663	0.762
688.084	0.768
696.506	0.774
704.928	0.775
713.35	0.766
721.771	0.6601
730.193	0.781
738.615	0.796
747.036	0.783
755.458	0.701
763.88	0.6439
772.302	0.763
780.723	0.762
789.145	0.735
797.567	0.692
805.989	0.4812
814.41	0.2759
822.832	0.218
831.254	0.662
839.675	0.805
848.097	0.829
856.519	0.7891
864.941	0.618
873.362	0.6781
881.784	0.5268
890.206	0.795
898.627	0.82
907.049	0.799
915.471	0.611
923.893	0.79
932.314	0.82
940.736	0.82
949.158	0.801
957.579	0.771
966.001	0.5172
974.423	0.4309
982.845	0.647
991.266	0.484
999.688	0.588
1008.11	0.732
1016.53	0.5961
1024.95	0.5469
1033.37	0.5811
1041.8	0.5959
1050.22	0.7069
1058.64	0.763
1067.06	0.781
1075.48	0.781
1083.91	0.781
1092.33	0.771
1100.75	0.747
1109.17	0.747
1117.59	0.744
1126.01	0.72
1134.44	0.6271
1142.86	0.4301
1151.28	0.4719
1159.7	0.554
1168.12	0.69
1176.54	0.65
1184.97	0.6319
1193.39	0.68
1201.81	0.5541
1210.23	0.3252
1218.65	0.177
1227.07	0.216
1235.5	0.5239
1243.92	0.645
1252.34	0.702
1260.76	0.75
1269.18	0.75
1277.6	0.6951
1286.03	0.5441
1294.45	0.418
1302.87	0.672
1311.29	0.727
1319.71	0.713
1328.14	0.596
1336.56	0.421
1344.98	0.373
1353.4	0.518
1361.82	0.496
1370.24	0.5839
1378.67	0.612
1387.09	0.481
1395.51	0.693
1403.93	0.662
1412.35	0.599
1420.77	0.415
1429.2	0.539
1437.62	0.4031
1446.04	0.2841
1454.46	0.3968
1462.88	0.5089
1471.3	0.651
1479.73	0.689
1488.15	0.72
1496.57	0.69
1504.99	0.632
1513.41	0.724
1521.83	0.753
1530.26	0.751
1538.68	0.732
1547.1	0.711
1555.52	0.62
1563.94	0.5151
1572.37	0.399
1580.79	0.66
1589.21	0.704
1597.63	0.659
1606.05	0.5271
1614.47	0.284
1622.9	0.5358
1631.32	0.677
1639.74	0.674
1648.16	0.672
1656.58	0.641
1665	0.536
1673.43	0.331
1681.85	0.118
1690.27	0.3248
1698.69	0.5688
1707.11	0.7479
1715.53	0.804
1723.96	0.847
1732.38	0.853
1740.8	0.85
1749.22	0.847
1757.64	0.865
1766.06	0.866
1774.49	0.866
1782.91	0.868
1791.33	0.871
1799.75	0.875
1808.17	0.874
1816.59	0.874
1825.02	0.868
1833.44	0.86
1841.86	0.856
1850.28	0.866
1858.7	0.863
1867.13	0.863
1875.55	0.865
1883.97	0.863
1892.39	0.856
1900.81	0.846
1909.23	0.837
1917.66	0.834
1926.08	0.819
1934.5	0.84
1942.92	0.846
1951.34	0.847
1959.76	0.849
1968.19	0.85
1976.61	0.85
1985.03	0.85
1993.45	0.849
2001.87	0.847
2010.29	0.847
2018.72	0.846
2027.14	0.846
2035.56	0.846
2043.98	0.8444
2052.4	0.844
2060.82	0.843
2069.25	0.8419
2077.67	0.841
2086.09	0.84
2094.51	0.84
2102.93	0.8383
2111.36	0.835
2119.78	0.835
2128.2	0.835
2136.62	0.8344
2145.04	0.832
2153.46	0.831
2161.89	0.829
2170.31	0.828
2178.73	0.826
2187.15	0.825
2195.57	0.825
2203.99	0.823
2212.42	0.823
2220.84	0.822
2229.26	0.822
2237.68	0.8206
2246.1	0.82
2254.52	0.817
2262.95	0.817
2271.37	0.817
2279.79	0.816
2288.21	0.814
2296.63	0.811
2305.05	0.8072
2313.48	0.804
2321.9	0.801
2330.32	0.801
2338.74	0.799
2347.16	0.799
2355.59	0.798
2364.01	0.798
2372.43	0.798
2380.85	0.801
2389.27	0.801
2397.69	0.7999
2406.12	0.799
2414.54	0.7959
2422.96	0.7943
2431.38	0.7924
2439.8	0.7894
2448.22	0.786
2456.65	0.786
2465.07	0.786
2473.49	0.786
2481.91	0.786
2490.33	0.786
2498.75	0.786
2507.18	0.786
2515.6	0.786
2524.02	0.786
2532.44	0.786
2540.86	0.786
2549.28	0.7838
2557.71	0.7791
2566.13	0.7756
2574.55	0.7711
2582.97	0.7658
2591.39	0.764
2599.81	0.762
2608.24	0.762
2616.66	0.7638
2625.08	0.768
2633.5	0.768
2641.92	0.7679
2650.35	0.766
2658.77	0.765
2667.19	0.7634
2675.61	0.7619
2684.03	0.759
2692.45	0.757
2700.88	0.7544
2709.3	0.7507
2717.72	0.7463
2726.14	0.7422
2734.56	0.7365
2742.98	0.732
2751.41	0.7296
2759.83	0.729
2768.25	0.729
2776.67	0.729
2785.09	0.726
2793.51	0.7201
2801.94	0.7134
2810.36	0.7032
2818.78	0.6939
2827.2	0.6481
2835.62	0.6352
2844.04	0.6259
2852.47	0.6176
2860.89	0.6129
2869.31	0.5904
2877.73	0.558
2886.15	0.5126
2894.58	0.4709
2903	0.445
2911.42	0.4237
2919.84	0.404
2928.26	0.4028
2936.68	0.4183
2945.11	0.4431
2953.53	0.452
2961.95	0.452
2970.37	0.4636
2978.79	0.5026
2987.21	0.5343
2995.64	0.5406
3004.06	0.5471
3012.48	0.5537
3020.9	0.5994
3029.32	0.6474
3037.74	0.6723
3046.17	0.678
3054.59	0.6806
3063.01	0.6828
3071.43	0.6891
3079.85	0.6966
3088.27	0.7017
3096.7	0.704
3105.12	0.6984
3113.54	0.6882
3121.96	0.6884
3130.38	0.6947
3138.8	0.7016
3147.23	0.705
3155.65	0.7077
3164.07	0.71
3172.49	0.71
3180.91	0.71
3189.34	0.71
3197.76	0.71
3206.18	0.71
3214.6	0.71
3223.02	0.71
3231.44	0.71
3239.87	0.71
3248.29	0.71
3256.71	0.708
3265.13	0.707
3273.55	0.7047
3281.97	0.702
3290.4	0.6994
3298.82	0.6979
3307.24	0.6946
3315.66	0.686
3324.08	0.6785
3332.5	0.6648
3340.93	0.662
3349.35	0.6642
3357.77	0.665
3366.19	0.6629
3374.61	0.6589
3383.03	0.652
3391.46	0.6471
3399.88	0.6437
3408.3	0.6416
3416.72	0.639
3425.14	0.638
3433.57	0.6358
3441.99	0.6341
3450.41	0.6323
3458.83	0.632
3467.25	0.632
3475.67	0.633
3484.1	0.635
3492.52	0.635
3500.94	0.636
3509.36	0.638
3517.78	0.6388
3526.2	0.641
3534.63	0.6426
3543.05	0.645
3551.47	0.6478
3559.89	0.65
3568.31	0.6533
3576.73	0.6551
3585.16	0.6584
3593.58	0.6621
3602	0.665
3610.42	0.666
3618.84	0.6677
3627.26	0.671
3635.69	0.6743
3644.11	0.6776
3652.53	0.6809
3660.95	0.6812
3669.37	0.6834
3677.8	0.684
3686.22	0.684
3694.64	0.684
3703.06	0.684
3711.48	0.686
3719.9	0.6869
3728.33	0.689
3736.75	0.687
3745.17	0.687
3753.59	0.687
3762.01	0.6892
3770.43	0.692
3778.86	0.6927
3787.28	0.693
3795.7	0.6928
3804.12	0.69
3812.54	0.69
3820.96	0.687
3829.39	0.6867
3837.81	0.6849
3846.23	0.684
3854.65	0.684
3863.07	0.683
3871.49	0.6819
3879.92	0.681
3888.34	0.6799
3896.76	0.6777
3905.18	0.6758
3913.6	0.6742
3922.02	0.6719
3930.45	0.669
3938.87	0.669
3947.29	0.668
3955.71	0.6659
3964.13	0.665
3972.56	0.665
3980.98	0.665
