Infrared Spectrum: 5-Chlorovaleronitrile
Formula: C 5 H 8 Cl N
CAS: 6280-87-1
State: gas
Instrument: HP-GC/MS/IRD
Origin: NIST Mass Spectrometry Data Center
1/CM	ABSORBANCE
550	0.0005632
562	0.0004268
574	0.0002948
586	0.0001188
598	9.68e-05
610	0.0003608
622	0.0008052
634	0.0021252
646	0.0053592
658	0.0108196
670	0.0111232
682	0.005038
694	0.0028732
706	0.0029524
718	0.004312
730	0.006996
742	0.0107844
754	0.012672
766	0.0091432
778	0.0056144
790	0.0042944
802	0.0039556
814	0.0029568
826	0.0023804
838	0.00242
850	0.0035464
862	0.004774
874	0.0035552
886	0.0022748
898	0.0019184
910	0.0018436
922	0.0019008
934	0.0020284
946	0.002068
958	0.0016324
970	0.0014828
982	0.0021912
994	0.0031196
1006	0.002288
1018	0.0014036
1030	0.0011836
1042	0.0010956
1054	0.0011836
1066	0.0011044
1078	0.0012628
1090	0.00099
1102	0.0005104
1114	0.0004268
1126	0.0004444
1138	0.00044
1150	0.0005324
1162	0.0005016
1174	0.0006688
1186	0.000792
1198	0.0011528
1210	0.0013728
1222	0.001716
1234	0.0021428
1246	0.0031108
1258	0.0056848
1270	0.009526
1282	0.0117348
1294	0.0138204
1306	0.0163724
1318	0.013816
1330	0.009284
1342	0.0057376
1354	0.0041096
1366	0.0032824
1378	0.0022836
1390	0.0018172
1402	0.0020064
1414	0.0036608
1426	0.0085448
1438	0.0154616
1450	0.0178552
1462	0.0135696
1474	0.006996
1486	0.003124
1498	0.001562
1510	0.0010296
1522	0.0007788
1534	0.0006116
1546	0.0004664
1558	0.0004004
1570	0.0003256
1582	0.0003168
1594	0.0002728
1606	0.0002244
1618	0.0002376
1630	0.0002332
1642	0.0002376
1654	0.0002332
1666	0.000198
1678	0.0001804
1690	0.0001056
1702	2.64e-05
1714	2.2e-05
1726	0.0001672
1738	0.0002068
1750	0.0002244
1762	0.0002596
1774	0.0002244
1786	0.0001892
1798	0.0002112
1810	0.0001892
1822	0.0001584
1834	0.0001672
1846	0.0001672
1858	0.0001496
1870	0.0001848
1882	0.0001892
1894	0.0002068
1906	0.0001628
1918	0.0001496
1930	0.000154
1942	0.0001364
1954	0.0001276
1966	0.000154
1978	0.000176
1990	0.0001584
2002	0.0001804
2014	0.0002112
2026	0.0002244
2038	0.0002376
2050	0.0002464
2062	0.00022
2074	0.0002288
2086	0.0002068
2098	0.0002244
2110	0.0002376
2122	0.0002508
2134	0.0002332
2146	0.000198
2158	0.0001936
2170	0.0002156
2182	0.0002112
2194	0.0002596
2206	0.0002728
2218	0.0003696
2230	0.0006644
2242	0.0015224
2254	0.0020724
2266	0.0012936
2278	0.0006028
2290	0.0003608
2302	0.0002992
2314	0.0002904
2326	0.000264
2338	0.0002376
2350	0.000242
2362	0.0002332
2374	0.000286
2386	0.0002464
2398	0.0001892
2410	0.000198
2422	0.000154
2434	0.0002024
2446	0.0002024
2458	0.0001716
2470	0.000154
2482	0.0001584
2494	0.0001584
2506	0.0001716
2518	0.0001408
2530	0.00011
2542	4.4e-05
2554	1.76e-05
2566	5.28e-05
2578	8.36e-05
2590	0.0001628
2602	0.0002596
2614	0.0002508
2626	0.0002376
2638	0.00022
2650	0.0002552
2662	0.0002992
2674	0.0003168
2686	0.000396
2698	0.0004312
2710	0.000506
2722	0.0004796
2734	0.000462
2746	0.0004752
2758	0.0005588
2770	0.0005412
2782	0.0006028
2794	0.0007172
2806	0.00088
2818	0.0012496
2830	0.0019976
2842	0.0036784
2854	0.0061556
2866	0.0086724
2878	0.010912
2890	0.0112288
2902	0.0109956
2914	0.0129888
2926	0.0171996
2938	0.024464
2950	0.0351252
2962	0.0439824
2974	0.0381304
2986	0.0228404
2998	0.0150832
3010	0.0096712
3022	0.004378
3034	0.0020064
3046	0.0012056
3058	0.0008756
3070	0.0006424
3082	0.0005456
3094	0.0004092
3106	0.0003608
3118	0.0003344
3130	0.0003256
3142	0.0003036
3154	0.0003696
3166	0.000352
3178	0.0003828
3190	0.0002948
3202	0.0002904
3214	0.0002904
3226	0.00022
3238	0.0002068
3250	0.000264
3262	0.0002332
3274	0.00022
3286	0.0001892
3298	8.36e-05
3310	0.00011
3322	0.0001672
3334	8.36e-05
3346	0.0001232
3358	8.36e-05
3370	7.04e-05
3382	6.6e-05
3394	4.4e-06
3406	3.08e-05
3418	1.76e-05
3430	1.76e-05
3442	4.4e-05
3454	3.08e-05
3466	4.4e-05
3478	6.6e-05
3490	0.0001144
3502	0.0001144
3514	9.68e-05
3526	0.0001408
3538	7.48e-05
3550	6.6e-05
3562	7.48e-05
3574	0.0001276
3586	0.0001496
3598	7.48e-05
3610	0.0001716
3622	0.000154
3634	0.0002024
3646	0.0001408
3658	0.0001892
3670	0.000154
3682	0.0001672
3694	0.0001584
3706	0.0002156
3718	0.0001584
3730	0.0002112
3742	0.0002244
3754	0.0001804
3766	0.0001892
3778	0.0001408
3790	0.0001936
3802	0.00022
3814	0.0001936
3826	0.0001804
3838	0.000264
