Infrared Spectrum: 2-CHLOROBENZOIC ACID, 4-TOLYL ESTER
Formula: C14 H11 Cl O2
CAS: 6280-48-4
State: SOLUTION (10% IN CCl4 FOR 5000-1350 CM^-^1, 10% IN CS2 FOR 1350-625 CM^-^1)
Class: COBLENTZ
Instrument: Not specified, most likely a prism, grating, or hybrid spectrometer.
Sampling: TRANSMISSION
Path length: 0.01 CM, 0.01 CM
Resolution: 4
Origin: DOW CHEMICAL COMPANY
MICROMETERS	TRANSMITTANCE
2.028	0.849
2.06716	0.849
2.10631	0.849
2.14547	0.849
2.18462	0.849
2.22378	0.849
2.26293	0.85
2.30209	0.85
2.34125	0.858
2.3804	0.863
2.41956	0.858
2.45871	0.871
2.49787	0.876
2.53702	0.87
2.57618	0.863
2.61534	0.868
2.65449	0.87
2.69365	0.866
2.7328	0.86
2.77196	0.847
2.81111	0.842
2.85027	0.829
2.88943	0.837
2.92858	0.844
2.96774	0.849
3.00689	0.845
3.04605	0.842
3.0852	0.84
3.12436	0.839
3.16352	0.829
3.20267	0.81
3.24183	0.745
3.28098	0.696
3.32014	0.748
3.35929	0.722
3.39845	0.719
3.43761	0.779
3.47676	0.808
3.51592	0.86
3.55507	0.875
3.59423	0.878
3.63338	0.871
3.67254	0.881
3.7117	0.883
3.75085	0.884
3.79001	0.886
3.82916	0.883
3.86832	0.883
3.90747	0.889
3.94663	0.887
3.98579	0.887
4.02494	0.887
4.0641	0.892
4.10325	0.886
4.14241	0.881
4.18156	0.879
4.22072	0.857
4.25988	0.849
4.29903	0.868
4.33819	0.87
4.37734	0.879
4.4165	0.891
4.45565	0.899
4.49481	0.894
4.53397	0.899
4.57312	0.894
4.61228	0.896
4.65143	0.889
4.69059	0.881
4.72974	0.892
4.7689	0.887
4.80806	0.881
4.84721	0.881
4.88637	0.871
4.92552	0.883
4.96468	0.876
5.00383	0.879
5.04299	0.866
5.08215	0.852
5.1213	0.87
5.16046	0.852
5.19961	0.865
5.23877	0.85
5.27792	0.813
5.31708	0.866
5.35624	0.863
5.39539	0.853
5.43455	0.832
5.4737	0.811
5.51286	0.784
5.55201	0.743
5.59117	0.66
5.63033	0.409
5.66948	0.092
5.70864	0.061
5.74779	0.116
5.78695	0.306
5.8261	0.59
5.86526	0.732
5.90442	0.785
5.94357	0.821
5.98273	0.832
6.02188	0.829
6.06104	0.824
6.10019	0.79
6.13935	0.73
6.17851	0.663
6.21766	0.487
6.25682	0.327
6.29597	0.517
6.33513	0.478
6.37428	0.47
6.41344	0.439
6.4526	0.449
6.49175	0.521
6.53091	0.542
6.57006	0.425
6.60922	0.256
6.64837	0.324
6.68753	0.628
6.72669	0.569
6.76584	0.5
6.805	0.597
6.84415	0.618
6.88331	0.503
6.92246	0.357
6.96162	0.582
7.00078	0.704
7.03993	0.761
7.07909	0.78
7.11824	0.801
7.1574	0.801
7.19655	0.762
7.23571	0.79
7.27487	0.821
7.31402	0.819
7.35318	0.816
7.39233	0.81
7.43149	0.801
7.47064	0.793
7.5098	0.769
7.54896	0.714
7.58811	0.646
7.62727	0.54
7.66642	0.355
7.70558	0.16
7.74473	0.066
7.78389	0.069
7.82305	0.22
7.8622	0.264
7.90136	0.451
7.94051	0.404
7.97967	0.191
8.01882	0.024
8.05798	0.051
8.09714	0.115
8.13629	0.232
8.17545	0.332
8.2146	0.297
8.25376	0.212
8.29291	0.1
8.33207	0.014
8.37123	0.061
8.41038	0.326
8.44954	0.521
8.48869	0.529
8.52785	0.326
8.567	0.128
8.60616	0.443
8.64532	0.631
8.68447	0.702
8.72363	0.672
8.76278	0.551
8.80194	0.519
8.84109	0.599
8.88025	0.634
8.91941	0.639
8.95856	0.555
8.99772	0.358
9.03687	0.15
9.07603	0.094
9.11518	0.105
9.15434	0.178
9.1935	0.464
9.23265	0.631
9.27181	0.699
9.31096	0.702
9.35012	0.712
9.38927	0.72
9.42843	0.698
9.46759	0.641
9.50674	0.483
9.5459	0.279
9.58505	0.12
9.62421	0.032
9.66336	0.071
9.70252	0.29
9.74168	0.469
9.78083	0.389
9.81999	0.47
9.85914	0.712
9.8983	0.771
9.93745	0.801
9.97661	0.824
10.0158	0.837
10.0549	0.845
10.0941	0.849
10.1332	0.849
10.1724	0.852
10.2115	0.862
10.2507	0.868
10.2899	0.87
10.329	0.866
10.3682	0.855
10.4073	0.823
10.4465	0.785
10.4856	0.772
10.5248	0.813
10.5639	0.832
10.6031	0.827
10.6423	0.769
10.6814	0.727
10.7206	0.801
10.7597	0.839
10.7989	0.845
10.838	0.849
10.8772	0.85
10.9163	0.844
10.9555	0.839
10.9947	0.836
11.0338	0.831
11.073	0.824
11.1121	0.811
11.1513	0.788
11.1904	0.762
11.2296	0.727
11.2687	0.672
11.3079	0.605
11.3471	0.517
11.3862	0.439
11.4254	0.379
11.4645	0.37
11.5037	0.42
11.5428	0.485
11.582	0.538
11.6211	0.571
11.6603	0.587
11.6995	0.599
11.7386	0.61
11.7778	0.618
11.8169	0.615
11.8561	0.615
11.8952	0.65
11.9344	0.688
11.9736	0.698
12.0127	0.698
12.0519	0.683
12.091	0.668
12.1302	0.65
12.1693	0.626
12.2085	0.607
12.2476	0.587
12.2868	0.561
12.326	0.519
12.3651	0.451
12.4043	0.353
12.4434	0.269
12.4826	0.232
12.5217	0.331
12.5609	0.504
12.6	0.597
12.6392	0.616
12.6784	0.61
12.7175	0.582
12.7567	0.571
12.7958	0.597
12.835	0.628
12.8741	0.657
12.9133	0.673
12.9524	0.67
12.9916	0.65
13.0308	0.599
13.0699	0.558
13.1091	0.553
13.1482	0.568
13.1874	0.558
13.2265	0.508
13.2657	0.439
13.3048	0.336
13.344	0.206
13.3832	0.086
13.4223	0.019
13.4615	0.05
13.5006	0.207
13.5398	0.422
13.5789	0.537
13.6181	0.59
13.6572	0.608
13.6964	0.612
13.7356	0.607
13.7747	0.603
13.8139	0.615
13.853	0.621
13.8922	0.626
13.9313	0.615
13.9705	0.577
14.0096	0.522
14.0488	0.48
14.088	0.488
14.1271	0.54
14.1663	0.577
14.2054	0.589
14.2446	0.581
14.2837	0.563
14.3229	0.542
14.362	0.527
14.4012	0.503
14.4404	0.48
14.4795	0.461
14.5187	0.451
14.5578	0.465
14.597	0.488
14.6361	0.514
14.6753	0.534
14.7145	0.543
14.7536	0.548
14.7928	0.553
14.8319	0.547
14.8711	0.532
14.9102	0.529
14.9494	0.532
14.9885	0.54
15.0277	0.524
15.0669	0.509
15.106	0.495
15.1452	0.477
15.1843	0.454
15.2235	0.43
15.2626	0.399
15.3018	0.362
15.3409	0.331
15.3801	0.3
15.4193	0.295
15.4584	0.308
15.4976	0.331
15.5367	0.352
15.5759	0.363
15.615	0.37
15.6542	0.373
15.6933	0.378
15.7325	0.376
15.7717	0.371
15.8108	0.371
15.85	0.371
15.8891	0.37
