Infrared Spectrum: o-Formylphenoxyacetic acid
Formula: C 9 H 8 O 4
CAS: 6280-80-4
State: gas
Origin: EPA-IR VAPOR PHASE LIBRARY
1/CM	ABSORBANCE
549.8	0.001972
559.445	0.002122
569.09	0.001912
578.734	0.002472
588.379	0.002112
598.024	0.002362
607.669	0.002502
617.313	0.002832
626.958	0.002602
636.603	0.002682
646.248	0.002722
655.893	0.002852
665.537	0.002302
675.182	0.001682
684.827	0.001372
694.472	0.0011983
704.116	0.0011497
713.761	0.00115
723.406	0.001462
733.051	0.001302
742.695	0.002602
752.34	0.004782
761.985	0.004782
771.63	0.002492
781.275	0.001672
790.919	0.001262
800.564	0.0011142
810.209	0.0011384
819.854	0.001302
829.498	0.001992
839.143	0.002542
848.788	0.001872
858.433	0.001562
868.078	0.001662
877.722	0.0011796
887.367	0.0011793
897.012	0.0007341
906.657	0.0006891
916.301	0.000544
925.946	0.0005817
935.591	0.000696
945.236	0.0008552
954.88	0.0006745
964.525	0.0005123
974.17	0.0004426
983.815	0.0008024
993.46	0.0008358
1003.1	0.0011032
1012.75	0.001472
1022.39	0.002092
1032.04	0.002652
1041.68	0.003762
1051.33	0.005352
1060.97	0.006212
1070.62	0.005342
1080.26	0.003092
1089.91	0.003782
1099.55	0.007062
1109.2	0.007442
1118.84	0.006572
1128.49	0.007302
1138.13	0.006082
1147.78	0.005452
1157.42	0.006632
1167.07	0.005542
1176.71	0.004772
1186.36	0.005292
1196	0.005372
1205.64	0.006082
1215.29	0.007522
1224.93	0.008592
1234.58	0.007002
1244.22	0.005812
1253.87	0.004682
1263.51	0.005022
1273.16	0.006592
1282.8	0.007892
1292.45	0.006132
1302.09	0.004192
1311.74	0.003102
1321.38	0.002912
1331.03	0.003262
1340.67	0.003362
1350.32	0.003312
1359.96	0.003052
1369.61	0.002602
1379.25	0.002462
1388.9	0.003792
1398.54	0.004232
1408.18	0.002452
1417.83	0.001702
1427.47	0.001692
1437.12	0.002532
1446.76	0.003942
1456.41	0.004922
1466.05	0.003782
1475.7	0.005452
1485.34	0.006492
1494.99	0.003092
1504.63	0.001552
1514.28	0.0009624
1523.92	0.0007088
1533.57	0.0005957
1543.21	0.0006691
1552.86	0.000725
1562.5	0.0011612
1572.15	0.001982
1581.79	0.003572
1591.44	0.005512
1601.08	0.006282
1610.73	0.003542
1620.37	0.001382
1630.01	0.0009285
1639.66	0.0008875
1649.3	0.0008636
1658.95	0.000901
1668.59	0.001262
1678.24	0.001632
1687.88	0.002562
1697.53	0.006662
1707.17	0.016792
1716.82	0.016532
1726.46	0.006522
1736.11	0.003542
1745.75	0.002912
1755.4	0.003222
1765.04	0.004202
1774.69	0.007332
1784.33	0.010952
1793.98	0.011522
1803.62	0.013392
1813.27	0.009842
1822.91	0.004962
1832.55	0.002602
1842.2	0.001672
1851.84	0.0011885
1861.49	0.0008703
1871.13	0.000654
1880.78	0.000532
1890.42	0.0004292
1900.07	0.0004745
1909.71	0.0005322
1919.36	0.0005059
1929	0.0004295
1938.65	0.0004659
1948.29	0.0004891
1957.94	0.0004466
1967.58	0.0003942
1977.23	0.000367
1986.87	0.000345
1996.52	0.0003344
2006.16	0.0003732
2015.81	0.0003252
2025.45	0.0003399
2035.1	0.0003169
2044.74	0.00024793
2054.38	0.000341
2064.03	0.0003611
2073.67	0.00029648
2083.32	0.0003617
2092.96	0.0003388
2102.61	0.000362
2112.25	0.0003168
2121.9	0.00024823
2131.54	0.00028124
2141.19	0.00027578
2150.83	0.00025943
2160.48	0.00024141
2170.12	0.00025593
2179.77	0.0003508
2189.41	0.0003566
2199.06	0.000333
2208.7	0.00027608
2218.35	0.000169
2227.99	0.0003126
2237.64	0.00023282
2247.28	0.0003742
2256.92	0.0003453
2266.57	0.00026359
2276.21	0.00023804
2285.86	0.0003741
2295.5	0.0003971
2305.15	0.0003571
2314.79	0.00028392
2324.44	0.000212377
2334.08	0.00029802
2343.73	0.0001607
2353.37	0.00025633
2363.02	0.0002532
2372.66	0.0003291
2382.31	0.0001838
2391.95	0.00030161
2401.6	0.0003189
2411.24	0.000214104
2420.89	0.00029084
2430.53	0.0003718
2440.18	0.00025332
2449.82	0.00030731
2459.47	0.0001611
2469.11	0.00026412
2478.75	0.00030775
2488.4	0.00037
2498.04	0.00025965
2507.69	0.00028259
2517.33	0.00027577
2526.98	0.00028769
2536.62	0.000221304
2546.27	0.00025744
2555.91	0.000265
2565.56	0.00028581
2575.2	0.00026033
2584.85	0.00027138
2594.49	0.0003611
2604.14	0.0001954
2613.78	0.000213229
2623.43	0.0003174
2633.07	0.00031049
2642.72	0.000316
2652.36	0.0003596
2662.01	0.00029262
2671.65	0.0003694
2681.29	0.0003187
2690.94	0.000456
2700.58	0.0005934
2710.23	0.0005968
2719.87	0.0008354
2729.52	0.0011129
2739.16	0.0011185
2748.81	0.001292
2758.45	0.0009058
2768.1	0.0007428
2777.74	0.0005942
2787.39	0.0004796
2797.03	0.0005572
2806.68	0.0005896
2816.32	0.0007377
2825.97	0.0010469
2835.61	0.0011938
2845.26	0.001582
2854.9	0.002062
2864.55	0.002362
2874.19	0.001752
2883.84	0.001212
2893.48	0.0008223
2903.12	0.0006184
2912.77	0.0007374
2922.41	0.000859
2932.06	0.0010318
2941.7	0.001242
2951.35	0.001136
2960.99	0.0009966
2970.64	0.0007831
2980.28	0.0005126
2989.93	0.0004465
2999.57	0.0004907
3009.22	0.0005027
3018.86	0.0005339
3028.51	0.0007102
3038.15	0.0008027
3047.8	0.0008515
3057.44	0.0006967
3067.09	0.0010399
3076.73	0.001562
3086.38	0.001662
3096.02	0.0008974
3105.67	0.0004948
3115.31	0.0003551
3124.95	0.0004259
3134.6	0.0001966
3144.24	0.0001836
3153.89	0.00030559
3163.53	0.0004464
3173.18	0.00023405
3182.82	0.00024222
3192.47	0.00029623
3202.11	0.000215006
3211.76	0.0003464
3221.4	0.0003213
3231.05	0.0003277
3240.69	0.00025272
3250.34	0.00030175
3259.98	0.0004868
3269.63	0.0003218
3279.27	0.00023192
3288.92	0.00024349
3298.56	0.000536
3308.21	0.0005447
3317.85	0.0006199
3327.49	0.0007664
3337.14	0.0007822
3346.78	0.000868
3356.43	0.0008872
3366.07	0.0009477
3375.72	0.0009777
3385.36	0.0010541
3395.01	0.0009586
3404.65	0.0010577
3414.3	0.0008911
3423.94	0.0009525
3433.59	0.0007737
3443.23	0.0008907
3452.88	0.000753
3462.52	0.0008309
3472.17	0.0006878
3481.81	0.0005358
3491.46	0.0004092
3501.1	0.0006142
3510.75	0.0005512
3520.39	0.0008867
3530.04	0.0010129
3539.68	0.0011284
3549.32	0.001482
3558.97	0.001792
3568.61	0.004432
3578.26	0.005672
3587.9	0.002322
3597.55	0.0009244
3607.19	0.0003558
3616.84	0.0004601
3626.48	0.0003452
3636.13	0.0004014
3645.77	0.00029339
3655.42	0.0001122
3665.06	0.0001827
3674.71	0.0004172
3684.35	8.8e-05
3694	0.00025492
3703.64	0.000303
3713.29	0.00025398
3722.93	0.00028708
3732.58	0.0004162
3742.22	0.0001815
3751.86	0.0004
3761.51	0.0001834
3771.15	0.0001715
3780.8	0.000197
3790.44	0.0004436
3800.09	0.00030287
3809.73	0.0001254
3819.38	0.0003069
3829.02	0.00022865
3838.67	0.0003795
3848.31	0.0004363
3857.96	0.00029551
3867.6	0.0001926
3877.25	0.000212605
3886.89	0.0001245
3896.54	0.00020472
3906.18	0.00026223
3915.83	0.0001492
3925.47	0.00025051
3935.12	0.0001627
3944.76	0.00022708
3954.41	0.0003157
3964.05	0.00028588
3973.69	0.00027994
3983.34	0.00023498
3992.98	0.00030139
