Infrared Spectrum: 4-Chloro-2-nitrobenzoic acid
Formula: C 7 H 4 Cl N O 4
CAS: 6280-88-2
State: gas
Instrument: HP-GC/MS/IRD
Origin: NIST Mass Spectrometry Data Center
1/CM	ABSORBANCE
550	0.0028601
562	0.0038776
574	0.003182
586	0.0026862
598	0.002183
610	0.0019499
622	0.0012728
634	0.0009398
646	0.0009176
658	0.0016391
670	0.0017464
682	0.002294
694	0.0020202
706	0.0016206
718	0.0010693
730	0.0009953
742	0.0014652
754	0.0029526
766	0.0039183
778	0.0097273
790	0.0116883
802	0.0021978
814	0.0010545
826	0.0017279
838	0.0036038
850	0.0015133
862	0.000592
874	0.0017427
886	0.0049654
898	0.0023791
910	0.0004625
922	0.0001776
934	0.0001295
946	0
958	0.0001776
970	7.03e-05
982	0.0001665
994	0.0001924
1006	0.0002775
1018	0.0005328
1030	0.0010619
1042	0.0026714
1054	0.0063159
1066	0.0061864
1078	0.0073889
1090	0.0151774
1102	0.0188885
1114	0.0111148
1126	0.0060458
1138	0.0040441
1150	0.0052466
1162	0.0058793
1174	0.0110667
1186	0.0131128
1198	0.006882
1210	0.0038591
1222	0.0027713
1234	0.0026899
1246	0.002997
1258	0.0031376
1270	0.0035335
1282	0.0035594
1294	0.0035816
1306	0.0042957
1318	0.0050505
1330	0.0063936
1342	0.0121249
1354	0.0220927
1366	0.018463
1378	0.0077848
1390	0.0043105
1402	0.0026344
1414	0.0015688
1426	0.0013098
1438	0.0011655
1450	0.0011655
1462	0.0014578
1474	0.002368
1486	0.0027269
1498	0.0021386
1510	0.0024605
1522	0.0043919
1534	0.008843
1546	0.018685
1558	0.0283827
1570	0.0236837
1582	0.0132275
1594	0.0067969
1606	0.0064565
1618	0.0041292
1630	0.0015133
1642	0.0010101
1654	0.00074
1666	0.0006919
1678	0.000814
1690	0.0010471
1702	0.0009953
1714	0.0011322
1726	0.0018389
1738	0.0038184
1750	0.0088504
1762	0.0202686
1774	0.037
1786	0.0227254
1798	0.0091538
1810	0.0030081
1822	0.0011692
1834	0.0007881
1846	0.0007252
1858	0.0006438
1870	0.0004736
1882	0.0003182
1894	0.000259
1906	0.0002886
1918	0.0003848
1930	0.0003034
1942	0.0001887
1954	0.0001406
1966	0.0001369
1978	9.25e-05
1990	7.77e-05
2002	5.92e-05
2014	3.7e-05
2026	2.22e-05
2038	2.22e-05
2050	2.59e-05
2062	2.22e-05
2074	1.11e-05
2086	2.59e-05
2098	4.07e-05
2110	5.55e-05
2122	3.7e-05
2134	3.33e-05
2146	6.29e-05
2158	7.03e-05
2170	8.51e-05
2182	9.62e-05
2194	8.51e-05
2206	0.0001073
2218	7.4e-05
2230	9.25e-05
2242	5.92e-05
2254	8.88e-05
2266	0.0001073
2278	0.0001221
2290	0.0001443
2302	0.000259
2314	0.0003996
2326	0.0004514
2338	0.0004625
2350	0.0004514
2362	0.0006586
2374	0.0004884
2386	0.0001776
2398	8.14e-05
2410	0.0001184
2422	9.99e-05
2434	9.99e-05
2446	0.0001221
2458	0.000111
2470	5.92e-05
2482	5.92e-05
2494	6.29e-05
2506	7.77e-05
2518	8.51e-05
2530	9.62e-05
2542	0.0001591
2554	0.0001628
2566	9.62e-05
2578	5.18e-05
2590	4.07e-05
2602	3.7e-05
2614	3.33e-05
2626	4.44e-05
2638	2.59e-05
2650	3.7e-05
2662	4.07e-05
2674	8.51e-05
2686	0.0001147
2698	0.0001628
2710	0.0001702
2722	0.0001036
2734	0.000111
2746	7.4e-05
2758	2.22e-05
2770	2.96e-05
2782	7.4e-06
2794	4.44e-05
2806	4.07e-05
2818	7.03e-05
2830	0.0001332
2842	0.0001073
2854	0.0001739
2866	0.0002553
2878	0.0003145
2890	0.0004625
2902	0.0004551
2914	0.0004292
2926	0.000333
2938	0.0002516
2950	0.0001221
2962	0.0001221
2974	0.0001295
2986	3.33e-05
2998	5.55e-05
3010	0.0001036
3022	0.0001221
3034	0.0001443
3046	0.0001443
3058	0.0001628
3070	0.0002479
3082	0.0005069
3094	0.0005587
3106	0.0004181
3118	0.0002294
3130	0.000111
3142	8.51e-05
3154	6.66e-05
3166	3.7e-05
3178	7.03e-05
3190	5.55e-05
3202	8.14e-05
3214	7.4e-06
3226	4.07e-05
3238	0
3250	4.07e-05
3262	3.7e-05
3274	5.18e-05
3286	8.88e-05
3298	3.33e-05
3310	5.55e-05
3322	3.7e-06
3334	2.96e-05
3346	7.03e-05
3358	0.0001258
3370	0.0001369
3382	0.0001184
3394	0.0001184
3406	0.0001406
3418	0.0001406
3430	0.000111
3442	0.0001591
3454	0.0001036
3466	0.0001258
3478	0.0001776
3490	0.0002294
3502	0.0002701
3514	0.0003737
3526	0.0004662
3538	0.0007104
3550	0.001295
3562	0.0048581
3574	0.0188441
3586	0.0066119
3598	0.0012802
3610	0.0005809
3622	0.0003404
3634	0.0002775
3646	0.0002146
3658	0.0001665
3670	0.0001591
3682	0.0001332
3694	7.4e-05
3706	8.51e-05
3718	0.0001369
3730	0.0001739
3742	0.0001036
3754	0.0001665
3766	0.0001258
3778	0.0001258
3790	5.55e-05
3802	3.7e-05
3814	0.0001221
3826	8.14e-05
3838	4.07e-05
