Infrared Spectrum: N-(Hydroxymethyl)benzamide
Formula: C 8 H 9 N O 2
CAS: 6282-02-6
State: gas
Origin: EPA-IR VAPOR PHASE LIBRARY
1/CM	ABSORBANCE
549.8	0.002445
559.445	0.001805
569.09	0.001745
578.734	0.001675
588.379	0.002275
598.024	0.005895
607.669	0.008685
617.313	0.008895
626.958	0.004035
636.603	0.003795
646.248	0.004115
655.893	0.004135
665.537	0.004825
675.182	0.007065
684.827	0.011925
694.472	0.018855
704.116	0.027295
713.761	0.022945
723.406	0.015215
733.051	0.008525
742.695	0.005825
752.34	0.004955
761.985	0.004715
771.63	0.004735
781.275	0.004635
790.919	0.004905
800.564	0.004635
810.209	0.004595
819.854	0.004155
829.498	0.003805
839.143	0.003535
848.788	0.003215
858.433	0.003165
868.078	0.003345
877.722	0.003155
887.367	0.003055
897.012	0.002875
906.657	0.002555
916.301	0.002825
925.946	0.003055
935.591	0.002945
945.236	0.002535
954.88	0.001945
964.525	0.002105
974.17	0.001745
983.815	0.001825
993.46	0.001745
1003.1	0.002105
1012.75	0.003245
1022.39	0.004165
1032.04	0.003645
1041.68	0.003135
1051.33	0.004765
1060.97	0.005045
1070.62	0.004315
1080.26	0.002555
1089.91	0.002585
1099.55	0.001675
1109.2	0.001048
1118.84	0.001405
1128.49	0.001535
1138.13	0.002095
1147.78	0.001485
1157.42	0.0009617
1167.07	0.002105
1176.71	0.002635
1186.36	0.002975
1196	0.002215
1205.64	0.001985
1215.29	0.002605
1224.93	0.003015
1234.58	0.003225
1244.22	0.003385
1253.87	0.003055
1263.51	0.003065
1273.16	0.003335
1282.8	0.004455
1292.45	0.005645
1302.09	0.007525
1311.74	0.010465
1321.38	0.016285
1331.03	0.030715
1340.67	0.050885
1350.32	0.050185
1359.96	0.025465
1369.61	0.009035
1379.25	0.005055
1388.9	0.003325
1398.54	0.002235
1408.18	0.001685
1417.83	0.001525
1427.47	0.001775
1437.12	0.002745
1446.76	0.003185
1456.41	0.002995
1466.05	0.001775
1475.7	0.001535
1485.34	0.001875
1494.99	0.001885
1504.63	0.001775
1514.28	0.001635
1523.92	0.001775
1533.57	0.002345
1543.21	0.003365
1552.86	0.005145
1562.5	0.008975
1572.15	0.018755
1581.79	0.028575
1591.44	0.028245
1601.08	0.017985
1610.73	0.010745
1620.37	0.006085
1630.01	0.003985
1639.66	0.003215
1649.3	0.003035
1658.95	0.004105
1668.59	0.006005
1678.24	0.008755
1687.88	0.012475
1697.53	0.020925
1707.17	0.046985
1716.82	0.073215
1726.46	0.074435
1736.11	0.035535
1745.75	0.014675
1755.4	0.009545
1765.04	0.006845
1774.69	0.003845
1784.33	0.002185
1793.98	0.001825
1803.62	0.001885
1813.27	0.001695
1822.91	0.001245
1832.55	0.0011038
1842.2	0.0009861
1851.84	0.0008996
1861.49	0.0009395
1871.13	0.0010053
1880.78	0.001245
1890.42	0.001355
1900.07	0.001355
1909.71	0.0011031
1919.36	0.0009413
1929	0.0009129
1938.65	0.0010451
1948.29	0.001305
1957.94	0.001335
1967.58	0.0010473
1977.23	0.0008581
1986.87	0.0005877
1996.52	0.0004755
2006.16	0.0004392
2015.81	0.0004507
2025.45	0.0004165
2035.1	0.0004894
2044.74	0.0004885
2054.38	0.0003804
2064.03	0.0005004
2073.67	0.0005535
2083.32	0.0005749
2092.96	0.0005895
2102.61	0.000505
2112.25	0.0004815
2121.9	0.0004085
2131.54	0.0003515
2141.19	0.00022271
2150.83	0.0003575
2160.48	0.0003254
2170.12	0.0003697
2179.77	0.0004373
2189.41	0.0003722
2199.06	0.0003821
2208.7	0.0004915
2218.35	0.0004511
2227.99	0.0003546
2237.64	0.0003457
2247.28	0.0004028
2256.92	0.000402
2266.57	0.0003203
2276.21	0.0003501
2285.86	0.0003953
2295.5	0.0003719
2305.15	0.0003341
2314.79	0.0005499
2324.44	0.0005525
2334.08	0.0005611
2343.73	0.0005031
2353.37	0.00046
2363.02	0.0003503
2372.66	0.0003933
2382.31	0.0004985
2391.95	0.0004184
2401.6	0.0004732
2411.24	0.0004724
2420.89	0.0004472
2430.53	0.0003899
2440.18	0.0004846
2449.82	0.0003878
2459.47	0.000363
2469.11	0.0004391
2478.75	0.0002992
2488.4	0.0003088
2498.04	0.0003399
2507.69	0.0003463
2517.33	0.0002544
2526.98	0.0002936
2536.62	0.0002706
2546.27	0.0003686
2555.91	0.00022144
2565.56	0.0004071
2575.2	0.0003312
2584.85	0.0003645
2594.49	0.0004236
2604.14	0.0003157
2613.78	0.0003299
2623.43	0.0004039
2633.07	0.0004259
2642.72	0.0003845
2652.36	0.0004373
2662.01	0.0003969
2671.65	0.0002725
2681.29	0.0004012
2690.94	0.0003917
2700.58	0.0003641
2710.23	0.0003386
2719.87	0.0003446
2729.52	0.0004018
2739.16	0.0003922
2748.81	0.0004364
2758.45	0.0004002
2768.1	0.0003216
2777.74	0.0004219
2787.39	0.0004416
2797.03	0.0005543
2806.68	0.0003593
2816.32	0.0004066
2825.97	0.000352
2835.61	0.000464
2845.26	0.0004838
2854.9	0.0004545
2864.55	0.0004964
2874.19	0.0003423
2883.84	0.0004094
2893.48	0.000473
2903.12	0.0004424
2912.77	0.0004942
2922.41	0.0004182
2932.06	0.000559
2941.7	0.0005773
2951.35	0.0006379
2960.99	0.0004859
2970.64	0.0004431
2980.28	0.0004483
2989.93	0.0006194
2999.57	0.0007181
3009.22	0.001078
3018.86	0.001825
3028.51	0.003355
3038.15	0.004345
3047.8	0.004725
3057.44	0.004775
3067.09	0.007055
3076.73	0.007755
3086.38	0.006025
3096.02	0.004065
3105.67	0.002965
3115.31	0.001535
3124.95	0.0009499
3134.6	0.0008537
3144.24	0.0007433
3153.89	0.0007846
3163.53	0.0006834
3173.18	0.0007279
3182.82	0.0004501
3192.47	0.0004948
3202.11	0.0004784
3211.76	0.0003925
3221.4	0.0003703
3231.05	0.0003495
3240.69	0.0003222
3250.34	0.0004302
3259.98	0.0004114
3269.63	0.0004664
3279.27	0.0004877
3288.92	0.0006809
3298.56	0.0007668
3308.21	0.0005164
3317.85	0.0004768
3327.49	0.0003667
3337.14	0.00054
3346.78	0.0003897
3356.43	0.0005604
3366.07	0.0005315
3375.72	0.0008927
3385.36	0.0009016
3395.01	0.001595
3404.65	0.002675
3414.3	0.004295
3423.94	0.006565
3433.59	0.008175
3443.23	0.006315
3452.88	0.003365
3462.52	0.001575
3472.17	0.0010058
3481.81	0.0010437
3491.46	0.0010519
3501.1	0.001245
3510.75	0.001935
3520.39	0.002695
3530.04	0.004025
3539.68	0.005315
3549.32	0.006645
3558.97	0.005505
3568.61	0.003495
3578.26	0.0010798
3587.9	0.0006855
3597.55	0.0005847
3607.19	0.0005731
3616.84	0.0004535
3626.48	0.0005475
3636.13	0.0003873
3645.77	0.0003055
3655.42	0.00021061
3665.06	0.00019035
3674.71	0.000153316
3684.35	0.0003928
3694	0.0006026
3703.64	0.00022943
3713.29	0.0005305
3722.93	0.0002594
3732.58	0.00018239
3742.22	0.0002506
3751.86	0.0003467
3761.51	9.14e-05
3771.15	0.0002926
3780.8	0.0002869
3790.44	0.0004185
3800.09	0.0001014
3809.73	0.0003501
3819.38	0.0003503
3829.02	0.000453
3838.67	0.00017028
3848.31	0.000364
3857.96	7.46e-05
3867.6	0.000146947
3877.25	0.00018448
3886.89	0.0001039
3896.54	0.00016239
3906.18	0.00023838
3915.83	0.0002813
3925.47	0.0004427
3935.12	0.0003161
3944.76	0.0001073
3954.41	0.0003276
3964.05	0.0004238
3973.69	0.00020087
3983.34	0.0004358
3992.98	0.0002757
