Infrared Spectrum: N,N-Dipropylformamide
Formula: C 7 H 15 N O
CAS: 6282-00-4
State: gas
Origin: EPA-IR VAPOR PHASE LIBRARY
1/CM	ABSORBANCE
501.5	0.0022664
513.074	0.0028664
524.648	0.0023764
536.222	0.0012764
547.796	0.0004284
559.37	0.0001814
570.944	0.00013886
582.518	3.32e-05
594.092	0.0001485
605.666	0.00013059
617.24	0.0003028
628.814	0.0010157
640.388	0.0014164
651.962	0.0010564
663.536	0.0006273
675.11	0.000696
686.684	0.0013664
698.258	0.0017864
709.832	0.0013764
721.406	0.0011764
732.98	0.0021464
744.554	0.0034764
756.128	0.0032264
767.702	0.0021264
779.276	0.0025064
790.85	0.0027764
802.423	0.0019164
813.997	0.0013364
825.571	0.0017364
837.145	0.0025964
848.719	0.0029864
860.293	0.0032264
871.867	0.0039464
883.441	0.0055364
895.015	0.0068864
906.589	0.0059664
918.163	0.0051464
929.737	0.0042664
941.311	0.0022864
952.885	0.0013264
964.459	0.0009498
976.033	0.0009546
987.607	0.0010287
999.181	0.0015264
1010.76	0.0020164
1022.33	0.0026364
1033.9	0.0032264
1045.48	0.0037964
1057.05	0.0057364
1068.63	0.0107964
1080.2	0.0172664
1091.77	0.0260564
1103.35	0.0400164
1114.92	0.0413064
1126.49	0.0226564
1138.07	0.0089364
1149.64	0.0051264
1161.22	0.0046064
1172.79	0.0057264
1184.36	0.0103964
1195.94	0.0197764
1207.51	0.0279764
1219.09	0.0337164
1230.66	0.0303264
1242.23	0.0162664
1253.81	0.0101064
1265.38	0.0118664
1276.96	0.0145664
1288.53	0.0153564
1300.1	0.0153964
1311.68	0.0137864
1323.25	0.0119764
1334.83	0.0133564
1346.4	0.0166564
1357.97	0.0201164
1369.55	0.0263464
1381.12	0.0406464
1392.7	0.0506064
1404.27	0.0431864
1415.84	0.0365164
1427.42	0.0294864
1438.99	0.0212464
1450.57	0.0201564
1462.14	0.0208264
1473.71	0.0166164
1485.29	0.0090364
1496.86	0.0049464
1508.44	0.0036264
1520.01	0.0029464
1531.58	0.0024564
1543.16	0.0020664
1554.73	0.0017964
1566.31	0.0017564
1577.88	0.0018064
1589.45	0.0019664
1601.03	0.0022164
1612.6	0.0027364
1624.18	0.0035864
1635.75	0.0046964
1647.32	0.0067064
1658.9	0.0114064
1670.47	0.0194064
1682.05	0.0484864
1693.62	0.183226
1705.19	0.312846
1716.77	0.175856
1728.34	0.0328364
1739.92	0.0119264
1751.49	0.0071164
1763.06	0.0052764
1774.64	0.0043264
1786.21	0.0034064
1797.79	0.0025064
1809.36	0.0018764
1820.93	0.0014764
1832.51	0.0012364
1844.08	0.0010964
1855.66	0.0009882
1867.23	0.0008403
1878.8	0.0007159
1890.38	0.0005927
1901.95	0.0005649
1913.53	0.0005736
1925.1	0.0005697
1936.67	0.0005782
1948.25	0.0006637
1959.82	0.0007071
1971.4	0.000754
1982.97	0.0007735
1994.54	0.000829
2006.12	0.0008223
2017.69	0.0007206
2029.27	0.0007334
2040.84	0.0006915
2052.41	0.0006293
2063.99	0.0005174
2075.56	0.0004377
2087.14	0.000432
2098.71	0.0004392
2110.28	0.0004683
2121.86	0.0005043
2133.43	0.0004968
2145.01	0.0004785
2156.58	0.0004351
2168.15	0.0004526
2179.73	0.0004656
2191.3	0.000531
2202.88	0.0005115
2214.45	0.0005235
2226.02	0.0005207
2237.6	0.0004333
2249.17	0.0004194
2260.74	0.000414
2272.32	0.0004558
2283.89	0.0004665
2295.47	0.0005538
2307.04	0.0006087
2318.61	0.0006484
2330.19	0.000741
2341.76	0.0007771
2353.34	0.0007196
2364.91	0.0006508
2376.48	0.0006776
2388.06	0.0007992
2399.63	0.0008149
2411.21	0.0007359
2422.78	0.0005948
2434.35	0.0005074
2445.93	0.0004943
2457.5	0.0005256
2469.08	0.0005568
2480.65	0.0005764
2492.22	0.000594
2503.8	0.0006236
2515.37	0.0006142
2526.95	0.0006274
2538.52	0.0006473
2550.09	0.0006539
2561.67	0.0006628
2573.24	0.0006266
2584.82	0.0006579
2596.39	0.0007287
2607.96	0.0007848
2619.54	0.0008632
2631.11	0.0009531
2642.69	0.0011264
2654.26	0.0013164
2665.83	0.0016364
2677.41	0.0019364
2688.98	0.0022564
2700.56	0.0026964
2712.13	0.0031064
2723.7	0.0037864
2735.28	0.0051264
2746.85	0.0079364
2758.43	0.0125164
2770	0.0143964
2781.57	0.0118264
2793.15	0.0101464
2804.72	0.0106664
2816.3	0.0127664
2827.87	0.0185864
2839.44	0.0282264
2851.02	0.0349164
2862.59	0.0363864
2874.17	0.0414264
2885.74	0.0470464
2897.31	0.0401564
2908.89	0.0364664
2920.46	0.0461064
2932.04	0.0629464
2943.61	0.0736464
2955.18	0.0710664
2966.76	0.0837164
2978.33	0.0835464
2989.91	0.0412164
3001.48	0.0168064
3013.05	0.0104164
3024.63	0.0078364
3036.2	0.0061464
3047.78	0.0047964
3059.35	0.0037864
3070.92	0.0032064
3082.5	0.0029664
3094.07	0.0029864
3105.65	0.0028064
3117.22	0.0025464
3128.79	0.0021664
3140.37	0.0018164
3151.94	0.0015764
3163.52	0.0014764
3175.09	0.0013064
3186.66	0.0010764
3198.24	0.0009313
3209.81	0.0007944
3221.39	0.0006458
3232.96	0.0004663
3244.53	0.0004652
3256.11	0.0003607
3267.68	0.0004152
3279.26	0.000386
3290.83	0.000293
3302.4	0.000332
3313.98	0.0003708
3325.55	0.0003435
3337.13	0.0003904
3348.7	0.0005039
3360.27	0.0006883
3371.85	0.0013064
3383.42	0.0024664
3395	0.0032464
3406.57	0.0020964
3418.14	0.0009316
3429.72	0.0005565
3441.29	0.0003807
3452.86	0.000165
3464.44	0.0002362
3476.01	0.0001674
3487.59	0.0001725
3499.16	0.00012607
3510.73	9.757e-05
3522.31	6.093e-05
3533.88	0.00012707
3545.46	0.0001657
3557.03	4.823e-05
3568.6	0.00014569
3580.18	0.0001727
3591.75	0.0001628
3603.33	0.0001575
3614.9	9.578e-05
3626.47	0.0002147
3638.05	0.00012358
3649.62	5.0268e-05
3661.2	0.0002358
3672.77	0.00022
3684.34	0.0002571
3695.92	0.0002587
3707.49	0.0002319
3719.07	0.0002369
3730.64	0.0001899
3742.21	0.0003078
3753.79	0.0002813
3765.36	0.000331
3776.94	0.0003984
3788.51	0.0002626
3800.08	0.0002428
3811.66	0.0002575
3823.23	0.0003518
3834.81	0.0002572
3846.38	0.0002831
3857.95	0.0002161
3869.53	0.0002341
3881.1	0.0002695
3892.68	0.0002853
3904.25	0.0002261
3915.82	0.0002572
3927.4	0.0003786
3938.97	0.0002939
3950.55	0.0003706
3962.12	0.000486
3973.69	0.0005392
3985.27	0.000603
3996.84	0.0006183
