Infrared Spectrum: DODECANAMIDE, N-BUTYL-
Formula: C16 H33 N O
CAS: 6284-08-8
State: SOLID (MULL IN COCONITRILE OIL)
Class: COBLENTZ III
Instrument: PERKIN-ELMER (GRATING)
Sampling: TRANSMISSION
Resolution: 4
Origin: PROCTER AND GAMBLE CO.
1/CM	TRANSMITTANCE
475.336	0.67
484.305	0.67
493.273	0.67
502.242	0.671
511.21	0.672
520.179	0.676
529.148	0.703
538.116	0.754
547.085	0.906
556.054	0.946
565.022	0.953
573.991	0.953
582.959	0.938
591.928	0.935
600.897	0.958
609.865	0.987
618.834	0.995
627.802	0.982
636.771	0.974
645.74	0.965
654.708	0.959
663.677	0.923
672.645	0.857
681.614	0.711
690.583	0.78
699.551	0.878
708.52	0.845
717.489	0.617
726.457	0.64
735.426	0.738
744.394	0.725
753.363	0.812
762.332	0.756
771.3	0.735
780.269	0.802
789.237	0.878
798.206	0.864
807.175	0.888
816.143	0.911
825.112	0.947
834.08	0.953
843.049	0.949
852.018	0.95
860.986	0.936
869.955	0.907
878.924	0.932
887.892	0.936
896.861	0.955
905.829	0.957
914.798	0.95
923.767	0.957
932.735	0.95
941.704	0.926
950.672	0.861
959.641	0.911
968.61	0.904
977.578	0.869
986.547	0.927
995.516	0.945
1004.48	0.942
1013.45	0.936
1022.42	0.895
1031.39	0.939
1040.36	0.927
1049.33	0.923
1058.3	0.911
1067.26	0.845
1076.23	0.902
1085.2	0.922
1094.17	0.92
1103.14	0.872
1112.11	0.802
1121.08	0.849
1130.04	0.89
1139.01	0.849
1147.98	0.831
1156.95	0.805
1165.92	0.886
1174.89	0.832
1183.86	0.835
1192.82	0.895
1201.79	0.849
1210.76	0.797
1219.73	0.714
1228.7	0.78
1237.67	0.801
1246.64	0.782
1255.61	0.772
1264.57	0.75
1273.54	0.691
1282.51	0.68
1291.48	0.672
1300.45	0.694
1309.42	0.747
1318.39	0.805
1327.35	0.777
1336.32	0.772
1345.29	0.719
1354.26	0.691
1363.23	0.575
1372.2	0.581
1381.17	0.674
1390.13	0.694
1399.1	0.67
1408.07	0.647
1417.04	0.619
1426.01	0.443
1434.98	0.361
1443.95	0.495
1452.91	0.403
1461.88	0.368
1470.85	0.6
1479.82	0.684
1488.79	0.68
1497.76	0.66
1506.73	0.615
1515.7	0.55
1524.66	0.449
1533.63	0.293
1542.6	0.128
1551.57	0.189
1560.54	0.424
1569.51	0.613
1578.48	0.672
1587.44	0.663
1596.41	0.596
1605.38	0.516
1614.35	0.379
1623.32	0.093
1632.29	0.041
1641.26	0.103
1650.22	0.302
1659.19	0.49
1668.16	0.611
1677.13	0.752
1686.1	0.864
1695.07	0.895
1704.04	0.919
1713	0.927
1721.97	0.932
1730.94	0.939
1739.91	0.951
1748.88	0.958
1757.85	0.959
1766.82	0.962
1775.78	0.965
1784.75	0.966
1793.72	0.966
1802.69	0.966
1811.66	0.967
1820.63	0.966
1829.6	0.965
1838.57	0.965
1847.53	0.965
1856.5	0.965
1865.47	0.965
1874.44	0.965
1883.41	0.965
1892.38	0.966
1901.35	0.967
1910.31	0.97
1919.28	0.969
1928.25	0.966
1937.22	0.966
1946.19	0.966
1955.16	0.97
1964.13	0.969
1973.09	0.971
1982.06	0.978
1991.03	0.99
2000	0.959
2008.97	0.958
2017.94	0.958
2026.91	0.958
2035.87	0.958
2044.84	0.954
2053.81	0.954
2062.78	0.9569
2071.75	0.959
2080.72	0.959
2089.69	0.958
2098.65	0.9589
2107.62	0.9581
2116.59	0.9569
2125.56	0.955
2134.53	0.955
2143.5	0.9578
2152.47	0.958
2161.44	0.959
2170.4	0.957
2179.37	0.957
2188.34	0.959
2197.31	0.9608
2206.28	0.958
2215.25	0.9571
2224.22	0.958
2233.18	0.957
2242.15	0.9496
2251.12	0.9469
2260.09	0.9473
2269.06	0.949
2278.03	0.9451
2287	0.945
2295.96	0.943
2304.93	0.943
2313.9	0.943
2322.87	0.943
2331.84	0.943
2340.81	0.943
2349.78	0.9446
2358.74	0.9435
2367.71	0.943
2376.68	0.945
2385.65	0.945
2394.62	0.942
2403.59	0.941
2412.56	0.941
2421.52	0.941
2430.49	0.939
2439.46	0.939
2448.43	0.939
2457.4	0.939
2466.37	0.939
2475.34	0.939
2484.31	0.938
2493.27	0.928
2502.24	0.9233
2511.21	0.922
2520.18	0.9205
2529.15	0.9215
2538.12	0.92
2547.09	0.919
2556.05	0.919
2565.02	0.9119
2573.99	0.907
2582.96	0.907
2591.93	0.9063
2600.9	0.8969
2609.87	0.8926
2618.83	0.89
2627.8	0.886
2636.77	0.886
2645.74	0.8833
2654.71	0.882
2663.68	0.8813
2672.65	0.882
2681.61	0.882
2690.58	0.879
2699.55	0.8735
2708.52	0.86
2717.49	0.8524
2726.46	0.853
2735.43	0.8538
2744.39	0.8501
2753.36	0.8393
2762.33	0.8261
2771.3	0.8011
2780.27	0.7888
2789.24	0.7706
2798.21	0.7411
2807.18	0.6977
2816.14	0.641
2825.11	0.5644
2834.08	0.2173
2843.05	0.0646
2852.02	0.2046
2860.99	0.2536
2869.96	0.3262
2878.92	0.2948
2887.89	0.1757
2896.86	0.0866
2905.83	0.0426
2914.8	0.0617
2923.77	0.109
2932.74	0.1511
2941.7	0.0932
2950.67	0.1706
2959.64	0.4041
2968.61	0.614
2977.58	0.7101
2986.55	0.7535
2995.52	0.785
3004.48	0.8045
3013.45	0.808
3022.42	0.808
3031.39	0.7996
3040.36	0.7871
3049.33	0.7712
3058.3	0.7079
3067.26	0.642
3076.23	0.588
3085.2	0.6303
3094.17	0.6746
3103.14	0.742
3112.11	0.7854
3121.08	0.8057
3130.05	0.809
3139.01	0.808
3147.98	0.7975
3156.95	0.7828
3165.92	0.7691
3174.89	0.725
3183.86	0.6914
3192.83	0.6746
3201.79	0.6644
3210.76	0.6538
3219.73	0.6316
3228.7	0.6085
3237.67	0.5579
3246.64	0.4878
3255.61	0.3578
3264.57	0.2369
3273.54	0.1207
3282.51	0.0611
3291.48	0.0554
3300.45	0.1624
3309.42	0.2452
3318.39	0.3923
3327.35	0.5344
3336.32	0.6355
3345.29	0.7033
3354.26	0.7664
3363.23	0.8045
3372.2	0.8179
3381.17	0.8329
3390.13	0.8499
3399.1	0.8655
3408.07	0.886
3417.04	0.8963
3426.01	0.9086
3434.98	0.912
3443.95	0.9145
3452.92	0.9193
3461.88	0.922
3470.85	0.9223
3479.82	0.923
3488.79	0.923
3497.76	0.923
3506.73	0.9228
3515.7	0.92
3524.66	0.92
3533.63	0.92
3542.6	0.92
3551.57	0.9198
3560.54	0.9158
3569.51	0.915
3578.48	0.914
3587.44	0.912
3596.41	0.91
3605.38	0.9136
3614.35	0.912
3623.32	0.912
3632.29	0.911
3641.26	0.912
3650.22	0.912
3659.19	0.911
3668.16	0.91
3677.13	0.908
3686.1	0.908
3695.07	0.9084
3704.04	0.91
3713	0.908
3721.97	0.9079
3730.94	0.9079
3739.91	0.907
3748.88	0.906
3757.85	0.9069
3766.82	0.906
3775.79	0.906
3784.75	0.9058
3793.72	0.9042
3802.69	0.904
3811.66	0.903
3820.63	0.9018
3829.6	0.9
3838.57	0.9
3847.53	0.899
3856.5	0.898
3865.47	0.8959
3874.44	0.895
3883.41	0.895
3892.38	0.895
3901.35	0.895
3910.31	0.894
3919.28	0.894
3928.25	0.894
3937.22	0.894
3946.19	0.891
3955.16	0.89
3964.13	0.887
3973.09	0.887
3982.06	0.886
3991.03	0.886
