Infrared Spectrum: N-Methylglucamine
Formula: C7 H17 N O5
CAS: 6284-40-8
State: SOLID (SPLIT MULL), FLUOROLUBE FOR 3800-1330 CM^-^1, NUJOL FOR 1330-400 CM^-^1
Class: COBLENTZ II
Instrument: DOW KBr FOREPRISM-GRATING
Instrument parameters: BLAZED AT 3.5, 12.0, 20.0 MICRON AND CHANGED AT 5.0, 7.5, 14.9 MICRON
Sampling: TRANSMISSION
Resolution: 2
Origin: DOW CHEMICAL COMPANY
1/CM	TRANSMITTANCE
3808	0.8735
3799	0.8744
3790	0.8755
3781	0.8766
3772	0.8784
3763	0.8806
3754	0.8818
3745	0.8823
3736	0.8825
3727	0.883
3718	0.8835
3709	0.8836
3700	0.8836
3691	0.8836
3682	0.8838
3673	0.884
3664	0.8841
3655	0.8842
3646	0.8843
3637	0.8835
3628	0.8828
3619	0.8814
3610	0.8795
3601	0.8773
3592	0.8748
3583	0.8716
3574	0.8668
3565	0.8613
3556	0.8528
3547	0.8425
3538	0.8294
3529	0.8144
3520	0.7965
3511	0.7757
3502	0.7501
3493	0.7154
3484	0.6834
3475	0.6451
3466	0.6083
3457	0.5656
3448	0.5244
3439	0.4722
3430	0.422
3421	0.3448
3412	0.3014
3403	0.2654
3394	0.2496
3385	0.2442
3376	0.2339
3367	0.2049
3358	0.1518
3349	0.0992
3340	0.0587
3331	0.0593
3322	0.1063
3313	0.1639
3304	0.2004
3295	0.2134
3286	0.2177
3277	0.2068
3268	0.1801
3259	0.1553
3250	0.1511
3241	0.1756
3232	0.2176
3223	0.2655
3214	0.317
3205	0.3714
3196	0.4214
3187	0.449
3178	0.4724
3169	0.4907
3160	0.5071
3151	0.5215
3142	0.5337
3133	0.5423
3124	0.5465
3115	0.5482
3106	0.5498
3097	0.5506
3088	0.5506
3079	0.5516
3070	0.5535
3061	0.5559
3052	0.5598
3043	0.5656
3034	0.5772
3025	0.5915
3016	0.6119
3007	0.6214
2998	0.611
2989	0.4983
2980	0.5859
2971	0.563
2962	0.4665
2953	0.499
2944	0.5329
2935	0.5019
2926	0.3804
2917	0.4336
2908	0.4652
2899	0.4841
2890	0.4948
2881	0.4762
2872	0.4631
2863	0.4589
2854	0.46
2845	0.4627
2836	0.4772
2827	0.4846
2818	0.4737
2809	0.4785
2800	0.4953
2791	0.5091
2782	0.523
2773	0.5368
2764	0.5465
2755	0.5572
2746	0.5648
2737	0.5602
2728	0.5541
2719	0.5484
2710	0.5438
2701	0.5407
2692	0.538
2683	0.5392
2674	0.5451
2665	0.5562
2656	0.5679
2647	0.5795
2638	0.592
2629	0.605
2620	0.6181
2611	0.6318
2602	0.6462
2593	0.6645
2584	0.6824
2575	0.6987
2566	0.7115
2557	0.7215
2548	0.7281
2539	0.7267
2530	0.7269
2521	0.7293
2512	0.7349
2503	0.7414
2494	0.7478
2485	0.7546
2476	0.764
2467	0.7735
2458	0.7837
2449	0.7938
2440	0.8025
2431	0.8106
2422	0.8168
2413	0.8225
2404	0.829
2395	0.8344
2386	0.8386
2377	0.8401
2368	0.8404
2359	0.8409
2350	0.8425
2341	0.8444
2332	0.8471
2323	0.8501
2314	0.8535
2305	0.857
2296	0.8608
2287	0.8648
2278	0.8692
2269	0.8738
2260	0.8784
2251	0.8824
2242	0.8857
2233	0.8882
2224	0.8907
2215	0.8912
2206	0.8923
2197	0.8933
2188	0.8939
2179	0.8947
2170	0.8945
2161	0.8935
2152	0.8931
2143	0.8932
2134	0.894
2125	0.895
2116	0.8963
2107	0.8971
2098	0.8966
2089	0.8966
2080	0.8965
2071	0.8961
2062	0.8957
2053	0.8956
2044	0.8956
2035	0.8953
2026	0.8948
2017	0.8921
2008	0.8846
1999	0.8848
1990	0.8895
1981	0.8904
1972	0.8904
1963	0.897
1954	0.8836
1945	0.8871
1936	0.8877
1927	0.8882
1918	0.8883
1909	0.8885
1900	0.8887
1891	0.8887
1882	0.8885
1873	0.8881
1864	0.8885
1855	0.8896
1846	0.8887
1837	0.8858
1828	0.8852
1819	0.8845
1810	0.8835
1801	0.8828
1792	0.8824
1783	0.882
1774	0.8818
1765	0.8805
1756	0.8788
1747	0.8773
1738	0.8758
1729	0.8745
1720	0.8734
1711	0.8723
1702	0.8713
1693	0.8696
1684	0.8673
1675	0.8641
1666	0.8618
1657	0.8642
1648	0.8701
1639	0.8649
1630	0.8631
1621	0.8643
1612	0.8675
1603	0.8701
1594	0.8721
1585	0.873
1576	0.8732
1567	0.8723
1558	0.8712
1549	0.8692
1540	0.8668
1531	0.8628
1522	0.8549
1513	0.842
1504	0.8133
1495	0.7524
1486	0.5402
1477	0.5772
1468	0.6339
1459	0.5279
1450	0.4652
1441	0.446
1432	0.5117
1423	0.4479
1414	0.555
1405	0.639
1396	0.6965
1387	0.7395
1378	0.7355
1369	0.7489
1360	0.7778
1351	0.7725
1342	0.7635
1333	0.763
1324	0.7176
1315	0.7192
1306	0.6018
1297	0.6498
1288	0.6131
1279	0.7044
1270	0.7506
1261	0.7357
1252	0.7447
1243	0.5644
1234	0.5472
1225	0.6719
1216	0.7658
1207	0.6951
1198	0.7906
1189	0.8068
1180	0.7799
1171	0.6853
1162	0.7991
1153	0.7182
1144	0.7921
1135	0.8088
1126	0.701
1117	0.5701
1108	0.6768
1099	0.2026
1090	0.5224
1081	0.558
1072	0.1436
1063	0.6168
1054	0.2889
1045	0.2938
1036	0.5455
1027	0.7207
1018	0.5678
1009	0.7161
1000	0.8156
991	0.8387
982	0.8404
973	0.7603
964	0.7808
955	0.8151
946	0.7233
937	0.7465
928	0.8011
919	0.7075
910	0.443
901	0.5944
892	0.7521
883	0.6193
874	0.5675
865	0.5235
856	0.6625
847	0.5412
838	0.6911
829	0.7992
820	0.8314
811	0.8468
802	0.853
793	0.8538
784	0.8348
775	0.7451
766	0.8015
757	0.8094
748	0.8008
739	0.7775
730	0.7428
721	0.69
712	0.6895
703	0.6304
694	0.5428
685	0.539
676	0.5883
667	0.6002
658	0.5179
649	0.4237
640	0.5719
631	0.6518
622	0.7081
613	0.7314
604	0.556
595	0.7487
586	0.8076
577	0.8251
568	0.8365
559	0.8421
550	0.8439
541	0.8403
532	0.8216
523	0.7422
514	0.7861
505	0.7906
496	0.7628
487	0.7228
478	0.5384
469	0.5549
460	0.6343
451	0.7168
442	0.7711
433	0.8117
424	0.8482
415	0.8688
406	0.884
397	0.8917
