Infrared Spectrum: BENZOPHENONE, 4,4'-DIDECYLOXY-2-HYDROXY-
Formula: C33 H50 O4
CAS: 6285-34-3
State: SOLID (KBr PELLET)
Class: COBLENTZ
Instrument: Not specified, most likely a prism, grating, or hybrid spectrometer.
Sampling: TRANSMISSION
Resolution: 4
Origin: TENNESSEE EASTMAN COMPANY, RESEARCH LABORATORIES
MICROMETERS	TRANSMITTANCE
2.034	0.858
2.07512	0.86
2.11624	0.863
2.15736	0.866
2.19848	0.873
2.2396	0.877
2.28072	0.877
2.32183	0.88
2.36295	0.883
2.40407	0.887
2.44519	0.892
2.48631	0.904
2.52743	0.909
2.56855	0.909
2.60967	0.909
2.65079	0.909
2.69191	0.907
2.73303	0.895
2.77415	0.829
2.81527	0.802
2.85639	0.781
2.8975	0.764
2.93862	0.784
2.97974	0.819
3.02086	0.86
3.06198	0.873
3.1031	0.885
3.14422	0.892
3.18534	0.899
3.22646	0.901
3.26758	0.89
3.3087	0.868
3.34982	0.52
3.39094	0.15
3.43206	0.445
3.47317	0.313
3.51429	0.832
3.55541	0.88
3.59653	0.916
3.63765	0.923
3.67877	0.931
3.71989	0.933
3.76101	0.935
3.80213	0.94
3.84325	0.94
3.88437	0.943
3.92549	0.948
3.96661	0.95
4.00773	0.95
4.04884	0.95
4.08996	0.95
4.13108	0.95
4.1722	0.95
4.21332	0.95
4.25444	0.95
4.29556	0.95
4.33668	0.95
4.3778	0.95
4.41892	0.95
4.46004	0.95
4.50116	0.95
4.54228	0.948
4.58339	0.948
4.62451	0.948
4.66563	0.948
4.70675	0.948
4.74787	0.948
4.78899	0.948
4.83011	0.948
4.87123	0.948
4.91235	0.943
4.95347	0.943
4.99459	0.952
5.03571	0.952
5.07683	0.953
5.11795	0.953
5.15906	0.947
5.20018	0.941
5.2413	0.943
5.28242	0.948
5.32354	0.953
5.36466	0.957
5.40578	0.959
5.4469	0.957
5.48802	0.957
5.52914	0.959
5.57026	0.959
5.61138	0.959
5.6525	0.952
5.69362	0.95
5.73473	0.941
5.77585	0.936
5.81697	0.93
5.85809	0.923
5.89921	0.909
5.94033	0.897
5.98145	0.863
6.02257	0.802
6.06369	0.515
6.10481	0.221
6.14593	0.3
6.18705	0.406
6.22817	0.298
6.26929	0.242
6.3104	0.32
6.35152	0.3
6.39264	0.581
6.43376	0.73
6.47488	0.745
6.516	0.757
6.55712	0.576
6.59824	0.397
6.63936	0.535
6.68048	0.597
6.7216	0.523
6.76272	0.537
6.80384	0.59
6.84496	0.774
6.88607	0.822
6.92719	0.822
6.96831	0.73
7.00943	0.65
7.05055	0.764
7.09167	0.745
7.13279	0.715
7.17391	0.79
7.21503	0.786
7.25615	0.778
7.29727	0.773
7.33839	0.728
7.37951	0.513
7.42062	0.339
7.46174	0.563
7.50286	0.721
7.54398	0.773
7.5851	0.66
7.62622	0.389
7.66734	0.414
7.70846	0.29
7.74958	0.098
7.7907	0.313
7.83182	0.481
7.87294	0.597
7.91406	0.484
7.95518	0.174
7.99629	0.401
8.03741	0.667
8.07853	0.779
8.11965	0.79
8.16077	0.738
8.20189	0.808
8.24301	0.861
8.28413	0.853
8.32525	0.754
8.36637	0.532
8.40749	0.476
8.44861	0.324
8.48973	0.174
8.53085	0.331
8.57196	0.296
8.61308	0.563
8.6542	0.745
8.69532	0.815
8.73644	0.829
8.77756	0.749
8.81868	0.477
8.8598	0.436
8.90092	0.609
8.94204	0.733
8.98316	0.807
9.02428	0.849
9.0654	0.87
9.10652	0.887
9.14763	0.887
9.18875	0.89
9.22987	0.902
9.27099	0.909
9.31211	0.909
9.35323	0.907
9.39435	0.906
9.43547	0.894
9.47659	0.86
9.51771	0.851
9.55883	0.858
9.59995	0.863
9.64107	0.815
9.68218	0.646
9.7233	0.518
9.76442	0.453
9.80554	0.406
9.84666	0.621
9.88778	0.769
9.9289	0.79
9.97002	0.781
10.0111	0.795
10.0523	0.843
10.0934	0.872
10.1345	0.877
10.1756	0.87
10.2167	0.883
10.2579	0.909
10.299	0.911
10.3401	0.892
10.3812	0.819
10.4223	0.865
10.4635	0.906
10.5046	0.926
10.5457	0.935
10.5868	0.941
10.6279	0.945
10.669	0.947
10.7102	0.95
10.7513	0.95
10.7924	0.95
10.8335	0.948
10.8746	0.914
10.9158	0.761
10.9569	0.8
10.998	0.877
11.0391	0.931
11.0802	0.948
11.1214	0.953
11.1625	0.953
11.2036	0.952
11.2447	0.952
11.2858	0.959
11.327	0.96
11.3681	0.964
11.4092	0.964
11.4503	0.964
11.4914	0.964
11.5326	0.964
11.5737	0.938
11.6148	0.825
11.6559	0.778
11.697	0.704
11.7381	0.529
11.7793	0.501
11.8204	0.5
11.8615	0.658
11.9026	0.784
11.9437	0.829
11.9849	0.839
12.026	0.839
12.0671	0.825
12.1082	0.827
12.1493	0.832
12.1905	0.834
12.2316	0.82
12.2727	0.819
12.3138	0.827
12.3549	0.831
12.3961	0.827
12.4372	0.803
12.4783	0.783
12.5194	0.749
12.5605	0.709
12.6017	0.674
12.6428	0.636
12.6839	0.609
12.725	0.597
12.7661	0.597
12.8072	0.612
12.8484	0.65
12.8895	0.679
12.9306	0.691
12.9717	0.691
13.0128	0.709
13.054	0.762
13.0951	0.813
13.1362	0.844
13.1773	0.849
13.2184	0.895
13.2596	0.923
13.3007	0.938
13.3418	0.943
13.3829	0.945
13.424	0.936
13.4652	0.911
13.5063	0.919
13.5474	0.93
13.5885	0.919
13.6296	0.86
13.6708	0.824
13.7119	0.827
13.753	0.844
13.7941	0.86
13.8352	0.854
13.8764	0.866
13.9175	0.918
13.9586	0.959
13.9997	0.982
14.0408	1
14.0819	1
14.1231	1
14.1642	1
14.2053	1
14.2464	1
14.2875	1
14.3287	0.991
14.3698	0.936
14.4109	0.856
14.452	0.82
14.4931	0.832
14.5343	0.872
14.5754	0.906
14.6165	0.912
14.6576	0.914
14.6987	0.93
14.7399	0.959
14.781	0.976
14.8221	0.993
14.8632	1
14.9043	1
14.9455	1
14.9866	1
15.0277	0.998
15.0688	1
15.1099	1.001
15.151	1
15.1922	0.993
15.2333	0.974
15.2744	0.955
15.3155	0.933
15.3566	0.911
15.3978	0.885
15.4389	0.858
15.48	0.834
15.5211	0.82
15.5622	0.803
15.6034	0.778
15.6445	0.745
15.6856	0.711
15.7267	0.699
15.7678	0.692
15.809	0.692
15.8501	0.697
15.8912	0.703
15.9323	0.706
15.9734	0.709
