Infrared Spectrum: P-CHLOROPROPIOPHENONE
Formula: C9 H9 Cl O
CAS: 6285-05-8
State: SOLUTION (10% CCl4 FOR 5000-1330, 10% CS2 FOR 1330-625 CM^-^1)
Class: COBLENTZ
Instrument: Not specified, most likely a prism, grating, or hybrid spectrometer.
Sampling: TRANSMISSION
Path length: 0.0127 CM, 0.0125 CM
Resolution: 4
Origin: DOW CHEMICAL COMPANY
MICROMETERS	TRANSMITTANCE
2.027	0.897
2.06709	0.893
2.10719	0.892
2.14728	0.89
2.18737	0.89
2.22747	0.877
2.26756	0.878
2.30765	0.883
2.34775	0.882
2.38784	0.882
2.42793	0.878
2.46803	0.892
2.50812	0.898
2.54821	0.892
2.58831	0.892
2.6284	0.892
2.66849	0.887
2.70859	0.883
2.74868	0.883
2.78877	0.883
2.82887	0.878
2.86896	0.875
2.90905	0.85
2.94915	0.849
2.98924	0.865
3.02933	0.854
3.06943	0.852
3.10952	0.847
3.14961	0.84
3.18971	0.815
3.2298	0.786
3.26989	0.782
3.30999	0.625
3.35008	0.54
3.39017	0.597
3.43027	0.691
3.47036	0.834
3.51045	0.83
3.55054	0.857
3.59064	0.864
3.63073	0.87
3.67082	0.872
3.71092	0.872
3.75101	0.88
3.7911	0.882
3.8312	0.865
3.87129	0.865
3.91138	0.883
3.95148	0.883
3.99157	0.883
4.03166	0.88
4.07176	0.873
4.11185	0.877
4.15194	0.875
4.19204	0.865
4.23213	0.864
4.27222	0.862
4.31232	0.859
4.35241	0.87
4.3925	0.878
4.4326	0.885
4.47269	0.888
4.51278	0.89
4.55288	0.89
4.59297	0.89
4.63306	0.887
4.67316	0.892
4.71325	0.892
4.75334	0.89
4.79344	0.89
4.83353	0.893
4.87362	0.888
4.91372	0.88
4.95381	0.88
4.9939	0.883
5.034	0.872
5.07409	0.873
5.11418	0.868
5.15428	0.859
5.19437	0.85
5.23446	0.852
5.27456	0.86
5.31465	0.872
5.35474	0.868
5.39484	0.865
5.43493	0.87
5.47502	0.862
5.51512	0.855
5.55521	0.839
5.5953	0.834
5.6354	0.839
5.67549	0.839
5.71558	0.814
5.75568	0.794
5.79577	0.747
5.83586	0.583
5.87596	0.31
5.91605	0.043
5.95614	0.447
5.99624	0.665
6.03633	0.706
6.07642	0.746
6.11652	0.739
6.15661	0.666
6.1967	0.56
6.2368	0.326
6.27689	0.092
6.31698	0.308
6.35708	0.328
6.39717	0.378
6.43726	0.394
6.47736	0.47
6.51745	0.56
6.55754	0.601
6.59763	0.636
6.63773	0.661
6.67782	0.553
6.71791	0.422
6.75801	0.64
6.7981	0.527
6.83819	0.459
6.87829	0.597
6.91838	0.698
6.95847	0.724
6.99857	0.643
7.03866	0.492
7.07875	0.436
7.11885	0.325
7.15894	0.454
7.19903	0.502
7.23913	0.467
7.27922	0.636
7.31931	0.532
7.35941	0.381
7.3995	0.275
7.43959	0.432
7.47969	0.656
7.51978	0.669
7.55987	0.616
7.59997	0.597
7.64006	0.646
7.68015	0.671
7.72025	0.638
7.76034	0.565
7.80043	0.517
7.84053	0.55
7.88062	0.635
7.92071	0.683
7.96081	0.693
8.0009	0.656
8.04099	0.552
8.08109	0.451
8.12118	0.351
8.16127	0.187
8.20137	0.043
8.24146	0.17
8.28155	0.412
8.32165	0.592
8.36174	0.678
8.40183	0.698
8.44193	0.621
8.48202	0.494
8.52211	0.547
8.56221	0.686
8.6023	0.714
8.64239	0.731
8.68249	0.742
8.72258	0.744
8.76267	0.742
8.80277	0.739
8.84286	0.733
8.88295	0.711
8.92305	0.668
8.96314	0.628
9.00323	0.578
9.04333	0.502
9.08342	0.398
9.12351	0.228
9.16361	0.054
9.2037	0.152
9.24379	0.404
9.28389	0.567
9.32398	0.61
9.36407	0.643
9.40417	0.663
9.44426	0.669
9.48435	0.678
9.52444	0.679
9.56454	0.679
9.60463	0.681
9.64472	0.683
9.68482	0.676
9.72491	0.641
9.765	0.611
9.8051	0.552
9.84519	0.363
9.88528	0.134
9.92538	0.281
9.96547	0.543
10.0056	0.653
10.0457	0.704
10.0858	0.728
10.1258	0.737
10.1659	0.741
10.206	0.741
10.2461	0.731
10.2862	0.703
10.3263	0.669
10.3664	0.635
10.4065	0.548
10.4466	0.411
10.4867	0.194
10.5268	0.096
10.5669	0.222
10.607	0.373
10.6471	0.444
10.6872	0.464
10.7272	0.522
10.7673	0.608
10.8074	0.676
10.8475	0.699
10.8876	0.719
10.9277	0.729
10.9678	0.737
11.0079	0.744
11.048	0.749
11.0881	0.751
11.1282	0.752
11.1683	0.752
11.2084	0.749
11.2485	0.741
11.2885	0.733
11.3286	0.721
11.3687	0.709
11.4088	0.696
11.4489	0.691
11.489	0.681
11.5291	0.655
11.5692	0.641
11.6093	0.626
11.6494	0.606
11.6895	0.583
11.7296	0.562
11.7697	0.517
11.8098	0.459
11.8499	0.266
11.8899	0.157
11.93	0.23
11.9701	0.399
12.0102	0.542
12.0503	0.598
12.0904	0.625
12.1305	0.635
12.1706	0.635
12.2107	0.64
12.2508	0.641
12.2909	0.641
12.331	0.63
12.3711	0.608
12.4112	0.565
12.4513	0.519
12.4913	0.456
12.5314	0.315
12.5715	0.144
12.6116	0.041
12.6517	0.063
12.6918	0.238
12.7319	0.399
12.772	0.537
12.8121	0.595
12.8522	0.636
12.8923	0.653
12.9324	0.658
12.9725	0.636
13.0126	0.56
13.0527	0.492
13.0927	0.421
13.1328	0.457
13.1729	0.542
13.213	0.58
13.2531	0.605
13.2932	0.64
13.3333	0.665
13.3734	0.676
13.4135	0.679
13.4536	0.673
13.4937	0.65
13.5338	0.635
13.5739	0.635
13.614	0.656
13.6541	0.679
13.6941	0.691
13.7342	0.701
13.7743	0.703
13.8144	0.704
13.8545	0.704
13.8946	0.704
13.9347	0.703
13.9748	0.699
14.0149	0.696
14.055	0.693
14.0951	0.689
14.1352	0.686
14.1753	0.679
14.2154	0.674
14.2555	0.671
14.2955	0.666
14.3356	0.658
14.3757	0.65
14.4158	0.643
14.4559	0.636
14.496	0.631
14.5361	0.621
14.5762	0.611
14.6163	0.605
14.6564	0.593
14.6965	0.583
14.7366	0.578
14.7767	0.572
14.8168	0.563
14.8569	0.558
14.8969	0.555
14.937	0.55
14.9771	0.543
15.0172	0.54
15.0573	0.533
15.0974	0.527
15.1375	0.517
15.1776	0.507
15.2177	0.497
15.2578	0.487
15.2979	0.48
15.338	0.472
15.3781	0.466
15.4182	0.461
15.4583	0.456
15.4983	0.451
15.5384	0.446
15.5785	0.439
15.6186	0.434
15.6587	0.427
15.6988	0.414
15.7389	0.411
15.779	0.404
15.8191	0.396
15.8592	0.386
15.8993	0.383
15.9394	0.383
