Infrared Spectrum: ACETAMIDE, 2-AMIDINO-2-(PHENYLAZO)-, HYDROCHLORIDE
Formula: C9 H12 Cl N5 O
CAS: 6285-64-9
State: SOLID (0.9 mg / 650 mg KBr DISC)
Class: COBLENTZ III
Instrument: PERKIN-ELMER 21 (GRATING)
Instrument parameters: FILTER CHANGE ABOUT 1085 CM^-^1
Sampling: TRANSMISSION
Resolution: 4
Origin: SOUTHERN RESEARCH INSTITUTE
1/CM	TRANSMITTANCE
603.547	0.382
611.766	0.3781
619.985	0.371
628.205	0.3581
636.424	0.3476
644.643	0.341
652.862	0.336
661.081	0.335
669.3	0.3422
677.52	0.3531
685.739	0.377
693.958	0.4197
702.177	0.4473
710.396	0.4668
718.616	0.5225
726.835	0.5528
735.054	0.5662
743.273	0.5598
751.492	0.5453
759.711	0.5176
767.931	0.506
776.15	0.5349
784.369	0.6141
792.588	0.6786
800.807	0.683
809.027	0.6709
817.246	0.6553
825.465	0.6557
833.684	0.7018
841.903	0.7403
850.122	0.76
858.342	0.758
866.561	0.7481
874.78	0.7091
882.999	0.636
891.218	0.7993
899.438	0.8122
907.657	0.813
915.876	0.8119
924.095	0.8028
932.314	0.792
940.533	0.79
948.753	0.7779
956.972	0.781
965.191	0.7908
973.41	0.7852
981.629	0.7715
989.848	0.762
998.068	0.7507
1006.29	0.74
1014.51	0.7223
1022.73	0.7065
1030.94	0.6942
1039.16	0.6808
1047.38	0.6713
1055.6	0.6627
1063.82	0.6535
1072.04	0.6322
1080.26	0.5971
1088.48	0.6309
1096.7	0.608
1104.92	0.59
1113.14	0.581
1121.36	0.5616
1129.57	0.5261
1137.79	0.5025
1146.01	0.4832
1154.23	0.4916
1162.45	0.5394
1170.67	0.536
1178.89	0.5254
1187.11	0.4803
1195.33	0.4401
1203.55	0.3579
1211.77	0.4426
1219.99	0.5347
1228.2	0.5217
1236.42	0.4974
1244.64	0.4649
1252.86	0.4043
1261.08	0.3451
1269.3	0.3203
1277.52	0.4157
1285.74	0.4847
1293.96	0.4882
1302.18	0.4798
1310.4	0.4742
1318.62	0.4643
1326.83	0.459
1335.05	0.456
1343.27	0.4238
1351.49	0.3992
1359.71	0.36
1367.93	0.3008
1376.15	0.2362
1384.37	0.2217
1392.59	0.2657
1400.81	0.3485
1409.03	0.4038
1417.25	0.4371
1425.47	0.3869
1433.68	0.4268
1441.9	0.556
1450.12	0.5829
1458.34	0.588
1466.56	0.576
1474.78	0.5662
1483	0.556
1491.22	0.5403
1499.44	0.514
1507.66	0.4798
1515.88	0.4526
1524.1	0.4621
1532.31	0.5139
1540.53	0.52
1548.75	0.5042
1556.97	0.4878
1565.19	0.4319
1573.41	0.4195
1581.63	0.4087
1589.85	0.3982
1598.07	0.3639
1606.29	0.3208
1614.51	0.2543
1622.73	0.2073
1630.94	0.2116
1639.16	0.2113
1647.38	0.192
1655.6	0.189
1663.82	0.1749
1672.04	0.1203
1680.26	0.0858
1688.48	0.0604
1696.7	0.063
1704.92	0.0774
1713.14	0.0873
1721.36	0.1417
1729.57	0.194
1737.79	0.3079
1746.01	0.3496
1754.23	0.4169
1762.45	0.4604
1770.67	0.5013
1778.89	0.553
1787.11	0.6005
1795.33	0.6326
1803.55	0.6576
1811.77	0.681
1819.99	0.7005
1828.2	0.7117
1836.42	0.7427
1844.64	0.7626
1852.86	0.7882
1861.08	0.795
1869.3	0.811
1877.52	0.821
1885.74	0.814
1893.96	0.82
1902.18	0.8205
1910.4	0.826
1918.62	0.8332
1926.84	0.842
1935.05	0.8481
1943.27	0.846
1951.49	0.846
1959.71	0.844
1967.93	0.848
1976.15	0.8462
1984.37	0.849
1992.59	0.8467
2000.81	0.8496
2009.03	0.841
2017.25	0.8356
2025.47	0.833
2033.68	0.8356
2041.9	0.832
2050.12	0.826
2058.34	0.826
2066.56	0.826
2074.78	0.8247
2083	0.8183
2091.22	0.811
2099.44	0.804
2107.66	0.803
2115.88	0.804
2124.1	0.8007
2132.31	0.7963
2140.53	0.794
2148.75	0.7933
2156.97	0.788
2165.19	0.787
2173.41	0.7816
2181.63	0.781
2189.85	0.784
2198.07	0.78
2206.29	0.774
2214.51	0.7646
2222.73	0.7566
2230.94	0.758
2239.16	0.757
2247.38	0.757
2255.6	0.759
2263.82	0.7563
2272.04	0.754
2280.26	0.756
2288.48	0.757
2296.7	0.7533
2304.92	0.746
2313.14	0.745
2321.36	0.743
2329.57	0.7373
2337.79	0.729
2346.01	0.728
2354.23	0.724
2362.45	0.724
2370.67	0.724
2378.89	0.724
2387.11	0.724
2395.33	0.7233
2403.55	0.72
2411.77	0.723
2419.99	0.7206
2428.21	0.722
2436.42	0.718
2444.64	0.713
2452.86	0.7043
2461.08	0.703
2469.3	0.697
2477.52	0.6903
2485.74	0.689
2493.96	0.688
2502.18	0.686
2510.4	0.686
2518.62	0.6843
2526.84	0.672
2535.05	0.668
2543.27	0.6656
2551.49	0.658
2559.71	0.658
2567.93	0.6483
2576.15	0.643
2584.37	0.6373
2592.59	0.6316
2600.81	0.629
2609.03	0.626
2617.25	0.623
2625.47	0.6133
2633.68	0.6039
2641.9	0.5993
2650.12	0.597
2658.34	0.597
2666.56	0.596
2674.78	0.5793
2683	0.573
2691.22	0.5613
2699.44	0.5533
2707.66	0.547
2715.88	0.542
2724.1	0.537
2732.31	0.5327
2740.53	0.5283
2748.75	0.526
2756.97	0.5203
2765.19	0.5123
2773.41	0.508
2781.63	0.5026
2789.85	0.5
2798.07	0.498
2806.29	0.494
2814.51	0.4873
2822.73	0.483
2830.95	0.4773
2839.16	0.4743
2847.38	0.474
2855.6	0.474
2863.82	0.47
2872.04	0.4663
2880.26	0.463
2888.48	0.458
2896.7	0.4433
2904.92	0.4233
2913.14	0.4153
2921.36	0.3993
2929.58	0.397
2937.79	0.3923
2946.01	0.377
2954.23	0.3767
2962.45	0.368
2970.67	0.368
2978.89	0.3714
2987.11	0.3767
2995.33	0.328
3003.55	0.3153
3011.77	0.3049
3019.99	0.2966
3028.21	0.2943
3036.42	0.2826
3044.64	0.263
3052.86	0.2493
3061.08	0.236
3069.3	0.2159
3077.52	0.2006
3085.74	0.1983
3093.96	0.1813
3102.18	0.178
3110.4	0.1613
3118.62	0.1486
3126.84	0.1447
3135.05	0.1477
3143.27	0.15
3151.49	0.1456
3159.71	0.141
3167.93	0.1444
3176.15	0.1517
3184.37	0.159
3192.59	0.16
3200.81	0.1617
3209.03	0.164
3217.25	0.1596
3225.47	0.153
3233.68	0.148
3241.9	0.145
3250.12	0.15
3258.34	0.148
3266.56	0.1443
3274.78	0.138
3283	0.139
3291.22	0.139
3299.44	0.1356
3307.66	0.132
3315.88	0.1256
3324.1	0.123
3332.32	0.1243
3340.53	0.1193
3348.75	0.1123
3356.97	0.1033
3365.19	0.098
3373.41	0.0903
3381.63	0.094
3389.85	0.1007
3398.07	0.1111
3406.29	0.116
3414.51	0.1291
3422.73	0.1467
3430.95	0.167
3439.16	0.1881
3447.38	0.2065
3455.6	0.2397
3463.82	0.2827
3472.04	0.2967
3480.26	0.3114
3488.48	0.3227
3496.7	0.3757
3504.92	0.3924
3513.14	0.4157
3521.36	0.4354
3529.58	0.4551
3537.79	0.4637
3546.01	0.4904
3554.23	0.5177
3562.45	0.5257
3570.67	0.5617
3578.89	0.5871
3587.11	0.6074
3595.33	0.6277
3603.55	0.66
3611.77	0.6714
3619.99	0.6878
3628.21	0.707
3636.42	0.7254
3644.64	0.738
3652.86	0.7427
3661.08	0.749
3669.3	0.7554
3677.52	0.7624
3685.74	0.77
3693.96	0.774
3702.18	0.776
3710.4	0.7777
3718.62	0.78
3726.84	0.785
3735.05	0.786
3743.27	0.792
3751.49	0.7886
3759.71	0.786
3767.93	0.788
3776.15	0.791
3784.37	0.7873
3792.59	0.787
