Infrared Spectrum: Alpha,Beta-DIBROMOHYDROCINNAMIC ACID
Formula: C9 H8 Br2 O2
CAS: 6286-30-2
State: SOLID (MINERAL OIL MULL)
Melting point: 195-196 C
Class: COBLENTZ
Instrument: Not specified, most likely a prism, grating, or hybrid spectrometer.
Sampling: TRANSMISSION
Resolution: 4
Origin: WYANDOTTE CHEMICALS CORP., WYANDOTTE, MICHIGAN, USA
MICROMETERS	TRANSMITTANCE
2.053	0.5
2.09277	0.512
2.13254	0.522
2.17231	0.527
2.21209	0.532
2.25186	0.532
2.29163	0.538
2.3314	0.557
2.37117	0.565
2.41094	0.578
2.45071	0.588
2.49049	0.595
2.53026	0.606
2.57003	0.623
2.6098	0.625
2.64957	0.645
2.68934	0.653
2.72911	0.66
2.76889	0.673
2.80866	0.681
2.84843	0.683
2.8882	0.683
2.92797	0.681
2.96774	0.666
3.00752	0.63
3.04729	0.565
3.08706	0.434
3.12683	0.308
3.1666	0.225
3.20637	0.167
3.24614	0.134
3.28592	0.091
3.32569	0.069
3.36546	0.031
3.40523	0.029
3.445	0.038
3.48477	0.041
3.52454	0.112
3.56432	0.247
3.60409	0.313
3.64386	0.333
3.68363	0.336
3.7234	0.341
3.76317	0.374
3.80294	0.378
3.84272	0.371
3.88249	0.368
3.92226	0.406
3.96203	0.419
4.0018	0.487
4.04157	0.515
4.08134	0.557
4.12112	0.593
4.16089	0.62
4.20066	0.651
4.24043	0.665
4.2802	0.656
4.31997	0.679
4.35975	0.706
4.39952	0.733
4.43929	0.747
4.47906	0.751
4.51883	0.757
4.5586	0.771
4.59837	0.779
4.63815	0.792
4.67792	0.804
4.71769	0.814
4.75746	0.822
4.79723	0.83
4.837	0.845
4.87677	0.852
4.91655	0.857
4.95632	0.862
4.99609	0.865
5.03586	0.862
5.07563	0.847
5.1154	0.829
5.15517	0.817
5.19495	0.832
5.23472	0.862
5.27449	0.864
5.31426	0.844
5.35403	0.819
5.3938	0.85
5.43357	0.854
5.47335	0.84
5.51312	0.82
5.55289	0.787
5.59266	0.776
5.63243	0.723
5.6722	0.683
5.71198	0.62
5.75175	0.515
5.79152	0.15
5.83129	0.038
5.87106	0.039
5.91083	0.126
5.9506	0.273
5.99038	0.414
6.03015	0.532
6.06992	0.6
6.10969	0.656
6.14946	0.688
6.18923	0.751
6.229	0.786
6.26878	0.809
6.30855	0.807
6.34832	0.83
6.38809	0.797
6.42786	0.822
6.46763	0.807
6.5074	0.84
6.54718	0.854
6.58695	0.857
6.62672	0.819
6.66649	0.525
6.70626	0.651
6.74603	0.611
6.7858	0.388
6.82558	0.212
6.86535	0.102
6.90512	0.094
6.94489	0.054
6.98466	0.102
7.02443	0.333
7.06421	0.495
7.10398	0.623
7.14375	0.686
7.18352	0.713
7.22329	0.593
7.26306	0.432
7.30283	0.538
7.34261	0.626
7.38238	0.737
7.42215	0.751
7.46192	0.716
7.50169	0.673
7.54146	0.59
7.58123	0.348
7.62101	0.54
7.66078	0.436
7.70055	0.135
7.74032	0.346
7.78009	0.215
7.81986	0.081
7.85963	0.175
7.89941	0.419
7.93918	0.578
7.97895	0.651
8.01872	0.711
8.05849	0.771
8.09826	0.759
8.13803	0.427
8.17781	0.102
8.21758	0.273
8.25735	0.499
8.29712	0.582
8.33689	0.431
8.37666	0.396
8.41644	0.593
8.45621	0.66
8.49598	0.535
8.53575	0.535
8.57552	0.575
8.61529	0.562
8.65506	0.633
8.69484	0.457
8.73461	0.368
8.77438	0.573
8.81415	0.799
8.85392	0.873
8.89369	0.897
8.93346	0.9
8.97324	0.89
9.01301	0.882
9.05278	0.91
9.09255	0.917
9.13232	0.832
9.17209	0.64
9.21186	0.767
9.25164	0.88
9.29141	0.91
9.33118	0.915
9.37095	0.908
9.41072	0.87
9.45049	0.883
9.49026	0.917
9.53004	0.932
9.56981	0.935
9.60958	0.932
9.64935	0.917
9.68912	0.844
9.72889	0.739
9.76867	0.815
9.80844	0.844
9.84821	0.872
9.88798	0.893
9.92775	0.898
9.96752	0.887
10.0073	0.847
10.0471	0.873
10.0868	0.875
10.1266	0.835
10.1664	0.839
10.2062	0.842
10.2459	0.819
10.2857	0.772
10.3255	0.767
10.3652	0.757
10.405	0.746
10.4448	0.733
10.4846	0.718
10.5243	0.703
10.5641	0.661
10.6039	0.535
10.6436	0.547
10.6834	0.6
10.7232	0.618
10.763	0.613
10.8027	0.587
10.8425	0.552
10.8823	0.497
10.922	0.411
10.9618	0.338
11.0016	0.29
11.0414	0.253
11.0811	0.228
11.1209	0.227
11.1607	0.238
11.2004	0.258
11.2402	0.296
11.28	0.33
11.3198	0.381
11.3595	0.436
11.3993	0.475
11.4391	0.529
11.4788	0.573
11.5186	0.603
11.5584	0.636
11.5982	0.656
11.6379	0.674
11.6777	0.688
11.7175	0.691
11.7572	0.648
11.797	0.626
11.8368	0.683
11.8766	0.714
11.9163	0.716
11.9561	0.699
11.9959	0.719
12.0356	0.767
12.0754	0.8
12.1152	0.815
12.155	0.835
12.1947	0.859
12.2345	0.872
12.2743	0.885
12.314	0.893
12.3538	0.902
12.3936	0.912
12.4334	0.922
12.4731	0.933
12.5129	0.943
12.5527	0.951
12.5924	0.958
12.6322	0.955
12.672	0.95
12.7118	0.923
12.7515	0.859
12.7913	0.643
12.8311	0.525
12.8708	0.606
12.9106	0.669
12.9504	0.615
12.9902	0.464
13.0299	0.354
13.0697	0.477
13.1095	0.681
13.1492	0.807
13.189	0.873
13.2288	0.903
13.2686	0.915
13.3083	0.927
13.3481	0.932
13.3879	0.94
13.4276	0.945
13.4674	0.943
13.5072	0.943
13.547	0.941
13.5867	0.935
13.6265	0.932
13.6663	0.928
13.706	0.923
13.7458	0.92
13.7856	0.913
13.8254	0.902
13.8651	0.887
13.9049	0.868
13.9447	0.862
13.9844	0.864
14.0242	0.867
14.064	0.855
14.1038	0.82
14.1435	0.751
14.1833	0.635
14.2231	0.452
14.2628	0.268
14.3026	0.149
14.3424	0.097
14.3822	0.072
14.4219	0.064
14.4617	0.081
14.5015	0.127
14.5412	0.202
14.581	0.321
14.6208	0.444
14.6606	0.543
14.7003	0.605
14.7401	0.643
14.7799	0.658
14.8196	0.671
14.8594	0.694
14.8992	0.733
14.939	0.751
14.9787	0.742
15.0185	0.699
15.0583	0.625
15.098	0.527
15.1378	0.454
15.1776	0.427
15.2174	0.441
15.2571	0.454
15.2969	0.477
15.3367	0.49
15.3764	0.514
15.4162	0.543
15.456	0.578
15.4958	0.608
15.5355	0.628
15.5753	0.646
15.6151	0.656
15.6548	0.668
15.6946	0.668
15.7344	0.663
15.7742	0.66
15.8139	0.653
15.8537	0.636
15.8935	0.623
15.9332	0.613
15.973	0.598
