Infrared Spectrum: THIOPHENE, 2-CHLORO-3,5-DINITRO-
Formula: C4 H Cl N2 O4 S
CAS: 6286-32-4
State: SOLID (KBr PELLET)
Class: COBLENTZ
Instrument: Not specified, most likely a prism, grating, or hybrid spectrometer.
Sampling: TRANSMISSION
Resolution: 4
Origin: TENNESSEE EASTMAN COMPANY, RESEARCH LABORATORIES
MICROMETERS	TRANSMITTANCE
2.009	0.566
2.05	0.567
2.09101	0.572
2.13201	0.588
2.17301	0.591
2.21401	0.602
2.25502	0.614
2.29602	0.622
2.33702	0.631
2.37803	0.636
2.41903	0.646
2.46003	0.653
2.50103	0.663
2.54204	0.667
2.58304	0.677
2.62404	0.692
2.66505	0.692
2.70605	0.71
2.74705	0.701
2.78805	0.708
2.82906	0.71
2.87006	0.71
2.91106	0.71
2.95207	0.71
2.99307	0.713
3.03407	0.72
3.07507	0.727
3.11608	0.73
3.15708	0.735
3.19808	0.74
3.23909	0.723
3.28009	0.608
3.32109	0.734
3.36209	0.754
3.4031	0.759
3.4441	0.739
3.4851	0.74
3.5261	0.734
3.56711	0.746
3.60811	0.783
3.64911	0.771
3.69012	0.747
3.73112	0.794
3.77212	0.794
3.81312	0.799
3.85413	0.804
3.89513	0.809
3.93613	0.813
3.97714	0.819
4.01814	0.821
4.05914	0.816
4.10014	0.819
4.14115	0.823
4.18215	0.823
4.22315	0.816
4.26416	0.883
4.30516	0.876
4.34616	0.838
4.38716	0.821
4.42817	0.842
4.46917	0.842
4.51017	0.845
4.55118	0.852
4.59218	0.854
4.63318	0.854
4.67418	0.854
4.71519	0.861
4.75619	0.861
4.79719	0.861
4.8382	0.867
4.8792	0.866
4.9202	0.866
4.9612	0.867
5.00221	0.869
5.04321	0.876
5.08421	0.871
5.12522	0.873
5.16622	0.873
5.20722	0.879
5.24822	0.874
5.28923	0.874
5.33023	0.871
5.37123	0.873
5.41224	0.871
5.45324	0.864
5.49424	0.873
5.53524	0.874
5.57625	0.874
5.61725	0.852
5.65825	0.869
5.69926	0.835
5.74026	0.831
5.78126	0.835
5.82226	0.85
5.86327	0.821
5.90427	0.837
5.94527	0.823
5.98628	0.818
6.02728	0.801
6.06828	0.807
6.10928	0.79
6.15029	0.792
6.19129	0.787
6.23229	0.78
6.2733	0.785
6.3143	0.749
6.3553	0.689
6.3963	0.495
6.43731	0.032
6.47831	0.138
6.51931	0.245
6.56031	0.121
6.60132	0.06
6.64232	0.202
6.68332	0.542
6.72433	0.655
6.76533	0.674
6.80633	0.739
6.84733	0.77
6.88834	0.761
6.92934	0.765
6.97034	0.545
7.01135	0.341
7.05235	0.644
7.09335	0.67
7.13435	0.614
7.17536	0.377
7.21636	0.332
7.25736	0.463
7.29837	0.572
7.33937	0.578
7.38037	0.523
7.42137	0.433
7.46238	0.044
7.50338	0.02
7.54438	0.022
7.58539	0.325
7.62639	0.444
7.66739	0.492
7.70839	0.548
7.7494	0.677
7.7904	0.739
7.8314	0.795
7.87241	0.79
7.91341	0.79
7.95441	0.825
7.99541	0.847
8.03642	0.862
8.07742	0.864
8.11842	0.866
8.15943	0.854
8.20043	0.861
8.24143	0.843
8.28243	0.823
8.32344	0.78
8.36444	0.799
8.40544	0.821
8.44645	0.758
8.48745	0.674
8.52845	0.71
8.56945	0.787
8.61046	0.838
8.65146	0.849
8.69246	0.852
8.73347	0.854
8.77447	0.855
8.81547	0.862
8.85647	0.866
8.89748	0.866
8.93848	0.867
8.97948	0.871
9.02049	0.869
9.06149	0.869
9.10249	0.866
9.14349	0.849
9.1845	0.686
9.2255	0.447
9.2665	0.61
9.30751	0.715
9.34851	0.79
9.38951	0.785
9.43051	0.569
9.47152	0.416
9.51252	0.653
9.55352	0.77
9.59452	0.811
9.63553	0.837
9.67653	0.843
9.71753	0.859
9.75854	0.866
9.79954	0.862
9.84054	0.861
9.88154	0.862
9.92255	0.864
9.96355	0.862
10.0046	0.873
10.0456	0.879
10.0866	0.879
10.1276	0.873
10.1686	0.876
10.2096	0.888
10.2506	0.885
10.2916	0.871
10.3326	0.878
10.3736	0.893
10.4146	0.891
10.4556	0.881
10.4966	0.881
10.5376	0.885
10.5786	0.873
10.6196	0.782
10.6606	0.77
10.7016	0.843
10.7426	0.878
10.7836	0.881
10.8246	0.876
10.8656	0.885
10.9066	0.909
10.9476	0.905
10.9886	0.89
11.0296	0.893
11.0706	0.914
11.1116	0.909
11.1526	0.876
11.1936	0.866
11.2346	0.85
11.2756	0.763
11.3166	0.554
11.3576	0.554
11.3986	0.701
11.4397	0.789
11.4807	0.831
11.5217	0.837
11.5627	0.838
11.6037	0.866
11.6447	0.897
11.6857	0.907
11.7267	0.909
11.7677	0.897
11.8087	0.897
11.8497	0.912
11.8907	0.924
11.9317	0.921
11.9727	0.903
12.0137	0.898
12.0547	0.903
12.0957	0.907
12.1367	0.874
12.1777	0.691
12.2187	0.445
12.2597	0.641
12.3007	0.809
12.3417	0.885
12.3827	0.897
12.4237	0.895
12.4647	0.891
12.5057	0.897
12.5467	0.912
12.5877	0.91
12.6287	0.893
12.6697	0.869
12.7107	0.819
12.7517	0.595
12.7927	0.492
12.8337	0.569
12.8748	0.674
12.9158	0.794
12.9568	0.849
12.9978	0.878
13.0388	0.888
13.0798	0.888
13.1208	0.859
13.1618	0.777
13.2028	0.704
13.2438	0.818
13.2848	0.878
13.3258	0.895
13.3668	0.905
13.4078	0.909
13.4488	0.909
13.4898	0.907
13.5308	0.895
13.5718	0.859
13.6128	0.711
13.6538	0.475
13.6948	0.283
13.7358	0.353
13.7768	0.614
13.8178	0.768
13.8588	0.849
13.8998	0.885
13.9408	0.881
13.9818	0.806
14.0228	0.706
14.0638	0.727
14.1048	0.831
14.1458	0.903
14.1868	0.941
14.2278	0.958
14.2688	0.969
14.3099	0.969
14.3509	0.969
14.3919	0.97
14.4329	0.975
14.4739	0.981
14.5149	0.987
14.5559	0.987
14.5969	0.987
14.6379	0.987
14.6789	0.987
14.7199	0.987
14.7609	0.987
14.8019	0.991
14.8429	0.991
14.8839	0.994
14.9249	0.986
14.9659	0.974
15.0069	0.974
15.0479	0.97
15.0889	0.972
15.1299	0.97
15.1709	0.962
15.2119	0.943
15.2529	0.915
15.2939	0.89
15.3349	0.849
15.3759	0.821
15.4169	0.792
15.4579	0.759
15.4989	0.746
15.5399	0.737
15.5809	0.735
15.6219	0.735
15.6629	0.737
15.7039	0.756
15.745	0.766
15.786	0.773
15.827	0.782
15.868	0.79
15.909	0.794
15.95	0.795
