Infrared Spectrum: 2,4-DIMETHYL PIPERIDINE
Formula: C7 H15 N
CAS: 6287-19-0
State: LIQUID
Boiling point: 138-140 C
Class: COBLENTZ
Instrument: Not specified, most likely a prism, grating, or hybrid spectrometer.
Sampling: TRANSMISSION
Path length: 0.003 CM
Resolution: 4
Origin: WYANDOTTE CHEMICALS CORP., WYANDOTTE, MICHIGAN, USA
MICROMETERS	TRANSMITTANCE
2.108	0.99
2.14792	0.985
2.18784	0.961
2.22776	0.946
2.26769	0.945
2.30761	0.95
2.34753	0.948
2.38745	0.95
2.42737	0.958
2.46729	0.96
2.50722	0.958
2.54714	0.965
2.58706	0.963
2.62698	0.96
2.6669	0.938
2.70682	0.928
2.74674	0.868
2.78667	0.745
2.82659	0.625
2.86651	0.587
2.90643	0.539
2.94635	0.504
2.98627	0.48
3.0262	0.397
3.06612	0.414
3.10604	0.474
3.14596	0.534
3.18588	0.585
3.2258	0.633
3.26572	0.648
3.30565	0.412
3.34557	0.001
3.38549	0.033
3.42541	0.044
3.46533	0.068
3.50525	0.118
3.54518	0.128
3.5851	0.186
3.62502	0.391
3.66494	0.432
3.70486	0.645
3.74478	0.703
3.7847	0.697
3.82463	0.695
3.86455	0.808
3.90447	0.86
3.94439	0.895
3.98431	0.915
4.02423	0.903
4.06416	0.906
4.10408	0.913
4.144	0.916
4.18392	0.916
4.22384	0.923
4.26376	0.926
4.30368	0.928
4.34361	0.926
4.38353	0.925
4.42345	0.923
4.46337	0.928
4.50329	0.926
4.54321	0.921
4.58313	0.918
4.62306	0.926
4.66298	0.931
4.7029	0.931
4.74282	0.935
4.78274	0.943
4.82266	0.951
4.86259	0.95
4.90251	0.951
4.94243	0.955
4.98235	0.953
5.02227	0.951
5.06219	0.955
5.10211	0.955
5.14204	0.953
5.18196	0.953
5.22188	0.951
5.2618	0.953
5.30172	0.951
5.34164	0.951
5.38157	0.953
5.42149	0.953
5.46141	0.953
5.50133	0.953
5.54125	0.948
5.58117	0.95
5.62109	0.955
5.66102	0.948
5.70094	0.946
5.74086	0.915
5.78078	0.888
5.8207	0.871
5.86062	0.843
5.90055	0.808
5.94047	0.748
5.98039	0.733
6.02031	0.74
6.06023	0.763
6.10015	0.793
6.14007	0.683
6.18	0.82
6.21992	0.851
6.25984	0.838
6.29976	0.821
6.33968	0.835
6.3796	0.843
6.41953	0.845
6.45945	0.841
6.49937	0.85
6.53929	0.831
6.57921	0.811
6.61913	0.745
6.65905	0.658
6.69898	0.582
6.7389	0.382
6.77882	0.151
6.81874	0.124
6.85866	0.151
6.89858	0.236
6.93851	0.396
6.97843	0.527
7.01835	0.662
7.05827	0.685
7.09819	0.69
7.13811	0.627
7.17803	0.356
7.21796	0.146
7.25788	0.302
7.2978	0.555
7.33772	0.602
7.37764	0.638
7.41756	0.575
7.45749	0.435
7.49741	0.487
7.53733	0.221
7.57725	0.437
7.61717	0.582
7.65709	0.678
7.69701	0.695
7.73694	0.594
7.77686	0.575
7.81678	0.592
7.8567	0.6
7.89662	0.653
7.93654	0.683
7.97647	0.652
8.01639	0.718
8.05631	0.702
8.09623	0.74
8.13615	0.75
8.17607	0.737
8.21599	0.745
8.25592	0.745
8.29584	0.687
8.33576	0.522
8.37568	0.42
8.4156	0.64
8.45552	0.655
8.49544	0.577
8.53537	0.522
8.57529	0.484
8.61521	0.537
8.65513	0.603
8.69505	0.539
8.73497	0.512
8.7749	0.42
8.81482	0.307
8.85474	0.292
8.89466	0.329
8.93458	0.482
8.9745	0.525
9.01442	0.487
9.05435	0.357
9.09427	0.454
9.13419	0.512
9.17411	0.602
9.21403	0.675
9.25395	0.712
9.29388	0.73
9.3338	0.703
9.37372	0.707
9.41364	0.763
9.45356	0.752
9.49348	0.702
9.5334	0.632
9.57333	0.668
9.61325	0.687
9.65317	0.698
9.69309	0.727
9.73301	0.732
9.77293	0.683
9.81286	0.617
9.85278	0.602
9.8927	0.645
9.93262	0.63
9.97254	0.612
10.0125	0.658
10.0524	0.667
10.0923	0.667
10.1322	0.717
10.1721	0.718
10.2121	0.702
10.252	0.668
10.2919	0.632
10.3318	0.653
10.3718	0.69
10.4117	0.723
10.4516	0.733
10.4915	0.74
10.5314	0.747
10.5714	0.743
10.6113	0.742
10.6512	0.748
10.6911	0.74
10.7311	0.733
10.771	0.723
10.8109	0.722
10.8508	0.715
10.8907	0.702
10.9307	0.688
10.9706	0.685
11.0105	0.678
11.0504	0.678
11.0903	0.673
11.1303	0.672
11.1702	0.675
11.2101	0.685
11.25	0.682
11.29	0.652
11.3299	0.66
11.3698	0.642
11.4097	0.632
11.4496	0.63
11.4896	0.628
11.5295	0.627
11.5694	0.63
11.6093	0.635
11.6492	0.637
11.6892	0.643
11.7291	0.628
11.769	0.612
11.8089	0.615
11.8489	0.628
11.8888	0.652
11.9287	0.663
11.9686	0.685
12.0085	0.675
12.0485	0.652
12.0884	0.622
12.1283	0.587
12.1682	0.549
12.2081	0.502
12.2481	0.465
12.288	0.45
12.3279	0.444
12.3678	0.455
12.4078	0.46
12.4477	0.452
12.4876	0.454
12.5275	0.484
12.5674	0.519
12.6074	0.517
12.6473	0.5
12.6872	0.475
12.7271	0.435
12.767	0.422
12.807	0.41
12.8469	0.392
12.8868	0.382
12.9267	0.387
12.9667	0.387
13.0066	0.382
13.0465	0.376
13.0864	0.369
13.1263	0.354
13.1663	0.351
13.2062	0.336
13.2461	0.321
13.286	0.297
13.326	0.269
13.3659	0.242
13.4058	0.224
13.4457	0.222
13.4856	0.241
13.5256	0.269
13.5655	0.302
13.6054	0.339
13.6453	0.382
13.6852	0.425
13.7252	0.462
13.7651	0.497
13.805	0.529
13.8449	0.559
13.8849	0.582
13.9248	0.6
13.9647	0.618
14.0046	0.635
14.0445	0.648
14.0845	0.658
14.1244	0.675
14.1643	0.683
14.2042	0.698
14.2441	0.707
14.2841	0.715
14.324	0.72
14.3639	0.73
14.4038	0.732
14.4438	0.742
14.4837	0.742
14.5236	0.748
14.5635	0.745
14.6034	0.743
14.6434	0.75
14.6833	0.752
14.7232	0.753
14.7631	0.757
14.803	0.752
14.843	0.757
14.8829	0.758
14.9228	0.748
14.9627	0.745
15.0027	0.737
15.0426	0.737
15.0825	0.75
15.1224	0.742
15.1623	0.737
15.2023	0.732
15.2422	0.73
15.2821	0.727
15.322	0.727
15.3619	0.725
15.4019	0.732
15.4418	0.732
15.4817	0.727
15.5216	0.727
15.5616	0.723
15.6015	0.725
15.6414	0.725
15.6813	0.722
15.7212	0.713
15.7612	0.713
15.8011	0.713
15.841	0.722
15.8809	0.723
15.9208	0.715
15.9608	0.715
16.0007	0.715
