Infrared Spectrum: p'-DIETHYLAMINO-p-AZOBENZENE SULFONIC ACID
Formula: C16 H19 N3 O3 S
CAS: 6287-12-3
State: SOLID (MINERAL OIL MULL)
Class: COBLENTZ
Instrument: Not specified, most likely a prism, grating, or hybrid spectrometer.
Sampling: TRANSMISSION
Resolution: 4
Origin: WYANDOTTE CHEMICALS CORP., WYANDOTTE, MICHIGAN, USA
MICROMETERS	TRANSMITTANCE
2.012	0.31
2.0492	0.302
2.08641	0.307
2.12361	0.307
2.16081	0.309
2.19801	0.309
2.23522	0.298
2.27242	0.293
2.30962	0.295
2.34682	0.298
2.38403	0.318
2.42123	0.312
2.45843	0.329
2.49563	0.338
2.53284	0.346
2.57004	0.352
2.60724	0.36
2.64445	0.364
2.68165	0.377
2.71885	0.361
2.75605	0.321
2.79326	0.27
2.83046	0.239
2.86766	0.243
2.90486	0.234
2.94207	0.223
2.97927	0.201
3.01647	0.217
3.05367	0.232
3.09088	0.262
3.12808	0.263
3.16528	0.271
3.20249	0.274
3.23969	0.268
3.27689	0.25
3.31409	0.208
3.3513	0.062
3.3885	0.012
3.4257	0.029
3.4629	0.021
3.50011	0.023
3.53731	0.041
3.57451	0.222
3.61171	0.36
3.64892	0.403
3.68612	0.397
3.72332	0.402
3.76052	0.4
3.79773	0.419
3.83493	0.43
3.87213	0.44
3.90934	0.467
3.94654	0.487
3.98374	0.5
4.02094	0.506
4.05815	0.51
4.09535	0.527
4.13255	0.531
4.16975	0.526
4.20696	0.537
4.24416	0.538
4.28136	0.524
4.31856	0.531
4.35577	0.541
4.39297	0.566
4.43017	0.591
4.46738	0.59
4.50458	0.586
4.54178	0.597
4.57898	0.597
4.61619	0.597
4.65339	0.611
4.69059	0.622
4.72779	0.645
4.765	0.653
4.8022	0.658
4.8394	0.663
4.8766	0.667
4.91381	0.669
4.95101	0.683
4.98821	0.7
5.02542	0.704
5.06262	0.717
5.09982	0.706
5.13702	0.737
5.17423	0.726
5.21143	0.737
5.24863	0.729
5.28583	0.736
5.32304	0.751
5.36024	0.782
5.39744	0.799
5.43464	0.812
5.47185	0.829
5.50905	0.826
5.54625	0.838
5.58346	0.849
5.62066	0.869
5.65786	0.885
5.69506	0.897
5.73227	0.909
5.76947	0.917
5.80667	0.914
5.84387	0.939
5.88108	0.916
5.91828	0.905
5.95548	0.883
5.99268	0.864
6.02989	0.822
6.06709	0.763
6.10429	0.736
6.1415	0.54
6.1787	0.167
6.2159	0.131
6.2531	0.218
6.29031	0.364
6.32751	0.484
6.36471	0.507
6.40191	0.489
6.43912	0.563
6.47632	0.63
6.51352	0.608
6.55072	0.374
6.58793	0.298
6.62513	0.504
6.66233	0.559
6.69953	0.461
6.73674	0.335
6.77394	0.076
6.81114	0.049
6.84835	0.054
6.88555	0.085
6.92275	0.218
6.95995	0.501
6.99716	0.552
7.03436	0.4
7.07156	0.274
7.10876	0.192
7.14597	0.231
7.18317	0.147
7.22037	0.049
7.25757	0.037
7.29478	0.124
7.33198	0.156
7.36918	0.15
7.40639	0.152
7.44359	0.242
7.48079	0.374
7.51799	0.461
7.5552	0.512
7.5924	0.417
7.6296	0.403
7.6668	0.555
7.70401	0.6
7.74121	0.583
7.77841	0.54
7.81561	0.389
7.85282	0.287
7.89002	0.4
7.92722	0.371
7.96443	0.305
8.00163	0.276
8.03883	0.262
8.07603	0.236
8.11324	0.19
8.15044	0.164
8.18764	0.122
8.22484	0.108
8.26205	0.102
8.29925	0.096
8.33645	0.088
8.37365	0.08
8.41086	0.077
8.44806	0.085
8.48526	0.125
8.52247	0.17
8.55967	0.189
8.59687	0.152
8.63407	0.163
8.67128	0.189
8.70848	0.183
8.74568	0.195
8.78288	0.236
8.82009	0.239
8.85729	0.145
8.89449	0.076
8.93169	0.065
8.9689	0.068
9.0061	0.121
9.0433	0.136
9.08051	0.145
9.11771	0.161
9.15491	0.218
9.19211	0.268
9.22932	0.25
9.26652	0.206
9.30372	0.253
9.34092	0.335
9.37813	0.428
9.41533	0.509
9.45253	0.571
9.48973	0.527
9.52694	0.299
9.56414	0.153
9.60134	0.085
9.63854	0.074
9.67575	0.086
9.71295	0.155
9.75015	0.232
9.78736	0.293
9.82456	0.332
9.86176	0.299
9.89896	0.203
9.93617	0.145
9.97337	0.209
10.0106	0.293
10.0478	0.341
10.085	0.375
10.1222	0.405
10.1594	0.437
10.1966	0.451
10.2338	0.462
10.271	0.472
10.3082	0.489
10.3454	0.496
10.3826	0.5
10.4198	0.503
10.457	0.509
10.4942	0.518
10.5314	0.517
10.5686	0.531
10.6058	0.565
10.643	0.58
10.6802	0.599
10.7174	0.613
10.7546	0.611
10.7918	0.604
10.829	0.605
10.8662	0.624
10.9034	0.645
10.9406	0.67
10.9778	0.701
11.015	0.734
11.0522	0.743
11.0894	0.756
11.1267	0.76
11.1639	0.757
11.2011	0.768
11.2383	0.768
11.2755	0.79
11.3127	0.807
11.3499	0.819
11.3871	0.824
11.4243	0.833
11.4615	0.826
11.4987	0.822
11.5359	0.802
11.5731	0.751
11.6103	0.675
11.6475	0.639
11.6847	0.604
11.7219	0.523
11.7591	0.417
11.7963	0.319
11.8335	0.282
11.8707	0.341
11.9079	0.395
11.9451	0.461
11.9823	0.531
12.0195	0.559
12.0567	0.552
12.0939	0.529
12.1311	0.453
12.1683	0.319
12.2055	0.282
12.2427	0.319
12.2799	0.34
12.3171	0.448
12.3543	0.597
12.3915	0.683
12.4287	0.714
12.4659	0.729
12.5031	0.709
12.5404	0.686
12.5776	0.633
12.6148	0.605
12.652	0.613
12.6892	0.658
12.7264	0.709
12.7636	0.756
12.8008	0.801
12.838	0.822
12.8752	0.841
12.9124	0.863
12.9496	0.866
12.9868	0.875
13.024	0.892
13.0612	0.903
13.0984	0.916
13.1356	0.922
13.1728	0.94
13.21	0.939
13.2472	0.948
13.2844	0.95
13.3216	0.948
13.3588	0.931
13.396	0.892
13.4332	0.81
13.4704	0.647
13.5076	0.473
13.5448	0.366
13.582	0.35
13.6192	0.408
13.6564	0.442
13.6936	0.495
13.7308	0.562
13.768	0.624
13.8052	0.672
13.8424	0.692
13.8796	0.711
13.9169	0.703
13.9541	0.718
13.9913	0.771
14.0285	0.826
14.0657	0.872
14.1029	0.902
14.1401	0.914
14.1773	0.928
14.2145	0.917
14.2517	0.899
14.2889	0.861
14.3261	0.804
14.3633	0.722
14.4005	0.608
14.4377	0.484
14.4749	0.377
14.5121	0.291
14.5493	0.229
14.5865	0.198
14.6237	0.19
14.6609	0.195
14.6981	0.211
14.7353	0.246
14.7725	0.298
14.8097	0.34
14.8469	0.385
14.8841	0.43
14.9213	0.45
14.9585	0.479
14.9957	0.487
15.0329	0.486
15.0701	0.454
15.1073	0.45
15.1445	0.467
15.1817	0.513
15.2189	0.543
15.2561	0.559
15.2933	0.572
15.3306	0.572
15.3678	0.572
15.405	0.572
15.4422	0.571
15.4794	0.569
15.5166	0.563
15.5538	0.56
15.591	0.54
15.6282	0.475
15.6654	0.417
15.7026	0.389
15.7398	0.374
15.777	0.389
15.8142	0.385
15.8514	0.389
15.8886	0.388
15.9258	0.369
15.963	0.354
16.0002	0.333
