Infrared Spectrum: Purine, 6-propylthio-
Formula: C8 H10 N4 S
CAS: 6288-93-3
State: SOLID (1 mg / 650 mg KBr DISC)
Class: COBLENTZ III
Instrument: PERKIN-ELMER 21 (GRATING)
Instrument parameters: FILTER CHANGE AT 1090 CM^-^1
Sampling: TRANSMISSION
Resolution: 2
Origin: SOUTHERN RESEARCH INSTITUTE, W.C. Coburn, Jr.
1/CM	TRANSMITTANCE
604	0.8418
613	0.8496
622	0.8616
631	0.865
640	0.8045
649	0.6609
658	0.9449
667	0.9152
676	0.8568
685	0.9239
694	0.9203
703	0.9044
712	0.8806
721	0.8533
730	0.8306
739	0.8283
748	0.8241
757	0.8091
766	0.7991
775	0.7784
784	0.7323
793	0.6624
802	0.7647
811	0.7367
820	0.7029
829	0.5966
838	0.5103
847	0.4222
856	0.7221
865	0.7067
874	0.6321
883	0.5972
892	0.6885
901	0.7141
910	0.6654
919	0.6013
928	0.5454
937	0.5163
946	0.4302
955	0.4064
964	0.7946
973	0.7999
982	0.7792
991	0.7311
1000	0.723
1009	0.7828
1018	0.7869
1027	0.7817
1036	0.7748
1045	0.7675
1054	0.7622
1063	0.76
1072	0.7454
1081	0.7376
1090	0.6991
1099	0.7386
1108	0.729
1117	0.702
1126	0.6753
1135	0.6583
1144	0.6693
1153	0.6753
1162	0.6784
1171	0.6896
1180	0.6728
1189	0.6506
1198	0.6313
1207	0.583
1216	0.5309
1225	0.4573
1234	0.3133
1243	0.3294
1252	0.5857
1261	0.6658
1270	0.7514
1279	0.7184
1288	0.7068
1297	0.7264
1306	0.6731
1315	0.604
1324	0.3652
1333	0.6397
1342	0.7076
1351	0.6865
1360	0.6201
1369	0.5184
1378	0.2967
1387	0.3974
1396	0.6673
1405	0.7083
1414	0.6804
1423	0.5265
1432	0.5626
1441	0.6585
1450	0.6472
1459	0.6123
1468	0.5944
1477	0.7042
1486	0.7152
1495	0.7071
1504	0.6724
1513	0.6534
1522	0.6275
1531	0.608
1540	0.5039
1549	0.4829
1558	0.2238
1567	0.1809
1576	0.3781
1585	0.4508
1594	0.5021
1603	0.6648
1612	0.7126
1621	0.7218
1630	0.7197
1639	0.7227
1648	0.7312
1657	0.731
1666	0.7307
1675	0.7256
1684	0.7164
1693	0.7099
1702	0.7013
1711	0.6897
1720	0.6853
1729	0.6772
1738	0.6673
1747	0.6582
1756	0.6521
1765	0.6571
1774	0.6628
1783	0.6686
1792	0.6727
1801	0.6725
1810	0.6718
1819	0.6739
1828	0.6825
1837	0.6876
1846	0.6872
1855	0.6862
1864	0.6894
1873	0.696
1882	0.6972
1891	0.7016
1900	0.7059
1909	0.7098
1918	0.7098
1927	0.7091
1936	0.7092
1945	0.7071
1954	0.7039
1963	0.7019
1972	0.7033
1981	0.7031
1990	0.7029
1999	0.7008
2008	0.6979
2017	0.694
2026	0.6894
2035	0.686
2044	0.6842
2053	0.6815
2062	0.6801
2071	0.6788
2080	0.6776
2089	0.6769
2098	0.6738
2107	0.669
2116	0.6643
2125	0.6596
2134	0.6554
2143	0.6513
2152	0.6473
2161	0.642
2170	0.6368
2179	0.6316
2188	0.6265
2197	0.6202
2206	0.6136
2215	0.6097
2224	0.6106
2233	0.6061
2242	0.5902
2251	0.5817
2260	0.5772
2269	0.5712
2278	0.5627
2287	0.551
2296	0.5374
2305	0.5225
2314	0.5119
2323	0.5089
2332	0.5073
2341	0.5058
2350	0.5044
2359	0.5017
2368	0.4989
2377	0.498
2386	0.4985
2395	0.5005
2404	0.5006
2413	0.4985
2422	0.4949
2431	0.4884
2440	0.4816
2449	0.4766
2458	0.4725
2467	0.4686
2476	0.4632
2485	0.4572
2494	0.4507
2503	0.4446
2512	0.4411
2521	0.4397
2530	0.4416
2539	0.4438
2548	0.446
2557	0.4503
2566	0.455
2575	0.46
2584	0.4634
2593	0.46
2602	0.4572
2611	0.4497
2620	0.4409
2629	0.44
2638	0.4441
2647	0.4538
2656	0.458
2665	0.4592
2674	0.462
2683	0.4654
2692	0.4705
2701	0.4743
2710	0.4725
2719	0.4675
2728	0.461
2737	0.4547
2746	0.4517
2755	0.4525
2764	0.457
2773	0.4652
2782	0.4819
2791	0.4932
2800	0.5077
2809	0.5141
2818	0.5152
2827	0.5154
2836	0.5161
2845	0.5239
2854	0.536
2863	0.5351
2872	0.5324
2881	0.5234
2890	0.4939
2899	0.4673
2908	0.448
2917	0.4415
2926	0.4383
2935	0.4392
2944	0.4557
2953	0.4936
2962	0.5338
2971	0.5633
2980	0.5837
2989	0.5942
2998	0.5889
3007	0.5779
3016	0.5592
3025	0.5365
3034	0.5343
3043	0.5413
3052	0.5515
3061	0.5628
3070	0.5773
3079	0.5925
3088	0.6007
3097	0.6111
3106	0.6229
3115	0.6337
3124	0.6386
3133	0.6396
3142	0.6343
3151	0.6306
3160	0.631
3169	0.639
3178	0.6423
3187	0.6416
3196	0.6419
3205	0.645
3214	0.641
3223	0.6367
3232	0.6357
3241	0.6361
3250	0.6391
3259	0.64
3268	0.6408
3277	0.6416
3286	0.6378
3295	0.6312
3304	0.6271
3313	0.6223
3322	0.6167
3331	0.6082
3340	0.6042
3349	0.5933
3358	0.5899
3367	0.5849
3376	0.5781
3385	0.5718
3394	0.5675
3403	0.5662
3412	0.5669
3421	0.5676
3430	0.5681
3439	0.5698
3448	0.5716
3457	0.574
3466	0.5744
3475	0.5752
3484	0.578
3493	0.5846
3502	0.5917
3511	0.5953
3520	0.5968
3529	0.6005
3538	0.6076
3547	0.6118
3556	0.6211
3565	0.6319
3574	0.6392
3583	0.6444
3592	0.6488
3601	0.6524
3610	0.6548
3619	0.6568
3628	0.6575
3637	0.6631
3646	0.6623
3655	0.6607
3664	0.659
3673	0.663
3682	0.6704
3691	0.6695
3700	0.6659
3709	0.6652
3718	0.6661
3727	0.665
3736	0.6593
3745	0.6553
3754	0.6542
3763	0.6548
3772	0.6623
3781	0.6619
3790	0.6599
3799	0.6569
3808	0.6504
3817	0.6503
3826	0.6521
3835	0.6536
3844	0.6541
3853	0.6529
3862	0.6441
3871	0.6487
3880	0.6496
3889	0.645
3898	0.6465
3907	0.6536
3916	0.6492
3925	0.6484
3934	0.6463
3943	0.6467
3952	0.6427
3961	0.6433
3970	0.6459
3979	0.6464
3988	0.6424
3997	0.6437
