Infrared Spectrum: DI-n-BUTYL MERCURY
Formula: C8 H18 Hg
CAS: 629-35-6
State: LIQUID
Boiling point: 111-113 C AT 20 mmHg
Class: COBLENTZ
Instrument: Not specified, most likely a prism, grating, or hybrid spectrometer.
Sampling: TRANSMISSION
Path length: 0.005 CM
Resolution: 4
Origin: WYANDOTTE CHEMICALS CORP., WYANDOTTE, MICHIGAN, USA
MICROMETERS	TRANSMITTANCE
2.037	0.993
2.0741	0.996
2.11121	0.996
2.14831	0.995
2.18542	0.936
2.22252	0.806
2.25962	0.803
2.29673	0.831
2.33383	0.837
2.37094	0.851
2.40804	0.894
2.44515	0.933
2.48225	0.942
2.51935	0.962
2.55646	0.992
2.59356	0.987
2.63067	0.987
2.66777	0.99
2.70487	0.979
2.74198	0.959
2.77908	0.953
2.81619	0.919
2.85329	0.893
2.89039	0.871
2.9275	0.854
2.9646	0.821
3.00171	0.81
3.03881	0.818
3.07592	0.831
3.11302	0.817
3.15012	0.804
3.18723	0.798
3.22433	0.773
3.26144	0.674
3.29854	0.491
3.33564	0.106
3.37275	0.032
3.40985	0.032
3.44696	0.034
3.48406	0.035
3.52116	0.037
3.55827	0.093
3.59537	0.412
3.63248	0.672
3.66958	0.666
3.70669	0.815
3.74379	0.824
3.78089	0.823
3.818	0.8
3.8551	0.869
3.89221	0.846
3.92931	0.961
3.96641	1.009
4.00352	1.01
4.04062	1.012
4.07773	1.015
4.11483	1.015
4.15193	1.015
4.18904	1.012
4.22614	1.015
4.26325	1.013
4.30035	1.015
4.33746	1.017
4.37456	1.015
4.41166	1.015
4.44877	1.017
4.48587	1.02
4.52298	1.017
4.56008	1.007
4.59718	0.998
4.63429	1.006
4.67139	1
4.7085	1.007
4.7456	1.01
4.7827	1.006
4.81981	1.01
4.85691	1.01
4.89402	1.004
4.93112	0.992
4.96823	0.996
5.00533	1.007
5.04243	1.012
5.07954	1.01
5.11664	1.012
5.15375	1.009
5.19085	1.001
5.22795	1
5.26506	1.006
5.30216	1.007
5.33927	1.003
5.37637	1.003
5.41347	1
5.45058	1.003
5.48768	1.007
5.52479	1.007
5.56189	1.007
5.599	1.007
5.6361	1.003
5.6732	0.992
5.71031	0.967
5.74741	0.933
5.78452	0.919
5.82162	0.903
5.85872	0.905
5.89583	0.905
5.93293	0.893
5.97004	0.863
6.00714	0.863
6.04424	0.858
6.08135	0.82
6.11845	0.818
6.15556	0.778
6.19266	0.717
6.22977	0.607
6.26687	0.496
6.30397	0.322
6.34108	0.147
6.37818	0.167
6.41529	0.359
6.45239	0.537
6.48949	0.601
6.5266	0.649
6.5637	0.654
6.60081	0.617
6.63791	0.564
6.67501	0.502
6.71212	0.392
6.74922	0.251
6.78633	0.046
6.82343	0.038
6.86054	0.037
6.89764	0.069
6.93474	0.128
6.97185	0.162
7.00895	0.142
7.04606	0.187
7.08316	0.358
7.12026	0.474
7.15737	0.497
7.19447	0.435
7.23158	0.156
7.26868	0.11
7.30578	0.427
7.34289	0.488
7.37999	0.262
7.4171	0.342
7.4542	0.173
7.49131	0.269
7.52841	0.491
7.56551	0.672
7.60262	0.696
7.63972	0.669
7.67683	0.582
7.71393	0.361
7.75103	0.145
7.78814	0.274
7.82524	0.455
7.86235	0.531
7.89945	0.502
7.93655	0.409
7.97366	0.195
8.01076	0.071
8.04787	0.282
8.08497	0.62
8.12208	0.737
8.15918	0.79
8.19628	0.813
8.23339	0.817
8.27049	0.798
8.3076	0.742
8.3447	0.61
8.3818	0.477
8.41891	0.28
8.45601	0.246
8.49312	0.353
8.53022	0.351
8.56732	0.398
8.60443	0.472
8.64153	0.395
8.67864	0.333
8.71574	0.443
8.75285	0.679
8.78995	0.798
8.82705	0.849
8.86416	0.872
8.90126	0.879
8.93837	0.868
8.97547	0.855
9.01257	0.855
9.04968	0.844
9.08678	0.809
9.12389	0.758
9.16099	0.674
9.19809	0.542
9.2352	0.435
9.2723	0.322
9.30941	0.293
9.34651	0.365
9.38362	0.528
9.42072	0.613
9.45782	0.658
9.49493	0.624
9.53203	0.506
9.56914	0.406
9.60624	0.393
9.64334	0.491
9.68045	0.573
9.71755	0.559
9.75466	0.516
9.79176	0.489
9.82886	0.497
9.86597	0.527
9.90307	0.539
9.94018	0.506
9.97728	0.457
10.0144	0.483
10.0515	0.531
10.0886	0.548
10.1257	0.584
10.1628	0.634
10.1999	0.686
10.237	0.728
10.2741	0.734
10.3112	0.72
10.3483	0.646
10.3854	0.519
10.4225	0.361
10.4596	0.322
10.4967	0.477
10.5338	0.637
10.5709	0.724
10.6081	0.773
10.6452	0.804
10.6823	0.84
10.7194	0.869
10.7565	0.882
10.7936	0.889
10.8307	0.893
10.8678	0.879
10.9049	0.858
10.942	0.817
10.9791	0.753
11.0162	0.71
11.0533	0.725
11.0904	0.778
11.1275	0.796
11.1646	0.789
11.2017	0.736
11.2388	0.669
11.2759	0.635
11.313	0.539
11.3501	0.417
11.3872	0.317
11.4243	0.289
11.4614	0.272
11.4985	0.3
11.5357	0.319
11.5728	0.306
11.6099	0.322
11.647	0.424
11.6841	0.55
11.7212	0.66
11.7583	0.724
11.7954	0.768
11.8325	0.773
11.8696	0.768
11.9067	0.762
11.9438	0.762
11.9809	0.772
12.018	0.818
12.0551	0.86
12.0922	0.889
12.1293	0.914
12.1664	0.933
12.2035	0.941
12.2406	0.948
12.2777	0.958
12.3148	0.956
12.3519	0.961
12.389	0.964
12.4262	0.964
12.4633	0.967
12.5004	0.959
12.5375	0.951
12.5746	0.924
12.6117	0.9
12.6488	0.882
12.6859	0.851
12.723	0.835
12.7601	0.827
12.7972	0.827
12.8343	0.815
12.8714	0.772
12.9085	0.722
12.9456	0.693
12.9827	0.683
13.0198	0.658
13.0569	0.663
13.094	0.705
13.1311	0.739
13.1682	0.761
13.2053	0.755
13.2424	0.719
13.2795	0.658
13.3167	0.576
13.3538	0.505
13.3909	0.477
13.428	0.522
13.4651	0.609
13.5022	0.669
13.5393	0.719
13.5764	0.761
13.6135	0.786
13.6506	0.795
13.6877	0.804
13.7248	0.806
13.7619	0.804
13.799	0.789
13.8361	0.765
13.8732	0.733
13.9103	0.7
13.9474	0.654
13.9845	0.606
14.0216	0.542
14.0587	0.483
14.0958	0.423
14.1329	0.372
14.17	0.342
14.2072	0.313
14.2443	0.293
14.2814	0.274
14.3185	0.252
14.3556	0.234
14.3927	0.223
14.4298	0.196
14.4669	0.187
14.504	0.192
14.5411	0.203
14.5782	0.213
14.6153	0.234
14.6524	0.258
14.6895	0.285
14.7266	0.319
14.7637	0.353
14.8008	0.384
14.8379	0.412
14.875	0.427
14.9121	0.429
14.9492	0.431
14.9863	0.434
15.0234	0.451
15.0605	0.468
15.0976	0.48
15.1348	0.482
15.1719	0.483
15.209	0.491
15.2461	0.5
15.2832	0.51
15.3203	0.508
15.3574	0.508
15.3945	0.513
15.4316	0.517
15.4687	0.525
15.5058	0.541
15.5429	0.551
15.58	0.562
15.6171	0.584
15.6542	0.592
15.6913	0.609
15.7284	0.62
15.7655	0.627
15.8026	0.632
15.8397	0.638
15.8768	0.644
15.9139	0.641
15.951	0.641
15.9881	0.644
