Infrared Spectrum: TRIDECANE NITRILE
Formula: C13 H25 N
CAS: 629-60-7
State: LIQUID
Melting point: 8-9 C
Class: COBLENTZ
Instrument: Not specified, most likely a prism, grating, or hybrid spectrometer.
Sampling: TRANSMISSION
Path length: 0.003 CM
Resolution: 4
Origin: WYANDOTTE CHEMICALS CORP., WYANDOTTE, MICHIGAN, USA
MICROMETERS	TRANSMITTANCE
2.063	0.981
2.10294	0.981
2.14288	0.986
2.18282	0.966
2.22277	0.943
2.26271	0.931
2.30265	0.93
2.34259	0.918
2.38253	0.926
2.42247	0.933
2.46242	0.941
2.50236	0.943
2.5423	0.951
2.58224	0.956
2.62218	0.956
2.66212	0.963
2.70207	0.966
2.74201	0.981
2.78195	0.975
2.82189	0.963
2.86183	0.963
2.90177	0.966
2.94172	0.97
2.98166	0.973
3.0216	0.973
3.06154	0.968
3.10148	0.955
3.14142	0.953
3.18136	0.935
3.22131	0.916
3.26125	0.88
3.30119	0.773
3.34113	0.379
3.38107	0.031
3.42101	0.043
3.46096	0.103
3.5009	0.099
3.54084	0.512
3.58078	0.768
3.62072	0.843
3.66066	0.863
3.70061	0.875
3.74055	0.87
3.78049	0.888
3.82043	0.901
3.86037	0.915
3.90031	0.925
3.94025	0.95
3.9802	0.955
4.02014	0.955
4.06008	0.956
4.10002	0.961
4.13996	0.956
4.1799	0.955
4.21985	0.955
4.25979	0.963
4.29973	0.975
4.33967	0.98
4.37961	0.971
4.41955	0.953
4.4595	0.94
4.49944	0.742
4.53938	0.83
4.57932	0.961
4.61926	0.965
4.6592	0.958
4.69915	0.966
4.73909	0.975
4.77903	0.976
4.81897	0.98
4.85891	0.98
4.89885	0.976
4.93879	0.973
4.97874	0.97
5.01868	0.971
5.05862	0.966
5.09856	0.981
5.1385	0.973
5.17844	0.98
5.21839	0.98
5.25833	0.98
5.29827	0.973
5.33821	0.981
5.37815	0.98
5.41809	0.976
5.45804	0.973
5.49798	0.975
5.53792	0.976
5.57786	0.971
5.6178	0.976
5.65774	0.973
5.69768	0.971
5.73763	0.965
5.77757	0.955
5.81751	0.965
5.85745	0.968
5.89739	0.97
5.93733	0.968
5.97728	0.968
6.01722	0.965
6.05716	0.958
6.0971	0.955
6.13704	0.953
6.17698	0.956
6.21693	0.955
6.25687	0.953
6.29681	0.951
6.33675	0.955
6.37669	0.953
6.41663	0.951
6.45658	0.951
6.49652	0.94
6.53646	0.928
6.5764	0.913
6.61634	0.893
6.65628	0.871
6.69622	0.803
6.73617	0.56
6.77611	0.174
6.81605	0.311
6.85599	0.472
6.89593	0.54
6.93587	0.56
6.97582	0.527
7.01576	0.752
7.0557	0.835
7.09564	0.855
7.13558	0.865
7.17552	0.825
7.21547	0.667
7.25541	0.71
7.29535	0.763
7.33529	0.772
7.37523	0.773
7.41517	0.81
7.45511	0.825
7.49506	0.815
7.535	0.836
7.57494	0.835
7.61488	0.816
7.65482	0.82
7.69476	0.841
7.73471	0.85
7.77465	0.86
7.81459	0.863
7.85453	0.866
7.89447	0.871
7.93441	0.876
7.97436	0.873
8.0143	0.878
8.05424	0.888
8.09418	0.888
8.13412	0.89
8.17406	0.88
8.21401	0.89
8.25395	0.893
8.29389	0.896
8.33383	0.903
8.37377	0.906
8.41371	0.915
8.45365	0.913
8.4936	0.915
8.53354	0.916
8.57348	0.916
8.61342	0.923
8.65336	0.928
8.6933	0.938
8.73325	0.95
8.77319	0.953
8.81313	0.923
8.85307	0.871
8.89301	0.865
8.93295	0.893
8.9729	0.908
9.01284	0.915
9.05278	0.911
9.09272	0.895
9.13266	0.881
9.1726	0.873
9.21254	0.871
9.25249	0.873
9.29243	0.873
9.33237	0.878
9.37231	0.876
9.41225	0.881
9.45219	0.881
9.49214	0.895
9.53208	0.895
9.57202	0.901
9.61196	0.905
9.6519	0.906
9.69184	0.903
9.73179	0.905
9.77173	0.905
9.81167	0.906
9.85161	0.908
9.89155	0.913
9.93149	0.915
9.97144	0.915
10.0114	0.918
10.0513	0.921
10.0913	0.923
10.1312	0.925
10.1711	0.925
10.2111	0.925
10.251	0.923
10.291	0.925
10.3309	0.925
10.3709	0.921
10.4108	0.915
10.4507	0.915
10.4907	0.913
10.5306	0.91
10.5706	0.905
10.6105	0.913
10.6504	0.908
10.6904	0.903
10.7303	0.905
10.7703	0.905
10.8102	0.898
10.8502	0.903
10.8901	0.905
10.93	0.901
10.97	0.901
11.0099	0.9
11.0499	0.903
11.0898	0.903
11.1297	0.901
11.1697	0.895
11.2096	0.886
11.2496	0.89
11.2895	0.896
11.3294	0.901
11.3694	0.903
11.4093	0.91
11.4493	0.903
11.4892	0.908
11.5292	0.916
11.5691	0.916
11.609	0.91
11.649	0.915
11.6889	0.903
11.7289	0.911
11.7688	0.905
11.8087	0.9
11.8487	0.9
11.8886	0.903
11.9286	0.903
11.9685	0.901
12.0085	0.905
12.0484	0.91
12.0883	0.913
12.1283	0.92
12.1682	0.921
12.2082	0.92
12.2481	0.92
12.288	0.921
12.328	0.921
12.3679	0.921
12.4079	0.916
12.4478	0.923
12.4878	0.921
12.5277	0.915
12.5676	0.915
12.6076	0.916
12.6475	0.915
12.6875	0.913
12.7274	0.905
12.7673	0.9
12.8073	0.901
12.8472	0.9
12.8872	0.895
12.9271	0.888
12.9671	0.891
13.007	0.888
13.0469	0.885
13.0869	0.885
13.1268	0.878
13.1668	0.871
13.2067	0.866
13.2466	0.863
13.2866	0.851
13.3265	0.856
13.3665	0.845
13.4064	0.838
13.4464	0.83
13.4863	0.821
13.5262	0.818
13.5662	0.8
13.6061	0.785
13.6461	0.773
13.686	0.742
13.7259	0.712
13.7659	0.672
13.8058	0.627
13.8458	0.602
13.8857	0.615
13.9257	0.655
13.9656	0.707
14.0055	0.758
14.0455	0.792
14.0854	0.83
14.1254	0.85
14.1653	0.873
14.2052	0.893
14.2452	0.901
14.2851	0.911
14.3251	0.923
14.365	0.931
14.405	0.936
14.4449	0.938
14.4848	0.943
14.5248	0.94
14.5647	0.94
14.6047	0.941
14.6446	0.95
14.6845	0.946
14.7245	0.943
14.7644	0.946
14.8044	0.948
14.8443	0.95
14.8843	0.943
14.9242	0.941
14.9641	0.935
15.0041	0.925
15.044	0.916
15.084	0.931
15.1239	0.931
15.1638	0.935
15.2038	0.935
15.2437	0.928
15.2837	0.926
15.3236	0.928
15.3635	0.925
15.4035	0.916
15.4434	0.905
15.4834	0.903
15.5233	0.905
15.5633	0.905
15.6032	0.9
15.6431	0.901
15.6831	0.898
15.723	0.895
15.763	0.883
15.8029	0.88
15.8428	0.878
15.8828	0.875
15.9227	0.863
15.9627	0.863
16.0026	0.856
