Infrared Spectrum: 1,2-Ethylenedithiocyanate
Formula: C 4 H 4 N 2 S 2
CAS: 629-17-4
State: gas
Origin: EPA-IR VAPOR PHASE LIBRARY
1/CM	ABSORBANCE
549.9	0.00041007
559.547	0.0007387
569.193	0.000839
578.84	0.0010152
588.486	0.0009808
598.133	0.001354
607.779	0.0012739
617.426	0.0011984
627.072	0.0012756
636.719	0.001354
646.365	0.001374
656.012	0.001704
665.658	0.002074
675.305	0.002574
684.951	0.003624
694.598	0.003224
704.245	0.001344
713.891	0.0010733
723.538	0.0010496
733.184	0.0012753
742.831	0.001584
752.477	0.001694
762.124	0.001704
771.77	0.001794
781.417	0.001804
791.063	0.001394
800.71	0.0011163
810.356	0.0010626
820.003	0.0010033
829.649	0.0010047
839.296	0.001554
848.943	0.002694
858.589	0.002684
868.236	0.001864
877.882	0.0013022
887.529	0.0012696
897.175	0.001404
906.822	0.001764
916.468	0.001874
926.115	0.001584
935.761	0.0010899
945.408	0.000872
955.054	0.0008354
964.701	0.000766
974.347	0.0007252
983.994	0.0005872
993.64	0.000607
1003.29	0.0006351
1012.93	0.0006706
1022.58	0.0007181
1032.23	0.0006198
1041.87	0.0006077
1051.52	0.0005803
1061.17	0.0006579
1070.81	0.0006851
1080.46	0.000707
1090.11	0.0006891
1099.75	0.0008307
1109.4	0.0010126
1119.05	0.001434
1128.69	0.002304
1138.34	0.002404
1147.99	0.001734
1157.63	0.001213
1167.28	0.0008898
1176.92	0.0011113
1186.57	0.0011426
1196.22	0.001974
1205.86	0.004504
1215.51	0.006834
1225.16	0.004934
1234.8	0.002604
1244.45	0.002804
1254.1	0.003864
1263.74	0.006104
1273.39	0.008144
1283.04	0.007964
1292.68	0.005384
1302.33	0.002714
1311.98	0.001794
1321.62	0.0012195
1331.27	0.0009968
1340.92	0.0008459
1350.56	0.0007405
1360.21	0.0007571
1369.86	0.0008199
1379.5	0.0008068
1389.15	0.0010523
1398.79	0.001424
1408.44	0.002754
1418.09	0.004674
1427.73	0.005754
1437.38	0.004724
1447.03	0.002744
1456.67	0.001464
1466.32	0.0010332
1475.97	0.0007466
1485.61	0.0007255
1495.26	0.0007545
1504.91	0.0006627
1514.55	0.0006305
1524.2	0.0006729
1533.85	0.0005849
1543.49	0.0005689
1553.14	0.0006005
1562.79	0.0005151
1572.43	0.0005553
1582.08	0.0005945
1591.73	0.0006561
1601.37	0.0005591
1611.02	0.0005599
1620.67	0.0005588
1630.31	0.0004444
1639.96	0.0005025
1649.6	0.0005322
1659.25	0.0005458
1668.9	0.000526
1678.54	0.0004452
1688.19	0.0004967
1697.84	0.0004626
1707.48	0.0004662
1717.13	0.0004946
1726.78	0.0005496
1736.42	0.0004389
1746.07	0.0004843
1755.72	0.0004456
1765.36	0.0004418
1775.01	0.00042855
1784.66	0.0004801
1794.3	0.0004829
1803.95	0.00042671
1813.6	0.00039998
1823.24	0.00040732
1832.89	0.00041083
1842.54	0.0004382
1852.18	0.00041717
1861.83	0.00038164
1871.47	0.00042133
1881.12	0.00040701
1890.77	0.00040413
1900.41	0.0004353
1910.06	0.00038022
1919.71	0.00042533
1929.35	0.0005286
1939	0.0005339
1948.65	0.0004958
1958.29	0.0006118
1967.94	0.0005598
1977.59	0.0005324
1987.23	0.0005912
1996.88	0.0005019
2006.53	0.000471
2016.17	0.0004859
2025.82	0.00038122
2035.47	0.00038929
2045.11	0.00037571
2054.76	0.00042146
2064.41	0.00035663
2074.05	0.000341423
2083.7	0.00037565
2093.35	0.00039418
2102.99	0.00043158
2112.64	0.0005423
2122.28	0.0005813
2131.93	0.0007823
2141.58	0.001424
2151.22	0.003424
2160.87	0.006804
2170.52	0.006224
2180.16	0.002094
2189.81	0.0008586
2199.46	0.0005415
2209.1	0.00036551
2218.75	0.00035982
2228.4	0.0003141
2238.04	0.0002858
2247.69	0.000285
2257.34	0.0003004
2266.98	0.00038534
2276.63	0.0003121
2286.28	0.0003194
2295.92	0.0003074
2305.57	0.0003021
2315.22	0.0002963
2324.86	0.000341966
2334.51	0.0003036
2344.16	0.0003117
2353.8	0.0002494
2363.45	0.0002745
2373.09	0.0002964
2382.74	0.0003197
2392.39	0.00032613
2402.03	0.00035723
2411.68	0.00036428
2421.33	0.0003112
2430.97	0.0003183
2440.62	0.000278
2450.27	0.0002769
2459.91	0.0002559
2469.56	0.0002398
2479.21	0.0002627
2488.85	0.000232
2498.5	0.000205
2508.15	0.0002391
2517.79	0.000286
2527.44	0.0003206
2537.09	0.0004763
2546.73	0.0004608
2556.38	0.000492
2566.03	0.0002509
2575.67	0.000207
2585.32	0.000203
2594.96	0.000178
2604.61	0.0002557
2614.26	0.000202
2623.9	0.000231
2633.55	0.000185
2643.2	0.000178
2652.84	0.000208
2662.49	9.6e-05
2672.14	0.000142
2681.78	0.000211
2691.43	0.000175
2701.08	0.000171
2710.72	0
2720.37	0.000268
2730.02	0.000172
2739.66	0.000197
2749.31	5.9e-05
2758.96	6.5e-05
2768.6	1.9e-05
2778.25	0.000132
2787.9	2.9e-05
2797.54	0.000151
2807.19	0.00023
2816.84	0.00036907
2826.48	0.0004806
2836.13	0.0005988
2845.77	0.0006646
2855.42	0.0006578
2865.07	0.0005137
2874.71	0.00036895
2884.36	0.0002937
2894.01	0.000188
2903.65	0.0003148
2913.3	0.00039691
2922.95	0.0006978
2932.59	0.0012384
2942.24	0.001834
2951.89	0.001774
2961.53	0.0013112
2971.18	0.0008525
2980.83	0.0007205
2990.47	0.0006022
3000.12	0.0006754
3009.77	0.000455
3019.41	0.0003103
3029.06	0.00037215
3038.71	0.000484
3048.35	0.000222
3058	0.00039718
3067.64	0.00015
3077.29	0.000184
3086.94	0.0003214
3096.58	0.0004971
3106.23	0.00037586
3115.88	0.00043222
3125.52	0.0004982
3135.17	0.0004352
3144.82	0.000519
3154.46	0.0005232
3164.11	0.0005705
3173.76	0.0007259
3183.4	0.0006539
3193.05	0.0006097
3202.7	0.0006854
3212.34	0.0005978
3221.99	0.0006958
3231.64	0.0005655
3241.28	0.0007157
3250.93	0.000879
3260.58	0.0010611
3270.22	0.0007615
3279.87	0.0010231
3289.52	0.000899
3299.16	0.0007367
3308.81	0.0009624
3318.45	0.0009778
3328.1	0.0011024
3337.75	0.0010025
3347.39	0.0008639
3357.04	0.0011526
3366.69	0.0009278
3376.33	0.0008115
3385.98	0.0007974
3395.63	0.0009552
3405.27	0.0011061
3414.92	0.0009719
3424.57	0.000893
3434.21	0.0009187
3443.86	0.0010055
3453.51	0.0008679
3463.15	0.0008514
3472.8	0.0011195
3482.45	0.0010671
3492.09	0.0009437
3501.74	0.0009072
3511.39	0.00097
3521.03	0.0009591
3530.68	0.0007337
3540.33	0.0009442
3549.97	0.0008942
3559.62	0.0008412
3569.26	0.0008409
3578.91	0.0008959
3588.56	0.0009623
3598.2	0.0009024
3607.85	0.0010697
3617.5	0.0009318
3627.14	0.00083
3636.79	0.0007723
3646.44	0.0008949
3656.08	0.0007199
3665.73	0.0007794
3675.38	0.0006914
3685.02	0.0007602
3694.67	0.0008712
3704.32	0.0009021
3713.96	0.0009306
3723.61	0.0008892
3733.26	0.000724
3742.9	0.0008587
3752.55	0.0007844
3762.2	0.0008271
3771.84	0.0008471
3781.49	0.0006444
3791.13	0.0008185
3800.78	0.0006479
3810.43	0.00055
3820.07	0.000645
3829.72	0.0006861
3839.37	0.0005912
3849.01	0.0004963
3858.66	0.0008003
3868.31	0.0006094
3877.95	0.0006019
3887.6	0.0006188
3897.25	0.0006811
3906.89	0.0007389
3916.54	0.0004787
3926.19	0.0006345
3935.83	0.000678
3945.48	0.0004897
3955.13	0.0006529
3964.77	0.000538
3974.42	0.0006429
3984.07	0.0006805
3993.71	0.0005254
