Infrared Spectrum: 1,3,5,7-Cyclooctatetraene
Formula: C 8 H 8
CAS: 629-20-9
State: gas
Instrument: HP-GC/MS/IRD
Origin: NIST Mass Spectrometry Data Center
1/CM	ABSORBANCE
550	0.0002116
562	0.0001265
574	0.0002668
586	0.0005106
598	0.0012788
610	0.0039928
622	0.0061042
634	0.0057362
646	0.0055016
658	0.009936
670	0.0177652
682	0.0091264
694	0.0033626
706	0.0005727
718	0.0002438
730	0.0002438
742	0.000184
754	0.0002231
766	0.0004071
778	0.0023966
790	0.0047518
802	0.0062192
814	0.0045011
826	0.000828
838	0.0002323
850	0.0001127
862	0.0001288
874	0.000138
886	8.97e-05
898	9.2e-05
910	9.43e-05
922	0.0001771
934	0.0003634
946	0.0004991
958	0.0004738
970	0.0003703
982	0.0002967
994	0.0002323
1006	0.0001449
1018	0.0002323
1030	0.0002645
1042	0.00023
1054	0.0001058
1066	3.68e-05
1078	4.37e-05
1090	5.29e-05
1102	6.44e-05
1114	5.75e-05
1126	6.9e-06
1138	2.07e-05
1150	5.98e-05
1162	5.06e-05
1174	0.0001104
1186	0.0001886
1198	0.0003082
1210	0.0005543
1222	0.0006578
1234	0.0004002
1246	0.0001794
1258	8.74e-05
1270	0.0001104
1282	6.67e-05
1294	8.51e-05
1306	9.43e-05
1318	7.59e-05
1330	7.36e-05
1342	6.21e-05
1354	5.29e-05
1366	2.53e-05
1378	8.05e-05
1390	0.000115
1402	0.0001058
1414	0.0001035
1426	8.28e-05
1438	4.83e-05
1450	8.05e-05
1462	0.0001035
1474	8.28e-05
1486	3.45e-05
1498	7.82e-05
1510	7.82e-05
1522	8.05e-05
1534	9.66e-05
1546	0.0001587
1558	0.0002438
1570	0.0003128
1582	0.0003588
1594	0.0004462
1606	0.0006095
1618	0.0008671
1630	0.0013294
1642	0.0012052
1654	0.0005313
1666	0.0002116
1678	0.0001541
1690	0.0001909
1702	0.0003749
1714	0.0005014
1726	0.0005313
1738	0.0006118
1750	0.0005566
1762	0.0003128
1774	0.0002622
1786	0.0001955
1798	0.0001518
1810	9.89e-05
1822	0.0002047
1834	0.0002553
1846	0.000276
1858	0.000184
1870	0.0001633
1882	0.0001288
1894	0.0001955
1906	0.0002806
1918	0.0002668
1930	0.0002047
1942	0.0001173
1954	8.74e-05
1966	7.36e-05
1978	0.0001196
1990	0.0001196
2002	0.0001633
2014	0.0001242
2026	5.75e-05
2038	4.83e-05
2050	5.06e-05
2062	4.6e-05
2074	3.91e-05
2086	3.91e-05
2098	3.68e-05
2110	5.06e-05
2122	5.98e-05
2134	6.9e-05
2146	6.67e-05
2158	8.74e-05
2170	5.29e-05
2182	4.83e-05
2194	3.22e-05
2206	6.9e-05
2218	3.68e-05
2230	4.37e-05
2242	6.67e-05
2254	4.6e-05
2266	4.83e-05
2278	9.89e-05
2290	0.0001058
2302	0.0001219
2314	0.0001081
2326	7.36e-05
2338	0.0001058
2350	0.0001035
2362	8.74e-05
2374	6.9e-05
2386	0.0001173
2398	6.21e-05
2410	8.51e-05
2422	0.0001288
2434	0.0001219
2446	7.82e-05
2458	6.21e-05
2470	3.68e-05
2482	0
2494	2.99e-05
2506	2.3e-05
2518	2.53e-05
2530	5.06e-05
2542	2.76e-05
2554	4.37e-05
2566	2.53e-05
2578	8.05e-05
2590	6.44e-05
2602	5.52e-05
2614	6.67e-05
2626	5.06e-05
2638	4.6e-05
2650	3.22e-05
2662	1.61e-05
2674	3.45e-05
2686	4.37e-05
2698	6.21e-05
2710	5.98e-05
2722	9.89e-05
2734	0.0001564
2746	0.00023
2758	0.0002369
2770	0.0001955
2782	0.0001863
2794	0.0001656
2806	0.0002277
2818	0.0003427
2830	0.0004623
2842	0.0003059
2854	0.0001702
2866	0.0001058
2878	0.0001012
2890	0.0001288
2902	0.0001725
2914	0.000184
2926	0.0002668
2938	0.0005152
2950	0.0010074
2962	0.0011776
2974	0.0012604
2986	0.0033143
2998	0.011822
3010	0.023
3022	0.0185058
3034	0.0074635
3046	0.0025093
3058	0.0015088
3070	0.0009292
3082	0.000598
3094	0.0003588
3106	0.0001633
3118	0.0002231
3130	0.000138
3142	0.0001633
3154	0.0001288
3166	0.0001127
3178	0.0001127
3190	0.0001587
3202	0.0001012
3214	0.0001288
3226	0.0001265
3238	0.0002047
3250	0.0002185
3262	0.0001886
3274	0.0001334
3286	0.0001104
3298	9.89e-05
3310	6.21e-05
3322	6.9e-05
3334	4.83e-05
3346	4.14e-05
3358	4.83e-05
3370	7.59e-05
3382	8.28e-05
3394	9.89e-05
3406	8.05e-05
3418	0.0001127
3430	0.0001035
3442	5.06e-05
3454	9.2e-05
3466	5.98e-05
3478	2.76e-05
3490	5.29e-05
3502	2.3e-05
3514	0
3526	4.14e-05
3538	3.22e-05
3550	7.36e-05
3562	8.74e-05
3574	2.99e-05
3586	0.0001012
3598	0.0001081
3610	9.43e-05
3622	0.0001288
3634	0.0001587
3646	0.0001564
3658	0.0001702
3670	0.0001426
3682	0.0001771
3694	0.0001403
3706	4.6e-05
3718	3.91e-05
3730	0.0001196
3742	0.0001288
3754	2.76e-05
3766	0.0001219
3778	6.67e-05
3790	7.36e-05
3802	7.36e-05
3814	6.44e-05
3826	0.000115
3838	0.0001012
