Infrared Spectrum: 1-Pentane isothiocyanate
Formula: C 8 H 16 N 2
CAS: 629-12-9
State: gas
Origin: EPA-IR VAPOR PHASE LIBRARY
1/CM	ABSORBANCE
549.8	0.01259
559.445	0.01201
569.09	0.0107
578.734	0.00925
588.379	0.00705
598.024	0.00553
607.669	0.00457
617.313	0.00388
626.958	0.00335
636.603	0.00314
646.248	0.00351
655.893	0.00433
665.537	0.0043
675.182	0.004
684.827	0.00443
694.472	0.00591
704.116	0.00687
713.761	0.00662
723.406	0.00656
733.051	0.00712
742.695	0.00701
752.34	0.00525
761.985	0.00383
771.63	0.00318
781.275	0.00312
790.919	0.00269
800.564	0.00278
810.209	0.00175
819.854	0.00128
829.498	0.0016
839.143	0.00189
848.788	0.00167
858.433	0.00163
868.078	0.00131
877.722	0.00156
887.367	0.00163
897.012	0.00229
906.657	0.00305
916.301	0.00407
925.946	0.00525
935.591	0.00546
945.236	0.00452
954.88	0.00386
964.525	0.00338
974.17	0.00393
983.815	0.00454
993.46	0.00477
1003.1	0.00454
1012.75	0.0043
1022.39	0.00371
1032.04	0.00364
1041.68	0.00354
1051.33	0.00326
1060.97	0.00369
1070.62	0.00376
1080.26	0.00375
1089.91	0.00473
1099.55	0.00487
1109.2	0.00483
1118.84	0.00481
1128.49	0.0043
1138.13	0.00285
1147.78	0.00352
1157.42	0.00322
1167.07	0.00286
1176.71	0.00327
1186.36	0.00347
1196	0.00366
1205.64	0.00409
1215.29	0.00423
1224.93	0.00429
1234.58	0.00447
1244.22	0.00543
1253.87	0.00548
1263.51	0.00555
1273.16	0.00636
1282.8	0.00832
1292.45	0.01171
1302.09	0.0144
1311.74	0.01712
1321.38	0.02084
1331.03	0.02988
1340.67	0.05114
1350.32	0.06254
1359.96	0.0495
1369.61	0.03054
1379.25	0.0188
1388.9	0.01259
1398.54	0.00835
1408.18	0.00606
1417.83	0.00591
1427.47	0.00753
1437.12	0.01161
1446.76	0.02081
1456.41	0.03586
1466.05	0.0365
1475.7	0.01815
1485.34	0.00887
1494.99	0.00536
1504.63	0.00377
1514.28	0.00291
1523.92	0.00225
1533.57	0.00192
1543.21	0.00181
1552.86	0.00142
1562.5	0.00141
1572.15	0.00129
1581.79	0.00137
1591.44	0.00134
1601.08	0.00123
1610.73	0.00127
1620.37	0.0011729
1630.01	0.0011527
1639.66	0.0011625
1649.3	0.0011076
1658.95	0.0011201
1668.59	0.0010137
1678.24	0.0010503
1687.88	0.0010717
1697.53	0.0010746
1707.17	0.0010357
1716.82	0.000982
1726.46	0.0010814
1736.11	0.0010541
1745.75	0.0011437
1755.4	0.00125
1765.04	0.0011806
1774.69	0.001194
1784.33	0.00123
1793.98	0.00123
1803.62	0.00125
1813.27	0.00137
1822.91	0.00151
1832.55	0.00171
1842.2	0.00199
1851.84	0.00242
1861.49	0.00284
1871.13	0.00354
1880.78	0.00443
1890.42	0.00546
1900.07	0.00696
1909.71	0.00878
1919.36	0.01109
1929	0.01393
1938.65	0.01752
1948.29	0.02214
1957.94	0.02831
1967.58	0.03682
1977.23	0.04848
1986.87	0.06439
1996.52	0.08642
2006.16	0.11679
2015.81	0.15787
2025.45	0.21257
2035.1	0.2841
2044.74	0.36383
2054.38	0.42542
2064.03	0.4385
2073.67	0.39256
2083.32	0.30529
2092.96	0.21997
2102.61	0.1644
2112.25	0.13364
2121.9	0.11293
2131.54	0.09672
2141.19	0.08522
2150.83	0.07771
2160.48	0.0721
2170.12	0.06746
2179.77	0.06394
2189.41	0.05957
2199.06	0.0531
2208.7	0.04557
2218.35	0.03788
2227.99	0.02935
2237.64	0.02195
2247.28	0.01674
2256.92	0.01306
2266.57	0.01025
2276.21	0.00807
2285.86	0.00655
2295.5	0.0054
2305.15	0.00458
2314.79	0.004
2324.44	0.00335
2334.08	0.00295
2343.73	0.00267
2353.37	0.00238
2363.02	0.00219
2372.66	0.00201
2382.31	0.0018
2391.95	0.00167
2401.6	0.00155
2411.24	0.00143
2420.89	0.00139
2430.53	0.00142
2440.18	0.00147
2449.82	0.00144
2459.47	0.00142
2469.11	0.00155
2478.75	0.00149
2488.4	0.00152
2498.04	0.0016
2507.69	0.00154
2517.33	0.00155
2526.98	0.00175
2536.62	0.00187
2546.27	0.00179
2555.91	0.00212
2565.56	0.0024
2575.2	0.0025
2584.85	0.00266
2594.49	0.00246
2604.14	0.00227
2613.78	0.00195
2623.43	0.00174
2633.07	0.00179
2642.72	0.00189
2652.36	0.00211
2662.01	0.00258
2671.65	0.00315
2681.29	0.00364
2690.94	0.00421
2700.58	0.00462
2710.23	0.0054
2719.87	0.0066
2729.52	0.00753
2739.16	0.00797
2748.81	0.00746
2758.45	0.00674
2768.1	0.0061
2777.74	0.00559
2787.39	0.00571
2797.03	0.00571
2806.68	0.00616
2816.32	0.00691
2825.97	0.00791
2835.61	0.00992
2845.26	0.01408
2854.9	0.02254
2864.55	0.03527
2874.19	0.04701
2883.84	0.05308
2893.48	0.04834
2903.12	0.04196
2912.77	0.04688
2922.41	0.06311
2932.06	0.08965
2941.7	0.12021
2951.35	0.12597
2960.99	0.11127
2970.64	0.09702
2980.28	0.06396
2989.93	0.03045
2999.57	0.01753
3009.22	0.01175
3018.86	0.00821
3028.51	0.006
3038.15	0.00491
3047.8	0.00417
3057.44	0.00341
3067.09	0.00314
3076.73	0.00293
3086.38	0.00258
3096.02	0.00211
3105.67	0.0022
3115.31	0.00189
3124.95	0.00166
3134.6	0.00131
3144.24	0.00131
3153.89	0.00159
3163.53	0.0010301
3173.18	0.00126
3182.82	0.0011109
3192.47	0.0010202
3202.11	0.0010278
3211.76	0.0007683
3221.4	0.0005024
3231.05	0.0006936
3240.69	0.0004965
3250.34	0.0003839
3259.98	0.00027049
3269.63	0.0004721
3279.27	0.0002473
3288.92	0.00028909
3298.56	0.00019342
3308.21	0.0003164
3317.85	0.0003563
3327.49	0.00021691
3337.14	0.000201506
3346.78	5e-06
3356.43	0.0003286
3366.07	0.00028311
3375.72	0.00021116
3385.36	0.0003201
3395.01	0.0003765
3404.65	0.00022619
3414.3	0.00029417
3423.94	0.0004527
3433.59	0.0004386
3443.23	0.00029147
3452.88	0.0004355
3462.52	0.0003294
3472.17	8.1e-05
3481.81	0.0003311
3491.46	1.8e-05
3501.1	0.0004339
3510.75	9.9e-05
3520.39	0.000200017
3530.04	0.0001473
3539.68	0.000202552
3549.32	0.00025837
3558.97	0.0003702
3568.61	0.00028077
3578.26	0.0003053
3587.9	0.0003021
3597.55	0.0001561
3607.19	0.000252
3616.84	0.00029542
3626.48	0.0004866
3636.13	0.0003779
3645.77	0.0003962
3655.42	0.00024749
3665.06	0.00029764
3674.71	0.0004502
3684.35	0.0003204
3694	0.0004828
3703.64	0.0004942
3713.29	0.0003142
3722.93	0.0005676
3732.58	0.0005262
3742.22	0.0003364
3751.86	0.0004681
3761.51	0.0006983
3771.15	0.0006383
3780.8	0.0004553
3790.44	0.000524
3800.09	0.0004918
3809.73	0.0006184
3819.38	0.0006252
3829.02	0.0004405
3838.67	0.0006516
3848.31	0.0005619
3857.96	0.0006451
3867.6	0.0006351
3877.25	0.000789
3886.89	0.0006865
3896.54	0.0006176
3906.18	0.0006578
3915.83	0.0009461
3925.47	0.0008092
3935.12	0.0010997
3944.76	0.0009831
3954.41	0.0006786
3964.05	0.0009831
3973.69	0.00127
3983.34	0.00145
3992.98	0.00157
