Infrared Spectrum: n-HEPTALDOXIME
Formula: C7 H15 N O
CAS: 629-31-2
State: SOLID (MINERAL OIL MULL)
Melting point: 54-56 C
Class: COBLENTZ
Instrument: Not specified, most likely a prism, grating, or hybrid spectrometer.
Sampling: TRANSMISSION
Resolution: 4
Origin: WYANDOTTE CHEMICALS CORP., WYANDOTTE, MICHIGAN, USA
MICROMETERS	TRANSMITTANCE
2.02	0.973
2.05977	0.978
2.09954	0.97
2.13931	0.978
2.17909	0.951
2.21886	0.93
2.25863	0.925
2.2984	0.936
2.33817	0.935
2.37794	0.95
2.41772	0.955
2.45749	0.963
2.49726	0.96
2.53703	0.975
2.5768	0.965
2.61657	0.973
2.65634	0.996
2.69612	1
2.73589	0.995
2.77566	0.988
2.81543	0.965
2.8552	0.923
2.89497	0.878
2.93475	0.803
2.97452	0.66
3.01429	0.465
3.05406	0.237
3.09383	0.146
3.1336	0.148
3.17337	0.178
3.21315	0.138
3.25292	0.154
3.29269	0.179
3.33246	0.053
3.37223	0.051
3.412	0.051
3.45178	0.053
3.49155	0.066
3.53132	0.159
3.57109	0.259
3.61086	0.356
3.65063	0.435
3.69041	0.527
3.73018	0.6
3.76995	0.66
3.80972	0.707
3.84949	0.722
3.88926	0.767
3.92903	0.793
3.96881	0.815
4.00858	0.838
4.04835	0.841
4.08812	0.853
4.12789	0.858
4.16766	0.863
4.20744	0.838
4.24721	0.826
4.28698	0.87
4.32675	0.905
4.36652	0.921
4.40629	0.92
4.44606	0.905
4.48584	0.921
4.52561	0.921
4.56538	0.911
4.60515	0.896
4.64492	0.886
4.68469	0.921
4.72447	0.943
4.76424	0.948
4.80401	0.945
4.84378	0.948
4.88355	0.953
4.92332	0.953
4.96309	0.945
5.00287	0.945
5.04264	0.943
5.08241	0.953
5.12218	0.955
5.16195	0.946
5.20172	0.95
5.2415	0.938
5.28127	0.945
5.32104	0.94
5.36081	0.935
5.40058	0.926
5.44035	0.911
5.48012	0.908
5.5199	0.918
5.55967	0.9
5.59944	0.906
5.63921	0.913
5.67898	0.895
5.71875	0.856
5.75853	0.888
5.7983	0.876
5.83807	0.846
5.87784	0.823
5.91761	0.758
5.95738	0.439
5.99716	0.642
6.03693	0.77
6.0767	0.772
6.11647	0.765
6.15624	0.747
6.19601	0.75
6.23578	0.752
6.27556	0.747
6.31533	0.74
6.3551	0.722
6.39487	0.69
6.43464	0.67
6.47441	0.658
6.51419	0.65
6.55396	0.658
6.59373	0.635
6.6335	0.56
6.67327	0.482
6.71304	0.384
6.75281	0.101
6.79259	0.083
6.83236	0.106
6.87213	0.121
6.9119	0.224
6.95167	0.42
6.99144	0.489
7.03122	0.477
7.07099	0.637
7.11076	0.678
7.15053	0.675
7.1903	0.534
7.23007	0.367
7.26984	0.47
7.30962	0.505
7.34939	0.594
7.38916	0.612
7.42893	0.444
7.4687	0.291
7.50847	0.409
7.54825	0.304
7.58802	0.322
7.62779	0.574
7.66756	0.672
7.70733	0.717
7.7471	0.737
7.78687	0.758
7.82665	0.768
7.86642	0.78
7.90619	0.801
7.94596	0.818
7.98573	0.82
8.0255	0.823
8.06528	0.828
8.10505	0.845
8.14482	0.803
8.18459	0.638
8.22436	0.821
8.26413	0.84
8.3039	0.853
8.34368	0.866
8.38345	0.87
8.42322	0.876
8.46299	0.881
8.50276	0.876
8.54253	0.87
8.58231	0.881
8.62208	0.866
8.66185	0.871
8.70162	0.883
8.74139	0.895
8.78116	0.89
8.82094	0.798
8.86071	0.851
8.90048	0.88
8.94025	0.881
8.98002	0.85
9.01979	0.858
9.05956	0.873
9.09934	0.871
9.13911	0.861
9.17888	0.831
9.21865	0.777
9.25842	0.635
9.29819	0.432
9.33797	0.597
9.37774	0.677
9.41751	0.652
9.45728	0.725
9.49705	0.69
9.53682	0.775
9.57659	0.813
9.61637	0.825
9.65614	0.833
9.69591	0.835
9.73568	0.83
9.77545	0.843
9.81522	0.85
9.855	0.851
9.89477	0.855
9.93454	0.85
9.97431	0.813
10.0141	0.642
10.0539	0.618
10.0936	0.745
10.1334	0.778
10.1732	0.792
10.2129	0.795
10.2527	0.787
10.2925	0.772
10.3323	0.758
10.372	0.728
10.4118	0.705
10.4516	0.683
10.4913	0.655
10.5311	0.62
10.5709	0.575
10.6107	0.482
10.6504	0.384
10.6902	0.269
10.73	0.174
10.7697	0.133
10.8095	0.144
10.8493	0.153
10.8891	0.171
10.9288	0.251
10.9686	0.336
11.0084	0.434
11.0481	0.485
11.0879	0.472
11.1277	0.309
11.1675	0.447
11.2072	0.595
11.247	0.622
11.2868	0.667
11.3265	0.698
11.3663	0.707
11.4061	0.7
11.4459	0.687
11.4856	0.675
11.5254	0.66
11.5652	0.64
11.6049	0.627
11.6447	0.607
11.6845	0.585
11.7243	0.55
11.764	0.512
11.8038	0.475
11.8436	0.485
11.8833	0.613
11.9231	0.712
11.9629	0.708
12.0027	0.673
12.0424	0.647
12.0822	0.63
12.122	0.612
12.1617	0.602
12.2015	0.592
12.2413	0.594
12.2811	0.605
12.3208	0.62
12.3606	0.645
12.4004	0.658
12.4401	0.687
12.4799	0.702
12.5197	0.718
12.5595	0.74
12.5992	0.752
12.639	0.755
12.6788	0.775
12.7185	0.78
12.7583	0.788
12.7981	0.798
12.8379	0.805
12.8776	0.805
12.9174	0.818
12.9572	0.836
12.9969	0.836
13.0367	0.828
13.0765	0.811
13.1163	0.81
13.156	0.805
13.1958	0.805
13.2356	0.801
13.2753	0.795
13.3151	0.778
13.3549	0.753
13.3947	0.708
13.4344	0.6
13.4742	0.56
13.514	0.6
13.5537	0.658
13.5935	0.678
13.6333	0.648
13.6731	0.587
13.7128	0.557
13.7526	0.582
13.7924	0.544
13.8322	0.394
13.8719	0.269
13.9117	0.267
13.9515	0.354
13.9912	0.369
14.031	0.347
14.0708	0.359
14.1106	0.462
14.1503	0.592
14.1901	0.703
14.2299	0.768
14.2696	0.811
14.3094	0.836
14.3492	0.86
14.389	0.861
14.4287	0.878
14.4685	0.88
14.5083	0.89
14.548	0.885
14.5878	0.898
14.6276	0.886
14.6674	0.901
14.7071	0.893
14.7469	0.901
14.7867	0.9
14.8264	0.898
14.8662	0.898
14.906	0.898
14.9458	0.89
14.9855	0.876
15.0253	0.846
15.0651	0.803
15.1048	0.806
15.1446	0.828
15.1844	0.851
15.2242	0.865
15.2639	0.868
15.3037	0.866
15.3435	0.86
15.3832	0.85
15.423	0.84
15.4628	0.841
15.5026	0.84
15.5423	0.825
15.5821	0.831
15.6219	0.831
15.6616	0.828
15.7014	0.82
15.7412	0.818
15.781	0.803
15.8207	0.805
15.8605	0.79
15.9003	0.788
15.94	0.777
15.9798	0.76
