Infrared Spectrum: 1-Bromopentadecane
Formula: C 15 H 31 Br
CAS: 629-72-1
State: gas
Instrument: HP-GC/MS/IRD
Origin: NIST Mass Spectrometry Data Center
1/CM	ABSORBANCE
550	0.0002738
562	0.0007696
574	0.000814
586	0.0003256
598	2.22e-05
610	5.92e-05
622	0.000148
634	0.000444
646	0.0011692
658	0.0009176
670	0.000222
682	0.0001702
694	0.0003034
706	0.0006808
718	0.0011914
730	0.0011322
742	0.0009028
754	0.00074
766	0.000481
778	0.0003478
790	0.0003108
802	0.0003108
814	0.0002738
826	0.000259
838	0.000185
850	0.000185
862	0.0001998
874	0.0002294
886	0.000222
898	0.0001776
910	0.0001924
922	0.0001332
934	0.000148
946	0.0001702
958	0.0001258
970	0.0001258
982	0.0001258
994	6.66e-05
1006	8.88e-05
1018	0.0001036
1030	0.0001406
1042	0.0001554
1054	0.0001554
1066	0.0001702
1078	0.0001702
1090	0.0001184
1102	8.88e-05
1114	0.0001332
1126	0.0001258
1138	0.0001036
1150	0.0001258
1162	0.0001628
1174	0.0002368
1186	0.0003996
1198	0.0007696
1210	0.0013246
1222	0.0019536
1234	0.002183
1246	0.0026196
1258	0.0029452
1270	0.0026862
1282	0.0022496
1294	0.0020424
1306	0.0018278
1318	0.0014134
1330	0.001295
1342	0.0017982
1354	0.0022348
1366	0.0017686
1378	0.0012728
1390	0.000925
1402	0.0006956
1414	0.000777
1426	0.0012802
1438	0.002775
1450	0.0045584
1462	0.0056092
1474	0.0032782
1486	0.001258
1498	0.0006512
1510	0.0003774
1522	0.000259
1534	0.0001776
1546	0.000111
1558	7.4e-05
1570	6.66e-05
1582	8.88e-05
1594	8.14e-05
1606	7.4e-05
1618	5.92e-05
1630	4.44e-05
1642	6.66e-05
1654	2.22e-05
1666	2.96e-05
1678	2.96e-05
1690	5.18e-05
1702	0
1714	2.22e-05
1726	2.22e-05
1738	2.22e-05
1750	2.96e-05
1762	3.7e-05
1774	2.96e-05
1786	3.7e-05
1798	2.22e-05
1810	2.22e-05
1822	2.22e-05
1834	2.96e-05
1846	2.96e-05
1858	5.18e-05
1870	2.22e-05
1882	2.96e-05
1894	3.7e-05
1906	3.7e-05
1918	2.96e-05
1930	3.7e-05
1942	2.96e-05
1954	2.96e-05
1966	4.44e-05
1978	6.66e-05
1990	2.96e-05
2002	6.66e-05
2014	8.14e-05
2026	0.0001258
2038	0.000111
2050	0.0001036
2062	8.14e-05
2074	8.14e-05
2086	6.66e-05
2098	5.18e-05
2110	6.66e-05
2122	5.18e-05
2134	5.92e-05
2146	5.92e-05
2158	5.18e-05
2170	6.66e-05
2182	5.92e-05
2194	3.7e-05
2206	6.66e-05
2218	6.66e-05
2230	4.44e-05
2242	5.18e-05
2254	5.92e-05
2266	6.66e-05
2278	2.96e-05
2290	4.44e-05
2302	3.7e-05
2314	5.18e-05
2326	5.18e-05
2338	6.66e-05
2350	5.18e-05
2362	7.4e-05
2374	6.66e-05
2386	6.66e-05
2398	5.92e-05
2410	5.92e-05
2422	5.92e-05
2434	8.88e-05
2446	5.92e-05
2458	5.92e-05
2470	6.66e-05
2482	8.88e-05
2494	6.66e-05
2506	0.0001036
2518	0.0001036
2530	0.0001702
2542	0.000185
2554	0.0001554
2566	0.000185
2578	0.000222
2590	0.0002442
2602	0.0002886
2614	0.00037
2626	0.000407
2638	0.0004588
2650	0.0005106
2662	0.0005698
2674	0.000666
2686	0.000703
2698	0.0006882
2710	0.0006364
2722	0.0006438
2734	0.000703
2746	0.0007918
2758	0.0008288
2770	0.0009472
2782	0.0011544
2794	0.0015466
2806	0.0020424
2818	0.002812
2830	0.0041736
2842	0.0073408
2854	0.018204
2866	0.0273948
2878	0.0178044
2890	0.0148148
2902	0.0189144
2914	0.0313094
2926	0.0616272
2938	0.0679986
2950	0.0353276
2962	0.0217338
2974	0.015947
2986	0.0075406
2998	0.0044696
3010	0.0037592
3022	0.0025678
3034	0.0015984
3046	0.0011544
3058	0.000851
3070	0.0007104
3082	0.0006142
3094	0.0005254
3106	0.0004588
3118	0.0004218
3130	0.00037
3142	0.000296
3154	0.0002664
3166	0.000296
3178	0.0002516
3190	0.000185
3202	0.0001628
3214	0.0001554
3226	8.14e-05
3238	9.62e-05
3250	6.66e-05
3262	0.0001036
3274	0.0001036
3286	6.66e-05
3298	6.66e-05
3310	0.0001036
3322	5.18e-05
3334	6.66e-05
3346	9.62e-05
3358	6.66e-05
3370	0.0001184
3382	5.18e-05
3394	6.66e-05
3406	0.0001036
3418	8.88e-05
3430	6.66e-05
3442	2.22e-05
3454	7.4e-05
3466	8.14e-05
3478	4.44e-05
3490	5.92e-05
3502	6.66e-05
3514	3.7e-05
3526	8.88e-05
3538	3.7e-05
3550	4.44e-05
3562	8.88e-05
3574	8.14e-05
3586	0.000111
3598	0.0001554
3610	0.0001406
3622	0.0001406
3634	0.0001554
3646	0.0001924
3658	0.0001184
3670	0.000148
3682	0.0001406
3694	0.0001554
3706	0.0001776
3718	0.0001924
3730	0.000148
3742	0.0001998
3754	0.0001554
3766	0.0001924
3778	0.0001924
3790	0.0001702
3802	0.0002072
3814	0.0001924
3826	0.0001998
3838	0.0001554
