Infrared Spectrum: 1,7-Heptanediol
Formula: C 7 H 16 O 2
CAS: 629-30-1
State: gas
Instrument: HP-GC/MS/IRD
Origin: NIST Mass Spectrometry Data Center
1/CM	ABSORBANCE
550	0.0001541
562	0.0001564
574	0.0001863
586	0.0001127
598	8.05e-05
610	0.000115
622	6.21e-05
634	8.97e-05
646	0.0001541
658	0.0001127
670	7.59e-05
682	0.0001081
694	0.0001564
706	0.0002484
718	0.000345
730	0.0003611
742	0.0002576
754	0.0002898
766	0.0002277
778	0.000276
790	0.0003105
802	0.0003105
814	0.0003289
826	0.000368
838	0.0004163
850	0.0004876
862	0.0005543
874	0.0007038
886	0.0008027
898	0.0008993
910	0.000943
922	0.0011316
934	0.001472
946	0.0018262
958	0.0021183
970	0.0024035
982	0.0028865
994	0.0035627
1006	0.004485
1018	0.0060191
1030	0.0084341
1042	0.0104075
1054	0.0093127
1066	0.0069483
1078	0.005474
1090	0.0039882
1102	0.0025323
1114	0.0017664
1126	0.0014076
1138	0.0012834
1150	0.0012489
1162	0.001265
1174	0.0013179
1186	0.0014237
1198	0.0015456
1210	0.0016491
1222	0.0017319
1234	0.0017572
1246	0.0018009
1258	0.0018285
1270	0.0018193
1282	0.0017296
1294	0.0016169
1306	0.0015479
1318	0.001495
1330	0.0015364
1342	0.0017319
1354	0.0019044
1366	0.0020378
1378	0.0025369
1390	0.0026151
1402	0.0018791
1414	0.0012719
1426	0.0010971
1438	0.0012949
1450	0.0015962
1462	0.0016537
1474	0.001426
1486	0.0009384
1498	0.0004485
1510	0.0002806
1522	0.0001932
1534	0.0001541
1546	0.0001242
1558	7.82e-05
1570	6.9e-05
1582	6.67e-05
1594	4.37e-05
1606	4.6e-05
1618	2.07e-05
1630	3.68e-05
1642	1.38e-05
1654	0
1666	2.3e-06
1678	1.84e-05
1690	2.76e-05
1702	9.2e-06
1714	1.61e-05
1726	6.9e-06
1738	1.38e-05
1750	3.91e-05
1762	1.61e-05
1774	4.6e-06
1786	3.45e-05
1798	6.9e-06
1810	2.53e-05
1822	1.38e-05
1834	1.84e-05
1846	3.22e-05
1858	9.2e-06
1870	2.07e-05
1882	3.68e-05
1894	2.53e-05
1906	4.37e-05
1918	2.76e-05
1930	4.14e-05
1942	4.83e-05
1954	5.29e-05
1966	4.37e-05
1978	3.68e-05
1990	5.75e-05
2002	5.29e-05
2014	8.28e-05
2026	8.97e-05
2038	0.0001058
2050	0.0001035
2062	9.43e-05
2074	8.05e-05
2086	5.98e-05
2098	5.29e-05
2110	3.91e-05
2122	3.45e-05
2134	3.45e-05
2146	2.76e-05
2158	2.99e-05
2170	2.99e-05
2182	2.99e-05
2194	3.22e-05
2206	2.99e-05
2218	2.76e-05
2230	1.61e-05
2242	2.76e-05
2254	4.37e-05
2266	5.52e-05
2278	5.75e-05
2290	4.14e-05
2302	7.36e-05
2314	5.75e-05
2326	6.21e-05
2338	1.84e-05
2350	5.06e-05
2362	5.52e-05
2374	8.05e-05
2386	8.05e-05
2398	8.28e-05
2410	0.0001035
2422	0.0001127
2434	0.0001104
2446	9.2e-05
2458	8.51e-05
2470	9.89e-05
2482	9.66e-05
2494	9.89e-05
2506	0.0001104
2518	0.0001173
2530	0.0001357
2542	0.0001265
2554	0.0001311
2566	0.0001403
2578	0.0001403
2590	0.0001633
2602	0.0001748
2614	0.0002277
2626	0.000207
2638	0.000253
2650	0.0002898
2662	0.0003243
2674	0.0003933
2686	0.0004186
2698	0.0004646
2710	0.000483
2722	0.0005428
2734	0.000621
2746	0.0006946
2758	0.0007751
2770	0.0008349
2782	0.0009545
2794	0.0010994
2806	0.0013064
2818	0.0016629
2830	0.0022448
2842	0.0036524
2854	0.0065044
2866	0.0096071
2878	0.0105662
2890	0.0096094
2902	0.0100878
2914	0.0135079
2926	0.0194649
2938	0.023
2950	0.0172247
2962	0.0095542
2974	0.0048645
2986	0.0024955
2998	0.0014651
3010	0.000943
3022	0.0006808
3034	0.0005129
3046	0.0003864
3058	0.0003174
3070	0.0002829
3082	0.0002208
3094	0.0001702
3106	0.0001679
3118	0.0001449
3130	0.000138
3142	0.0001196
3154	0.0001219
3166	8.28e-05
3178	9.66e-05
3190	0.0001127
3202	6.21e-05
3214	6.21e-05
3226	4.83e-05
3238	3.45e-05
3250	5.75e-05
3262	5.29e-05
3274	6.9e-05
3286	6.67e-05
3298	6.9e-05
3310	3.68e-05
3322	4.14e-05
3334	3.91e-05
3346	5.75e-05
3358	6.9e-05
3370	5.98e-05
3382	8.05e-05
3394	9.2e-05
3406	9.89e-05
3418	0.0001357
3430	0.0001403
3442	0.0001587
3454	0.0001564
3466	0.0001564
3478	0.0001587
3490	0.000184
3502	0.0001794
3514	0.0001403
3526	0.0001449
3538	0.000138
3550	0.0001334
3562	0.0001633
3574	0.000161
3586	0.0001978
3598	0.0002484
3610	0.0003082
3622	0.0003979
3634	0.000667
3646	0.0012305
3658	0.0023437
3670	0.0028359
3682	0.0018216
3694	0.0008441
3706	0.0004669
3718	0.0003013
3730	0.0002185
3742	0.0001725
3754	0.0001817
3766	0.000161
3778	0.0001518
3790	0.0001587
3802	0.0001679
3814	0.0002162
3826	0.0002139
3838	0.000184
