Infrared Spectrum: n-Butyl disulfide
Formula: C 8 H 18 S 2
CAS: 629-45-8
State: gas
Instrument: HP-GC/MS/IRD
Origin: NIST Mass Spectrometry Data Center
1/CM	ABSORBANCE
550	0.0002668
562	8.05e-05
574	7.59e-05
586	5.06e-05
598	0.0001311
610	0.000138
622	0.0001518
634	0.0002323
646	0.0001932
658	0.0001656
670	0.0001679
682	0.0003036
694	0.0004071
706	0.0003979
718	0.0005773
730	0.0006647
742	0.0010189
754	0.0010212
766	0.0006854
778	0.0006693
790	0.000736
802	0.0004922
814	0.0003933
826	0.0003427
838	0.0002829
850	0.0002967
862	0.0004025
874	0.0005106
886	0.0005405
898	0.0006854
910	0.0007521
922	0.0006486
934	0.0004278
946	0.0003565
958	0.0003726
970	0.0003634
982	0.0003358
994	0.0003565
1006	0.0002806
1018	0.0002714
1030	0.0003174
1042	0.0004508
1054	0.0005957
1066	0.0007452
1078	0.0007452
1090	0.0008533
1102	0.0006624
1114	0.0004416
1126	0.0003105
1138	0.0002231
1150	0.0002668
1162	0.0003105
1174	0.0004554
1186	0.000644
1198	0.0007222
1210	0.0016238
1222	0.0021643
1234	0.0011224
1246	0.0009982
1258	0.0017802
1270	0.0029394
1282	0.0025622
1294	0.002047
1306	0.0013524
1318	0.0008372
1330	0.0008924
1342	0.0012604
1354	0.0011615
1366	0.0009982
1378	0.0013639
1390	0.0015364
1402	0.0012328
1414	0.001564
1426	0.0019251
1438	0.0025369
1450	0.0029141
1462	0.0033028
1474	0.0024909
1486	0.0012719
1498	0.0007498
1510	0.0003979
1522	0.0003174
1534	0.0003128
1546	0.0002208
1558	0.0001426
1570	0.0002254
1582	0.0002208
1594	0.000207
1606	0.0001909
1618	0.0001633
1630	0.0001771
1642	0.0001495
1654	7.82e-05
1666	0.0001449
1678	0.0001081
1690	0.000115
1702	3.91e-05
1714	6.21e-05
1726	0.0001127
1738	5.52e-05
1750	3.45e-05
1762	6.21e-05
1774	4.6e-05
1786	8.28e-05
1798	4.6e-05
1810	6.67e-05
1822	7.13e-05
1834	6.44e-05
1846	5.75e-05
1858	8.05e-05
1870	6.21e-05
1882	5.98e-05
1894	7.82e-05
1906	0.0001104
1918	7.82e-05
1930	7.36e-05
1942	7.36e-05
1954	0.0001035
1966	7.82e-05
1978	9.2e-05
1990	8.51e-05
2002	0.0001196
2014	0.0001058
2026	0.0001127
2038	9.89e-05
2050	0.0001564
2062	0.0001058
2074	9.43e-05
2086	8.05e-05
2098	9.66e-05
2110	0.0001058
2122	0.0001035
2134	0.0001173
2146	0.0001035
2158	8.51e-05
2170	8.74e-05
2182	8.97e-05
2194	6.67e-05
2206	7.36e-05
2218	8.51e-05
2230	6.44e-05
2242	8.05e-05
2254	8.97e-05
2266	8.05e-05
2278	4.14e-05
2290	7.59e-05
2302	6.67e-05
2314	9.66e-05
2326	5.52e-05
2338	7.13e-05
2350	0.0001104
2362	8.28e-05
2374	7.82e-05
2386	7.82e-05
2398	0.0001012
2410	8.28e-05
2422	7.82e-05
2434	6.44e-05
2446	6.21e-05
2458	3.45e-05
2470	3.22e-05
2482	5.29e-05
2494	7.13e-05
2506	8.97e-05
2518	9.66e-05
2530	0.0001012
2542	7.82e-05
2554	7.13e-05
2566	8.97e-05
2578	0.0001127
2590	8.74e-05
2602	7.59e-05
2614	0.0001288
2626	0.0001886
2638	0.0001702
2650	0.0002461
2662	0.0002001
2674	0.0002461
2686	0.0002162
2698	0.0002093
2710	0.0002047
2722	0.0002484
2734	0.0003588
2746	0.0004692
2758	0.0004761
2770	0.0005129
2782	0.0006026
2794	0.0008234
2806	0.001104
2818	0.0015088
2830	0.0019113
2842	0.0028934
2854	0.0048737
2866	0.0071093
2878	0.0093357
2890	0.0096094
2902	0.0097957
2914	0.0126937
2926	0.0166267
2938	0.0211807
2950	0.0198651
2962	0.0215464
2974	0.0203527
2986	0.0086526
2998	0.004048
3010	0.0024357
3022	0.0016859
3034	0.0012282
3046	0.0009522
3058	0.0007222
3070	0.0005704
3082	0.0005497
3094	0.0004761
3106	0.0004738
3118	0.0004301
3130	0.0003749
3142	0.0002967
3154	0.0003358
3166	0.000299
3178	0.000276
3190	0.0002645
3202	0.0002415
3214	0.0001725
3226	0.0001564
3238	0.000184
3250	0.0001242
3262	0.0001587
3274	0.0001219
3286	8.97e-05
3298	9.89e-05
3310	0.0001265
3322	0.0001196
3334	0.0001357
3346	0.000161
3358	6.44e-05
3370	8.05e-05
3382	9.89e-05
3394	8.28e-05
3406	8.97e-05
3418	0.0001564
3430	1.15e-05
3442	8.51e-05
3454	5.29e-05
3466	0.0001104
3478	8.97e-05
3490	9.43e-05
3502	6.67e-05
3514	6.67e-05
3526	6.44e-05
3538	0.0001311
3550	0.0001035
3562	0.0001403
3574	9.89e-05
3586	7.36e-05
3598	0.0001288
3610	3.91e-05
3622	0.000115
3634	9.2e-05
3646	0.0001748
3658	0.0001426
3670	0.000138
3682	0.0001587
3694	0.0001518
3706	0.0001495
3718	0.0001242
3730	0.000115
3742	8.28e-05
3754	0.0001058
3766	0.0001771
3778	0.0002093
3790	0.0001863
3802	0.0001495
3814	0.0002162
3826	0.0002139
3838	0.0001633
