Infrared Spectrum: n-HEPTYL SULFIDE
Formula: C14 H30 S
CAS: 629-65-2
State: LIQUID
Boiling point: 143-145 C AT 8 mmHg
Class: COBLENTZ
Instrument: Not specified, most likely a prism, grating, or hybrid spectrometer.
Sampling: TRANSMISSION
Path length: 0.005 CM
Resolution: 4
Origin: WYANDOTTE CHEMICALS CORP., WYANDOTTE, MICHIGAN, USA
MICROMETERS	TRANSMITTANCE
2.037	1
2.0742	0.998
2.11141	0.998
2.14861	0.99
2.18581	0.947
2.22301	0.844
2.26022	0.817
2.29742	0.82
2.33462	0.824
2.37182	0.835
2.40903	0.865
2.44623	0.88
2.48343	0.9
2.52063	0.922
2.55784	0.911
2.59504	0.916
2.63224	0.92
2.66945	0.906
2.70665	0.903
2.74385	0.906
2.78105	0.917
2.81826	0.933
2.85546	0.917
2.89266	0.924
2.92986	0.911
2.96707	0.91
3.00427	0.905
3.04147	0.9
3.07867	0.882
3.11588	0.852
3.15308	0.815
3.19028	0.812
3.22749	0.793
3.26469	0.696
3.30189	0.497
3.33909	0.103
3.3763	0.029
3.4135	0.026
3.4507	0.023
3.4879	0.026
3.52511	0.074
3.56231	0.342
3.59951	0.553
3.63671	0.663
3.67392	0.64
3.71112	0.691
3.74832	0.663
3.78553	0.713
3.82273	0.737
3.85993	0.773
3.89713	0.803
3.93434	0.82
3.97154	0.824
4.00874	0.834
4.04594	0.849
4.08315	0.844
4.12035	0.843
4.15755	0.854
4.19475	0.852
4.23196	0.838
4.26916	0.852
4.30636	0.848
4.34357	0.865
4.38077	0.854
4.41797	0.857
4.45517	0.846
4.49238	0.843
4.52958	0.849
4.56678	0.857
4.60398	0.854
4.64119	0.849
4.67839	0.849
4.71559	0.848
4.75279	0.854
4.79	0.862
4.8272	0.862
4.8644	0.863
4.90161	0.862
4.93881	0.852
4.97601	0.844
5.01321	0.846
5.05042	0.863
5.08762	0.86
5.12482	0.869
5.16202	0.868
5.19923	0.871
5.23643	0.868
5.27363	0.862
5.31083	0.866
5.34804	0.866
5.38524	0.862
5.42244	0.868
5.45965	0.865
5.49685	0.86
5.53405	0.866
5.57125	0.862
5.60846	0.862
5.64566	0.858
5.68286	0.855
5.72006	0.851
5.75727	0.843
5.79447	0.84
5.83167	0.837
5.86887	0.843
5.90608	0.84
5.94328	0.838
5.98048	0.831
6.01768	0.829
6.05489	0.827
6.09209	0.82
6.12929	0.823
6.1665	0.818
6.2037	0.815
6.2409	0.815
6.2781	0.812
6.31531	0.81
6.35251	0.806
6.38971	0.793
6.42691	0.784
6.46412	0.775
6.50132	0.753
6.53852	0.741
6.57572	0.716
6.61293	0.675
6.65013	0.638
6.68733	0.553
6.72454	0.415
6.76174	0.055
6.79894	0.032
6.83614	0.048
6.87335	0.077
6.91055	0.114
6.94775	0.189
6.98495	0.291
7.02216	0.306
7.05936	0.506
7.09656	0.589
7.13376	0.606
7.17097	0.575
7.20817	0.359
7.24537	0.189
7.28258	0.395
7.31978	0.455
7.35698	0.486
7.39418	0.466
7.43139	0.471
7.46859	0.539
7.50579	0.587
7.54299	0.575
7.5802	0.506
7.6174	0.415
7.6546	0.327
7.6918	0.33
7.72901	0.379
7.76621	0.331
7.80341	0.291
7.84062	0.249
7.87782	0.359
7.91502	0.502
7.95222	0.44
7.98943	0.345
8.02663	0.356
8.06383	0.384
8.10103	0.342
8.13824	0.441
8.17544	0.596
8.21264	0.649
8.24984	0.579
8.28705	0.502
8.32425	0.579
8.36145	0.635
8.39866	0.683
8.43586	0.703
8.47306	0.714
8.51026	0.699
8.54747	0.691
8.58467	0.717
8.62187	0.731
8.65907	0.755
8.69628	0.778
8.73348	0.803
8.77068	0.815
8.80788	0.801
8.84509	0.782
8.88229	0.722
8.91949	0.641
8.9567	0.615
8.9939	0.638
9.0311	0.663
9.0683	0.662
9.10551	0.665
9.14271	0.685
9.17991	0.688
9.21711	0.694
9.25432	0.682
9.29152	0.693
9.32872	0.71
9.36592	0.722
9.40313	0.702
9.44033	0.691
9.47753	0.702
9.51474	0.733
9.55194	0.753
9.58914	0.748
9.62634	0.741
9.66355	0.728
9.70075	0.722
9.73795	0.719
9.77515	0.725
9.81236	0.727
9.84956	0.719
9.88676	0.728
9.92396	0.727
9.96117	0.719
9.99837	0.724
10.0356	0.722
10.0728	0.714
10.11	0.716
10.1472	0.725
10.1844	0.731
10.2216	0.741
10.2588	0.751
10.296	0.753
10.3332	0.745
10.3704	0.742
10.4076	0.725
10.4448	0.73
10.482	0.733
10.5192	0.737
10.5564	0.753
10.5936	0.759
10.6308	0.758
10.668	0.75
10.7052	0.739
10.7424	0.722
10.7796	0.716
10.8168	0.714
10.854	0.713
10.8912	0.72
10.9284	0.724
10.9656	0.711
11.0028	0.679
11.04	0.651
11.0772	0.629
11.1144	0.631
11.1517	0.627
11.1889	0.618
11.2261	0.626
11.2633	0.644
11.3005	0.671
11.3377	0.697
11.3749	0.728
11.4121	0.742
11.4493	0.75
11.4865	0.744
11.5237	0.734
11.5609	0.734
11.5981	0.737
11.6353	0.733
11.6725	0.737
11.7097	0.734
11.7469	0.734
11.7841	0.739
11.8213	0.739
11.8585	0.737
11.8957	0.727
11.9329	0.716
11.9701	0.686
12.0073	0.674
12.0445	0.66
12.0817	0.674
12.1189	0.689
12.1561	0.699
12.1933	0.708
12.2305	0.713
12.2677	0.724
12.3049	0.724
12.3421	0.725
12.3793	0.725
12.4165	0.727
12.4537	0.73
12.4909	0.72
12.5282	0.71
12.5654	0.691
12.6026	0.677
12.6398	0.657
12.677	0.641
12.7142	0.627
12.7514	0.626
12.7886	0.627
12.8258	0.624
12.863	0.607
12.9002	0.601
12.9374	0.586
12.9746	0.576
13.0118	0.561
13.049	0.553
13.0862	0.547
13.1234	0.531
13.1606	0.517
13.1978	0.513
13.235	0.514
13.2722	0.531
13.3094	0.525
13.3466	0.524
13.3838	0.513
13.421	0.505
13.4582	0.496
13.4954	0.482
13.5326	0.474
13.5698	0.454
13.607	0.437
13.6442	0.41
13.6814	0.375
13.7186	0.325
13.7558	0.275
13.793	0.24
13.8302	0.21
13.8674	0.215
13.9046	0.26
13.9419	0.305
13.9791	0.348
14.0163	0.393
14.0535	0.44
14.0907	0.482
14.1279	0.527
14.1651	0.559
14.2023	0.592
14.2395	0.621
14.2767	0.648
14.3139	0.662
14.3511	0.679
14.3883	0.699
14.4255	0.71
14.4627	0.722
14.4999	0.733
14.5371	0.736
14.5743	0.736
14.6115	0.737
14.6487	0.744
14.6859	0.742
14.7231	0.742
14.7603	0.742
14.7975	0.73
14.8347	0.742
14.8719	0.739
14.9091	0.744
14.9463	0.748
14.9835	0.737
15.0207	0.72
15.0579	0.719
15.0951	0.731
15.1323	0.744
15.1695	0.737
15.2067	0.73
15.2439	0.733
15.2811	0.728
15.3184	0.724
15.3556	0.722
15.3928	0.722
15.43	0.713
15.4672	0.719
15.5044	0.713
15.5416	0.708
15.5788	0.711
15.616	0.716
15.6532	0.717
15.6904	0.702
15.7276	0.703
15.7648	0.717
15.802	0.705
15.8392	0.699
15.8764	0.702
15.9136	0.7
15.9508	0.693
15.988	0.688
