Infrared Spectrum: 1,8-Octanediol
Formula: C 8 H 18 O 2
CAS: 629-41-4
State: gas
Instrument: HP-GC/MS/IRD
Origin: NIST Mass Spectrometry Data Center
1/CM	ABSORBANCE
550	0.0001568
562	6.44e-05
574	0.0001876
586	0.000126
598	0.0001316
610	0.000126
622	8.96e-05
634	0.0001792
646	0.0001064
658	0.0001036
670	0.0001232
682	0.0001456
694	0.0002128
706	0.0003108
718	0.0004452
730	0.000448
742	0.0003304
754	0.000336
766	0.000294
778	0.000294
790	0.000294
802	0.0003276
814	0.0003612
826	0.0003752
838	0.0004704
850	0.0005768
862	0.0006776
874	0.0008204
886	0.0010444
898	0.001176
910	0.0012768
922	0.001344
934	0.0014784
946	0.0016632
958	0.0018788
970	0.0021812
982	0.0026348
994	0.0032704
1006	0.0043932
1018	0.006482
1030	0.009352
1042	0.0107128
1054	0.0102844
1066	0.0080388
1078	0.0053144
1090	0.00343
1102	0.002296
1114	0.0017192
1126	0.0014448
1138	0.0013328
1150	0.0012796
1162	0.001316
1174	0.0013636
1186	0.0014448
1198	0.001596
1210	0.0017276
1222	0.001834
1234	0.0019068
1246	0.0018984
1258	0.0018676
1270	0.0018452
1282	0.001806
1294	0.00175
1306	0.0016212
1318	0.0015764
1330	0.0016184
1342	0.001848
1354	0.0020776
1366	0.0021924
1378	0.0026544
1390	0.0027076
1402	0.001918
1414	0.0013188
1426	0.001162
1438	0.001414
1450	0.0018536
1462	0.001988
1474	0.0016296
1486	0.0010052
1498	0.0005096
1510	0.0002968
1522	0.0002352
1534	0.0001792
1546	0.0001372
1558	0.0001176
1570	0.000112
1582	7e-05
1594	5.32e-05
1606	5.6e-05
1618	5.04e-05
1630	3.64e-05
1642	3.64e-05
1654	5.6e-06
1666	1.4e-05
1678	2.24e-05
1690	5.6e-06
1702	8.4e-06
1714	8.4e-06
1726	3.36e-05
1738	3.92e-05
1750	4.48e-05
1762	5.04e-05
1774	3.64e-05
1786	1.68e-05
1798	2.24e-05
1810	1.68e-05
1822	3.36e-05
1834	2.24e-05
1846	8.4e-06
1858	2.24e-05
1870	3.36e-05
1882	1.96e-05
1894	2.8e-05
1906	4.76e-05
1918	3.92e-05
1930	2.24e-05
1942	5.04e-05
1954	3.64e-05
1966	3.64e-05
1978	3.36e-05
1990	4.76e-05
2002	4.76e-05
2014	7.56e-05
2026	8.96e-05
2038	9.24e-05
2050	9.8e-05
2062	7.56e-05
2074	8.96e-05
2086	4.76e-05
2098	3.64e-05
2110	3.64e-05
2122	1.68e-05
2134	1.96e-05
2146	1.96e-05
2158	2.24e-05
2170	1.12e-05
2182	2.52e-05
2194	8.4e-06
2206	1.68e-05
2218	2.52e-05
2230	0
2242	1.96e-05
2254	2.8e-05
2266	2.8e-05
2278	4.48e-05
2290	4.48e-05
2302	4.48e-05
2314	3.64e-05
2326	5.88e-05
2338	3.92e-05
2350	4.2e-05
2362	6.44e-05
2374	5.04e-05
2386	5.32e-05
2398	5.88e-05
2410	8.12e-05
2422	7.84e-05
2434	5.6e-05
2446	7.28e-05
2458	6.16e-05
2470	5.88e-05
2482	5.88e-05
2494	7e-05
2506	7e-05
2518	7.28e-05
2530	8.4e-05
2542	7.56e-05
2554	8.4e-05
2566	0.0001204
2578	0.0001064
2590	0.000154
2602	0.0001456
2614	0.0001736
2626	0.0002128
2638	0.0002576
2650	0.0003192
2662	0.00035
2674	0.000406
2686	0.0004536
2698	0.0004788
2710	0.0005124
2722	0.000588
2734	0.0006328
2746	0.0007084
2758	0.0007756
2770	0.0008708
2782	0.0009968
2794	0.0011676
2806	0.0014
2818	0.0017864
2830	0.0025004
2842	0.004088
2854	0.0076972
2866	0.01148
2878	0.0117376
2890	0.0103684
2902	0.0111972
2914	0.015596
2926	0.0236684
2938	0.028
2950	0.0194768
2962	0.0102116
2974	0.0051996
2986	0.0026992
2998	0.0016016
3010	0.0010332
3022	0.000742
3034	0.0005544
3046	0.0004368
3058	0.000336
3070	0.000238
3082	0.000196
3094	0.000168
3106	0.0001568
3118	0.000126
3130	0.000126
3142	8.68e-05
3154	0.0001092
3166	0.0001008
3178	9.8e-05
3190	6.16e-05
3202	5.6e-05
3214	6.44e-05
3226	5.88e-05
3238	3.08e-05
3250	3.08e-05
3262	3.92e-05
3274	2.8e-06
3286	3.64e-05
3298	1.96e-05
3310	5.32e-05
3322	6.72e-05
3334	4.76e-05
3346	3.92e-05
3358	4.2e-05
3370	2.52e-05
3382	7.28e-05
3394	6.44e-05
3406	7e-05
3418	0.0001176
3430	0.0001316
3442	0.0001008
3454	0.0001148
3466	0.0001288
3478	0.0001624
3490	0.000182
3502	0.00014
3514	0.0001092
3526	9.8e-05
3538	0.0001148
3550	0.000112
3562	0.000126
3574	0.000168
3586	0.0001792
3598	0.00021
3610	0.0002828
3622	0.0003976
3634	0.0006356
3646	0.0012348
3658	0.0023492
3670	0.002856
3682	0.001778
3694	0.0007868
3706	0.000406
3718	0.0002688
3730	0.0002072
3742	0.0002016
3754	0.0001792
3766	0.0001008
3778	0.0001596
3790	0.0001512
3802	0.0001596
3814	0.0001708
3826	0.000168
3838	0.00021
