Infrared Spectrum: 1-Hexadecyne
Formula: C 16 H 30
CAS: 629-74-3
State: gas
Instrument: HP-GC/MS/IRD
Origin: NIST Mass Spectrometry Data Center
1/CM	ABSORBANCE
550	0.0002726
562	0.0003538
574	0.0002146
586	0.0003306
598	0.0006322
610	0.001885
622	0.0059102
634	0.0141288
646	0.005481
658	0.00145
670	0.0005742
682	0.0003306
694	0.0003422
706	0.0005974
718	0.0009048
730	0.0007134
742	0.0005684
754	0.0004582
766	0.0002958
778	0.0002842
790	0.0002146
802	0.000203
814	0.0001276
826	0
838	0.000116
850	9.28e-05
862	0.0001508
874	0.0001276
886	0.0001392
898	0.0001566
910	0.0001334
922	0.0001566
934	0.000174
946	0.0001624
958	0.000145
970	0.0001276
982	0.0001798
994	0.0001682
1006	0.0001624
1018	0.000145
1030	0.0001856
1042	0.0001914
1054	0.000232
1066	0.0002088
1078	0.0001856
1090	0.0001914
1102	0.0001856
1114	0.0002146
1126	0.0001276
1138	0.000116
1150	0.0001218
1162	0.0001392
1174	0.0001508
1186	0.000232
1198	0.0002436
1210	0.0004176
1222	0.0005916
1234	0.0015544
1246	0.0036946
1258	0.0022214
1270	0.0010614
1282	0.0008758
1294	0.0009106
1306	0.0010904
1318	0.00116
1330	0.0012412
1342	0.001479
1354	0.0016878
1366	0.001363
1378	0.0010556
1390	0.0007772
1402	0.000609
1414	0.0006496
1426	0.0010498
1438	0.0022794
1450	0.0034162
1462	0.004234
1474	0.0025578
1486	0.0010672
1498	0.0005684
1510	0.0003538
1522	0.0002842
1534	0.0002204
1546	0.0001566
1558	0.0001392
1570	0.0001218
1582	9.28e-05
1594	0.0001044
1606	8.7e-05
1618	8.7e-05
1630	7.54e-05
1642	4.64e-05
1654	4.06e-05
1666	2.9e-05
1678	2.32e-05
1690	1.74e-05
1702	3.48e-05
1714	1.16e-05
1726	1.16e-05
1738	1.74e-05
1750	1.16e-05
1762	1.16e-05
1774	1.16e-05
1786	1.74e-05
1798	2.9e-05
1810	1.74e-05
1822	3.48e-05
1834	2.9e-05
1846	3.48e-05
1858	1.74e-05
1870	5.8e-06
1882	2.9e-05
1894	1.74e-05
1906	2.32e-05
1918	2.32e-05
1930	1.74e-05
1942	2.9e-05
1954	5.8e-06
1966	1.16e-05
1978	2.9e-05
1990	5.22e-05
2002	4.64e-05
2014	5.22e-05
2026	0.0001102
2038	9.28e-05
2050	9.28e-05
2062	8.12e-05
2074	9.86e-05
2086	0.000145
2098	0.0002958
2110	0.0005916
2122	0.0006496
2134	0.0002494
2146	8.7e-05
2158	5.8e-05
2170	4.06e-05
2182	5.22e-05
2194	4.06e-05
2206	2.9e-05
2218	3.48e-05
2230	1.16e-05
2242	4.64e-05
2254	3.48e-05
2266	4.06e-05
2278	1.74e-05
2290	2.9e-05
2302	5.8e-05
2314	5.8e-05
2326	5.8e-05
2338	5.22e-05
2350	6.96e-05
2362	9.28e-05
2374	6.96e-05
2386	4.06e-05
2398	6.38e-05
2410	5.22e-05
2422	6.96e-05
2434	5.8e-05
2446	8.12e-05
2458	7.54e-05
2470	9.28e-05
2482	6.96e-05
2494	0.0001044
2506	0.0001044
2518	0.0001044
2530	0.0001392
2542	0.0001856
2554	0.000174
2566	0.000203
2578	0.0001856
2590	0.0002146
2602	0.0002668
2614	0.0002726
2626	0.0003306
2638	0.0003828
2650	0.0004466
2662	0.0004814
2674	0.00058
2686	0.000609
2698	0.0005684
2710	0.0005162
2722	0.0005278
2734	0.0005684
2746	0.0006148
2758	0.0007018
2770	0.0007598
2782	0.000957
2794	0.0012296
2806	0.0015718
2818	0.0022156
2830	0.0032364
2842	0.0057362
2854	0.0143144
2866	0.0212222
2878	0.0141926
2890	0.011542
2902	0.0148016
2914	0.0253576
2926	0.0486272
2938	0.0542648
2950	0.0308502
2962	0.017342
2974	0.0111476
2986	0.0051736
2998	0.0030102
3010	0.0019952
3022	0.001421
3034	0.0011368
3046	0.0008526
3058	0.000696
3070	0.000551
3082	0.0004756
3094	0.0004292
3106	0.0003538
3118	0.0003364
3130	0.0003248
3142	0.0002726
3154	0.0002552
3166	0.0002146
3178	0.000174
3190	0.0001972
3202	0.000145
3214	0.0001508
3226	0.0001334
3238	0.0001392
3250	0.0001972
3262	0.0002842
3274	0.0004524
3286	0.00087
3298	0.0013804
3310	0.0027434
3322	0.0040368
3334	0.0041122
3346	0.0012528
3358	0.000638
3370	0.0003016
3382	0.000145
3394	0.0001102
3406	0.0001218
3418	0.0001276
3430	0.0001102
3442	6.96e-05
3454	5.22e-05
3466	9.86e-05
3478	5.8e-05
3490	1.74e-05
3502	3.48e-05
3514	5.8e-06
3526	2.32e-05
3538	5.8e-06
3550	0
3562	6.96e-05
3574	4.64e-05
3586	5.8e-05
3598	8.7e-05
3610	0.000116
3622	0.000116
3634	0.000174
3646	0.000116
3658	0.0001566
3670	0.0001392
3682	0.000145
3694	0.0001856
3706	0.0001334
3718	0.000203
3730	0.0001102
3742	0.0001334
3754	0.0001682
3766	0.000145
3778	0.0001914
3790	0.0001566
3802	0.0001798
3814	0.0001624
3826	0.0002262
3838	0.0002204
