Infrared Spectrum: 1-Octyne
Formula: C 8 H 14
CAS: 629-05-0
State: gas
Instrument: HP-GC/MS/IRD
Origin: NIST Mass Spectrometry Data Center
1/CM	ABSORBANCE
550	0.0007141
562	0.0003256
574	0.0004033
586	0.0005032
598	0.0010212
610	0.0039035
622	0.0122285
634	0.0285788
646	0.0118067
658	0.0029859
670	0.0009028
682	0.0004181
694	0.0002405
706	0.0003996
718	0.0004884
730	0.0005883
742	0.0003885
754	0.0003182
766	0.0002072
778	0.0001554
790	5.18e-05
802	9.25e-05
814	1.11e-05
826	6.66e-05
838	7.03e-05
850	8.14e-05
862	0.0001147
874	0.000185
886	0.0002479
898	0.0002442
910	0.0001961
922	0.0001813
934	0.0001369
946	0.0001887
958	0.000148
970	0.0001221
982	0.0001184
994	0.0001739
1006	0.0001591
1018	9.99e-05
1030	0.0001332
1042	0.0001184
1054	0.0001184
1066	7.4e-05
1078	8.14e-05
1090	0.000148
1102	0.0002553
1114	0.0002627
1126	0.0001591
1138	4.44e-05
1150	4.81e-05
1162	6.29e-05
1174	0.0001887
1186	0.0002146
1198	0.0003515
1210	0.0004958
1222	0.0010471
1234	0.0031524
1246	0.0064676
1258	0.0047804
1270	0.0017131
1282	0.0010693
1294	0.0009139
1306	0.0010471
1318	0.0012987
1330	0.0014985
1342	0.0015059
1354	0.0013246
1366	0.0011174
1378	0.0012284
1390	0.0011655
1402	0.0008399
1414	0.0008584
1426	0.0015392
1438	0.0028009
1450	0.0035002
1462	0.0036704
1474	0.0027343
1486	0.0014578
1498	0.00074
1510	0.000444
1522	0.0003182
1534	0.0002442
1546	0.0001702
1558	0.0001665
1570	0.0001221
1582	0.0001184
1594	0.0001443
1606	5.92e-05
1618	0.0001073
1630	9.62e-05
1642	8.14e-05
1654	0.0001221
1666	5.92e-05
1678	5.55e-05
1690	6.29e-05
1702	5.92e-05
1714	5.55e-05
1726	4.07e-05
1738	3.33e-05
1750	4.44e-05
1762	5.55e-05
1774	5.55e-05
1786	4.44e-05
1798	3.33e-05
1810	1.11e-05
1822	1.48e-05
1834	2.22e-05
1846	6.29e-05
1858	1.85e-05
1870	3.7e-05
1882	5.18e-05
1894	1.48e-05
1906	2.96e-05
1918	2.96e-05
1930	7.4e-06
1942	1.85e-05
1954	1.85e-05
1966	0
1978	3.7e-06
1990	2.22e-05
2002	4.44e-05
2014	5.92e-05
2026	8.51e-05
2038	7.4e-05
2050	6.66e-05
2062	8.51e-05
2074	0.0001036
2086	0.0002627
2098	0.0006216
2110	0.0011877
2122	0.0012987
2134	0.0005809
2146	0.0001924
2158	0.0001147
2170	8.14e-05
2182	6.29e-05
2194	4.07e-05
2206	4.44e-05
2218	3.33e-05
2230	2.22e-05
2242	4.07e-05
2254	6.29e-05
2266	4.44e-05
2278	4.44e-05
2290	4.44e-05
2302	3.33e-05
2314	6.66e-05
2326	4.44e-05
2338	6.66e-05
2350	5.18e-05
2362	8.14e-05
2374	7.77e-05
2386	5.55e-05
2398	7.4e-05
2410	5.18e-05
2422	4.44e-05
2434	7.03e-05
2446	7.03e-05
2458	4.44e-05
2470	5.18e-05
2482	5.18e-05
2494	4.44e-05
2506	6.29e-05
2518	0.0001147
2530	0.0001184
2542	0.0001369
2554	0.0001406
2566	0.0001406
2578	0.0001776
2590	0.0001813
2602	0.000185
2614	0.0002257
2626	0.0002849
2638	0.0003293
2650	0.0003589
2662	0.0004218
2674	0.0004921
2686	0.0005106
2698	0.0005291
2710	0.0004588
2722	0.0004625
2734	0.0005402
2746	0.0005957
2758	0.0006253
2770	0.000666
2782	0.0007548
2794	0.0009953
2806	0.0012691
2818	0.001739
2830	0.0025493
2842	0.0045991
2854	0.0087542
2866	0.0129019
2878	0.0138528
2890	0.0120287
2902	0.0123247
2914	0.0183113
2926	0.0289747
2938	0.036889
2950	0.0328005
2962	0.0251341
2974	0.0182262
2986	0.0084656
2998	0.0039886
3010	0.0024679
3022	0.0018204
3034	0.0013838
3046	0.0011026
3058	0.0008695
3070	0.000777
3082	0.000629
3094	0.0005883
3106	0.0005328
3118	0.0004921
3130	0.0004181
3142	0.0003885
3154	0.0003663
3166	0.0003626
3178	0.0003108
3190	0.0003071
3202	0.0002701
3214	0.0002479
3226	0.0002109
3238	0.0002886
3250	0.0003256
3262	0.0005439
3274	0.0009731
3286	0.001702
3298	0.0032116
3310	0.0052429
3322	0.0091168
3334	0.0090539
3346	0.0028305
3358	0.0013579
3370	0.000629
3382	0.0003441
3394	0.000222
3406	0.0001813
3418	0.0001517
3430	0.0001073
3442	8.14e-05
3454	6.66e-05
3466	6.66e-05
3478	8.51e-05
3490	4.81e-05
3502	5.92e-05
3514	5.92e-05
3526	4.44e-05
3538	2.22e-05
3550	6.66e-05
3562	8.14e-05
3574	4.81e-05
3586	7.77e-05
3598	7.77e-05
3610	0.0001295
3622	0.0001147
3634	9.62e-05
3646	0.0001628
3658	0.0001443
3670	0.0001369
3682	0.0001258
3694	9.25e-05
3706	0.0001184
3718	0.0001184
3730	0.0001591
3742	0.0001036
3754	0.0001332
3766	0.0001221
3778	0.0001443
3790	0.0001591
3802	0.0001443
3814	0.0001036
3826	0.0001591
3838	0.0001554
