Infrared Spectrum: Heneicosane
Formula: C 21 H 44
CAS: 629-94-7
State: gas
Instrument: HP-GC/MS/IRD
Origin: NIST Mass Spectrometry Data Center
1/CM	ABSORBANCE
550	0.000126
562	3.78e-05
574	5.04e-05
586	8.82e-05
598	8.19e-05
610	0.0001323
622	0.0001638
634	0.0001134
646	6.93e-05
658	7.56e-05
670	0.0001764
682	0.0002583
694	0.0004032
706	0.0006867
718	0.0009324
730	0.0008253
742	0.0006489
754	0.0004914
766	0.000441
778	0.0004032
790	0.0003465
802	0.0002646
814	0.0002646
826	0.0002016
838	0.0002331
850	0.000252
862	0.0002016
874	0.0002268
886	0.0002646
898	0.0002646
910	0.0002079
922	0.0001953
934	0.0002142
946	0.0001701
958	0.0001764
970	0.0001575
982	0.0002079
994	0.0002016
1006	0.0001953
1018	0.0001638
1030	0.0002079
1042	0.0002079
1054	0.0002331
1066	0.0002142
1078	0.0002205
1090	0.0002079
1102	0.0002268
1114	0.0001386
1126	0.0001953
1138	0.0001638
1150	0.0001953
1162	0.0002205
1174	0.0002268
1186	0.0002016
1198	0.0002394
1210	0.0002457
1222	0.0002961
1234	0.0003402
1246	0.000378
1258	0.0004347
1270	0.0005292
1282	0.0006237
1294	0.0008253
1306	0.0009828
1318	0.0009009
1330	0.0009387
1342	0.0013923
1354	0.0016506
1366	0.0014049
1378	0.0011277
1390	0.000882
1402	0.0006363
1414	0.0006489
1426	0.0008001
1438	0.0015246
1450	0.003087
1462	0.0042588
1474	0.0026397
1486	0.0011025
1498	0.0006111
1510	0.0004032
1522	0.0003024
1534	0.0002331
1546	0.0002079
1558	0.0001953
1570	0.0001323
1582	0.0001134
1594	0.0001323
1606	8.82e-05
1618	0.0001197
1630	0.0001008
1642	8.19e-05
1654	0.0001008
1666	0.0001008
1678	9.45e-05
1690	5.04e-05
1702	8.19e-05
1714	8.82e-05
1726	5.67e-05
1738	7.56e-05
1750	4.41e-05
1762	4.41e-05
1774	3.78e-05
1786	3.78e-05
1798	5.67e-05
1810	5.04e-05
1822	5.67e-05
1834	4.41e-05
1846	4.41e-05
1858	5.04e-05
1870	0
1882	3.78e-05
1894	3.78e-05
1906	2.52e-05
1918	4.41e-05
1930	3.78e-05
1942	1.89e-05
1954	2.52e-05
1966	1.89e-05
1978	2.52e-05
1990	2.52e-05
2002	2.52e-05
2014	1.89e-05
2026	6.3e-05
2038	5.67e-05
2050	6.3e-05
2062	5.04e-05
2074	3.78e-05
2086	2.52e-05
2098	2.52e-05
2110	2.52e-05
2122	2.52e-05
2134	4.41e-05
2146	1.89e-05
2158	3.15e-05
2170	3.78e-05
2182	3.15e-05
2194	4.41e-05
2206	3.15e-05
2218	1.89e-05
2230	1.89e-05
2242	1.89e-05
2254	3.78e-05
2266	2.52e-05
2278	3.78e-05
2290	2.52e-05
2302	4.41e-05
2314	5.04e-05
2326	5.67e-05
2338	3.78e-05
2350	5.04e-05
2362	6.93e-05
2374	3.15e-05
2386	5.04e-05
2398	5.04e-05
2410	5.04e-05
2422	5.67e-05
2434	5.67e-05
2446	4.41e-05
2458	5.04e-05
2470	3.78e-05
2482	6.93e-05
2494	5.04e-05
2506	6.3e-05
2518	0.0001071
2530	0.0001386
2542	0.0001701
2554	0.0001449
2566	0.0001638
2578	0.0002016
2590	0.0002331
2602	0.0002709
2614	0.0003087
2626	0.0003213
2638	0.0003969
2650	0.0004284
2662	0.0004977
2674	0.0005544
2686	0.0005859
2698	0.0005418
2710	0.0004977
2722	0.0005292
2734	0.0005985
2746	0.0006741
2758	0.0007497
2770	0.0008379
2782	0.0009765
2794	0.0012978
2806	0.0016821
2818	0.0023436
2830	0.0034146
2842	0.0060732
2854	0.0157815
2866	0.0225414
2878	0.0144711
2890	0.0123417
2902	0.0161154
2914	0.0273861
2926	0.0545328
2938	0.0556101
2950	0.0267183
2962	0.0176589
2974	0.0125811
2986	0.0058212
2998	0.0033327
3010	0.0022554
3022	0.0016317
3034	0.00126
3046	0.0009639
3058	0.0007686
3070	0.00063
3082	0.0005355
3094	0.0004788
3106	0.0004284
3118	0.0003843
3130	0.0003465
3142	0.0003465
3154	0.0002898
3166	0.0002394
3178	0.0002583
3190	0.0002016
3202	0.0001827
3214	0.0001449
3226	0.0001323
3238	9.45e-05
3250	9.45e-05
3262	8.19e-05
3274	7.56e-05
3286	5.04e-05
3298	6.3e-05
3310	5.04e-05
3322	6.93e-05
3334	8.82e-05
3346	9.45e-05
3358	6.93e-05
3370	9.45e-05
3382	0.0001008
3394	0.0001071
3406	5.67e-05
3418	6.3e-05
3430	6.3e-05
3442	7.56e-05
3454	6.3e-05
3466	5.04e-05
3478	3.15e-05
3490	5.67e-05
3502	6.3e-05
3514	6.93e-05
3526	5.04e-05
3538	5.04e-05
3550	3.15e-05
3562	3.78e-05
3574	1.26e-05
3586	0.0001008
3598	0.000126
3610	8.82e-05
3622	0.0001323
3634	0.0001512
3646	0.000126
3658	0.0001386
3670	0.0001386
3682	0.0001323
3694	0.000126
3706	0.0001386
3718	0.0001512
3730	0.0001386
3742	0.0001575
3754	8.82e-05
3766	0.0001323
3778	0.0001701
3790	0.0001512
3802	0.0001512
3814	0.0001449
3826	0.0001386
3838	0.0001197
