Infrared Spectrum: 1-Octadecyne
Formula: C 18 H 34
CAS: 629-89-0
State: gas
Instrument: HP-GC/MS/IRD
Origin: NIST Mass Spectrometry Data Center
1/CM	ABSORBANCE
550	0.000416
562	0.0001696
574	0.0002112
586	0.0002208
598	0.0003936
610	0.0009632
622	0.002736
634	0.006512
646	0.00264
658	0.0008256
670	0.000336
682	0.000192
694	0.0002656
706	0.0004352
718	0.0005024
730	0.0004704
742	0.0003264
754	0.0003648
766	0.0002432
778	0.0001504
790	0.0001376
802	0.0001728
814	0.000128
826	0.0001504
838	0.0001152
850	9.28e-05
862	0.0001216
874	0.0001248
886	9.28e-05
898	0.0001216
910	0.0001216
922	7.36e-05
934	9.92e-05
946	9.28e-05
958	0.0001024
970	8.96e-05
982	9.6e-05
994	4.8e-05
1006	0
1018	1.92e-05
1030	8e-05
1042	3.84e-05
1054	0.0001568
1066	0.0001888
1078	0.000176
1090	0.0001856
1102	0.0001376
1114	0.0001056
1126	0.0001344
1138	0.00016
1150	0.0001376
1162	0.0001344
1174	0.0001216
1186	0.0002016
1198	0.0002016
1210	0.0002688
1222	0.000432
1234	0.0008864
1246	0.0018016
1258	0.0011232
1270	0.000608
1282	0.000528
1294	0.0005632
1306	0.0006272
1318	0.0006464
1330	0.0007104
1342	0.0008192
1354	0.0009664
1366	0.0007616
1378	0.0005472
1390	0.0004096
1402	0.0003136
1414	0.0003968
1426	0.0005568
1438	0.0011168
1450	0.0017824
1462	0.0022528
1474	0.001328
1486	0.0005248
1498	0.0002592
1510	9.28e-05
1522	9.28e-05
1534	9.6e-05
1546	4.48e-05
1558	4.8e-05
1570	8.32e-05
1582	8.64e-05
1594	0.0001056
1606	7.04e-05
1618	7.04e-05
1630	7.68e-05
1642	7.04e-05
1654	1.28e-05
1666	8.96e-05
1678	2.56e-05
1690	4.16e-05
1702	2.56e-05
1714	2.24e-05
1726	6.4e-05
1738	2.24e-05
1750	2.24e-05
1762	2.88e-05
1774	5.12e-05
1786	5.12e-05
1798	1.28e-05
1810	2.88e-05
1822	4.16e-05
1834	4.16e-05
1846	1.28e-05
1858	4.16e-05
1870	1.92e-05
1882	5.44e-05
1894	5.76e-05
1906	5.44e-05
1918	4.16e-05
1930	5.44e-05
1942	4.48e-05
1954	6.72e-05
1966	4.48e-05
1978	3.52e-05
1990	3.84e-05
2002	5.44e-05
2014	5.76e-05
2026	7.36e-05
2038	7.36e-05
2050	6.08e-05
2062	7.36e-05
2074	6.4e-05
2086	0.0001152
2098	0.0001664
2110	0.0003136
2122	0.0003584
2134	0.0001632
2146	7.36e-05
2158	7.04e-05
2170	4.48e-05
2182	3.52e-05
2194	5.44e-05
2206	6.72e-05
2218	5.44e-05
2230	5.76e-05
2242	5.12e-05
2254	6.08e-05
2266	1.92e-05
2278	4.16e-05
2290	3.2e-05
2302	2.24e-05
2314	1.28e-05
2326	1.28e-05
2338	2.56e-05
2350	4.16e-05
2362	2.56e-05
2374	6.08e-05
2386	5.12e-05
2398	3.84e-05
2410	1.92e-05
2422	3.2e-05
2434	3.84e-05
2446	9.6e-06
2458	2.24e-05
2470	2.24e-05
2482	2.56e-05
2494	9.6e-06
2506	4.16e-05
2518	6.4e-05
2530	6.72e-05
2542	8.32e-05
2554	8.32e-05
2566	9.6e-05
2578	9.28e-05
2590	0.0001056
2602	0.0001344
2614	0.0001632
2626	0.0001664
2638	0.0001856
2650	0.0002304
2662	0.0002784
2674	0.0002816
2686	0.000336
2698	0.0003328
2710	0.0002656
2722	0.0002912
2734	0.0002976
2746	0.0003136
2758	0.0003552
2770	0.0003968
2782	0.0004992
2794	0.0006592
2806	0.0008832
2818	0.0011808
2830	0.0016768
2842	0.0030208
2854	0.0077664
2866	0.0114848
2878	0.0073056
2890	0.0059872
2902	0.007824
2914	0.0135488
2926	0.0266496
2938	0.0295072
2950	0.0158592
2962	0.0085984
2974	0.0054912
2986	0.0025696
2998	0.0015104
3010	0.0010208
3022	0.0007616
3034	0.0005632
3046	0.0004512
3058	0.0003008
3070	0.0002624
3082	0.00024
3094	0.0002272
3106	0.0002144
3118	0.000192
3130	0.00016
3142	0.0001184
3154	0.0001408
3166	0.0001344
3178	0.0001152
3190	0.0001152
3202	8.64e-05
3214	0.0001184
3226	7.04e-05
3238	0.0001024
3250	8.96e-05
3262	0.0001472
3274	0.0002304
3286	0.0004096
3298	0.000672
3310	0.0012288
3322	0.0018624
3334	0.0018496
3346	0.0006176
3358	0.0003072
3370	0.00016
3382	0.0001184
3394	6.08e-05
3406	0.0001056
3418	6.4e-05
3430	4.8e-05
3442	9.92e-05
3454	0.0001248
3466	2.88e-05
3478	6.72e-05
3490	3.84e-05
3502	9.6e-06
3514	6.08e-05
3526	1.92e-05
3538	7.36e-05
3550	0
3562	3.52e-05
3574	3.52e-05
3586	2.88e-05
3598	8.96e-05
3610	5.44e-05
3622	9.28e-05
3634	0.0001088
3646	8.32e-05
3658	6.08e-05
3670	5.76e-05
3682	9.28e-05
3694	8.32e-05
3706	8.96e-05
3718	9.28e-05
3730	3.2e-06
3742	5.12e-05
3754	0.0001248
3766	0.0001504
3778	0.0001344
3790	9.6e-05
3802	7.04e-05
3814	0.0001056
3826	5.12e-05
3838	7.68e-05
