Infrared Spectrum: 1-Pentadecanol
Formula: C 15 H 32 O
CAS: 629-76-5
State: gas
Instrument: HP-GC/MS/IRD
Origin: NIST Mass Spectrometry Data Center
1/CM	ABSORBANCE
550	0.0001232
562	0.0002233
574	6.93e-05
586	5.39e-05
598	0.0001232
610	0.0001078
622	0.0002156
634	0.0001078
646	0.0001309
658	0.0001386
670	0.000154
682	0.000308
694	0.0005159
706	0.0008624
718	0.0012012
730	0.0010703
742	0.0007623
754	0.0006314
766	0.0005467
778	0.0004928
790	0.0004697
802	0.0004312
814	0.0004466
826	0.0004004
838	0.0004774
850	0.0005929
862	0.0006468
874	0.0007315
886	0.0008547
898	0.0009163
910	0.0010318
922	0.0010087
934	0.0010857
946	0.0012397
958	0.0014168
970	0.0016324
982	0.0019558
994	0.0025333
1006	0.0032417
1018	0.0042735
1030	0.0057134
1042	0.0066836
1054	0.006468
1066	0.0049665
1078	0.0036267
1090	0.0024178
1102	0.0016401
1114	0.0012397
1126	0.0010318
1138	0.0008932
1150	0.0008855
1162	0.0009394
1174	0.0009471
1186	0.0010318
1198	0.0011088
1210	0.001155
1222	0.0012782
1234	0.0013321
1246	0.0014014
1258	0.0014784
1270	0.00154
1282	0.0015939
1294	0.0017556
1306	0.0018865
1318	0.0017787
1330	0.0018557
1342	0.0024024
1354	0.0028336
1366	0.0026565
1378	0.0026796
1390	0.0025025
1402	0.0017633
1414	0.0014091
1426	0.0014784
1438	0.0023485
1450	0.0040733
1462	0.0052591
1474	0.0035112
1486	0.001617
1498	0.0008393
1510	0.000539
1522	0.000385
1534	0.0003003
1546	0.0002387
1558	0.0002002
1570	0.0001617
1582	0.000154
1594	0.0001155
1606	7.7e-05
1618	9.24e-05
1630	8.47e-05
1642	4.62e-05
1654	4.62e-05
1666	4.62e-05
1678	4.62e-05
1690	4.62e-05
1702	3.08e-05
1714	7.7e-06
1726	7.7e-06
1738	0
1750	3.08e-05
1762	0
1774	3.08e-05
1786	1.54e-05
1798	0
1810	1.54e-05
1822	2.31e-05
1834	2.31e-05
1846	2.31e-05
1858	0
1870	7.7e-06
1882	0
1894	1.54e-05
1906	1.54e-05
1918	2.31e-05
1930	4.62e-05
1942	4.62e-05
1954	2.31e-05
1966	3.85e-05
1978	3.08e-05
1990	3.85e-05
2002	6.16e-05
2014	6.93e-05
2026	0.0001155
2038	0.0001463
2050	0.0001155
2062	8.47e-05
2074	6.16e-05
2086	6.93e-05
2098	5.39e-05
2110	3.85e-05
2122	3.08e-05
2134	3.85e-05
2146	3.08e-05
2158	6.16e-05
2170	3.85e-05
2182	5.39e-05
2194	5.39e-05
2206	6.93e-05
2218	5.39e-05
2230	4.62e-05
2242	5.39e-05
2254	5.39e-05
2266	5.39e-05
2278	6.93e-05
2290	5.39e-05
2302	7.7e-05
2314	0.0001001
2326	7.7e-05
2338	7.7e-05
2350	9.24e-05
2362	6.93e-05
2374	8.47e-05
2386	8.47e-05
2398	9.24e-05
2410	0.0001155
2422	0.0001001
2434	0.0001309
2446	0.0001155
2458	0.0001001
2470	0.0001001
2482	0.0001001
2494	0.0001232
2506	0.0001463
2518	0.0001617
2530	0.0002079
2542	0.000231
2554	0.0002387
2566	0.0002618
2578	0.0002772
2590	0.0003234
2602	0.0003542
2614	0.0004004
2626	0.0004697
2638	0.0005159
2650	0.0006006
2662	0.0007161
2674	0.0008008
2686	0.0008778
2698	0.0008624
2710	0.000847
2722	0.0008932
2734	0.0009856
2746	0.0011011
2758	0.0012166
2770	0.0013629
2782	0.0016555
2794	0.0020482
2806	0.0025718
2818	0.0034342
2830	0.0048972
2842	0.008393
2854	0.0197967
2866	0.0289058
2878	0.0211442
2890	0.0180103
2902	0.022176
2914	0.0356741
2926	0.0659197
2938	0.0707784
2950	0.0373142
2962	0.0224609
2974	0.0148148
2986	0.0070378
2998	0.0040887
3010	0.0027335
3022	0.0019404
3034	0.0014784
3046	0.0011011
3058	0.0008547
3070	0.0006853
3082	0.0006083
3094	0.0005082
3106	0.0004851
3118	0.0004235
3130	0.0003619
3142	0.0003542
3154	0.0003003
3166	0.0003234
3178	0.0002541
3190	0.0002233
3202	0.0002079
3214	0.0001694
3226	0.0001617
3238	0.0001309
3250	0.0001155
3262	9.24e-05
3274	7.7e-05
3286	9.24e-05
3298	6.93e-05
3310	7.7e-05
3322	8.47e-05
3334	0.0001078
3346	6.16e-05
3358	6.93e-05
3370	5.39e-05
3382	0.0001155
3394	7.7e-05
3406	6.16e-05
3418	0.0001155
3430	5.39e-05
3442	0.0001001
3454	5.39e-05
3466	9.24e-05
3478	8.47e-05
3490	0.0001001
3502	7.7e-05
3514	0.0001001
3526	6.93e-05
3538	4.62e-05
3550	6.16e-05
3562	7.7e-05
3574	8.47e-05
3586	8.47e-05
3598	0.0001309
3610	0.0001848
3622	0.0002695
3634	0.000462
3646	0.0008085
3658	0.0015169
3670	0.0017787
3682	0.001078
3694	0.0005236
3706	0.0003157
3718	0.0002387
3730	0.0002464
3742	0.0001617
3754	0.0001386
3766	0.000154
3778	0.0001925
3790	0.0001694
3802	0.0002156
3814	0.0001925
3826	0.0001925
3838	0.0002541
