Infrared Spectrum: Ethylacetoacetate propyleneglycol ketal
Formula: C 9 H 16 O 4
CAS: 6290-17-1
State: gas
Origin: EPA-IR VAPOR PHASE LIBRARY
1/CM	ABSORBANCE
549.8	0.0019197
559.445	0.0017781
569.09	0.0016459
578.735	0.0017604
588.38	0.0018158
598.025	0.0017381
607.67	0.0019653
617.315	0.0016374
626.96	0.0013301
636.605	0.0013588
646.251	0.000865
655.896	0.0012867
665.541	0.00216
675.186	0.00253
684.831	0.0016395
694.476	0.001231
704.121	0.0012242
713.766	0.0012506
723.411	0.0016404
733.056	0.0018645
742.701	0.00238
752.346	0.00276
761.991	0.00317
771.636	0.00289
781.281	0.0029
790.926	0.00291
800.571	0.00332
810.216	0.00348
819.861	0.00405
829.507	0.00498
839.152	0.0062
848.797	0.00667
858.442	0.00736
868.087	0.00839
877.732	0.00746
887.377	0.00534
897.022	0.00468
906.667	0.00575
916.312	0.00689
925.957	0.00786
935.602	0.00883
945.247	0.00855
954.892	0.00932
964.537	0.01083
974.182	0.00845
983.827	0.00548
993.472	0.005
1003.12	0.00656
1012.76	0.01092
1022.41	0.02139
1032.05	0.0379
1041.7	0.04719
1051.34	0.04203
1060.99	0.03167
1070.63	0.02831
1080.28	0.03576
1089.92	0.0465
1099.57	0.04984
1109.21	0.04445
1118.86	0.03798
1128.5	0.03408
1138.15	0.03357
1147.79	0.03224
1157.44	0.03025
1167.08	0.03403
1176.73	0.04533
1186.37	0.05364
1196.02	0.04861
1205.66	0.0398
1215.31	0.03876
1224.95	0.04276
1234.6	0.04594
1244.24	0.04327
1253.89	0.03462
1263.53	0.0275
1273.18	0.02324
1282.82	0.02085
1292.47	0.02124
1302.11	0.0237
1311.76	0.02708
1321.4	0.02911
1331.05	0.02622
1340.69	0.02027
1350.34	0.01443
1359.98	0.01352
1369.63	0.02205
1379.27	0.02536
1388.92	0.01846
1398.56	0.01001
1408.21	0.00659
1417.85	0.00627
1427.5	0.00688
1437.14	0.00725
1446.79	0.00808
1456.43	0.0084
1466.08	0.00759
1475.73	0.00618
1485.37	0.00426
1495.02	0.00277
1504.66	0.00215
1514.31	0.0016974
1523.95	0.0016196
1533.6	0.0014474
1543.24	0.001454
1552.89	0.0013797
1562.53	0.0013557
1572.18	0.0012729
1581.82	0.0013239
1591.47	0.0013826
1601.11	0.0013092
1610.76	0.0013562
1620.4	0.0014384
1630.05	0.0014286
1639.69	0.0014315
1649.34	0.001611
1658.98	0.0017875
1668.63	0.002
1678.27	0.00229
1687.92	0.00294
1697.56	0.00391
1707.21	0.00539
1716.85	0.00784
1726.5	0.01231
1736.14	0.02581
1745.79	0.05235
1755.43	0.06481
1765.08	0.04105
1774.72	0.01786
1784.37	0.00833
1794.01	0.00478
1803.66	0.00317
1813.3	0.00243
1822.95	0.00203
1832.59	0.0017712
1842.24	0.001684
1851.88	0.0015469
1861.53	0.0014054
1871.17	0.0014111
1880.82	0.0013944
1890.46	0.0014644
1900.11	0.0012758
1909.75	0.0012704
1919.4	0.0012121
1929.04	0.0012047
1938.69	0.0011983
1948.33	0.0012043
1957.98	0.0011547
1967.62	0.001165
1977.27	0.0010067
1986.91	0.00100895
1996.56	0.000999315
2006.2	0.0009068
2015.85	0.0009063
2025.49	0.0009718
2035.14	0.0009604
2044.78	0.0009783
2054.43	0.00102393
2064.07	0.00103607
2073.72	0.00109762
2083.36	0.00099092
2093.01	0.00104028
2102.65	0.000893
2112.3	0.0009091
2121.94	0.0009076
2131.59	0.000802
2141.23	0.000836
2150.88	0.000695
2160.52	0.000761
2170.17	0.000742
2179.81	0.000673
2189.46	0.000674
2199.1	0.000612
2208.75	0.000681
2218.39	0.000727
2228.04	0.000719
2237.68	0.000728
2247.33	0.000712
2256.97	0.000707
2266.62	0.000657
2276.26	0.000626
2285.91	0.000612
2295.55	0.000639
2305.2	0.000656
2314.84	0.000613
2324.49	0.000717
2334.13	0.000659
2343.78	0.000652
2353.42	0.000559
2363.07	0.000735
2372.72	0.000641
2382.36	0.000614
2392.01	0.000563
2401.65	0.000581
2411.3	0.00054
2420.94	0.000605
2430.59	0.000573
2440.23	0.000461
2449.88	0.000519
2459.52	0.000568
2469.17	0.000546
2478.81	0.000594
2488.46	0.000665
2498.1	0.000434
2507.75	0.000547
2517.39	0.000527
2527.04	0.000528
2536.68	0.000474
2546.33	0.000552
2555.97	0.000481
2565.62	0.00049
2575.26	0.000378
2584.91	0.000599
2594.55	0.00052
2604.2	0.000612
2613.84	0.000695
2623.49	0.000632
2633.13	0.000547
2642.78	0.0007
2652.42	0.000709
2662.07	0.000667
2671.71	0.00073
2681.36	0.00068
2691	0.000767
2700.65	0.000888
2710.29	0.000886
2719.94	0.000888
2729.58	0.00104115
2739.23	0.00108275
2748.87	0.00109302
2758.52	0.0010932
2768.16	0.0011587
2777.81	0.001265
2787.45	0.0012621
2797.1	0.0013691
2806.74	0.0014471
2816.39	0.0018922
2826.03	0.00226
2835.68	0.00285
2845.32	0.00387
2854.97	0.00594
2864.61	0.00988
2874.26	0.0149
2883.9	0.01681
2893.55	0.01525
2903.19	0.01457
2912.84	0.01431
2922.48	0.01469
2932.13	0.01969
2941.77	0.02501
2951.42	0.02144
2961.06	0.01837
2970.71	0.02376
2980.35	0.03604
2990	0.03817
2999.64	0.02676
3009.29	0.01464
3018.93	0.00713
3028.58	0.004
3038.22	0.00262
3047.87	0.0019371
3057.51	0.0015017
3067.16	0.00126
3076.8	0.0011533
3086.45	0.0010999
3096.09	0.0011219
3105.74	0.00104228
3115.38	0.000885
3125.03	0.0009053
3134.67	0.0009264
3144.32	0.000492
3153.96	0.000594
3163.61	0.000655
3173.25	0.000775
3182.9	0.0009244
3192.54	0.000689
3202.19	0.0006
3211.83	0.000498
3221.48	0.000436
3231.12	0.00043
3240.77	0.000617
3250.41	0.000328
3260.06	0.000439
3269.7	0.000194
3279.35	0.000311
3289	0.000245
3298.64	0.000354
3308.29	0.000272
3317.93	0.000236
3327.58	0.000223
3337.22	0.000308
3346.87	0
3356.51	0.000154
3366.16	0.000366
3375.8	0.000278
3385.45	0.000377
3395.09	0.000284
3404.74	0.000411
3414.38	0.000162
3424.03	0.000173
3433.67	0.000262
3443.32	0.000375
3452.96	0.000267
3462.61	0.000436
3472.25	0.000674
3481.9	0.000794
3491.54	0.000696
3501.19	0.00072
3510.83	0.000591
3520.48	0.000305
3530.12	0.000186
3539.77	0.000199
3549.41	0.00035
3559.06	0.000286
3568.7	0.000225
3578.35	8.8e-05
3587.99	0.000325
3597.64	0.000248
3607.28	0.000152
3616.93	0.000156
3626.57	0.000498
3636.22	0.000354
3645.86	0.000339
3655.51	0.000474
3665.15	0.000326
3674.8	0.00025
3684.44	0.000353
3694.09	0.000388
3703.73	7.7e-05
3713.38	0.000239
3723.02	0.000439
3732.67	0.000452
3742.31	0.000269
3751.96	0.000389
3761.6	0.00022
3771.25	0.000243
3780.89	0.000372
3790.54	0.000413
3800.18	0.000469
3809.83	0.000235
3819.47	0.000313
3829.12	0.00023
3838.76	0.000349
3848.41	0.000376
3858.05	0.000422
3867.7	0.000382
3877.34	0.000241
3886.99	0.000577
3896.63	0.000299
3906.28	0.000516
3915.92	0.000293
3925.57	0.000253
3935.21	0.00054
3944.86	0.000356
3954.5	0.000106
3964.15	0.000295
3973.79	0.000349
3983.44	0.000259
3993.08	0.000399
