Infrared Spectrum: N-(Hydroxymethyl)phenylacetamide
Formula: C 9 H 11 N O 2
CAS: 6291-06-1
State: gas
Origin: EPA-IR VAPOR PHASE LIBRARY
1/CM	ABSORBANCE
549.8	0.00296
559.445	0.00491
569.09	0.00472
578.734	0.00322
588.379	0.0024
598.024	0.00197
607.669	0.00155
617.313	0.00206
626.958	0.00178
636.603	0.00179
646.248	0.00138
655.893	0.00155
665.537	0.0021
675.182	0.00257
684.827	0.00428
694.472	0.00649
704.116	0.00698
713.761	0.00581
723.406	0.00556
733.051	0.00662
742.695	0.00572
752.34	0.00366
761.985	0.00219
771.63	0.00214
781.275	0.00194
790.919	0.002
800.564	0.00195
810.209	0.00228
819.854	0.00203
829.498	0.002
839.143	0.00223
848.788	0.00218
858.433	0.00187
868.078	0.00166
877.722	0.00165
887.367	0.0012716
897.012	0.00147
906.657	0.0013498
916.301	0.00147
925.946	0.00143
935.591	0.0013232
945.236	0.0008689
954.88	0.0011369
964.525	0.0012827
974.17	0.0008508
983.815	0.0004961
993.46	0.0007859
1003.1	0.000812
1012.75	0.0005788
1022.39	0.0013177
1032.04	0.0010929
1041.68	0.000806
1051.33	0.0009014
1060.97	0.0012696
1070.62	0.00203
1080.26	0.00235
1089.91	0.001029
1099.55	0.00139
1109.2	0.000863
1118.84	0.0010986
1128.49	0.000224
1138.13	0.0012356
1147.78	0.000827
1157.42	0.0008357
1167.07	0.00153
1176.71	0.0011255
1186.36	0.00159
1196	0.00175
1205.64	0.0011999
1215.29	0.00142
1224.93	0.0017
1234.58	0.00173
1244.22	0.00227
1253.87	0.00267
1263.51	0.00307
1273.16	0.003
1282.8	0.00338
1292.45	0.00366
1302.09	0.00451
1311.74	0.0062
1321.38	0.00836
1331.03	0.00949
1340.67	0.009
1350.32	0.00734
1359.96	0.00544
1369.61	0.00386
1379.25	0.00258
1388.9	0.00187
1398.54	0.00143
1408.18	0.0012976
1417.83	0.0013479
1427.47	0.0016
1437.12	0.00191
1446.76	0.00202
1456.41	0.00183
1466.05	0.0013339
1475.7	0.0010423
1485.34	0.00189
1494.99	0.00324
1504.63	0.00261
1514.28	0.0009657
1523.92	0.0008384
1533.57	0.0009985
1543.21	0.00132
1552.86	0.00201
1562.5	0.00349
1572.15	0.00663
1581.79	0.01092
1591.44	0.01122
1601.08	0.00759
1610.73	0.00432
1620.37	0.00266
1630.01	0.00208
1639.66	0.00191
1649.3	0.00193
1658.95	0.00203
1668.59	0.00254
1678.24	0.00358
1687.88	0.00532
1697.53	0.00833
1707.17	0.01312
1716.82	0.02109
1726.46	0.03224
1736.11	0.03326
1745.75	0.02223
1755.4	0.01429
1765.04	0.00867
1774.69	0.00449
1784.33	0.00245
1793.98	0.00172
1803.62	0.0013304
1813.27	0.0010673
1822.91	0.0008101
1832.55	0.0007499
1842.2	0.0005977
1851.84	0.0006637
1861.49	0.0007215
1871.13	0.0007649
1880.78	0.0007056
1890.42	0.0007083
1900.07	0.0006751
1909.71	0.0006517
1919.36	0.0006417
1929	0.0006976
1938.65	0.0007611
1948.29	0.0007945
1957.94	0.0006802
1967.58	0.0005348
1977.23	0.00045558
1986.87	0.0004861
1996.52	0.00046346
2006.16	0.00046997
2015.81	0.00039402
2025.45	0.00042056
2035.1	0.0002995
2044.74	0.00036616
2054.38	0.00041556
2064.03	0.00036563
2073.67	0.00040723
2083.32	0.00038416
2092.96	0.000377931
2102.61	0.00041964
2112.25	0.0003285
2121.9	0.00039641
2131.54	0.0004531
2141.19	0.00043132
2150.83	0.00043376
2160.48	0.000375683
2170.12	0.000427
2179.77	0.00046869
2189.41	0.0004728
2199.06	0.0004747
2208.7	0.00043791
2218.35	0.00044512
2227.99	0.00041437
2237.64	0.00042117
2247.28	0.00040921
2256.92	0.0004365
2266.57	0.0003271
2276.21	0.0003539
2285.86	0.0004606
2295.5	0.00038013
2305.15	0.0004715
2314.79	0.00038596
2324.44	0.0005262
2334.08	0.0005844
2343.73	0.0004724
2353.37	0.0004856
2363.02	0.00046526
2372.66	0.000373714
2382.31	0.0003441
2391.95	0.00045861
2401.6	0.00046277
2411.24	0.0003579
2420.89	0.00045243
2430.53	0.00045706
2440.18	0.00043821
2449.82	0.00038633
2459.47	0.0003412
2469.11	0.000303
2478.75	0.0002862
2488.4	0.0004521
2498.04	0.000371831
2507.69	0.0003322
2517.33	0.0003205
2526.98	0.0002909
2536.62	0.0003063
2546.27	0.0003347
2555.91	0.0004076
2565.56	0.00042906
2575.2	0.00041516
2584.85	0.00043008
2594.49	0.00043067
2604.14	0.00039741
2613.78	0.0003456
2623.43	0.00038548
2633.07	0.0005231
2642.72	0.0003027
2652.36	0.00036643
2662.01	0.0004782
2671.65	0.00042374
2681.29	0.00045101
2690.94	0.0003528
2700.58	0.000254
2710.23	0.0003244
2719.87	0.00044953
2729.52	0.00043596
2739.16	0.00040676
2748.81	0.000377861
2758.45	0.0003546
2768.1	0.00038222
2777.74	0.0004863
2787.39	0.00036507
2797.03	0.0005433
2806.68	0.0004804
2816.32	0.0005122
2825.97	0.0006523
2835.61	0.0006377
2845.26	0.0004985
2854.9	0.000534
2864.55	0.0008081
2874.19	0.0005829
2883.84	0.0008232
2893.48	0.0007862
2903.12	0.0009873
2912.77	0.00147
2922.41	0.00156
2932.06	0.00183
2941.7	0.00174
2951.35	0.00152
2960.99	0.00142
2970.64	0.0009502
2980.28	0.0006548
2989.93	0.0007232
2999.57	0.0009391
3009.22	0.00143
3018.86	0.00233
3028.51	0.00375
3038.15	0.00415
3047.8	0.00305
3057.44	0.0027
3067.09	0.00392
3076.73	0.00439
3086.38	0.00303
3096.02	0.00203
3105.67	0.00163
3115.31	0.0010182
3124.95	0.0005942
3134.6	0.0006571
3144.24	0.0002788
3153.89	0.0004738
3163.53	0.0004729
3173.18	0.0006155
3182.82	0.0005285
3192.47	0.0004722
3202.11	0.0005016
3211.76	0.00040798
3221.4	0.0002976
3231.05	0.0004774
3240.69	0.0004921
3250.34	0.0005156
3259.98	0.0003418
3269.63	0.000376746
3279.27	0.00041367
3288.92	0.000213
3298.56	0.0004283
3308.21	0.00043281
3317.85	0.00038928
3327.49	0.0002854
3337.14	0.000526
3346.78	0.000552
3356.43	0.00046886
3366.07	0.000288
3375.72	0.0006083
3385.36	0.0008091
3395.01	0.0010924
3404.65	0.00152
3414.3	0.00199
3423.94	0.00275
3433.59	0.00306
3443.23	0.00242
3452.88	0.00166
3462.52	0.0011395
3472.17	0.0010954
3481.81	0.0007378
3491.46	0.0012359
3501.1	0.00159
3510.75	0.00164
3520.39	0.00235
3530.04	0.00282
3539.68	0.0037
3549.32	0.00409
3558.97	0.00311
3568.61	0.00148
3578.26	0.0009239
3587.9	0.0005747
3597.55	0.0005033
3607.19	0.000374133
3616.84	0.00046892
3626.48	0.0003376
3636.13	0.0003047
3645.77	0.0005441
3655.42	0.00037261
3665.06	0.000204
3674.71	0.000504
3684.35	0.0002987
3694	0.00040087
3703.64	0.0002952
3713.29	0.0004737
3722.93	0.0002946
3732.58	0.0003975
3742.22	0.000231
3751.86	0.00045522
3761.51	0.00023
3771.15	0.00046058
3780.8	0.00042592
3790.44	0.000264
3800.09	0.0005139
3809.73	0.00043432
3819.38	0.0003867
3829.02	0.000378807
3838.67	0.000379947
3848.31	7.2e-05
3857.96	0.000371724
3867.6	0.000153
3877.25	0.0005758
3886.89	0.000189
3896.54	0.0003301
3906.18	0.00040529
3915.83	0.00043505
3925.47	9.5e-05
3935.12	0.0002947
3944.76	0.000149
3954.41	0.0005622
3964.05	0.00045691
3973.69	0.0004906
3983.34	0.0003418
3992.98	0.0003574
