Infrared Spectrum: 4-P-HYDROXYPHENYLMORPHOLINE
Formula: C10 H13 N O2
CAS: 6291-23-2
State: SOLID (PELLET)
Class: COBLENTZ
Instrument: Not specified, most likely a prism, grating, or hybrid spectrometer.
Sampling: TRANSMISSION
Resolution: 4
Origin: TENNESSEE EASTMAN COMPANY, RESEARCH LABORATORIES
MICROMETERS	TRANSMITTANCE
2.027	0.757
2.06678	0.759
2.10655	0.76
2.14633	0.769
2.18611	0.77
2.22589	0.779
2.26566	0.784
2.30544	0.789
2.34522	0.799
2.38499	0.802
2.42477	0.802
2.46455	0.807
2.50433	0.813
2.5441	0.817
2.58388	0.822
2.62366	0.822
2.66343	0.823
2.70321	0.827
2.74299	0.827
2.78277	0.803
2.82254	0.789
2.86232	0.742
2.9021	0.642
2.94187	0.486
2.98165	0.154
3.02143	0.302
3.06121	0.504
3.10098	0.602
3.14076	0.709
3.18054	0.764
3.22031	0.803
3.26009	0.812
3.29987	0.799
3.33965	0.81
3.37942	0.7
3.4192	0.642
3.45898	0.687
3.49875	0.717
3.53853	0.546
3.57831	0.802
3.61808	0.815
3.65786	0.82
3.69764	0.84
3.73742	0.838
3.77719	0.855
3.81697	0.86
3.85675	0.875
3.89652	0.88
3.9363	0.878
3.97608	0.88
4.01586	0.89
4.05563	0.895
4.09541	0.892
4.13519	0.893
4.17496	0.893
4.21474	0.906
4.25452	0.921
4.2943	0.903
4.33407	0.898
4.37385	0.903
4.41363	0.928
4.4534	0.928
4.49318	0.93
4.53296	0.931
4.57274	0.936
4.61251	0.935
4.65229	0.935
4.69207	0.938
4.73184	0.935
4.77162	0.928
4.8114	0.93
4.85118	0.93
4.89095	0.93
4.93073	0.93
4.97051	0.931
5.01028	0.945
5.05006	0.948
5.08984	0.938
5.12962	0.926
5.16939	0.93
5.20917	0.935
5.24895	0.936
5.28872	0.94
5.3285	0.943
5.36828	0.94
5.40806	0.915
5.44783	0.905
5.48761	0.923
5.52739	0.935
5.56716	0.936
5.60694	0.925
5.64672	0.928
5.6865	0.928
5.72627	0.913
5.76605	0.906
5.80583	0.913
5.8456	0.901
5.88538	0.901
5.92516	0.901
5.96494	0.888
6.00471	0.887
6.04449	0.895
6.08427	0.863
6.12404	0.875
6.16382	0.872
6.2036	0.845
6.24338	0.88
6.28315	0.845
6.32293	0.9
6.36271	0.898
6.40248	0.89
6.44226	0.865
6.48204	0.687
6.52181	0.388
6.56159	0.079
6.60137	0.352
6.64115	0.704
6.68092	0.82
6.7207	0.842
6.76048	0.84
6.80025	0.805
6.84003	0.7
6.87981	0.375
6.91959	0.559
6.95936	0.78
6.99914	0.842
7.03892	0.85
7.07869	0.865
7.11847	0.868
7.15825	0.843
7.19803	0.75
7.2378	0.699
7.27758	0.637
7.31736	0.558
7.35713	0.662
7.39691	0.805
7.43669	0.827
7.47647	0.669
7.51624	0.794
7.55602	0.789
7.5958	0.812
7.63557	0.775
7.67535	0.599
7.71513	0.78
7.75491	0.828
7.79468	0.802
7.83446	0.584
7.87424	0.428
7.91401	0.323
7.95379	0.199
7.99357	0.528
8.03335	0.548
8.07312	0.217
8.1129	0.217
8.15268	0.408
8.19245	0.294
8.23223	0.26
8.27201	0.403
8.31179	0.536
8.35156	0.649
8.39134	0.684
8.43112	0.611
8.47089	0.495
8.51067	0.551
8.55045	0.705
8.59023	0.799
8.63	0.83
8.66978	0.842
8.70956	0.845
8.74933	0.848
8.78911	0.845
8.82889	0.79
8.86867	0.73
8.90844	0.607
8.94822	0.325
8.988	0.157
9.02777	0.453
9.06755	0.689
9.10733	0.799
9.14711	0.845
9.18688	0.86
9.22666	0.862
9.26644	0.862
9.30621	0.843
9.34599	0.586
9.38577	0.637
9.42555	0.797
9.46532	0.794
9.5051	0.7
9.54488	0.785
9.58465	0.852
9.62443	0.832
9.66421	0.815
9.70398	0.867
9.74376	0.888
9.78354	0.901
9.82332	0.905
9.86309	0.905
9.90287	0.905
9.94265	0.905
9.98242	0.905
10.0222	0.91
10.062	0.911
10.1018	0.911
10.1415	0.913
10.1813	0.913
10.2211	0.913
10.2609	0.913
10.3006	0.915
10.3404	0.915
10.3802	0.915
10.42	0.915
10.4598	0.913
10.4995	0.911
10.5393	0.906
10.5791	0.888
10.6189	0.852
10.6586	0.767
10.6984	0.543
10.7382	0.483
10.778	0.382
10.8177	0.169
10.8575	0.239
10.8973	0.614
10.9371	0.742
10.9769	0.732
11.0166	0.799
11.0564	0.868
11.0962	0.898
11.136	0.908
11.1757	0.915
11.2155	0.916
11.2553	0.918
11.2951	0.918
11.3348	0.925
11.3746	0.93
11.4144	0.931
11.4542	0.931
11.494	0.923
11.5337	0.908
11.5735	0.873
11.6133	0.684
11.6531	0.574
11.6928	0.765
11.7326	0.83
11.7724	0.852
11.8122	0.858
11.8519	0.852
11.8917	0.803
11.9315	0.735
11.9713	0.699
12.0111	0.699
12.0508	0.702
12.0906	0.694
12.1304	0.644
12.1702	0.511
12.2099	0.368
12.2497	0.275
12.2895	0.279
12.3293	0.441
12.3691	0.514
12.4088	0.717
12.4486	0.815
12.4884	0.863
12.5282	0.88
12.5679	0.9
12.6077	0.91
12.6475	0.92
12.6873	0.93
12.727	0.936
12.7668	0.94
12.8066	0.938
12.8464	0.936
12.8862	0.935
12.9259	0.93
12.9657	0.93
13.0055	0.933
13.0453	0.935
13.085	0.936
13.1248	0.936
13.1646	0.935
13.2044	0.926
13.2441	0.918
13.2839	0.915
13.3237	0.913
13.3635	0.915
13.4033	0.916
13.443	0.916
13.4828	0.916
13.5226	0.916
13.5624	0.908
13.6021	0.9
13.6419	0.895
13.6817	0.882
13.7215	0.87
13.7613	0.853
13.801	0.82
13.8408	0.747
13.8806	0.681
13.9204	0.691
13.9601	0.755
13.9999	0.787
14.0397	0.792
14.0795	0.777
14.1192	0.739
14.159	0.709
14.1988	0.707
14.2386	0.724
14.2784	0.745
14.3181	0.749
14.3579	0.749
14.3977	0.734
14.4375	0.715
14.4772	0.699
14.517	0.689
14.5568	0.679
14.5966	0.672
14.6363	0.671
14.6761	0.671
14.7159	0.672
14.7557	0.676
14.7955	0.679
14.8352	0.686
14.875	0.689
14.9148	0.694
14.9546	0.691
14.9943	0.679
15.0341	0.674
15.0739	0.681
15.1137	0.687
15.1535	0.689
15.1932	0.689
15.233	0.689
15.2728	0.687
15.3126	0.687
15.3523	0.684
15.3921	0.681
15.4319	0.679
15.4717	0.671
15.5114	0.661
15.5512	0.652
15.591	0.647
15.6308	0.642
15.6706	0.639
15.7103	0.634
15.7501	0.624
15.7899	0.614
15.8297	0.604
15.8694	0.594
15.9092	0.588
15.949	0.579
15.9888	0.578
