Infrared Spectrum: PHENETHYLAMINE, Alpha-METHYL-3,4-(METHYLENEDIOXY)-, HYDROCHLORIDE
Formula: C10 H14 Cl N O2
CAS: 6292-91-7
State: SOLID (NUJOL MULL)
Class: COBLENTZ III
Instrument: PERKIN-ELMER 21 (GRATING)
Instrument parameters: NaCl PRISM
Sampling: TRANSMISSION
Resolution: 2
Origin: SMITH KLINE & FRENCH LABS.
MICROMETERS	TRANSMITTANCE
1.988	0.445
2.02223	0.448
2.05646	0.462
2.09069	0.469
2.12492	0.476
2.15915	0.489
2.19337	0.489
2.2276	0.498
2.26183	0.518
2.29606	0.504
2.33029	0.463
2.36452	0.448
2.39875	0.462
2.43298	0.485
2.46721	0.496
2.50144	0.525
2.53566	0.557
2.56989	0.568
2.60412	0.58
2.63835	0.592
2.67258	0.604
2.70681	0.624
2.74104	0.643
2.77527	0.653
2.8095	0.677
2.84373	0.683
2.87795	0.701
2.91218	0.714
2.94641	0.72
2.98064	0.731
3.01487	0.748
3.0491	0.766
3.08333	0.774
3.11756	0.761
3.15179	0.72
3.18602	0.699
3.22024	0.639
3.25447	0.537
3.2887	0.453
3.32293	0.294
3.35716	0.171
3.39139	0.071
3.42562	0.057
3.45985	0.057
3.49408	0.046
3.52831	0.051
3.56253	0.051
3.59676	0.093
3.63099	0.198
3.66522	0.256
3.69945	0.261
3.73368	0.231
3.76791	0.274
3.80214	0.378
3.83637	0.358
3.8706	0.345
3.90482	0.375
3.93905	0.472
3.97328	0.509
4.00751	0.396
4.04174	0.388
4.07597	0.467
4.1102	0.531
4.14443	0.546
4.17866	0.57
4.21289	0.591
4.24711	0.592
4.28134	0.605
4.31557	0.619
4.3498	0.632
4.38403	0.65
4.41826	0.671
4.45249	0.677
4.48672	0.687
4.52095	0.69
4.55518	0.698
4.5894	0.722
4.62363	0.734
4.65786	0.748
4.69209	0.762
4.72632	0.761
4.76055	0.774
4.79478	0.773
4.82901	0.738
4.86324	0.655
4.89747	0.621
4.93169	0.56
4.96592	0.587
5.00015	0.641
5.03438	0.687
5.06861	0.739
5.10284	0.748
5.13707	0.756
5.1713	0.776
5.20553	0.785
5.23976	0.798
5.27398	0.805
5.30821	0.832
5.34244	0.822
5.37667	0.811
5.4109	0.796
5.44513	0.802
5.47936	0.824
5.51359	0.839
5.54782	0.86
5.58205	0.871
5.61627	0.883
5.6505	0.891
5.68473	0.9
5.71896	0.885
5.75319	0.901
5.78742	0.909
5.82165	0.881
5.85588	0.911
5.89011	0.909
5.92434	0.895
5.95856	0.9
5.99279	0.909
6.02702	0.92
6.06125	0.924
6.09548	0.954
6.12971	0.947
6.16394	0.922
6.19817	0.676
6.2324	0.588
6.26663	0.66
6.30085	0.739
6.33508	0.8
6.36931	0.862
6.40354	0.9
6.43777	0.906
6.472	0.906
6.50623	0.907
6.54046	0.856
6.57469	0.75
6.60892	0.506
6.64314	0.313
6.67737	0.126
6.7116	0.137
6.74583	0.188
6.78006	0.221
6.81429	0.111
6.84852	0.062
6.88275	0.054
6.91698	0.06
6.95121	0.069
6.98543	0.128
7.01966	0.273
7.05389	0.408
7.08812	0.529
7.12235	0.568
7.15658	0.588
7.19081	0.493
7.22504	0.236
7.25927	0.109
7.2935	0.082
7.32772	0.136
7.36195	0.186
7.39618	0.361
7.43041	0.335
7.46464	0.44
7.49887	0.508
7.5331	0.582
7.56733	0.615
7.60156	0.631
7.63579	0.6
7.67001	0.641
7.70424	0.663
7.73847	0.7
7.7727	0.733
7.80693	0.75
7.84116	0.684
7.87539	0.638
7.90962	0.559
7.94385	0.361
7.97808	0.187
8.0123	0.228
8.04653	0.276
8.08076	0.222
8.11499	0.197
8.14922	0.271
8.18345	0.403
8.21768	0.441
8.25191	0.299
8.28614	0.386
8.32037	0.434
8.35459	0.444
8.38882	0.24
8.42305	0.321
8.45728	0.456
8.49151	0.517
8.52574	0.551
8.55997	0.551
8.5942	0.564
8.62843	0.58
8.66266	0.604
8.69688	0.616
8.73111	0.635
8.76534	0.664
8.79957	0.672
8.8338	0.628
8.86803	0.552
8.90226	0.536
8.93649	0.459
8.97072	0.47
9.00495	0.59
9.03917	0.642
9.0734	0.663
9.10763	0.486
9.14186	0.422
9.17609	0.57
9.21032	0.597
9.24455	0.644
9.27878	0.701
9.31301	0.74
9.34724	0.774
9.38146	0.8
9.41569	0.804
9.44992	0.802
9.48415	0.776
9.51838	0.708
9.55261	0.571
9.58684	0.425
9.62107	0.251
9.6553	0.198
9.68953	0.238
9.72375	0.304
9.75798	0.397
9.79221	0.436
9.82644	0.429
9.86067	0.509
9.8949	0.542
9.92913	0.585
9.96336	0.614
9.99759	0.57
10.0318	0.538
10.066	0.588
10.1003	0.637
10.1345	0.665
10.1687	0.673
10.203	0.689
10.2372	0.688
10.2714	0.681
10.3056	0.671
10.3399	0.681
10.3741	0.688
10.4083	0.695
10.4426	0.7
10.4768	0.7
10.511	0.693
10.5453	0.665
10.5795	0.529
10.6137	0.341
10.6479	0.296
10.6822	0.327
10.7164	0.317
10.7506	0.397
10.7849	0.445
10.8191	0.372
10.8533	0.405
10.8875	0.457
10.9218	0.53
10.956	0.591
10.9902	0.638
11.0245	0.681
11.0587	0.708
11.0929	0.729
11.1271	0.71
11.1614	0.649
11.1956	0.658
11.2298	0.715
11.2641	0.761
11.2983	0.774
11.3325	0.793
11.3667	0.801
11.401	0.799
11.4352	0.804
11.4694	0.79
11.5037	0.762
11.5379	0.66
11.5721	0.542
11.6063	0.473
11.6406	0.581
11.6748	0.694
11.709	0.762
11.7433	0.785
11.7775	0.804
11.8117	0.828
11.846	0.839
11.8802	0.854
11.9144	0.854
11.9486	0.841
11.9829	0.804
12.0171	0.716
12.0513	0.725
12.0856	0.81
12.1198	0.83
12.154	0.855
12.1882	0.863
12.2225	0.851
12.2567	0.812
12.2909	0.722
12.3252	0.619
12.3594	0.564
12.3936	0.563
12.4278	0.459
12.4621	0.307
12.4963	0.27
12.5305	0.407
12.5648	0.596
12.599	0.684
12.6332	0.781
12.6674	0.805
12.7017	0.851
12.7359	0.878
12.7701	0.896
12.8044	0.902
12.8386	0.892
12.8728	0.763
12.9071	0.515
12.9413	0.406
12.9755	0.577
13.0097	0.671
13.044	0.732
13.0782	0.781
13.1124	0.799
13.1467	0.829
13.1809	0.832
13.2151	0.838
13.2493	0.839
13.2836	0.847
13.3178	0.85
13.352	0.844
13.3863	0.841
13.4205	0.838
13.4547	0.832
13.4889	0.824
13.5232	0.81
13.5574	0.796
13.5916	0.782
13.6259	0.771
13.6601	0.774
13.6943	0.766
13.7285	0.773
13.7628	0.774
13.797	0.765
13.8312	0.751
13.8655	0.725
13.8997	0.671
13.9339	0.672
13.9682	0.751
14.0024	0.767
14.0366	0.766
14.0708	0.827
14.1051	0.872
14.1393	0.899
14.1735	0.927
14.2078	0.94
14.242	0.952
14.2762	0.959
14.3104	0.97
14.3447	0.973
14.3789	0.981
14.4131	0.984
14.4474	0.985
14.4816	0.991
14.5158	0.993
14.55	0.987
14.5843	0.991
14.6185	0.985
14.6527	0.982
14.687	0.982
14.7212	0.974
14.7554	0.99
14.7896	0.974
14.8239	0.964
14.8581	0.964
14.8923	0.95
14.9266	0.951
14.9608	0.942
14.995	0.939
