Infrared Spectrum: ACETAMIDE, N-(2-FLUORENYL)-
Formula: C15 H13 N O
CAS: 6292-55-3
State: SOLID (NUJOL MULL)
Class: COBLENTZ III
Instrument: BAIRD (GRATING)
Instrument parameters: NaCl PRISM
Sampling: TRANSMISSION
Resolution: 2
Origin: DOW CHEMICAL COMPANY
1/CM	TRANSMITTANCE
631	0.5018
640	0.5254
649	0.5502
658	0.5954
667	0.6079
676	0.6467
685	0.6678
694	0.6865
703	0.7068
712	0.7232
721	0.7053
730	0.2798
739	0.5076
748	0.7035
757	0.6936
766	0.3063
775	0.7615
784	0.7994
793	0.8768
802	0.9036
811	0.9161
820	0.9028
829	0.6861
838	0.6681
847	0.8115
856	0.8846
865	0.843
874	0.7375
883	0.9112
892	0.937
901	0.9312
910	0.909
919	0.8904
928	0.9044
937	0.9173
946	0.8475
955	0.858
964	0.8753
973	0.877
982	0.8252
991	0.8993
1000	0.8244
1009	0.8521
1018	0.8194
1027	0.8061
1036	0.8337
1045	0.8421
1054	0.8875
1063	0.8821
1072	0.8817
1081	0.8806
1090	0.8761
1099	0.8521
1108	0.8702
1117	0.8464
1126	0.8325
1135	0.8544
1144	0.8482
1153	0.853
1162	0.8589
1171	0.8781
1180	0.8545
1189	0.8808
1198	0.8539
1207	0.8815
1216	0.8763
1225	0.8332
1234	0.8608
1243	0.8506
1252	0.8185
1261	0.7591
1270	0.6754
1279	0.7601
1288	0.8005
1297	0.7025
1306	0.7021
1315	0.5226
1324	0.4862
1333	0.7368
1342	0.7193
1351	0.6329
1360	0.6711
1369	0.4247
1378	0.3228
1387	0.5227
1396	0.635
1405	0.5127
1414	0.4756
1423	0.4416
1432	0.5292
1441	0.5912
1450	0.4187
1459	0.2235
1468	0.2082
1477	0.426
1486	0.5622
1495	0.5852
1504	0.6596
1513	0.6526
1522	0.6087
1531	0.5286
1540	0.4372
1549	0.2947
1558	0.2546
1567	0.378
1576	0.5235
1585	0.6226
1594	0.5353
1603	0.3995
1612	0.418
1621	0.3888
1630	0.5881
1639	0.608
1648	0.4368
1657	0.1436
1666	0.1123
1675	0.341
1684	0.5978
1693	0.7883
1702	0.8586
1711	0.8787
1720	0.8818
1729	0.8886
1738	0.9017
1747	0.9183
1756	0.9243
1765	0.924
1774	0.9247
1783	0.9301
1792	0.9284
1801	0.9206
1810	0.925
1819	0.9335
1828	0.9384
1837	0.9412
1846	0.9404
1855	0.9356
1864	0.93
1873	0.9274
1882	0.9268
1891	0.9156
1900	0.9124
1909	0.9154
1918	0.9197
1927	0.9213
1936	0.9218
1945	0.9225
1954	0.9238
1963	0.9295
1972	0.9323
1981	0.9317
1990	0.9315
1999	0.9311
2008	0.9306
2017	0.9299
2026	0.9291
2035	0.9285
2044	0.9278
2053	0.9273
2062	0.9268
2071	0.9262
2080	0.9251
2089	0.9237
2098	0.9209
2107	0.9164
2116	0.913
2125	0.913
2134	0.9125
2143	0.9121
2152	0.9116
2161	0.9112
2170	0.9109
2179	0.9107
2188	0.9108
2197	0.9099
2206	0.908
2215	0.9047
2224	0.904
2233	0.9038
2242	0.902
2251	0.899
2260	0.8967
2269	0.8961
2278	0.8961
2287	0.8961
2296	0.896
2305	0.896
2314	0.8959
2323	0.8959
2332	0.8958
2341	0.8956
2350	0.8954
2359	0.8953
2368	0.8951
2377	0.895
2386	0.8948
2395	0.894
2404	0.8928
2413	0.8908
2422	0.8871
2431	0.8842
2440	0.8833
2449	0.8823
2458	0.8814
2467	0.8806
2476	0.8801
2485	0.8789
2494	0.8777
2503	0.8764
2512	0.8745
2521	0.8721
2530	0.8696
2539	0.8671
2548	0.8637
2557	0.8598
2566	0.8561
2575	0.8513
2584	0.8462
2593	0.842
2602	0.8393
2611	0.8377
2620	0.8374
2629	0.834
2638	0.8275
2647	0.8238
2656	0.8212
2665	0.8211
2674	0.8212
2683	0.8212
2692	0.8217
2701	0.8221
2710	0.8221
2719	0.821
2728	0.8199
2737	0.8183
2746	0.8165
2755	0.8143
2764	0.8117
2773	0.808
2782	0.8039
2791	0.796
2800	0.7841
2809	0.7637
2818	0.738
2827	0.7097
2836	0.6615
2845	0.5
2854	0.3266
2863	0.1854
2872	0.1587
2881	0.1476
2890	0.135
2899	0.1022
2908	0.0573
2917	0.0308
2926	0.0214
2935	0.0175
2944	0.0182
2953	0.0553
2962	0.15
2971	0.2439
2980	0.3375
2989	0.4303
2998	0.5227
3007	0.5975
3016	0.6024
3025	0.6003
3034	0.5979
3043	0.596
3052	0.5956
3061	0.596
3070	0.5987
3079	0.6038
3088	0.6089
3097	0.6125
3106	0.6134
3115	0.6136
3124	0.6133
3133	0.6129
3142	0.6124
3151	0.6116
3160	0.6104
3169	0.6068
3178	0.6019
3187	0.5947
3196	0.5873
3205	0.5809
3214	0.5749
3223	0.5639
3232	0.5388
3241	0.5136
3250	0.4888
3259	0.4639
3268	0.4393
3277	0.4171
3286	0.4032
3295	0.4018
3304	0.406
3313	0.4168
3322	0.4508
3331	0.4982
3340	0.5453
3349	0.5921
3358	0.6487
3367	0.6776
3376	0.6996
3385	0.7158
3394	0.728
3403	0.7381
3412	0.7458
3421	0.7522
3430	0.7571
3439	0.7598
3448	0.7624
3457	0.7648
3466	0.7661
3475	0.7671
3484	0.7678
3493	0.7684
3502	0.7691
3511	0.7698
3520	0.7706
3529	0.7711
3538	0.7717
3547	0.7721
3556	0.7724
3565	0.7725
3574	0.7728
3583	0.773
3592	0.7732
3601	0.7732
3610	0.7732
3619	0.7733
3628	0.7733
3637	0.7732
3646	0.7731
3655	0.773
3664	0.7726
3673	0.7721
3682	0.7715
3691	0.771
3700	0.7704
3709	0.7701
3718	0.7699
3727	0.7699
3736	0.7699
3745	0.7694
3754	0.7688
3763	0.7678
3772	0.7664
3781	0.7649
3790	0.7636
3799	0.7619
3808	0.76
3817	0.7581
3826	0.7568
3835	0.7555
3844	0.7545
3853	0.7537
3862	0.7528
3871	0.7522
3880	0.7517
3889	0.7511
3898	0.7508
3907	0.7505
3916	0.7501
3925	0.7499
3934	0.7497
3943	0.7494
3952	0.7482
3961	0.7468
3970	0.7448
3979	0.7428
3988	0.741
3997	0.7388
