Infrared Spectrum: 4,4'-DICYANOSTILBENE
Formula: C16 H10 N2
CAS: 6292-62-2
State: SOLID (KBr PELLET)
Class: COBLENTZ
Instrument: Not specified, most likely a prism, grating, or hybrid spectrometer.
Sampling: TRANSMISSION
Resolution: 4
Origin: TENNESSEE EASTMAN COMPANY, RESEARCH LABORATORIES
MICROMETERS	TRANSMITTANCE
2.02	0.66
2.06084	0.659
2.10168	0.666
2.14251	0.678
2.18335	0.695
2.22419	0.712
2.26503	0.724
2.30587	0.731
2.34671	0.741
2.38754	0.751
2.42838	0.761
2.46922	0.767
2.51006	0.777
2.5509	0.787
2.59173	0.789
2.63257	0.792
2.67341	0.797
2.71425	0.803
2.75509	0.803
2.79593	0.789
2.83676	0.761
2.8776	0.743
2.91844	0.72
2.95928	0.71
3.00012	0.751
3.04096	0.791
3.08179	0.808
3.12263	0.821
3.16347	0.828
3.20431	0.847
3.24515	0.842
3.28598	0.761
3.32682	0.806
3.36766	0.859
3.4085	0.849
3.44934	0.863
3.49018	0.893
3.53101	0.912
3.57185	0.926
3.61269	0.934
3.65353	0.941
3.69437	0.945
3.7352	0.948
3.77604	0.95
3.81688	0.952
3.85772	0.95
3.89856	0.952
3.9394	0.955
3.98023	0.957
4.02107	0.952
4.06191	0.955
4.10275	0.955
4.14359	0.955
4.18443	0.952
4.22526	0.952
4.2661	0.94
4.30694	0.928
4.34778	0.94
4.38862	0.953
4.42945	0.945
4.47029	0.84
4.51113	0.238
4.55197	0.686
4.59281	0.904
4.63365	0.952
4.67448	0.952
4.71532	0.95
4.75616	0.95
4.797	0.953
4.83784	0.953
4.87867	0.945
4.91951	0.943
4.96035	0.95
5.00119	0.948
5.04203	0.955
5.08287	0.95
5.1237	0.952
5.16454	0.902
5.20538	0.912
5.24622	0.922
5.28706	0.943
5.3279	0.953
5.36873	0.957
5.40957	0.955
5.45041	0.928
5.49125	0.931
5.53209	0.933
5.57292	0.922
5.61376	0.933
5.6546	0.912
5.69544	0.926
5.73628	0.933
5.77712	0.936
5.81795	0.934
5.85879	0.929
5.89963	0.928
5.94047	0.926
5.98131	0.904
6.02214	0.9
6.06298	0.888
6.10382	0.852
6.14466	0.827
6.1855	0.75
6.22634	0.172
6.26717	0.467
6.30801	0.751
6.34885	0.863
6.38969	0.835
6.43053	0.895
6.47136	0.909
6.5122	0.881
6.55304	0.75
6.59388	0.455
6.63472	0.64
6.67556	0.796
6.71639	0.761
6.75723	0.886
6.79807	0.916
6.83891	0.926
6.87975	0.929
6.92059	0.933
6.96142	0.938
7.00226	0.909
7.0431	0.554
7.08394	0.837
7.12478	0.876
7.16561	0.905
7.20645	0.909
7.24729	0.922
7.28813	0.931
7.32897	0.931
7.36981	0.922
7.41064	0.816
7.45148	0.815
7.49232	0.703
7.53316	0.876
7.574	0.921
7.61483	0.905
7.65567	0.705
7.69651	0.854
7.73735	0.905
7.77819	0.916
7.81903	0.921
7.85986	0.931
7.9007	0.931
7.94154	0.917
7.98238	0.938
8.02322	0.941
8.06406	0.938
8.10489	0.922
8.14573	0.919
8.18657	0.917
8.22741	0.905
8.26825	0.828
8.30908	0.785
8.34992	0.849
8.39076	0.863
8.4316	0.65
8.47244	0.664
8.51328	0.551
8.55411	0.842
8.59495	0.863
8.63579	0.88
8.67663	0.881
8.71747	0.886
8.7583	0.886
8.79914	0.878
8.83998	0.863
8.88082	0.849
8.92166	0.828
8.9625	0.753
9.00333	0.763
9.04417	0.803
9.08501	0.803
9.12585	0.804
9.16669	0.823
9.20753	0.83
9.24836	0.828
9.2892	0.731
9.33004	0.729
9.37088	0.837
9.41172	0.861
9.45255	0.868
9.49339	0.871
9.53423	0.873
9.57507	0.875
9.61591	0.875
9.65675	0.873
9.69758	0.873
9.73842	0.861
9.77926	0.813
9.8201	0.847
9.86094	0.844
9.90177	0.705
9.94261	0.809
9.98345	0.863
10.0243	0.883
10.0651	0.898
10.106	0.904
10.1468	0.904
10.1876	0.904
10.2285	0.898
10.2693	0.815
10.3102	0.679
10.351	0.354
10.3918	0.578
10.4327	0.753
10.4735	0.623
10.5143	0.27
10.5552	0.393
10.596	0.659
10.6369	0.78
10.6777	0.849
10.7185	0.886
10.7594	0.895
10.8002	0.904
10.8411	0.917
10.8819	0.933
10.9227	0.936
10.9636	0.94
11.0044	0.941
11.0452	0.946
11.0861	0.95
11.1269	0.952
11.1678	0.953
11.2086	0.955
11.2494	0.957
11.2903	0.957
11.3311	0.957
11.372	0.955
11.4128	0.95
11.4536	0.946
11.4945	0.945
11.5353	0.943
11.5761	0.941
11.617	0.936
11.6578	0.921
11.6987	0.898
11.7395	0.849
11.7803	0.686
11.8212	0.246
11.862	0.193
11.9028	0.219
11.9437	0.183
11.9845	0.27
12.0254	0.179
12.0662	0.191
12.107	0.393
12.1479	0.585
12.1887	0.707
12.2296	0.753
12.2704	0.815
12.3112	0.861
12.3521	0.878
12.3929	0.885
12.4337	0.885
12.4746	0.876
12.5154	0.883
12.5563	0.898
12.5971	0.909
12.6379	0.916
12.6788	0.922
12.7196	0.929
12.7604	0.928
12.8013	0.928
12.8421	0.931
12.883	0.934
12.9238	0.938
12.9646	0.938
13.0055	0.938
13.0463	0.938
13.0872	0.936
13.128	0.933
13.1688	0.928
13.2097	0.919
13.2505	0.904
13.2913	0.897
13.3322	0.9
13.373	0.909
13.4139	0.909
13.4547	0.909
13.4955	0.91
13.5364	0.919
13.5772	0.917
13.6181	0.902
13.6589	0.888
13.6997	0.898
13.7406	0.904
13.7814	0.904
13.8222	0.905
13.8631	0.909
13.9039	0.909
13.9448	0.9
13.9856	0.888
14.0264	0.878
14.0673	0.861
14.1081	0.854
14.1489	0.851
14.1898	0.859
14.2306	0.863
14.2715	0.873
14.3123	0.873
14.3531	0.873
14.394	0.871
14.4348	0.869
14.4757	0.868
14.5165	0.866
14.5573	0.864
14.5982	0.854
14.639	0.851
14.6798	0.849
14.7207	0.847
14.7615	0.842
14.8024	0.842
14.8432	0.832
14.884	0.823
14.9249	0.799
14.9657	0.779
15.0066	0.777
15.0474	0.779
15.0882	0.779
15.1291	0.763
15.1699	0.753
15.2107	0.729
15.2516	0.702
15.2924	0.684
15.3333	0.666
15.3741	0.662
15.4149	0.66
15.4558	0.66
15.4966	0.66
15.5374	0.66
15.5783	0.657
15.6191	0.652
15.66	0.647
15.7008	0.638
15.7416	0.631
15.7825	0.625
15.8233	0.619
15.8642	0.611
15.905	0.604
15.9458	0.599
15.9867	0.599
