Infrared Spectrum: 4-Methylcyclohexanebromide
Formula: C 7 H 13 Br
CAS: 6294-40-2
State: gas
Origin: EPA-IR VAPOR PHASE LIBRARY
1/CM	ABSORBANCE
549.8	0.0004418
559.445	0.0003951
569.09	9.18e-05
578.734	0.0002407
588.379	0.0009854
598.024	0.00202
607.669	0.00205
617.313	0.0007551
626.958	0.00012716
636.603	0.000139049
646.248	0.0002895
655.893	0.00129
665.537	0.00227
675.182	0.00353
684.827	0.00694
694.472	0.00899
704.116	0.00979
713.761	0.0095
723.406	0.00289
733.051	0.0005647
742.695	0.0003613
752.34	0.0007219
761.985	0.00121
771.63	0.00146
781.275	0.00168
790.919	0.0007408
800.564	0.00020302
810.209	0.0004063
819.854	0.00118
829.498	0.00398
839.143	0.00809
848.788	0.00959
858.433	0.00743
868.078	0.00467
877.722	0.00256
887.367	0.0013
897.012	0.0004591
906.657	0.000601
916.301	0.0008716
925.946	0.00137
935.591	0.00256
945.236	0.00513
954.88	0.00803
964.525	0.00861
974.17	0.00602
983.815	0.00399
993.46	0.0035
1003.1	0.00296
1012.75	0.00285
1022.39	0.00436
1032.04	0.00407
1041.68	0.00223
1051.33	0.00134
1060.97	0.00131
1070.62	0.00132
1080.26	0.00177
1089.91	0.00227
1099.55	0.00344
1109.2	0.00383
1118.84	0.00373
1128.49	0.00296
1138.13	0.00167
1147.78	0.00167
1157.42	0.00168
1167.07	0.00228
1176.71	0.00595
1186.36	0.01495
1196	0.01628
1205.64	0.00827
1215.29	0.00462
1224.93	0.00441
1234.58	0.00997
1244.22	0.02318
1253.87	0.02751
1263.51	0.01651
1273.16	0.00646
1282.8	0.00324
1292.45	0.00332
1302.09	0.00529
1311.74	0.00596
1321.38	0.00473
1331.03	0.00363
1340.67	0.00487
1350.32	0.00782
1359.96	0.00802
1369.61	0.00613
1379.25	0.00687
1388.9	0.00655
1398.54	0.00333
1408.18	0.00263
1417.83	0.00457
1427.47	0.00952
1437.12	0.01629
1446.76	0.02308
1456.41	0.02485
1466.05	0.01858
1475.7	0.00954
1485.34	0.0036
1494.99	0.00153
1504.63	0.0009299
1514.28	0.0006448
1523.92	0.0004661
1533.57	0.0004112
1543.21	0.0003661
1552.86	0.0003747
1562.5	0.0003519
1572.15	0.000342
1581.79	0.0003336
1591.44	0.0002752
1601.08	0.0002894
1610.73	0.0002976
1620.37	0.0002724
1630.01	0.0002855
1639.66	0.0003365
1649.3	0.000325
1658.95	0.0002674
1668.59	0.0003036
1678.24	0.0003427
1687.88	0.0003085
1697.53	0.0002632
1707.17	0.0002523
1716.82	0.00017812
1726.46	0.000132251
1736.11	0.00015577
1745.75	0.00012428
1755.4	0.00012754
1765.04	0.00016693
1774.69	0.00020426
1784.33	0.000138822
1793.98	0.00018243
1803.62	0.00017556
1813.27	0.00017224
1822.91	0.00015153
1832.55	0.00017641
1842.2	0.00019089
1851.84	0.0001809
1861.49	0.00014766
1871.13	0.0001218
1880.78	0.000138229
1890.42	0.0001785
1900.07	0.00021917
1909.71	0.0001587
1919.36	0.00017844
1929	0.000132868
1938.65	0.00012483
1948.29	0.00016476
1957.94	0.00012253
1967.58	0.0001873
1977.23	0.00018674
1986.87	0.00014483
1996.52	0.0001455
2006.16	0.00015811
2015.81	0.000130552
2025.45	0.00012035
2035.1	0.00012573
2044.74	0.00019619
2054.38	0.00014879
2064.03	0.00018537
2073.67	0.0002545
2083.32	0.0002711
2092.96	0.0002559
2102.61	0.0002758
2112.25	0.000299
2121.9	0.0003075
2131.54	0.0003487
2141.19	0.0003163
2150.83	0.0003455
2160.48	0.0004325
2170.12	0.0004549
2179.77	0.00041
2189.41	0.0003729
2199.06	0.0003994
2208.7	0.0004453
2218.35	0.0004547
2227.99	0.000435
2237.64	0.0003719
2247.28	0.000326
2256.92	0.0003386
2266.57	0.0003937
2276.21	0.0004373
2285.86	0.0004718
2295.5	0.0004634
2305.15	0.000506
2314.79	0.0004895
2324.44	0.0004804
2334.08	0.000499
2343.73	0.0004309
2353.37	0.0003851
2363.02	0.0003776
2372.66	0.0003617
2382.31	0.0003935
2391.95	0.0004488
2401.6	0.0005525
2411.24	0.0005758
2420.89	0.0006118
2430.53	0.0006577
2440.18	0.000686
2449.82	0.000639
2459.47	0.0006522
2469.11	0.0005333
2478.75	0.0005494
2488.4	0.0006031
2498.04	0.0005821
2507.69	0.0006153
2517.33	0.0006145
2526.98	0.0005755
2536.62	0.0004803
2546.27	0.0006057
2555.91	0.000536
2565.56	0.0006214
2575.2	0.0006526
2584.85	0.0007965
2594.49	0.0010677
2604.14	0.00121
2613.78	0.00125
2623.43	0.00132
2633.07	0.00147
2642.72	0.00155
2652.36	0.00166
2662.01	0.00176
2671.65	0.002
2681.29	0.00197
2690.94	0.00174
2700.58	0.00153
2710.23	0.00149
2719.87	0.00154
2729.52	0.00182
2739.16	0.00202
2748.81	0.00197
2758.45	0.00196
2768.1	0.00206
2777.74	0.00223
2787.39	0.00271
2797.03	0.00335
2806.68	0.00392
2816.32	0.00472
2825.97	0.00739
2835.61	0.01479
2845.26	0.02722
2854.9	0.03853
2864.55	0.04734
2874.19	0.05276
2883.84	0.04979
2893.48	0.04462
2903.12	0.0459
2912.77	0.05437
2922.41	0.08308
2932.06	0.12706
2941.7	0.13476
2951.35	0.12664
2960.99	0.12389
2970.64	0.08034
2980.28	0.03833
2989.93	0.01417
2999.57	0.00496
3009.22	0.00266
3018.86	0.00207
3028.51	0.00185
3038.15	0.00178
3047.8	0.00178
3057.44	0.00177
3067.09	0.00175
3076.73	0.00177
3086.38	0.00167
3096.02	0.00154
3105.67	0.00143
3115.31	0.00125
3124.95	0.00134
3134.6	0.00133
3144.24	0.00114
3153.89	0.00118
3163.53	0.0011128
3173.18	0.00116
3182.82	0.0010374
3192.47	0.0008909
3202.11	0.0007388
3211.76	0.0006278
3221.4	0.0004641
3231.05	0.0003463
3240.69	0.0004017
3250.34	0.0003473
3259.98	0.000394
3269.63	0.0006503
3279.27	0.0006339
3288.92	0.0004968
3298.56	0.0003977
3308.21	0.0003746
3317.85	0.0003663
3327.49	0.0002905
3337.14	0.0003514
3346.78	0.0003775
3356.43	0.0004609
3366.07	0.0004903
3375.72	0.0003603
3385.36	0.0003621
3395.01	0.0004606
3404.65	0.0003091
3414.3	0.0002993
3423.94	0.000241
3433.59	0.00020075
3443.23	0.00013236
3452.88	0.00014294
3462.52	0.00018036
3472.17	0.00018352
3481.81	0.00022947
3491.46	0.0002405
3501.1	8e-06
3510.75	7.14e-05
3520.39	5.88e-05
3530.04	5.34e-05
3539.68	0.00013009
3549.32	0
3558.97	9.95e-05
3568.61	6.66e-05
3578.26	0.00019249
3587.9	4e-05
3597.55	3.58e-05
3607.19	8.91e-05
3616.84	0.00022427
3626.48	0.0001747
3636.13	8.94e-05
3645.77	0.00012216
3655.42	0.00022343
3665.06	0.00014322
3674.71	0.00018596
3684.35	0.00014515
3694	0.0002485
3703.64	0.00021196
3713.29	0.0002569
3722.93	0.0003419
3732.58	0.00017617
3742.22	0.00022734
3751.86	0.00021278
3761.51	0.0003404
3771.15	0.0002943
3780.8	0.00016478
3790.44	0.0002841
3800.09	0.0003619
3809.73	0.0003452
3819.38	0.0004614
3829.02	0.0003565
3838.67	0.0004455
3848.31	0.0003788
3857.96	0.0005111
3867.6	0.0002648
3877.25	0.0002672
3886.89	0.0003695
3896.54	0.0003864
3906.18	0.0003711
3915.83	0.000399
3925.47	0.0003177
3935.12	0.0003931
3944.76	0.000339
3954.41	0.0003212
3964.05	0.0004558
3973.69	0.0004432
3983.34	0.0004737
3992.98	0.0005855
