Infrared Spectrum: Bis-2-chloroethyl-2-chloroethylphosphon
Formula: C 6 H 12 Cl 3 O 3 P
CAS: 6294-34-4
State: gas
Instrument: HP-GC/MS/IRD
Origin: NIST Mass Spectrometry Data Center
1/CM	ABSORBANCE
550	0.018848
562	0.0053072
574	0.0017856
586	0.0005704
598	4.96e-05
610	0.0001488
622	0.000744
634	0.0022568
646	0.0066712
658	0.0140616
670	0.0225928
682	0.0312232
694	0.0220472
706	0.0203608
718	0.0171368
730	0.0191952
742	0.02232
754	0.0320168
766	0.0400768
778	0.0409696
790	0.0394072
802	0.0424824
814	0.0437472
826	0.044764
838	0.0489304
850	0.0485336
862	0.0412424
874	0.0361088
886	0.0349928
898	0.0468472
910	0.062496
922	0.0673568
934	0.0695888
946	0.0819392
958	0.0766816
970	0.0671584
982	0.0508896
994	0.0797568
1006	0.165937
1018	0.244528
1030	0.220274
1042	0.16492
1054	0.133027
1066	0.183718
1078	0.189546
1090	0.146518
1102	0.0881888
1114	0.0455824
1126	0.0277016
1138	0.0186496
1150	0.0137392
1162	0.0116808
1174	0.0125488
1186	0.0184016
1198	0.0299832
1210	0.033356
1222	0.0252216
1234	0.0197408
1246	0.0317936
1258	0.0658688
1270	0.0946864
1282	0.108946
1294	0.077004
1306	0.0813688
1318	0.0616528
1330	0.02232
1342	0.0106144
1354	0.0070184
1366	0.005952
1378	0.007936
1390	0.0112592
1402	0.0089776
1414	0.0087792
1426	0.0095976
1438	0.0161448
1450	0.0140616
1462	0.0121024
1474	0.0069688
1486	0.003968
1498	0.002232
1510	0.001364
1522	0.0009424
1534	0.0005704
1546	0.0003224
1558	0.0002232
1570	9.92e-05
1582	9.92e-05
1594	7.44e-05
1606	7.44e-05
1618	2.48e-05
1630	2.48e-05
1642	2.48e-05
1654	2.48e-05
1666	0.000124
1678	0.0002232
1690	0.0003224
1702	0.0004464
1714	0.00062
1726	0.0008184
1738	0.000868
1750	0.0008432
1762	0.0009672
1774	0.0011408
1786	0.00124
1798	0.0013392
1810	0.0014136
1822	0.001488
1834	0.001612
1846	0.0017856
1858	0.001736
1870	0.0014632
1882	0.0011408
1894	0.000868
1906	0.0005952
1918	0.0004464
1930	0.0003224
1942	0.0002232
1954	0.0001736
1966	0.0001488
1978	0.0001736
1990	0.0002976
2002	0.000372
2014	0.0005208
2026	0.0005952
2038	0.0005704
2050	0.0004712
2062	0.000372
2074	0.000372
2086	0.0003224
2098	0.0003472
2110	0.0003968
2122	0.0003224
2134	0.0001984
2146	0.0001488
2158	4.96e-05
2170	2.48e-05
2182	2.48e-05
2194	4.96e-05
2206	0.0001488
2218	0.000248
2230	0.0002728
2242	0.0002728
2254	0.0001736
2266	0.0001736
2278	0.000124
2290	9.92e-05
2302	7.44e-05
2314	7.44e-05
2326	7.44e-05
2338	0.000124
2350	0.0001488
2362	0.000124
2374	0.0001736
2386	0.0001984
2398	0.0001736
2410	0.0001488
2422	9.92e-05
2434	4.96e-05
2446	7.44e-05
2458	7.44e-05
2470	0.0001488
2482	0.0002232
2494	0.0002728
2506	0.0003224
2518	0.0003472
2530	0.0002976
2542	0.0001984
2554	0.0001488
2566	7.44e-05
2578	0
2590	2.48e-05
2602	0
2614	2.48e-05
2626	4.96e-05
2638	4.96e-05
2650	4.96e-05
2662	7.44e-05
2674	0.0001488
2686	0.000248
2698	0.000372
2710	0.0005952
2722	0.0006696
2734	0.0007936
2746	0.00124
2758	0.0013888
2770	0.0008432
2782	0.0005208
2794	0.0004464
2806	0.0005704
2818	0.0007936
2830	0.0012648
2842	0.0020832
2854	0.0031992
2866	0.0037448
2878	0.0060016
2890	0.0106144
2902	0.010912
2914	0.0111848
2926	0.0113832
2938	0.0161944
2950	0.0201624
2962	0.0279992
2974	0.03658
2986	0.028892
2998	0.0154008
3010	0.0127472
3022	0.0081344
3034	0.0042904
3046	0.0025792
3058	0.0016616
3070	0.0010912
3082	0.0007936
3094	0.0006448
3106	0.0004216
3118	0.0003224
3130	0.000248
3142	0.0002728
3154	0.0002232
3166	0.0002232
3178	0.0002232
3190	0.0001984
3202	0.0001984
3214	0.0002728
3226	0.000248
3238	0.000248
3250	0.000248
3262	0.0001984
3274	0.0002232
3286	0.0001984
3298	0.0001488
3310	0.0001736
3322	9.92e-05
3334	0.000124
3346	9.92e-05
3358	4.96e-05
3370	0.000124
3382	9.92e-05
3394	9.92e-05
3406	0.000124
3418	0.000124
3430	0.0001736
3442	0.000124
3454	0.0001488
3466	0.0001488
3478	0.000124
3490	0.0001984
3502	0.0001488
3514	0.0001736
3526	0.0001488
3538	9.92e-05
3550	9.92e-05
3562	0.000124
3574	0.000124
3586	4.96e-05
3598	9.92e-05
3610	0.0001736
3622	0.0001984
3634	0.0002728
3646	0.0002728
3658	0.0002976
3670	0.0002976
3682	0.0003224
3694	0.0002976
3706	0.000248
3718	0.0003224
3730	0.0003224
3742	0.0003472
3754	0.0003224
3766	0.0003224
3778	0.0002976
3790	0.0002232
3802	0.0002728
3814	0.0001736
3826	0.0001736
3838	0.000248
