Infrared Spectrum: Di-n-hexyl sulfide
Formula: C 12 H 26 S
CAS: 6294-31-1
State: gas
Origin: EPA-IR VAPOR PHASE LIBRARY
1/CM	ABSORBANCE
501.5	0.0007615
513.074	0.0004934
524.648	0.00037359
536.222	0.00033476
547.796	0.0002736
559.37	0.00033867
570.944	0.000320447
582.518	0.000166
594.092	0.0002219
605.666	0.0002935
617.24	0.0004192
628.814	0.0003801
640.388	0.0006316
651.962	0.0005342
663.536	0.00059
675.11	0.0007279
686.684	0.0009458
698.258	0.0012724
709.832	0.001989
721.406	0.002819
732.98	0.003449
744.554	0.003259
756.128	0.002579
767.702	0.002029
779.276	0.001729
790.85	0.001619
802.423	0.001479
813.997	0.001349
825.571	0.0012042
837.145	0.0010444
848.719	0.0011836
860.293	0.0012864
871.867	0.0011837
883.441	0.0011587
895.015	0.0011323
906.589	0.0010784
918.163	0.0010844
929.737	0.0008964
941.311	0.0006637
952.885	0.0009051
964.459	0.0011386
976.033	0.0011393
987.607	0.00118
999.181	0.0011496
1010.76	0.0009516
1022.33	0.000861
1033.9	0.0008718
1045.48	0.0009484
1057.05	0.0008944
1068.63	0.0008573
1080.2	0.0010854
1091.77	0.0011234
1103.35	0.001311
1114.92	0.0010638
1126.49	0.0008773
1138.07	0.0007658
1149.64	0.0009855
1161.22	0.0012151
1172.79	0.001649
1184.36	0.001799
1195.94	0.002359
1207.51	0.003209
1219.09	0.003299
1230.66	0.004229
1242.23	0.006419
1253.81	0.006939
1265.38	0.006539
1276.96	0.006399
1288.53	0.007009
1300.1	0.006049
1311.68	0.004669
1323.25	0.003519
1334.83	0.004069
1346.4	0.004979
1357.97	0.004459
1369.55	0.003989
1381.12	0.004759
1392.7	0.003869
1404.27	0.003219
1415.84	0.004209
1427.42	0.006199
1438.99	0.009159
1450.57	0.011409
1462.14	0.012649
1473.71	0.009089
1485.29	0.004549
1496.86	0.002619
1508.44	0.001759
1520.01	0.0012779
1531.58	0.0010185
1543.16	0.0008634
1554.73	0.0007106
1566.31	0.0006584
1577.88	0.0006152
1589.45	0.0005915
1601.03	0.0005422
1612.6	0.000532
1624.18	0.0005101
1635.75	0.0005053
1647.32	0.0004807
1658.9	0.0004799
1670.47	0.0004598
1682.05	0.0004494
1693.62	0.00039334
1705.19	0.00035862
1716.77	0.00038107
1728.34	0.0003027
1739.92	0.0003107
1751.49	0.000278
1763.06	0.0002732
1774.64	0.0002839
1786.21	0.0002629
1797.79	0.0002547
1809.36	0.0002802
1820.93	0.0002795
1832.51	0.0002371
1844.08	0.0002601
1855.66	0.0002502
1867.23	0.0002297
1878.8	0.0002283
1890.38	0.000254
1901.95	0.0002452
1913.53	0.0002551
1925.1	0.0002554
1936.67	0.0002767
1948.25	0.0002661
1959.82	0.0002686
1971.4	0.0002491
1982.97	0.0003069
1994.54	0.000297
2006.12	0.00035284
2017.69	0.00037935
2029.27	0.0004194
2040.84	0.00041729
2052.41	0.00040592
2063.99	0.00038018
2075.56	0.00038451
2087.14	0.00035979
2098.71	0.0003551
2110.28	0.0003693
2121.86	0.00037999
2133.43	0.00037652
2145.01	0.00036663
2156.58	0.00038809
2168.15	0.00038952
2179.73	0.00038878
2191.3	0.00034984
2202.88	0.00034616
2214.45	0.00036258
2226.02	0.0003675
2237.6	0.00037282
2249.17	0.00035488
2260.74	0.00031529
2272.32	0.000328648
2283.89	0.000324465
2295.47	0.00034481
2307.04	0.000372
2318.61	0.00037154
2330.19	0.00039622
2341.76	0.00041172
2353.34	0.00038789
2364.91	0.00039608
2376.48	0.00036607
2388.06	0.00036908
2399.63	0.00035646
2411.21	0.00040827
2422.78	0.00038792
2434.35	0.00040578
2445.93	0.00037421
2457.5	0.00036594
2469.08	0.00033094
2480.65	0.00034374
2492.22	0.00037977
2503.8	0.00037716
2515.37	0.0004344
2526.95	0.0004839
2538.52	0.0005692
2550.09	0.0005704
2561.67	0.0005656
2573.24	0.0006015
2584.82	0.0007036
2596.39	0.0007418
2607.96	0.0008628
2619.54	0.0009798
2631.11	0.0010673
2642.69	0.0011792
2654.26	0.001298
2665.83	0.001409
2677.41	0.001599
2688.98	0.001569
2700.56	0.001499
2712.13	0.001499
2723.7	0.001579
2735.28	0.001829
2746.85	0.002099
2758.43	0.002149
2770	0.002309
2781.57	0.002849
2793.15	0.003669
2804.72	0.004689
2816.3	0.006479
2827.87	0.009639
2839.44	0.015109
2851.02	0.028159
2862.59	0.044649
2874.17	0.044959
2885.74	0.041859
2897.31	0.040879
2908.89	0.058499
2920.46	0.092529
2932.04	0.127989
2943.61	0.117009
2955.18	0.085129
2966.76	0.076439
2978.33	0.045139
2989.91	0.020129
3001.48	0.011549
3013.05	0.007689
3024.63	0.005659
3036.2	0.004439
3047.78	0.003459
3059.35	0.002769
3070.92	0.002319
3082.5	0.002109
3094.07	0.001859
3105.65	0.001659
3117.22	0.001469
3128.79	0.0012636
3140.37	0.0011819
3151.94	0.0010487
3163.52	0.0009901
3175.09	0.0009219
3186.66	0.0008665
3198.24	0.000751
3209.81	0.0005967
3221.39	0.000499
3232.96	0.00035413
3244.53	0.0003801
3256.11	0.0002905
3267.68	0.000322366
3279.26	0.0002262
3290.83	0.000222
3302.4	0.0002601
3313.98	0.0002212
3325.55	0.000188
3337.13	0.00017
3348.7	0.0001
3360.27	0.000137
3371.85	0.000159
3383.42	0.0002322
3395	0.00016
3406.57	0.00011
3418.14	0.000161
3429.72	0.00013
3441.29	9.1e-05
3452.86	0.000115
3464.44	3e-05
3476.01	3.3e-05
3487.59	6.6e-05
3499.16	6.9e-05
3510.73	3.9e-05
3522.31	0.0001
3533.88	6.9e-05
3545.46	6.5e-05
3557.03	2.8e-05
3568.6	0.000131
3580.18	9.7e-05
3591.75	0.00012
3603.33	0.000171
3614.9	0.0002246
3626.47	0.0002575
3638.05	0.0002495
3649.62	0.000207
3661.2	0.0002376
3672.77	0.0002608
3684.34	0.0002794
3695.92	0.0002466
3707.49	0.0002891
3719.07	0.00017
3730.64	0.0002247
3742.21	0.0002619
3753.79	0.0002257
3765.36	0.0002382
3776.94	0.000186
3788.51	0.0002728
3800.08	0.0002535
3811.66	0.0002703
3823.23	0.00021
3834.81	0.0002928
3846.38	0.000185
3857.95	0.0002324
3869.53	0.000263
3881.1	0.000217
3892.68	0.0003548
3904.25	0.0002306
3915.82	0.0002193
3927.4	0.0002476
3938.97	0.0002402
3950.55	0.000199
3962.12	0.00035856
3973.69	0.00036474
3985.27	0.00034551
3996.84	0.0002938
