Infrared Spectrum: Butyl glyoxalate
Formula: C 6 H 10 O 3
CAS: 6295-06-3
State: gas
Instrument: HP-GC/MS/IRD
Origin: NIST Mass Spectrometry Data Center
1/CM	ABSORBANCE
550	0.000584
562	0.0001314
574	0.0003212
586	0.000584
598	0.0008176
610	0.0008176
622	0.0009198
634	0.001095
646	0.0011899
658	0.0013432
670	0.0014089
682	0.0014016
694	0.0014819
706	0.0017666
718	0.0021535
730	0.0026499
742	0.0029492
754	0.0031171
766	0.0025915
778	0.0020002
790	0.0015476
802	0.0013286
814	0.0012118
826	0.0014235
838	0.0015476
850	0.0014527
862	0.0011461
874	0.0012045
886	0.0017812
898	0.0026937
910	0.003796
922	0.004599
934	0.0062269
946	0.0103295
958	0.0149358
970	0.0154322
982	0.013432
994	0.0135999
1006	0.0158921
1018	0.0145562
1030	0.0090885
1042	0.0052852
1054	0.0063218
1066	0.006935
1078	0.0042559
1090	0.0024163
1102	0.0018031
1114	0.0019272
1126	0.0021097
1138	0.0025477
1150	0.0037011
1162	0.0061758
1174	0.0115705
1186	0.0217686
1198	0.0296234
1210	0.0241046
1222	0.0157388
1234	0.01387
1246	0.017082
1258	0.0250098
1270	0.0366825
1282	0.0471726
1294	0.0403252
1306	0.0217394
1318	0.0116873
1330	0.0074022
1342	0.0059495
1354	0.0052122
1366	0.0050516
1378	0.0050297
1390	0.0046063
1402	0.0033434
1414	0.0020148
1426	0.001898
1438	0.0026207
1450	0.0039201
1462	0.005475
1474	0.0051319
1486	0.0029127
1498	0.0012702
1510	0.0006497
1522	0.000438
1534	0.0003358
1546	0.0002263
1558	0.000219
1570	0.0001606
1582	0.0002044
1594	0.0002555
1606	0.0003723
1618	0.0004672
1630	0.000584
1642	0.0007665
1654	0.0011096
1666	0.0016425
1678	0.0025623
1690	0.0045187
1702	0.0086578
1714	0.017082
1726	0.037084
1738	0.0636779
1750	0.0716349
1762	0.0507131
1774	0.0309666
1786	0.0181551
1798	0.0087965
1810	0.0047377
1822	0.0029638
1834	0.0020513
1846	0.0014527
1858	0.0009928
1870	0.000657
1882	0.0004745
1894	0.0003723
1906	0.0003212
1918	0.0002555
1930	0.0002628
1942	0.0002409
1954	0.0002263
1966	0.0001606
1978	0.0001533
1990	0.0001314
2002	8.03e-05
2014	8.03e-05
2026	7.3e-05
2038	8.76e-05
2050	0.0001095
2062	0.0001022
2074	0.000146
2086	0.0001971
2098	0.0002044
2110	0.0002628
2122	0.0002555
2134	0.0002701
2146	0.0002263
2158	0.0002336
2170	0.0001825
2182	0.0002044
2194	0.0001898
2206	0.0001825
2218	0.0001387
2230	8.03e-05
2242	0.0001314
2254	7.3e-05
2266	9.49e-05
2278	0.0001314
2290	9.49e-05
2302	9.49e-05
2314	0.000146
2326	0.0001825
2338	0.0002044
2350	0.000219
2362	0.0002409
2374	0.0002774
2386	0.0002482
2398	0.0002044
2410	0.0002044
2422	0.000219
2434	0.0001606
2446	0.0001533
2458	0.0001898
2470	0.0001314
2482	0.0001387
2494	0.0001533
2506	0.0001825
2518	0.000219
2530	0.0003285
2542	0.0003285
2554	0.0004088
2566	0.0004015
2578	0.0004161
2590	0.000365
2602	0.0004088
2614	0.0004307
2626	0.0004088
2638	0.0005475
2650	0.0006862
2662	0.0008687
2674	0.0013505
2686	0.0015549
2698	0.001314
2710	0.0013359
2722	0.0015111
2734	0.0016644
2746	0.001898
2758	0.0020002
2770	0.0020367
2782	0.002117
2794	0.0024893
2806	0.003358
2818	0.0052341
2830	0.0106069
2842	0.0194472
2854	0.015111
2866	0.0103368
2878	0.0119209
2890	0.0128115
2902	0.0113734
2914	0.0125341
2926	0.0151621
2938	0.0198852
2950	0.023652
2962	0.0275283
2974	0.0311345
2986	0.0200385
2998	0.0098623
3010	0.0052633
3022	0.0032339
3034	0.0023214
3046	0.001752
3058	0.0012994
3070	0.0010877
3082	0.0009636
3094	0.0008979
3106	0.000876
3118	0.0007227
3130	0.0007373
3142	0.0005986
3154	0.0006351
3166	0.000584
3178	0.0004672
3190	0.0004818
3202	0.0004453
3214	0.0003723
3226	0.000365
3238	0.0002774
3250	0.0002409
3262	0.0003212
3274	0.0001679
3286	0.000219
3298	0.0001971
3310	0.0002409
3322	0.0002628
3334	0.0002117
3346	0.0002628
3358	0.0001898
3370	0.000219
3382	0.0002701
3394	0.0002993
3406	0.0002774
3418	0.0003869
3430	0.0004599
3442	0.0006059
3454	0.0009052
3466	0.0014016
3478	0.0017447
3490	0.0014381
3502	0.0009928
3514	0.00073
3526	0.000657
3538	0.0004891
3550	0.000365
3562	0.0003358
3574	0.0002409
3586	0.0002336
3598	0.0001898
3610	0.0001971
3622	0.0002555
3634	7.3e-05
3646	0.0001533
3658	0.000219
3670	0.000219
3682	0.0001752
3694	0.0002847
3706	0.0001971
3718	0.0001533
3730	0.0002409
3742	0.0001533
3754	0.0003285
3766	0.0002847
3778	0.0001752
3790	0.0001679
3802	0.0002044
3814	0.0002628
3826	0.0001752
3838	0.0002263
