Infrared Spectrum: 9H-Purine-9-acetic acid, 6-methoxy-
Formula: C8 H8 N4 O3
CAS: 6298-52-8
State: SOLID (1 mg / 650 mg KBr DISC)
Class: COBLENTZ III
Instrument: PERKIN-ELMER 21 (GRATING)
Instrument parameters: FILTER CHANGE ABOUT 1090 CM^-^1
Sampling: TRANSMISSION
Resolution: 2
Origin: SOUTHERN RESEARCH INSTITUTE
1/CM	TRANSMITTANCE
604.755	0.878
613.787	0.877
622.82	0.8641
631.852	0.8053
640.885	0.5345
649.917	0.6932
658.95	0.6922
667.982	0.4378
677.015	0.7077
686.047	0.8748
695.08	0.7914
704.112	0.8572
713.145	0.8422
722.177	0.8276
731.209	0.7985
740.242	0.5687
749.274	0.8195
758.307	0.7995
767.339	0.7716
776.372	0.7308
785.404	0.6715
794.437	0.5296
803.469	0.3659
812.502	0.3028
821.534	0.7669
830.567	0.7723
839.599	0.7627
848.631	0.7467
857.664	0.724
866.696	0.6885
875.729	0.6493
884.761	0.5769
893.794	0.5979
902.826	0.5088
911.859	0.6686
920.891	0.6638
929.924	0.6489
938.956	0.6184
947.989	0.5388
957.021	0.4878
966.053	0.5624
975.086	0.5294
984.118	0.4278
993.151	0.5008
1002.18	0.4967
1011.22	0.4667
1020.25	0.4257
1029.28	0.3915
1038.31	0.3446
1047.35	0.3238
1056.38	0.2244
1065.41	0.1234
1074.44	0.1284
1083.48	0.2942
1092.51	0.3911
1101.54	0.4007
1110.57	0.3977
1119.61	0.3876
1128.64	0.3748
1137.67	0.3544
1146.7	0.3154
1155.74	0.2574
1164.77	0.1794
1173.8	0.2079
1182.83	0.3002
1191.86	0.1952
1200.9	0.2827
1209.93	0.2556
1218.96	0.1738
1227.99	0.0882
1237.03	0.1483
1246.06	0.192
1255.09	0.1632
1264.12	0.1447
1273.16	0.1377
1282.19	0.1172
1291.22	0.1052
1300.25	0.1258
1309.29	0.2388
1318.32	0.2431
1327.35	0.0906
1336.38	0.1115
1345.42	0.2481
1354.45	0.2843
1363.48	0.098
1372.51	0.1941
1381.55	0.3928
1390.58	0.4092
1399.61	0.4663
1408.64	0.4188
1417.68	0.2894
1426.71	0.1225
1435.74	0.3716
1444.77	0.3541
1453.81	0.3648
1462.84	0.3977
1471.87	0.3938
1480.9	0.3445
1489.94	0.0862
1498.97	0.2504
1508	0.4638
1517.03	0.5567
1526.07	0.5796
1535.1	0.5534
1544.13	0.5181
1553.16	0.5076
1562.2	0.449
1571.23	0.4092
1580.26	0.3085
1589.29	0.1755
1598.33	0.0428
1607.36	0.0194
1616.39	0.0391
1625.42	0.1918
1634.46	0.3173
1643.49	0.3901
1652.52	0.4293
1661.55	0.4578
1670.59	0.4626
1679.62	0.4416
1688.65	0.3977
1697.68	0.3505
1706.72	0.2772
1715.75	0.2019
1724.78	0.1699
1733.81	0.2085
1742.85	0.2552
1751.88	0.2898
1760.91	0.3042
1769.94	0.3194
1778.97	0.3528
1788.01	0.3679
1797.04	0.4171
1806.07	0.4217
1815.1	0.4282
1824.14	0.4325
1833.17	0.4345
1842.2	0.44
1851.23	0.4494
1860.27	0.4485
1869.3	0.4428
1878.33	0.4368
1887.36	0.4313
1896.4	0.4275
1905.43	0.4291
1914.46	0.4345
1923.49	0.4395
1932.53	0.4441
1941.56	0.4489
1950.59	0.4533
1959.62	0.4618
1968.66	0.4684
1977.69	0.4754
1986.72	0.4831
1995.75	0.4917
2004.79	0.5006
2013.82	0.5102
2022.85	0.5203
2031.88	0.5311
2040.92	0.5446
2049.95	0.5596
2058.98	0.5796
2068.01	0.582
2077.05	0.5934
2086.08	0.6072
2095.11	0.6162
2104.14	0.6292
2113.18	0.6335
2122.21	0.636
2131.24	0.6409
2140.27	0.6525
2149.31	0.6559
2158.34	0.6522
2167.37	0.6482
2176.4	0.6431
2185.44	0.6361
2194.47	0.6317
2203.5	0.627
2212.53	0.6191
2221.57	0.6099
2230.6	0.6002
2239.63	0.59
2248.66	0.5791
2257.7	0.5687
2266.73	0.559
2275.76	0.5478
2284.79	0.5368
2293.83	0.5268
2302.86	0.5167
2311.89	0.5091
2320.92	0.5018
2329.96	0.4947
2338.99	0.4879
2348.02	0.4822
2357.05	0.477
2366.08	0.4721
2375.12	0.4669
2384.15	0.4608
2393.18	0.4548
2402.21	0.453
2411.25	0.4529
2420.28	0.454
2429.31	0.4574
2438.34	0.4655
2447.38	0.4751
2456.41	0.4851
2465.44	0.4934
2474.47	0.4977
2483.51	0.5015
2492.54	0.5063
2501.57	0.5121
2510.6	0.5185
2519.64	0.5274
2528.67	0.5366
2537.7	0.5381
2546.73	0.5493
2555.77	0.553
2564.8	0.5566
2573.83	0.5611
2582.86	0.5663
2591.9	0.5718
2600.93	0.5776
2609.96	0.5823
2618.99	0.588
2628.03	0.5989
2637.06	0.6047
2646.09	0.6101
2655.12	0.6168
2664.16	0.6233
2673.19	0.6278
2682.22	0.6316
2691.25	0.6392
2700.29	0.6408
2709.32	0.6416
2718.35	0.6428
2727.38	0.642
2736.42	0.6441
2745.45	0.6441
2754.48	0.6351
2763.51	0.6277
2772.55	0.6209
2781.58	0.6205
2790.61	0.6217
2799.64	0.6228
2808.68	0.6249
2817.71	0.6266
2826.74	0.6259
2835.77	0.621
2844.81	0.6217
2853.84	0.6309
2862.87	0.6346
2871.9	0.6338
2880.94	0.6312
2889.97	0.6277
2899	0.62
2908.03	0.6045
2917.07	0.5795
2926.1	0.5608
2935.13	0.563
2944.16	0.5805
2953.19	0.6011
2962.23	0.6013
2971.26	0.5976
2980.29	0.5922
2989.32	0.593
2998.36	0.6028
3007.39	0.6185
3016.42	0.6379
3025.45	0.6592
3034.49	0.6686
3043.52	0.6799
3052.55	0.6818
3061.58	0.6836
3070.62	0.6832
3079.65	0.6672
3088.68	0.6466
3097.71	0.6235
3106.75	0.6165
3115.78	0.631
3124.81	0.6697
3133.84	0.7009
3142.88	0.7004
3151.91	0.6947
3160.94	0.6906
3169.97	0.6884
3179.01	0.6896
3188.04	0.6914
3197.07	0.6926
3206.1	0.6924
3215.14	0.6906
3224.17	0.6886
3233.2	0.6846
3242.23	0.6786
3251.27	0.6746
3260.3	0.6731
3269.33	0.6714
3278.36	0.6678
3287.4	0.6629
3296.43	0.6598
3305.46	0.6506
3314.49	0.6379
3323.53	0.6306
3332.56	0.6252
3341.59	0.6198
3350.62	0.6139
3359.66	0.6033
3368.69	0.5996
3377.72	0.5972
3386.75	0.5944
3395.79	0.5899
3404.82	0.5843
3413.85	0.5788
3422.88	0.5778
3431.92	0.5815
3440.95	0.5859
3449.98	0.5922
3459.01	0.6002
3468.05	0.6072
3477.08	0.6129
3486.11	0.6199
3495.14	0.6292
3504.17	0.6394
3513.21	0.65
3522.24	0.6562
3531.27	0.6596
3540.3	0.6686
3549.34	0.68
3558.37	0.6917
3567.4	0.6946
3576.43	0.6988
3585.47	0.7101
3594.5	0.7166
3603.53	0.7199
3612.56	0.7316
3621.6	0.7354
3630.63	0.74
3639.66	0.7504
3648.69	0.7558
3657.73	0.7486
3666.76	0.7492
3675.79	0.7535
3684.82	0.7552
3693.86	0.7564
3702.89	0.7625
3711.92	0.7628
3720.95	0.7619
3729.99	0.7621
3739.02	0.7671
3748.05	0.7637
3757.08	0.7596
3766.12	0.7604
3775.15	0.7625
3784.18	0.7641
3793.21	0.7645
3802.25	0.764
3811.28	0.7625
3820.31	0.7594
3829.34	0.7524
3838.38	0.7551
3847.41	0.7504
3856.44	0.7504
3865.47	0.753
3874.51	0.7544
3883.54	0.7523
3892.57	0.7489
3901.6	0.7503
3910.64	0.7523
3919.67	0.7538
3928.7	0.7552
3937.73	0.7541
3946.77	0.7531
3955.8	0.7516
3964.83	0.7502
3973.86	0.7555
3982.9	0.7528
3991.93	0.7502
4000.96	0.7509
4009.99	0.7534
