Infrared Spectrum: NICOTINALDEHYDE, 6-PURINYLHYDRAZONE
Formula: C11 H9 N7
CAS: 6298-16-4
State: SOLID (0.7 mg / 650 KBr DISC)
Class: COBLENTZ III
Instrument: PERKIN-ELMER 21 (GRATING)
Instrument parameters: FILTER CHANGE AT ABOUT 1020 CM^-^1.
Sampling: TRANSMISSION
Resolution: 2
Origin: SOUTHERN RESEARCH INSTITUTE
1/CM	TRANSMITTANCE
657.563	0.574
666.293	0.5611
675.022	0.555
683.752	0.5534
692.481	0.5422
701.211	0.4547
709.94	0.4968
718.67	0.563
727.399	0.5586
736.129	0.4791
744.859	0.571
753.588	0.634
762.318	0.6308
771.047	0.624
779.777	0.6121
788.506	0.5533
797.236	0.4716
805.965	0.5317
814.695	0.6102
823.424	0.6501
832.154	0.679
840.884	0.68
849.613	0.6696
858.343	0.6545
867.072	0.6154
875.802	0.6574
884.531	0.667
893.261	0.653
901.99	0.554
910.72	0.6015
919.45	0.65
928.179	0.6296
936.909	0.6268
945.638	0.6545
954.368	0.6645
963.097	0.6831
971.827	0.7154
980.556	0.6975
989.286	0.684
998.016	0.6788
1006.75	0.6659
1015.47	0.6087
1024.2	0.5843
1032.93	0.581
1041.66	0.5634
1050.39	0.5981
1059.12	0.5994
1067.85	0.5791
1076.58	0.5356
1085.31	0.4873
1094.04	0.4285
1102.77	0.4178
1111.5	0.418
1120.23	0.426
1128.96	0.3961
1137.69	0.2989
1146.42	0.4947
1155.15	0.6585
1163.88	0.6586
1172.61	0.5984
1181.34	0.5693
1190.07	0.6323
1198.8	0.656
1207.52	0.675
1216.25	0.6679
1224.98	0.6402
1233.71	0.609
1242.44	0.636
1251.17	0.639
1259.9	0.6192
1268.63	0.6469
1277.36	0.6365
1286.09	0.5945
1294.82	0.5353
1303.55	0.5096
1312.28	0.4792
1321.01	0.4387
1329.74	0.3942
1338.47	0.3726
1347.2	0.4008
1355.93	0.5
1364.66	0.4476
1373.39	0.3241
1382.12	0.2516
1390.85	0.2859
1399.57	0.297
1408.3	0.3202
1417.03	0.3917
1425.76	0.5276
1434.49	0.5928
1443.22	0.5874
1451.95	0.5071
1460.68	0.5247
1469.41	0.5661
1478.14	0.539
1486.87	0.5349
1495.6	0.6232
1504.33	0.654
1513.06	0.6406
1521.79	0.5983
1530.52	0.5471
1539.25	0.4732
1547.98	0.3809
1556.71	0.3305
1565.44	0.2769
1574.17	0.2705
1582.9	0.2798
1591.63	0.272
1600.35	0.254
1609.08	0.268
1617.81	0.1992
1626.54	0.1364
1635.27	0.1798
1644	0.3314
1652.73	0.4724
1661.46	0.5734
1670.19	0.6559
1678.92	0.7387
1687.65	0.7706
1696.38	0.785
1705.11	0.7931
1713.84	0.8069
1722.57	0.809
1731.3	0.811
1740.03	0.8117
1748.76	0.816
1757.49	0.8132
1766.22	0.815
1774.95	0.814
1783.68	0.8106
1792.4	0.8084
1801.13	0.8058
1809.86	0.804
1818.59	0.804
1827.32	0.805
1836.05	0.802
1844.78	0.802
1853.51	0.8
1862.24	0.7957
1870.97	0.798
1879.7	0.795
1888.43	0.793
1897.16	0.791
1905.89	0.791
1914.62	0.791
1923.35	0.791
1932.08	0.791
1940.81	0.791
1949.54	0.79
1958.27	0.79
1967	0.789
1975.73	0.789
1984.45	0.79
1993.18	0.791
2001.91	0.793
2010.64	0.79
2019.37	0.7869
2028.1	0.785
2036.83	0.785
2045.56	0.7845
2054.29	0.779
2063.02	0.776
2071.75	0.776
2080.48	0.775
2089.21	0.769
2097.94	0.768
2106.67	0.767
2115.4	0.765
2124.13	0.762
2132.86	0.76
2141.59	0.76
2150.32	0.759
2159.05	0.757
2167.78	0.7535
2176.51	0.75
2185.23	0.7475
2193.96	0.7375
2202.69	0.737
2211.42	0.734
2220.15	0.734
2228.88	0.734
2237.61	0.733
2246.34	0.732
2255.07	0.729
2263.8	0.728
2272.53	0.726
2281.26	0.724
2289.99	0.722
2298.72	0.7083
2307.45	0.6969
2316.18	0.6824
2324.91	0.6745
2333.64	0.6679
2342.37	0.6681
2351.1	0.669
2359.83	0.67
2368.56	0.6786
2377.28	0.6779
2386.01	0.6745
2394.74	0.6705
2403.47	0.667
2412.2	0.6584
2420.93	0.657
2429.66	0.655
2438.39	0.651
2447.12	0.648
2455.85	0.6419
2464.58	0.6355
2473.31	0.6305
2482.04	0.6245
2490.77	0.62
2499.5	0.6175
2508.23	0.613
2516.96	0.6085
2525.69	0.603
2534.42	0.5975
2543.15	0.5915
2551.88	0.5825
2560.61	0.5735
2569.33	0.5689
2578.06	0.563
2586.79	0.5575
2595.52	0.5515
2604.25	0.5455
2612.98	0.54
2621.71	0.5365
2630.44	0.529
2639.17	0.5215
2647.9	0.5135
2656.63	0.5045
2665.36	0.4945
2674.09	0.488
2682.82	0.4835
2691.55	0.479
2700.28	0.4739
2709.01	0.4645
2717.74	0.4595
2726.47	0.4565
2735.2	0.454
2743.93	0.452
2752.66	0.4485
2761.38	0.4475
2770.11	0.444
2778.84	0.443
2787.57	0.4399
2796.3	0.4335
2805.03	0.432
2813.76	0.429
2822.49	0.426
2831.22	0.422
2839.95	0.42
2848.68	0.418
2857.41	0.42
2866.14	0.4241
2874.87	0.4281
2883.6	0.4351
2892.33	0.437
2901.06	0.437
2909.79	0.4349
2918.52	0.431
2927.25	0.434
2935.98	0.4335
2944.71	0.433
2953.44	0.4335
2962.16	0.433
2970.89	0.436
2979.62	0.441
2988.35	0.4451
2997.08	0.4501
3005.81	0.452
3014.54	0.452
3023.27	0.453
3032	0.453
3040.73	0.453
3049.46	0.456
3058.19	0.4611
3066.92	0.47
3075.65	0.4761
3084.38	0.482
3093.11	0.484
3101.84	0.484
3110.57	0.478
3119.3	0.479
3128.03	0.4795
3136.76	0.4825
3145.49	0.484
3154.21	0.4835
3162.94	0.4745
3171.67	0.4685
3180.4	0.46
3189.13	0.457
3197.86	0.458
3206.59	0.459
3215.32	0.463
3224.05	0.4711
3232.78	0.4811
3241.51	0.4845
3250.24	0.4885
3258.97	0.49
3267.7	0.4935
3276.43	0.496
3285.16	0.499
3293.89	0.498
3302.62	0.4991
3311.35	0.5
3320.08	0.499
3328.81	0.499
3337.54	0.496
3346.26	0.494
3354.99	0.4895
3363.72	0.488
3372.45	0.485
3381.18	0.485
3389.91	0.483
3398.64	0.483
3407.37	0.484
3416.1	0.484
3424.83	0.4845
3433.56	0.485
3442.29	0.485
3451.02	0.486
3459.75	0.4885
3468.48	0.4945
3477.21	0.5091
3485.94	0.5263
3494.67	0.5446
3503.4	0.5715
3512.13	0.5781
3520.86	0.5931
3529.59	0.6
3538.32	0.6061
3547.04	0.61
3555.77	0.6145
3564.5	0.6235
3573.23	0.629
3581.96	0.6335
3590.69	0.6405
3599.42	0.6445
3608.15	0.6495
3616.88	0.6545
3625.61	0.66
3634.34	0.661
3643.07	0.662
3651.8	0.662
3660.53	0.662
3669.26	0.662
3677.99	0.662
3686.72	0.662
3695.45	0.662
3704.18	0.662
3712.91	0.662
3721.64	0.662
3730.37	0.661
3739.09	0.661
3747.82	0.661
3756.55	0.661
3765.28	0.661
3774.01	0.661
3782.74	0.661
3791.47	0.661
3800.2	0.661
3808.93	0.661
3817.66	0.661
3826.39	0.661
3835.12	0.6579
3843.85	0.654
3852.58	0.653
3861.31	0.651
3870.04	0.649
3878.77	0.648
3887.5	0.6471
3896.23	0.648
3904.96	0.6471
3913.69	0.6469
