Infrared Spectrum: 2,5-Bis(chloromethyl)-p-xylene
Formula: C 10 H 12 Cl 2
CAS: 6298-72-2
State: gas
Instrument: HP-GC/MS/IRD
Origin: NIST Mass Spectrometry Data Center
1/CM	ABSORBANCE
550	0.00111
562	0.0004308
574	0.0011544
586	0.0020112
598	0.0009348
610	0.0007332
622	0.0011724
634	0.0008376
646	0.0006888
658	0.0009504
670	0.0015756
682	0.0045888
694	0.0082428
706	0.0064992
718	0.0090132
730	0.0081228
742	0.004434
754	0.0028608
766	0.002628
778	0.0027864
790	0.0028284
802	0.0043908
814	0.0037236
826	0.0013896
838	0.0005772
850	0.0005736
862	0.0007224
874	0.0010992
886	0.0016212
898	0.0009948
910	0.0007836
922	0.000558
934	0.0004956
946	0.0003804
958	0.0002496
970	0.0002652
982	0.0002652
994	0.0004752
1006	0.0004488
1018	0.0004392
1030	0.0005856
1042	0.0006948
1054	0.0004248
1066	0.0002184
1078	0.0001944
1090	0.0003108
1102	6.6e-05
1114	0.0001848
1126	0.0005496
1138	0.0005172
1150	0.0003012
1162	0.0002112
1174	0.0004896
1186	0.0007896
1198	0.001218
1210	0.0008004
1222	0.0006876
1234	0.00108
1246	0.0030972
1258	0.0103788
1270	0.0084972
1282	0.0026472
1294	0.0016608
1306	0.0011232
1318	0.0007104
1330	0.0005232
1342	0.0005052
1354	0.0005136
1366	0.0006864
1378	0.001248
1390	0.0017928
1402	0.0023832
1414	0.0015708
1426	0.0015252
1438	0.0023448
1450	0.0041916
1462	0.0044616
1474	0.002634
1486	0.0021588
1498	0.0032976
1510	0.0033852
1522	0.0013908
1534	0.0008172
1546	0.0007056
1558	0.0006084
1570	0.0005124
1582	0.0004044
1594	0.0003672
1606	0.000306
1618	0.0003096
1630	0.0002412
1642	0.0002088
1654	0.000174
1666	0.0001128
1678	8.64e-05
1690	9.12e-05
1702	8.76e-05
1714	0.00015
1726	0.0001344
1738	0.0002424
1750	0.0003936
1762	0.000384
1774	0.0002076
1786	0.0001884
1798	0.0001404
1810	8.4e-05
1822	9e-05
1834	8.4e-05
1846	6.96e-05
1858	7.2e-05
1870	9.84e-05
1882	6.12e-05
1894	4.68e-05
1906	6.84e-05
1918	0.0001224
1930	0.0001008
1942	9.84e-05
1954	0.0001176
1966	9.48e-05
1978	8.88e-05
1990	6.48e-05
2002	7.2e-05
2014	6.72e-05
2026	0.0001044
2038	0.0001212
2050	0.0001608
2062	0.0001404
2074	0.000156
2086	0.000132
2098	0.0001212
2110	0.0001224
2122	7.68e-05
2134	0.0001104
2146	4.92e-05
2158	8.16e-05
2170	7.44e-05
2182	9.36e-05
2194	0.0001032
2206	6.36e-05
2218	6e-05
2230	0.0001152
2242	9.48e-05
2254	0.0001224
2266	0.0001296
2278	8.88e-05
2290	9.24e-05
2302	0.0001068
2314	0.0001236
2326	0.0001284
2338	0.0001272
2350	0.0001452
2362	0.0001392
2374	0.0001416
2386	0.0001452
2398	0.0001296
2410	0.000144
2422	0.0001668
2434	0.0001728
2446	0.0001668
2458	0.0001392
2470	0.0001272
2482	0.0002076
2494	0.0001644
2506	0.0001596
2518	0.00015
2530	0.0001656
2542	0.0001008
2554	0.0001092
2566	3.96e-05
2578	7.56e-05
2590	7.44e-05
2602	0.0001188
2614	0.0001368
2626	0.0001116
2638	0.0001836
2650	0.0001896
2662	0.0001644
2674	0.0002076
2686	0.0002268
2698	0.00024
2710	0.0003672
2722	0.0003768
2734	0.0004152
2746	0.0005376
2758	0.000384
2770	0.000336
2782	0.0003876
2794	0.0004284
2806	0.000432
2818	0.0005592
2830	0.0006696
2842	0.000882
2854	0.0013632
2866	0.0021744
2878	0.0035028
2890	0.0035856
2902	0.0030216
2914	0.00321
2926	0.0050016
2938	0.006588
2950	0.0050748
2962	0.0053088
2974	0.0068892
2986	0.0063396
2998	0.0038772
3010	0.0050748
3022	0.0057312
3034	0.003096
3046	0.001746
3058	0.0014568
3070	0.0011676
3082	0.0009612
3094	0.000756
3106	0.0006624
3118	0.00066
3130	0.0006516
3142	0.0004116
3154	0.0002772
3166	0.00033
3178	0.0002016
3190	0.0001956
3202	0.000186
3214	0.0001188
3226	0.0002388
3238	0.0002532
3250	0.00021
3262	0.00012
3274	0.0001968
3286	0.0001716
3298	0.0002388
3310	0.0002424
3322	0.0001896
3334	0.0001752
3346	0.0001668
3358	0.0001188
3370	8.64e-05
3382	0.0001884
3394	0.0001524
3406	0.00018
3418	0.0001416
3430	0.0001092
3442	0.0001176
3454	0.0001152
3466	0.0001584
3478	0.0001104
3490	0.0001488
3502	0.0001656
3514	0
3526	0.000168
3538	0.000138
3550	0.0002292
3562	0.0001548
3574	0.0001776
3586	0.0001224
3598	9.6e-05
3610	0.000162
3622	0.0001596
3634	0.0002568
3646	0.0003264
3658	3.48e-05
3670	0.0001536
3682	0.0002904
3694	0.0001176
3706	0.0001884
3718	0.0002652
3730	0.0002436
3742	0.000204
3754	0.0002556
3766	0.0001764
3778	0.0001404
3790	0.00021
3802	0.0001908
3814	0.0001848
3826	0.000204
3838	0.0003384
