Infrared Spectrum: BICYCLOPENTADIENYLIDENE, OCTACHLORO-
Formula: C10 Cl8
CAS: 6298-65-3
State: SOLID (SPLIT MULL), FLUOROLUBE FOR 3800-1330 CM^-^1, NUJOL FOR 1330-450 CM^-^1
Class: COBLENTZ III
Instrument: Not specified, most likely a prism, grating, or hybrid spectrometer.
Sampling: TRANSMISSION
Resolution: 4
Origin: DOW CHEMICAL COMPANY
1/CM	TRANSMITTANCE
451.025	0.87
460.137	0.875
469.248	0.881
478.36	0.888
487.471	0.895
496.583	0.9
505.695	0.891
514.806	0.8491
523.918	0.104
533.03	0.907
542.141	0.916
551.253	0.911
560.364	0.907
569.476	0.897
578.588	0.906
587.699	0.7869
596.811	0.911
605.923	0.914
615.034	0.916
624.146	0.877
633.257	0.6151
642.369	0.934
651.481	0.939
660.592	0.936
669.704	0.934
678.816	0.932
687.927	0.932
697.039	0.907
706.15	0.7782
715.262	0.831
724.374	0.796
733.485	0.82
742.597	0.751
751.709	0.0886
760.82	0.141
769.932	0.861
779.043	0.89
788.155	0.87
797.267	0.829
806.378	0.613
815.49	0.005
824.601	0.6233
833.713	0.78
842.825	0.8129
851.936	0.847
861.048	0.865
870.16	0.879
879.271	0.877
888.383	0.859
897.494	0.856
906.606	0.854
915.718	0.836
924.829	0.822
933.941	0.4662
943.053	0.801
952.164	0.808
961.276	0.7901
970.387	0.774
979.499	0.794
988.611	0.776
997.722	0.735
1006.83	0.6541
1015.95	0.2442
1025.06	0.053
1034.17	0.671
1043.28	0.721
1052.39	0.7899
1061.5	0.806
1070.62	0.812
1079.73	0.803
1088.84	0.789
1097.95	0.817
1107.06	0.831
1116.17	0.838
1125.28	0.815
1134.4	0.787
1143.51	0.6931
1152.62	0.455
1161.73	0.758
1170.84	0.735
1179.95	0.707
1189.07	0.705
1198.18	0.4042
1207.29	0.102
1216.4	0.56
1225.51	0.817
1234.62	0.843
1243.74	0.842
1252.85	0.835
1261.96	0.824
1271.07	0.812
1280.18	0.812
1289.29	0.808
1298.41	0.81
1307.52	0.806
1316.63	0.804
1325.74	0.806
1334.85	0.804
1343.96	0.771
1353.08	0.787
1362.19	0.765
1371.3	0.843
1380.41	0.867
1389.52	0.879
1398.63	0.865
1407.75	0.865
1416.86	0.863
1425.97	0.868
1435.08	0.874
1444.19	0.877
1453.3	0.886
1462.41	0.886
1471.53	0.886
1480.64	0.881
1489.75	0.881
1498.86	0.879
1507.97	0.882
1517.08	0.881
1526.2	0.884
1535.31	0.877
1544.42	0.872
1553.53	0.838
1562.64	0.794
1571.75	0.7231
1580.87	0.253
1589.98	0.856
1599.09	0.8061
1608.2	0.5477
1617.31	0.556
1626.42	0.8039
1635.54	0.934
1644.65	0.943
1653.76	0.93
1662.87	0.921
1671.98	0.92
1681.09	0.918
1690.21	0.916
1699.32	0.913
1708.43	0.907
1717.54	0.888
1726.65	0.9
1735.76	0.904
1744.88	0.907
1753.99	0.909
1763.1	0.909
1772.21	0.907
1781.32	0.906
1790.43	0.907
1799.54	0.906
1808.66	0.904
1817.77	0.906
1826.88	0.906
1835.99	0.904
1845.1	0.904
1854.21	0.9
1863.33	0.895
1872.44	0.897
1881.55	0.898
1890.66	0.898
1899.77	0.897
1908.88	0.895
1918	0.895
1927.11	0.897
1936.22	0.898
1945.33	0.898
1954.44	0.897
1963.55	0.897
1972.67	0.893
1981.78	0.888
1990.89	0.891
2000	0.893
2009.11	0.865
2018.22	0.8669
2027.34	0.865
2036.45	0.865
2045.56	0.8591
2054.67	0.858
2063.78	0.8541
2072.89	0.847
2082.01	0.854
2091.12	0.851
2100.23	0.845
2109.34	0.847
2118.45	0.8471
2127.56	0.847
2136.67	0.845
2145.79	0.842
2154.9	0.842
2164.01	0.8401
2173.12	0.8351
2182.23	0.8292
2191.34	0.8331
2200.46	0.829
2209.57	0.829
2218.68	0.8241
2227.79	0.82
2236.9	0.817
2246.01	0.813
2255.13	0.812
2264.24	0.812
2273.35	0.8064
2282.46	0.8032
2291.57	0.801
2300.68	0.799
2309.8	0.7992
2318.91	0.794
2328.02	0.7918
2337.13	0.79
2346.24	0.792
2355.35	0.7872
2364.47	0.7764
2373.58	0.7767
2382.69	0.794
2391.8	0.7924
2400.91	0.7942
2410.02	0.7936
2419.14	0.792
2428.25	0.79
2437.36	0.79
2446.47	0.7918
2455.58	0.79
2464.69	0.79
2473.8	0.789
2482.92	0.7899
2492.03	0.789
2501.14	0.789
2510.25	0.789
2519.36	0.787
2528.47	0.787
2537.59	0.785
2546.7	0.785
2555.81	0.785
2564.92	0.781
2574.03	0.781
2583.14	0.78
2592.26	0.78
2601.37	0.78
2610.48	0.7783
2619.59	0.774
2628.7	0.774
2637.81	0.773
2646.93	0.771
2656.04	0.771
2665.15	0.769
2674.26	0.769
2683.37	0.7677
2692.48	0.7654
2701.6	0.765
2710.71	0.762
2719.82	0.762
2728.93	0.76
2738.04	0.76
2747.15	0.757
2756.27	0.755
2765.38	0.753
2774.49	0.7514
2783.6	0.7502
2792.71	0.754
2801.82	0.748
2810.93	0.746
2820.05	0.744
2829.16	0.742
2838.27	0.739
2847.38	0.735
2856.49	0.734
2865.6	0.735
2874.72	0.735
2883.83	0.7305
2892.94	0.7265
2902.05	0.7252
2911.16	0.7195
2920.27	0.718
2929.39	0.718
2938.5	0.7205
2947.61	0.721
2956.72	0.721
2965.83	0.721
2974.94	0.723
2984.06	0.7235
2993.17	0.723
3002.28	0.723
3011.39	0.721
3020.5	0.721
3029.61	0.721
3038.73	0.719
3047.84	0.719
3056.95	0.718
3066.06	0.718
3075.17	0.716
3084.28	0.716
3093.4	0.716
3102.51	0.714
3111.62	0.712
3120.73	0.71
3129.84	0.71
3138.95	0.707
3148.06	0.707
3157.18	0.707
3166.29	0.705
3175.4	0.7064
3184.51	0.705
3193.62	0.703
3202.73	0.703
3211.85	0.7044
3220.96	0.703
3230.07	0.7044
3239.18	0.703
3248.29	0.702
3257.4	0.703
3266.52	0.702
3275.63	0.702
3284.74	0.702
3293.85	0.7037
3302.96	0.702
3312.07	0.698
3321.19	0.696
3330.3	0.696
3339.41	0.696
3348.52	0.696
3357.63	0.695
3366.74	0.693
3375.86	0.6917
3384.97	0.691
3394.08	0.691
3403.19	0.6897
3412.3	0.689
3421.41	0.6847
3430.53	0.682
3439.64	0.68
3448.75	0.6794
3457.86	0.673
3466.97	0.6717
3476.08	0.6688
3485.19	0.668
3494.31	0.664
3503.42	0.663
3512.53	0.661
3521.64	0.661
3530.75	0.659
3539.86	0.6582
3548.98	0.659
3558.09	0.6564
3567.2	0.656
3576.31	0.654
3585.42	0.654
3594.53	0.654
3603.65	0.654
3612.76	0.652
3621.87	0.652
3630.98	0.6508
3640.09	0.647
3649.2	0.647
3658.32	0.645
3667.43	0.645
3676.54	0.6461
3685.65	0.645
3694.76	0.643
3703.87	0.641
3712.99	0.641
3722.1	0.6404
3731.21	0.638
3740.32	0.636
3749.43	0.6329
3758.54	0.632
3767.66	0.631
3776.77	0.629
3785.88	0.629
3794.99	0.629
