Infrared Spectrum: CITRIC ACID, TRIALLYL ESTER
Formula: C15 H20 O7
CAS: 6299-73-6
State: LIQUID
Boiling point: 143 C AT 0.4 mmHg
Class: COBLENTZ
Instrument: Not specified, most likely a prism, grating, or hybrid spectrometer.
Sampling: TRANSMISSION
Path length: 0.003 CM
Resolution: 4
Origin: WYANDOTTE CHEMICALS CORP., WYANDOTTE, MICHIGAN, USA
MICROMETERS	TRANSMITTANCE
2.012	0.947
2.04909	0.942
2.08617	0.953
2.12326	0.953
2.16034	0.933
2.19743	0.917
2.23452	0.93
2.2716	0.936
2.30869	0.934
2.34577	0.962
2.38286	0.955
2.41994	0.95
2.45703	0.944
2.49412	0.945
2.5312	0.95
2.56829	0.955
2.60537	0.967
2.64246	0.973
2.67955	0.967
2.71663	0.95
2.75372	0.877
2.7908	0.626
2.82789	0.337
2.86497	0.249
2.90206	0.335
2.93915	0.475
2.97623	0.619
3.01332	0.769
3.0504	0.843
3.08749	0.852
3.12458	0.848
3.16166	0.845
3.19875	0.812
3.23583	0.58
3.27292	0.712
3.31	0.52
3.34709	0.41
3.38418	0.306
3.42126	0.546
3.45835	0.609
3.49543	0.704
3.53252	0.806
3.56961	0.832
3.60669	0.866
3.64378	0.869
3.68086	0.879
3.71795	0.888
3.75503	0.907
3.79212	0.908
3.82921	0.907
3.86629	0.893
3.90338	0.908
3.94046	0.913
3.97755	0.91
4.01464	0.922
4.05172	0.91
4.08881	0.905
4.12589	0.904
4.16298	0.904
4.20006	0.911
4.23715	0.9
4.27424	0.91
4.31132	0.916
4.34841	0.911
4.38549	0.914
4.42258	0.917
4.45967	0.933
4.49675	0.924
4.53384	0.931
4.57092	0.933
4.60801	0.938
4.64509	0.928
4.68218	0.93
4.71927	0.917
4.75635	0.927
4.79344	0.919
4.83052	0.907
4.86761	0.914
4.9047	0.913
4.94178	0.911
4.97887	0.908
5.01595	0.9
5.05304	0.896
5.09012	0.877
5.12721	0.877
5.1643	0.882
5.20138	0.874
5.23847	0.863
5.27555	0.823
5.31264	0.803
5.34973	0.76
5.38681	0.763
5.4239	0.752
5.46098	0.764
5.49807	0.749
5.53515	0.691
5.57224	0.613
5.60933	0.455
5.64641	0.224
5.6835	0.024
5.72058	0.026
5.75767	0.027
5.79476	0.024
5.83184	0.058
5.86893	0.199
5.90601	0.394
5.9431	0.527
5.98018	0.602
6.01727	0.555
6.05436	0.428
6.09144	0.676
6.12853	0.713
6.16561	0.747
6.2027	0.767
6.23979	0.781
6.27687	0.791
6.31396	0.789
6.35104	0.789
6.38813	0.794
6.42522	0.781
6.4623	0.772
6.49939	0.773
6.53647	0.772
6.57356	0.761
6.61064	0.756
6.64773	0.739
6.68482	0.715
6.7219	0.673
6.75899	0.561
6.79607	0.284
6.83316	0.176
6.87025	0.13
6.90733	0.145
6.94442	0.133
6.9815	0.088
7.01859	0.083
7.05567	0.089
7.09276	0.105
7.12985	0.108
7.16693	0.091
7.20402	0.065
7.2411	0.041
7.27819	0.041
7.31528	0.054
7.35236	0.072
7.38945	0.072
7.42653	0.051
7.46362	0.047
7.5007	0.044
7.53779	0.054
7.57488	0.058
7.61196	0.055
7.64905	0.051
7.68613	0.038
7.72322	0.032
7.76031	0.032
7.79739	0.034
7.83448	0.03
7.87156	0.034
7.90865	0.035
7.94573	0.035
7.98282	0.03
8.01991	0.034
8.05699	0.027
8.09408	0.029
8.13116	0.027
8.16825	0.026
8.20534	0.024
8.24242	0.021
8.27951	0.018
8.31659	0.023
8.35368	0.023
8.39076	0.023
8.42785	0.023
8.46494	0.027
8.50202	0.03
8.53911	0.018
8.57619	0.021
8.61328	0.026
8.65037	0.034
8.68745	0.043
8.72454	0.051
8.76162	0.068
8.79871	0.063
8.83579	0.065
8.87288	0.055
8.90997	0.063
8.94705	0.052
8.98414	0.057
9.02122	0.071
9.05831	0.08
9.0954	0.088
9.13248	0.1
9.16957	0.114
9.20665	0.12
9.24374	0.126
9.28082	0.122
9.31791	0.131
9.355	0.159
9.39208	0.171
9.42917	0.165
9.46625	0.179
9.50334	0.208
9.54043	0.239
9.57751	0.27
9.6146	0.284
9.65168	0.286
9.68877	0.281
9.72585	0.27
9.76294	0.252
9.80003	0.19
9.83711	0.143
9.8742	0.1
9.91128	0.072
9.94837	0.046
9.98546	0.035
10.0225	0.03
10.0596	0.021
10.0967	0.023
10.1338	0.027
10.1709	0.026
10.208	0.034
10.2451	0.035
10.2821	0.051
10.3192	0.049
10.3563	0.058
10.3934	0.077
10.4305	0.099
10.4676	0.099
10.5047	0.094
10.5417	0.085
10.5788	0.06
10.6159	0.051
10.653	0.038
10.6901	0.032
10.7272	0.04
10.7643	0.027
10.8013	0.03
10.8384	0.037
10.8755	0.044
10.9126	0.063
10.9497	0.1
10.9868	0.145
11.0239	0.215
11.0609	0.301
11.098	0.349
11.1351	0.366
11.1722	0.402
11.2093	0.452
11.2464	0.472
11.2835	0.49
11.3205	0.512
11.3576	0.529
11.3947	0.544
11.4318	0.56
11.4689	0.565
11.506	0.582
11.5431	0.589
11.5801	0.609
11.6172	0.636
11.6543	0.647
11.6914	0.659
11.7285	0.659
11.7656	0.653
11.8027	0.643
11.8397	0.639
11.8768	0.63
11.9139	0.628
11.951	0.622
11.9881	0.65
12.0252	0.647
12.0623	0.659
12.0993	0.659
12.1364	0.64
12.1735	0.619
12.2106	0.585
12.2477	0.569
12.2848	0.566
12.3219	0.569
12.3589	0.578
12.396	0.572
12.4331	0.591
12.4702	0.606
12.5073	0.62
12.5444	0.647
12.5815	0.654
12.6186	0.654
12.6556	0.657
12.6927	0.65
12.7298	0.659
12.7669	0.66
12.804	0.667
12.8411	0.654
12.8782	0.653
12.9152	0.662
12.9523	0.664
12.9894	0.69
13.0265	0.718
13.0636	0.732
13.1007	0.744
13.1378	0.739
13.1748	0.755
13.2119	0.747
13.249	0.755
13.2861	0.75
13.3232	0.752
13.3603	0.741
13.3974	0.744
13.4344	0.733
13.4715	0.729
13.5086	0.719
13.5457	0.722
13.5828	0.729
13.6199	0.727
13.657	0.733
13.694	0.727
13.7311	0.729
13.7682	0.727
13.8053	0.719
13.8424	0.721
13.8795	0.712
13.9166	0.705
13.9536	0.701
13.9907	0.707
14.0278	0.702
14.0649	0.691
14.102	0.708
14.1391	0.701
14.1762	0.705
14.2132	0.71
14.2503	0.715
14.2874	0.712
14.3245	0.713
14.3616	0.718
14.3987	0.713
14.4358	0.707
14.4728	0.707
14.5099	0.704
14.547	0.701
14.5841	0.698
14.6212	0.685
14.6583	0.671
14.6954	0.67
14.7324	0.657
14.7695	0.642
14.8066	0.63
14.8437	0.626
14.8808	0.613
14.9179	0.616
14.955	0.6
14.992	0.608
15.0291	0.599
15.0662	0.589
15.1033	0.591
15.1404	0.592
15.1775	0.589
15.2146	0.586
15.2516	0.586
15.2887	0.583
15.3258	0.583
15.3629	0.583
15.4	0.582
15.4371	0.582
15.4742	0.585
15.5112	0.586
15.5483	0.585
15.5854	0.589
15.6225	0.582
15.6596	0.575
15.6967	0.578
15.7338	0.583
15.7708	0.572
15.8079	0.578
15.845	0.586
15.8821	0.578
15.9192	0.574
15.9563	0.578
