Infrared Spectrum: ANDROST-4-ENE-3,17-DIONE
Formula: C19 H26 O2
CAS: 63-05-8
State: SOLID (KBr DISC)
Class: COBLENTZ III
Instrument: BECKMAN IR-7
Sampling: TRANSMISSION
Resolution: 4
Origin: THE WORCESTER FOUNDATION FOR EXPERIMENTAL BIOLOGY, Neal L. McNiven
1/CM	TRANSMITTANCE
594.176	0.646
602.912	0.631
611.649	0.655
620.385	0.698
629.121	0.744
637.858	0.81
646.594	0.858
655.33	0.871
664.067	0.896
672.803	0.911
681.54	0.798
690.276	0.939
699.012	0.962
707.749	0.957
716.485	0.897
725.221	0.97
733.958	0.979
742.694	0.975
751.43	0.982
760.167	0.985
768.903	0.979
777.639	0.923
786.376	0.964
795.112	0.981
803.848	0.979
812.585	0.981
821.321	0.934
830.058	0.875
838.794	0.935
847.53	0.96
856.267	0.955
865.003	0.767
873.739	0.7809
882.476	0.945
891.212	0.941
899.948	0.856
908.685	0.941
917.421	0.866
926.157	0.865
934.894	0.7451
943.63	0.875
952.366	0.738
961.103	0.838
969.839	0.833
978.576	0.862
987.312	0.847
996.048	0.818
1004.78	0.779
1013.52	0.567
1022.26	0.643
1030.99	0.685
1039.73	0.774
1048.47	0.702
1057.2	0.5959
1065.94	0.744
1074.68	0.777
1083.41	0.779
1092.15	0.654
1100.88	0.761
1109.62	0.724
1118.36	0.755
1127.09	0.734
1135.83	0.784
1144.57	0.809
1153.3	0.762
1162.04	0.782
1170.78	0.683
1179.51	0.778
1188.25	0.721
1196.98	0.684
1205.72	0.788
1214.46	0.76
1223.19	0.496
1231.93	0.57
1240.67	0.692
1249.4	0.689
1258.14	0.76
1266.88	0.628
1275.61	0.7259
1284.35	0.816
1293.08	0.803
1301.82	0.842
1310.56	0.851
1319.29	0.83
1328.03	0.6611
1336.77	0.746
1345.5	0.72
1354.24	0.734
1362.98	0.767
1371.71	0.639
1380.45	0.705
1389.18	0.793
1397.92	0.777
1406.66	0.757
1415.39	0.6531
1424.13	0.668
1432.87	0.654
1441.6	0.678
1450.34	0.5748
1459.07	0.707
1467.81	0.709
1476.55	0.864
1485.28	0.893
1494.02	0.899
1502.76	0.902
1511.49	0.913
1520.23	0.913
1528.97	0.912
1537.7	0.909
1546.44	0.899
1555.17	0.889
1563.91	0.889
1572.65	0.88
1581.38	0.848
1590.12	0.818
1598.86	0.694
1607.59	0.488
1616.33	0.579
1625.07	0.663
1633.8	0.5601
1642.54	0.394
1651.27	0.121
1660.01	0.063
1668.75	0.2069
1677.48	0.527
1686.22	0.653
1694.96	0.718
1703.69	0.753
1712.43	0.668
1721.17	0.282
1729.9	0.07
1738.64	0.2319
1747.37	0.7449
1756.11	0.815
1764.85	0.857
1773.58	0.908
1782.32	0.931
1791.06	0.934
1799.79	0.94
1808.53	0.945
1817.27	0.95
1826	0.954
1834.74	0.957
1843.47	0.957
1852.21	0.958
1860.95	0.959
1869.68	0.96
1878.42	0.959
1887.16	0.96
1895.89	0.962
1904.63	0.964
1913.37	0.963
1922.1	0.962
1930.84	0.96
1939.57	0.957
1948.31	0.952
1957.05	0.954
1965.78	0.957
1974.52	0.958
1983.26	0.958
1991.99	0.958
2000.73	0.9567
2009.47	0.956
2018.2	0.956
2026.94	0.956
2035.67	0.956
2044.41	0.955
2053.15	0.955
2061.88	0.955
2070.62	0.955
2079.36	0.954
2088.09	0.954
2096.83	0.9537
2105.57	0.953
2114.3	0.952
2123.04	0.952
2131.77	0.952
2140.51	0.9516
2149.25	0.951
2157.98	0.9506
2166.72	0.949
2175.46	0.948
2184.19	0.9466
2192.93	0.946
2201.67	0.944
2210.4	0.943
2219.14	0.9415
2227.87	0.941
2236.61	0.9395
2245.35	0.938
2254.08	0.938
2262.82	0.938
2271.56	0.938
2280.29	0.936
2289.03	0.936
2297.76	0.9345
2306.5	0.933
2315.24	0.933
2323.97	0.9314
2332.71	0.931
2341.45	0.93
2350.18	0.929
2358.92	0.928
2367.66	0.927
2376.39	0.925
2385.13	0.925
2393.86	0.925
2402.6	0.9234
2411.34	0.923
2420.07	0.922
2428.81	0.921
2437.55	0.92
2446.28	0.92
2455.02	0.919
2463.76	0.918
2472.49	0.918
2481.23	0.917
2489.96	0.915
2498.7	0.914
2507.44	0.912
2516.17	0.911
2524.91	0.909
2533.65	0.9082
2542.38	0.907
2551.12	0.9052
2559.86	0.904
2568.59	0.9022
2577.33	0.901
2586.06	0.8992
2594.8	0.8972
2603.54	0.8952
2612.27	0.893
2621.01	0.8911
2629.75	0.8891
2638.48	0.888
2647.22	0.8851
2655.96	0.8831
2664.69	0.8821
2673.43	0.88
2682.16	0.8761
2690.9	0.8741
2699.64	0.872
2708.37	0.87
2717.11	0.8671
2725.85	0.865
2734.58	0.8621
2743.32	0.86
2752.06	0.8561
2760.79	0.855
2769.53	0.854
2778.26	0.85
2787	0.8459
2795.74	0.8113
2804.47	0.7251
2813.21	0.6495
2821.95	0.6318
2830.68	0.5777
2839.42	0.5001
2848.16	0.379
2856.89	0.5168
2865.63	0.627
2874.36	0.6171
2883.1	0.5371
2891.84	0.4003
2900.57	0.3454
2909.31	0.2634
2918.05	0.3019
2926.78	0.4029
2935.52	0.3813
2944.26	0.3313
2952.99	0.3578
2961.73	0.4387
2970.46	0.5491
2979.2	0.6206
2987.94	0.6791
2996.67	0.7358
3005.41	0.784
3014.15	0.7741
3022.88	0.763
3031.62	0.778
3040.35	0.8153
3049.09	0.827
3057.83	0.827
3066.56	0.827
3075.3	0.8247
3084.04	0.8224
3092.77	0.8154
3101.51	0.811
3110.25	0.8067
3118.98	0.804
3127.72	0.8027
3136.45	0.8006
3145.19	0.7986
3153.93	0.7966
3162.66	0.7942
3171.4	0.7882
3180.14	0.785
3188.87	0.7846
3197.61	0.7826
3206.35	0.7776
3215.08	0.7731
3223.82	0.7685
3232.55	0.7655
3241.29	0.7625
3250.03	0.758
3258.76	0.752
3267.5	0.7465
3276.24	0.7355
3284.97	0.7315
3293.71	0.7275
3302.45	0.721
3311.18	0.7185
3319.92	0.7165
3328.65	0.7155
3337.39	0.7134
3346.13	0.7109
3354.86	0.7044
3363.6	0.7004
3372.34	0.697
3381.07	0.6924
3389.81	0.6904
3398.55	0.689
3407.28	0.6874
3416.02	0.6854
3424.75	0.684
3433.49	0.6833
3442.23	0.684
3450.96	0.686
3459.7	0.6887
3468.44	0.6947
3477.17	0.7014
3485.91	0.7054
3494.65	0.7114
3503.38	0.7184
3512.12	0.7232
3520.85	0.7374
3529.59	0.7427
3538.33	0.7458
3547.06	0.7543
3555.8	0.7625
3564.54	0.7749
3573.27	0.7828
3582.01	0.785
3590.75	0.7952
3599.48	0.8065
3608.22	0.8156
3616.95	0.8227
3625.69	0.8287
3634.43	0.8346
3643.16	0.8397
3651.9	0.8467
3660.64	0.8528
3669.37	0.8539
3678.11	0.855
3686.85	0.8578
3695.58	0.8619
3704.32	0.8629
3713.05	0.864
3721.79	0.864
3730.53	0.863
3739.26	0.861
3748	0.86
3756.74	0.859
3765.47	0.859
3774.21	0.859
3782.94	0.858
3791.68	0.857
3800.42	0.856
3809.15	0.856
3817.89	0.855
3826.63	0.855
3835.36	0.854
3844.1	0.8539
3852.84	0.851
3861.57	0.851
3870.31	0.85
3879.04	0.849
3887.78	0.848
3896.52	0.848
3905.25	0.8479
3913.99	0.846
3922.73	0.8439
3931.46	0.8429
3940.2	0.841
3948.94	0.84
3957.67	0.84
3966.41	0.839
3975.14	0.838
3983.88	0.838
3992.62	0.837
4001.35	0.836
