Infrared Spectrum: 6Beta-HYDROXYANDROST-4-ENE-3,17-DIONE
Formula: C19 H26 O3
CAS: 63-00-3
State: SOLID (KBr DISC)
Class: COBLENTZ III
Instrument: BECKMAN IR-7
Sampling: TRANSMISSION
Resolution: 4
Origin: THE WORCESTER FOUNDATION FOR EXPERIMENTAL BIOLOGY
1/CM	TRANSMITTANCE
597.15	0.42
605.7	0.424
614.249	0.461
622.799	0.474
631.349	0.515
639.898	0.524
648.448	0.524
656.997	0.542
665.547	0.596
674.097	0.639
682.646	0.678
691.196	0.495
699.746	0.702
708.295	0.742
716.845	0.4807
725.395	0.64
733.944	0.78
742.494	0.842
751.043	0.86
759.593	0.861
768.143	0.706
776.692	0.88
785.242	0.901
793.792	0.896
802.341	0.747
810.891	0.893
819.44	0.799
827.99	0.709
836.54	0.714
845.089	0.813
853.639	0.902
862.189	0.905
870.738	0.5393
879.288	0.6129
887.838	0.5499
896.387	0.84
904.937	0.867
913.486	0.705
922.036	0.464
930.586	0.63
939.135	0.7339
947.685	0.83
956.235	0.765
964.784	0.567
973.334	0.718
981.884	0.832
990.433	0.773
998.983	0.791
1007.53	0.647
1016.08	0.255
1024.63	0.538
1033.18	0.27
1041.73	0.328
1050.28	0.582
1058.83	0.492
1067.38	0.565
1075.93	0.512
1084.48	0.751
1093.03	0.742
1101.58	0.395
1110.13	0.649
1118.68	0.577
1127.23	0.559
1135.78	0.669
1144.33	0.784
1152.88	0.62
1161.43	0.729
1169.98	0.695
1178.53	0.39
1187.07	0.2319
1195.62	0.5591
1204.17	0.661
1212.72	0.734
1221.27	0.528
1229.82	0.3619
1238.37	0.343
1246.92	0.562
1255.47	0.36
1264.02	0.229
1272.57	0.4919
1281.12	0.659
1289.67	0.57
1298.22	0.479
1306.77	0.698
1315.32	0.736
1323.87	0.442
1332.42	0.384
1340.97	0.594
1349.52	0.617
1358.07	0.683
1366.62	0.599
1375.17	0.4271
1383.72	0.582
1392.27	0.548
1400.82	0.351
1409.37	0.293
1417.91	0.223
1426.46	0.311
1435.01	0.58
1443.56	0.519
1452.11	0.497
1460.66	0.69
1469.21	0.434
1477.76	0.665
1486.31	0.839
1494.86	0.899
1503.41	0.928
1511.96	0.927
1520.51	0.932
1529.06	0.936
1537.61	0.944
1546.16	0.949
1554.71	0.942
1563.26	0.93
1571.81	0.929
1580.36	0.912
1588.91	0.873
1597.46	0.845
1606.01	0.798
1614.56	0.654
1623.11	0.722
1631.66	0.726
1640.21	0.707
1648.75	0.677
1657.3	0.451
1665.85	0.268
1674.4	0.131
1682.95	0.039
1691.5	0.091
1700.05	0.286
1708.6	0.324
1717.15	0.068
1725.7	0.007
1734.25	0.14
1742.8	0.353
1751.35	0.5121
1759.9	0.671
1768.45	0.782
1777	0.843
1785.55	0.888
1794.1	0.902
1802.65	0.923
1811.2	0.952
1819.75	0.962
1828.3	0.968
1836.85	0.975
1845.4	0.98
1853.95	0.983
1862.5	0.985
1871.05	0.988
1879.6	0.99
1888.14	0.993
1896.69	1
1905.24	1.009
1913.79	1.012
1922.34	1.011
1930.89	1.01
1939.44	1.009
1947.99	1.001
1956.54	1
1965.09	1.004
1973.64	1.012
1982.19	1.009
1990.74	1.009
1999.29	1.01
2007.84	1.011
2016.39	1.012
2024.94	1.012
2033.49	1.013
2042.04	1.013
2050.59	1.014
2059.14	1.014
2067.69	1.014
2076.24	1.014
2084.79	1.014
2093.34	1.014
2101.89	1.014
2110.44	1.014
2118.98	1.014
2127.53	1.014
2136.08	1.014
2144.63	1.014
2153.18	1.014
2161.73	1.014
2170.28	1.0147
2178.83	1.016
2187.38	1.016
2195.93	1.017
2204.48	1.018
2213.03	1.0142
2221.58	1.0081
2230.13	1.006
2238.68	1.003
2247.23	1.0019
2255.78	1
2264.33	0.999
2272.88	0.998
2281.43	0.997
2289.98	0.9967
2298.53	0.9957
2307.08	0.995
2315.63	0.9936
2324.18	0.9925
2332.73	0.9915
2341.28	0.9904
2349.82	0.9894
2358.37	0.9873
2366.92	0.986
2375.47	0.9835
2384.02	0.982
2392.57	0.98
2401.12	0.978
2409.67	0.976
2418.22	0.974
2426.77	0.973
2435.32	0.9699
2443.87	0.9678
2452.42	0.9647
2460.97	0.963
2469.52	0.961
2478.07	0.96
2486.62	0.9586
2495.17	0.957
2503.72	0.956
2512.27	0.954
2520.82	0.952
2529.37	0.951
2537.92	0.949
2546.47	0.9473
2555.02	0.9453
2563.57	0.944
2572.12	0.9422
2580.66	0.941
2589.21	0.939
2597.76	0.9342
2606.31	0.927
2614.86	0.9148
2623.41	0.8946
2631.96	0.8804
2640.51	0.8685
2649.06	0.8628
2657.61	0.8645
2666.16	0.8743
2674.71	0.8774
2683.26	0.879
2691.81	0.8786
2700.36	0.8775
2708.91	0.876
2717.46	0.8754
2726.01	0.874
2734.56	0.8723
2743.11	0.871
2751.66	0.869
2760.21	0.8672
2768.76	0.8604
2777.31	0.855
2785.86	0.8482
2794.41	0.836
2802.96	0.8255
2811.51	0.7475
2820.05	0.7205
2828.6	0.6267
2837.15	0.4905
2845.7	0.3703
2854.25	0.2653
2862.8	0.2845
2871.35	0.2998
2879.9	0.2767
2888.45	0.2129
2897	0.2575
2905.55	0.301
2914.1	0.2033
2922.65	0.1569
2931.2	0.0899
2939.75	0.1096
2948.3	0.2224
2956.85	0.2764
2965.4	0.2292
2973.95	0.2985
2982.5	0.3986
2991.05	0.5281
2999.6	0.6091
3008.15	0.6988
3016.7	0.796
3025.25	0.8297
3033.8	0.8406
3042.35	0.8493
3050.89	0.8641
3059.44	0.8694
3067.99	0.8725
3076.54	0.875
3085.09	0.874
3093.64	0.8688
3102.19	0.8653
3110.74	0.864
3119.29	0.8595
3127.84	0.8534
3136.39	0.8492
3144.94	0.8435
3153.49	0.8381
3162.04	0.834
3170.59	0.83
3179.14	0.8227
3187.69	0.8127
3196.24	0.7946
3204.79	0.774
3213.34	0.761
3221.89	0.7498
3230.44	0.7353
3238.99	0.7051
3247.54	0.6543
3256.09	0.6235
3264.64	0.5716
3273.19	0.5151
3281.73	0.4412
3290.28	0.3844
3298.83	0.3442
3307.38	0.2893
3315.93	0.2655
3324.48	0.1949
3333.03	0.1532
3341.58	0.1124
3350.13	0.0692
3358.68	0.053
3367.23	0.0605
3375.78	0.0782
3384.33	0.1071
3392.88	0.1825
3401.43	0.216
3409.98	0.2708
3418.53	0.2927
3427.08	0.3226
3435.63	0.345
3444.18	0.3988
3452.73	0.4487
3461.28	0.4968
3469.83	0.5549
3478.38	0.6169
3486.93	0.6624
3495.48	0.6946
3504.03	0.7266
3512.57	0.7527
3521.12	0.7918
3529.67	0.8057
3538.22	0.8259
3546.77	0.8472
3555.32	0.8666
3563.87	0.8856
3572.42	0.8984
3580.97	0.9014
3589.52	0.9078
3598.07	0.9179
3606.62	0.9294
3615.17	0.9378
3623.72	0.9409
3632.27	0.945
3640.82	0.9495
3649.37	0.9532
3657.92	0.955
3666.47	0.956
3675.02	0.957
3683.57	0.9588
3692.12	0.9598
3700.67	0.96
3709.22	0.961
3717.77	0.961
3726.32	0.961
3734.87	0.961
3743.42	0.9598
3751.96	0.9577
3760.51	0.954
3769.06	0.9552
3777.61	0.957
3786.16	0.956
3794.71	0.954
3803.26	0.9526
3811.81	0.952
3820.36	0.953
3828.91	0.953
3837.46	0.954
3846.01	0.955
3854.56	0.9553
3863.11	0.9543
3871.66	0.954
3880.21	0.9528
3888.76	0.9511
3897.31	0.951
3905.86	0.95
3914.41	0.949
3922.96	0.947
3931.51	0.9449
3940.06	0.944
3948.61	0.944
3957.16	0.944
3965.71	0.945
3974.26	0.946
