Infrared Spectrum: ISOQUINOLINEDIONE, 1,3(2H,4H)-, 2-HYDROXY, ACETATE ESTER
Formula: C27 H40 O4
CAS: 630-56-8
State: SOLID (NUJOL MULL) VS NUJOL
Class: COBLENTZ III
Instrument: PERKIN-ELMER 21 (GRATING)
Resolution: 2
Origin: THE SQUIBB INSTITUTE FOR MEDICAL RESEARCH
1/CM	TRANSMITTANCE
661	0.8884
670	0.8621
679	0.8199
688	0.8256
697	0.8861
706	0.8694
715	0.9068
724	0.8751
733	0.7872
742	0.7446
751	0.8755
760	0.9046
769	0.8905
778	0.7014
787	0.8645
796	0.8016
805	0.8236
814	0.8715
823	0.8892
832	0.8501
841	0.8308
850	0.7975
859	0.626
868	0.3263
877	0.6005
886	0.8109
895	0.742
904	0.7824
913	0.644
922	0.722
931	0.6459
940	0.4978
949	0.5787
958	0.4661
967	0.3332
976	0.5997
985	0.6322
994	0.6651
1003	0.727
1012	0.715
1021	0.6363
1030	0.6385
1039	0.5478
1048	0.4918
1057	0.3746
1066	0.5025
1075	0.4884
1084	0.4543
1093	0.4561
1102	0.4269
1111	0.1574
1120	0.1539
1129	0.4616
1138	0.4338
1147	0.2233
1156	0.2563
1165	0.2506
1174	0.0338
1183	0.0978
1192	0.0649
1201	0.2023
1210	0.1448
1219	0.09
1228	0.0947
1237	0.1707
1246	0.3262
1255	0.31
1264	0.2885
1273	0.2086
1282	0.473
1291	0.5233
1300	0.5422
1309	0.4402
1318	0.473
1327	0.4757
1336	0.3671
1345	0.3609
1354	0.1696
1363	0.1884
1372	0.2048
1381	0.1742
1390	0.2017
1399	0.2137
1408	0.5521
1417	0.4324
1426	0.2377
1435	0.218
1444	0.2215
1453	0.1397
1462	0.1728
1471	0.1826
1480	0.2036
1489	0.564
1498	0.6813
1507	0.7048
1516	0.71
1525	0.709
1534	0.7053
1543	0.6942
1552	0.6847
1561	0.6849
1570	0.6848
1579	0.6663
1588	0.63
1597	0.6005
1606	0.5243
1615	0.2735
1624	0.2123
1633	0.4868
1642	0.4533
1651	0.3716
1660	0.2088
1669	0.1002
1678	0.0116
1687	0.016
1696	0.1513
1705	0.3008
1714	0.2854
1723	0.134
1732	0.0328
1741	0.0164
1750	0.0569
1759	0.2895
1768	0.5434
1777	0.6137
1786	0.7626
1795	0.8045
1804	0.8371
1813	0.8615
1822	0.8716
1831	0.8782
1840	0.8845
1849	0.8892
1858	0.8931
1867	0.896
1876	0.8974
1885	0.8996
1894	0.905
1903	0.9083
1912	0.9087
1921	0.9066
1930	0.9045
1939	0.9019
1948	0.896
1957	0.8795
1966	0.8419
1975	0.8793
1984	0.8929
1993	0.8914
2002	0.8882
2011	0.8844
2020	0.8801
2029	0.8753
2038	0.873
2047	0.8814
2056	0.8815
2065	0.8805
2074	0.8782
2083	0.8753
2092	0.8729
2101	0.8713
2110	0.8697
2119	0.8679
2128	0.8659
2137	0.8638
2146	0.8616
2155	0.8587
2164	0.8561
2173	0.8545
2182	0.853
2191	0.8516
2200	0.8501
2209	0.8487
2218	0.8465
2227	0.8438
2236	0.8412
2245	0.8385
2254	0.8356
2263	0.8329
2272	0.83
2281	0.8283
2290	0.8271
2299	0.8259
2308	0.8251
2317	0.8245
2326	0.8239
2335	0.8234
2344	0.8231
2353	0.8228
2362	0.8225
2371	0.8223
2380	0.8221
2389	0.8219
2398	0.8217
2407	0.8215
2416	0.8213
2425	0.8211
2434	0.821
2443	0.8203
2452	0.8191
2461	0.8179
2470	0.8159
2479	0.8138
2488	0.8117
2497	0.8097
2506	0.807
2515	0.8034
2524	0.7999
2533	0.7964
2542	0.7926
2551	0.7886
2560	0.7846
2569	0.7806
2578	0.7765
2587	0.7723
2596	0.7682
2605	0.764
2614	0.7598
2623	0.7556
2632	0.7518
2641	0.7485
2650	0.7451
2659	0.7426
2668	0.7402
2677	0.7378
2686	0.7356
2695	0.7335
2704	0.7315
2713	0.7295
2722	0.7276
2731	0.7257
2740	0.7247
2749	0.7234
2758	0.7162
2767	0.7052
2776	0.6896
2785	0.6539
2794	0.6104
2803	0.5851
2812	0.4732
2821	0.3546
2830	0.2368
2839	0.1634
2848	0.1418
2857	0.1354
2866	0.1375
2875	0.1414
2884	0.1461
2893	0.1504
2902	0.1537
2911	0.1557
2920	0.1557
2929	0.1551
2938	0.1548
2947	0.1552
2956	0.1572
2965	0.1606
2974	0.1705
2983	0.3499
2992	0.4101
3001	0.4323
3010	0.4575
3019	0.4845
3028	0.5093
3037	0.6184
3046	0.6526
3055	0.6623
3064	0.6692
3073	0.6746
3082	0.6778
3091	0.6797
3100	0.6812
3109	0.6824
3118	0.683
3127	0.6836
3136	0.6841
3145	0.6841
3154	0.684
3163	0.684
3172	0.6839
3181	0.6837
3190	0.6835
3199	0.6833
3208	0.6831
3217	0.6829
3226	0.6811
3235	0.6787
3244	0.6747
3253	0.6712
3262	0.6679
3271	0.6665
3280	0.6656
3289	0.6647
3298	0.6639
3307	0.663
3316	0.6626
3325	0.6622
3334	0.6618
3343	0.6615
3352	0.6611
3361	0.6607
3370	0.6602
3379	0.6596
3388	0.659
3397	0.6585
3406	0.659
3415	0.6603
3424	0.6616
3433	0.6628
3442	0.6641
3451	0.6655
3460	0.6669
3469	0.6683
3478	0.6702
3487	0.6709
3496	0.6709
3505	0.6709
3514	0.6707
3523	0.6704
3532	0.6699
3541	0.6696
3550	0.6689
3559	0.6682
3568	0.6675
3577	0.6668
3586	0.6661
3595	0.6654
3604	0.6647
3613	0.664
3622	0.6633
3631	0.6627
3640	0.662
3649	0.6613
3658	0.6603
3667	0.6594
3676	0.6584
3685	0.6575
3694	0.6565
3703	0.6556
3712	0.6546
3721	0.6536
3730	0.6526
3739	0.6516
3748	0.6506
3757	0.6496
3766	0.6487
3775	0.6476
3784	0.6466
3793	0.6456
3802	0.6445
3811	0.6435
3820	0.6425
3829	0.6415
3838	0.6404
3847	0.6395
3856	0.6384
3865	0.6374
3874	0.6363
3883	0.6351
3892	0.6338
3901	0.6325
3910	0.6312
3919	0.63
3928	0.6287
3937	0.6275
3946	0.6262
3955	0.625
3964	0.6237
3973	0.6225
3982	0.6212
3991	0.62
4000	0.6187
