Infrared Spectrum: Tetraphenylmethane
Formula: C 25 H 20
CAS: 630-76-2
State: gas
Instrument: HP-GC/MS/IRD
Origin: NIST Mass Spectrometry Data Center
1/CM	ABSORBANCE
550	7.2e-05
562	5.52e-05
574	3.12e-05
586	0.0001584
598	0.0002424
610	0.0008208
622	0.0026064
634	0.0069168
646	0.0013776
658	0.0010296
670	0.0019704
682	0.0037656
694	0.0133896
706	0.0184608
718	0.0043584
730	0.00306
742	0.0108888
754	0.0061056
766	0.0035448
778	0.0007632
790	0.0005472
802	0.0004536
814	0.0005112
826	0.0004728
838	0.0006024
850	0.000516
862	0.0004488
874	0.0004704
886	0.001032
898	0.0007632
910	0.0003888
922	0.0003192
934	0.0002616
946	0.0002136
958	0.0002496
970	0.0004344
982	0.0004608
994	0.0006408
1006	0.0008184
1018	0.00084
1030	0.0025776
1042	0.0020352
1054	0.0004536
1066	0.0003288
1078	0.0008664
1090	0.0005424
1102	0.0002448
1114	0.0002232
1126	0.0001992
1138	0.0002016
1150	0.0002568
1162	0.000396
1174	0.0006552
1186	0.0015696
1198	0.0014352
1210	0.0006168
1222	0.0004656
1234	0.0003192
1246	0.0003384
1258	0.0004008
1270	0.0004536
1282	0.0003168
1294	0.0002616
1306	0.0002376
1318	0.0003528
1330	0.0003432
1342	0.0002544
1354	0.0002472
1366	0.0002928
1378	0.00042
1390	0.0004248
1402	0.0004128
1414	0.0004584
1426	0.0007584
1438	0.0028224
1450	0.0034632
1462	0.0018984
1474	0.0020784
1486	0.006684
1498	0.007356
1510	0.0018432
1522	0.0006648
1534	0.0005136
1546	0.000612
1558	0.000564
1570	0.0008016
1582	0.0019512
1594	0.0038064
1606	0.0024288
1618	0.0007536
1630	0.0004008
1642	0.0002712
1654	0.0002688
1666	0.0003504
1678	0.0004152
1690	0.0003672
1702	0.0002808
1714	0.000216
1726	0.0002136
1738	0.0002472
1750	0.0002496
1762	0.0003888
1774	0.0006168
1786	0.0004632
1798	0.000804
1810	0.001296
1822	0.0006792
1834	0.0003264
1846	0.0003024
1858	0.0004752
1870	0.0005256
1882	0.0004296
1894	0.0006312
1906	0.0006432
1918	0.0004248
1930	0.0004128
1942	0.0009624
1954	0.0010752
1966	0.0005112
1978	0.0001968
1990	0.0001128
2002	9.12e-05
2014	6.96e-05
2026	6.24e-05
2038	6e-05
2050	4.08e-05
2062	5.28e-05
2074	2.4e-05
2086	3.36e-05
2098	2.64e-05
2110	4.32e-05
2122	1.92e-05
2134	4.56e-05
2146	3.12e-05
2158	4.56e-05
2170	6.24e-05
2182	5.76e-05
2194	6.24e-05
2206	1.92e-05
2218	2.64e-05
2230	4.08e-05
2242	2.4e-05
2254	2.4e-05
2266	1.92e-05
2278	4.56e-05
2290	2.88e-05
2302	3.12e-05
2314	0.0001632
2326	0.0001008
2338	7.44e-05
2350	0.0001128
2362	8.4e-05
2374	4.32e-05
2386	4.8e-05
2398	4.08e-05
2410	3.84e-05
2422	6.96e-05
2434	8.4e-05
2446	5.76e-05
2458	4.56e-05
2470	6e-05
2482	5.76e-05
2494	5.52e-05
2506	2.16e-05
2518	3.6e-05
2530	5.52e-05
2542	5.28e-05
2554	6.24e-05
2566	6.96e-05
2578	9.12e-05
2590	0.000108
2602	8.16e-05
2614	5.52e-05
2626	6.24e-05
2638	9.6e-05
2650	6.96e-05
2662	5.76e-05
2674	4.32e-05
2686	1.92e-05
2698	4.32e-05
2710	5.28e-05
2722	5.04e-05
2734	8.88e-05
2746	9.36e-05
2758	0.000132
2770	0.0001512
2782	0.0001224
2794	7.44e-05
2806	0.0001224
2818	0.0001248
2830	0.0001368
2842	0.0001776
2854	0.0001632
2866	0.0001728
2878	0.0001872
2890	0.0001944
2902	0.0002016
2914	0.0002136
2926	0.0002616
2938	0.0002616
2950	0.0002544
2962	0.000264
2974	0.0003384
2986	0.0004776
2998	0.0007488
3010	0.001752
3022	0.0041304
3034	0.0063288
3046	0.0047016
3058	0.0098928
3070	0.0142776
3082	0.0061656
3094	0.0054336
3106	0.0023208
3118	0.000972
3130	0.0005304
3142	0.0004656
3154	0.00054
3166	0.000372
3178	0.0002232
3190	0.0001752
3202	0.000156
3214	0.0001128
3226	8.16e-05
3238	0.0001056
3250	8.64e-05
3262	0.0001008
3274	6.48e-05
3286	6.48e-05
3298	6.72e-05
3310	8.88e-05
3322	8.4e-05
3334	5.76e-05
3346	6.72e-05
3358	8.88e-05
3370	6.72e-05
3382	6.24e-05
3394	5.04e-05
3406	6.48e-05
3418	3.36e-05
3430	6.96e-05
3442	6.24e-05
3454	5.52e-05
3466	7.44e-05
3478	8.16e-05
3490	6.72e-05
3502	4.32e-05
3514	2.64e-05
3526	6.24e-05
3538	5.04e-05
3550	6.48e-05
3562	7.44e-05
3574	4.08e-05
3586	5.28e-05
3598	4.08e-05
3610	5.28e-05
3622	6.96e-05
3634	0.000108
3646	0.0001416
3658	0.0001536
3670	0.0001032
3682	0.000144
3694	0.0001728
3706	0.0002208
3718	0.000144
3730	0.0001056
3742	0.0001176
3754	0.000108
3766	6.24e-05
3778	6.72e-05
3790	7.2e-05
3802	8.16e-05
3814	9.6e-05
3826	8.16e-05
3838	8.88e-05
