Infrared Spectrum: ETHANE, 1,2-DIBROMO-TETRACHLORO-
Formula: C2 Br2 Cl4
CAS: 630-25-1
State: SOLUTION (10% IN CCl4 FOR 3800-1400, 10% IN CS2 FOR 1400-650, 10% IN CCl4 FOR 650-420 CM^-^1)
Class: COBLENTZ III
Instrument: DOW KBr FOREPRISM-GRATING
Instrument parameters: BLAZED AT 3.5, 12.0, 20.0 MICRON; GRATING CHANGES AT 5.0, 7.5, 14.9 MICRON
Sampling: TRANSMISSION
Path length: 0.01, 0.01, AND 0.01 CM
Resolution: 4
Origin: DOW CHEMICAL COMPANY
1/CM	TRANSMITTANCE
417.903	0.964
426.384	0.963
434.864	0.963
443.345	0.963
451.825	0.966
460.306	0.974
468.787	0.983
477.267	0.991
485.748	1.001
494.228	1.013
502.709	1.02
511.19	1.022
519.67	1.022
528.151	1.02
536.631	1.02
545.112	1.019
553.593	1.013
562.073	1.01
570.554	1.008
579.034	1.007
587.515	1.013
595.996	1.005
604.476	0.9791
612.957	0.8901
621.437	0.6625
629.918	0.861
638.399	0.2401
646.879	0.805
655.36	0.874
663.84	0.93
672.321	0.964
680.802	0.964
689.282	0.948
697.763	0.924
706.243	0.915
714.724	0.7621
723.205	0.042
731.685	0.089
740.166	0.443
748.646	0.554
757.127	0.3389
765.608	0.0729
774.088	0.2472
782.569	0.2177
791.049	0.7869
799.53	0.88
808.011	0.895
816.491	0.852
824.972	0.895
833.452	0.915
841.933	0.861
850.414	0.827
858.894	0.772
867.375	0.817
875.855	0.855
884.336	0.901
892.817	0.946
901.297	0.958
909.778	0.96
918.258	0.97
926.739	0.983
935.22	0.977
943.7	0.961
952.181	0.964
960.661	0.951
969.142	0.955
977.623	0.976
986.103	0.97
994.584	0.973
1003.06	0.979
1011.55	0.977
1020.03	0.971
1028.51	0.971
1036.99	0.976
1045.47	0.973
1053.95	0.969
1062.43	0.969
1070.91	0.973
1079.39	0.973
1087.87	0.98
1096.35	0.983
1104.83	0.985
1113.31	0.991
1121.79	0.995
1130.27	0.991
1138.75	0.985
1147.23	0.983
1155.72	0.991
1164.2	0.991
1172.68	0.986
1181.16	0.977
1189.64	0.994
1198.12	0.994
1206.6	0.997
1215.08	0.997
1223.56	0.998
1232.04	1
1240.52	0.992
1249	0.988
1257.48	0.986
1265.96	0.985
1274.44	0.983
1282.92	0.982
1291.4	0.979
1299.89	0.979
1308.37	0.976
1316.85	0.977
1325.33	0.976
1333.81	0.971
1342.29	0.979
1350.77	0.976
1359.25	0.961
1367.73	0.952
1376.21	0.961
1384.69	0.971
1393.17	0.963
1401.65	0.963
1410.13	0.976
1418.61	0.974
1427.09	0.97
1435.58	0.966
1444.06	0.963
1452.54	0.961
1461.02	0.954
1469.5	0.945
1477.98	0.936
1486.46	0.917
1494.94	0.882
1503.42	0.83
1511.9	0.769
1520.38	0.709
1528.86	0.662
1537.34	0.572
1545.82	0.471
1554.3	0.457
1562.78	0.536
1571.26	0.628
1579.75	0.657
1588.23	0.687
1596.71	0.759
1605.19	0.843
1613.67	0.896
1622.15	0.924
1630.63	0.943
1639.11	0.952
1647.59	0.957
1656.07	0.958
1664.55	0.964
1673.03	0.961
1681.51	0.963
1689.99	0.966
1698.47	0.973
1706.95	0.982
1715.43	0.979
1723.92	0.985
1732.4	0.985
1740.88	0.986
1749.36	0.985
1757.84	0.989
1766.32	0.991
1774.8	0.992
1783.28	0.992
1791.76	0.991
1800.24	0.989
1808.72	0.989
1817.2	0.992
1825.68	0.986
1834.16	0.988
1842.64	0.988
1851.12	0.988
1859.61	0.985
1868.09	0.986
1876.57	0.991
1885.05	0.991
1893.53	0.991
1902.01	0.991
1910.49	0.991
1918.97	0.992
1927.45	0.992
1935.93	0.991
1944.41	0.991
1952.89	0.991
1961.37	1.02
1969.85	0.991
1978.33	0.989
1986.81	0.988
1995.29	0.986
2003.78	0.983
2012.26	0.98
2020.74	0.982
2029.22	0.9885
2037.7	0.989
2046.18	0.986
2054.66	0.986
2063.14	0.988
2071.62	0.9889
2080.1	0.991
2088.58	0.991
2097.06	0.991
2105.54	0.992
2114.02	0.992
2122.5	0.992
2130.98	0.994
2139.47	0.994
2147.95	0.995
2156.43	0.992
2164.91	0.992
2173.39	0.991
2181.87	0.991
2190.35	0.991
2198.83	0.989
2207.31	0.991
2215.79	0.991
2224.27	0.988
2232.75	0.985
2241.23	0.983
2249.71	0.982
2258.19	0.982
2266.67	0.9743
2275.15	0.9725
2283.64	0.966
2292.12	0.9584
2300.6	0.96
2309.08	0.9574
2317.56	0.9716
2326.04	0.9798
2334.52	0.9873
2343	0.9683
2351.48	0.9708
2359.96	0.9853
2368.44	1.0007
2376.92	0.983
2385.4	0.9823
2393.88	0.983
2402.36	0.985
2410.84	0.985
2419.32	0.985
2427.81	0.985
2436.29	0.985
2444.77	0.985
2453.25	0.982
2461.73	0.98
2470.21	0.9798
2478.69	0.9776
2487.17	0.977
2495.65	0.976
2504.13	0.9768
2512.61	0.974
2521.09	0.974
2529.57	0.9747
2538.05	0.974
2546.53	0.9747
2555.01	0.9743
2563.5	0.974
2571.98	0.974
2580.46	0.973
2588.94	0.971
2597.42	0.97
2605.9	0.969
2614.38	0.969
2622.86	0.967
2631.34	0.967
2639.82	0.969
2648.3	0.967
2656.78	0.966
2665.26	0.964
2673.74	0.9639
2682.22	0.963
2690.7	0.961
2699.18	0.9589
2707.67	0.958
2716.15	0.957
2724.63	0.9569
2733.11	0.954
2741.59	0.952
2750.07	0.951
2758.55	0.9479
2767.03	0.943
2775.51	0.941
2783.99	0.937
2792.47	0.936
2800.95	0.936
2809.43	0.936
2817.91	0.933
2826.39	0.932
2834.87	0.932
2843.35	0.9271
2851.84	0.9221
2860.32	0.92
2868.8	0.914
2877.28	0.9071
2885.76	0.905
2894.24	0.905
2902.72	0.904
2911.2	0.9021
2919.68	0.9002
2928.16	0.8981
2936.64	0.896
2945.12	0.895
2953.6	0.8926
2962.08	0.89
2970.56	0.887
2979.04	0.8899
2987.53	0.895
2996.01	0.9019
3004.49	0.905
3012.97	0.905
3021.45	0.9074
3029.93	0.908
3038.41	0.911
3046.89	0.9118
3055.37	0.915
3063.85	0.9178
3072.33	0.923
3080.81	0.924
3089.29	0.9276
3097.77	0.932
3106.25	0.9353
3114.73	0.9376
3123.21	0.939
3131.7	0.941
3140.18	0.943
3148.66	0.945
3157.14	0.9496
3165.62	0.954
3174.1	0.9543
3182.58	0.9595
3191.06	0.961
3199.54	0.963
3208.02	0.963
3216.5	0.963
3224.98	0.966
3233.46	0.967
3241.94	0.969
3250.42	0.97
3258.9	0.973
3267.39	0.976
3275.87	0.9792
3284.35	0.98
3292.83	0.98
3301.31	0.9793
3309.79	0.9822
3318.27	0.983
3326.75	0.9833
3335.23	0.985
3343.71	0.9828
3352.19	0.984
3360.67	0.985
3369.15	0.985
3377.63	0.986
3386.11	0.986
3394.59	0.988
3403.07	0.988
3411.56	0.988
3420.04	0.988
3428.52	0.9878
3437	0.9854
3445.48	0.985
3453.96	0.985
3462.44	0.985
3470.92	0.985
3479.4	0.988
3487.88	0.9884
3496.36	0.989
3504.84	0.992
3513.32	0.992
3521.8	0.992
3530.28	0.992
3538.76	0.995
3547.24	0.995
3555.73	0.9975
3564.21	1
3572.69	1
3581.17	0.998
3589.65	0.998
3598.13	0.998
3606.61	0.998
3615.09	0.997
3623.57	0.998
3632.05	0.998
3640.53	0.998
3649.01	0.997
3657.49	0.995
3665.97	0.994
3674.45	0.9989
3682.93	1.001
3691.42	1.001
3699.9	0.9981
3708.38	0.998
3716.86	1.0019
3725.34	1.0006
3733.82	0.998
3742.3	1.001
3750.78	1.0011
3759.26	1
3767.74	1.0009
3776.22	0.9958
3784.7	0.9802
