Infrared Spectrum: Octacosane
Formula: C 28 H 58
CAS: 630-02-4
State: gas
Instrument: HP-GC/MS/IRD
Origin: NIST Mass Spectrometry Data Center
1/CM	ABSORBANCE
550	0.000231
562	2.1e-06
574	7.35e-05
586	6.09e-05
598	7.35e-05
610	6.09e-05
622	0.0001218
634	0.000126
646	0.0001239
658	0.0001113
670	0.0001302
682	0.0001302
694	0.0002037
706	0.0003045
718	0.0003465
730	0.000315
742	0.000273
754	0.0002163
766	0.0002016
778	0.0002163
790	0.0001764
802	0.000126
814	0.0001701
826	0.0001617
838	0.0001218
850	0.000147
862	0.0001218
874	0.0001302
886	0.0001533
898	0.0001134
910	0.0001365
922	0.0001071
934	0.0001344
946	0.0001239
958	0.0001176
970	0.0001155
982	0.000105
994	0.0001302
1006	0.0001575
1018	0.0001197
1030	0.0001134
1042	0.0001071
1054	0.0001197
1066	0.0001176
1078	0.0001113
1090	0.0001155
1102	0.0001155
1114	0.0001155
1126	7.98e-05
1138	5.88e-05
1150	7.14e-05
1162	6.3e-05
1174	7.35e-05
1186	9.45e-05
1198	7.35e-05
1210	7.56e-05
1222	7.35e-05
1234	8.61e-05
1246	0.0001365
1258	0.000147
1270	0.000168
1282	0.0002184
1294	0.0002772
1306	0.0003339
1318	0.0003066
1330	0.0003297
1342	0.0004788
1354	0.0005691
1366	0.0004725
1378	0.0003465
1390	0.000273
1402	0.0002226
1414	0.0002247
1426	0.0003066
1438	0.0005124
1450	0.0010143
1462	0.0013776
1474	0.000819
1486	0.0003465
1498	0.0001953
1510	0.0001575
1522	0.0001197
1534	0.0001197
1546	8.61e-05
1558	7.35e-05
1570	7.98e-05
1582	7.77e-05
1594	6.3e-05
1606	6.51e-05
1618	3.78e-05
1630	5.04e-05
1642	5.25e-05
1654	3.15e-05
1666	5.88e-05
1678	3.78e-05
1690	3.36e-05
1702	2.52e-05
1714	2.52e-05
1726	4.62e-05
1738	3.15e-05
1750	3.57e-05
1762	2.52e-05
1774	3.57e-05
1786	3.99e-05
1798	3.36e-05
1810	3.36e-05
1822	2.73e-05
1834	3.57e-05
1846	2.94e-05
1858	4.2e-05
1870	2.31e-05
1882	3.15e-05
1894	2.52e-05
1906	2.94e-05
1918	3.15e-05
1930	3.36e-05
1942	2.73e-05
1954	1.89e-05
1966	2.1e-05
1978	2.31e-05
1990	2.52e-05
2002	2.94e-05
2014	4.62e-05
2026	5.25e-05
2038	4.83e-05
2050	3.15e-05
2062	3.36e-05
2074	2.52e-05
2086	2.31e-05
2098	1.89e-05
2110	2.31e-05
2122	2.94e-05
2134	2.1e-05
2146	2.31e-05
2158	3.36e-05
2170	2.94e-05
2182	3.15e-05
2194	1.89e-05
2206	4.41e-05
2218	1.68e-05
2230	1.05e-05
2242	2.31e-05
2254	1.05e-05
2266	2.73e-05
2278	1.47e-05
2290	2.31e-05
2302	2.73e-05
2314	3.78e-05
2326	2.94e-05
2338	1.47e-05
2350	1.68e-05
2362	8.4e-06
2374	2.31e-05
2386	2.94e-05
2398	3.36e-05
2410	3.36e-05
2422	3.15e-05
2434	1.89e-05
2446	2.52e-05
2458	2.94e-05
2470	3.57e-05
2482	3.78e-05
2494	5.04e-05
2506	4.41e-05
2518	4.2e-05
2530	5.88e-05
2542	8.19e-05
2554	8.19e-05
2566	5.88e-05
2578	7.77e-05
2590	9.87e-05
2602	8.61e-05
2614	0.0001029
2626	0.0001197
2638	0.0001302
2650	0.000147
2662	0.0001764
2674	0.0002058
2686	0.000231
2698	0.0001785
2710	0.0001659
2722	0.000189
2734	0.0002205
2746	0.0002352
2758	0.0002688
2770	0.0002751
2782	0.0003381
2794	0.0004326
2806	0.0005985
2818	0.0008001
2830	0.0011151
2842	0.0019257
2854	0.0051471
2866	0.0073605
2878	0.0043974
2890	0.0037443
2902	0.0051072
2914	0.0087738
2926	0.0179487
2938	0.0182868
2950	0.008169
2962	0.0048531
2974	0.0033117
2986	0.0015666
2998	0.0009408
3010	0.0006489
3022	0.000462
3034	0.0003507
3046	0.0002541
3058	0.0002016
3070	0.0001617
3082	0.0001596
3094	0.0001218
3106	0.000126
3118	0.0001029
3130	0.0001071
3142	9.24e-05
3154	7.98e-05
3166	7.98e-05
3178	8.82e-05
3190	0.0001113
3202	7.35e-05
3214	4.41e-05
3226	2.73e-05
3238	4.62e-05
3250	5.88e-05
3262	5.88e-05
3274	3.78e-05
3286	2.73e-05
3298	3.57e-05
3310	2.73e-05
3322	3.57e-05
3334	1.47e-05
3346	6.3e-06
3358	2.1e-05
3370	2.31e-05
3382	2.73e-05
3394	4.83e-05
3406	7.35e-05
3418	5.25e-05
3430	2.73e-05
3442	4.62e-05
3454	1.05e-05
3466	2.1e-05
3478	1.47e-05
3490	3.99e-05
3502	2.1e-05
3514	6.09e-05
3526	1.26e-05
3538	4.83e-05
3550	4.2e-05
3562	4.83e-05
3574	4.41e-05
3586	1.68e-05
3598	3.36e-05
3610	4.2e-05
3622	4.41e-05
3634	6.3e-05
3646	4.41e-05
3658	6.09e-05
3670	3.36e-05
3682	3.15e-05
3694	2.73e-05
3706	4.2e-05
3718	4.2e-05
3730	4.2e-05
3742	1.05e-05
3754	2.52e-05
3766	6.72e-05
3778	7.14e-05
3790	6.3e-05
3802	4.83e-05
3814	1.47e-05
3826	4.2e-06
3838	5.25e-05
