Infrared Spectrum: BENZALDEHYDE, p-(DIMETHYLAMINO)-, 9H-PURIN-6-YL HYDRAZONE
Formula: C14 H15 N7
CAS: 6300-80-7
State: SOLID (0.3 mg / 650 mg KBr DISC)
Class: COBLENTZ III
Instrument: PERKIN-ELMER 21 (GRATING)
Instrument parameters: FILTER CHANGE AT 1025 CM^-^1
Sampling: TRANSMISSION
Resolution: 2
Origin: SOUTHERN RESEARCH INSTITUTE
1/CM	TRANSMITTANCE
598.576	0.754
607.1	0.753
615.623	0.75
624.147	0.749
632.67	0.74
641.194	0.738
649.717	0.7458
658.241	0.747
666.765	0.7471
675.288	0.748
683.812	0.7372
692.335	0.731
700.859	0.7074
709.383	0.701
717.906	0.716
726.43	0.7406
734.953	0.7514
743.477	0.7473
752	0.7427
760.524	0.769
769.048	0.772
777.571	0.7704
786.095	0.7465
794.618	0.7094
803.142	0.7116
811.666	0.6564
820.189	0.7572
828.713	0.7885
837.236	0.7985
845.76	0.7985
854.283	0.7875
862.807	0.772
871.331	0.7969
879.854	0.8
888.378	0.794
896.901	0.7289
905.425	0.7264
913.948	0.785
922.472	0.7717
930.996	0.7345
939.519	0.719
948.043	0.7479
956.566	0.7945
965.09	0.8242
973.614	0.8248
982.137	0.821
990.661	0.808
999.184	0.8058
1007.71	0.8019
1016.23	0.8
1024.76	0.7999
1033.28	0.789
1041.8	0.7829
1050.33	0.7668
1058.85	0.7239
1067.37	0.709
1075.9	0.695
1084.42	0.654
1092.94	0.6649
1101.47	0.671
1109.99	0.6551
1118.51	0.6281
1127.04	0.5465
1135.56	0.6007
1144.09	0.684
1152.61	0.6843
1161.13	0.6282
1169.66	0.5212
1178.18	0.5052
1186.7	0.5345
1195.23	0.7685
1203.75	0.7763
1212.27	0.7546
1220.8	0.7072
1229.32	0.65
1237.84	0.6573
1246.37	0.7339
1254.89	0.7775
1263.42	0.7874
1271.94	0.7724
1280.46	0.7421
1288.99	0.7092
1297.51	0.6864
1306.03	0.6624
1314.56	0.6215
1323.08	0.5965
1331.6	0.5851
1340.13	0.5249
1348.65	0.539
1357.17	0.4739
1365.7	0.423
1374.22	0.4424
1382.75	0.4941
1391.27	0.5387
1399.79	0.5343
1408.32	0.5763
1416.84	0.6698
1425.36	0.6865
1433.89	0.702
1442.41	0.6608
1450.93	0.6438
1459.46	0.709
1467.98	0.7101
1476.5	0.6667
1485.03	0.6764
1493.55	0.7189
1502.08	0.6786
1510.6	0.6081
1519.12	0.4528
1527.65	0.479
1536.17	0.5745
1544.69	0.626
1553.22	0.5699
1561.74	0.5211
1570.26	0.4601
1578.79	0.4293
1587.31	0.3337
1595.83	0.2528
1604.36	0.1868
1612.88	0.21
1621.41	0.191
1629.93	0.2431
1638.45	0.3903
1646.98	0.5257
1655.5	0.6422
1664.02	0.7328
1672.55	0.8018
1681.07	0.8322
1689.59	0.8456
1698.12	0.857
1706.64	0.8617
1715.17	0.8643
1723.69	0.864
1732.21	0.864
1740.74	0.866
1749.26	0.868
1757.78	0.866
1766.31	0.866
1774.83	0.866
1783.35	0.868
1791.88	0.869
1800.4	0.866
1808.92	0.868
1817.45	0.866
1825.97	0.866
1834.5	0.865
1843.02	0.865
1851.54	0.8636
1860.07	0.863
1868.59	0.864
1877.11	0.8627
1885.64	0.862
1894.16	0.86
1902.68	0.8587
1911.21	0.857
1919.73	0.858
1928.25	0.859
1936.78	0.858
1945.3	0.8538
1953.83	0.8496
1962.35	0.848
1970.87	0.8497
1979.4	0.846
1987.92	0.8469
1996.44	0.8451
2004.97	0.8419
2013.49	0.841
2022.01	0.8401
2030.54	0.839
2039.06	0.836
2047.58	0.836
2056.11	0.836
2064.63	0.839
2073.16	0.8369
2081.68	0.834
2090.2	0.837
2098.73	0.836
2107.25	0.836
2115.77	0.837
2124.3	0.839
2132.82	0.84
2141.34	0.839
2149.87	0.8372
2158.39	0.8372
2166.91	0.839
2175.44	0.839
2183.96	0.84
2192.49	0.836
2201.01	0.836
2209.53	0.836
2218.06	0.837
2226.58	0.8388
2235.1	0.836
2243.63	0.836
2252.15	0.836
2260.67	0.835
2269.2	0.834
2277.72	0.834
2286.24	0.8339
2294.77	0.8339
2303.29	0.8299
2311.82	0.829
2320.34	0.829
2328.86	0.827
2337.39	0.8252
2345.91	0.828
2354.43	0.8289
2362.96	0.83
2371.48	0.829
2380	0.828
2388.53	0.821
2397.05	0.821
2405.58	0.821
2414.1	0.818
2422.62	0.817
2431.15	0.8139
2439.67	0.813
2448.19	0.813
2456.72	0.8079
2465.24	0.807
2473.76	0.806
2482.29	0.8069
2490.81	0.8009
2499.33	0.796
2507.86	0.795
2516.38	0.7941
2524.91	0.7929
2533.43	0.79
2541.95	0.788
2550.48	0.7881
2559	0.792
2567.52	0.7868
2576.05	0.7779
2584.57	0.777
2593.09	0.775
2601.62	0.7721
2610.14	0.773
2618.66	0.772
2627.19	0.7691
2635.71	0.767
2644.24	0.767
2652.76	0.7688
2661.28	0.7672
2669.81	0.767
2678.33	0.7649
2686.85	0.762
2695.38	0.7609
2703.9	0.756
2712.42	0.7539
2720.95	0.7489
2729.47	0.742
2737.99	0.7248
2746.52	0.7199
2755.04	0.7117
2763.57	0.7058
2772.09	0.6887
2780.61	0.675
2789.14	0.6659
2797.66	0.665
2806.18	0.665
2814.71	0.665
2823.23	0.665
2831.75	0.659
2840.28	0.654
2848.8	0.649
2857.32	0.648
2865.85	0.6439
2874.37	0.6379
2882.9	0.633
2891.42	0.6331
2899.94	0.6402
2908.47	0.645
2916.99	0.649
2925.51	0.649
2934.04	0.649
2942.56	0.6478
2951.08	0.643
2959.61	0.642
2968.13	0.644
2976.66	0.6429
2985.18	0.638
2993.7	0.636
3002.23	0.634
3010.75	0.636
3019.27	0.6339
3027.8	0.632
3036.32	0.629
3044.84	0.632
3053.37	0.6308
3061.89	0.628
3070.41	0.6281
3078.94	0.628
3087.46	0.627
3095.99	0.6228
3104.51	0.619
3113.03	0.615
3121.56	0.615
3130.08	0.615
3138.6	0.6128
3147.13	0.6088
3155.65	0.6039
3164.17	0.5849
3172.7	0.5689
3181.22	0.558
3189.74	0.5479
3198.27	0.545
3206.79	0.545
3215.32	0.545
3223.84	0.5449
3232.36	0.534
3240.89	0.53
3249.41	0.5239
3257.93	0.518
3266.46	0.5169
3274.98	0.5069
3283.5	0.4989
3292.03	0.492
3300.55	0.4809
3309.07	0.4688
3317.6	0.4627
3326.12	0.4356
3334.65	0.4149
3343.17	0.397
3351.69	0.3719
3360.22	0.3525
3368.74	0.3257
3377.26	0.3028
3385.79	0.2858
3394.31	0.2729
3402.83	0.2619
3411.36	0.25
3419.88	0.2371
3428.4	0.2399
3436.93	0.2336
3445.45	0.238
3453.98	0.2431
3462.5	0.251
3471.02	0.2551
3479.55	0.2722
3488.07	0.2851
3496.59	0.2911
3505.12	0.2981
3513.64	0.3084
3522.16	0.3151
3530.69	0.3243
3539.21	0.3442
3547.73	0.3531
3556.26	0.3807
3564.78	0.4075
3573.31	0.4251
3581.83	0.4441
3590.35	0.4772
3598.88	0.5064
3607.4	0.5382
3615.92	0.5573
3624.45	0.5902
3632.97	0.6292
3641.49	0.6492
3650.02	0.6632
3658.54	0.678
3667.07	0.6911
3675.59	0.6972
3684.11	0.7121
3692.64	0.727
3701.16	0.7332
3709.68	0.741
3718.21	0.7421
3726.73	0.743
3735.25	0.748
3743.78	0.749
3752.3	0.748
3760.82	0.749
3769.35	0.752
3777.87	0.753
3786.4	0.754
3794.92	0.754
3803.44	0.753
