Infrared Spectrum: N-(Cyclohexyl)succcinimide
Formula: C 10 H 15 N O 2
CAS: 6301-71-9
State: gas
Origin: EPA-IR VAPOR PHASE LIBRARY
1/CM	ABSORBANCE
549.9	0.00182
559.547	0.0023438
569.193	0.00322
578.84	0.00343
588.486	0.00334
598.133	0.00365
607.779	0.00437
617.426	0.01278
627.072	0.01635
636.719	0.01829
646.365	0.02477
656.012	0.01689
665.658	0.00798
675.305	0.00567
684.951	0.00653
694.598	0.00802
704.245	0.0072
713.891	0.0056
723.538	0.00658
733.184	0.00947
742.831	0.00991
752.477	0.00574
762.124	0.0023657
771.77	0.00146
781.417	0.001301
791.063	0.00175
800.71	0.00419
810.356	0.00654
820.003	0.00536
829.649	0.0033
839.296	0.001755
848.943	0.001451
858.589	0.001389
868.236	0.001816
877.882	0.00433
887.529	0.00766
897.175	0.00774
906.822	0.00422
916.468	0.002314
926.115	0.00205133
935.761	0.0019109
945.408	0.001885
955.054	0.0022543
964.701	0.00465
974.347	0.01297
983.994	0.01318
993.64	0.00641
1003.29	0.00595
1012.93	0.00427
1022.58	0.002713
1032.23	0.0019263
1041.87	0.0021974
1051.52	0.00399
1061.17	0.00774
1070.81	0.01084
1080.46	0.00854
1090.11	0.00536
1099.75	0.00573
1109.4	0.00813
1119.05	0.01283
1128.69	0.02536
1138.34	0.04165
1147.99	0.03917
1157.63	0.02356
1167.28	0.02446
1176.92	0.05716
1186.57	0.1009
1196.22	0.08022
1205.86	0.0273
1215.51	0.01089
1225.16	0.0103
1234.8	0.01512
1244.45	0.02235
1254.1	0.02241
1263.74	0.01757
1273.39	0.01231
1283.04	0.01388
1292.68	0.01344
1302.33	0.0126
1311.98	0.01811
1321.62	0.02694
1331.27	0.03466
1340.92	0.05296
1350.56	0.07245
1360.21	0.11035
1369.86	0.16862
1379.5	0.10462
1389.15	0.04539
1398.79	0.04184
1408.44	0.02267
1418.09	0.01033
1427.73	0.00848
1437.38	0.0124
1447.03	0.01975
1456.67	0.01832
1466.32	0.01169
1475.97	0.0062
1485.61	0.00366
1495.26	0.0029655
1504.91	0.0025099
1514.55	0.0024178
1524.2	0.002589
1533.85	0.0024074
1543.49	0.0022583
1553.14	0.0020523
1562.79	0.00207448
1572.43	0.0024459
1582.08	0.0025734
1591.73	0.0025131
1601.37	0.0025129
1611.02	0.0028978
1620.67	0.00365
1630.31	0.00441
1639.96	0.00449
1649.6	0.00436
1659.25	0.00471
1668.9	0.00633
1678.54	0.01155
1688.19	0.02417
1697.84	0.04706
1707.48	0.0999
1717.13	0.24171
1726.78	0.38625
1736.42	0.26738
1746.07	0.089
1755.72	0.0428
1765.36	0.03074
1775.01	0.02364
1784.66	0.02159
1794.3	0.01727
1803.95	0.01208
1813.6	0.00973
1823.24	0.00695
1832.89	0.00463
1842.54	0.00366
1852.18	0.00338
1861.83	0.00328
1871.47	0.00316
1881.12	0.0026842
1890.77	0.0023644
1900.41	0.0023257
1910.06	0.0024664
1919.71	0.0024399
1929.35	0.002293
1939	0.0019734
1948.65	0.001618
1958.29	0.001587
1967.94	0.001718
1977.59	0.001879
1987.23	0.00206766
1996.88	0.0021111
2006.53	0.00204917
2016.17	0.0019705
2025.82	0.001865
2035.47	0.001741
2045.11	0.001616
2054.76	0.001557
2064.41	0.001411
2074.05	0.001341
2083.7	0.001298
2093.35	0.001307
2102.99	0.001329
2112.64	0.001319
2122.28	0.001313
2131.93	0.001436
2141.58	0.001527
2151.22	0.001407
2160.87	0.001248
2170.52	0.001188
2180.16	0.001224
2189.81	0.001337
2199.46	0.001372
2209.1	0.001316
2218.75	0.001233
2228.4	0.001284
2238.04	0.001446
2247.69	0.001587
2257.34	0.001595
2266.98	0.001585
2276.63	0.001606
2286.28	0.001487
2295.92	0.001408
2305.57	0.001228
2315.22	0.001176
2324.86	0.001323
2334.51	0.001567
2344.16	0.0019112
2353.8	0.0019939
2363.45	0.001756
2373.09	0.001608
2382.74	0.001498
2392.39	0.001445
2402.03	0.001395
2411.68	0.001432
2421.33	0.001494
2430.97	0.001607
2440.62	0.001362
2450.27	0.001287
2459.91	0.001305
2469.56	0.001386
2479.21	0.00146
2488.85	0.001567
2498.5	0.001611
2508.15	0.001672
2517.79	0.001632
2527.44	0.001662
2537.09	0.001727
2546.73	0.001767
2556.38	0.001742
2566.03	0.001581
2575.67	0.001467
2585.32	0.001471
2594.96	0.001534
2604.61	0.001477
2614.26	0.001469
2623.9	0.001445
2633.55	0.001517
2643.2	0.00184
2652.84	0.00201612
2662.49	0.0022652
2672.14	0.002274
2681.78	0.0019433
2691.43	0.001619
2701.08	0.001571
2710.72	0.001528
2720.37	0.00149
2730.02	0.001369
2739.66	0.001222
2749.31	0.001136
2758.96	0.001347
2768.6	0.00145
2778.25	0.001563
2787.9	0.00202153
2797.54	0.0026094
2807.19	0.0029149
2816.84	0.00305
2826.48	0.00365
2836.13	0.00503
2845.77	0.00836
2855.42	0.02118
2865.07	0.04478
2874.71	0.04112
2884.36	0.02348
2894.01	0.01387
2903.65	0.0139
2913.3	0.02589
2922.95	0.05559
2932.59	0.10467
2942.24	0.1386
2951.89	0.09684
2961.53	0.04839
2971.18	0.02052
2980.83	0.01111
2990.47	0.01013
3000.12	0.00569
3009.77	0.002673
3019.41	0.00228
3029.06	0.001888
3038.71	0.001358
3048.35	0.00107
3058	0.00099
3067.64	0.001471
3077.29	0.001758
3086.94	0.001509
3096.58	0.001275
3106.23	0.00094
3115.88	0.00055
3125.52	0.00056
3135.17	0.00053
3144.82	0.00044
3154.46	0.00052
3164.11	0.00063
3173.76	0.00058
3183.4	0.00048
3193.05	0.00044
3202.7	0.00019
3212.34	6e-05
3221.99	0.00011
3231.64	0.00028
3241.28	0.00024
3250.93	0.00038
3260.58	0.00031
3270.22	0.00021
3279.87	0.0002
3289.52	0.00019
3299.16	0.00012
3308.81	8e-05
3318.45	0.0001
3328.1	5e-05
3337.75	0.00014
3347.39	0.00011
3357.04	0.00041
3366.69	0.00043
3376.33	0.00042
3385.98	0.00043
3395.63	0.00058
3405.27	0.00039
3414.92	0.00058
3424.57	0.00054
3434.21	0.0008
3443.86	0.001016
3453.51	0.001265
3463.15	0.001263
3472.8	0.001687
3482.45	0.0026707
3492.09	0.00365
3501.74	0.00357
3511.39	0.0025173
3521.03	0.001527
3530.68	0.001069
3540.33	0.00077
3549.97	0.00086
3559.62	0.00094
3569.26	0.00068
3578.91	0.00074
3588.56	0.00063
3598.2	0.00071
3607.85	0.00069
3617.5	0.0006
3627.14	0.00061
3636.79	0.00058
3646.44	0.00069
3656.08	0.00078
3665.73	0.00084
3675.38	0.00072
3685.02	0.00079
3694.67	0.00077
3704.32	0.00085
3713.96	0.00091
3723.61	0.00087
3733.26	0.00096
3742.9	0.00097
3752.55	0.00096
3762.2	0.001024
3771.84	0.00086
3781.49	0.00094
3791.13	0.00089
3800.78	0.001042
3810.43	0.00093
3820.07	0.001026
3829.72	0.001008
3839.37	0.00098
3849.01	0.001053
3858.66	0.001048
3868.31	0.00097
3877.95	0.00095
3887.6	0.001025
3897.25	0.00099
3906.89	0.001076
3916.54	0.001226
3926.19	0.001192
3935.83	0.0012
3945.48	0.001153
3955.13	0.001227
3964.77	0.001175
3974.42	0.001222
3984.07	0.001092
3993.71	0.001229
