Infrared Spectrum: RHODANINE, 5-(M-NITROBENZYLIDENE)-
Formula: C10 H6 N2 O3 S2
CAS: 6301-12-8
State: SOLID (KBr PELLET)
Melting point: 262 C DECOMPOSES
Class: COBLENTZ
Instrument: Not specified, most likely a prism, grating, or hybrid spectrometer.
Sampling: TRANSMISSION
Resolution: 4
Origin: TENNESSEE EASTMAN COMPANY, RESEARCH LABORATORIES
MICROMETERS	TRANSMITTANCE
2	0.578
2.04101	0.586
2.08202	0.598
2.12303	0.608
2.16404	0.617
2.20504	0.627
2.24605	0.636
2.28706	0.643
2.32807	0.651
2.36908	0.66
2.41009	0.668
2.4511	0.675
2.49211	0.68
2.53312	0.684
2.57412	0.689
2.61513	0.694
2.65614	0.703
2.69715	0.71
2.73816	0.701
2.77917	0.665
2.82018	0.638
2.86119	0.617
2.9022	0.6
2.9432	0.598
2.98421	0.612
3.02522	0.578
3.06623	0.469
3.10724	0.502
3.14825	0.524
3.18926	0.557
3.23027	0.567
3.27128	0.559
3.31229	0.576
3.35329	0.662
3.3943	0.686
3.43531	0.704
3.47632	0.696
3.51733	0.68
3.55834	0.747
3.59935	0.77
3.64036	0.78
3.68137	0.785
3.72237	0.799
3.76338	0.802
3.80439	0.814
3.8454	0.826
3.88641	0.837
3.92742	0.847
3.96843	0.85
4.00944	0.852
4.05045	0.852
4.09145	0.857
4.13246	0.866
4.17347	0.879
4.21448	0.881
4.25549	0.883
4.2965	0.883
4.33751	0.888
4.37852	0.898
4.41953	0.905
4.46053	0.912
4.50154	0.921
4.54255	0.924
4.58356	0.929
4.62457	0.931
4.66558	0.933
4.70659	0.934
4.7476	0.938
4.78861	0.946
4.82961	0.946
4.87062	0.946
4.91163	0.948
4.95264	0.948
4.99365	0.953
5.03466	0.953
5.07567	0.951
5.11668	0.953
5.15769	0.958
5.1987	0.958
5.2397	0.958
5.28071	0.958
5.32172	0.96
5.36273	0.96
5.40374	0.946
5.44475	0.924
5.48576	0.948
5.52677	0.948
5.56778	0.938
5.60878	0.929
5.64979	0.876
5.6908	0.797
5.73181	0.554
5.77282	0.238
5.81383	0.274
5.85484	0.205
5.89585	0.15
5.93686	0.399
5.97786	0.65
6.01887	0.785
6.05988	0.821
6.10089	0.828
6.1419	0.814
6.18291	0.749
6.22392	0.341
6.26493	0.725
6.30594	0.833
6.34694	0.825
6.38795	0.845
6.42896	0.71
6.46997	0.204
6.51098	0.171
6.55199	0.598
6.593	0.703
6.63401	0.766
6.67502	0.78
6.71602	0.653
6.75703	0.699
6.79804	0.753
6.83905	0.732
6.88006	0.622
6.92107	0.428
6.96208	0.301
7.00309	0.279
7.0441	0.181
7.08511	0.12
7.12611	0.346
7.16712	0.588
7.20813	0.694
7.24914	0.713
7.29015	0.701
7.33116	0.598
7.37217	0.205
7.41318	0.138
7.45419	0.499
7.49519	0.571
7.5362	0.574
7.57721	0.643
7.61822	0.574
7.65923	0.411
7.70024	0.535
7.74125	0.361
7.78226	0.509
7.82327	0.624
7.86427	0.703
7.90528	0.727
7.94629	0.728
7.9873	0.674
8.02831	0.574
8.06932	0.367
8.11033	0.169
8.15134	0.233
8.19235	0.435
8.23335	0.538
8.27436	0.343
8.31537	0.135
8.35638	0.061
8.39739	0.06
8.4384	0.274
8.47941	0.353
8.52042	0.485
8.56143	0.624
8.60243	0.694
8.64344	0.746
8.68445	0.777
8.72546	0.809
8.76647	0.825
8.80748	0.835
8.84849	0.845
8.8895	0.849
8.93051	0.847
8.97152	0.809
9.01252	0.735
9.05353	0.72
9.09454	0.751
9.13555	0.77
9.17656	0.792
9.21757	0.794
9.25858	0.756
9.29959	0.694
9.3406	0.646
9.3816	0.71
9.42261	0.785
9.46362	0.835
9.50463	0.866
9.54564	0.878
9.58665	0.881
9.62766	0.89
9.66867	0.9
9.70968	0.902
9.75068	0.888
9.79169	0.864
9.8327	0.835
9.87371	0.816
9.91472	0.787
9.95573	0.783
9.99674	0.833
10.0377	0.874
10.0788	0.89
10.1198	0.891
10.1608	0.897
10.2018	0.905
10.2428	0.912
10.2838	0.914
10.3248	0.912
10.3658	0.914
10.4068	0.924
10.4478	0.924
10.4888	0.924
10.5299	0.924
10.5709	0.926
10.6119	0.924
10.6529	0.922
10.6939	0.888
10.7349	0.792
10.7759	0.674
10.8169	0.655
10.8579	0.512
10.8989	0.662
10.9399	0.806
10.981	0.855
11.022	0.89
11.063	0.903
11.104	0.914
11.145	0.915
11.186	0.917
11.227	0.922
11.268	0.927
11.309	0.926
11.35	0.926
11.391	0.926
11.432	0.926
11.4731	0.927
11.5141	0.933
11.5551	0.936
11.5961	0.934
11.6371	0.934
11.6781	0.934
11.7191	0.934
11.7601	0.936
11.8011	0.934
11.8421	0.922
11.8831	0.902
11.9242	0.873
11.9652	0.816
12.0062	0.722
12.0472	0.627
12.0882	0.663
12.1292	0.787
12.1702	0.826
12.2112	0.843
12.2522	0.845
12.2932	0.843
12.3342	0.823
12.3753	0.79
12.4163	0.747
12.4573	0.68
12.4983	0.694
12.5393	0.801
12.5803	0.85
12.6213	0.862
12.6623	0.864
12.7033	0.866
12.7443	0.866
12.7853	0.867
12.8264	0.871
12.8674	0.874
12.9084	0.874
12.9494	0.874
12.9904	0.873
13.0314	0.866
13.0724	0.861
13.1134	0.859
13.1544	0.84
13.1954	0.813
13.2364	0.77
13.2775	0.692
13.3185	0.571
13.3595	0.418
13.4005	0.37
13.4415	0.483
13.4825	0.658
13.5235	0.797
13.5645	0.862
13.6055	0.878
13.6465	0.881
13.6875	0.881
13.7285	0.881
13.7696	0.883
13.8106	0.888
13.8516	0.89
13.8926	0.879
13.9336	0.842
13.9746	0.811
14.0156	0.801
14.0566	0.797
14.0976	0.804
14.1386	0.821
14.1796	0.828
14.2207	0.83
14.2617	0.816
14.3027	0.778
14.3437	0.766
14.3847	0.768
14.4257	0.777
14.4667	0.785
14.5077	0.792
14.5487	0.789
14.5897	0.775
14.6307	0.744
14.6718	0.701
14.7128	0.653
14.7538	0.608
14.7948	0.584
14.8358	0.578
14.8768	0.576
14.9178	0.569
14.9588	0.554
14.9998	0.523
15.0408	0.521
15.0818	0.559
15.1229	0.641
15.1639	0.72
15.2049	0.777
15.2459	0.794
15.2869	0.806
15.3279	0.811
15.3689	0.814
15.4099	0.816
15.4509	0.818
15.4919	0.818
15.5329	0.818
15.574	0.816
15.615	0.814
15.656	0.807
15.697	0.79
15.738	0.771
15.779	0.759
15.82	0.73
15.861	0.706
15.902	0.677
15.943	0.665
