Infrared Spectrum: Aziridine, 1-(2-naphthoyl)-
Formula: C13 H11 N O
CAS: 63021-45-4
State: SOLID (SPLIT MULL), FLUOROLUBE FOR 3800-1330 CM^-^1, NUJOL FOR 1330-450 CM^-^1
Class: COBLENTZ III
Instrument: DOW KBr FOREPRISM-GRATING
Instrument parameters: BLAZED AT 3.5, 12.0, 20.0 MICRON AND CHANGED AT 5.0, 7.5, 14.9 MICRON
Sampling: TRANSMISSION
Resolution: 2
Origin: DOW CHEMICAL COMPANY
1/CM	TRANSMITTANCE
457	0.7793
466	0.751
475	0.6604
484	0.6658
493	0.7665
502	0.7649
511	0.8423
520	0.849
529	0.8531
538	0.8566
547	0.8609
556	0.8633
565	0.8666
574	0.868
583	0.8502
592	0.8597
601	0.8732
610	0.8793
619	0.8702
628	0.8544
637	0.8803
646	0.8853
655	0.8836
664	0.878
673	0.8418
682	0.7953
691	0.8552
700	0.8588
709	0.8512
718	0.8131
727	0.7772
736	0.6698
745	0.8048
754	0.7726
763	0.5616
772	0.7311
781	0.4233
790	0.7425
799	0.8275
808	0.8165
817	0.6176
826	0.6674
835	0.7054
844	0.8298
853	0.8505
862	0.8193
871	0.7757
880	0.8345
889	0.8377
898	0.8165
907	0.7887
916	0.6861
925	0.8256
934	0.8399
943	0.8311
952	0.6833
961	0.801
970	0.8011
979	0.8158
988	0.8443
997	0.844
1006	0.8399
1015	0.7867
1024	0.8099
1033	0.7503
1042	0.7726
1051	0.6109
1060	0.6775
1069	0.8071
1078	0.8092
1087	0.814
1096	0.8022
1105	0.7951
1114	0.7884
1123	0.5308
1132	0.6442
1141	0.736
1150	0.5282
1159	0.7051
1168	0.7353
1177	0.646
1186	0.4807
1195	0.7551
1204	0.7805
1213	0.7626
1222	0.7544
1231	0.7587
1240	0.7621
1249	0.7392
1258	0.7342
1267	0.7008
1276	0.675
1285	0.6683
1294	0.6252
1303	0.5622
1312	0.4798
1321	0.3273
1330	0.1814
1339	0.3678
1348	0.4839
1357	0.4014
1366	0.5165
1375	0.7605
1384	0.7483
1393	0.805
1402	0.8268
1411	0.8288
1420	0.8224
1429	0.8089
1438	0.7936
1447	0.7826
1456	0.7728
1465	0.755
1474	0.781
1483	0.8124
1492	0.8286
1501	0.8076
1510	0.7815
1519	0.8061
1528	0.7878
1537	0.7769
1546	0.7898
1555	0.8115
1564	0.8156
1573	0.7755
1582	0.822
1591	0.7978
1600	0.7747
1609	0.7795
1618	0.7322
1627	0.6279
1636	0.6726
1645	0.6073
1654	0.4914
1663	0.2502
1672	0.3808
1681	0.7645
1690	0.818
1699	0.832
1708	0.8587
1717	0.8562
1726	0.8653
1735	0.8705
1744	0.8717
1753	0.8785
1762	0.8775
1771	0.8725
1780	0.8642
1789	0.8631
1798	0.8628
1807	0.8592
1816	0.8563
1825	0.8617
1834	0.8573
1843	0.8603
1852	0.8613
1861	0.8594
1870	0.8573
1879	0.859
1888	0.8578
1897	0.8539
1906	0.8496
1915	0.845
1924	0.8413
1933	0.8445
1942	0.8436
1951	0.8421
1960	0.8507
1969	0.8489
1978	0.8468
1987	0.8433
1996	0.839
2005	0.8603
2014	0.8598
2023	0.8577
2032	0.8549
2041	0.8528
2050	0.8517
2059	0.8499
2068	0.8461
2077	0.8421
2086	0.8382
2095	0.834
2104	0.8293
2113	0.8253
2122	0.8215
2131	0.8175
2140	0.8139
2149	0.8101
2158	0.8065
2167	0.8036
2176	0.8005
2185	0.7982
2194	0.796
2203	0.7938
2212	0.7926
2221	0.7901
2230	0.7833
2239	0.7768
2248	0.7718
2257	0.7672
2266	0.763
2275	0.7589
2284	0.7551
2293	0.7528
2302	0.7506
2311	0.7482
2320	0.7458
2329	0.744
2338	0.7433
2347	0.7445
2356	0.7472
2365	0.7483
2374	0.7478
2383	0.7474
2392	0.7471
2401	0.7449
2410	0.7428
2419	0.7415
2428	0.7405
2437	0.7401
2446	0.7399
2455	0.7392
2464	0.7382
2473	0.7368
2482	0.7365
2491	0.7364
2500	0.7365
2509	0.7368
2518	0.7371
2527	0.7375
2536	0.7378
2545	0.7369
2554	0.736
2563	0.7347
2572	0.7326
2581	0.7307
2590	0.729
2599	0.7271
2608	0.7256
2617	0.7238
2626	0.7219
2635	0.7201
2644	0.7183
2653	0.7164
2662	0.7144
2671	0.7122
2680	0.7101
2689	0.7081
2698	0.706
2707	0.7036
2716	0.7012
2725	0.6989
2734	0.6965
2743	0.6944
2752	0.6925
2761	0.6906
2770	0.6888
2779	0.6858
2788	0.6828
2797	0.6799
2806	0.6771
2815	0.6745
2824	0.6717
2833	0.6678
2842	0.6636
2851	0.6576
2860	0.6542
2869	0.6532
2878	0.6511
2887	0.6481
2896	0.6441
2905	0.6389
2914	0.631
2923	0.6244
2932	0.6269
2941	0.6316
2950	0.631
2959	0.6296
2968	0.6297
2977	0.6297
2986	0.6281
2995	0.6176
3004	0.5945
3013	0.6105
3022	0.6148
3031	0.6112
3040	0.6055
3049	0.5851
3058	0.5868
3067	0.6112
3076	0.621
3085	0.6237
3094	0.6256
3103	0.6268
3112	0.6283
3121	0.6276
3130	0.6256
3139	0.6226
3148	0.6198
3157	0.6169
3166	0.6141
3175	0.6112
3184	0.6085
3193	0.6058
3202	0.6034
3211	0.601
3220	0.5987
3229	0.5966
3238	0.595
3247	0.5933
3256	0.5917
3265	0.5901
3274	0.5891
3283	0.5881
3292	0.5871
3301	0.586
3310	0.5854
3319	0.5846
3328	0.584
3337	0.5832
3346	0.5825
3355	0.5818
3364	0.581
3373	0.5804
3382	0.5797
3391	0.5789
3400	0.5778
3409	0.5767
3418	0.5757
3427	0.5746
3436	0.5735
3445	0.5725
3454	0.5714
3463	0.5704
3472	0.5693
3481	0.5681
3490	0.5669
3499	0.5657
3508	0.5645
3517	0.5632
3526	0.5621
3535	0.561
3544	0.5601
3553	0.5591
3562	0.5581
3571	0.5571
3580	0.556
3589	0.5551
3598	0.5542
3607	0.5532
3616	0.5523
3625	0.5512
3634	0.5504
3643	0.5494
3652	0.5483
3661	0.5471
3670	0.5459
3679	0.5447
3688	0.5436
3697	0.5424
3706	0.5412
3715	0.5398
3724	0.5385
3733	0.5372
3742	0.5359
3751	0.5346
3760	0.5335
3769	0.5323
3778	0.531
3787	0.5292
3796	0.5274
