Infrared Spectrum: n-Amylpyrazine
Formula: C 9 H 14 N 2
CAS: 6303-75-9
State: gas
Origin: EPA-IR VAPOR PHASE LIBRARY
1/CM	ABSORBANCE
549.8	0.000744
559.445	0.0010657
569.09	0.000654
578.734	0.000609
588.379	0.000245
598.024	0.00090821
607.669	0.000599
617.313	0.000591
626.958	0.0014896
636.603	0.0012942
646.248	0.0016263
655.893	0.002388
665.537	0.0015831
675.182	0.0010563
684.827	0.0010288
694.472	0.0013679
704.116	0.0017566
713.761	0.002708
723.406	0.004438
733.051	0.004928
742.695	0.005498
752.34	0.005878
761.985	0.006468
771.63	0.006378
781.275	0.005338
790.919	0.005068
800.564	0.006058
810.209	0.009248
819.854	0.012158
829.498	0.012598
839.143	0.014308
848.788	0.014108
858.433	0.010238
868.078	0.006218
877.722	0.004708
887.367	0.003998
897.012	0.004168
906.657	0.003278
916.301	0.003128
925.946	0.003238
935.591	0.003938
945.236	0.003968
954.88	0.004258
964.525	0.004848
974.17	0.005588
983.815	0.007098
993.46	0.010498
1003.1	0.020688
1012.75	0.036108
1022.39	0.030218
1032.04	0.015648
1041.68	0.014448
1051.33	0.018498
1060.97	0.019238
1070.62	0.015548
1080.26	0.014048
1089.91	0.010848
1099.55	0.008528
1109.2	0.009208
1118.84	0.011138
1128.49	0.016198
1138.13	0.024418
1147.78	0.026228
1157.42	0.018038
1167.07	0.012128
1176.71	0.011448
1186.36	0.010438
1196	0.007838
1205.64	0.007468
1215.29	0.010218
1224.93	0.016848
1234.58	0.016968
1244.22	0.009048
1253.87	0.005758
1263.51	0.004978
1273.16	0.005168
1282.8	0.005768
1292.45	0.008708
1302.09	0.011338
1311.74	0.009738
1321.38	0.007958
1331.03	0.008628
1340.67	0.009758
1350.32	0.010028
1359.96	0.010768
1369.61	0.011988
1379.25	0.016728
1388.9	0.029818
1398.54	0.059158
1408.18	0.052418
1417.83	0.020178
1427.47	0.014188
1437.12	0.016638
1446.76	0.021128
1456.41	0.026868
1466.05	0.039498
1475.7	0.036898
1485.34	0.014618
1494.99	0.007968
1504.63	0.007438
1514.28	0.011648
1523.92	0.019788
1533.57	0.015778
1543.21	0.005958
1552.86	0.004308
1562.5	0.006958
1572.15	0.011148
1581.79	0.007398
1591.44	0.002878
1601.08	0.002298
1610.73	0.0016949
1620.37	0.0017337
1630.01	0.0018378
1639.66	0.0018094
1649.3	0.0018202
1658.95	0.0017149
1668.59	0.0018672
1678.24	0.001968
1687.88	0.0018359
1697.53	0.0018591
1707.17	0.0018131
1716.82	0.0017915
1726.46	0.001898
1736.11	0.0018809
1745.75	0.002128
1755.4	0.002398
1765.04	0.002298
1774.69	0.002408
1784.33	0.002478
1793.98	0.002228
1803.62	0.002118
1813.27	0.001938
1822.91	0.0017423
1832.55	0.0016349
1842.2	0.0017671
1851.84	0.001958
1861.49	0.002098
1871.13	0.001938
1880.78	0.002048
1890.42	0.002318
1900.07	0.002408
1909.71	0.002898
1919.36	0.003738
1929	0.003518
1938.65	0.002238
1948.29	0.0015345
1957.94	0.0014293
1967.58	0.0013448
1977.23	0.0012976
1986.87	0.001203
1996.52	0.0012182
2006.16	0.001369
2015.81	0.0014368
2025.45	0.0013522
2035.1	0.0015579
2044.74	0.0016277
2054.38	0.0015706
2064.03	0.0016676
2073.67	0.0016069
2083.32	0.0014633
2092.96	0.0012923
2102.61	0.0014529
2112.25	0.0015592
2121.9	0.0015123
2131.54	0.0012996
2141.19	0.0013608
2150.83	0.0013469
2160.48	0.0012827
2170.12	0.001423
2179.77	0.00149
2189.41	0.0013683
2199.06	0.0015851
2208.7	0.0013986
2218.35	0.0013211
2227.99	0.001648
2237.64	0.0016249
2247.28	0.0013196
2256.92	0.0015175
2266.57	0.0013939
2276.21	0.0014108
2285.86	0.0015636
2295.5	0.001392
2305.15	0.0014798
2314.79	0.0014796
2324.44	0.0015986
2334.08	0.0014234
2343.73	0.0017575
2353.37	0.0016613
2363.02	0.0015222
2372.66	0.0016188
2382.31	0.001306
2391.95	0.0014837
2401.6	0.0014242
2411.24	0.001485
2420.89	0.0015895
2430.53	0.0014822
2440.18	0.0012795
2449.82	0.0013897
2459.47	0.0013415
2469.11	0.0013644
2478.75	0.0012383
2488.4	0.0014208
2498.04	0.0014401
2507.69	0.0012973
2517.33	0.0014366
2526.98	0.0015499
2536.62	0.0013726
2546.27	0.0017811
2555.91	0.0015293
2565.56	0.0015279
2575.2	0.0017858
2584.85	0.0018433
2594.49	0.001908
2604.14	0.001928
2613.78	0.001938
2623.43	0.002088
2633.07	0.002108
2642.72	0.002428
2652.36	0.002748
2662.01	0.002978
2671.65	0.002898
2681.29	0.002848
2690.94	0.002828
2700.58	0.002858
2710.23	0.002868
2719.87	0.002848
2729.52	0.003238
2739.16	0.003618
2748.81	0.003998
2758.45	0.003888
2768.1	0.004008
2777.74	0.004228
2787.39	0.004828
2797.03	0.005668
2806.68	0.006758
2816.32	0.007988
2825.97	0.010148
2835.61	0.014138
2845.26	0.022798
2854.9	0.038898
2864.55	0.057528
2874.19	0.064758
2883.84	0.061298
2893.48	0.053098
2903.12	0.055748
2912.77	0.076308
2922.41	0.113368
2932.06	0.149728
2941.7	0.156808
2951.35	0.133188
2960.99	0.123508
2970.64	0.115938
2980.28	0.069588
2989.93	0.038718
2999.57	0.030428
3009.22	0.026168
3018.86	0.020698
3028.51	0.020208
3038.15	0.025508
3047.8	0.039168
3057.44	0.058048
3067.09	0.052228
3076.73	0.027878
3086.38	0.012598
3096.02	0.008168
3105.67	0.005598
3115.31	0.004218
3124.95	0.003498
3134.6	0.003018
3144.24	0.002508
3153.89	0.002468
3163.53	0.002528
3173.18	0.002178
3182.82	0.002168
3192.47	0.002118
3202.11	0.0018322
3211.76	0.0014873
3221.4	0.0014358
3231.05	0.0014634
3240.69	0.0012216
3250.34	0.0014443
3259.98	0.0010394
3269.63	0.0012942
3279.27	0.0011928
3288.92	0.0011894
3298.56	0.0012235
3308.21	0.00083
3317.85	0.001009
3327.49	0.0010869
3337.14	0.0012476
3346.78	0.000993
3356.43	0.001144
3366.07	0.00097646
3375.72	0.0013331
3385.36	0.0010326
3395.01	0.0010075
3404.65	0.0010616
3414.3	0.000631
3423.94	0.000777
3433.59	0.0011237
3443.23	0.00088377
3452.88	0.00091076
3462.52	0.0010015
3472.17	0.0011034
3481.81	0.0013167
3491.46	0.0008731
3501.1	0.0007931
3510.75	0.00094598
3520.39	0.0011952
3530.04	0.00088198
3539.68	0.001115
3549.32	0.0010936
3558.97	0.0012081
3568.61	0.00098609
3578.26	0.0008096
3587.9	0.00088637
3597.55	0.0009117
3607.19	0.0008483
3616.84	0.0011419
3626.48	0.0009892
3636.13	0.001096
3645.77	0.0012936
3655.42	0.0012283
3665.06	0.0012442
3674.71	0.00092563
3684.35	0.0011985
3694	0.0010058
3703.64	0.0010306
3713.29	0.0011744
3722.93	0.0013035
3732.58	0.00093038
3742.22	0.0011437
3751.86	0.0015646
3761.51	0.0014214
3771.15	0.001184
3780.8	0.0012309
3790.44	0.0012473
3800.09	0.00096835
3809.73	0.0013778
3819.38	0.0012058
3829.02	0.0010874
3838.67	0.0013279
3848.31	0.0011556
3857.96	0.0011239
3867.6	0.0014672
3877.25	0.0014819
3886.89	0.0013365
3896.54	0.0014149
3906.18	0.00090665
3915.83	0.0010889
3925.47	0.0014313
3935.12	0.0013797
3944.76	0.0010284
3954.41	0.0011212
3964.05	0.0013863
3973.69	0.0014007
3983.34	0.001148
3992.98	0.0014664
