Infrared Spectrum: Bicyclo[2.2.2]octane-2-methanamine hydrochloride
Formula: C9 H18 Cl N
CAS: 6303-64-6
State: SOLID (KBr DISC, 0.8% WT.)
Class: COBLENTZ III
Instrument: PERKIN-ELMER 157
Sampling: TRANSMISSION
Resolution: 2
Origin: BRITISH PETROLEUM CO. LTD., ENGLAND
1/CM	TRANSMITTANCE
673	1.0162
682	0.9693
691	0.8703
700	0.635
709	0.565
718	0.9081
727	0.9118
736	0.9007
745	0.8523
754	0.816
763	0.8476
772	0.8369
781	0.8042
790	0.8319
799	0.8146
808	0.7683
817	0.6897
826	0.7816
835	0.6531
844	0.6683
853	0.6289
862	0.4513
871	0.6376
880	0.5523
889	0.7025
898	0.7963
907	0.7591
916	0.6465
925	0.4611
934	0.5896
943	0.7427
952	0.6419
961	0.6344
970	0.5391
979	0.5272
988	0.334
997	0.5637
1006	0.6472
1015	0.5928
1024	0.5214
1033	0.5334
1042	0.4364
1051	0.4415
1060	0.6398
1069	0.6327
1078	0.7747
1087	0.7809
1096	0.7115
1105	0.6965
1114	0.5581
1123	0.5108
1132	0.5327
1141	0.5584
1150	0.5442
1159	0.4878
1168	0.679
1177	0.732
1186	0.7223
1195	0.6479
1204	0.6361
1213	0.7056
1222	0.7407
1231	0.6988
1240	0.6831
1249	0.6067
1258	0.472
1267	0.6046
1276	0.6196
1285	0.6681
1294	0.6075
1303	0.6463
1312	0.5845
1321	0.6118
1330	0.6164
1339	0.6063
1348	0.6086
1357	0.6414
1366	0.5638
1375	0.5288
1384	0.5324
1393	0.5153
1402	0.5935
1411	0.6008
1420	0.5585
1429	0.489
1438	0.3639
1447	0.119
1456	0.0913
1465	0.0889
1474	0.0474
1483	0.0418
1492	0.1301
1501	0.1968
1510	0.3411
1519	0.4714
1528	0.5027
1537	0.4911
1546	0.4025
1555	0.2833
1564	0.2029
1573	0.1599
1582	0.1362
1591	0.1208
1600	0.1515
1609	0.2393
1618	0.3838
1627	0.5499
1636	0.601
1645	0.6637
1654	0.6936
1663	0.7095
1672	0.7214
1681	0.7334
1690	0.7357
1699	0.7414
1708	0.7407
1717	0.7406
1726	0.7425
1735	0.7436
1744	0.738
1753	0.7249
1762	0.7201
1771	0.7161
1780	0.7108
1789	0.7043
1798	0.6955
1807	0.6869
1816	0.6838
1825	0.6817
1834	0.6681
1843	0.6593
1852	0.6468
1861	0.6368
1870	0.6236
1879	0.6143
1888	0.6041
1897	0.5963
1906	0.5818
1915	0.5817
1924	0.5828
1933	0.5882
1942	0.5954
1951	0.6115
1960	0.6168
1969	0.6292
1978	0.6484
1987	0.6676
1996	0.6825
2005	0.695
2014	0.7024
2023	0.7057
2032	0.7081
2041	0.7088
2050	0.7074
2059	0.7052
2068	0.7037
2077	0.7036
2086	0.7038
2095	0.7037
2104	0.7033
2113	0.7019
2122	0.6998
2131	0.6963
2140	0.6921
2149	0.6869
2158	0.6845
2167	0.6842
2176	0.6841
2185	0.6843
2194	0.6845
2203	0.6848
2212	0.6816
2221	0.6782
2230	0.6747
2239	0.6714
2248	0.6682
2257	0.6651
2266	0.6621
2275	0.6591
2284	0.6563
2293	0.6511
2302	0.6352
2311	0.6227
2320	0.6089
2329	0.5953
2338	0.5861
2347	0.583
2356	0.5791
2365	0.5758
2374	0.5732
2383	0.5689
2392	0.5626
2401	0.5549
2410	0.5452
2419	0.5431
2428	0.5401
2437	0.5264
2446	0.5145
2455	0.495
2464	0.4719
2473	0.4518
2482	0.4325
2491	0.4177
2500	0.4022
2509	0.3845
2518	0.3712
2527	0.3722
2536	0.3758
2545	0.3778
2554	0.3765
2563	0.3727
2572	0.344
2581	0.3098
2590	0.2767
2599	0.2666
2608	0.263
2617	0.261
2626	0.2596
2635	0.2576
2644	0.2531
2653	0.2457
2662	0.2384
2671	0.231
2680	0.2234
2689	0.2122
2698	0.1969
2707	0.1838
2716	0.1709
2725	0.1576
2734	0.1471
2743	0.136
2752	0.1197
2761	0.0909
2770	0.0653
2779	0.0527
2788	0.0421
2797	0.0342
2806	0.0273
2815	0.0216
2824	0.0162
2833	0.0115
2842	0.01
2851	0.0092
2860	0.0089
2869	0.0088
2878	0.0087
2887	0.0088
2896	0.0091
2905	0.0095
2914	0.01
2923	0.0107
2932	0.0113
2941	0.0119
2950	0.0131
2959	0.0143
2968	0.0163
2977	0.0176
2986	0.0188
2995	0.0196
3004	0.0204
3013	0.021
3022	0.0212
3031	0.0214
3040	0.0216
3049	0.0217
3058	0.0218
3067	0.0219
3076	0.022
3085	0.0222
3094	0.0223
3103	0.0226
3112	0.0231
3121	0.024
3130	0.0254
3139	0.0284
3148	0.0336
3157	0.0433
3166	0.0533
3175	0.0706
3184	0.1041
3193	0.1365
3202	0.1659
3211	0.186
3220	0.2063
3229	0.2356
3238	0.258
3247	0.2941
3256	0.3194
3265	0.336
3274	0.3781
3283	0.4016
3292	0.425
3301	0.4464
3310	0.4579
3319	0.4618
3328	0.4651
3337	0.4678
3346	0.4698
3355	0.4717
3364	0.4729
3373	0.4739
3382	0.4748
3391	0.4757
3400	0.4761
3409	0.4766
3418	0.4771
3427	0.4778
3436	0.4786
3445	0.4799
3454	0.4812
3463	0.4826
3472	0.4854
3481	0.4886
3490	0.4925
3499	0.4966
3508	0.5007
3517	0.5046
3526	0.5084
3535	0.5123
3544	0.5161
3553	0.5201
3562	0.5246
3571	0.5287
3580	0.5299
3589	0.5309
3598	0.5319
3607	0.5317
3616	0.5314
3625	0.531
3634	0.5303
3643	0.5294
3652	0.5284
3661	0.527
3670	0.5254
3679	0.5238
3688	0.5218
3697	0.5199
3706	0.518
3715	0.5159
3724	0.5136
3733	0.5113
3742	0.5093
3751	0.5072
3760	0.5063
3769	0.5061
3778	0.5059
3787	0.5057
3796	0.5052
3805	0.5046
3814	0.5024
3823	0.4992
3832	0.4963
3841	0.4932
3850	0.489
3859	0.4865
3868	0.4845
3877	0.4828
3886	0.4816
3895	0.4805
3904	0.4797
3913	0.4791
3922	0.4785
3931	0.4781
3940	0.4779
3949	0.4776
3958	0.4772
3967	0.4769
3976	0.4766
3985	0.4763
3994	0.476
