Infrared Spectrum: BENZOIC ACID, M-ACETOXY
Formula: C9 H8 O4
CAS: 6304-89-8
State: SOLID (KBr PELLET)
Melting point: 135-136.5 C
Class: COBLENTZ
Instrument: Not specified, most likely a prism, grating, or hybrid spectrometer.
Sampling: TRANSMISSION
Resolution: 4
Origin: TENNESSEE EASTMAN COMPANY, RESEARCH LABORATORIES
MICROMETERS	TRANSMITTANCE
2.007	0.986
2.04706	0.986
2.08711	0.985
2.12717	0.985
2.16723	0.986
2.20728	0.986
2.24734	0.986
2.2874	0.986
2.32745	0.986
2.36751	0.988
2.40756	0.988
2.44762	0.988
2.48768	0.988
2.52773	0.988
2.56779	0.986
2.60785	0.981
2.6479	0.983
2.68796	0.981
2.72802	0.956
2.76807	0.903
2.80813	0.875
2.84819	0.836
2.88824	0.818
2.9283	0.808
2.96835	0.808
3.00841	0.786
3.04847	0.743
3.08852	0.678
3.12858	0.596
3.16864	0.538
3.20869	0.47
3.24875	0.435
3.28881	0.421
3.32886	0.441
3.36892	0.496
3.40898	0.456
3.44903	0.451
3.48909	0.506
3.52914	0.555
3.5692	0.616
3.60926	0.655
3.64931	0.678
3.68937	0.69
3.72943	0.643
3.76948	0.606
3.80954	0.661
3.8496	0.675
3.88965	0.703
3.92971	0.648
3.96977	0.7
4.00982	0.753
4.04988	0.788
4.08994	0.831
4.12999	0.85
4.17005	0.861
4.2101	0.88
4.25016	0.886
4.29022	0.888
4.33027	0.906
4.37033	0.933
4.41039	0.938
4.45044	0.943
4.4905	0.943
4.53056	0.943
4.57061	0.948
4.61067	0.946
4.65073	0.95
4.69078	0.951
4.73084	0.955
4.77089	0.945
4.81095	0.921
4.85101	0.921
4.89106	0.935
4.93112	0.94
4.97118	0.945
5.01123	0.93
5.05129	0.925
5.09135	0.926
5.1314	0.928
5.17146	0.92
5.21152	0.906
5.25157	0.9
5.29163	0.891
5.33169	0.886
5.37174	0.886
5.4118	0.883
5.45185	0.866
5.49191	0.831
5.53197	0.806
5.57202	0.778
5.61208	0.486
5.65214	0.073
5.69219	0.415
5.73225	0.591
5.77231	0.61
5.81236	0.575
5.85242	0.388
5.89248	0.108
5.93253	0.06
5.97259	0.208
6.01264	0.5
6.0527	0.636
6.09276	0.701
6.13281	0.763
6.17287	0.785
6.21293	0.8
6.25298	0.686
6.29304	0.451
6.3331	0.823
6.37315	0.861
6.41321	0.861
6.45327	0.855
6.49332	0.848
6.53338	0.838
6.57343	0.836
6.61349	0.828
6.65355	0.8
6.6936	0.756
6.73366	0.78
6.77372	0.66
6.81377	0.33
6.85383	0.246
6.89389	0.498
6.93394	0.643
6.974	0.688
7.01406	0.538
7.05411	0.398
7.09417	0.596
7.13423	0.693
7.17428	0.715
7.21434	0.63
7.25439	0.39
7.29445	0.546
7.33451	0.753
7.37456	0.825
7.41462	0.836
7.45468	0.835
7.49473	0.808
7.53479	0.751
7.57485	0.638
7.6149	0.55
7.65496	0.501
7.69502	0.483
7.73507	0.296
7.77513	0.123
7.81518	0.111
7.85524	0.216
7.8953	0.385
7.93535	0.535
7.97541	0.63
8.01547	0.638
8.05552	0.588
8.09558	0.473
8.13564	0.313
8.17569	0.103
8.21575	0.058
8.25581	0.061
8.29586	0.071
8.33592	0.303
8.37598	0.53
8.41603	0.641
8.45609	0.7
8.49614	0.755
8.5362	0.671
8.57626	0.478
8.61631	0.771
8.65637	0.823
8.69643	0.83
8.73648	0.836
8.77654	0.843
8.8166	0.85
8.85665	0.851
8.89671	0.85
8.93677	0.83
8.97682	0.771
9.01688	0.566
9.05693	0.708
9.09699	0.835
9.13705	0.86
9.1771	0.818
9.21716	0.658
9.25722	0.736
9.29727	0.825
9.33733	0.853
9.37739	0.86
9.41744	0.86
9.4575	0.846
9.49756	0.813
9.53761	0.798
9.57767	0.805
9.61772	0.813
9.65778	0.81
9.69784	0.776
9.73789	0.69
9.77795	0.568
9.81801	0.516
9.85806	0.651
9.89812	0.726
9.93818	0.668
9.97823	0.78
10.0183	0.811
10.0583	0.823
10.0984	0.841
10.1385	0.848
10.1785	0.848
10.2186	0.848
10.2586	0.831
10.2987	0.81
10.3387	0.79
10.3788	0.743
10.4189	0.665
10.4589	0.495
10.499	0.296
10.539	0.4
10.5791	0.575
10.6191	0.633
10.6592	0.635
10.6992	0.631
10.7393	0.57
10.7794	0.501
10.8194	0.468
10.8595	0.391
10.8995	0.445
10.9396	0.596
10.9796	0.688
11.0197	0.745
11.0598	0.783
11.0998	0.813
11.1399	0.826
11.1799	0.838
11.22	0.85
11.26	0.853
11.3001	0.86
11.3402	0.861
11.3802	0.865
11.4203	0.856
11.4603	0.83
11.5004	0.751
11.5404	0.628
11.5805	0.668
11.6205	0.791
11.6606	0.85
11.7007	0.871
11.7407	0.888
11.7808	0.893
11.8208	0.901
11.8609	0.901
11.9009	0.903
11.941	0.903
11.9811	0.903
12.0211	0.878
12.0612	0.818
12.1012	0.738
12.1413	0.69
12.1813	0.695
12.2214	0.776
12.2615	0.825
12.3015	0.853
12.3416	0.87
12.3816	0.883
12.4217	0.891
12.4617	0.9
12.5018	0.901
12.5418	0.901
12.5819	0.895
12.622	0.873
12.662	0.818
12.7021	0.678
12.7421	0.503
12.7822	0.546
12.8222	0.718
12.8623	0.815
12.9024	0.85
12.9424	0.861
12.9825	0.865
13.0225	0.846
13.0626	0.791
13.1026	0.671
13.1427	0.5
13.1827	0.398
13.2228	0.515
13.2629	0.72
13.3029	0.828
13.343	0.875
13.383	0.91
13.4231	0.935
13.4631	0.95
13.5032	0.961
13.5433	0.965
13.5833	0.97
13.6234	0.971
13.6634	0.973
13.7035	0.971
13.7435	0.971
13.7836	0.973
13.8237	0.973
13.8637	0.975
13.9038	0.975
13.9438	0.975
13.9839	0.97
14.0239	0.953
14.064	0.945
14.104	0.918
14.1441	0.87
14.1842	0.795
14.2242	0.685
14.2643	0.558
14.3043	0.483
14.3444	0.533
14.3844	0.653
14.4245	0.743
14.4646	0.791
14.5046	0.813
14.5447	0.821
14.5847	0.823
14.6248	0.821
14.6648	0.815
14.7049	0.795
14.745	0.753
14.785	0.701
14.8251	0.665
14.8651	0.641
14.9052	0.633
14.9452	0.651
14.9853	0.671
15.0253	0.688
15.0654	0.7
15.1055	0.703
15.1455	0.708
15.1856	0.71
15.2256	0.708
15.2657	0.675
15.3057	0.661
15.3458	0.673
15.3859	0.71
15.4259	0.741
15.466	0.756
15.506	0.763
15.5461	0.768
15.5861	0.771
15.6262	0.77
15.6662	0.768
15.7063	0.768
15.7464	0.758
15.7864	0.75
15.8265	0.746
15.8665	0.73
15.9066	0.723
15.9466	0.718
15.9867	0.713
