Infrared Spectrum: Triphenylacrylonitrile
Formula: C 21 H 15 N
CAS: 6304-33-2
State: gas
Origin: EPA-IR VAPOR PHASE LIBRARY
1/CM	ABSORBANCE
549.9	0.0016072
559.547	0.001729
569.193	0.002619
578.84	0.002969
588.486	0.002269
598.133	0.004329
607.779	0.012539
617.426	0.004779
627.072	0.002399
636.719	0.003719
646.365	0.009579
656.012	0.005789
665.658	0.007489
675.305	0.012189
684.951	0.023309
694.598	0.074079
704.245	0.049979
713.891	0.014419
723.538	0.008349
733.184	0.009239
742.831	0.020149
752.477	0.039439
762.124	0.023609
771.77	0.010939
781.417	0.004329
791.063	0.003319
800.71	0.002879
810.356	0.002629
820.003	0.002709
829.649	0.002529
839.296	0.002619
848.943	0.002069
858.589	0.001709
868.236	0.001859
877.882	0.002189
887.529	0.002409
897.175	0.003609
906.822	0.003279
916.468	0.003949
926.115	0.002229
935.761	0.001719
945.408	0.0014347
955.054	0.0014008
964.701	0.001789
974.347	0.0015954
983.994	0.002009
993.64	0.003339
1003.29	0.004869
1012.93	0.003569
1022.58	0.005949
1032.23	0.009419
1041.87	0.003239
1051.52	0.002569
1061.17	0.002929
1070.81	0.006119
1080.46	0.004489
1090.11	0.002129
1099.75	0.002349
1109.4	0.002109
1119.05	0.0011844
1128.69	0.0010438
1138.34	0.00101
1147.99	0.001118
1157.63	0.0014528
1167.28	0.0015307
1176.92	0.003019
1186.57	0.003829
1196.22	0.001819
1205.86	0.001669
1215.51	0.002289
1225.16	0.003749
1234.8	0.004099
1244.45	0.004029
1254.1	0.004029
1263.74	0.002969
1273.39	0.003189
1283.04	0.002859
1292.68	0.003389
1302.33	0.003469
1311.98	0.003269
1321.62	0.003269
1331.27	0.003229
1340.92	0.002389
1350.56	0.0015529
1360.21	0.0015824
1369.86	0.001949
1379.5	0.002139
1389.15	0.001719
1398.79	0.001729
1408.44	0.001899
1418.09	0.002099
1427.73	0.002779
1437.38	0.007629
1447.03	0.014029
1456.67	0.004659
1466.32	0.003179
1475.97	0.004199
1485.61	0.010589
1495.26	0.014249
1504.91	0.005389
1514.55	0.002889
1524.2	0.002689
1533.85	0.003169
1543.49	0.002729
1553.14	0.002649
1562.79	0.003739
1572.43	0.005039
1582.08	0.006269
1591.73	0.006819
1601.37	0.005789
1611.02	0.002619
1620.67	0.001929
1630.31	0.001659
1639.96	0.0015026
1649.6	0.0016056
1659.25	0.002099
1668.9	0.002249
1678.54	0.002429
1688.19	0.001939
1697.84	0.001343
1707.48	0.0013332
1717.13	0.0013822
1726.78	0.0015956
1736.42	0.001919
1746.07	0.002369
1755.72	0.002329
1765.36	0.001709
1775.01	0.001899
1784.66	0.002259
1794.3	0.004409
1803.95	0.003679
1813.6	0.002249
1823.24	0.001969
1832.89	0.0014939
1842.54	0.0013639
1852.18	0.0013817
1861.83	0.001799
1871.47	0.002719
1881.12	0.003319
1890.77	0.003139
1900.41	0.002439
1910.06	0.0014617
1919.71	0.0013852
1929.35	0.001989
1939	0.003949
1948.65	0.003909
1958.29	0.003859
1967.94	0.002099
1977.59	0.0011404
1987.23	0.0009486
1996.88	0.0008748
2006.53	0.0007408
2016.17	0.0008195
2025.82	0.0007612
2035.47	0.0007472
2045.11	0.00068648
2054.76	0.00063901
2064.41	0.00070944
2074.05	0.00063814
2083.7	0.00064623
2093.35	0.00064128
2102.99	0.00061992
2112.64	0.0005806
2122.28	0.0005778
2131.93	0.000512
2141.58	0.000624498
2151.22	0.00063159
2160.87	0.0006486
2170.52	0.0007278
2180.16	0.0008533
2189.81	0.0010038
2199.46	0.001769
2209.1	0.004099
2218.75	0.003589
2228.4	0.001819
2238.04	0.0009457
2247.69	0.0008337
2257.34	0.0007873
2266.98	0.0007484
2276.63	0.00070432
2286.28	0.0007228
2295.92	0.0007305
2305.57	0.0008227
2315.22	0.0013614
2324.86	0.0009806
2334.51	0.0008485
2344.16	0.0010511
2353.8	0.00069471
2363.45	0.0005738
2373.09	0.0006895
2382.74	0.00063319
2392.39	0.0005348
2402.03	0.000502
2411.68	0.0005759
2421.33	0.000514
2430.97	0.0005409
2440.62	0.000418
2450.27	0.000416
2459.91	0.000442
2469.56	0.000433
2479.21	0.000412
2488.85	0.000453
2498.5	0.000455
2508.15	0.00042
2517.79	0.000404
2527.44	0.00038
2537.09	0.000382
2546.73	0.0004
2556.38	0.000374
2566.03	0.000452
2575.67	0.000491
2585.32	0.000507
2594.96	0.0005839
2604.61	0.0005313
2614.26	0.00045
2623.9	0.000502
2633.55	0.000419
2643.2	0.000282
2652.84	0.000204
2662.49	0.000313
2672.14	0.000197
2681.78	0.000175
2691.43	0.000216
2701.08	5e-05
2710.72	0.000195
2720.37	0.000183
2730.02	0.000126
2739.66	5.9e-05
2749.31	0.00013
2758.96	0.00035
2768.6	0.000253
2778.25	0.000201
2787.9	0.000117
2797.54	0.000128
2807.19	0.000113
2816.84	0.000382
2826.48	0.000459
2836.13	0.000386
2845.77	0.0005734
2855.42	0.0005469
2865.07	0.0005401
2874.71	0.000483
2884.36	0.000618752
2894.01	0.000496
2903.65	0.000487
2913.3	0.000426
2922.95	0.000433
2932.59	0.000492
2942.24	0.000255
2951.89	0.000212
2961.53	0.000404
2971.18	0.00063597
2980.83	0.0008538
2990.47	0.0010332
3000.12	0.001679
3009.77	0.003599
3019.41	0.008459
3029.06	0.015069
3038.71	0.015419
3048.35	0.012199
3058	0.021559
3067.64	0.041929
3077.29	0.030049
3086.94	0.024509
3096.58	0.014009
3106.23	0.008419
3115.88	0.004029
3125.52	0.001929
3135.17	0.001614
3144.82	0.001669
3154.46	0.0013493
3164.11	0.0009432
3173.76	0.00063419
3183.4	0.00070188
3193.05	0.0005842
3202.7	0.000588
3212.34	0.000451
3221.99	0.000428
3231.64	0.00032
3241.28	0.00064513
3250.93	0.0006079
3260.58	0.000506
3270.22	0.0008498
3279.87	0.000464
3289.52	0.00070541
3299.16	0.0007494
3308.81	0.0007284
3318.45	0.0007567
3328.1	0.00068954
3337.75	0.0006014
3347.39	0.0007548
3357.04	0.00068915
3366.69	0.0007999
3376.33	0.0008924
3385.98	0.0009833
3395.63	0.00070481
3405.27	0.0010285
3414.92	0.0007443
3424.57	0.000998
3434.21	0.0009371
3443.86	0.001041
3453.51	0.0010206
3463.15	0.0008712
3472.8	0.0010786
3482.45	0.0008842
3492.09	0.0011612
3501.74	0.0009156
3511.39	0.0010113
3521.03	0.0011471
3530.68	0.0011539
3540.33	0.0009135
3549.97	0.0008029
3559.62	0.000754
3569.26	0.0008764
3578.91	0.0009291
3588.56	0.0009652
3598.2	0.0010419
3607.85	0.0011144
3617.5	0.0011182
3627.14	0.0010512
3636.79	0.0009882
3646.44	0.0012186
3656.08	0.0012352
3665.73	0.0011716
3675.38	0.0009083
3685.02	0.0011248
3694.67	0.0012861
3704.32	0.0012392
3713.96	0.0012847
3723.61	0.0009178
3733.26	0.001037
3742.9	0.0010154
3752.55	0.0008673
3762.2	0.0009364
3771.84	0.00085
3781.49	0.0009619
3791.13	0.0009074
3800.78	0.0008676
3810.43	0.0010356
3820.07	0.0009494
3829.72	0.0007426
3839.37	0.0008088
3849.01	0.0008893
3858.66	0.00068484
3868.31	0.0008364
3877.95	0.0008707
3887.6	0.0007898
3897.25	0.00070158
3906.89	0.0007864
3916.54	0.0009302
3926.19	0.000813
3935.83	0.00071476
3945.48	0.0007993
3955.13	0.000858
3964.77	0.0007456
3974.42	0.0007478
3984.07	0.00069924
3993.71	0.0007864
