Infrared Spectrum: 1-(2-Chlorophenyl)propan-2-one
Formula: C 9 H 9 Cl O
CAS: 6305-95-9
State: gas
Origin: EPA-IR VAPOR PHASE LIBRARY
1/CM	ABSORBANCE
549.8	0.014303
559.445	0.005513
569.09	0.001733
578.734	0.001403
588.379	0.001573
598.024	0.001863
607.669	0.001593
617.313	0.002733
626.958	0.003203
636.603	0.002163
646.248	0.001813
655.893	0.002243
665.537	0.002763
675.182	0.006653
684.827	0.009833
694.472	0.006203
704.116	0.004083
713.761	0.004933
723.406	0.007553
733.051	0.024863
742.695	0.056273
752.34	0.034793
761.985	0.011723
771.63	0.005173
781.275	0.003763
790.919	0.003183
800.564	0.002573
810.209	0.002673
819.854	0.002493
829.498	0.003243
839.143	0.003203
848.788	0.002643
858.433	0.002963
868.078	0.002403
877.722	0.002603
887.367	0.002033
897.012	0.001683
906.657	0.001503
916.301	0.0012752
925.946	0.001773
935.591	0.002543
945.236	0.002243
954.88	0.002773
964.525	0.003413
974.17	0.004413
983.815	0.004733
993.46	0.004173
1003.1	0.005313
1012.75	0.005663
1022.39	0.007083
1032.04	0.014243
1041.68	0.025213
1051.33	0.033953
1060.97	0.025693
1070.62	0.008243
1080.26	0.004063
1089.91	0.004203
1099.55	0.004113
1109.2	0.006463
1118.84	0.010983
1128.49	0.015903
1138.13	0.018413
1147.78	0.030153
1157.42	0.034243
1167.07	0.022593
1176.71	0.015023
1186.36	0.014283
1196	0.016493
1205.64	0.020293
1215.29	0.022883
1224.93	0.016903
1234.58	0.010243
1244.22	0.006483
1253.87	0.004933
1263.51	0.005133
1273.16	0.006263
1282.8	0.006183
1292.45	0.007793
1302.09	0.009783
1311.74	0.012163
1321.38	0.012523
1331.03	0.010853
1340.67	0.012443
1350.32	0.021643
1359.96	0.032153
1369.61	0.023343
1379.25	0.011333
1388.9	0.008063
1398.54	0.008063
1408.18	0.010193
1417.83	0.013693
1427.47	0.016673
1437.12	0.022853
1446.76	0.021993
1456.41	0.015803
1466.05	0.021183
1475.7	0.027853
1485.34	0.021403
1494.99	0.010203
1504.63	0.005013
1514.28	0.003763
1523.92	0.003273
1533.57	0.003093
1543.21	0.003223
1552.86	0.003673
1562.5	0.005183
1572.15	0.006463
1581.79	0.006213
1591.44	0.005883
1601.08	0.005163
1610.73	0.003493
1620.37	0.002583
1630.01	0.002323
1639.66	0.002633
1649.3	0.002973
1658.95	0.003583
1668.59	0.004593
1678.24	0.006933
1687.88	0.010583
1697.53	0.015963
1707.17	0.024723
1716.82	0.043263
1726.46	0.073533
1736.11	0.080523
1745.75	0.056953
1755.4	0.031363
1765.04	0.016983
1774.69	0.010643
1784.33	0.007053
1793.98	0.005233
1803.62	0.003973
1813.27	0.002843
1822.91	0.002543
1832.55	0.002363
1842.2	0.001853
1851.84	0.001483
1861.49	0.001483
1871.13	0.001453
1880.78	0.001533
1890.42	0.001623
1900.07	0.002183
1909.71	0.002833
1919.36	0.002183
1929	0.001853
1938.65	0.002133
1948.29	0.001983
1957.94	0.001423
1967.58	0.0011711
1977.23	0.0010559
1986.87	0.0010884
1996.52	0.0010679
2006.16	0.0009498
2015.81	0.0010418
2025.45	0.0010901
2035.1	0.0009804
2044.74	0.0009786
2054.38	0.0008334
2064.03	0.0007276
2073.67	0.0009345
2083.32	0.0009324
2092.96	0.000939
2102.61	0.0009311
2112.25	0.0007893
2121.9	0.0009029
2131.54	0.001011
2141.19	0.0010879
2150.83	0.0010284
2160.48	0.0009882
2170.12	0.0010174
2179.77	0.00086
2189.41	0.0009595
2199.06	0.0010468
2208.7	0.0008727
2218.35	0.0009541
2227.99	0.0007025
2237.64	0.0009063
2247.28	0.0009298
2256.92	0.0008904
2266.57	0.0007642
2276.21	0.0009114
2285.86	0.0008723
2295.5	0.0009368
2305.15	0.0010011
2314.79	0.0011271
2324.44	0.0010555
2334.08	0.0009761
2343.73	0.0010522
2353.37	0.0008799
2363.02	0.0009125
2372.66	0.0006856
2382.31	0.0007809
2391.95	0.0005864
2401.6	0.0009342
2411.24	0.0008117
2420.89	0.0008511
2430.53	0.0007489
2440.18	0.0008835
2449.82	0.0010876
2459.47	0.0008905
2469.11	0.000928
2478.75	0.0008892
2488.4	0.0010296
2498.04	0.000941
2507.69	0.0009949
2517.33	0.0008583
2526.98	0.0009626
2536.62	0.0010523
2546.27	0.001001
2555.91	0.0012163
2565.56	0.0011292
2575.2	0.0010693
2584.85	0.0010759
2594.49	0.0009696
2604.14	0.0010106
2613.78	0.0009904
2623.43	0.0011592
2633.07	0.000965
2642.72	0.0008609
2652.36	0.0007552
2662.01	0.0008598
2671.65	0.0007964
2681.29	0.0009759
2690.94	0.0009565
2700.58	0.000732
2710.23	0.0007145
2719.87	0.0008257
2729.52	0.0009373
2739.16	0.0011189
2748.81	0.0011232
2758.45	0.0007014
2768.1	0.0005787
2777.74	0.0009025
2787.39	0.0012134
2797.03	0.0009998
2806.68	0.001133
2816.32	0.0012937
2825.97	0.001463
2835.61	0.001883
2845.26	0.001763
2854.9	0.001733
2864.55	0.001793
2874.19	0.002183
2883.84	0.002523
2893.48	0.003623
2903.12	0.005573
2912.77	0.008013
2922.41	0.009243
2932.06	0.008683
2941.7	0.007803
2951.35	0.005903
2960.99	0.005313
2970.64	0.005423
2980.28	0.004773
2989.93	0.004593
2999.57	0.005333
3009.22	0.007503
3018.86	0.009083
3028.51	0.007803
3038.15	0.005803
3047.8	0.006573
3057.44	0.009173
3067.09	0.016183
3076.73	0.018323
3086.38	0.011903
3096.02	0.006183
3105.67	0.003023
3115.31	0.002583
3124.95	0.001953
3134.6	0.001913
3144.24	0.001623
3153.89	0.001383
3163.53	0.0010684
3173.18	0.0009444
3182.82	0.000911
3192.47	0.0006069
3202.11	0.000862
3211.76	0.001071
3221.4	0.0005784
3231.05	0.0008129
3240.69	0.0007846
3250.34	0.0007126
3259.98	0.00042575
3269.63	0.0007117
3279.27	0.0007455
3288.92	0.0009501
3298.56	0.000613
3308.21	0.0011677
3317.85	0.0005488
3327.49	0.0012307
3337.14	0.0004462
3346.78	0.00038788
3356.43	0.0006135
3366.07	0.00041241
3375.72	0.0011022
3385.36	0.001363
3395.01	0.0006239
3404.65	0.0008801
3414.3	0.0011817
3423.94	0.0013206
3433.59	0.001693
3443.23	0.002233
3452.88	0.001703
3462.52	0.002003
3472.17	0.001523
3481.81	0.001443
3491.46	0.0007829
3501.1	0.0004554
3510.75	0.000815
3520.39	0.0005002
3530.04	0.00033105
3539.68	0.0003081
3549.32	0.000629
3558.97	0.0007407
3568.61	0.0006161
3578.26	0.0010342
3587.9	0.0009064
3597.55	0.0010673
3607.19	0.0002532
3616.84	0.0011896
3626.48	0.00039024
3636.13	0.0011031
3645.77	0.00034829
3655.42	0.0006407
3665.06	0.0005899
3674.71	0.00034474
3684.35	0.0004579
3694	0.0009449
3703.64	0.0002495
3713.29	0.0007743
3722.93	0.0006914
3732.58	0.0007501
3742.22	0.0006308
3751.86	0.0007368
3761.51	0.0004461
3771.15	0.0005871
3780.8	0.0007192
3790.44	0.0009463
3800.09	0.0004439
3809.73	0.0007815
3819.38	0.0007657
3829.02	0.0003752
3838.67	0.0010733
3848.31	0.0006599
3857.96	0.0005986
3867.6	0.0009103
3877.25	0.0008355
3886.89	0.0002965
3896.54	0.0006306
3906.18	0.001239
3915.83	0.0009145
3925.47	0.0009537
3935.12	0.0005277
3944.76	0.000768
3954.41	0.0004603
3964.05	0.0009033
3973.69	0.000616
3983.34	0.0005898
3992.98	0.0010624
