Infrared Spectrum: AMYL-2,4-DIBROMOPHENYL ETHER
Formula: C11 H14 Br2 O
CAS: 63076-62-0
State: SOLUTION (10% IN CCl4 FOR 5000-1350 CM^-^1, 10% IN CS2 FOR 1350-625 CM^-^1)
Class: COBLENTZ
Instrument: Not specified, most likely a prism, grating, or hybrid spectrometer.
Sampling: TRANSMISSION
Path length: 0.01 CM, 0.01 CM
Resolution: 4
Origin: DOW CHEMICAL COMPANY
MICROMETERS	TRANSMITTANCE
2.031	0.869
2.07027	0.873
2.10955	0.871
2.14882	0.871
2.1881	0.871
2.22737	0.873
2.26665	0.866
2.30592	0.866
2.3452	0.871
2.38447	0.871
2.42374	0.871
2.46302	0.874
2.50229	0.879
2.54157	0.879
2.58084	0.878
2.62012	0.878
2.65939	0.879
2.69867	0.876
2.73794	0.876
2.77721	0.871
2.81649	0.865
2.85576	0.86
2.89504	0.856
2.93431	0.852
2.97359	0.848
3.01286	0.852
3.05213	0.858
3.09141	0.856
3.13068	0.856
3.16996	0.853
3.20923	0.85
3.24851	0.824
3.28778	0.819
3.32706	0.77
3.36633	0.499
3.4056	0.286
3.44488	0.494
3.48415	0.56
3.52343	0.79
3.5627	0.832
3.60198	0.86
3.64125	0.855
3.68053	0.865
3.7198	0.871
3.75907	0.874
3.79835	0.878
3.83762	0.881
3.8769	0.884
3.91617	0.869
3.95545	0.868
3.99472	0.882
4.034	0.895
4.07327	0.899
4.11254	0.899
4.15182	0.9
4.19109	0.9
4.23037	0.882
4.26964	0.876
4.30892	0.874
4.34819	0.878
4.38747	0.891
4.42674	0.902
4.46601	0.921
4.50529	0.928
4.54456	0.926
4.58384	0.913
4.62311	0.923
4.66239	0.915
4.70166	0.913
4.74094	0.91
4.78021	0.913
4.81948	0.915
4.85876	0.915
4.89803	0.918
4.93731	0.915
4.97658	0.913
5.01586	0.915
5.05513	0.917
5.0944	0.918
5.13368	0.918
5.17295	0.918
5.21223	0.917
5.2515	0.92
5.29078	0.917
5.33005	0.918
5.36933	0.876
5.4086	0.879
5.44787	0.9
5.48715	0.902
5.52642	0.904
5.5657	0.899
5.60497	0.908
5.64425	0.9
5.68352	0.899
5.7228	0.873
5.76207	0.868
5.80134	0.876
5.84062	0.881
5.87989	0.876
5.91917	0.873
5.95844	0.869
5.99772	0.871
6.03699	0.868
6.07627	0.861
6.11554	0.852
6.15481	0.829
6.19409	0.785
6.23336	0.7
6.27264	0.556
6.31191	0.44
6.35119	0.44
6.39046	0.437
6.42974	0.426
6.46901	0.445
6.50828	0.549
6.54756	0.577
6.58683	0.601
6.62611	0.635
6.66538	0.621
6.70466	0.393
6.74393	0.107
6.78321	0.058
6.82248	0.113
6.86175	0.466
6.90103	0.653
6.9403	0.702
6.97958	0.726
7.01885	0.738
7.05813	0.767
7.0974	0.764
7.13667	0.704
7.17595	0.547
7.21522	0.409
7.2545	0.583
7.29377	0.702
7.33305	0.759
7.37232	0.788
7.4116	0.8
7.45087	0.809
7.49014	0.813
7.52942	0.804
7.56869	0.777
7.60797	0.726
7.64724	0.634
7.68652	0.525
7.72579	0.334
7.76507	0.126
7.80434	0.281
7.84361	0.385
7.88289	0.258
7.92216	0.2
7.96144	0.305
8.00071	0.2
8.03999	0.284
8.07926	0.46
8.11854	0.604
8.15781	0.73
8.19708	0.77
8.23636	0.798
8.27563	0.821
8.31491	0.832
8.35418	0.839
8.39346	0.842
8.43273	0.829
8.47201	0.808
8.51128	0.778
8.55055	0.773
8.58983	0.765
8.6291	0.721
8.66838	0.632
8.70765	0.63
8.74693	0.726
8.7862	0.746
8.82548	0.734
8.86475	0.712
8.90402	0.678
8.9433	0.665
8.98257	0.687
9.02185	0.689
9.06112	0.684
9.1004	0.697
9.13967	0.725
9.17894	0.715
9.21822	0.634
9.25749	0.6
9.29677	0.7
9.33604	0.717
9.37532	0.684
9.41459	0.575
9.45387	0.494
9.49314	0.377
9.53241	0.265
9.57169	0.282
9.61096	0.552
9.65024	0.656
9.68951	0.674
9.72879	0.676
9.76806	0.676
9.80734	0.658
9.84661	0.653
9.88588	0.656
9.92516	0.648
9.96443	0.637
10.0037	0.645
10.043	0.669
10.0823	0.687
10.1215	0.71
10.1608	0.736
10.2001	0.752
10.2394	0.782
10.2786	0.783
10.3179	0.773
10.3572	0.785
10.3965	0.791
10.4357	0.77
10.475	0.738
10.5143	0.728
10.5535	0.749
10.5928	0.769
10.6321	0.796
10.6714	0.808
10.7106	0.811
10.7499	0.806
10.7892	0.804
10.8285	0.803
10.8677	0.801
10.907	0.795
10.9463	0.798
10.9856	0.804
11.0248	0.808
11.0641	0.8
11.1034	0.798
11.1427	0.798
11.1819	0.795
11.2212	0.785
11.2605	0.762
11.2998	0.741
11.339	0.717
11.3783	0.661
11.4176	0.539
11.4569	0.406
11.4961	0.346
11.5354	0.53
11.5747	0.596
11.614	0.621
11.6532	0.629
11.6925	0.64
11.7318	0.652
11.7711	0.676
11.8103	0.704
11.8496	0.718
11.8889	0.728
11.9282	0.736
11.9674	0.739
12.0067	0.743
12.046	0.743
12.0853	0.738
12.1245	0.728
12.1638	0.708
12.2031	0.697
12.2423	0.682
12.2816	0.661
12.3209	0.627
12.3602	0.565
12.3994	0.499
12.4387	0.346
12.478	0.217
12.5173	0.25
12.5565	0.417
12.5958	0.573
12.6351	0.632
12.6744	0.671
12.7136	0.692
12.7529	0.705
12.7922	0.717
12.8315	0.718
12.8707	0.717
12.91	0.725
12.9493	0.734
12.9886	0.741
13.0278	0.749
13.0671	0.751
13.1064	0.754
13.1457	0.756
13.1849	0.757
13.2242	0.759
13.2635	0.756
13.3028	0.751
13.342	0.743
13.3813	0.73
13.4206	0.713
13.4599	0.702
13.4991	0.702
13.5384	0.71
13.5777	0.715
13.617	0.708
13.6562	0.695
13.6955	0.686
13.7348	0.679
13.7741	0.673
13.8133	0.66
13.8526	0.648
13.8919	0.634
13.9312	0.619
13.9704	0.601
14.0097	0.588
14.049	0.572
14.0882	0.552
14.1275	0.531
14.1668	0.502
14.2061	0.484
14.2453	0.456
14.2846	0.432
14.3239	0.416
14.3632	0.403
14.4024	0.403
14.4417	0.414
14.481	0.429
14.5203	0.448
14.5595	0.463
14.5988	0.474
14.6381	0.479
14.6774	0.481
14.7166	0.481
14.7559	0.484
14.7952	0.489
14.8345	0.495
14.8737	0.495
14.913	0.487
14.9523	0.487
14.9916	0.502
15.0308	0.5
15.0701	0.489
15.1094	0.478
15.1487	0.469
15.1879	0.456
15.2272	0.448
15.2665	0.442
15.3058	0.434
15.345	0.426
15.3843	0.417
15.4236	0.409
15.4629	0.398
15.5021	0.385
15.5414	0.367
15.5807	0.344
15.62	0.304
15.6592	0.278
15.6985	0.26
15.7378	0.256
15.777	0.258
15.8163	0.265
15.8556	0.269
15.8949	0.271
