Infrared Spectrum: CARBANILIC ACID, n-PENTYL ESTER
Formula: C12 H17 N O2
CAS: 63075-06-9
State: SOLID (2 mg / 100 mg KBr)
Melting point: 46-47 C
Class: COBLENTZ
Instrument: Not specified, most likely a grating spectrometer.
Sampling: TRANSMISSION
Resolution: 4
Origin: CITRUS EXPERIMENT STATION, UNIVERSITY OF FLORIDA (G. EDWARDS)
MICROMETERS	TRANSMITTANCE
2.046	0.65
2.07913	0.654
2.11226	0.657
2.14538	0.663
2.17851	0.669
2.21164	0.673
2.24477	0.67
2.2779	0.673
2.31103	0.684
2.34415	0.686
2.37728	0.694
2.41041	0.698
2.44354	0.698
2.47667	0.701
2.50979	0.712
2.54292	0.72
2.57605	0.726
2.60918	0.721
2.64231	0.73
2.67543	0.732
2.70856	0.736
2.74169	0.74
2.77482	0.737
2.80795	0.741
2.84108	0.744
2.8742	0.737
2.90733	0.716
2.94046	0.662
2.97359	0.39
3.00672	0.617
3.03984	0.709
3.07297	0.741
3.1061	0.761
3.13923	0.769
3.17236	0.761
3.20548	0.769
3.23861	0.741
3.27174	0.737
3.30487	0.751
3.338	0.67
3.37113	0.524
3.40425	0.614
3.43738	0.673
3.47051	0.61
3.50364	0.785
3.53677	0.805
3.56989	0.809
3.60302	0.811
3.63615	0.821
3.66928	0.825
3.70241	0.828
3.73553	0.832
3.76866	0.835
3.80179	0.839
3.83492	0.842
3.86805	0.847
3.90118	0.843
3.9343	0.85
3.96743	0.856
4.00056	0.852
4.03369	0.856
4.06682	0.858
4.09994	0.863
4.13307	0.862
4.1662	0.858
4.19933	0.859
4.23246	0.875
4.26558	0.876
4.29871	0.874
4.33184	0.875
4.36497	0.87
4.3981	0.872
4.43123	0.874
4.46435	0.876
4.49748	0.88
4.53061	0.879
4.56374	0.886
4.59687	0.878
4.62999	0.887
4.66312	0.89
4.69625	0.896
4.72938	0.895
4.76251	0.892
4.79564	0.899
4.82876	0.891
4.86189	0.892
4.89502	0.895
4.92815	0.899
4.96128	0.898
4.9944	0.895
5.02753	0.896
5.06066	0.892
5.09379	0.887
5.12692	0.882
5.16004	0.899
5.19317	0.9
5.2263	0.896
5.25943	0.892
5.29256	0.888
5.32569	0.88
5.35881	0.891
5.39194	0.892
5.42507	0.882
5.4582	0.878
5.49133	0.871
5.52445	0.859
5.55758	0.846
5.59071	0.844
5.62384	0.836
5.65697	0.815
5.69009	0.755
5.72322	0.638
5.75635	0.554
5.78948	0.34
5.82261	0.188
5.85574	0.424
5.88886	0.531
5.92199	0.737
5.95512	0.784
5.98825	0.796
6.02138	0.823
6.0545	0.847
6.08763	0.843
6.12076	0.827
6.15389	0.725
6.18702	0.623
6.22014	0.4
6.25327	0.552
6.2864	0.773
6.31953	0.824
6.35266	0.781
6.38579	0.583
6.41891	0.431
6.45204	0.2
6.48517	0.24
6.5183	0.475
6.55143	0.649
6.58455	0.659
6.61768	0.622
6.65081	0.767
6.68394	0.769
6.71707	0.726
6.75019	0.661
6.78332	0.759
6.81645	0.721
6.84958	0.502
6.88271	0.356
6.91584	0.491
6.94896	0.712
6.98209	0.811
7.01522	0.831
7.04835	0.851
7.08148	0.854
7.1146	0.843
7.14773	0.834
7.18086	0.836
7.21399	0.838
7.24712	0.836
7.28025	0.868
7.31337	0.878
7.3465	0.866
7.37963	0.86
7.41276	0.847
7.44589	0.769
7.47901	0.599
7.51214	0.51
7.54527	0.519
7.5784	0.568
7.61153	0.684
7.64465	0.568
7.67778	0.613
7.71091	0.732
7.74404	0.761
7.77717	0.761
7.8103	0.71
7.84342	0.693
7.87655	0.634
7.90968	0.526
7.94281	0.436
7.97594	0.394
8.00906	0.41
8.04219	0.188
8.07532	0.204
8.10845	0.319
8.14158	0.448
8.1747	0.531
8.20783	0.583
8.24096	0.646
8.27409	0.7
8.30722	0.753
8.34035	0.807
8.37347	0.846
8.4066	0.851
8.43973	0.68
8.47286	0.748
8.50599	0.848
8.53911	0.876
8.57224	0.891
8.60537	0.886
8.6385	0.874
8.67163	0.907
8.70475	0.912
8.73788	0.925
8.77101	0.917
8.80414	0.891
8.83727	0.88
8.8704	0.907
8.90352	0.914
8.93665	0.902
8.96978	0.894
9.00291	0.883
9.03604	0.88
9.06916	0.871
9.10229	0.844
9.13542	0.8
9.16855	0.659
9.20168	0.469
9.2348	0.635
9.26793	0.673
9.30106	0.44
9.33419	0.555
9.36732	0.688
9.40045	0.744
9.43357	0.785
9.4667	0.797
9.49983	0.8
9.53296	0.846
9.56609	0.883
9.59921	0.91
9.63234	0.888
9.66547	0.771
9.6986	0.714
9.73173	0.827
9.76485	0.87
9.79798	0.859
9.83111	0.866
9.86424	0.912
9.89737	0.921
9.9305	0.93
9.96362	0.929
9.99675	0.891
10.0299	0.922
10.063	0.931
10.0961	0.929
10.1293	0.934
10.1624	0.923
10.1955	0.903
10.2286	0.908
10.2618	0.911
10.2949	0.892
10.328	0.894
10.3612	0.919
10.3943	0.933
10.4274	0.935
10.4605	0.945
10.4937	0.95
10.5268	0.95
10.5599	0.949
10.5931	0.959
10.6262	0.958
10.6593	0.957
10.6924	0.957
10.7256	0.955
10.7587	0.954
10.7918	0.955
10.825	0.958
10.8581	0.959
10.8912	0.961
10.9243	0.959
10.9575	0.957
10.9906	0.95
11.0237	0.941
11.0569	0.921
11.09	0.856
11.1231	0.867
11.1562	0.919
11.1894	0.927
11.2225	0.943
11.2556	0.953
11.2887	0.958
11.3219	0.961
11.355	0.958
11.3881	0.957
11.4213	0.958
11.4544	0.959
11.4875	0.959
11.5206	0.959
11.5538	0.959
11.5869	0.957
11.62	0.953
11.6532	0.942
11.6863	0.937
11.7194	0.898
11.7525	0.89
11.7857	0.918
11.8188	0.926
11.8519	0.919
11.8851	0.91
11.9182	0.921
11.9513	0.926
11.9844	0.938
12.0176	0.943
12.0507	0.949
12.0838	0.951
12.117	0.953
12.1501	0.957
12.1832	0.955
12.2163	0.958
12.2495	0.961
12.2826	0.961
12.3157	0.958
12.3488	0.961
12.382	0.963
12.4151	0.963
12.4482	0.963
12.4814	0.961
12.5145	0.962
12.5476	0.957
12.5807	0.953
12.6139	0.954
12.647	0.959
12.6801	0.949
12.7133	0.943
12.7464	0.939
12.7795	0.935
12.8126	0.911
12.8458	0.884
12.8789	0.817
12.912	0.795
12.9452	0.804
12.9783	0.76
13.0114	0.673
13.0445	0.641
13.0777	0.68
13.1108	0.74
13.1439	0.734
13.1771	0.733
13.2102	0.763
13.2433	0.779
13.2764	0.781
13.3096	0.78
13.3427	0.771
13.3758	0.745
13.4089	0.693
13.4421	0.575
13.4752	0.475
13.5083	0.476
13.5415	0.601
13.5746	0.68
13.6077	0.767
13.6408	0.785
13.674	0.736
13.7071	0.68
13.7402	0.738
13.7734	0.799
13.8065	0.867
13.8396	0.892
13.8727	0.908
13.9059	0.918
13.939	0.922
13.9721	0.923
14.0053	0.923
14.0384	0.926
14.0715	0.927
14.1046	0.93
14.1378	0.923
14.1709	0.912
14.204	0.903
14.2372	0.89
14.2703	0.872
14.3034	0.851
14.3365	0.811
14.3697	0.738
14.4028	0.611
14.4359	0.524
14.469	0.507
14.5022	0.574
14.5353	0.673
14.5684	0.779
14.6016	0.872
14.6347	0.906
14.6678	0.927
14.7009	0.934
14.7341	0.934
14.7672	0.934
14.8003	0.938
14.8335	0.934
14.8666	0.921
14.8997	0.894
14.9328	0.882
14.966	0.923
14.9991	0.934
