Infrared Spectrum: Tri-n-butylamine, hydrochloride
Formula: C12 H28 Cl N
CAS: 6309-30-4
State: SOLID (NEAT, VERY HYGROSCOPIC)
Class: COBLENTZ III
Instrument: PERKIN-ELMER 157
Sampling: TRANSMISSION
Resolution: 2
Origin: BRITISH PETROLEUM CO. LTD., ENGLAND
1/CM	TRANSMITTANCE
668	0.7578
677	0.7566
686	0.7545
695	0.7525
704	0.751
713	0.7475
722	0.7081
731	0.5875
740	0.4627
749	0.5696
758	0.6319
767	0.7164
776	0.7176
785	0.69
794	0.6782
803	0.6881
812	0.7191
821	0.7508
830	0.7527
839	0.7451
848	0.7416
857	0.7388
866	0.7309
875	0.703
884	0.6736
893	0.6685
902	0.5846
911	0.612
920	0.5601
929	0.4978
938	0.5718
947	0.6509
956	0.6667
965	0.6506
974	0.6357
983	0.6384
992	0.6486
1001	0.6465
1010	0.6376
1019	0.6235
1028	0.5529
1037	0.5181
1046	0.6121
1055	0.5976
1064	0.5318
1073	0.5476
1082	0.6724
1091	0.6891
1100	0.5935
1109	0.5723
1118	0.693
1127	0.7006
1136	0.6739
1145	0.5968
1154	0.6194
1163	0.6328
1172	0.6724
1181	0.7081
1190	0.7114
1199	0.7045
1208	0.6965
1217	0.6542
1226	0.6402
1235	0.6432
1244	0.6511
1253	0.6481
1262	0.6334
1271	0.6329
1280	0.6438
1289	0.6428
1298	0.6106
1307	0.5889
1316	0.5798
1325	0.5767
1334	0.5681
1343	0.5266
1352	0.534
1361	0.5412
1370	0.45
1379	0.2906
1388	0.3555
1397	0.4298
1406	0.466
1415	0.4289
1424	0.387
1433	0.2788
1442	0.2231
1451	0.1444
1460	0.1054
1469	0.1107
1478	0.285
1487	0.4571
1496	0.5912
1505	0.6421
1514	0.6581
1523	0.679
1532	0.6893
1541	0.69
1550	0.6991
1559	0.6933
1568	0.6919
1577	0.6797
1586	0.6779
1595	0.6695
1604	0.6431
1613	0.6067
1622	0.5738
1631	0.5833
1640	0.5962
1649	0.6506
1658	0.6616
1667	0.6946
1676	0.7262
1685	0.7312
1694	0.7336
1703	0.7381
1712	0.7459
1721	0.7582
1730	0.7666
1739	0.768
1748	0.7681
1757	0.7679
1766	0.7669
1775	0.7659
1784	0.7645
1793	0.7632
1802	0.7618
1811	0.76
1820	0.7579
1829	0.7553
1838	0.7532
1847	0.7517
1856	0.7511
1865	0.7504
1874	0.7496
1883	0.7486
1892	0.7475
1901	0.7433
1910	0.7382
1919	0.7351
1928	0.7335
1937	0.7285
1946	0.7213
1955	0.7159
1964	0.71
1973	0.7072
1982	0.7
1991	0.6917
2000	0.6876
2009	0.6831
2018	0.6737
2027	0.663
2036	0.6563
2045	0.6425
2054	0.6288
2063	0.6171
2072	0.6089
2081	0.5969
2090	0.5876
2099	0.5812
2108	0.5751
2117	0.5648
2126	0.551
2135	0.5396
2144	0.5282
2153	0.5113
2162	0.4973
2171	0.4757
2180	0.4572
2189	0.4412
2198	0.4145
2207	0.3773
2216	0.3547
2225	0.3359
2234	0.3171
2243	0.3057
2252	0.2938
2261	0.2821
2270	0.2647
2279	0.2466
2288	0.227
2297	0.2123
2306	0.1968
2315	0.1797
2324	0.1621
2333	0.1451
2342	0.1268
2351	0.1213
2360	0.1204
2369	0.1199
2378	0.1189
2387	0.1177
2396	0.1132
2405	0.1034
2414	0.1005
2423	0.0988
2432	0.0979
2441	0.0971
2450	0.0966
2459	0.0965
2468	0.0964
2477	0.0967
2486	0.098
2495	0.0999
2504	0.1052
2513	0.1126
2522	0.1223
2531	0.1332
2540	0.1371
2549	0.1367
2558	0.1349
2567	0.1324
2576	0.131
2585	0.1313
2594	0.1354
2603	0.1438
2612	0.1515
2621	0.1664
2630	0.1867
2639	0.2068
2648	0.2211
2657	0.2241
2666	0.2264
2675	0.2295
2684	0.2351
2693	0.2442
2702	0.2636
2711	0.2876
2720	0.3096
2729	0.3244
2738	0.332
2747	0.335
2756	0.3369
2765	0.3379
2774	0.3376
2783	0.3357
2792	0.3207
2801	0.2843
2810	0.2482
2819	0.2122
2828	0.1766
2837	0.141
2846	0.1058
2855	0.083
2864	0.0801
2873	0.0727
2882	0.0556
2891	0.0439
2900	0.0403
2909	0.0389
2918	0.0384
2927	0.0389
2936	0.041
2945	0.0867
2954	0.1526
2963	0.2182
2972	0.2833
2981	0.3481
2990	0.4126
2999	0.4739
3008	0.5282
3017	0.5445
3026	0.56
3035	0.5812
3044	0.5965
3053	0.5999
3062	0.6007
3071	0.6004
3080	0.5997
3089	0.5987
3098	0.5966
3107	0.5924
3116	0.5854
3125	0.5777
3134	0.5703
3143	0.5634
3152	0.5565
3161	0.5495
3170	0.5425
3179	0.5354
3188	0.5281
3197	0.5207
3206	0.5135
3215	0.507
3224	0.4998
3233	0.4902
3242	0.4794
3251	0.466
3260	0.453
3269	0.4405
3278	0.4269
3287	0.4103
3296	0.3926
3305	0.3749
3314	0.3574
3323	0.34
3332	0.3227
3341	0.3055
3350	0.2899
3359	0.2825
3368	0.2783
3377	0.2767
3386	0.276
3395	0.2761
3404	0.2763
3413	0.2766
3422	0.2768
3431	0.2771
3440	0.2779
3449	0.2789
3458	0.2806
3467	0.3027
3476	0.3341
3485	0.3652
3494	0.3962
3503	0.427
3512	0.4576
3521	0.4881
3530	0.5185
3539	0.5487
3548	0.5788
3557	0.6086
3566	0.6384
3575	0.6679
3584	0.6974
3593	0.7267
3602	0.7481
3611	0.7492
3620	0.7498
3629	0.7511
3638	0.7537
3647	0.7625
3656	0.7691
3665	0.7711
3674	0.7719
3683	0.7723
3692	0.7727
3701	0.7728
3710	0.7728
3719	0.7728
3728	0.7726
3737	0.7724
3746	0.7723
3755	0.7721
3764	0.772
3773	0.7719
3782	0.7718
3791	0.7717
3800	0.7716
3809	0.7716
3818	0.7714
3827	0.7714
3836	0.7712
3845	0.7712
3854	0.771
3863	0.771
3872	0.7709
3881	0.7708
3890	0.7707
3899	0.7706
3908	0.7705
3917	0.7704
3926	0.7703
3935	0.7702
3944	0.7701
3953	0.77
3962	0.7699
3971	0.7698
3980	0.7698
3989	0.7697
3998	0.7696
