Infrared Spectrum: Isoamyl laurate
Formula: C 17 H 34 O 2
CAS: 6309-51-9
State: gas
Origin: EPA-IR VAPOR PHASE LIBRARY
1/CM	ABSORBANCE
501.5	0.0006401
513.074	0.0010122
524.648	0.001193
536.222	0.0007172
547.796	0.00071
559.37	0.0004968
570.944	0.0005268
582.518	0.0007462
594.092	0.0007857
605.666	0.0008984
617.24	0.0009728
628.814	0.0007871
640.388	0.0008915
651.962	0.0007201
663.536	0.0007537
675.11	0.0008284
686.684	0.00105
698.258	0.001783
709.832	0.002863
721.406	0.003643
732.98	0.003583
744.554	0.003183
756.128	0.002973
767.702	0.002793
779.276	0.002533
790.85	0.002373
802.423	0.002623
813.997	0.003023
825.571	0.002833
837.145	0.002343
848.719	0.002343
860.293	0.002633
871.867	0.002963
883.441	0.003113
895.015	0.003293
906.589	0.003723
918.163	0.004243
929.737	0.004753
941.311	0.005693
952.885	0.007923
964.459	0.011083
976.033	0.012853
987.607	0.012293
999.181	0.011563
1010.76	0.010253
1022.33	0.009203
1033.9	0.011083
1045.48	0.016613
1057.05	0.020523
1068.63	0.018823
1080.2	0.016193
1091.77	0.017163
1103.35	0.023763
1114.92	0.030723
1126.49	0.031503
1138.07	0.042593
1149.64	0.066903
1161.22	0.077833
1172.79	0.070223
1184.36	0.059763
1195.94	0.049573
1207.51	0.044843
1219.09	0.045583
1230.66	0.048123
1242.23	0.047563
1253.81	0.041033
1265.38	0.032023
1276.96	0.027383
1288.53	0.024023
1300.1	0.022063
1311.68	0.020983
1323.25	0.018943
1334.83	0.020583
1346.4	0.025293
1357.97	0.025273
1369.55	0.021343
1381.12	0.017883
1392.7	0.016033
1404.27	0.009713
1415.84	0.008553
1427.42	0.011733
1438.99	0.015563
1450.57	0.021593
1462.14	0.028743
1473.71	0.021983
1485.29	0.010903
1496.86	0.005773
1508.44	0.003683
1520.01	0.002683
1531.58	0.002163
1543.16	0.001833
1554.73	0.001603
1566.31	0.001533
1577.88	0.001463
1589.45	0.001413
1601.03	0.001413
1612.6	0.001423
1624.18	0.001433
1635.75	0.001533
1647.32	0.001733
1658.9	0.002043
1670.47	0.002493
1682.05	0.003343
1693.62	0.004933
1705.19	0.008413
1716.77	0.014033
1728.34	0.025963
1739.92	0.061413
1751.49	0.112683
1763.06	0.059173
1774.64	0.022263
1786.21	0.010843
1797.79	0.005973
1809.36	0.003673
1820.93	0.002513
1832.51	0.001873
1844.08	0.001543
1855.66	0.001333
1867.23	0.001243
1878.8	0.001153
1890.38	0.0009973
1901.95	0.0009675
1913.53	0.0009725
1925.1	0.0009544
1936.67	0.0009728
1948.25	0.000953
1959.82	0.0009885
1971.4	0.0010095
1982.97	0.0010083
1994.54	0.0009999
2006.12	0.0010122
2017.69	0.0010745
2029.27	0.0010836
2040.84	0.001094
2052.41	0.0010373
2063.99	0.0010302
2075.56	0.0009192
2087.14	0.000862
2098.71	0.0007808
2110.28	0.0007272
2121.86	0.0006909
2133.43	0.0006799
2145.01	0.0006629
2156.58	0.000676
2168.15	0.0006589
2179.73	0.0006487
2191.3	0.0006064
2202.88	0.0005838
2214.45	0.0005877
2226.02	0.0005512
2237.6	0.0005457
2249.17	0.0005823
2260.74	0.0006074
2272.32	0.0006393
2283.89	0.0006376
2295.47	0.0006949
2307.04	0.0006666
2318.61	0.0006741
2330.19	0.0006807
2341.76	0.0006674
2353.34	0.0006071
2364.91	0.0005922
2376.48	0.0006463
2388.06	0.0006684
2399.63	0.0006338
2411.21	0.0006727
2422.78	0.0006029
2434.35	0.0005812
2445.93	0.0005757
2457.5	0.000528
2469.08	0.0005056
2480.65	0.0005428
2492.22	0.0006373
2503.8	0.0006069
2515.37	0.0006974
2526.95	0.0007403
2538.52	0.0007832
2550.09	0.0008187
2561.67	0.0009354
2573.24	0.0010387
2584.82	0.001183
2596.39	0.001313
2607.96	0.001453
2619.54	0.001613
2631.11	0.001713
2642.69	0.001903
2654.26	0.002073
2665.83	0.002323
2677.41	0.002463
2688.98	0.002523
2700.56	0.002493
2712.13	0.002553
2723.7	0.002883
2735.28	0.003373
2746.85	0.003473
2758.43	0.003583
2770	0.004013
2781.57	0.004563
2793.15	0.005643
2804.72	0.007123
2816.3	0.009463
2827.87	0.013313
2839.44	0.020763
2851.02	0.042303
2862.59	0.079393
2874.17	0.075263
2885.74	0.066633
2897.31	0.066403
2908.89	0.094693
2920.46	0.151173
2932.04	0.223813
2943.61	0.183793
2955.18	0.136443
2966.76	0.144483
2978.33	0.082293
2989.91	0.038493
3001.48	0.020213
3013.05	0.011933
3024.63	0.008113
3036.2	0.006023
3047.78	0.004783
3059.35	0.003923
3070.92	0.003403
3082.5	0.002993
3094.07	0.002693
3105.65	0.002393
3117.22	0.002123
3128.79	0.001933
3140.37	0.001853
3151.94	0.001713
3163.52	0.001593
3175.09	0.001503
3186.66	0.001403
3198.24	0.001233
3209.81	0.0009657
3221.39	0.000749
3232.96	0.0005783
3244.53	0.000441
3256.11	0.0003203
3267.68	0.000276
3279.26	0.0002157
3290.83	0.0002341
3302.4	0.00016981
3313.98	0.000278
3325.55	0.0002928
3337.13	0.00024
3348.7	0.0003095
3360.27	0.0003718
3371.85	0.000312
3383.42	0.0002988
3395	0.0002986
3406.57	0.0002683
3418.14	0.0002293
3429.72	0.0002784
3441.29	0.0003011
3452.86	0.0003728
3464.44	0.000603
3476.01	0.0009644
3487.59	0.001153
3499.16	0.0006978
3510.73	0.0004572
3522.31	0.0002299
3533.88	0.00010426
3545.46	8.66e-05
3557.03	2.92e-05
3568.6	7.51e-05
3580.18	1.46e-05
3591.75	4.88e-05
3603.33	0.00014388
3614.9	0.00017106
3626.47	0.00021123
3638.05	0.0001803
3649.62	0.00018554
3661.2	0.00016707
3672.77	0.0002217
3684.34	0.00020728
3695.92	0.0002165
3707.49	0.00012737
3719.07	0.0002982
3730.64	0.00019223
3742.21	0.00017792
3753.79	0.0002397
3765.36	0.0002704
3776.94	0.0003398
3788.51	0.0002979
3800.08	0.0003183
3811.66	0.0003454
3823.23	0.000369
3834.81	0.0003985
3846.38	0.0003272
3857.95	0.0003977
3869.53	0.0003859
3881.1	0.000397
3892.68	0.0003257
3904.25	0.0003455
3915.82	0.0003244
3927.4	0.0003682
3938.97	0.0003812
3950.55	0.0004626
3962.12	0.0004584
3973.69	0.0005033
3985.27	0.0005463
3996.84	0.0005055
