Infrared Spectrum: Diethyl dibromomalonate
Formula: C 7 H 10 Br 2 O 4
CAS: 631-22-1
State: gas
Origin: EPA-IR VAPOR PHASE LIBRARY
1/CM	ABSORBANCE
501.5	0.0009062
513.074	0.0005916
524.648	0.0005095
536.222	0.0005963
547.796	0.0007464
559.37	0.0011166
570.944	0.0011187
582.518	0.0012797
594.092	0.0010666
605.666	0.0010638
617.24	0.0012249
628.814	0.001478
640.388	0.001898
651.962	0.001968
663.536	0.0013645
675.11	0.0012312
686.684	0.0011162
698.258	0.001246
709.832	0.001438
721.406	0.0013524
732.98	0.0010866
744.554	0.0009598
756.128	0.0011653
767.702	0.0012649
779.276	0.001508
790.85	0.0013528
802.423	0.0013394
813.997	0.0012301
825.571	0.0010783
837.145	0.0011755
848.719	0.001498
860.293	0.002478
871.867	0.002498
883.441	0.0012918
895.015	0.0009282
906.589	0.0008678
918.163	0.001109
929.737	0.001448
941.311	0.001638
952.885	0.001538
964.459	0.001428
976.033	0.0012692
987.607	0.001608
999.181	0.002318
1010.76	0.004388
1022.33	0.009198
1033.9	0.013698
1045.48	0.009918
1057.05	0.005098
1068.63	0.003398
1080.2	0.003758
1091.77	0.005618
1103.35	0.007678
1114.92	0.010168
1126.49	0.015978
1138.07	0.021418
1149.64	0.017058
1161.22	0.010848
1172.79	0.008788
1184.36	0.009218
1195.94	0.011588
1207.51	0.012488
1219.09	0.013628
1230.66	0.016538
1242.23	0.018498
1253.81	0.019408
1265.38	0.019368
1276.96	0.018358
1288.53	0.016578
1300.1	0.016408
1311.68	0.012828
1323.25	0.006758
1334.83	0.003688
1346.4	0.002528
1357.97	0.002738
1369.55	0.004708
1381.12	0.003498
1392.7	0.002478
1404.27	0.002208
1415.84	0.001818
1427.42	0.001728
1438.99	0.001918
1450.57	0.002198
1462.14	0.002468
1473.71	0.002718
1485.29	0.001868
1496.86	0.0011672
1508.44	0.000917
1520.01	0.0008066
1531.58	0.000757
1543.16	0.0007119
1554.73	0.0007445
1566.31	0.0006935
1577.88	0.0007332
1589.45	0.0007259
1601.03	0.0006769
1612.6	0.0006918
1624.18	0.0007387
1635.75	0.0006879
1647.32	0.0007526
1658.9	0.0008066
1670.47	0.0008905
1682.05	0.0010933
1693.62	0.001478
1705.19	0.002158
1716.77	0.003308
1728.34	0.005958
1739.92	0.013038
1751.49	0.026148
1763.06	0.028778
1774.64	0.017198
1786.21	0.013848
1797.79	0.006188
1809.36	0.002958
1820.93	0.001888
1832.51	0.0013088
1844.08	0.0010357
1855.66	0.000897
1867.23	0.0008057
1878.8	0.0008079
1890.38	0.0008678
1901.95	0.0007904
1913.53	0.0006769
1925.1	0.0006428
1936.67	0.0005456
1948.25	0.0005315
1959.82	0.0005305
1971.4	0.0005203
1982.97	0.0005096
1994.54	0.0005211
2006.12	0.0005346
2017.69	0.0005233
2029.27	0.0004944
2040.84	0.00047984
2052.41	0.00048764
2063.99	0.00048061
2075.56	0.0004971
2087.14	0.0005121
2098.71	0.000524
2110.28	0.000531
2121.86	0.00047327
2133.43	0.0005311
2145.01	0.0005363
2156.58	0.00048637
2168.15	0.00044635
2179.73	0.00043725
2191.3	0.0004164
2202.88	0.000392113
2214.45	0.0004474
2226.02	0.00042726
2237.6	0.00046707
2249.17	0.00040149
2260.74	0.00040329
2272.32	0.00038023
2283.89	0.0003513
2295.47	0.00039846
2307.04	0.00041898
2318.61	0.00040745
2330.19	0.00045908
2341.76	0.00040958
2353.34	0.000395125
2364.91	0.00041249
2376.48	0.0003761
2388.06	0.00040923
2399.63	0.00046618
2411.21	0.00040458
2422.78	0.000391351
2434.35	0.00041861
2445.93	0.00041488
2457.5	0.00039997
2469.08	0.00040728
2480.65	0.00038612
2492.22	0.0003581
2503.8	0.0003684
2515.37	0.0003265
2526.95	0.000287
2538.52	0.0003151
2550.09	0.0003471
2561.67	0.0003482
2573.24	0.000357
2584.82	0.0003294
2596.39	0.0003066
2607.96	0.000257
2619.54	0.0003075
2631.11	0.000283
2642.69	0.0002916
2654.26	0.000248
2665.83	0.000311
2677.41	0.0002912
2688.98	0.000261
2700.56	0.0002883
2712.13	0.0002916
2723.7	0.000274
2735.28	0.0003098
2746.85	0.00028
2758.43	0.0003505
2770	0.00041229
2781.57	0.00044133
2793.15	0.0003425
2804.72	0.00041381
2816.3	0.00043544
2827.87	0.00046197
2839.44	0.00044565
2851.02	0.0006189
2862.59	0.0006732
2874.17	0.001017
2885.74	0.001438
2897.31	0.001548
2908.89	0.001918
2920.46	0.002078
2932.04	0.002428
2943.61	0.003758
2955.18	0.003518
2966.76	0.003558
2978.33	0.005778
2989.91	0.007988
3001.48	0.005398
3013.05	0.003488
3024.63	0.001998
3036.2	0.0011131
3047.78	0.0008263
3059.35	0.0006596
3070.92	0.00045146
3082.5	0.000492
3094.07	0.00043364
3105.65	0.00047275
3117.22	0.0002971
3128.79	0.000381
3140.37	0.0003327
3151.94	0.000286
3163.52	0.000265
3175.09	0.000263
3186.66	0.000282
3198.24	0.000249
3209.81	0.000263
3221.39	0.000181
3232.96	0.000198
3244.53	0.000195
3256.11	0.000105
3267.68	0.000192
3279.26	0.000202
3290.83	9.5e-05
3302.4	0.000168
3313.98	0.000223
3325.55	0.000218
3337.13	0.000249
3348.7	0.000128
3360.27	0.000223
3371.85	0.00015
3383.42	0.000175
3395	0.000196
3406.57	0.000214
3418.14	0.000196
3429.72	0.000207
3441.29	0.00016
3452.86	0.000144
3464.44	0.0003167
3476.01	0.0003026
3487.59	0.00041342
3499.16	0.0003457
3510.73	0.00040299
3522.31	0.0003769
3533.88	0.0003155
3545.46	0.000193
3557.03	0.000208
3568.6	0.000257
3580.18	0.000229
3591.75	0.000201
3603.33	0.000255
3614.9	0.000163
3626.47	0.000109
3638.05	0.000143
3649.62	0.000194
3661.2	7.1e-05
3672.77	0.000147
3684.34	0.000209
3695.92	0.000175
3707.49	6.9e-05
3719.07	0.000136
3730.64	0.0002
3742.21	0.000186
3753.79	0.000183
3765.36	0.000195
3776.94	0.000147
3788.51	9.1e-05
3800.08	0.000218
3811.66	0.000274
3823.23	0.00026
3834.81	8.3e-05
3846.38	9.3e-05
3857.95	0.000133
3869.53	0.0002894
3881.1	6.4e-05
3892.68	0.000193
3904.25	0.000215
3915.82	9e-05
3927.4	0.000108
3938.97	0.000155
3950.55	3.2e-05
3962.12	0.000142
3973.69	0.000177
3985.27	0.000131
3996.84	0.000167
