Infrared Spectrum: TETRA-N-PROPYL-AMMONIUM IODIDE
Formula: C12 H28 I N
CAS: 631-40-3
State: SOLID (MINERAL OIL MULL)
Class: COBLENTZ
Instrument: Not specified, most likely a prism, grating, or hybrid spectrometer.
Sampling: TRANSMISSION
Resolution: 4
Origin: WYANDOTTE CHEMICALS CORP., WYANDOTTE, MICHIGAN, USA
MICROMETERS	TRANSMITTANCE
2.049	0.368
2.08892	0.368
2.12884	0.37
2.16876	0.32
2.20868	0.285
2.2486	0.285
2.28852	0.303
2.32844	0.298
2.36836	0.305
2.40828	0.331
2.4482	0.351
2.48812	0.375
2.52804	0.371
2.56796	0.383
2.60788	0.393
2.6478	0.41
2.68772	0.425
2.72764	0.435
2.76756	0.431
2.80748	0.428
2.8474	0.426
2.88732	0.418
2.92724	0.421
2.96716	0.411
3.00708	0.405
3.047	0.408
3.08692	0.386
3.12684	0.348
3.16676	0.34
3.20668	0.326
3.2466	0.265
3.28652	0.133
3.32644	0.023
3.36636	0.011
3.40628	0.013
3.4462	0.016
3.48612	0.025
3.52604	0.061
3.56597	0.271
3.60589	0.345
3.64581	0.388
3.68573	0.358
3.72565	0.43
3.76557	0.43
3.80549	0.45
3.84541	0.471
3.88533	0.506
3.92525	0.558
3.96517	0.596
4.00509	0.605
4.04501	0.623
4.08493	0.633
4.12485	0.635
4.16477	0.601
4.20469	0.608
4.24461	0.596
4.28453	0.593
4.32445	0.616
4.36437	0.641
4.40429	0.653
4.44421	0.663
4.48413	0.676
4.52405	0.668
4.56397	0.661
4.60389	0.673
4.64381	0.685
4.68373	0.695
4.72365	0.715
4.76357	0.738
4.80349	0.75
4.84341	0.753
4.88333	0.753
4.92325	0.76
4.96317	0.763
5.00309	0.765
5.04301	0.77
5.08293	0.775
5.12285	0.786
5.16277	0.79
5.20269	0.793
5.24261	0.795
5.28253	0.796
5.32245	0.81
5.36237	0.811
5.40229	0.816
5.44221	0.81
5.48213	0.81
5.52205	0.826
5.56197	0.813
5.60189	0.823
5.64181	0.811
5.68173	0.816
5.72165	0.806
5.76157	0.808
5.80149	0.791
5.84141	0.76
5.88133	0.776
5.92125	0.761
5.96117	0.763
6.00109	0.773
6.04101	0.78
6.08093	0.791
6.12085	0.79
6.16077	0.795
6.20069	0.795
6.24061	0.785
6.28053	0.77
6.32045	0.776
6.36037	0.76
6.40029	0.756
6.44021	0.731
6.48013	0.718
6.52005	0.676
6.55998	0.656
6.5999	0.6
6.63982	0.503
6.67974	0.291
6.71966	0.028
6.75958	0.026
6.7995	0.015
6.83942	0.011
6.87934	0.025
6.91926	0.04
6.95918	0.185
6.9991	0.325
7.03902	0.376
7.07894	0.326
7.11886	0.236
7.15878	0.093
7.1987	0.068
7.23862	0.031
7.27854	0.098
7.31846	0.17
7.35838	0.273
7.3983	0.366
7.43822	0.35
7.47814	0.195
7.51806	0.15
7.55798	0.213
7.5979	0.418
7.63782	0.473
7.67774	0.508
7.71766	0.481
7.75758	0.51
7.7975	0.375
7.83742	0.333
7.87734	0.438
7.91726	0.568
7.95718	0.635
7.9971	0.655
8.03702	0.67
8.07694	0.695
8.11686	0.701
8.15678	0.71
8.1967	0.71
8.23662	0.71
8.27654	0.716
8.31646	0.725
8.35638	0.698
8.3963	0.608
8.43622	0.62
8.47614	0.398
8.51606	0.266
8.55598	0.463
8.5959	0.605
8.63582	0.576
8.67574	0.67
8.71566	0.725
8.75558	0.715
8.7955	0.723
8.83542	0.775
8.87534	0.796
8.91526	0.803
8.95518	0.796
8.9951	0.706
9.03502	0.746
9.07494	0.808
9.11486	0.815
9.15478	0.815
9.1947	0.816
9.23462	0.813
9.27454	0.808
9.31446	0.798
9.35438	0.781
9.3943	0.756
9.43422	0.708
9.47414	0.611
9.51406	0.426
9.55399	0.183
9.59391	0.111
9.63383	0.195
9.67375	0.37
9.71367	0.54
9.75359	0.641
9.79351	0.67
9.83343	0.69
9.87335	0.68
9.91327	0.626
9.95319	0.561
9.99311	0.405
10.033	0.156
10.0729	0.04
10.1129	0.02
10.1528	0.02
10.1927	0.03
10.2326	0.061
10.2725	0.035
10.3125	0.028
10.3524	0.073
10.3923	0.231
10.4322	0.348
10.4721	0.44
10.5121	0.515
10.552	0.561
10.5919	0.588
10.6318	0.618
10.6717	0.635
10.7117	0.64
10.7516	0.651
10.7915	0.653
10.8314	0.593
10.8713	0.441
10.9113	0.493
10.9512	0.63
10.9911	0.728
11.031	0.761
11.071	0.766
11.1109	0.79
11.1508	0.796
11.1907	0.798
11.2306	0.793
11.2706	0.785
11.3105	0.7
11.3504	0.568
11.3903	0.595
11.4302	0.668
11.4702	0.591
11.5101	0.521
11.55	0.648
11.5899	0.725
11.6298	0.725
11.6698	0.623
11.7097	0.476
11.7496	0.405
11.7895	0.498
11.8294	0.65
11.8694	0.735
11.9093	0.78
11.9492	0.82
11.9891	0.848
12.029	0.868
12.069	0.893
12.1089	0.901
12.1488	0.911
12.1887	0.92
12.2286	0.925
12.2686	0.935
12.3085	0.94
12.3484	0.941
12.3883	0.946
12.4282	0.946
12.4682	0.95
12.5081	0.951
12.548	0.956
12.5879	0.96
12.6278	0.96
12.6678	0.956
12.7077	0.948
12.7476	0.93
12.7875	0.903
12.8274	0.883
12.8674	0.825
12.9073	0.8
12.9472	0.773
12.9871	0.72
13.027	0.651
13.067	0.52
13.1069	0.391
13.1468	0.21
13.1867	0.09
13.2266	0.038
13.2666	0.023
13.3065	0.023
13.3464	0.036
13.3863	0.078
13.4262	0.17
13.4662	0.281
13.5061	0.378
13.546	0.46
13.5859	0.518
13.6258	0.556
13.6658	0.588
13.7057	0.62
13.7456	0.64
13.7855	0.651
13.8254	0.655
13.8654	0.658
13.9053	0.685
13.9452	0.736
13.9851	0.786
14.025	0.838
14.065	0.87
14.1049	0.898
14.1448	0.921
14.1847	0.941
14.2246	0.948
14.2646	0.956
14.3045	0.966
14.3444	0.976
14.3843	0.978
14.4242	0.978
14.4642	0.983
14.5041	0.986
14.544	0.985
14.5839	0.981
14.6238	0.981
14.6638	0.981
14.7037	0.98
14.7436	0.978
14.7835	0.98
14.8234	0.976
14.8634	0.976
14.9033	0.973
14.9432	0.968
14.9831	0.946
15.023	0.888
15.063	0.855
15.1029	0.87
15.1428	0.898
15.1827	0.91
15.2226	0.911
15.2626	0.905
15.3025	0.898
15.3424	0.883
15.3823	0.868
15.4222	0.856
15.4622	0.848
15.5021	0.825
15.542	0.82
15.5819	0.816
15.6218	0.805
15.6618	0.788
15.7017	0.765
15.7416	0.746
15.7815	0.733
15.8214	0.708
15.8614	0.696
15.9013	0.68
15.9412	0.658
15.9811	0.645
16.021	0.646
