Infrared Spectrum: Ammonium acetate
Formula: C 2 H 7 N O 2
CAS: 631-61-8
State: solid
Instrument: Bruker Tensor 37 FTIR
Resolution: 0.96450084
Origin: Pacific Northwest National Laboratory Under IARPA Contract
1/cm	Reflectance
7498.99	0.27792
7481.63	0.271651
7464.27	0.258449
7446.91	0.240001
7429.55	0.239963
7412.19	0.243964
7394.84	0.235218
7377.48	0.222168
7360.12	0.224383
7342.76	0.229232
7325.4	0.234496
7308.04	0.242103
7290.68	0.244805
7273.32	0.252623
7255.96	0.252022
7238.6	0.251113
7221.24	0.250458
7203.88	0.251702
7186.52	0.246841
7169.16	0.247651
7151.8	0.250284
7134.44	0.253827
7117.08	0.255619
7099.72	0.258986
7082.36	0.259126
7065	0.257648
7047.64	0.251159
7030.28	0.248166
7012.92	0.242902
6995.56	0.236972
6978.2	0.231706
6960.84	0.221726
6943.48	0.214115
6926.12	0.204076
6908.76	0.188982
6891.4	0.169745
6874.04	0.147483
6856.68	0.130713
6839.32	0.11217
6821.96	0.0987698
6804.6	0.0889843
6787.24	0.0772152
6769.88	0.0678438
6752.52	0.060619
6735.16	0.0541595
6717.8	0.0473507
6700.44	0.0508431
6683.08	0.0503421
6665.72	0.0490662
6648.36	0.0473782
6631	0.0497442
6613.64	0.0519774
6596.28	0.0544635
6578.92	0.0572509
6561.56	0.0591324
6544.2	0.0600116
6526.85	0.0597794
6509.49	0.057551
6492.13	0.0546083
6474.77	0.052364
6457.41	0.0505505
6440.05	0.0477477
6422.69	0.0468737
6405.33	0.0456885
6387.97	0.04475
6370.61	0.044217
6353.25	0.0436608
6335.89	0.0430633
6318.53	0.0421453
6301.17	0.0415819
6283.81	0.0405937
6266.45	0.0391933
6249.09	0.0385519
6231.73	0.0365839
6214.37	0.0350236
6197.01	0.0346114
6179.65	0.0350491
6162.29	0.0349177
6144.93	0.0339861
6127.57	0.032903
6110.21	0.0320954
6092.85	0.0312953
6075.49	0.0307441
6058.13	0.030113
6040.77	0.0299699
6023.41	0.0297515
6006.05	0.0300147
5988.69	0.0297694
5971.33	0.0297463
5953.97	0.0297139
5936.61	0.0295707
5919.25	0.0294142
5901.89	0.0296392
5884.53	0.0300058
5867.17	0.030712
5849.81	0.0313441
5832.45	0.032604
5815.09	0.0341548
5797.73	0.0349187
5780.37	0.0349376
5763.01	0.0340478
5745.65	0.0331999
5728.29	0.0328789
5710.93	0.0351088
5693.57	0.0369852
5676.21	0.0377188
5658.86	0.0383036
5641.5	0.0375802
5624.14	0.0352381
5606.78	0.0336064
5589.42	0.0318674
5572.06	0.03046
5554.7	0.0294188
5537.34	0.028303
5519.98	0.0271522
5502.62	0.025942
5485.26	0.0253362
5467.9	0.0246386
5450.54	0.0241329
5433.18	0.023453
5415.82	0.0226894
5398.46	0.0226813
5381.1	0.0219723
5363.74	0.0218153
5346.38	0.0218068
5329.02	0.0214348
5311.66	0.0211479
5294.3	0.0216063
5276.94	0.0237012
5259.58	0.0253471
5242.22	0.0260433
5224.86	0.0259904
5207.5	0.0274881
5190.14	0.0309355
5172.78	0.0351192
5155.42	0.0379962
5138.06	0.0383059
5120.7	0.0370561
5103.34	0.0356069
5085.98	0.0344316
5068.62	0.0333724
5051.26	0.032522
5033.9	0.0318368
5016.54	0.0314446
4999.18	0.0306467
4981.82	0.0302014
4964.46	0.0297144
4947.1	0.0293198
4929.74	0.028885
4912.38	0.028345
4895.02	0.0277363
4877.66	0.0270631
4860.3	0.0276423
4842.94	0.0283113
4825.58	0.028081
4808.22	0.027483
4790.86	0.0266088
4773.51	0.0259325
4756.15	0.0258739
4738.79	0.0261688
4721.43	0.0269613
4704.07	0.0270873
4686.71	0.0260279
4669.35	0.0250062
4651.99	0.0240227
4634.63	0.0230373
4617.27	0.0214658
4599.91	0.020206
4582.55	0.0217958
4565.19	0.0846469
4547.83	0.100329
4530.47	0.0669521
4513.11	0.0389252
4495.75	0.0351862
4478.39	0.0310869
4461.03	0.0641706
4443.67	0.0487999
4426.31	0.0386092
4408.95	0.0362031
4391.59	0.0336065
4374.23	0.0317998
4356.87	0.0308422
4339.51	0.0297783
4322.15	0.0293163
4304.79	0.0277971
4287.43	0.0269467
4270.07	0.0266837
4252.71	0.0301442
4235.35	0.0276635
4217.99	0.0259938
4200.63	0.0270383
4183.27	0.0266945
4165.91	0.026971
4148.55	0.0264538
4131.19	0.0244838
4113.83	0.0232525
4096.47	0.0204816
4079.11	0.0499012
4061.75	0.0247783
4044.39	0.276084
4027.03	0.265538
4009.67	0.251927
3992.31	0.236955
3974.95	0.236739
3957.59	0.238003
3940.23	0.229956
3922.87	0.220762
3905.52	0.224903
3888.16	0.228531
3870.8	0.235822
3853.44	0.239349
3836.08	0.24604
3818.72	0.248123
3801.36	0.24578
3784	0.245892
3766.64	0.244564
3749.28	0.243107
3731.92	0.2414
3714.56	0.240246
3697.2	0.245124
3679.84	0.247901
3662.48	0.250314
3645.12	0.251203
3627.76	0.250056
3610.4	0.24582
3593.04	0.242485
3575.68	0.238669
3558.32	0.232568
3540.96	0.226695
3523.6	0.219618
3506.24	0.211293
3488.88	0.20417
3471.52	0.193812
3454.16	0.179428
3436.8	0.159297
3419.44	0.139424
3402.08	0.121192
3384.72	0.10726
3367.36	0.096287
3350	0.0829906
3332.64	0.0726205
3315.28	0.0630137
3297.92	0.056648
3280.56	0.0508995
3263.2	0.047468
3245.84	0.0499356
3228.48	0.0480908
3211.12	0.0467308
3193.76	0.0469938
3176.4	0.0489831
3159.04	0.0519449
3141.68	0.0546162
3124.32	0.0562969
3106.96	0.0581115
3089.6	0.0587432
3072.24	0.0577753
3054.88	0.0555214
3037.53	0.0528336
3020.17	0.0503021
3002.81	0.0486436
2985.45	0.0467396
2968.09	0.0449636
2950.73	0.044116
2933.37	0.0433503
2916.01	0.0427381
2898.65	0.0418207
2881.29	0.0409578
2863.93	0.0405832
2846.57	0.0398922
2829.21	0.0389448
2811.85	0.0378538
2794.49	0.0366076
2777.13	0.0348763
2759.77	0.0335664
2742.41	0.0339092
2725.05	0.0339057
2707.69	0.0334402
2690.33	0.0325007
2672.97	0.0317318
2655.61	0.030969
2638.25	0.0302198
2620.89	0.0297553
2603.53	0.0291646
2586.17	0.0291845
2568.81	0.0290251
2551.45	0.02896
2534.09	0.0288804
2516.73	0.0290478
2499.37	0.0288982
2482.01	0.0290512
2464.65	0.0288715
2447.29	0.0288581
2429.93	0.0294373
2412.57	0.0297893
2395.21	0.0304724
2377.85	0.0317154
2360.49	0.0332646
2343.13	0.0338965
2325.77	0.0338518
2308.41	0.0326267
2291.05	0.0317215
2273.69	0.0320162
2256.33	0.0349476
2238.97	0.0359899
2221.61	0.0365
2204.25	0.0368429
2186.89	0.0354819
2169.53	0.0330909
2152.18	0.0315374
2134.82	0.029679
2117.46	0.0284636
2100.1	0.0273527
2082.74	0.0262828
2065.38	0.0255664
2048.02	0.0246991
2030.66	0.024179
2013.3	0.0233639
1995.94	0.0229671
1978.58	0.0223738
1961.22	0.0220936
1943.86	0.0216007
1926.5	0.0209691
1909.14	0.0207522
1891.78	0.0210914
1874.42	0.0205915
1857.06	0.0205398
1839.7	0.0214656
1822.34	0.0235117
1804.98	0.0248149
1787.62	0.0251176
1770.26	0.025351
1752.9	0.0273605
1735.54	0.0308263
1718.18	0.0346974
1700.82	0.0366928
1683.46	0.0365497
1666.1	0.0351476
1648.74	0.0339195
1631.38	0.0326061
1614.02	0.031722
1596.66	0.0310244
1579.3	0.0304838
1561.94	0.0299345
1544.58	0.0293829
1527.22	0.0289645
1509.86	0.028398
1492.5	0.0280331
1475.14	0.0275115
1457.78	0.0269365
1440.42	0.0260916
1423.06	0.025657
1405.7	0.0269315
1388.34	0.0270486
1370.98	0.0263788
1353.62	0.0257279
1336.26	0.025178
1318.9	0.0245231
1301.54	0.0247065
1284.19	0.0250974
1266.83	0.0257096
1249.47	0.0253796
1232.11	0.0244646
1214.75	0.0233972
1197.39	0.0224237
1180.03	0.021407
1162.67	0.0198916
1145.31	0.0186186
1127.95	0.0252708
1110.59	0.0902051
1093.23	0.0852202
1075.87	0.0518631
1058.51	0.0327897
1041.15	0.0318461
1023.79	0.0268168
1006.43	0.0689981
989.068	0.0420766
971.709	0.0347944
954.349	0.0329395
936.989	0.03092
919.629	0.0294966
902.269	0.0283018
884.91	0.0273966
867.55	0.0266923
850.19	0.0253616
832.83	0.0242228
815.47	0.0239056
798.111	0.027008
780.751	0.025338
763.391	0.0234856
746.031	0.0246577
728.671	0.0245953
711.312	0.0245693
693.952	0.0236538
676.592	0.0221459
659.232	0.0206008
641.872	0.0175885
624.513	0.0287156
607.153	0.0253736
