Infrared Spectrum: TETRAETHYLSILANE
Formula: C8 H20 Si
CAS: 631-36-7
State: SOLID (BETWEEN SALTS)
Class: COBLENTZ
Instrument: BECKMAN IR-4 (HYBRID PRISM-GRATING)
Sampling: TRANSMISSION
Resolution: 4
Origin: PENINSULAR CHEMRESEARCH, INC., GAINESVILLE, FLORIDA
MICROMETERS	TRANSMITTANCE
2.02	0.826
2.05501	0.826
2.09003	0.829
2.12504	0.827
2.16005	0.832
2.19507	0.819
2.23008	0.816
2.26509	0.817
2.30011	0.829
2.33512	0.821
2.37013	0.83
2.40515	0.835
2.44016	0.832
2.47518	0.827
2.51019	0.817
2.5452	0.831
2.58022	0.841
2.61523	0.822
2.65024	0.831
2.68526	0.832
2.72027	0.83
2.75528	0.831
2.7903	0.835
2.82531	0.835
2.86032	0.831
2.89534	0.829
2.93035	0.835
2.96536	0.832
3.00038	0.835
3.03539	0.839
3.0704	0.831
3.10542	0.822
3.14043	0.817
3.17544	0.806
3.21046	0.796
3.24547	0.785
3.28048	0.733
3.3155	0.544
3.35051	0.307
3.38553	0.36
3.42054	0.374
3.45555	0.615
3.49057	0.745
3.52558	0.759
3.56059	0.836
3.59561	0.837
3.63062	0.842
3.66563	0.857
3.70065	0.864
3.73566	0.869
3.77067	0.871
3.80569	0.875
3.8407	0.879
3.87571	0.881
3.91073	0.882
3.94574	0.885
3.98075	0.89
4.01577	0.891
4.05078	0.884
4.08579	0.886
4.12081	0.887
4.15582	0.87
4.19084	0.87
4.22585	0.882
4.26086	0.89
4.29588	0.894
4.33089	0.895
4.3659	0.892
4.40092	0.892
4.43593	0.889
4.47094	0.89
4.50596	0.89
4.54097	0.891
4.57598	0.892
4.611	0.894
4.64601	0.895
4.68102	0.895
4.71604	0.892
4.75105	0.896
4.78606	0.894
4.82108	0.894
4.85609	0.892
4.8911	0.894
4.92612	0.891
4.96113	0.89
4.99615	0.897
5.03116	0.891
5.06617	0.897
5.10119	0.896
5.1362	0.902
5.17121	0.9
5.20623	0.907
5.24124	0.897
5.27625	0.901
5.31127	0.895
5.34628	0.906
5.38129	0.902
5.41631	0.906
5.45132	0.906
5.48633	0.903
5.52135	0.901
5.55636	0.897
5.59137	0.896
5.62639	0.903
5.6614	0.901
5.69641	0.899
5.73143	0.895
5.76644	0.885
5.80145	0.89
5.83647	0.89
5.87148	0.89
5.9065	0.895
5.94151	0.89
5.97652	0.887
6.01154	0.886
6.04655	0.892
6.08156	0.892
6.11658	0.891
6.15159	0.895
6.1866	0.894
6.22162	0.894
6.25663	0.896
6.29164	0.891
6.32666	0.891
6.36167	0.891
6.39668	0.892
6.4317	0.88
6.46671	0.879
6.50172	0.879
6.53674	0.87
6.57175	0.871
6.60676	0.872
6.64178	0.857
6.67679	0.827
6.71181	0.776
6.74682	0.624
6.78183	0.609
6.81685	0.675
6.85186	0.749
6.88687	0.801
6.92189	0.775
6.9569	0.735
6.99191	0.635
7.02693	0.659
7.06194	0.77
7.09695	0.83
7.13197	0.844
7.16698	0.83
7.20199	0.802
7.23701	0.854
7.27202	0.895
7.30703	0.908
7.34205	0.91
7.37706	0.913
7.41207	0.911
7.44709	0.915
7.4821	0.911
7.51712	0.908
7.55213	0.911
7.58714	0.908
7.62216	0.905
7.65717	0.907
7.69218	0.906
7.7272	0.899
7.76221	0.892
7.79722	0.89
7.83224	0.887
7.86725	0.882
7.90226	0.859
7.93728	0.825
7.97229	0.74
8.0073	0.642
8.04232	0.629
8.07733	0.705
8.11234	0.796
8.14736	0.861
8.18237	0.902
8.21738	0.931
8.2524	0.942
8.28741	0.945
8.32242	0.951
8.35744	0.955
8.39245	0.95
8.42747	0.96
8.46248	0.961
8.49749	0.947
8.53251	0.948
8.56752	0.943
8.60253	0.943
8.63755	0.947
8.67256	0.942
8.70757	0.946
8.74259	0.946
8.7776	0.935
8.81261	0.945
8.84763	0.923
8.88264	0.92
8.91765	0.91
8.95267	0.9
8.98768	0.899
9.02269	0.896
9.05771	0.89
9.09272	0.884
9.12773	0.859
9.16275	0.845
9.19776	0.807
9.23278	0.776
9.26779	0.755
9.3028	0.761
9.33782	0.765
9.37283	0.796
9.40784	0.82
9.44286	0.834
9.47787	0.842
9.51288	0.849
9.5479	0.855
9.58291	0.852
9.61792	0.842
9.65294	0.809
9.68795	0.758
9.72296	0.655
9.75798	0.468
9.79299	0.34
9.828	0.375
9.86302	0.408
9.89803	0.426
9.93304	0.418
9.96806	0.47
10.0031	0.63
10.0381	0.746
10.0731	0.788
10.1081	0.791
10.1431	0.784
10.1781	0.745
10.2132	0.698
10.2482	0.679
10.2832	0.711
10.3182	0.764
10.3532	0.812
10.3882	0.84
10.4232	0.856
10.4582	0.872
10.4933	0.891
10.5283	0.896
10.5633	0.894
10.5983	0.89
10.6333	0.892
10.6683	0.913
10.7033	0.935
10.7384	0.946
10.7734	0.955
10.8084	0.96
10.8434	0.963
10.8784	0.967
10.9134	0.968
10.9484	0.97
10.9834	0.971
11.0185	0.975
11.0535	0.973
11.0885	0.975
11.1235	0.976
11.1585	0.975
11.1935	0.975
11.2285	0.978
11.2636	0.977
11.2986	0.98
11.3336	0.985
11.3686	0.98
11.4036	0.981
11.4386	0.985
11.4736	0.987
11.5087	0.987
11.5437	0.982
11.5787	0.985
11.6137	0.986
11.6487	0.985
11.6837	0.987
11.7187	0.987
11.7537	0.982
11.7888	0.983
11.8238	0.985
11.8588	0.983
11.8938	0.986
11.9288	0.987
11.9638	0.992
11.9988	0.992
12.0339	0.986
12.0689	0.985
12.1039	0.982
12.1389	0.982
12.1739	0.978
12.2089	0.98
12.2439	0.978
12.2789	0.976
12.314	0.971
12.349	0.972
12.384	0.972
12.419	0.966
12.454	0.965
12.489	0.965
12.524	0.963
12.5591	0.957
12.5941	0.956
12.6291	0.955
12.6641	0.947
12.6991	0.943
12.7341	0.935
12.7691	0.932
12.8041	0.922
12.8392	0.918
12.8742	0.905
12.9092	0.892
12.9442	0.876
12.9792	0.857
13.0142	0.847
13.0492	0.825
13.0843	0.794
13.1193	0.76
13.1543	0.72
13.1893	0.673
13.2243	0.588
13.2593	0.506
13.2943	0.412
13.3294	0.295
13.3644	0.218
13.3994	0.178
13.4344	0.168
13.4694	0.169
13.5044	0.167
13.5394	0.157
13.5744	0.143
13.6095	0.14
13.6445	0.145
13.6795	0.144
13.7145	0.152
13.7495	0.175
13.7845	0.193
13.8195	0.224
13.8546	0.263
13.8896	0.294
13.9246	0.322
13.9596	0.371
13.9946	0.425
14.0296	0.476
14.0646	0.543
14.0996	0.6
14.1347	0.653
14.1697	0.694
14.2047	0.731
14.2397	0.751
14.2747	0.761
14.3097	0.779
14.3447	0.788
14.3798	0.789
14.4148	0.789
14.4498	0.789
14.4848	0.78
14.5198	0.776
14.5548	0.78
14.5898	0.784
14.6248	0.786
14.6599	0.79
14.6949	0.786
14.7299	0.775
14.7649	0.774
14.7999	0.766
14.8349	0.753
14.8699	0.729
14.905	0.713
14.94	0.688
14.975	0.678
15.01	0.68
