Infrared Spectrum: PROPANE, 2-METHYL-1,2,3-TRIBROMO-
Formula: C4 H7 Br3
CAS: 631-28-7
State: SOLUTION (10% CCl4 FOR 3800-1330, 10% CS2 FOR 1330-400)
Class: COBLENTZ III
Instrument: BECKMAN IR-9 (GRATING)
Instrument parameters: ORDER CHANGES: 670, 1200, 2000 CM^-^1
Sampling: TRANSMISSION
Path length: 0.011 CM, 0.011 CM
Resolution: 2
Origin: DOW CHEMICAL COMPANY
1/CM	TRANSMITTANCE
402	0.226
411	0.2541
420	0.4735
429	0.6406
438	0.7139
447	0.784
456	0.8403
465	0.8844
474	0.9125
483	0.9248
492	0.9364
501	0.9563
510	0.9703
519	0.9677
528	0.9048
537	0.6784
546	0.4649
555	0.6528
564	0.9268
573	0.9689
582	0.9831
591	0.9845
600	0.9799
609	0.942
618	0.8256
627	0.7964
636	0.7476
645	0.8139
654	0.8906
663	0.9103
672	0.7117
681	0.6328
690	0.8434
699	0.7428
708	0.9439
717	0.9738
726	0.9845
735	0.9891
744	0.9832
753	0.9382
762	0.8462
771	0.9704
780	0.9649
789	0.9131
798	0.8741
807	0.9285
816	0.9567
825	0.9558
834	0.9439
843	0.7983
852	0.7441
861	0.8125
870	0.8706
879	0.8533
888	0.9257
897	0.7672
906	0.9099
915	1.0015
924	1.0097
933	1.0105
942	1.0093
951	1.0005
960	0.8882
969	0.9901
978	1.009
987	1.0082
996	0.9973
1005	0.9692
1014	0.9552
1023	0.8516
1032	0.4181
1041	0.9321
1050	0.9605
1059	0.9648
1068	0.9473
1077	0.6749
1086	0.8934
1095	0.9374
1104	0.976
1113	0.9713
1122	0.9536
1131	0.8318
1140	0.7207
1149	0.9191
1158	0.9588
1167	0.9675
1176	0.9547
1185	0.8634
1194	0.7774
1203	0.9011
1212	0.9053
1221	0.7149
1230	0.8528
1239	0.8844
1248	0.8249
1257	0.86
1266	0.6241
1275	0.9408
1284	0.9908
1293	1.0071
1302	1.0113
1311	1.011
1320	1.0116
1329	0.957
1338	0.9607
1347	0.9589
1356	0.9548
1365	0.9434
1374	0.7921
1383	0.6825
1392	0.9306
1401	0.9405
1410	0.8217
1419	0.4133
1428	0.5629
1437	0.878
1446	0.6796
1455	0.7368
1464	0.9143
1473	0.9236
1482	0.9242
1491	0.9043
1500	0.8517
1509	0.7968
1518	0.7426
1527	0.6701
1536	0.5853
1545	0.515
1554	0.4964
1563	0.6033
1572	0.6567
1581	0.6701
1590	0.7436
1599	0.8525
1608	0.8968
1617	0.9217
1626	0.9343
1635	0.9406
1644	0.9442
1653	0.9474
1662	0.9503
1671	0.9528
1680	0.955
1689	0.9568
1698	0.9577
1707	0.9584
1716	0.9593
1725	0.9596
1734	0.958
1743	0.957
1752	0.9602
1761	0.9675
1770	0.9689
1779	0.9686
1788	0.9681
1797	0.9682
1806	0.9683
1815	0.9682
1824	0.9678
1833	0.9673
1842	0.965
1851	0.9628
1860	0.9617
1869	0.9656
1878	0.9684
1887	0.9711
1896	0.972
1905	0.9717
1914	0.9703
1923	0.9692
1932	0.9688
1941	0.9684
1950	0.969
1959	0.9697
1968	0.9702
1977	0.9701
1986	0.9683
1995	0.9418
2004	0.9654
2013	0.9696
2022	0.9718
2031	0.9733
2040	0.9737
2049	0.9738
2058	0.9738
2067	0.9736
2076	0.9734
2085	0.9732
2094	0.9733
2103	0.9734
2112	0.9734
2121	0.9738
2130	0.9744
2139	0.975
2148	0.9756
2157	0.9761
2166	0.9765
2175	0.9767
2184	0.977
2193	0.9773
2202	0.9773
2211	0.9771
2220	0.9768
2229	0.9761
2238	0.9748
2247	0.9728
2256	0.9683
2265	0.9618
2274	0.9563
2283	0.9542
2292	0.9538
2301	0.955
2310	0.9565
2319	0.958
2328	0.9606
2337	0.963
2346	0.9641
2355	0.9696
2364	0.9721
2373	0.9721
2382	0.9723
2391	0.9724
2400	0.9725
2409	0.9727
2418	0.9728
2427	0.9728
2436	0.973
2445	0.9731
2454	0.9732
2463	0.9733
2472	0.9734
2481	0.9735
2490	0.9737
2499	0.9738
2508	0.9739
2517	0.974
2526	0.9741
2535	0.9742
2544	0.9743
2553	0.9744
2562	0.9745
2571	0.9746
2580	0.9748
2589	0.9749
2598	0.975
2607	0.9751
2616	0.9752
2625	0.9753
2634	0.9758
2643	0.9759
2652	0.9759
2661	0.9756
2670	0.9753
2679	0.9749
2688	0.9746
2697	0.9739
2706	0.9732
2715	0.9725
2724	0.9718
2733	0.9712
2742	0.9717
2751	0.972
2760	0.9725
2769	0.9725
2778	0.9724
2787	0.9721
2796	0.9699
2805	0.9644
2814	0.9574
2823	0.9567
2832	0.9575
2841	0.9573
2850	0.9564
2859	0.9525
2868	0.9413
2877	0.9386
2886	0.9482
2895	0.9549
2904	0.9528
2913	0.945
2922	0.8902
2931	0.859
2940	0.9228
2949	0.8721
2958	0.8628
2967	0.8925
2976	0.8281
2985	0.8288
2994	0.8337
3003	0.8804
3012	0.9217
3021	0.9363
3030	0.9399
3039	0.9427
3048	0.9459
3057	0.9538
3066	0.9552
3075	0.9566
3084	0.9575
3093	0.958
3102	0.9585
3111	0.959
3120	0.9596
3129	0.96
3138	0.9605
3147	0.9609
3156	0.9613
3165	0.9617
3174	0.9621
3183	0.9625
3192	0.963
3201	0.9634
3210	0.9639
3219	0.9642
3228	0.9639
3237	0.9635
3246	0.9632
3255	0.9628
3264	0.9625
3273	0.9621
3282	0.9618
3291	0.9614
3300	0.9611
3309	0.9606
3318	0.9603
3327	0.9599
3336	0.9595
3345	0.9591
3354	0.9588
3363	0.9583
3372	0.958
3381	0.9577
3390	0.9577
3399	0.9577
3408	0.9577
3417	0.9577
3426	0.9578
3435	0.9578
3444	0.9578
3453	0.9578
3462	0.9581
3471	0.9584
3480	0.9587
3489	0.9589
3498	0.9592
3507	0.9595
3516	0.9598
3525	0.9601
3534	0.9609
3543	0.9616
3552	0.9623
3561	0.963
3570	0.9637
3579	0.9644
3588	0.9651
3597	0.9656
3606	0.9658
3615	0.966
3624	0.9662
3633	0.9664
3642	0.9666
3651	0.9665
3660	0.9661
3669	0.9656
3678	0.9653
3687	0.9648
3696	0.9648
3705	0.9651
3714	0.9654
3723	0.9657
3732	0.9661
3741	0.9667
3750	0.9675
3759	0.9683
3768	0.969
3777	0.97
3786	0.971
3795	0.972
