Infrared Spectrum: 2-Acetyl-5-chlorothiophene
Formula: C 6 H 5 Cl O S
CAS: 6310-09-4
State: gas
Origin: EPA-IR VAPOR PHASE LIBRARY
1/CM	ABSORBANCE
551.7	0.00318
563.274	0.00259
574.848	0.00332
586.421	0.008
597.995	0.01881
609.569	0.01664
621.143	0.00631
632.717	0.00307
644.291	0.00234
655.864	0.00284
667.438	0.00473
679.012	0.01258
690.586	0.00873
702.16	0.00252
713.734	0.00213
725.307	0.00214
736.881	0.00268
748.455	0.00269
760.029	0.00274
771.603	0.00639
783.177	0.01727
794.75	0.0308
806.324	0.02433
817.898	0.0105
829.472	0.00375
841.046	0.00218
852.619	0.00223
864.193	0.00216
875.767	0.00235
887.341	0.00263
898.915	0.00411
910.489	0.00931
922.062	0.01183
933.636	0.00641
945.21	0.00739
956.784	0.01135
968.358	0.00993
979.932	0.01122
991.505	0.02045
1003.08	0.03591
1014.65	0.0398
1026.23	0.02362
1037.8	0.01673
1049.37	0.0108
1060.95	0.00615
1072.52	0.0043
1084.1	0.00386
1095.67	0.00381
1107.24	0.00339
1118.82	0.00265
1130.39	0.00243
1141.97	0.00221
1153.54	0.00245
1165.11	0.00301
1176.69	0.00407
1188.26	0.00662
1199.83	0.00908
1211.41	0.01693
1222.98	0.03439
1234.56	0.0489
1246.13	0.04299
1257.7	0.07371
1269.28	0.06418
1280.85	0.01774
1292.42	0.00784
1304	0.00967
1315.57	0.027
1327.15	0.03305
1338.72	0.01364
1350.29	0.01993
1361.87	0.02992
1373.44	0.02379
1385.02	0.01707
1396.59	0.02668
1408.16	0.07946
1419.74	0.16783
1431.31	0.1101
1442.88	0.02379
1454.46	0.00896
1466.03	0.00683
1477.61	0.00619
1489.18	0.00575
1500.75	0.00626
1512.33	0.01033
1523.9	0.01409
1535.48	0.00985
1547.05	0.00706
1558.62	0.00687
1570.2	0.00643
1581.77	0.00551
1593.34	0.00474
1604.92	0.00439
1616.49	0.0048
1628.07	0.00549
1639.64	0.00677
1651.21	0.00977
1662.79	0.01833
1674.36	0.04572
1685.93	0.10472
1697.51	0.12421
1709.08	0.0552
1720.66	0.01363
1732.23	0.00653
1743.8	0.00574
1755.38	0.00571
1766.95	0.00461
1778.53	0.0035
1790.1	0.00306
1801.67	0.00263
1813.25	0.00255
1824.82	0.00302
1836.39	0.00327
1847.97	0.00284
1859.54	0.00261
1871.12	0.00242
1882.69	0.00194
1894.26	0.00167
1905.84	0.00163
1917.41	0.00165
1928.99	0.00165
1940.56	0.00185
1952.13	0.00191
1963.71	0.00173
1975.28	0.00151
1986.85	0.00148
1998.43	0.00147
2010	0.00142
2021.58	0.00136
2033.15	0.00129
2044.72	0.00119
2056.3	0.00113
2067.87	0.0011
2079.44	0.00106
2091.02	0.0011
2102.59	0.00118
2114.17	0.00109
2125.74	0.00099
2137.31	0.0009968
2148.89	0.0009596
2160.46	0.0009115
2172.04	0.0008645
2183.61	0.0008815
2195.18	0.0008946
2206.76	0.0008951
2218.33	0.0008854
2229.9	0.000853
2241.48	0.0008324
2253.05	0.000843
2264.63	0.0009459
2276.2	0.00109
2287.77	0.0011
2299.35	0.00106
2310.92	0.00101
2322.5	0.0009747
2334.07	0.00103
2345.64	0.00109
2357.22	0.00108
2368.79	0.00103
2380.36	0.00109
2391.94	0.00111
2403.51	0.00112
2415.09	0.00113
2426.66	0.00116
2438.23	0.00117
2449.81	0.0012
2461.38	0.00119
2472.96	0.00111
2484.53	0.00105
2496.1	0.00101
2507.68	0.0009603
2519.25	0.0009585
2530.82	0.0009557
2542.4	0.0009371
2553.97	0.001
2565.55	0.0009824
2577.12	0.0009859
2588.69	0.00103
2600.27	0.00107
2611.84	0.00111
2623.41	0.00111
2634.99	0.00111
2646.56	0.00118
2658.14	0.00117
2669.71	0.00122
2681.28	0.00144
2692.86	0.00141
2704.43	0.00117
2716.01	0.00106
2727.58	0.00109
2739.15	0.00108
2750.73	0.0009707
2762.3	0.0009311
2773.87	0.00103
2785.45	0.00111
2797.02	0.00108
2808.6	0.00104
2820.17	0.00116
2831.74	0.00134
2843.32	0.00143
2854.89	0.00133
2866.47	0.00121
2878.04	0.00126
2889.61	0.00134
2901.19	0.00164
2912.76	0.00201
2924.33	0.00269
2935.91	0.00304
2947.48	0.00264
2959.06	0.00245
2970.63	0.0027
2982.2	0.00272
2993.78	0.00268
3005.35	0.00357
3016.92	0.00462
3028.5	0.00364
3040.07	0.00287
3051.65	0.00268
3063.22	0.00264
3074.79	0.00302
3086.37	0.0039
3097.94	0.00352
3109.52	0.00243
3121.09	0.00178
3132.66	0.00137
3144.24	0.00117
3155.81	0.00108
3167.38	0.00104
3178.96	0.0009714
3190.53	0.0009313
3202.11	0.0009309
3213.68	0.0009872
3225.25	0.0009661
3236.83	0.0009607
3248.4	0.0008909
3259.98	0.0008829
3271.55	0.0009266
3283.12	0.0009705
3294.7	0.0009042
3306.27	0.0009813
3317.84	0.00106
3329.42	0.00132
3340.99	0.00177
3352.57	0.00239
3364.14	0.00265
3375.71	0.00261
3387.29	0.00212
3398.86	0.00139
3410.43	0.00113
3422.01	0.00104
3433.58	0.001
3445.16	0.00104
3456.73	0.00102
3468.3	0.00104
3479.88	0.0011
3491.45	0.00103
3503.03	0.00107
3514.6	0.00105
3526.17	0.0008947
3537.75	0.0009745
3549.32	0.00092
3560.89	0.0009622
3572.47	0.00103
3584.04	0.0009663
3595.62	0.00102
3607.19	0.0009602
3618.76	0.0008981
3630.34	0.0008833
3641.91	0.0009032
3653.49	0.0008964
3665.06	0.0009323
3676.63	0.0009951
3688.21	0.0009565
3699.78	0.0008538
3711.35	0.0009148
3722.93	0.0008558
3734.5	0.0008155
3746.08	0.0008478
3757.65	0.0008529
3769.22	0.0008523
3780.8	0.0009534
3792.37	0.0009669
3803.94	0.0009783
3815.52	0.00102
3827.09	0.00109
3838.67	0.00117
3850.24	0.00111
3861.81	0.0009727
3873.39	0.0009118
3884.96	0.0009443
3896.54	0.00095
3908.11	0.000936
3919.68	0.0009521
3931.26	0.0009165
3942.83	0.000934
3954.4	0.0011
3965.98	0.0008495
3977.55	0.00104
3989.13	0.0009469
4000.7	0.00101
