Infrared Spectrum: Aniline, 2-tert-butyl-
Formula: C10 H15 N
CAS: 6310-21-0
State: LIQUID (NEAT)
Class: COBLENTZ III
Instrument: BECKMAN IR-4 (HYBRID PRISM-GRATING)
Instrument parameters: NaCl PRISM
Sampling: TRANSMISSION
Path length: CAPILLARY
Resolution: 2
Origin: MONSANTO (J. FREEMAN)
1/CM	TRANSMITTANCE
4000	0.8814
3991	0.882
3982	0.8825
3973	0.8832
3964	0.8838
3955	0.8845
3946	0.8851
3937	0.8858
3928	0.8865
3919	0.8874
3910	0.8882
3901	0.8891
3892	0.89
3883	0.8908
3874	0.8916
3865	0.8928
3856	0.8942
3847	0.8954
3838	0.8959
3829	0.8962
3820	0.8964
3811	0.896
3802	0.8956
3793	0.8952
3784	0.8949
3775	0.8944
3766	0.8936
3757	0.8928
3748	0.892
3739	0.8912
3730	0.8904
3721	0.8896
3712	0.8886
3703	0.8875
3694	0.8864
3685	0.8854
3676	0.8843
3667	0.883
3658	0.8818
3649	0.8806
3640	0.8793
3631	0.8778
3622	0.8764
3613	0.8748
3604	0.8728
3595	0.8699
3586	0.8663
3577	0.8601
3568	0.8362
3559	0.806
3550	0.7855
3541	0.7121
3532	0.6247
3523	0.5367
3514	0.5033
3505	0.5162
3496	0.539
3487	0.5621
3478	0.5853
3469	0.6086
3460	0.632
3451	0.6555
3442	0.6755
3433	0.664
3424	0.5669
3415	0.4694
3406	0.421
3397	0.4208
3388	0.4544
3379	0.4965
3370	0.5389
3361	0.5815
3352	0.6243
3343	0.6672
3334	0.7106
3325	0.7506
3316	0.7674
3307	0.783
3298	0.7987
3289	0.8145
3280	0.8303
3271	0.8375
3262	0.8351
3253	0.824
3244	0.8128
3235	0.8043
3226	0.8021
3217	0.8121
3208	0.8218
3199	0.8314
3190	0.8411
3181	0.8509
3172	0.8598
3163	0.8611
3154	0.8607
3145	0.8594
3136	0.8524
3127	0.8377
3118	0.7876
3109	0.7294
3100	0.6708
3091	0.6119
3082	0.5714
3073	0.5645
3064	0.5608
3055	0.5544
3046	0.51
3037	0.4405
3028	0.3707
3019	0.3003
3010	0.2296
3001	0.1879
2992	0.189
2983	0.1985
2974	0.2493
2965	0.302
2956	0.3145
2947	0.3254
2938	0.3368
2929	0.3584
2920	0.3873
2911	0.4018
2902	0.4199
2893	0.4395
2884	0.5094
2875	0.5866
2866	0.6643
2857	0.7424
2848	0.8161
2839	0.8442
2830	0.8599
2821	0.8771
2812	0.8911
2803	0.8984
2794	0.9028
2785	0.9034
2776	0.9036
2767	0.904
2758	0.9045
2749	0.9056
2740	0.9086
2731	0.9177
2722	0.9271
2713	0.9332
2704	0.9364
2695	0.9381
2686	0.938
2677	0.9358
2668	0.9335
2659	0.9307
2650	0.9278
2641	0.9255
2632	0.9233
2623	0.9221
2614	0.9247
2605	0.9312
2596	0.9349
2587	0.9364
2578	0.9349
2569	0.9335
2560	0.9363
2551	0.9401
2542	0.9455
2533	0.9478
2524	0.9496
2515	0.9514
2506	0.9515
2497	0.9513
2488	0.9513
2479	0.9515
2470	0.9517
2461	0.9518
2452	0.9532
2443	0.9542
2434	0.9542
2425	0.9537
2416	0.9528
2407	0.9528
2398	0.953
2389	0.9533
2380	0.9533
2371	0.9532
2362	0.9521
2353	0.9509
2344	0.9498
2335	0.9488
2326	0.948
2317	0.9485
2308	0.9511
2299	0.9528
2290	0.9544
2281	0.9549
2272	0.9552
2263	0.9555
2254	0.956
2245	0.9565
2236	0.9571
2227	0.9577
2218	0.9578
2209	0.9586
2200	0.9546
2191	0.9508
2182	0.9514
2173	0.9527
2164	0.9543
2155	0.956
2146	0.957
2137	0.9555
2128	0.9528
2119	0.9501
2110	0.9481
2101	0.9494
2092	0.951
2083	0.952
2074	0.9525
2065	0.9533
2056	0.9532
2047	0.9528
2038	0.9525
2029	0.9518
2020	0.9512
2011	0.9503
2002	0.9493
1993	0.9487
1984	0.948
1975	0.9468
1966	0.9432
1957	0.9343
1948	0.9162
1939	0.8965
1930	0.8878
1921	0.888
1912	0.8807
1903	0.8588
1894	0.8715
1885	0.8903
1876	0.9032
1867	0.9097
1858	0.9145
1849	0.9189
1840	0.9218
1831	0.9149
1822	0.9039
1813	0.9047
1804	0.9014
1795	0.8935
1786	0.9
1777	0.9186
1768	0.9348
1759	0.9421
1750	0.9425
1741	0.9397
1732	0.9331
1723	0.9106
1714	0.8849
1705	0.8643
1696	0.8375
1687	0.8124
1678	0.7801
1669	0.739
1660	0.5647
1651	0.4445
1642	0.2818
1633	0.1625
1624	0.2175
1615	0.328
1606	0.4396
1597	0.5526
1588	0.496
1579	0.5187
1570	0.6917
1561	0.79
1552	0.7846
1543	0.7562
1534	0.7078
1525	0.6446
1516	0.3191
1507	0.1854
1498	0.2718
1489	0.3324
1480	0.4244
1471	0.4603
1462	0.3026
1453	0.1732
1444	0.3934
1435	0.6181
1426	0.6858
1417	0.7353
1408	0.6057
1399	0.6462
1390	0.791
1381	0.5414
1372	0.4434
1363	0.764
1354	0.8498
1345	0.859
1336	0.8448
1327	0.7484
1318	0.4972
1309	0.2424
1300	0.3588
1291	0.6319
1282	0.7349
1273	0.5674
1264	0.2819
1255	0.2959
1246	0.4508
1237	0.6029
1228	0.7574
1219	0.8058
1210	0.7524
1201	0.5459
1192	0.7515
1183	0.8243
1174	0.808
1165	0.6307
1156	0.7165
1147	0.5424
1138	0.7587
1129	0.8157
1120	0.8101
1111	0.6845
1102	0.5348
1093	0.7325
1084	0.7771
1075	0.6112
1066	0.5178
1057	0.6124
1048	0.6794
1039	0.6826
1030	0.7615
1021	0.7672
1012	0.8164
1003	0.8475
994	0.8485
985	0.8457
976	0.8394
967	0.823
958	0.8142
949	0.8075
940	0.7342
931	0.5984
922	0.774
913	0.8149
904	0.8128
895	0.806
886	0.7943
877	0.773
868	0.7375
859	0.6251
850	0.5837
841	0.724
832	0.7382
823	0.7265
814	0.6965
805	0.6098
796	0.6369
787	0.6095
778	0.5501
769	0.4515
760	0.2488
751	0.1198
742	0.1667
733	0.4384
724	0.5302
715	0.5389
706	0.5257
697	0.5053
688	0.4835
679	0.453
670	0.4457
661	0.437
652	0.4388
643	0.4431
634	0.4658
