Infrared Spectrum: Hypoxanthine, 2-(1-aziridinyl)-9-benzyl-
Formula: C14 H13 N5 O
CAS: 6311-27-9
State: SOLID (0.6 mg / 650 mg KBr DISC)
Class: COBLENTZ III
Instrument: PERKIN-ELMER 21 (GRATING)
Instrument parameters: FILTER CHANGE ABOUT 980 CM^-^1
Resolution: 2
Origin: SOUTHERN RESEARCH INSTITUTE
1/CM	TRANSMITTANCE
582.048	0.8183
590.083	0.8294
598.118	0.8335
606.154	0.8302
614.189	0.8223
622.224	0.7962
630.259	0.7595
638.295	0.7384
646.33	0.734
654.365	0.7089
662.4	0.683
670.435	0.6512
678.471	0.6096
686.506	0.5201
694.541	0.4976
702.576	0.5469
710.612	0.4856
718.647	0.4057
726.682	0.5098
734.717	0.4987
742.752	0.6379
750.788	0.7258
758.823	0.7238
766.858	0.7041
774.893	0.4603
782.929	0.7815
790.964	0.7597
798.999	0.7667
807.034	0.771
815.069	0.7567
823.105	0.7374
831.14	0.7614
839.175	0.7646
847.21	0.7575
855.246	0.7675
863.281	0.7766
871.316	0.7813
879.351	0.7849
887.386	0.7878
895.422	0.7896
903.457	0.7915
911.492	0.7931
919.527	0.7914
927.563	0.7866
935.598	0.7799
943.633	0.7716
951.668	0.759
959.703	0.7336
967.739	0.743
975.774	0.7246
983.809	0.7659
991.844	0.7306
999.88	0.7497
1007.91	0.7484
1015.95	0.7399
1023.99	0.714
1032.02	0.6889
1040.06	0.7034
1048.09	0.6981
1056.13	0.6728
1064.16	0.5746
1072.2	0.4871
1080.23	0.5165
1088.27	0.7157
1096.3	0.6998
1104.34	0.6856
1112.37	0.724
1120.41	0.7106
1128.44	0.6975
1136.48	0.7001
1144.51	0.7009
1152.55	0.6892
1160.58	0.6658
1168.62	0.6375
1176.65	0.6276
1184.69	0.5886
1192.72	0.603
1200.76	0.5766
1208.8	0.4732
1216.83	0.3548
1224.87	0.6111
1232.9	0.6301
1240.94	0.5916
1248.97	0.5193
1257.01	0.4136
1265.04	0.2671
1273.08	0.5179
1281.11	0.5652
1289.15	0.547
1297.18	0.6261
1305.22	0.5822
1313.25	0.5556
1321.29	0.6304
1329.32	0.6271
1337.36	0.5272
1345.39	0.4412
1353.43	0.5768
1361.46	0.6392
1369.5	0.6322
1377.53	0.6139
1385.57	0.5803
1393.61	0.5206
1401.64	0.6074
1409.68	0.5716
1417.71	0.5587
1425.75	0.6127
1433.78	0.5283
1441.82	0.5566
1449.85	0.3395
1457.89	0.5972
1465.92	0.5685
1473.96	0.5177
1481.99	0.4861
1490.03	0.4955
1498.06	0.566
1506.1	0.4975
1514.13	0.4213
1522.17	0.315
1530.2	0.1897
1538.24	0.1684
1546.27	0.2251
1554.31	0.4425
1562.34	0.5245
1570.38	0.4773
1578.42	0.3583
1586.45	0.2665
1594.49	0.1078
1602.52	0.1608
1610.56	0.2881
1618.59	0.4027
1626.63	0.4431
1634.66	0.4594
1642.7	0.4556
1650.73	0.4422
1658.77	0.4261
1666.8	0.3769
1674.84	0.2606
1682.87	0.1605
1690.91	0.1094
1698.94	0.2932
1706.98	0.4502
1715.01	0.5404
1723.05	0.5762
1731.08	0.6717
1739.12	0.7012
1747.16	0.7636
1755.19	0.8041
1763.23	0.8133
1771.26	0.8259
1779.3	0.8417
1787.33	0.8461
1795.37	0.8474
1803.4	0.8495
1811.44	0.8479
1819.47	0.8476
1827.51	0.8467
1835.54	0.8462
1843.58	0.8457
1851.61	0.8448
1859.65	0.845
1867.68	0.8455
1875.72	0.8456
1883.75	0.8447
1891.79	0.8428
1899.82	0.841
1907.86	0.839
1915.89	0.8367
1923.93	0.8346
1931.97	0.8326
1940	0.8303
1948.04	0.8252
1956.07	0.8217
1964.11	0.8208
1972.14	0.8201
1980.18	0.8191
1988.21	0.8178
1996.25	0.8166
2004.28	0.8148
2012.32	0.8125
2020.35	0.8101
2028.39	0.8077
2036.42	0.8055
2044.46	0.8041
2052.49	0.8028
2060.53	0.8016
2068.56	0.801
2076.6	0.8007
2084.63	0.8002
2092.67	0.799
2100.7	0.7982
2108.74	0.7965
2116.78	0.7938
2124.81	0.7913
2132.85	0.7888
2140.88	0.7863
2148.92	0.784
2156.95	0.7825
2164.99	0.7812
2173.02	0.7802
2181.06	0.7792
2189.09	0.7792
2197.13	0.7794
2205.16	0.7789
2213.2	0.7783
2221.23	0.7756
2229.27	0.7725
2237.3	0.7716
2245.34	0.7708
2253.37	0.7694
2261.41	0.768
2269.44	0.7664
2277.48	0.7644
2285.51	0.7624
2293.55	0.7601
2301.59	0.7578
2309.62	0.7555
2317.66	0.7535
2325.69	0.7516
2333.73	0.7498
2341.76	0.7479
2349.8	0.7462
2357.83	0.7444
2365.87	0.7427
2373.9	0.7409
2381.94	0.7399
2389.97	0.7389
2398.01	0.7379
2406.04	0.7371
2414.08	0.7364
2422.11	0.7358
2430.15	0.7349
2438.18	0.7337
2446.22	0.7329
2454.25	0.7316
2462.29	0.73
2470.32	0.7278
2478.36	0.7165
2486.4	0.7223
2494.43	0.7247
2502.47	0.7221
2510.5	0.7194
2518.54	0.7163
2526.57	0.7132
2534.61	0.7113
2542.64	0.7106
2550.68	0.7108
2558.71	0.7107
2566.75	0.7086
2574.78	0.7047
2582.82	0.7038
2590.85	0.7047
2598.89	0.705
2606.92	0.7031
2614.96	0.7005
2622.99	0.6971
2631.03	0.6939
2639.06	0.691
2647.1	0.6874
2655.14	0.6834
2663.17	0.6788
2671.21	0.6741
2679.24	0.6687
2687.28	0.6631
2695.31	0.6574
2703.35	0.6495
2711.38	0.6409
2719.42	0.6316
2727.45	0.6281
2735.49	0.6303
2743.52	0.633
2751.56	0.6359
2759.59	0.6373
2767.63	0.637
2775.66	0.6344
2783.7	0.63
2791.73	0.6244
2799.77	0.6159
2807.8	0.6057
2815.84	0.593
2823.87	0.58
2831.91	0.5706
2839.95	0.5719
2847.98	0.5746
2856.02	0.5786
2864.05	0.5825
2872.09	0.5826
2880.12	0.5783
2888.16	0.5691
2896.19	0.5554
2904.23	0.5389
2912.26	0.5352
2920.3	0.5392
2928.33	0.5451
2936.37	0.5503
2944.4	0.5514
2952.44	0.5445
2960.47	0.5358
2968.51	0.5261
2976.54	0.5185
2984.58	0.5146
2992.61	0.4829
3000.65	0.4729
3008.68	0.473
3016.72	0.4831
3024.76	0.4958
3032.79	0.5061
3040.83	0.5163
3048.86	0.5121
3056.9	0.5013
3064.93	0.4882
3072.97	0.4746
3081	0.4607
3089.04	0.4468
3097.07	0.4328
3105.11	0.4205
3113.14	0.4096
3121.18	0.3964
3129.21	0.3822
3137.25	0.3929
3145.28	0.3925
3153.32	0.3971
3161.35	0.4072
3169.39	0.4176
3177.42	0.4354
3185.46	0.4573
3193.49	0.4713
3201.53	0.4804
3209.57	0.4857
3217.6	0.4891
3225.64	0.4927
3233.67	0.5038
3241.71	0.5179
3249.74	0.5362
3257.78	0.5513
3265.81	0.5639
3273.85	0.5735
3281.88	0.5802
3289.92	0.5892
3297.95	0.6011
3305.99	0.6122
3314.02	0.6194
3322.06	0.6254
3330.09	0.6275
3338.13	0.6284
3346.16	0.6281
3354.2	0.6253
3362.23	0.6215
3370.27	0.6174
3378.3	0.6135
3386.34	0.6096
3394.38	0.6057
3402.41	0.6026
3410.45	0.5996
3418.48	0.5975
3426.52	0.5957
3434.55	0.5943
3442.59	0.5938
3450.62	0.5938
3458.66	0.594
3466.69	0.5957
3474.73	0.5974
3482.76	0.5992
3490.8	0.5997
3498.83	0.6011
3506.87	0.6038
3514.9	0.6072
3522.94	0.6115
3530.97	0.6159
3539.01	0.6211
3547.04	0.6269
3555.08	0.6326
3563.12	0.6379
3571.15	0.6428
3579.19	0.6464
3587.22	0.6498
3595.26	0.654
3603.29	0.6595
3611.33	0.6649
3619.36	0.6696
3627.4	0.6733
3635.43	0.6754
3643.47	0.6768
3651.5	0.6775
3659.54	0.6773
3667.57	0.6743
3675.61	0.675
3683.64	0.6753
3691.68	0.6761
3699.71	0.6765
3707.75	0.6754
3715.78	0.6682
3723.82	0.667
3731.85	0.6671
3739.89	0.6669
3747.93	0.6668
3755.96	0.6666
3764	0.6665
