Infrared Spectrum: ADENINE, N,N-BIS(2-HYDROXYETHYL)-
Formula: C9 H13 N5 O2
CAS: 6312-66-9
State: SOLID (1.0 mg / 650 mg KBr DISC)
Class: COBLENTZ III
Instrument: PERKIN-ELMER 221 (GRATING)
Instrument parameters: FILTER AT 2490, 980 CM^-^1. GRATING 4000-1428 CM^-^1, NaCl PRISM 1428-650 CM^-^1
Sampling: TRANSMISSION
Resolution: 2
Origin: SOUTHERN RESEARCH INSTITUTE
1/CM	TRANSMITTANCE
631.042	0.609
640.26	0.5886
649.478	0.5349
658.696	0.5731
667.914	0.6187
677.132	0.6207
686.351	0.5739
695.569	0.6929
704.787	0.7241
714.005	0.7039
723.223	0.6877
732.441	0.6882
741.659	0.6953
750.877	0.7121
760.095	0.714
769.313	0.6961
778.531	0.6597
787.75	0.5718
796.968	0.525
806.186	0.6937
815.404	0.6874
824.622	0.675
833.84	0.6461
843.058	0.6088
852.276	0.5121
861.494	0.506
870.712	0.6178
879.93	0.657
889.149	0.653
898.367	0.657
907.585	0.6256
916.803	0.6878
926.021	0.6666
935.239	0.5924
944.457	0.6534
953.675	0.5817
962.893	0.5192
972.111	0.7076
981.33	0.712
990.548	0.7048
999.766	0.6941
1008.98	0.6628
1018.2	0.625
1027.42	0.5573
1036.64	0.4721
1045.86	0.3412
1055.07	0.2737
1064.29	0.458
1073.51	0.6212
1082.73	0.7142
1091.95	0.748
1101.16	0.7426
1110.38	0.7158
1119.6	0.6826
1128.82	0.6525
1138.04	0.5517
1147.26	0.6031
1156.47	0.6939
1165.69	0.7341
1174.91	0.7002
1184.13	0.6797
1193.35	0.6873
1202.56	0.6656
1211.78	0.6425
1221	0.5932
1230.22	0.4691
1239.44	0.6512
1248.65	0.6055
1257.87	0.598
1267.09	0.5982
1276.31	0.535
1285.53	0.494
1294.74	0.4964
1303.96	0.5302
1313.18	0.4938
1322.4	0.614
1331.62	0.5425
1340.84	0.4511
1350.05	0.6334
1359.27	0.6077
1368.49	0.5505
1377.71	0.6113
1386.93	0.602
1396.14	0.647
1405.36	0.6043
1414.58	0.5439
1423.8	0.4357
1433.02	0.4493
1442.23	0.4385
1451.45	0.4954
1460.67	0.5444
1469.89	0.5016
1479.11	0.524
1488.32	0.5716
1497.54	0.6967
1506.76	0.662
1515.98	0.6131
1525.2	0.5176
1534.42	0.586
1543.63	0.5572
1552.85	0.512
1562.07	0.4651
1571.29	0.3923
1580.51	0.2963
1589.72	0.2084
1598.94	0.2435
1608.16	0.2453
1617.38	0.4208
1626.6	0.5289
1635.81	0.5752
1645.03	0.6344
1654.25	0.6887
1663.47	0.7183
1672.69	0.7498
1681.9	0.7756
1691.12	0.7926
1700.34	0.8028
1709.56	0.8147
1718.78	0.8196
1727.99	0.824
1737.21	0.825
1746.43	0.825
1755.65	0.8223
1764.87	0.816
1774.09	0.7935
1783.3	0.7849
1792.52	0.7934
1801.74	0.829
1810.96	0.8332
1820.18	0.833
1829.39	0.8282
1838.61	0.828
1847.83	0.827
1857.05	0.827
1866.27	0.825
1875.48	0.8222
1884.7	0.8173
1893.92	0.811
1903.14	0.7974
1912.36	0.7859
1921.57	0.784
1930.79	0.7909
1940.01	0.795
1949.23	0.797
1958.45	0.785
1967.67	0.781
1976.88	0.776
1986.1	0.7735
1995.32	0.773
2004.54	0.7711
2013.76	0.769
2022.97	0.767
2032.19	0.764
2041.41	0.761
2050.63	0.757
2059.85	0.7526
2069.06	0.7457
2078.28	0.74
2087.5	0.739
2096.72	0.739
2105.94	0.739
2115.15	0.738
2124.37	0.735
2133.59	0.7331
2142.81	0.731
2152.03	0.729
2161.25	0.726
2170.46	0.7241
2179.68	0.721
2188.9	0.7201
2198.12	0.717
2207.34	0.71
2216.55	0.708
2225.77	0.706
2234.99	0.704
2244.21	0.704
2253.43	0.705
2262.64	0.704
2271.86	0.6966
2281.08	0.6916
2290.3	0.688
2299.52	0.689
2308.73	0.689
2317.95	0.683
2327.17	0.68
2336.39	0.68
2345.61	0.679
2354.83	0.6716
2364.04	0.6651
2373.26	0.663
2382.48	0.66
2391.7	0.658
2400.92	0.654
2410.13	0.6496
2419.35	0.6481
2428.57	0.643
2437.79	0.64
2447.01	0.6366
2456.22	0.633
2465.44	0.63
2474.66	0.6251
2483.88	0.6236
2493.1	0.62
2502.31	0.617
2511.53	0.615
2520.75	0.6126
2529.97	0.611
2539.19	0.6057
2548.41	0.5927
2557.62	0.5841
2566.84	0.5801
2576.06	0.5736
2585.28	0.5734
2594.5	0.579
2603.71	0.581
2612.93	0.581
2622.15	0.5706
2631.37	0.565
2640.59	0.564
2649.8	0.5547
2659.02	0.544
2668.24	0.5346
2677.46	0.5289
2686.68	0.5226
2695.89	0.5167
2705.11	0.5096
2714.33	0.507
2723.55	0.507
2732.77	0.507
2741.99	0.51
2751.2	0.5081
2760.42	0.501
2769.64	0.4926
2778.86	0.4816
2788.08	0.4707
2797.29	0.4586
2806.51	0.441
2815.73	0.4341
2824.95	0.4197
2834.17	0.3987
2843.38	0.3862
2852.6	0.3874
2861.82	0.4109
2871.04	0.4193
2880.26	0.4304
2889.47	0.437
2898.69	0.437
2907.91	0.4297
2917.13	0.4166
2926.35	0.4111
2935.57	0.3952
2944.78	0.392
2954	0.399
2963.22	0.4
2972.44	0.3937
2981.66	0.3768
2990.87	0.3794
3000.09	0.3959
3009.31	0.4143
3018.53	0.4344
3027.75	0.4361
3036.96	0.4114
3046.18	0.395
3055.4	0.384
3064.62	0.383
3073.84	0.3623
3083.05	0.353
3092.27	0.359
3101.49	0.3919
3110.71	0.4023
3119.93	0.4178
3129.15	0.4323
3138.36	0.441
3147.58	0.443
3156.8	0.445
3166.02	0.446
3175.24	0.445
3184.45	0.442
3193.67	0.4454
3202.89	0.4504
3212.11	0.454
3221.33	0.452
3230.54	0.451
3239.76	0.4476
3248.98	0.4416
3258.2	0.4291
3267.42	0.413
3276.63	0.4096
3285.85	0.4094
3295.07	0.4238
3304.29	0.4403
3313.51	0.4719
3322.72	0.4844
3331.94	0.4894
3341.16	0.497
3350.38	0.498
3359.6	0.501
3368.82	0.51
3378.03	0.5134
3387.25	0.515
3396.47	0.518
3405.69	0.519
3414.91	0.52
3424.12	0.52
3433.34	0.526
3442.56	0.5304
3451.78	0.536
3461	0.5394
3470.21	0.5534
3479.43	0.5589
3488.65	0.5684
3497.87	0.5759
3507.09	0.583
3516.3	0.5914
3525.52	0.5969
3534.74	0.6034
3543.96	0.6139
3553.18	0.6269
3562.4	0.629
3571.61	0.632
3580.83	0.64
3590.05	0.6454
3599.27	0.664
3608.49	0.6693
3617.7	0.6769
3626.92	0.6874
3636.14	0.692
3645.36	0.693
3654.58	0.695
3663.79	0.696
3673.01	0.697
3682.23	0.697
3691.45	0.698
3700.67	0.698
3709.88	0.698
3719.1	0.697
3728.32	0.6966
3737.54	0.6956
3746.76	0.695
3755.98	0.696
3765.19	0.696
3774.41	0.696
3783.63	0.697
3792.85	0.6956
3802.07	0.693
3811.28	0.6901
3820.5	0.685
3829.72	0.684
3838.94	0.683
3848.16	0.681
3857.37	0.681
3866.59	0.681
3875.81	0.68
3885.03	0.678
3894.25	0.6754
3903.46	0.672
3912.68	0.671
3921.9	0.67
3931.12	0.6691
3940.34	0.668
3949.56	0.667
3958.77	0.666
3967.99	0.667
3977.21	0.668
3986.43	0.6676
3995.65	0.6666
4004.86	0.666
4014.08	0.666
4023.3	0.666
