Infrared Spectrum: 3-Ethyl-4-octanol
Formula: C 10 H 22 O
CAS: 63126-48-7
State: gas
Instrument: HP-GC/MS/IRD
Origin: NIST Mass Spectrometry Data Center
1/CM	ABSORBANCE
550	0.001558
562	0.0002829
574	0.0001763
586	8.2e-05
598	0.0001435
610	0.0001558
622	0.0002132
634	0.0001025
646	0.0001558
658	0.0001107
670	6.97e-05
682	4.1e-06
694	6.97e-05
706	0.0001599
718	0.0002132
730	0.0003362
742	0.0006314
754	0.0008036
766	0.0009389
778	0.001148
790	0.0009348
802	0.0007052
814	0.0006396
826	0.0007626
838	0.0008364
850	0.0007585
862	0.0008446
874	0.0010332
886	0.0013284
898	0.0016482
910	0.00164
922	0.0013079
934	0.0010086
946	0.0010906
958	0.0013735
970	0.0017876
982	0.0026814
994	0.0047437
1006	0.0067158
1018	0.0060803
1030	0.0044977
1042	0.0030135
1054	0.0024067
1066	0.0023124
1078	0.0024354
1090	0.0025871
1102	0.0028085
1114	0.0029069
1126	0.0028905
1138	0.0029602
1150	0.0025666
1162	0.0019475
1174	0.001681
1186	0.0018573
1198	0.0022755
1210	0.0025543
1222	0.0025625
1234	0.0026773
1246	0.0028249
1258	0.0029356
1270	0.0028372
1282	0.0026158
1294	0.002419
1306	0.0023042
1318	0.0020951
1330	0.0021115
1342	0.0023206
1354	0.0024641
1366	0.002911
1378	0.0044977
1390	0.0047109
1402	0.0027265
1414	0.0018696
1426	0.0017753
1438	0.0022591
1450	0.0038827
1462	0.0059696
1474	0.0048052
1486	0.0022632
1498	0.0011726
1510	0.000697
1522	0.0004961
1534	0.0004715
1546	0.0003936
1558	0.0001189
1570	0.0003731
1582	0.0004223
1594	0.0004141
1606	0.00041
1618	0.0002706
1630	0.0003239
1642	0.0002993
1654	6.56e-05
1666	0.0002583
1678	0.0002091
1690	0.0002132
1702	4.51e-05
1714	0.0001025
1726	0.0002091
1738	0.0001025
1750	0.0001107
1762	0.0001353
1774	0.0001189
1786	0.000164
1798	0.0001353
1810	0.0001681
1822	0.0001599
1834	0.0001476
1846	0.0001066
1858	0.000164
1870	8.61e-05
1882	0.0001435
1894	0.0001435
1906	0.0001312
1918	0.0001066
1930	0.0001312
1942	9.43e-05
1954	9.43e-05
1966	0.0001107
1978	9.84e-05
1990	0.0001066
2002	9.02e-05
2014	0.0001066
2026	9.84e-05
2038	0.0001189
2050	0.0001107
2062	8.2e-05
2074	9.43e-05
2086	6.15e-05
2098	5.74e-05
2110	4.1e-05
2122	4.51e-05
2134	5.74e-05
2146	4.1e-05
2158	4.51e-05
2170	4.92e-05
2182	4.1e-05
2194	2.87e-05
2206	1.64e-05
2218	4.1e-05
2230	2.46e-05
2242	2.46e-05
2254	2.46e-05
2266	2.46e-05
2278	4.51e-05
2290	6.97e-05
2302	7.79e-05
2314	5.74e-05
2326	7.38e-05
2338	8.2e-05
2350	0.0001025
2362	0.0001312
2374	0.0001189
2386	0.0001599
2398	0.0001681
2410	0.0001353
2422	0.0001189
2434	0.0001476
2446	0.0001148
2458	0.0001066
2470	0.0001394
2482	0.0001312
2494	0.000123
2506	0.0001353
2518	0.0001558
2530	0.0001927
2542	0.0002214
2554	0.0002419
2566	0.0002829
2578	0.0003444
2590	0.0004182
2602	0.0004428
2614	0.0004551
2626	0.0004674
2638	0.0005207
2650	0.0005617
2662	0.0005945
2674	0.0006765
2686	0.0007011
2698	0.0007257
2710	0.0007954
2722	0.0008733
2734	0.0010496
2746	0.0011972
2758	0.0012013
2770	0.0012218
2782	0.001394
2794	0.0016277
2806	0.0019639
2818	0.0024846
2830	0.0033333
2842	0.0051578
2854	0.0089134
2866	0.0156415
2878	0.022468
2890	0.0220416
2902	0.0178965
2914	0.0215537
2926	0.0304015
2938	0.038089
2950	0.0341489
2962	0.0379865
2974	0.036162
2986	0.0153217
2998	0.0071873
3010	0.004346
3022	0.0030258
3034	0.0022878
3046	0.0018163
3058	0.0015211
3070	0.0012956
3082	0.0011685
3094	0.0010783
3106	0.0009225
3118	0.0008118
3130	0.0007257
3142	0.0006519
3154	0.0006068
3166	0.0005617
3178	0.000492
3190	0.0003731
3202	0.0002952
3214	0.0002624
3226	0.0002337
3238	0.0001763
3250	0.0001599
3262	0.000164
3274	0.0001271
3286	8.61e-05
3298	0.0001148
3310	0.0001312
3322	0.0001107
3334	8.61e-05
3346	7.79e-05
3358	0.0001025
3370	0.0001312
3382	0.0001066
3394	0.000123
3406	0.0001271
3418	0.0001599
3430	0.0001476
3442	0.0001517
3454	0.0001558
3466	0.0001148
3478	9.43e-05
3490	0.0001312
3502	7.38e-05
3514	0.0001025
3526	8.2e-05
3538	8.2e-05
3550	7.79e-05
3562	0.0001271
3574	0.0001066
3586	2.87e-05
3598	0.0001394
3610	0.0001517
3622	0.0003239
3634	0.0007421
3646	0.001476
3658	0.0020213
3670	0.0009922
3682	0.0004346
3694	0.0001845
3706	0.0001599
3718	0.0001394
3730	1.64e-05
3742	4.1e-06
3754	4.1e-06
3766	9.84e-05
3778	0.0001025
3790	0.0001763
3802	4.1e-05
3814	8.2e-05
3826	0.0001107
3838	2.05e-05
