Infrared Spectrum: 3-IODO-5-NITROBENZOIC ACID
Formula: C7 H4 I N O4
CAS: 6313-17-3
State: SOLID (SPLIT MULL), FLUOROLUBE FOR 4000-1335 CM^-^1, NUJOL FOR 1335-460 CM^-^1
Class: COBLENTZ III
Instrument: DOW KBr FOREPRISM-GRATING
Instrument parameters: BLAZED AT 3.5, 12.0, 20.0 MICRON AND CHANGED AT 5.0, 7.5, 14.9 MICRON
Sampling: TRANSMISSION
Resolution: 2
Origin: DOW CHEMICAL COMPANY
1/CM	TRANSMITTANCE
459.78	0.897
468.571	0.897
477.362	0.9
486.154	0.925
494.945	0.928
503.736	0.912
512.527	0.893
521.318	0.867
530.11	0.835
538.901	0.837
547.692	0.874
556.483	0.914
565.274	0.943
574.066	0.937
582.857	0.908
591.648	0.848
600.439	0.897
609.231	0.959
618.022	0.977
626.813	0.977
635.604	0.973
644.395	0.921
653.187	0.805
661.978	0.948
670.769	0.964
679.56	0.935
688.351	0.777
697.143	0.553
705.934	0.922
714.725	0.892
723.516	0.719
732.307	0.515
741.099	0.558
749.89	0.919
758.681	0.961
767.472	0.958
776.263	0.875
785.055	0.944
793.846	0.958
802.637	0.954
811.428	0.946
820.219	0.922
829.011	0.864
837.802	0.893
846.593	0.879
855.384	0.852
864.175	0.813
872.967	0.785
881.758	0.761
890.549	0.723
899.34	0.45
908.132	0.535
916.923	0.661
925.714	0.625
934.505	0.727
943.296	0.761
952.088	0.842
960.879	0.861
969.67	0.874
978.461	0.883
987.252	0.9
996.044	0.895
1004.83	0.9
1013.63	0.911
1022.42	0.906
1031.21	0.915
1040	0.914
1048.79	0.917
1057.58	0.914
1066.37	0.907
1075.16	0.89
1083.96	0.832
1092.75	0.734
1101.54	0.861
1110.33	0.852
1119.12	0.892
1127.91	0.889
1136.7	0.874
1145.49	0.831
1154.29	0.74
1163.08	0.627
1171.87	0.859
1180.66	0.848
1189.45	0.856
1198.24	0.834
1207.03	0.82
1215.82	0.796
1224.61	0.77
1233.41	0.743
1242.2	0.693
1250.99	0.524
1259.78	0.587
1268.57	0.447
1277.36	0.261
1286.15	0.139
1294.94	0.223
1303.74	0.519
1312.53	0.562
1321.32	0.618
1330.11	0.563
1338.9	0.288
1347.69	0.063
1356.48	0.447
1365.27	0.74
1374.07	0.707
1382.86	0.642
1391.65	0.587
1400.44	0.479
1409.23	0.477
1418.02	0.455
1426.81	0.506
1435.6	0.613
1444.4	0.6
1453.19	0.343
1461.98	0.316
1470.77	0.662
1479.56	0.725
1488.35	0.709
1497.14	0.675
1505.93	0.606
1514.72	0.523
1523.52	0.332
1532.31	0.059
1541.1	0.102
1549.89	0.488
1558.68	0.899
1567.47	0.852
1576.26	0.675
1585.05	0.784
1593.85	0.707
1602.64	0.493
1611.43	0.548
1620.22	0.691
1629.01	0.661
1637.8	0.632
1646.59	0.602
1655.38	0.571
1664.18	0.523
1672.97	0.441
1681.76	0.346
1690.55	0.2029
1699.34	0.111
1708.13	0.052
1716.92	0.07
1725.71	0.3671
1734.5	0.661
1743.3	0.821
1752.09	0.912
1760.88	0.951
1769.67	0.937
1778.46	0.919
1787.25	0.904
1796.04	0.885
1804.83	0.877
1813.63	0.863
1822.42	0.837
1831.21	0.834
1840	0.83
1848.79	0.819
1857.58	0.832
1866.37	0.827
1875.16	0.831
1883.96	0.825
1892.75	0.828
1901.54	0.827
1910.33	0.823
1919.12	0.817
1927.91	0.812
1936.7	0.805
1945.49	0.795
1954.29	0.792
1963.08	0.787
1971.87	0.783
1980.66	0.783
1989.45	0.781
1998.24	0.779
2007.03	0.779
2015.82	0.777
2024.61	0.777
2033.41	0.776
2042.2	0.776
2050.99	0.776
2059.78	0.7739
2068.57	0.759
2077.36	0.756
2086.15	0.7479
2094.94	0.741
2103.74	0.73
2112.53	0.727
2121.32	0.7269
2130.11	0.723
2138.9	0.7159
2147.69	0.7081
2156.48	0.7068
2165.27	0.6957
2174.07	0.6887
2182.86	0.6777
2191.65	0.6679
2200.44	0.665
2209.23	0.6609
2218.02	0.6579
2226.81	0.6499
2235.6	0.6446
2244.39	0.6319
2253.19	0.6249
2261.98	0.617
2270.77	0.614
2279.56	0.603
2288.35	0.6
2297.14	0.5945
2305.93	0.5845
2314.72	0.5752
2323.52	0.5588
2332.31	0.5515
2341.1	0.5476
2349.89	0.545
2358.68	0.544
2367.47	0.542
2376.26	0.54
2385.05	0.5348
2393.85	0.5286
2402.64	0.5194
2411.43	0.5128
2420.22	0.5081
2429.01	0.5008
2437.8	0.4933
2446.59	0.4853
2455.38	0.475
2464.17	0.4675
2472.97	0.4585
2481.76	0.446
2490.55	0.4345
2499.34	0.4247
2508.13	0.4052
2516.92	0.399
2525.71	0.396
2534.5	0.397
2543.3	0.4003
2552.09	0.4113
2560.88	0.428
2569.67	0.429
2578.46	0.4274
2587.25	0.424
2596.04	0.415
2604.83	0.405
2613.63	0.3984
2622.42	0.3927
2631.21	0.3843
2640	0.373
2648.79	0.3637
2657.58	0.361
2666.37	0.3651
2675.16	0.3805
2683.96	0.3964
2692.75	0.4
2701.54	0.399
2710.33	0.3942
2719.12	0.388
2727.91	0.3816
2736.7	0.3728
2745.49	0.3628
2754.28	0.3532
2763.08	0.3448
2771.87	0.3368
2780.66	0.3202
2789.45	0.3107
2798.24	0.3047
2807.03	0.303
2815.82	0.301
2824.61	0.296
2833.41	0.2897
2842.2	0.284
2850.99	0.2765
2859.78	0.2711
2868.57	0.266
2877.36	0.2684
2886.15	0.276
2894.94	0.277
2903.74	0.2824
2912.53	0.2919
2921.32	0.298
2930.11	0.297
2938.9	0.29
2947.69	0.287
2956.48	0.2805
2965.27	0.279
2974.06	0.276
2982.86	0.274
2991.65	0.2725
3000.44	0.272
3009.23	0.272
3018.02	0.2725
3026.81	0.276
3035.6	0.277
3044.39	0.274
3053.19	0.2683
3061.98	0.2562
3070.77	0.2224
3079.56	0.1907
3088.35	0.165
3097.14	0.2233
3105.93	0.3062
3114.72	0.352
3123.52	0.3622
3132.31	0.3692
3141.1	0.3746
3149.89	0.385
3158.68	0.3942
3167.47	0.3996
3176.26	0.4085
3185.05	0.4186
3193.85	0.4256
3202.64	0.429
3211.43	0.436
3220.22	0.442
3229.01	0.446
3237.8	0.45
3246.59	0.4577
3255.38	0.4603
3264.17	0.465
3272.97	0.466
3281.76	0.466
3290.55	0.466
3299.34	0.466
3308.13	0.466
3316.92	0.466
3325.71	0.466
3334.5	0.4653
3343.3	0.464
3352.09	0.462
3360.88	0.461
3369.67	0.461
3378.46	0.459
3387.25	0.4573
3396.04	0.4543
3404.83	0.4485
3413.63	0.4472
3422.42	0.446
3431.21	0.443
3440	0.4392
3448.79	0.436
3457.58	0.432
3466.37	0.4292
3475.16	0.428
3483.95	0.4242
3492.75	0.4212
3501.54	0.419
3510.33	0.418
3519.12	0.415
3527.91	0.412
3536.7	0.4102
3545.49	0.408
3554.28	0.4043
3563.08	0.4013
3571.87	0.3992
3580.66	0.396
3589.45	0.393
3598.24	0.39
3607.03	0.389
3615.82	0.388
3624.61	0.3851
3633.41	0.383
3642.2	0.382
3650.99	0.3792
3659.78	0.378
3668.57	0.375
3677.36	0.3722
3686.15	0.3682
3694.94	0.3633
3703.73	0.363
3712.53	0.361
3721.32	0.36
3730.11	0.359
3738.9	0.356
3747.69	0.3521
3756.48	0.349
3765.27	0.3451
3774.06	0.343
3782.86	0.341
3791.65	0.338
