Infrared Spectrum: Benzo[b]thiophene-2-carboxylic acid
Formula: C 9 H 6 O 2 S
CAS: 6314-28-9
State: gas
Origin: EPA-IR VAPOR PHASE LIBRARY
1/CM	ABSORBANCE
551.7	0.00477
563.274	0.00656
574.848	0.00747
586.421	0.00397
597.995	0.00209
609.569	0.00182
621.143	0.00176
632.717	0.00197
644.291	0.00227
655.864	0.00443
667.438	0.00562
679.012	0.00256
690.586	0.00231
702.16	0.00347
713.734	0.00447
725.307	0.00754
736.881	0.0071
748.455	0.00716
760.029	0.00782
771.603	0.00415
783.177	0.00217
794.75	0.00181
806.324	0.00164
817.898	0.00162
829.472	0.00161
841.046	0.00165
852.619	0.00185
864.193	0.00254
875.767	0.00233
887.341	0.00155
898.915	0.00133
910.489	0.0014
922.062	0.00146
933.636	0.00152
945.21	0.00148
956.784	0.0015
968.358	0.00162
979.932	0.00196
991.505	0.00299
1003.08	0.00456
1014.65	0.00508
1026.23	0.00539
1037.8	0.00362
1049.37	0.00225
1060.95	0.00239
1072.52	0.00327
1084.1	0.0034
1095.67	0.00343
1107.24	0.0042
1118.82	0.00641
1130.39	0.01392
1141.97	0.03591
1153.54	0.0347
1165.11	0.01149
1176.69	0.00531
1188.26	0.00369
1199.83	0.00411
1211.41	0.00398
1222.98	0.00282
1234.56	0.00255
1246.13	0.00313
1257.7	0.00359
1269.28	0.00403
1280.85	0.00539
1292.42	0.00703
1304	0.00588
1315.57	0.0052
1327.15	0.00472
1338.72	0.00435
1350.29	0.00606
1361.87	0.00876
1373.44	0.00446
1385.02	0.00217
1396.59	0.00161
1408.16	0.00167
1419.74	0.00257
1431.31	0.00341
1442.88	0.00264
1454.46	0.00248
1466.03	0.00226
1477.61	0.00174
1489.18	0.00179
1500.75	0.00257
1512.33	0.00572
1523.9	0.01098
1535.48	0.00579
1547.05	0.00232
1558.62	0.00327
1570.2	0.00259
1581.77	0.00196
1593.34	0.00227
1604.92	0.00198
1616.49	0.0016
1628.07	0.00142
1639.64	0.00131
1651.21	0.00137
1662.79	0.00156
1674.36	0.00188
1685.93	0.00225
1697.51	0.00263
1709.08	0.003
1720.66	0.00363
1732.23	0.00705
1743.8	0.02494
1755.38	0.04899
1766.95	0.02395
1778.53	0.00744
1790.1	0.00309
1801.67	0.00251
1813.25	0.00269
1824.82	0.00217
1836.39	0.00171
1847.97	0.00152
1859.54	0.00139
1871.12	0.00153
1882.69	0.00166
1894.26	0.00168
1905.84	0.00141
1917.41	0.0012
1928.99	0.00125
1940.56	0.00128
1952.13	0.00103
1963.71	0.0009791
1975.28	0.0009471
1986.85	0.0009481
1998.43	0.0009383
2010	0.0009606
2021.58	0.0009234
2033.15	0.0008838
2044.72	0.0008321
2056.3	0.0008038
2067.87	0.0008068
2079.44	0.0007834
2091.02	0.0007218
2102.59	0.0006913
2114.17	0.0006574
2125.74	0.0006479
2137.31	0.0006575
2148.89	0.0007007
2160.46	0.0007247
2172.04	0.0007228
2183.61	0.0006855
2195.18	0.0006375
2206.76	0.0006368
2218.33	0.0006341
2229.9	0.0006381
2241.48	0.0006501
2253.05	0.0006852
2264.63	0.0007074
2276.2	0.0007253
2287.77	0.0007263
2299.35	0.0007234
2310.92	0.0006695
2322.5	0.0006546
2334.07	0.0006582
2345.64	0.000667
2357.22	0.0006598
2368.79	0.0006525
2380.36	0.0006706
2391.94	0.0006414
2403.51	0.00064
2415.09	0.0006709
2426.66	0.0006556
2438.23	0.0007036
2449.81	0.0007051
2461.38	0.0006996
2472.96	0.0006854
2484.53	0.0006877
2496.1	0.0006894
2507.68	0.0006476
2519.25	0.0006053
2530.82	0.000654
2542.4	0.0006646
2553.97	0.0006796
2565.55	0.0006725
2577.12	0.0006317
2588.69	0.0006371
2600.27	0.0006484
2611.84	0.0006136
2623.41	0.0005908
2634.99	0.0005789
2646.56	0.0006242
2658.14	0.0006302
2669.71	0.0006899
2681.28	0.0006557
2692.86	0.0006244
2704.43	0.0006613
2716.01	0.0006645
2727.58	0.0006634
2739.15	0.0006533
2750.73	0.0006644
2762.3	0.0006733
2773.87	0.0006565
2785.45	0.0006785
2797.02	0.0006564
2808.6	0.0006672
2820.17	0.0006575
2831.74	0.0007308
2843.32	0.0007292
2854.89	0.0006848
2866.47	0.0006974
2878.04	0.0007486
2889.61	0.0007893
2901.19	0.0007749
2912.76	0.0007867
2924.33	0.0007605
2935.91	0.0007143
2947.48	0.0006986
2959.06	0.0006924
2970.63	0.0006585
2982.2	0.0006903
2993.78	0.0008565
3005.35	0.0009797
3016.92	0.00112
3028.5	0.00138
3040.07	0.00149
3051.65	0.00179
3063.22	0.00305
3074.79	0.00378
3086.37	0.00273
3097.94	0.00149
3109.52	0.00114
3121.09	0.0008981
3132.66	0.0008061
3144.24	0.0007526
3155.81	0.0006684
3167.38	0.0006718
3178.96	0.0006656
3190.53	0.0006516
3202.11	0.0006125
3213.68	0.0006093
3225.25	0.000597
3236.83	0.0006029
3248.4	0.0006282
3259.98	0.0006439
3271.55	0.0007002
3283.12	0.0006807
3294.7	0.0006568
3306.27	0.0006704
3317.84	0.0006315
3329.42	0.0006964
3340.99	0.0006895
3352.57	0.0006906
3364.14	0.0006516
3375.71	0.0006518
3387.29	0.0006548
3398.86	0.000669
3410.43	0.0006508
3422.01	0.0006511
3433.58	0.0006856
3445.16	0.0007506
3456.73	0.0007997
3468.3	0.0008213
3479.88	0.0009907
3491.45	0.00113
3503.03	0.00106
3514.6	0.0009022
3526.17	0.0008449
3537.75	0.0008397
3549.32	0.0009452
3560.89	0.0015
3572.47	0.00676
3584.04	0.01671
3595.62	0.00484
3607.19	0.00109
3618.76	0.0008266
3630.34	0.0007639
3641.91	0.0007167
3653.49	0.0007215
3665.06	0.0007785
3676.63	0.0007638
3688.21	0.0007338
3699.78	0.000677
3711.35	0.0007426
3722.93	0.0007284
3734.5	0.0006805
3746.08	0.0006778
3757.65	0.0006723
3769.22	0.0006074
3780.8	0.000649
3792.37	0.0006044
3803.94	0.0006159
3815.52	0.0006187
3827.09	0.0005702
3838.67	0.000515
3850.24	0.0005361
3861.81	0.0006708
3873.39	0.0005882
3884.96	0.0006096
3896.54	0.0006349
3908.11	0.0006251
3919.68	0.0006962
3931.26	0.0006768
3942.83	0.0006454
3954.4	0.0005849
3965.98	0.0006242
3977.55	0.0005105
3989.13	0.000566
4000.7	0.0005586
