Infrared Spectrum: Thianaphthene-2-carboxamide
Formula: C 9 H 7 N O S
CAS: 6314-42-7
State: gas
Origin: EPA-IR VAPOR PHASE LIBRARY
1/CM	ABSORBANCE
549.8	0.002075
559.445	0.002385
569.09	0.0010019
578.734	0.0012401
588.379	0.0016442
598.024	0.00084734
607.669	0.000728
617.313	0.0013906
626.958	0.0016755
636.603	0.002225
646.248	0.002405
655.893	0.002035
665.537	0.001925
675.182	0.002015
684.827	0.002955
694.472	0.002775
704.116	0.003495
713.761	0.004105
723.406	0.005065
733.051	0.005495
742.695	0.005875
752.34	0.005795
761.985	0.003955
771.63	0.002935
781.275	0.002155
790.919	0.0016121
800.564	0.002285
810.209	0.002095
819.854	0.002595
829.498	0.002355
839.143	0.002105
848.788	0.002115
858.433	0.002095
868.078	0.002525
877.722	0.001995
887.367	0.0017615
897.012	0.0018225
906.657	0.001623
916.301	0.0014508
925.946	0.001915
935.591	0.0011936
945.236	0.0017222
954.88	0.001905
964.525	0.002335
974.17	0.001945
983.815	0.0014865
993.46	0.002305
1003.1	0.002105
1012.75	0.0015623
1022.39	0.0017313
1032.04	0.002025
1041.68	0.002105
1051.33	0.0014221
1060.97	0.002305
1070.62	0.002465
1080.26	0.003135
1089.91	0.004565
1099.55	0.004245
1109.2	0.003445
1118.84	0.002675
1128.49	0.001668
1138.13	0.002195
1147.78	0.002265
1157.42	0.004145
1167.07	0.002135
1176.71	0.002255
1186.36	0.004325
1196	0.003275
1205.64	0.002015
1215.29	0.002895
1224.93	0.001935
1234.58	0.002055
1244.22	0.002205
1253.87	0.002865
1263.51	0.0014068
1273.16	0.002185
1282.8	0.003615
1292.45	0.005115
1302.09	0.007905
1311.74	0.008025
1321.38	0.005905
1331.03	0.008635
1340.67	0.013595
1350.32	0.012065
1359.96	0.007525
1369.61	0.003615
1379.25	0.002415
1388.9	0.001995
1398.54	0.0015824
1408.18	0.0016073
1417.83	0.001995
1427.47	0.002435
1437.12	0.002695
1446.76	0.002295
1456.41	0.002335
1466.05	0.002365
1475.7	0.0017038
1485.34	0.001511
1494.99	0.0018122
1504.63	0.002185
1514.28	0.004125
1523.92	0.005745
1533.57	0.004275
1543.21	0.002455
1552.86	0.002675
1562.5	0.003885
1572.15	0.006135
1581.79	0.013475
1591.44	0.015575
1601.08	0.007845
1610.73	0.003285
1620.37	0.002095
1630.01	0.002255
1639.66	0.002265
1649.3	0.0018196
1658.95	0.002225
1668.59	0.003445
1678.24	0.003875
1687.88	0.004295
1697.53	0.008155
1707.17	0.020555
1716.82	0.026335
1726.46	0.015215
1736.11	0.006115
1745.75	0.003695
1755.4	0.003615
1765.04	0.003135
1774.69	0.0018322
1784.33	0.0015305
1793.98	0.0013077
1803.62	0.0015455
1813.27	0.0012352
1822.91	0.0012209
1832.55	0.0010558
1842.2	0.0011744
1851.84	0.0010562
1861.49	0.0012406
1871.13	0.001142
1880.78	0.001149
1890.42	0.0012297
1900.07	0.0011955
1909.71	0.00090597
1919.36	0.0008121
1929	0.001113
1938.65	0.0011192
1948.29	0.00090721
1957.94	0.00092659
1967.58	0.0010062
1977.23	0.0008209
1986.87	0.0010652
1996.52	0.00089417
2006.16	0.0007377
2015.81	0.0008126
2025.45	0.0007716
2035.1	0.000839397
2044.74	0.001012
2054.38	0.00088577
2064.03	0.00089088
2073.67	0.0009974
2083.32	0.00092369
2092.96	0.0009472
2102.61	0.00097
2112.25	0.00079
2121.9	0.0007569
2131.54	0.0009465
2141.19	0.000672
2150.83	0.00085022
2160.48	0.0009777
2170.12	0.000715
2179.77	0.00086345
2189.41	0.0007624
2199.06	0.000629
2208.7	0.000699
2218.35	0.0008125
2227.99	0.000596
2237.64	0.0009998
2247.28	0.00091348
2256.92	0.000728
2266.57	0.000639
2276.21	0.0009541
2285.86	0.0008197
2295.5	0.0010103
2305.15	0.0009729
2314.79	0.0007926
2324.44	0.00082935
2334.08	0.000539
2343.73	0.0007671
2353.37	0.0010103
2363.02	0.000532
2372.66	0.000612
2382.31	0.0009883
2391.95	0.00083009
2401.6	0.00084522
2411.24	0.0007515
2420.89	0.000686
2430.53	0.000713
2440.18	0.0010026
2449.82	0.0008664
2459.47	0.000924
2469.11	0.000471
2478.75	0.000478
2488.4	0.00087776
2498.04	0.000968
2507.69	0.000768
2517.33	0.000582
2526.98	0.000555
2536.62	0.0007895
2546.27	0.00085254
2555.91	0.000633
2565.56	0.000722
2575.2	0.00092747
2584.85	0.000643
2594.49	0.0007792
2604.14	0.00085579
2613.78	0.000698
2623.43	0.0011477
2633.07	0.0009567
2642.72	0.000692
2652.36	0.00087588
2662.01	0.00083215
2671.65	0.000842736
2681.29	0.000639
2690.94	0.000584
2700.58	0.0009764
2710.23	0.000605
2719.87	0.000651
2729.52	0.0011396
2739.16	0.0007354
2748.81	0.000692
2758.45	0.00044
2768.1	0.000769
2777.74	0.0010276
2787.39	0.00088342
2797.03	0.000472
2806.68	0.001274
2816.32	0.000665
2825.97	0.000603
2835.61	0.000585
2845.26	0.000672
2854.9	0.000606
2864.55	0.0010934
2874.19	0.000435
2883.84	0.00089848
2893.48	0.0007877
2903.12	0.00093047
2912.77	0.000169
2922.41	0.001151
2932.06	0.00084592
2941.7	0.000543
2951.35	0.00082513
2960.99	0.000582
2970.64	0.000516
2980.28	0.000504
2989.93	0.0007701
2999.57	0.00088061
3009.22	0.000517
3018.86	0.0011248
3028.51	0.00085796
3038.15	0.0012542
3047.8	0.0016818
3057.44	0.002705
3067.09	0.003275
3076.73	0.003065
3086.38	0.002005
3096.02	0.002155
3105.67	0.0013516
3115.31	0.0009842
3124.95	0.0012428
3134.6	0.000293
3144.24	0.0012688
3153.89	0.00088028
3163.53	0.00082712
3173.18	0.0011423
3182.82	0.0007895
3192.47	0.00091721
3202.11	0.00085173
3211.76	0.000415
3221.4	0.000271
3231.05	0.000663
3240.69	0.0010014
3250.34	0.000691
3259.98	0.000729
3269.63	0.00082778
3279.27	0.000629
3288.92	0.000676
3298.56	0.000548
3308.21	0.0009688
3317.85	0.000616
3327.49	0.000684
3337.14	0.000135
3346.78	0.0009773
3356.43	0.0007754
3366.07	0.000697
3375.72	0.000658
3385.36	0.001064
3395.01	0.0011713
3404.65	0.001935
3414.3	0.002025
3423.94	0.003785
3433.59	0.003425
3443.23	0.0017269
3452.88	0.001452
3462.52	0.0011671
3472.17	0.0011658
3481.81	0.0008634
3491.46	0.0009974
3501.1	0.0007608
3510.75	0.0012215
3520.39	0.0017117
3530.04	0.0017701
3539.68	0.001935
3549.32	0.003135
3558.97	0.002185
3568.61	0.0011495
3578.26	0.00063
3587.9	0.0011611
3597.55	0.00090932
3607.19	0.0012034
3616.84	0.00085753
3626.48	0.000602
3636.13	0.000231
3645.77	0.000423
3655.42	0.0010348
3665.06	0.0008039
3674.71	0.00092451
3684.35	0.000638
3694	0.000468
3703.64	0.00089875
3713.29	0.000586
3722.93	0.0013252
3732.58	0.0009912
3742.22	0.000215
3751.86	0.0010592
3761.51	0.000588
3771.15	0.00052
3780.8	0.0011944
3790.44	0.0010298
3800.09	0.00087252
3809.73	0.000361
3819.38	0.000399
3829.02	0.000681
3838.67	0.00088413
3848.31	0.000684
3857.96	0.000714
3867.6	0.00067
3877.25	0.000579
3886.89	0.000169
3896.54	0.0010025
3906.18	0.000421
3915.83	0.00059
3925.47	0.0008614
3935.12	0.00089163
3944.76	0.00087267
3954.41	0.000461
3964.05	0.000642
3973.69	0.0009386
3983.34	0.000840839
3992.98	0.0008007
