Infrared Spectrum: PYRIMIDINE, 2-AMINO-4-CHLORO-6-(ETHYLAMINO)-
Formula: C6 H9 Cl N4
CAS: 6316-09-2
State: SOLID (1.5 mg / 650 mg, KBr DISC)
Class: COBLENTZ III
Instrument: PERKIN-ELMER 21 (GRATING)
Instrument parameters: FILTER CHANGE AT ABOUT 1090 CM^-^1
Sampling: TRANSMISSION
Resolution: 2
Origin: SOUTHERN RESEARCH INSTITUTE
1/CM	TRANSMITTANCE
609.787	0.655
618.683	0.651
627.579	0.657
636.475	0.6638
645.371	0.6564
654.267	0.65
663.163	0.6732
672.059	0.7011
680.955	0.709
689.851	0.7033
698.747	0.682
707.643	0.6382
716.538	0.5788
725.434	0.6224
734.33	0.645
743.226	0.638
752.122	0.6265
761.018	0.6071
769.914	0.5933
778.81	0.515
787.706	0.4605
796.602	0.332
805.498	0.2949
814.394	0.536
823.29	0.6642
832.186	0.6474
841.082	0.5994
849.978	0.531
858.874	0.4238
867.77	0.3525
876.666	0.6193
885.562	0.662
894.458	0.636
903.354	0.6112
912.249	0.5655
921.145	0.4752
930.041	0.475
938.937	0.5992
947.833	0.5704
956.729	0.5228
965.625	0.4387
974.521	0.2608
983.417	0.4916
992.313	0.592
1001.21	0.5842
1010.1	0.5503
1019	0.5252
1027.9	0.5141
1036.79	0.532
1045.69	0.5121
1054.58	0.4909
1063.48	0.4497
1072.38	0.4597
1081.27	0.4454
1090.17	0.4112
1099.06	0.4348
1107.96	0.4598
1116.86	0.4404
1125.75	0.3998
1134.65	0.4197
1143.54	0.446
1152.44	0.3953
1161.34	0.3132
1170.23	0.216
1179.13	0.3097
1188.02	0.4465
1196.92	0.479
1205.82	0.478
1214.71	0.486
1223.61	0.4723
1232.5	0.4461
1241.4	0.4027
1250.3	0.3541
1259.19	0.4917
1268.09	0.5247
1276.98	0.5141
1285.88	0.4918
1294.78	0.4253
1303.67	0.4788
1312.57	0.4934
1321.46	0.4616
1330.36	0.4266
1339.26	0.3633
1348.15	0.2172
1357.05	0.4553
1365.94	0.4246
1374.84	0.3549
1383.74	0.403
1392.63	0.421
1401.53	0.3874
1410.42	0.3454
1419.32	0.2685
1428.21	0.2631
1437.11	0.2509
1446.01	0.1941
1454.9	0.2501
1463.8	0.2293
1472.69	0.1767
1481.59	0.1049
1490.49	0.1333
1499.38	0.2408
1508.28	0.3781
1517.17	0.399
1526.07	0.3813
1534.97	0.3462
1543.86	0.2751
1552.76	0.1802
1561.65	0.0946
1570.55	0.082
1579.45	0.0754
1588.34	0.0665
1597.24	0.0625
1606.13	0.1228
1615.03	0.1514
1623.93	0.2266
1632.82	0.2516
1641.72	0.1716
1650.61	0.1404
1659.51	0.2242
1668.41	0.3209
1677.3	0.4183
1686.2	0.4741
1695.09	0.5184
1703.99	0.5779
1712.89	0.6064
1721.78	0.6431
1730.68	0.6741
1739.57	0.715
1748.47	0.7478
1757.37	0.7619
1766.26	0.7717
1775.16	0.7874
1784.05	0.8098
1792.95	0.8256
1801.84	0.8388
1810.74	0.8477
1819.64	0.849
1828.53	0.849
1837.43	0.849
1846.32	0.851
1855.22	0.851
1864.12	0.851
1873.01	0.851
1881.91	0.8485
1890.8	0.8465
1899.7	0.842
1908.6	0.8346
1917.49	0.829
1926.39	0.8237
1935.28	0.818
1944.18	0.8135
1953.08	0.811
1961.97	0.8098
1970.87	0.8068
1979.76	0.7997
1988.66	0.7919
1997.56	0.788
2006.45	0.786
2015.35	0.782
2024.24	0.778
2033.14	0.774
2042.04	0.7669
2050.93	0.7649
2059.83	0.767
2068.72	0.767
2077.62	0.7649
2086.52	0.7589
2095.41	0.754
2104.31	0.7499
2113.2	0.745
2122.1	0.739
2131	0.7339
2139.89	0.73
2148.79	0.732
2157.68	0.73
2166.58	0.7169
2175.48	0.706
2184.37	0.7061
2193.27	0.7111
2202.16	0.712
2211.06	0.7039
2219.95	0.699
2228.85	0.698
2237.75	0.6989
2246.64	0.695
2255.54	0.694
2264.43	0.695
2273.33	0.7011
2282.23	0.704
2291.12	0.704
2300.02	0.7061
2308.91	0.711
2317.81	0.711
2326.71	0.7109
2335.6	0.7079
2344.5	0.7019
2353.39	0.694
2362.29	0.694
2371.19	0.6888
2380.08	0.676
2388.98	0.675
2397.87	0.673
2406.77	0.673
2415.67	0.673
2424.56	0.671
2433.46	0.669
2442.35	0.6619
2451.25	0.66
2460.15	0.657
2469.04	0.6558
2477.94	0.647
2486.83	0.648
2495.73	0.6532
2504.63	0.656
2513.52	0.6529
2522.42	0.652
2531.31	0.652
2540.21	0.6509
2549.11	0.645
2558	0.643
2566.9	0.6419
2575.79	0.6319
2584.69	0.628
2593.58	0.6229
2602.48	0.618
2611.38	0.618
2620.27	0.617
2629.17	0.6149
2638.06	0.61
2646.96	0.603
2655.86	0.596
2664.75	0.596
2673.65	0.596
2682.54	0.594
2691.44	0.5909
2700.34	0.587
2709.23	0.589
2718.13	0.596
2727.02	0.5769
2735.92	0.572
2744.82	0.573
2753.71	0.5821
2762.61	0.583
2771.5	0.5819
2780.4	0.5779
2789.3	0.5668
2798.19	0.562
2807.09	0.548
2815.98	0.5491
2824.88	0.549
2833.78	0.5399
2842.67	0.53
2851.57	0.525
2860.46	0.527
2869.36	0.5299
2878.26	0.5248
2887.15	0.5149
2896.05	0.5069
2904.94	0.5028
2913.84	0.4799
2922.74	0.4639
2931.63	0.455
2940.53	0.456
2949.42	0.4509
2958.32	0.4419
2967.21	0.4345
2976.11	0.4243
2985.01	0.4663
2993.9	0.5122
3002.8	0.5159
3011.69	0.51
3020.59	0.502
3029.49	0.498
3038.38	0.4958
3047.28	0.4858
3056.17	0.4748
3065.07	0.4608
3073.97	0.4408
3082.86	0.4238
3091.76	0.4129
3100.65	0.405
3109.55	0.4039
3118.45	0.3928
3127.34	0.3656
3136.24	0.3439
3145.13	0.3198
3154.03	0.2979
3162.93	0.2785
3171.82	0.2539
3180.72	0.2461
3189.61	0.2541
3198.51	0.2775
3207.41	0.3193
3216.3	0.3371
3225.2	0.3441
3234.09	0.3469
3242.99	0.339
3251.89	0.338
3260.78	0.3298
3269.68	0.3098
3278.57	0.2836
3287.47	0.2575
3296.37	0.2123
3305.26	0.1939
3314.16	0.1619
3323.05	0.1551
3331.95	0.1672
3340.85	0.1933
3349.74	0.2212
3358.64	0.2391
3367.53	0.2501
3376.43	0.26
3385.32	0.2987
3394.22	0.3475
3403.12	0.4034
3412.01	0.4495
3420.91	0.4924
3429.8	0.5354
3438.7	0.5584
3447.6	0.5904
3456.49	0.6141
3465.39	0.6311
3474.28	0.6421
3483.18	0.6451
3492.08	0.647
3500.97	0.6522
3509.87	0.6601
3518.76	0.662
3527.66	0.6641
3536.56	0.667
3545.45	0.665
3554.35	0.664
3563.24	0.6651
3572.14	0.674
3581.04	0.6751
3589.93	0.6731
3598.83	0.673
3607.72	0.675
3616.62	0.676
3625.52	0.676
3634.41	0.676
3643.31	0.676
3652.2	0.678
3661.1	0.6781
3670	0.678
3678.89	0.673
3687.79	0.67
3696.68	0.669
3705.58	0.67
3714.48	0.67
3723.37	0.6669
3732.27	0.661
3741.16	0.661
3750.06	0.661
3758.95	0.661
3767.85	0.66
3776.75	0.6569
3785.64	0.655
3794.54	0.652
3803.43	0.651
3812.33	0.651
3821.23	0.65
3830.12	0.648
3839.02	0.647
3847.91	0.6449
3856.81	0.639
3865.71	0.637
3874.6	0.6359
3883.5	0.634
3892.39	0.634
3901.29	0.634
3910.19	0.634
3919.08	0.633
3927.98	0.631
3936.87	0.625
3945.77	0.624
3954.67	0.623
3963.56	0.622
3972.46	0.6189
3981.35	0.619
3990.25	0.6201
3999.15	0.622
