Infrared Spectrum: Pyrimidine, 2-amino-4-chloro-5-(p-chlorophenylazo)-6-ethylamino-
Formula: C12 H12 Cl2 N6
CAS: 6316-10-5
State: SOLID (0.5 mg / 650 mg KBr DISC)
Class: COBLENTZ III
Instrument: PERKIN-ELMER 21 (GRATING)
Instrument parameters: FILTER CHANGE ABOUT 1100 CM^-^1
Sampling: TRANSMISSION
Resolution: 2
Origin: SOUTHERN RESEARCH INSTITUTE
1/CM	TRANSMITTANCE
640	0.9413
649	0.8957
658	0.8601
667	0.8234
676	0.7275
685	0.6671
694	0.7559
703	0.7844
712	0.8026
721	0.8392
730	0.8415
739	0.8389
748	0.8333
757	0.8264
766	0.817
775	0.7843
784	0.4327
793	0.8009
802	0.7861
811	0.7729
820	0.7442
829	0.6712
838	0.6759
847	0.7709
856	0.7211
865	0.6952
874	0.7656
883	0.8034
892	0.7998
901	0.7859
910	0.7837
919	0.7826
928	0.7664
937	0.7533
946	0.6794
955	0.6622
964	0.6925
973	0.7064
982	0.7391
991	0.7495
1000	0.7461
1009	0.6192
1018	0.6514
1027	0.7319
1036	0.7606
1045	0.741
1054	0.6812
1063	0.6089
1072	0.7144
1081	0.5166
1090	0.5536
1099	0.6728
1108	0.6517
1117	0.717
1126	0.7406
1135	0.74
1144	0.7184
1153	0.722
1162	0.7062
1171	0.7083
1180	0.7105
1189	0.7007
1198	0.5787
1207	0.667
1216	0.7066
1225	0.6925
1234	0.6829
1243	0.6137
1252	0.6154
1261	0.6413
1270	0.518
1279	0.5502
1288	0.5898
1297	0.4512
1306	0.6179
1315	0.6343
1324	0.5336
1333	0.5467
1342	0.5219
1351	0.41
1360	0.4858
1369	0.2991
1378	0.351
1387	0.3734
1396	0.6014
1405	0.5197
1414	0.489
1423	0.5669
1432	0.5619
1441	0.5583
1450	0.4679
1459	0.4012
1468	0.2401
1477	0.4567
1486	0.5405
1495	0.6688
1504	0.6587
1513	0.6364
1522	0.5437
1531	0.5826
1540	0.5111
1549	0.376
1558	0.2221
1567	0.0361
1576	0.0655
1585	0.0834
1594	0.2239
1603	0.4162
1612	0.5532
1621	0.5284
1630	0.1558
1639	0.211
1648	0.5551
1657	0.6712
1666	0.737
1675	0.7651
1684	0.7854
1693	0.7968
1702	0.8067
1711	0.8125
1720	0.8176
1729	0.8404
1738	0.845
1747	0.8459
1756	0.8472
1765	0.8484
1774	0.8475
1783	0.8474
1792	0.8472
1801	0.8471
1810	0.8474
1819	0.8452
1828	0.8454
1837	0.8458
1846	0.8429
1855	0.8397
1864	0.8433
1873	0.8441
1882	0.8393
1891	0.8359
1900	0.8339
1909	0.8329
1918	0.8322
1927	0.8324
1936	0.8316
1945	0.8321
1954	0.8333
1963	0.8346
1972	0.8359
1981	0.8362
1990	0.8347
1999	0.8341
2008	0.8332
2017	0.8308
2026	0.8282
2035	0.8263
2044	0.8246
2053	0.824
2062	0.8236
2071	0.8237
2080	0.8239
2089	0.824
2098	0.823
2107	0.8221
2116	0.8216
2125	0.8221
2134	0.8241
2143	0.8244
2152	0.8229
2161	0.8215
2170	0.82
2179	0.8186
2188	0.8183
2197	0.8178
2206	0.8167
2215	0.8154
2224	0.8125
2233	0.8092
2242	0.8065
2251	0.8052
2260	0.8047
2269	0.8106
2278	0.8134
2287	0.8137
2296	0.809
2305	0.8012
2314	0.797
2323	0.7934
2332	0.7927
2341	0.7921
2350	0.7917
2359	0.7916
2368	0.7914
2377	0.7908
2386	0.7901
2395	0.7893
2404	0.7882
2413	0.7869
2422	0.7852
2431	0.7831
2440	0.78
2449	0.7784
2458	0.7791
2467	0.7789
2476	0.7779
2485	0.7776
2494	0.777
2503	0.7761
2512	0.7751
2521	0.7736
2530	0.7721
2539	0.7708
2548	0.7698
2557	0.7686
2566	0.7673
2575	0.7659
2584	0.7644
2593	0.7632
2602	0.762
2611	0.7602
2620	0.7582
2629	0.7554
2638	0.7495
2647	0.7448
2656	0.7414
2665	0.7391
2674	0.7372
2683	0.7386
2692	0.7445
2701	0.7481
2710	0.7415
2719	0.7354
2728	0.7311
2737	0.7292
2746	0.7304
2755	0.7305
2764	0.7243
2773	0.7211
2782	0.724
2791	0.7203
2800	0.7127
2809	0.7058
2818	0.6995
2827	0.6927
2836	0.678
2845	0.6673
2854	0.6563
2863	0.6446
2872	0.6353
2881	0.6394
2890	0.667
2899	0.6617
2908	0.6408
2917	0.631
2926	0.6319
2935	0.6366
2944	0.6316
2953	0.6201
2962	0.6235
2971	0.6324
2980	0.6372
2989	0.638
2998	0.6489
3007	0.6486
3016	0.6454
3025	0.6386
3034	0.6265
3043	0.6146
3052	0.6029
3061	0.5909
3070	0.5768
3079	0.5584
3088	0.5342
3097	0.5048
3106	0.4706
3115	0.4335
3124	0.3905
3133	0.3706
3142	0.3732
3151	0.3516
3160	0.3333
3169	0.318
3178	0.341
3187	0.3934
3196	0.434
3205	0.4594
3214	0.4746
3223	0.4902
3232	0.5241
3241	0.5417
3250	0.5344
3259	0.5083
3268	0.4597
3277	0.4163
3286	0.3912
3295	0.3867
3304	0.3976
3313	0.4423
3322	0.5065
3331	0.5594
3340	0.5992
3349	0.6127
3358	0.6196
3367	0.6246
3376	0.6246
3385	0.6214
3394	0.6151
3403	0.6086
3412	0.6013
3421	0.5924
3430	0.5808
3439	0.5615
3448	0.5329
3457	0.4901
3466	0.4276
3475	0.3742
3484	0.4125
3493	0.572
3502	0.6245
3511	0.6397
3520	0.6435
3529	0.6487
3538	0.655
3547	0.6626
3556	0.668
3565	0.673
3574	0.6783
3583	0.6799
3592	0.6825
3601	0.6888
3610	0.6946
3619	0.6989
3628	0.7053
3637	0.7088
3646	0.7076
3655	0.7074
3664	0.7092
3673	0.7097
3682	0.709
3691	0.708
3700	0.7069
3709	0.7084
3718	0.7114
3727	0.7117
3736	0.7115
3745	0.7092
3754	0.7073
3763	0.7065
3772	0.708
3781	0.708
3790	0.7077
3799	0.7047
3808	0.6978
3817	0.6953
3826	0.6976
3835	0.7014
3844	0.6966
3853	0.6902
3862	0.6867
3871	0.6875
3880	0.6895
3889	0.6897
3898	0.6971
3907	0.6948
3916	0.6908
3925	0.6899
3934	0.6851
3943	0.6815
3952	0.6806
3961	0.6807
3970	0.673
3979	0.6844
3988	0.6864
3997	0.6941
