Infrared Spectrum: 4-OXOHEPTANEDIOIC ACID, DIETHYL ESTER
Formula: C11 H18 O5
CAS: 6317-49-3
Boiling point: 141-142 C AT 3 mmHg
Class: COBLENTZ
Instrument: Not specified, most likely a prism, grating, or hybrid spectrometer.
Sampling: TRANSMISSION
Path length: SMEAR
Resolution: 4
Origin: TENNESSEE EASTMAN COMPANY, RESEARCH LABORATORIES
MICROMETERS	TRANSMITTANCE
2.034	0.996
2.07491	1
2.11583	1.003
2.15674	1.001
2.19766	1.006
2.23857	1.001
2.27949	0.984
2.3204	0.977
2.36132	0.982
2.40223	0.981
2.44315	0.981
2.48406	0.984
2.52498	0.986
2.56589	0.989
2.60681	0.989
2.64772	0.989
2.68864	0.988
2.72955	0.982
2.77047	0.97
2.81138	0.97
2.8523	0.969
2.89321	0.96
2.93413	0.91
2.97504	0.945
3.01596	0.96
3.05687	0.96
3.09779	0.96
3.1387	0.958
3.17962	0.955
3.22053	0.948
3.26145	0.933
3.30236	0.89
3.34327	0.332
3.38419	0.453
3.4251	0.491
3.46602	0.763
3.50693	0.863
3.54785	0.893
3.58876	0.921
3.62968	0.94
3.67059	0.945
3.71151	0.95
3.75242	0.96
3.79334	0.964
3.83425	0.964
3.87517	0.964
3.91608	0.964
3.957	0.964
3.99791	0.965
4.03883	0.965
4.07974	0.964
4.12066	0.964
4.16157	0.964
4.20249	0.958
4.2434	0.952
4.28432	0.943
4.32523	0.94
4.36615	0.952
4.40706	0.964
4.44798	0.965
4.48889	0.965
4.52981	0.965
4.57072	0.965
4.61164	0.965
4.65255	0.967
4.69346	0.962
4.73438	0.958
4.77529	0.952
4.81621	0.95
4.85712	0.945
4.89804	0.941
4.93895	0.941
4.97987	0.948
5.02078	0.953
5.0617	0.953
5.10261	0.952
5.14353	0.953
5.18444	0.952
5.22536	0.946
5.26627	0.94
5.30719	0.926
5.3481	0.929
5.38902	0.933
5.42993	0.928
5.47085	0.904
5.51176	0.869
5.55268	0.825
5.59359	0.77
5.63451	0.672
5.67542	0.5
5.71634	0.068
5.75725	0.02
5.79817	0.023
5.83908	0.114
5.88	0.335
5.92091	0.532
5.96182	0.65
6.00274	0.738
6.04365	0.787
6.08457	0.797
6.12548	0.811
6.1664	0.84
6.20731	0.854
6.24823	0.861
6.28914	0.859
6.33006	0.876
6.37097	0.878
6.41189	0.857
6.4528	0.878
6.49372	0.864
6.53463	0.863
6.57555	0.852
6.61646	0.84
6.65738	0.827
6.69829	0.751
6.73921	0.587
6.78012	0.529
6.82104	0.498
6.86195	0.498
6.90287	0.458
6.94378	0.501
6.9847	0.4
7.02561	0.27
7.06653	0.238
7.10744	0.256
7.14836	0.285
7.18927	0.313
7.23019	0.238
7.2711	0.111
7.31201	0.136
7.35293	0.28
7.39384	0.231
7.43476	0.22
7.47567	0.378
7.51659	0.429
7.5575	0.405
7.59842	0.369
7.63933	0.32
7.68025	0.289
7.72116	0.332
7.76208	0.369
7.80299	0.352
7.84391	0.299
7.88482	0.246
7.92574	0.21
7.96665	0.193
8.00757	0.196
8.04848	0.214
8.0894	0.21
8.13031	0.19
8.17123	0.154
8.21214	0.113
8.25306	0.089
8.29397	0.071
8.33489	0.063
8.3758	0.051
8.41672	0.042
8.45763	0.044
8.49855	0.085
8.53946	0.125
8.58038	0.16
8.62129	0.203
8.6622	0.239
8.70312	0.255
8.74403	0.303
8.78495	0.359
8.82586	0.424
8.86678	0.458
8.90769	0.46
8.94861	0.4
8.98952	0.318
9.03044	0.195
9.07135	0.138
9.11227	0.181
9.15318	0.328
9.1941	0.477
9.23501	0.583
9.27593	0.607
9.31684	0.611
9.35776	0.609
9.39867	0.604
9.43959	0.582
9.4805	0.53
9.52142	0.436
9.56233	0.323
9.60325	0.248
9.64416	0.241
9.68508	0.26
9.72599	0.282
9.76691	0.337
9.80782	0.405
9.84874	0.491
9.88965	0.547
9.93056	0.561
9.97148	0.551
10.0124	0.551
10.0533	0.585
10.0942	0.645
10.1351	0.679
10.1761	0.71
10.217	0.743
10.2579	0.768
10.2988	0.791
10.3397	0.809
10.3806	0.821
10.4215	0.832
10.4625	0.832
10.5034	0.823
10.5443	0.799
10.5852	0.785
10.6261	0.772
10.667	0.772
10.7079	0.777
10.7489	0.782
10.7898	0.782
10.8307	0.782
10.8716	0.797
10.9125	0.825
10.9534	0.849
10.9944	0.868
11.0353	0.881
11.0762	0.883
11.1171	0.878
11.158	0.852
11.1989	0.842
11.2398	0.833
11.2808	0.833
11.3217	0.84
11.3626	0.839
11.4035	0.823
11.4444	0.796
11.4853	0.746
11.5262	0.696
11.5672	0.647
11.6081	0.587
11.649	0.563
11.6899	0.597
11.7308	0.667
11.7717	0.738
11.8126	0.791
11.8536	0.823
11.8945	0.84
11.9354	0.844
11.9763	0.849
12.0172	0.849
12.0581	0.851
12.0991	0.851
12.14	0.851
12.1809	0.847
12.2218	0.84
12.2627	0.832
12.3036	0.823
12.3445	0.813
12.3855	0.808
12.4264	0.803
12.4673	0.792
12.5082	0.784
12.5491	0.765
12.59	0.758
12.6309	0.76
12.6719	0.773
12.7128	0.789
12.7537	0.804
12.7946	0.818
12.8355	0.828
12.8764	0.833
12.9173	0.84
12.9583	0.844
12.9992	0.847
13.0401	0.851
13.081	0.852
13.1219	0.854
13.1628	0.857
13.2038	0.857
13.2447	0.857
13.2856	0.857
13.3265	0.857
13.3674	0.857
13.4083	0.857
13.4492	0.857
13.4902	0.857
13.5311	0.857
13.572	0.856
13.6129	0.856
13.6538	0.854
13.6947	0.852
13.7356	0.847
13.7766	0.842
13.8175	0.837
13.8584	0.832
13.8993	0.83
13.9402	0.827
13.9811	0.821
14.022	0.82
14.063	0.813
14.1039	0.809
14.1448	0.803
14.1857	0.799
14.2266	0.796
14.2675	0.791
14.3085	0.779
14.3494	0.775
14.3903	0.77
14.4312	0.761
14.4721	0.755
14.513	0.748
14.5539	0.739
14.5949	0.732
14.6358	0.724
14.6767	0.714
14.7176	0.705
14.7585	0.698
14.7994	0.69
14.8403	0.683
14.8813	0.674
14.9222	0.662
14.9631	0.652
15.004	0.643
15.0449	0.64
15.0858	0.635
15.1267	0.626
15.1677	0.618
15.2086	0.611
15.2495	0.606
15.2904	0.599
15.3313	0.592
15.3722	0.587
15.4132	0.58
15.4541	0.578
15.495	0.571
15.5359	0.566
15.5768	0.565
15.6177	0.559
15.6586	0.551
15.6996	0.546
15.7405	0.544
15.7814	0.542
15.8223	0.539
15.8632	0.534
15.9041	0.53
15.945	0.53
15.986	0.53
