Infrared Spectrum: RHODANINE, 5-P-CHLOROBENZYLIDENE
Formula: C10 H6 Cl N O S2
CAS: 6318-37-2
State: SOLID (KBr PELLET)
Melting point: 227-228 C
Class: COBLENTZ
Instrument: Not specified, most likely a prism, grating, or hybrid spectrometer.
Sampling: TRANSMISSION
Resolution: 4
Origin: TENNESSEE EASTMAN COMPANY, RESEARCH LABORATORIES
MICROMETERS	TRANSMITTANCE
2.02	0.268
2.05951	0.276
2.09902	0.304
2.13853	0.319
2.17804	0.326
2.21755	0.339
2.25705	0.349
2.29656	0.364
2.33607	0.385
2.37558	0.394
2.41509	0.402
2.4546	0.408
2.49411	0.425
2.53362	0.44
2.57313	0.45
2.61264	0.461
2.65215	0.476
2.69165	0.488
2.73116	0.476
2.77067	0.438
2.81018	0.402
2.84969	0.382
2.8892	0.365
2.92871	0.369
2.96822	0.412
3.00773	0.461
3.04724	0.48
3.08674	0.48
3.12625	0.438
3.16576	0.428
3.20527	0.415
3.24478	0.38
3.28429	0.38
3.3238	0.442
3.36331	0.509
3.40282	0.549
3.44233	0.538
3.48184	0.382
3.52134	0.458
3.56085	0.556
3.60036	0.571
3.63987	0.602
3.67938	0.624
3.71889	0.645
3.7584	0.678
3.79791	0.7
3.83742	0.736
3.87693	0.758
3.91644	0.769
3.95594	0.778
3.99545	0.784
4.03496	0.793
4.07447	0.806
4.11398	0.819
4.15349	0.827
4.193	0.831
4.23251	0.831
4.27202	0.832
4.31153	0.841
4.35103	0.85
4.39054	0.867
4.43005	0.877
4.46956	0.89
4.50907	0.895
4.54858	0.899
4.58809	0.902
4.6276	0.903
4.66711	0.908
4.70662	0.913
4.74613	0.917
4.78563	0.923
4.82514	0.925
4.86465	0.927
4.90416	0.927
4.94367	0.928
4.98318	0.945
5.02269	0.951
5.0622	0.951
5.10171	0.955
5.14122	0.958
5.18073	0.958
5.22023	0.958
5.25974	0.956
5.29925	0.955
5.33876	0.953
5.37827	0.955
5.41778	0.958
5.45729	0.958
5.4968	0.956
5.53631	0.956
5.57582	0.94
5.61532	0.92
5.65483	0.897
5.69434	0.781
5.73385	0.551
5.77336	0.364
5.81287	0.165
5.85238	0.125
5.89189	0.639
5.9314	0.743
5.97091	0.809
6.01042	0.837
6.04992	0.836
6.08943	0.822
6.12894	0.816
6.16845	0.802
6.20796	0.546
6.24747	0.418
6.28698	0.539
6.32649	0.897
6.366	0.832
6.40551	0.923
6.44502	0.942
6.48452	0.947
6.52403	0.943
6.56354	0.927
6.60305	0.88
6.64256	0.711
6.68207	0.399
6.72158	0.445
6.76109	0.577
6.8006	0.657
6.84011	0.677
6.87962	0.45
6.91912	0.509
6.95863	0.701
6.99814	0.811
7.03765	0.832
7.07716	0.629
7.11667	0.834
7.15618	0.928
7.19569	0.96
7.2352	0.966
7.27471	0.955
7.31421	0.958
7.35372	0.958
7.39323	0.948
7.43274	0.918
7.47225	0.905
7.51176	0.918
7.55127	0.938
7.59078	0.816
7.63029	0.721
7.6698	0.713
7.70931	0.728
7.74881	0.764
7.78832	0.639
7.82783	0.751
7.86734	0.796
7.90685	0.806
7.94636	0.715
7.98587	0.589
8.02538	0.271
8.06489	0.12
8.1044	0.276
8.14391	0.504
8.18341	0.693
8.22292	0.791
8.26243	0.701
8.30194	0.523
8.34145	0.208
8.38096	0.087
8.42047	0.15
8.45998	0.417
8.49949	0.713
8.539	0.809
8.5785	0.831
8.61801	0.832
8.65752	0.852
8.69703	0.889
8.73654	0.912
8.77605	0.917
8.81556	0.91
8.85507	0.793
8.89458	0.658
8.93409	0.644
8.9736	0.695
9.0131	0.68
9.05261	0.627
9.09212	0.617
9.13163	0.605
9.17114	0.592
9.21065	0.798
9.25016	0.862
9.28967	0.854
9.32918	0.794
9.36869	0.658
9.4082	0.567
9.4477	0.647
9.48721	0.802
9.52672	0.827
9.56623	0.865
9.60574	0.918
9.64525	0.94
9.68476	0.948
9.72427	0.956
9.76378	0.93
9.80329	0.741
9.84279	0.634
9.8823	0.698
9.92181	0.821
9.96132	0.913
10.0008	0.956
10.0403	0.978
10.0798	0.99
10.1194	1
10.1589	1.006
10.1984	1.006
10.2379	1.008
10.2774	1.006
10.3169	0.996
10.3564	0.996
10.3959	0.995
10.4354	0.996
10.4749	0.996
10.5144	0.996
10.554	0.995
10.5935	0.993
10.633	0.995
10.6725	0.995
10.712	0.996
10.7515	0.998
10.791	0.993
10.8305	0.986
10.87	0.983
10.9095	0.978
10.949	0.96
10.9886	0.9
11.0281	0.925
11.0676	0.94
11.1071	0.94
11.1466	0.925
11.1861	0.829
11.2256	0.903
11.2651	0.951
11.3046	0.958
11.3441	0.96
11.3836	0.945
11.4232	0.819
11.4627	0.604
11.5022	0.574
11.5417	0.7
11.5812	0.764
11.6207	0.811
11.6602	0.85
11.6997	0.877
11.7392	0.897
11.7787	0.902
11.8182	0.907
11.8578	0.91
11.8973	0.913
11.9368	0.912
11.9763	0.879
12.0158	0.761
12.0553	0.746
12.0948	0.758
12.1343	0.617
12.1738	0.523
12.2133	0.738
12.2528	0.882
12.2924	0.907
12.3319	0.889
12.3714	0.839
12.4109	0.841
12.4504	0.913
12.4899	0.956
12.5294	0.963
12.5689	0.966
12.6084	0.97
12.6479	0.97
12.6874	0.971
12.727	0.97
12.7665	0.97
12.806	0.97
12.8455	0.97
12.885	0.968
12.9245	0.965
12.964	0.963
13.0035	0.958
13.043	0.937
13.0825	0.92
13.122	0.912
13.1616	0.907
13.2011	0.907
13.2406	0.917
13.2801	0.937
13.3196	0.948
13.3591	0.96
13.3986	0.965
13.4381	0.965
13.4776	0.96
13.5171	0.96
13.5566	0.963
13.5962	0.963
13.6357	0.945
13.6752	0.862
13.7147	0.783
13.7542	0.774
13.7937	0.847
13.8332	0.925
13.8727	0.971
13.9122	0.988
13.9517	0.996
13.9912	0.996
14.0308	0.998
14.0703	0.998
14.1098	0.993
14.1493	0.981
14.1888	0.98
14.2283	0.981
14.2678	0.988
14.3073	0.996
14.3468	1
14.3863	0.998
14.4258	0.993
14.4654	0.986
14.5049	0.951
14.5444	0.872
14.5839	0.791
14.6234	0.74
14.6629	0.708
14.7024	0.692
14.7419	0.665
14.7814	0.637
14.8209	0.632
14.8604	0.672
14.9	0.743
14.9395	0.831
14.979	0.908
15.0185	0.958
15.058	0.968
15.0975	0.973
15.137	0.978
15.1765	0.983
15.216	0.981
15.2555	0.983
15.295	0.983
15.3346	0.981
15.3741	0.981
15.4136	0.981
15.4531	0.98
15.4926	0.98
15.5321	0.98
15.5716	0.978
15.6111	0.98
15.6506	0.981
15.6901	0.98
15.7296	0.983
15.7692	0.98
15.8087	0.968
15.8482	0.958
15.8877	0.948
15.9272	0.935
15.9667	0.927
