Infrared Spectrum: 4-Pyridinepropionic acid
Formula: C8 H9 N O2
CAS: 6318-43-0
State: SOLID (SPLIT MULL), FLUOROLUBE FOR 3800-1330 CM^-^1, NUJOL FOR 1330-400 CM^-^1
Class: COBLENTZ III
Instrument: BECKMAN IR-9 (GRATING)
Instrument parameters: ORDER CHANGES: 670, 1200, 2000 CM^-^1
Sampling: TRANSMISSION
Resolution: 2
Origin: DOW CHEMICAL COMPANY
1/CM	TRANSMITTANCE
3808	0.7107
3799	0.7121
3790	0.7138
3781	0.7168
3772	0.7204
3763	0.7242
3754	0.728
3745	0.7314
3736	0.7341
3727	0.7358
3718	0.7372
3709	0.7393
3700	0.7418
3691	0.7444
3682	0.7467
3673	0.7487
3664	0.7508
3655	0.7526
3646	0.7546
3637	0.7555
3628	0.7561
3619	0.7565
3610	0.7561
3601	0.7485
3592	0.7548
3583	0.7658
3574	0.768
3565	0.769
3556	0.7695
3547	0.7697
3538	0.7701
3529	0.7706
3520	0.7711
3511	0.7717
3502	0.7721
3493	0.7726
3484	0.7736
3475	0.7747
3466	0.7758
3457	0.7768
3448	0.7784
3439	0.7798
3430	0.7815
3421	0.7844
3412	0.7871
3403	0.7901
3394	0.793
3385	0.7967
3376	0.8004
3367	0.8041
3358	0.8076
3349	0.8111
3340	0.8146
3331	0.818
3322	0.8209
3313	0.8237
3304	0.8266
3295	0.8291
3286	0.8314
3277	0.8336
3268	0.8363
3259	0.839
3250	0.8416
3241	0.8442
3232	0.8464
3223	0.8478
3214	0.8481
3205	0.8482
3196	0.8486
3187	0.8489
3178	0.8494
3169	0.8498
3160	0.8501
3151	0.8498
3142	0.8495
3133	0.8491
3124	0.8488
3115	0.8491
3106	0.8489
3097	0.8483
3088	0.8385
3079	0.824
3070	0.8223
3061	0.8111
3052	0.7618
3043	0.7626
3034	0.826
3025	0.8295
3016	0.8294
3007	0.8275
2998	0.8243
2989	0.8205
2980	0.8161
2971	0.8058
2962	0.7912
2953	0.7867
2944	0.7636
2935	0.7361
2926	0.7515
2917	0.7862
2908	0.8048
2899	0.8071
2890	0.8085
2881	0.8099
2872	0.8108
2863	0.8115
2854	0.8125
2845	0.8133
2836	0.8145
2827	0.816
2818	0.8172
2809	0.8183
2800	0.8192
2791	0.8199
2782	0.8197
2773	0.8185
2764	0.8172
2755	0.815
2746	0.8111
2737	0.7998
2728	0.7918
2719	0.7891
2710	0.7872
2701	0.7865
2692	0.786
2683	0.785
2674	0.7839
2665	0.7828
2656	0.7787
2647	0.7721
2638	0.7626
2629	0.7518
2620	0.7401
2611	0.7284
2602	0.7171
2593	0.7017
2584	0.6858
2575	0.6707
2566	0.6525
2557	0.636
2548	0.6206
2539	0.6043
2530	0.5891
2521	0.5764
2512	0.5628
2503	0.5478
2494	0.5346
2485	0.5235
2476	0.5136
2467	0.504
2458	0.4967
2449	0.4894
2440	0.4844
2431	0.4878
2422	0.4897
2413	0.4899
2404	0.4898
2395	0.491
2386	0.5005
2377	0.5501
2368	0.5616
2359	0.5632
2350	0.5734
2341	0.579
2332	0.5835
2323	0.5882
2314	0.5945
2305	0.6035
2296	0.6176
2287	0.6357
2278	0.6542
2269	0.6751
2260	0.6969
2251	0.7158
2242	0.7353
2233	0.7512
2224	0.7667
2215	0.7808
2206	0.7918
2197	0.801
2188	0.8067
2179	0.8096
2170	0.8101
2161	0.8088
2152	0.8041
2143	0.7974
2134	0.7878
2125	0.7782
2116	0.7686
2107	0.7554
2098	0.7424
2089	0.7285
2080	0.7137
2071	0.699
2062	0.681
2053	0.6599
2044	0.6414
2035	0.6257
2026	0.6092
2017	0.5884
2008	0.571
1999	0.5401
1990	0.5226
1981	0.5046
1972	0.4891
1963	0.4765
1954	0.4683
1945	0.4678
1936	0.4749
1927	0.4767
1918	0.4793
1909	0.4837
1900	0.4906
1891	0.499
1882	0.5102
1873	0.5122
1864	0.5099
1855	0.5086
1846	0.5041
1837	0.5012
1828	0.5057
1819	0.5148
1810	0.5223
1801	0.5232
1792	0.5162
1783	0.5055
1774	0.4877
1765	0.4651
1756	0.4307
1747	0.393
1738	0.3547
1729	0.3134
1720	0.2566
1711	0.2291
1702	0.2511
1693	0.3262
1684	0.4114
1675	0.4859
1666	0.5589
1657	0.5966
1648	0.6044
1639	0.6189
1630	0.6867
1621	0.5362
1612	0.1669
1603	0.3043
1594	0.4128
1585	0.4984
1576	0.5494
1567	0.5494
1558	0.5136
1549	0.5896
1540	0.6172
1531	0.6262
1522	0.6171
1513	0.5752
1504	0.604
1495	0.786
1486	0.7748
1477	0.7764
1468	0.7836
1459	0.7828
1450	0.7643
1441	0.7248
1432	0.4747
1423	0.1568
1414	0.2961
1405	0.506
1396	0.6359
1387	0.5259
1378	0.3739
1369	0.3768
1360	0.4757
1351	0.5581
1342	0.4536
1333	0.2384
1324	0.4117
1315	0.4697
1306	0.3886
1297	0.1591
1288	0.1968
1279	0.2946
1270	0.3923
1261	0.4901
1252	0.4059
1243	0.3518
1234	0.4131
1225	0.2272
1216	0.2407
1207	0.0448
1198	0.2052
1189	0.3748
1180	0.1302
1171	0.158
1162	0.1953
1153	0.2313
1144	0.2618
1135	0.2865
1126	0.3022
1117	0.3012
1108	0.3074
1099	0.3379
1090	0.3842
1081	0.4912
1072	0.2133
1063	0.1794
1054	0.3007
1045	0.322
1036	0.3364
1027	0.2355
1018	0.1706
1009	0.3559
1000	0.415
991	0.4394
982	0.452
973	0.4298
964	0.4819
955	0.5052
946	0.5408
937	0.5689
928	0.5851
919	0.5123
910	0.532
901	0.5862
892	0.6005
883	0.5633
874	0.6431
865	0.6546
856	0.6274
847	0.6221
838	0.5003
829	0.0707
820	0.4551
811	0.7275
802	0.7714
793	0.7903
784	0.7996
775	0.7974
766	0.8015
757	0.8208
748	0.8196
739	0.8175
730	0.804
721	0.8078
712	0.8161
703	0.881
694	0.8866
685	0.8965
676	0.9113
667	0.8807
658	0.8867
649	0.8983
640	0.8987
631	0.8957
622	0.8905
613	0.8842
604	0.8756
595	0.8632
586	0.8428
577	0.7762
568	0.4096
559	0.8477
550	0.8689
541	0.8631
532	0.845
523	0.7842
514	0.6451
505	0.5907
496	0.6127
487	0.4808
478	0.7061
469	0.8158
460	0.8121
451	0.7934
442	0.7634
433	0.7469
424	0.7004
415	0.6586
406	0.6539
