Infrared Spectrum: Gamma-CHLORO-n-PROPYL-P-TOLUENE SULFONATE
Formula: C10 H13 Cl O3 S
CAS: 632-02-0
State: LIQUID
Melting point: 13-15.5 C
Class: COBLENTZ
Instrument: Not specified, most likely a prism, grating, or hybrid spectrometer.
Sampling: TRANSMISSION
Path length: CAPILLARY
Resolution: 4
Origin: WYANDOTTE CHEMICALS CORP., WYANDOTTE, MICHIGAN, USA
MICROMETERS	TRANSMITTANCE
2.053	0.983
2.09281	0.986
2.13262	0.981
2.17243	0.976
2.21225	0.976
2.25206	0.971
2.29187	0.975
2.33168	0.978
2.37149	0.97
2.4113	0.971
2.45111	0.98
2.49092	0.973
2.53074	0.978
2.57055	0.99
2.61036	0.988
2.65017	0.985
2.68998	0.968
2.72979	0.976
2.7696	0.975
2.80942	0.975
2.84923	0.971
2.88904	0.97
2.92885	0.966
2.96866	0.963
3.00847	0.96
3.04828	0.951
3.08809	0.953
3.12791	0.938
3.16772	0.932
3.20753	0.903
3.24734	0.837
3.28715	0.835
3.32696	0.699
3.36677	0.724
3.40659	0.771
3.4464	0.832
3.48621	0.859
3.52602	0.922
3.56583	0.935
3.60564	0.946
3.64545	0.95
3.68526	0.95
3.72508	0.96
3.76489	0.966
3.8047	0.968
3.84451	0.958
3.88432	0.95
3.92413	0.966
3.96394	0.956
4.00376	0.961
4.04357	0.966
4.08338	0.961
4.12319	0.956
4.163	0.958
4.20281	0.96
4.24262	0.958
4.28243	0.98
4.32225	0.985
4.36206	0.988
4.40187	0.968
4.44168	0.961
4.48149	0.968
4.5213	0.975
4.56111	0.976
4.60092	0.978
4.64074	0.97
4.68055	0.976
4.72036	0.983
4.76017	0.985
4.79998	0.976
4.83979	0.983
4.8796	0.983
4.91942	0.985
4.95923	0.981
4.99904	0.983
5.03885	0.971
5.07866	0.975
5.11847	0.973
5.15828	0.968
5.19809	0.95
5.23791	0.927
5.27772	0.958
5.31753	0.963
5.35734	0.97
5.39715	0.971
5.43696	0.97
5.47677	0.966
5.51659	0.95
5.5564	0.948
5.59621	0.955
5.63602	0.948
5.67583	0.925
5.71564	0.938
5.75545	0.941
5.79526	0.933
5.83508	0.928
5.87489	0.922
5.9147	0.92
5.95451	0.895
5.99432	0.867
6.03413	0.862
6.07394	0.88
6.11376	0.845
6.15357	0.8
6.19338	0.47
6.23319	0.771
6.273	0.865
6.31281	0.897
6.35262	0.903
6.39243	0.897
6.43225	0.885
6.47206	0.872
6.51187	0.86
6.55168	0.864
6.59149	0.834
6.6313	0.673
6.67111	0.772
6.71093	0.776
6.75074	0.651
6.79055	0.595
6.83036	0.552
6.87017	0.51
6.90998	0.606
6.94979	0.673
6.9896	0.65
7.02942	0.658
7.06923	0.648
7.10904	0.572
7.14885	0.572
7.18866	0.49
7.22847	0.407
7.26828	0.17
7.3081	0.112
7.34791	0.126
7.38772	0.194
7.42753	0.313
7.46734	0.461
7.50715	0.597
7.54696	0.698
7.58677	0.645
7.62659	0.489
7.6664	0.542
7.70621	0.548
7.74602	0.613
7.78583	0.711
7.82564	0.759
7.86545	0.83
7.90527	0.852
7.94508	0.855
7.98489	0.827
8.0247	0.809
8.06451	0.796
8.10432	0.767
8.14413	0.724
8.18394	0.688
8.22376	0.63
8.26357	0.679
8.30338	0.645
8.34319	0.396
8.383	0.104
8.42281	0.159
8.46262	0.071
8.50244	0.096
8.54225	0.25
8.58206	0.51
8.62187	0.689
8.66168	0.776
8.70149	0.824
8.7413	0.847
8.78111	0.849
8.82093	0.847
8.86074	0.781
8.90055	0.689
8.94036	0.754
8.98017	0.701
9.01998	0.565
9.05979	0.326
9.09961	0.391
9.13942	0.517
9.17923	0.626
9.21904	0.734
9.25885	0.759
9.29866	0.754
9.33847	0.737
9.37828	0.737
9.4181	0.761
9.45791	0.762
9.49772	0.737
9.53753	0.683
9.57734	0.661
9.61715	0.663
9.65696	0.701
9.69677	0.724
9.73659	0.691
9.7764	0.563
9.81621	0.499
9.85602	0.464
9.89583	0.346
9.93564	0.298
9.97545	0.286
10.0153	0.301
10.0551	0.318
10.0949	0.325
10.1347	0.323
10.1745	0.318
10.2143	0.316
10.2541	0.351
10.2939	0.402
10.3338	0.452
10.3736	0.5
10.4134	0.53
10.4532	0.529
10.493	0.517
10.5328	0.466
10.5726	0.369
10.6124	0.26
10.6522	0.177
10.6921	0.145
10.7319	0.149
10.7717	0.174
10.8115	0.205
10.8513	0.24
10.8911	0.295
10.9309	0.386
10.9707	0.459
11.0105	0.537
11.0504	0.598
11.0902	0.645
11.13	0.671
11.1698	0.681
11.2096	0.676
11.2494	0.668
11.2892	0.646
11.329	0.646
11.3689	0.669
11.4087	0.694
11.4485	0.704
11.4883	0.709
11.5281	0.711
11.5679	0.713
11.6077	0.701
11.6475	0.683
11.6873	0.679
11.7272	0.665
11.767	0.61
11.8068	0.553
11.8466	0.464
11.8864	0.384
11.9262	0.328
11.966	0.288
12.0058	0.271
12.0456	0.268
12.0855	0.281
12.1253	0.301
12.1651	0.315
12.2049	0.301
12.2447	0.255
12.2845	0.228
12.3243	0.243
12.3641	0.296
12.4039	0.381
12.4438	0.461
12.4836	0.524
12.5234	0.567
12.5632	0.592
12.603	0.603
12.6428	0.605
12.6826	0.595
12.7224	0.583
12.7622	0.577
12.8021	0.565
12.8419	0.525
12.8817	0.466
12.9215	0.398
12.9613	0.359
13.0011	0.348
13.0409	0.358
13.0807	0.378
13.1205	0.401
13.1604	0.406
13.2002	0.419
13.24	0.426
13.2798	0.417
13.3196	0.409
13.3594	0.396
13.3992	0.389
13.439	0.384
13.4789	0.389
13.5187	0.406
13.5585	0.431
13.5983	0.461
13.6381	0.504
13.6779	0.548
13.7177	0.597
13.7575	0.628
13.7973	0.65
13.8372	0.688
13.877	0.714
13.9168	0.741
13.9566	0.764
13.9964	0.776
14.0362	0.784
14.076	0.787
14.1158	0.769
14.1556	0.734
14.1955	0.698
14.2353	0.701
14.2751	0.726
14.3149	0.756
14.3547	0.766
14.3945	0.767
14.4343	0.754
14.4741	0.713
14.5139	0.674
14.5538	0.628
14.5936	0.61
14.6334	0.615
14.6732	0.63
14.713	0.641
14.7528	0.648
14.7926	0.646
14.8324	0.625
14.8722	0.587
14.9121	0.537
14.9519	0.477
14.9917	0.447
15.0315	0.442
15.0713	0.441
15.1111	0.414
15.1509	0.399
15.1907	0.414
15.2305	0.457
15.2704	0.499
15.3102	0.517
15.35	0.548
15.3898	0.578
15.4296	0.601
15.4694	0.636
15.5092	0.679
15.549	0.708
15.5889	0.723
15.6287	0.741
15.6685	0.751
15.7083	0.756
15.7481	0.757
15.7879	0.764
15.8277	0.756
15.8675	0.759
15.9073	0.764
15.9472	0.764
15.987	0.762
