Infrared Spectrum: PHTHALIC ANHYDRIDE, TETRABROMO-
Formula: C8 Br4 O3
CAS: 632-79-1
State: SOLID (CsI DISC)
Class: COBLENTZ III
Instrument: PERKIN-ELMER 283
Sampling: TRANSMISSION
Resolution: 4
Origin: PERKIN-ELMER
1/CM	TRANSMITTANCE
250.811	0.997
260.545	0.972
270.279	0.983
280.013	0.978
289.747	0.956
299.481	0.935
309.215	0.98
318.949	0.972
328.683	0.983
338.417	0.98
348.151	0.981
357.884	0.984
367.618	0.983
377.352	0.975
387.086	0.97
396.82	0.969
406.554	0.99
416.288	0.989
426.022	0.883
435.756	0.934
445.49	0.988
455.224	0.99
464.958	0.992
474.692	0.99
484.426	0.992
494.16	0.998
503.894	0.99
513.628	0.987
523.362	0.984
533.096	0.983
542.83	0.979
552.564	0.965
562.298	0.957
572.031	0.947
581.765	0.965
591.499	0.966
601.233	0.956
610.967	0.953
620.701	0.936
630.435	0.872
640.169	0.923
649.903	0.833
659.637	0.637
669.371	0.36
679.105	0.849
688.839	0.932
698.573	0.923
708.307	0.922
718.041	0.94
727.775	0.935
737.509	0.651
747.243	0.869
756.977	0.935
766.711	0.941
776.444	0.941
786.178	0.939
795.912	0.934
805.646	0.94
815.38	0.936
825.114	0.935
834.848	0.94
844.582	0.932
854.316	0.921
864.05	0.901
873.784	0.89
883.518	0.887
893.252	0.82
902.986	0.736
912.72	0.701
922.454	0.375
932.188	0.292
941.922	0.3741
951.656	0.735
961.39	0.823
971.124	0.869
980.857	0.88
990.591	0.889
1000.33	0.891
1010.06	0.89
1019.79	0.889
1029.53	0.889
1039.26	0.877
1049	0.883
1058.73	0.878
1068.46	0.886
1078.2	0.885
1087.93	0.873
1097.66	0.849
1107.4	0.855
1117.13	0.837
1126.87	0.825
1136.6	0.794
1146.33	0.704
1156.07	0.818
1165.8	0.801
1175.54	0.738
1185.27	0.594
1195	0.3709
1204.74	0.136
1214.47	0.242
1224.21	0.2771
1233.94	0.714
1243.67	0.77
1253.41	0.783
1263.14	0.714
1272.88	0.4241
1282.61	0.8
1292.34	0.802
1302.08	0.811
1311.81	0.766
1321.55	0.732
1331.28	0.6899
1341.01	0.2689
1350.75	0.4871
1360.48	0.5029
1370.22	0.4771
1379.95	0.781
1389.68	0.819
1399.42	0.818
1409.15	0.816
1418.89	0.819
1428.62	0.841
1438.35	0.858
1448.09	0.858
1457.82	0.855
1467.56	0.85
1477.29	0.851
1487.02	0.856
1496.76	0.869
1506.49	0.856
1516.22	0.852
1525.96	0.855
1535.69	0.841
1545.43	0.845
1555.16	0.818
1564.89	0.781
1574.63	0.829
1584.36	0.829
1594.1	0.81
1603.83	0.788
1613.56	0.789
1623.3	0.811
1633.03	0.832
1642.77	0.838
1652.5	0.837
1662.23	0.838
1671.97	0.832
1681.7	0.824
1691.44	0.815
1701.17	0.803
1710.9	0.792
1720.64	0.774
1730.37	0.74
1740.11	0.672
1749.84	0.547
1759.57	0.3998
1769.31	0.1
1779.04	0.101
1788.78	0.2001
1798.51	0.517
1808.24	0.534
1817.98	0.4239
1827.71	0.261
1837.45	0.374
1847.18	0.4981
1856.91	0.589
1866.65	0.569
1876.38	0.57
1886.12	0.543
1895.85	0.708
1905.58	0.776
1915.32	0.8
1925.05	0.812
1934.78	0.809
1944.52	0.811
1954.25	0.818
1963.99	0.82
1973.72	0.824
1983.45	0.824
1993.19	0.824
2002.92	0.8155
2012.66	0.812
2022.39	0.8095
2032.12	0.8041
2041.86	0.8038
2051.59	0.8094
2061.33	0.8022
2071.06	0.7976
2080.79	0.7963
2090.53	0.8076
2100.26	0.8084
2110	0.8078
2119.73	0.81
2129.46	0.8025
2139.2	0.8
2148.93	0.801
2158.67	0.8112
2168.4	0.811
2178.13	0.809
2187.87	0.809
2197.6	0.8047
2207.34	0.803
2217.07	0.809
2226.8	0.803
2236.54	0.801
2246.27	0.802
2256.01	0.805
2265.74	0.805
2275.47	0.806
2285.21	0.8
2294.94	0.798
2304.68	0.802
2314.41	0.809
2324.14	0.81
2333.88	0.811
2343.61	0.8026
2353.34	0.8018
2363.08	0.8068
2372.81	0.8022
2382.55	0.7965
2392.28	0.7923
2402.01	0.7843
2411.75	0.7803
2421.48	0.7793
2431.22	0.7767
2440.95	0.7728
2450.68	0.77
2460.42	0.77
2470.15	0.771
2479.89	0.7715
2489.62	0.7705
2499.35	0.7695
2509.09	0.7705
2518.82	0.7745
2528.56	0.7769
2538.29	0.7784
2548.02	0.788
2557.76	0.7859
2567.49	0.7804
2577.23	0.7817
2586.96	0.7863
2596.69	0.788
2606.43	0.7833
2616.16	0.7805
2625.9	0.772
2635.63	0.7782
2645.36	0.775
2655.1	0.776
2664.83	0.774
2674.57	0.767
2684.3	0.766
2694.03	0.7629
2703.77	0.7574
2713.5	0.7671
2723.24	0.77
2732.97	0.7689
2742.7	0.763
2752.44	0.767
2762.17	0.762
2771.9	0.763
2781.64	0.76
2791.37	0.7579
2801.11	0.7629
2810.84	0.7571
2820.57	0.7436
2830.31	0.7342
2840.04	0.7408
2849.78	0.7302
2859.51	0.723
2869.24	0.723
2878.98	0.7223
2888.71	0.7173
2898.45	0.7205
2908.18	0.715
2917.91	0.705
2927.65	0.6914
2937.38	0.6896
2947.12	0.7006
2956.85	0.7058
2966.58	0.7126
2976.32	0.714
2986.05	0.72
2995.79	0.719
3005.52	0.7175
3015.25	0.721
3024.99	0.7176
3034.72	0.718
3044.46	0.7188
3054.19	0.7206
3063.92	0.72
3073.66	0.72
3083.39	0.7177
3093.13	0.717
3102.86	0.7177
3112.59	0.7137
3122.33	0.7115
3132.06	0.713
3141.8	0.7244
3151.53	0.716
3161.26	0.718
3171	0.7172
3180.73	0.717
3190.46	0.72
3200.2	0.721
3209.93	0.7217
3219.67	0.7169
3229.4	0.7159
3239.13	0.716
3248.87	0.717
3258.6	0.718
3268.34	0.714
3278.07	0.714
3287.8	0.717
3297.54	0.717
3307.27	0.716
3317.01	0.707
3326.74	0.7165
3336.47	0.7123
3346.21	0.7104
3355.94	0.71
3365.68	0.7085
3375.41	0.707
3385.14	0.707
3394.88	0.7033
3404.61	0.7003
3414.35	0.7057
3424.08	0.7044
3433.81	0.7003
3443.55	0.7
3453.28	0.7004
3463.02	0.694
3472.75	0.6986
3482.48	0.699
3492.22	0.693
3501.95	0.6955
3511.69	0.6985
3521.42	0.6915
3531.15	0.69
3540.89	0.6954
3550.62	0.6854
3560.36	0.6956
3570.09	0.686
3579.82	0.685
3589.56	0.677
3599.29	0.6773
3609.02	0.687
3618.76	0.687
3628.49	0.685
3638.23	0.6917
3647.96	0.6892
3657.69	0.692
3667.43	0.692
3677.16	0.69
3686.9	0.6951
3696.63	0.6938
3706.36	0.6951
3716.1	0.6979
3725.83	0.691
3735.57	0.694
3745.3	0.69
3755.03	0.686
3764.77	0.69
3774.5	0.6919
3784.24	0.6911
3793.97	0.687
3803.7	0.6897
3813.44	0.6877
3823.17	0.685
3832.91	0.6868
3842.64	0.687
3852.37	0.686
3862.11	0.6822
3871.84	0.6825
3881.58	0.682
3891.31	0.6803
3901.04	0.6794
3910.78	0.677
3920.51	0.676
3930.25	0.674
3939.98	0.6705
3949.71	0.6766
3959.45	0.677
3969.18	0.67
3978.92	0.6751
3988.65	0.666
3998.38	0.6585
