Infrared Spectrum: Bulbocapnine, hydrochloride
Formula: C19 H20 Cl N O4
CAS: 632-47-3
State: SOLID (OIL MULL)
Class: COBLENTZ III
Instrument: PERKIN-ELMER 21 (GRATING)
Instrument parameters: NaCl PRISM
Sampling: TRANSMISSION
Resolution: 2
Origin: SMITH KLINE & FRENCH LABS.
1/CM	TRANSMITTANCE
663	0.7405
672	0.7657
681	0.7913
690	0.8052
699	0.7542
708	0.8216
717	0.8159
726	0.7938
735	0.8137
744	0.7814
753	0.7775
762	0.7647
771	0.7854
780	0.8835
789	0.8828
798	0.8591
807	0.5457
816	0.8407
825	0.839
834	0.8574
843	0.8093
852	0.8786
861	0.8699
870	0.8491
879	0.8447
888	0.7687
897	0.732
906	0.8267
915	0.6615
924	0.7335
933	0.7715
942	0.6455
951	0.4071
960	0.622
969	0.6848
978	0.7502
987	0.7908
996	0.782
1005	0.7468
1014	0.7543
1023	0.6275
1032	0.673
1041	0.4964
1050	0.3649
1059	0.4504
1068	0.652
1077	0.4374
1086	0.7184
1095	0.6273
1104	0.5317
1113	0.6669
1122	0.6202
1131	0.6769
1140	0.7429
1149	0.7171
1158	0.6526
1167	0.5696
1176	0.5609
1185	0.6605
1194	0.6328
1203	0.651
1212	0.6158
1221	0.3388
1230	0.1563
1239	0.1747
1248	0.3382
1257	0.628
1266	0.7135
1275	0.7205
1284	0.6368
1293	0.7002
1302	0.5921
1311	0.5892
1320	0.6029
1329	0.5066
1338	0.5511
1347	0.4678
1356	0.6467
1365	0.611
1374	0.5704
1383	0.5369
1392	0.6375
1401	0.5561
1410	0.4496
1419	0.3248
1428	0.4691
1437	0.3409
1446	0.222
1455	0.2107
1464	0.0974
1473	0.1847
1482	0.2755
1491	0.5516
1500	0.4797
1509	0.6537
1518	0.8236
1527	0.8444
1536	0.8487
1545	0.8433
1554	0.8412
1563	0.8093
1572	0.7779
1581	0.6927
1590	0.6764
1599	0.6867
1608	0.6307
1617	0.6997
1626	0.7653
1635	0.762
1644	0.7612
1653	0.7692
1662	0.8297
1671	0.8461
1680	0.8674
1689	0.87
1698	0.8703
1707	0.8695
1716	0.8687
1725	0.8695
1734	0.8754
1743	0.8827
1752	0.8823
1761	0.8732
1770	0.8655
1779	0.8582
1788	0.8619
1797	0.8776
1806	0.882
1815	0.8809
1824	0.8767
1833	0.87
1842	0.868
1851	0.871
1860	0.8715
1869	0.8664
1878	0.8696
1887	0.8681
1896	0.8671
1905	0.8692
1914	0.8703
1923	0.8701
1932	0.8686
1941	0.8658
1950	0.8639
1959	0.8616
1968	0.8547
1977	0.8522
1986	0.8504
1995	0.8481
2004	0.8485
2013	0.8528
2022	0.857
2031	0.8559
2040	0.8519
2049	0.8486
2058	0.8452
2067	0.844
2076	0.8454
2085	0.8449
2094	0.8414
2103	0.8396
2112	0.8393
2121	0.8339
2130	0.8309
2139	0.829
2148	0.8259
2157	0.8221
2166	0.8183
2175	0.8145
2184	0.8104
2193	0.806
2202	0.8015
2211	0.7971
2220	0.7955
2229	0.7901
2238	0.7821
2247	0.7738
2256	0.7655
2265	0.761
2274	0.7557
2283	0.7485
2292	0.7397
2301	0.7258
2310	0.7057
2319	0.6826
2328	0.6496
2337	0.6288
2346	0.6099
2355	0.5828
2364	0.5766
2373	0.5764
2382	0.5543
2391	0.5146
2400	0.4753
2409	0.4527
2418	0.4353
2427	0.4254
2436	0.4213
2445	0.4177
2454	0.4078
2463	0.3922
2472	0.373
2481	0.3548
2490	0.3577
2499	0.3681
2508	0.3669
2517	0.3647
2526	0.3745
2535	0.4141
2544	0.4692
2553	0.506
2562	0.5316
2571	0.5605
2580	0.5783
2589	0.585
2598	0.6021
2607	0.6069
2616	0.6086
2625	0.6298
2634	0.6343
2643	0.6325
2652	0.6311
2661	0.6305
2670	0.6301
2679	0.63
2688	0.6329
2697	0.6381
2706	0.6469
2715	0.6561
2724	0.6628
2733	0.6645
2742	0.6642
2751	0.6629
2760	0.6594
2769	0.6516
2778	0.6385
2787	0.6212
2796	0.599
2805	0.5512
2814	0.5082
2823	0.4314
2832	0.3025
2841	0.1747
2850	0.1224
2859	0.1137
2868	0.11
2877	0.1067
2886	0.0862
2895	0.0665
2904	0.0475
2913	0.0479
2922	0.0527
2931	0.0587
2940	0.0707
2949	0.1145
2958	0.1975
2967	0.2801
2976	0.3621
2985	0.4365
2994	0.4592
3003	0.4847
3012	0.4939
3021	0.4954
3030	0.4946
3039	0.4938
3048	0.49
3057	0.4797
3066	0.4616
3075	0.4435
3084	0.4256
3093	0.4077
3102	0.39
3111	0.3722
3120	0.3628
3129	0.3581
3138	0.3572
3147	0.3588
3156	0.3741
3165	0.3997
3174	0.4251
3183	0.4504
3192	0.4842
3201	0.5017
3210	0.514
3219	0.5332
3228	0.5455
3237	0.5559
3246	0.564
3255	0.5725
3264	0.5822
3273	0.5906
3282	0.5975
3291	0.5996
3300	0.601
3309	0.6008
3318	0.6004
3327	0.6002
3336	0.6006
3345	0.603
3354	0.6106
3363	0.618
3372	0.6193
3381	0.6202
3390	0.6201
3399	0.6199
3408	0.6198
3417	0.6198
3426	0.6207
3435	0.6217
3444	0.6234
3453	0.6256
3462	0.628
3471	0.6307
3480	0.6337
3489	0.6375
3498	0.6417
3507	0.6475
3516	0.6538
3525	0.658
3534	0.6614
3543	0.6624
3552	0.6623
3561	0.6623
3570	0.6617
3579	0.6609
3588	0.6602
3597	0.6595
3606	0.6588
3615	0.6582
3624	0.6577
3633	0.6574
3642	0.6574
3651	0.6574
3660	0.6574
3669	0.6573
3678	0.6573
3687	0.6572
3696	0.6572
3705	0.6572
3714	0.6572
3723	0.6572
3732	0.6559
3741	0.6538
3750	0.6512
3759	0.6482
3768	0.6457
3777	0.6444
3786	0.6427
3795	0.6408
3804	0.6361
3813	0.6321
3822	0.6302
3831	0.6295
3840	0.6289
3849	0.6283
3858	0.628
3867	0.6275
3876	0.6271
3885	0.6266
3894	0.6257
3903	0.6246
3912	0.6225
3921	0.6205
3930	0.6201
3939	0.6197
3948	0.6192
3957	0.6189
3966	0.6186
3975	0.6184
3984	0.6182
3993	0.6175
