Infrared Spectrum: Tetraphenylethylene
Formula: C 26 H 20
CAS: 632-51-9
State: gas
Instrument: HP-GC/MS/IRD
Origin: NIST Mass Spectrometry Data Center
1/CM	ABSORBANCE
550	0.000315
562	0.00117
574	0.002661
586	0.000321
598	0.000162
610	0.002838
622	0.005811
634	0.000855
646	0.000711
658	0.001251
670	0.002832
682	0.00378
694	0.023208
706	0.015657
718	0.002823
730	0.002091
742	0.008262
754	0.009501
766	0.00291
778	0.00135
790	0.000552
802	0.000564
814	0.00054
826	0.000504
838	0.000447
850	0.000192
862	0.000423
874	0.000216
886	0.00018
898	0.000378
910	0.000885
922	0.000474
934	0.000198
946	0.000174
958	0.000246
970	0.000468
982	0.000645
994	0.000507
1006	0.000726
1018	0.000933
1030	0.003138
1042	0.000612
1054	0.000345
1066	0.001578
1078	0.001686
1090	0.000336
1102	0.000435
1114	0.000189
1126	2.4e-05
1138	2.4e-05
1150	0.000123
1162	0.000174
1174	0.000282
1186	0.000345
1198	0.000153
1210	0.000114
1222	0.000219
1234	0.00045
1246	0.000294
1258	0.000534
1270	0.000771
1282	0.000441
1294	0.000384
1306	0.000258
1318	0.000273
1330	0.000588
1342	0.000255
1354	0.000162
1366	0.000321
1378	0.000444
1390	0.000282
1402	0.000309
1414	0.000282
1426	0.000597
1438	0.002541
1450	0.002367
1462	0.000696
1474	0.001092
1486	0.004809
1498	0.003963
1510	0.001089
1522	0.000621
1534	0.000792
1546	0.000504
1558	0.000441
1570	0.001176
1582	0.001617
1594	0.003555
1606	0.00225
1618	0.000504
1630	0.000255
1642	0.000255
1654	0.000384
1666	0.000486
1678	0.000525
1690	0.000285
1702	0.000252
1714	0.000276
1726	0.000366
1738	0.000576
1750	0.000651
1762	0.000348
1774	0.000405
1786	0.000639
1798	0.001371
1810	0.000768
1822	0.000501
1834	0.0003
1846	0.000273
1858	0.00045
1870	0.000861
1882	0.000939
1894	0.000633
1906	0.000294
1918	0.000339
1930	0.000849
1942	0.001407
1954	0.001089
1966	0.000288
1978	0.000198
1990	0.000138
2002	0.000144
2014	0.000123
2026	0.000102
2038	9.9e-05
2050	0.000123
2062	8.4e-05
2074	8.1e-05
2086	0.000105
2098	0.00012
2110	8.4e-05
2122	9e-05
2134	8.7e-05
2146	9.3e-05
2158	8.1e-05
2170	0.000123
2182	0.000123
2194	0.000123
2206	0.000105
2218	9.6e-05
2230	9.6e-05
2242	0.000111
2254	0.000138
2266	0.000117
2278	0.000147
2290	0.000162
2302	0.000168
2314	0.000306
2326	0.000198
2338	0.000291
2350	0.000165
2362	0.000186
2374	0.000108
2386	0.000108
2398	0.000126
2410	0.000144
2422	0.000144
2434	0.00015
2446	0.000105
2458	0.000123
2470	0.000123
2482	0.00012
2494	0.000105
2506	9.9e-05
2518	0.000135
2530	0.000108
2542	0.000102
2554	0.000102
2566	0.000156
2578	0.000156
2590	0.000162
2602	0.000177
2614	0.000138
2626	0.000156
2638	0.000114
2650	0.000114
2662	9.3e-05
2674	9.9e-05
2686	9.3e-05
2698	8.1e-05
2710	8.4e-05
2722	0.000114
2734	0.000108
2746	0.000102
2758	0.000105
2770	0.000135
2782	0.000135
2794	0.000144
2806	0.000165
2818	0.000132
2830	0.000156
2842	0.000219
2854	0.000246
2866	0.000249
2878	0.000321
2890	0.00027
2902	0.000261
2914	0.000246
2926	0.000375
2938	0.000279
2950	0.000246
2962	0.00033
2974	0.000447
2986	0.000525
2998	0.000921
3010	0.002271
3022	0.005805
3034	0.006696
3046	0.005049
3058	0.010323
3070	0.015021
3082	0.010008
3094	0.004644
3106	0.002439
3118	0.001014
3130	0.000717
3142	0.000681
3154	0.000492
3166	0.000288
3178	0.000222
3190	0.000204
3202	0.000132
3214	0.000117
3226	0.000162
3238	0.00012
3250	8.4e-05
3262	0.000105
3274	0.000117
3286	9.6e-05
3298	0.000108
3310	0.000117
3322	0.000141
3334	0.000144
3346	0.000123
3358	0.000114
3370	0.000156
3382	0.000141
3394	0.000132
3406	9e-05
3418	0.000132
3430	0.000135
3442	9.9e-05
3454	0.000135
3466	0.000117
3478	0.000105
3490	0.000138
3502	0.000135
3514	0.000129
3526	0.000195
3538	0.000147
3550	0.000111
3562	0.000162
3574	0.000135
3586	0.000114
3598	0.000123
3610	0.000174
3622	0.00018
3634	0.000177
3646	0.000243
3658	0.000213
3670	0.000204
3682	0.000195
3694	0.000225
3706	0.00021
3718	0.000195
3730	0.000204
3742	0.000198
3754	0.000192
3766	0.000153
3778	0.000132
3790	0.000117
3802	0.000207
3814	0.000183
3826	0.000147
3838	0.000138
