Infrared Spectrum: 1,1,2,2-Tetraphenylethane
Formula: C 26 H 22
CAS: 632-50-8
State: gas
Instrument: HP-GC/MS/IRD
Origin: NIST Mass Spectrometry Data Center
1/CM	ABSORBANCE
550	0.000706
562	0.00262
574	0.000888
586	0.000492
598	0.00127
610	0.006342
622	0.000952
634	0.000476
646	0.000478
658	0.000916
670	0.002012
682	0.003488
694	0.016928
706	0.00979
718	0.002558
730	0.00318
742	0.009236
754	0.002056
766	0.000938
778	0.000688
790	0.00058
802	0.000394
814	0.00025
826	0.00023
838	0.00017
850	0.000146
862	0.000168
874	0.000174
886	0.000158
898	0.000298
910	0.00052
922	0.00032
934	0.000178
946	2.8e-05
958	9e-05
970	0.000186
982	0.000144
994	0.000202
1006	0.000462
1018	0.00048
1030	0.002088
1042	0.000496
1054	0.000222
1066	0.000988
1078	0.001106
1090	0.000264
1102	0.00033
1114	0.000112
1126	0.000108
1138	0.000124
1150	0.00014
1162	0.00018
1174	0.000366
1186	0.000458
1198	0.000346
1210	0.000436
1222	0.00032
1234	0.000382
1246	0.000256
1258	0.000246
1270	0.000278
1282	0.000318
1294	0.000278
1306	0.000254
1318	0.000318
1330	0.000504
1342	0.000502
1354	0.000318
1366	0.000314
1378	0.000376
1390	0.000248
1402	0.000228
1414	0.000252
1426	0.000388
1438	0.000906
1450	0.00272
1462	0.000856
1474	0.000822
1486	0.002886
1498	0.0056
1510	0.00106
1522	0.000472
1534	0.000418
1546	0.000272
1558	0.000354
1570	0.000698
1582	0.001688
1594	0.003208
1606	0.002414
1618	0.000602
1630	0.000262
1642	0.00023
1654	0.000324
1666	0.000212
1678	0.00017
1690	0.000146
1702	0.00017
1714	0.00022
1726	0.000256
1738	0.000356
1750	0.000302
1762	0.000256
1774	0.000424
1786	0.000834
1798	0.000638
1810	0.000386
1822	0.000226
1834	0.000204
1846	0.000272
1858	0.000398
1870	0.00047
1882	0.000428
1894	0.00027
1906	0.000192
1918	0.000278
1930	0.000718
1942	0.00069
1954	0.000654
1966	0.000146
1978	9.4e-05
1990	7e-05
2002	7e-05
2014	6.6e-05
2026	2.8e-05
2038	3e-05
2050	2.4e-05
2062	4.8e-05
2074	5.4e-05
2086	5.8e-05
2098	2.6e-05
2110	1.8e-05
2122	0
2134	2.2e-05
2146	4.2e-05
2158	4e-05
2170	1.6e-05
2182	3.4e-05
2194	4.2e-05
2206	3e-05
2218	3.6e-05
2230	4.4e-05
2242	2.8e-05
2254	6e-05
2266	3.6e-05
2278	3e-05
2290	5.8e-05
2302	5.6e-05
2314	0.000152
2326	7.2e-05
2338	6.8e-05
2350	6.8e-05
2362	8.2e-05
2374	8.4e-05
2386	5e-05
2398	5.4e-05
2410	8.8e-05
2422	9.4e-05
2434	5.2e-05
2446	7.2e-05
2458	5.6e-05
2470	5.6e-05
2482	7.6e-05
2494	0.00014
2506	7.8e-05
2518	9.6e-05
2530	9.2e-05
2542	0.000108
2554	0.000106
2566	9.6e-05
2578	0.000148
2590	0.000134
2602	0.000154
2614	0.00013
2626	0.000106
2638	0.0001
2650	7.6e-05
2662	0.000104
2674	7.6e-05
2686	8.4e-05
2698	6.8e-05
2710	3.8e-05
2722	6.8e-05
2734	4e-05
2746	6.8e-05
2758	0.000106
2770	0.000122
2782	0.000144
2794	0.000138
2806	0.00012
2818	0.000106
2830	0.000112
2842	0.000148
2854	0.000228
2866	0.000216
2878	0.000314
2890	0.00041
2902	0.000794
2914	0.001592
2926	0.001072
2938	0.0006
2950	0.000396
2962	0.000362
2974	0.000396
2986	0.000502
2998	0.000906
3010	0.001696
3022	0.004584
3034	0.008472
3046	0.004772
3058	0.0056
3070	0.011128
3082	0.005686
3094	0.00417
3106	0.002182
3118	0.001
3130	0.00047
3142	0.000308
3154	0.000334
3166	0.000256
3178	0.000222
3190	0.000114
3202	0.000128
3214	8e-05
3226	2.2e-05
3238	8.6e-05
3250	7.8e-05
3262	8.2e-05
3274	7.8e-05
3286	9e-05
3298	8.8e-05
3310	0.000108
3322	8e-05
3334	0.000108
3346	9e-05
3358	6.4e-05
3370	7.4e-05
3382	6.6e-05
3394	5.8e-05
3406	9.4e-05
3418	8.8e-05
3430	0.000114
3442	0.000126
3454	9.4e-05
3466	0.000136
3478	9.8e-05
3490	0.0001
3502	0.00015
3514	7.8e-05
3526	0.00012
3538	0.00011
3550	0.000118
3562	0.000128
3574	7.4e-05
3586	0.000126
3598	0.000104
3610	0.00013
3622	0.000178
3634	0.000114
3646	0.000192
3658	0.000148
3670	0.000218
3682	0.000188
3694	0.000222
3706	0.000234
3718	0.000108
3730	0.000132
3742	0.000178
3754	0.000154
3766	0.00012
3778	0.000126
3790	0.000132
3802	0.00018
3814	0.000202
3826	0.000108
3838	0.00018
