Infrared Spectrum: 2,6-Dimethylbenzoic acid
Formula: C 9 H 10 O 2
CAS: 632-46-2
State: gas
Origin: EPA-IR VAPOR PHASE LIBRARY
1/CM	ABSORBANCE
551.7	0.004798
563.274	0.006618
574.848	0.006208
586.421	0.006198
597.995	0.005648
609.569	0.003218
621.143	0.001448
632.717	0.00108
644.291	0.0010276
655.864	0.001118
667.438	0.003038
679.012	0.007858
690.586	0.005738
702.16	0.001838
713.734	0.002088
725.307	0.002618
736.881	0.002618
748.455	0.003518
760.029	0.007158
771.603	0.009758
783.177	0.005088
794.75	0.002438
806.324	0.0009602
817.898	0.0005619
829.472	0.0004327
841.046	0.0005239
852.619	0.0004102
864.193	0.0004278
875.767	0.0003241
887.341	0.00027
898.915	0.0003413
910.489	0.000244
922.062	0.0004864
933.636	0.0004956
945.21	0.0006046
956.784	0.0006086
968.358	0.0007539
979.932	0.0007813
991.505	0.000972
1003.08	0.001318
1014.65	0.001818
1026.23	0.002648
1037.8	0.005158
1049.37	0.012308
1060.95	0.017618
1072.52	0.011378
1084.1	0.006678
1095.67	0.008808
1107.24	0.010598
1118.82	0.005778
1130.39	0.003188
1141.97	0.003338
1153.54	0.005148
1165.11	0.007968
1176.69	0.012728
1188.26	0.017018
1199.83	0.011798
1211.41	0.004998
1222.98	0.002868
1234.56	0.002458
1246.13	0.002378
1257.7	0.002688
1269.28	0.003568
1280.85	0.004988
1292.42	0.007208
1304	0.007898
1315.57	0.005948
1327.15	0.003868
1338.72	0.002798
1350.29	0.002268
1361.87	0.002018
1373.44	0.002078
1385.02	0.002268
1396.59	0.001978
1408.16	0.001718
1419.74	0.002338
1431.31	0.002928
1442.88	0.003088
1454.46	0.003988
1466.03	0.004448
1477.61	0.003578
1489.18	0.002408
1500.75	0.001578
1512.33	0.001188
1523.9	0.001198
1535.48	0.001368
1547.05	0.001398
1558.62	0.001508
1570.2	0.001938
1581.77	0.002798
1593.34	0.003368
1604.92	0.001838
1616.49	0.0008603
1628.07	0.0006217
1639.64	0.0005949
1651.21	0.0008191
1662.79	0.0008133
1674.36	0.0008672
1685.93	0.0010267
1697.51	0.001548
1709.08	0.003078
1720.66	0.005228
1732.23	0.006828
1743.8	0.014428
1755.38	0.034458
1766.95	0.039408
1778.53	0.016768
1790.1	0.007608
1801.67	0.004958
1813.25	0.002148
1824.82	0.001268
1836.39	0.0010536
1847.97	0.0010817
1859.54	0.0009698
1871.12	0.0005857
1882.69	0.0003937
1894.26	0.0002774
1905.84	0.0002706
1917.41	0.0003526
1928.99	0.0005568
1940.56	0.0005428
1952.13	0.0003836
1963.71	0.0003174
1975.28	0.0002365
1986.85	0.0002255
1998.43	0.00017496
2010	0.00018378
2021.58	0.00014504
2033.15	0.00014143
2044.72	0.000114462
2056.3	0.00020039
2067.87	0.00012029
2079.44	0.00016604
2091.02	0.0002187
2102.59	0.00019414
2114.17	0.0002204
2125.74	0.0002491
2137.31	0.0002535
2148.89	0.0002224
2160.46	0.0002559
2172.04	0.00020281
2183.61	0.00016477
2195.18	0.0001282
2206.76	0.00011828
2218.33	0.00018688
2229.9	9.4e-05
2241.48	0.00013324
2253.05	0.00017966
2264.63	0.00012884
2276.2	0.00013982
2287.77	0.00016347
2299.35	0.00013787
2310.92	0.00019019
2322.5	0.00019574
2334.07	0.0002198
2345.64	0.00019961
2357.22	0.0002533
2368.79	0.0002629
2380.36	0.0002199
2391.94	0.00019877
2403.51	0.0001808
2415.09	0.00019523
2426.66	0.00019876
2438.23	0.00019442
2449.81	0.00017122
2461.38	0.00014923
2472.96	0.00016367
2484.53	0.00013477
2496.1	0.00016728
2507.68	0.000115785
2519.25	0.00014422
2530.82	0.00010499
2542.4	0.0001418
2553.97	0.00011984
2565.55	0.00013096
2577.12	0.00013471
2588.69	8.9e-05
2600.27	0.00010685
2611.84	9.67e-05
2623.41	0.00018678
2634.99	0.00014753
2646.56	0.00017112
2658.14	0.00011893
2669.71	9.56e-05
2681.28	0.000116751
2692.86	7.05e-05
2704.43	0.00011115
2716.01	7.55e-05
2727.58	0.00020315
2739.15	0.0002261
2750.73	0.0003214
2762.3	0.0003013
2773.87	0.0002228
2785.45	0.00020218
2797.02	0.0002991
2808.6	0.0003033
2820.17	0.0004579
2831.74	0.0006189
2843.32	0.0006459
2854.89	0.0010297
2866.47	0.001628
2878.04	0.002028
2889.61	0.002068
2901.19	0.001978
2912.76	0.002218
2924.33	0.003208
2935.91	0.004738
2947.48	0.004548
2959.06	0.003348
2970.63	0.003318
2982.2	0.003438
2993.78	0.002848
3005.35	0.002408
3016.92	0.002628
3028.5	0.003238
3040.07	0.003358
3051.65	0.003658
3063.22	0.004478
3074.79	0.004048
3086.37	0.002058
3097.94	0.0008522
3109.52	0.0005708
3121.09	0.0004314
3132.66	0.0004661
3144.24	0.0003119
3155.81	0.0002976
3167.38	0.0001907
3178.96	0.00016754
3190.53	0.0002109
3202.11	0.000107278
3213.68	9.28e-05
3225.25	9.73e-05
3236.83	8.94e-05
3248.4	0.00013449
3259.98	3.79e-05
3271.55	1e-06
3283.12	0.000117694
3294.7	9.35e-05
3306.27	7.12e-05
3317.84	7.13e-05
3329.42	0.00012917
3340.99	0.000109451
3352.57	0.000112876
3364.14	0.0002576
3375.71	0.0002114
3387.29	0.00014864
3398.86	0.0002164
3410.43	0.000116168
3422.01	0.00017287
3433.58	0.0002244
3445.16	6.53e-05
3456.73	0.0002453
3468.3	0.0003272
3479.88	0.000281
3491.45	0.0004665
3503.03	0.000515
3514.6	0.0006091
3526.17	0.0006087
3537.75	0.001498
3549.32	0.007648
3560.89	0.012758
3572.47	0.005268
3584.04	0.0008064
3595.62	0.0004204
3607.19	0.0005394
3618.76	0.0004409
3630.34	0.000232
3641.91	0.00010149
3653.49	0.0002274
3665.06	2.84e-05
3676.63	8.42e-05
3688.21	0.000117148
3699.78	1.89e-05
3711.35	0.00016569
3722.93	5.19e-05
3734.5	4.08e-05
3746.08	0.000107218
3757.65	3.18e-05
3769.22	0.00015756
3780.8	6.4e-05
3792.37	0.00018092
3803.94	0.0001957
3815.52	8.75e-05
3827.09	0.000107069
3838.67	0.00012876
3850.24	0.00014561
3861.81	1.96e-05
3873.39	4.92e-05
3884.96	0.00014996
3896.54	0
3908.11	0.00010432
3919.68	0.000109449
3931.26	0.00017899
3942.83	0.0002517
3954.4	0.00013448
3965.98	0.00016375
3977.55	0.00018043
3989.13	6.02e-05
4000.7	0.00015614
