Infrared Spectrum: 3-Methyl-4-hexyn-3-ol
Formula: C 7 H 12 O
CAS: 6320-68-9
State: gas
Origin: EPA-IR VAPOR PHASE LIBRARY
1/CM	ABSORBANCE
549.8	0.0075
559.445	0.00738
569.09	0.00511
578.734	0.00566
588.379	0.00559
598.024	0.00528
607.669	0.00533
617.313	0.00609
626.958	0.00565
636.603	0.00462
646.248	0.0051
655.893	0.00359
665.537	0.00354
675.182	0.00295
684.827	0.00244
694.472	0.00288
704.116	0.00279
713.761	0.0015731
723.406	0.0010441
733.051	0.0013385
742.695	0.00192
752.34	0.00179
761.985	0.00211
771.63	0.00224
781.275	0.00198
790.919	0.0031
800.564	0.0022
810.209	0.00249
819.854	0.00199
829.498	0.00406
839.143	0.00629
848.788	0.00806
858.433	0.00888
868.078	0.00621
877.722	0.00597
887.367	0.00961
897.012	0.02056
906.657	0.03256
916.301	0.03224
925.946	0.01982
935.591	0.00918
945.236	0.00587
954.88	0.00656
964.525	0.01133
974.17	0.01637
983.815	0.021
993.46	0.0204
1003.1	0.01778
1012.75	0.01437
1022.39	0.01331
1032.04	0.01613
1041.68	0.01685
1051.33	0.01152
1060.97	0.00846
1070.62	0.00688
1080.26	0.0088
1089.91	0.01007
1099.55	0.01245
1109.2	0.01714
1118.84	0.02527
1128.49	0.0322
1138.13	0.0355
1147.78	0.03577
1157.42	0.03453
1167.07	0.02607
1176.71	0.01953
1186.36	0.01799
1196	0.01948
1205.64	0.02265
1215.29	0.02156
1224.93	0.02048
1234.58	0.02106
1244.22	0.01952
1253.87	0.01937
1263.51	0.02006
1273.16	0.01982
1282.8	0.02008
1292.45	0.02101
1302.09	0.02305
1311.74	0.02532
1321.38	0.02968
1331.03	0.03512
1340.67	0.03795
1350.32	0.0365
1359.96	0.03166
1369.61	0.02929
1379.25	0.02845
1388.9	0.02109
1398.54	0.01212
1408.18	0.00878
1417.83	0.00896
1427.47	0.00851
1437.12	0.01028
1446.76	0.01346
1456.41	0.01629
1466.05	0.01468
1475.7	0.01063
1485.34	0.00718
1494.99	0.00593
1504.63	0.0052
1514.28	0.00357
1523.92	0.00316
1533.57	0.00329
1543.21	0.00367
1552.86	0.003
1562.5	0.00278
1572.15	0.00302
1581.79	0.00245
1591.44	0.00261
1601.08	0.003
1610.73	0.00292
1620.37	0.00308
1630.01	0.00235
1639.66	0.00237
1649.3	0.00234
1658.95	0.002
1668.59	0.0024
1678.24	0.00206
1687.88	0.00205
1697.53	0.00204
1707.17	0.00195
1716.82	0.00197
1726.46	0.0016073
1736.11	0.00183
1745.75	0.0018
1755.4	0.00196
1765.04	0.0011361
1774.69	0.001355
1784.33	0.0013665
1793.98	0.0009884
1803.62	0.0013738
1813.27	0.0012469
1822.91	0.0014884
1832.55	0.0010886
1842.2	0.0010797
1851.84	0.0010035
1861.49	0.0009419
1871.13	0.0008945
1880.78	0.0011711
1890.42	0.0012433
1900.07	0.0012326
1909.71	0.0010475
1919.36	0.0009233
1929	0.0009504
1938.65	0.0009173
1948.29	0.00083892
1957.94	0.0006521
1967.58	0.0009867
1977.23	0.0009414
1986.87	0.0008626
1996.52	0.0007355
2006.16	0.0011435
2015.81	0.00078057
2025.45	0.0010372
2035.1	0.0009898
2044.74	0.0013508
2054.38	0.0012811
2064.03	0.0009731
2073.67	0.0010853
2083.32	0.00099
2092.96	0.00083446
2102.61	0.00083518
2112.25	0.0008732
2121.9	0.0007719
2131.54	0.0008702
2141.19	0.0007487
2150.83	0.0012677
2160.48	0.0013618
2170.12	0.0010546
2179.77	0.0009454
2189.41	0.0015544
2199.06	0.0016822
2208.7	0.00257
2218.35	0.00351
2227.99	0.00467
2237.64	0.00489
2247.28	0.00442
2256.92	0.00361
2266.57	0.00302
2276.21	0.00214
2285.86	0.0019
2295.5	0.0012528
2305.15	0.0012218
2314.79	0.0012725
2324.44	0.001054
2334.08	0.0010376
2343.73	0.0011146
2353.37	0.0013621
2363.02	0.0013295
2372.66	0.0012902
2382.31	0.0011591
2391.95	0.0011678
2401.6	0.0012184
2411.24	0.00080085
2420.89	0.0006532
2430.53	0.0012945
2440.18	0.0014439
2449.82	0.0010544
2459.47	0.0014394
2469.11	0.0012497
2478.75	0.0009778
2488.4	0.0010545
2498.04	0.0011432
2507.69	0.0011668
2517.33	0.000582
2526.98	0.0008792
2536.62	0.0013255
2546.27	0.000755017
2555.91	0.00077117
2565.56	0.0008208
2575.2	0.000584
2584.85	0.0006843
2594.49	0.0010824
2604.14	0.0009849
2613.78	0.0009792
2623.43	0.0010601
2633.07	0.000759891
2642.72	0.001116
2652.36	0.0009569
2662.01	0.0006569
2671.65	0.001009
2681.29	0.0010779
2690.94	0.0010288
2700.58	0.0012976
2710.23	0.0011872
2719.87	0.0014367
2729.52	0.0013481
2739.16	0.00238
2748.81	0.00319
2758.45	0.00296
2768.1	0.0022
2777.74	0.00222
2787.39	0.00185
2797.03	0.00239
2806.68	0.00279
2816.32	0.00322
2825.97	0.00368
2835.61	0.00452
2845.26	0.00761
2854.9	0.01161
2864.55	0.01829
2874.19	0.02433
2883.84	0.02752
2893.48	0.02593
2903.12	0.02197
2912.77	0.02453
2922.41	0.04388
2932.06	0.06879
2941.7	0.07362
2951.35	0.05264
2960.99	0.04337
2970.64	0.06186
2980.28	0.0845
2989.93	0.07295
2999.57	0.0392
3009.22	0.01785
3018.86	0.0091
3028.51	0.00702
3038.15	0.00701
3047.8	0.00535
3057.44	0.00512
3067.09	0.00523
3076.73	0.00413
3086.38	0.00389
3096.02	0.00402
3105.67	0.00313
3115.31	0.00287
3124.95	0.00227
3134.6	0.0016634
3144.24	0.0016456
3153.89	0.0017481
3163.53	0.0016669
3173.18	0.00194
3182.82	0.0014221
3192.47	0.0014544
3202.11	0.00185
3211.76	0.00208
3221.4	0.0012376
3231.05	0.001653
3240.69	0.00216
3250.34	0.0012683
3259.98	0.0011238
3269.63	0.0006763
3279.27	0.0015398
3288.92	0.001553
3298.56	0.0010004
3308.21	0.0012984
3317.85	0.0013328
3327.49	0.0015537
3337.14	0.0012937
3346.78	0.0013712
3356.43	0.0013735
3366.07	0.0015757
3375.72	0.0013266
3385.36	0.0010688
3395.01	0.00195
3404.65	0.0012418
3414.3	0.00138
3423.94	0.0015684
3433.59	0.00193
3443.23	0.0011009
3452.88	0.0011915
3462.52	0.000586
3472.17	0.00143
3481.81	0.0015965
3491.46	0.002
3501.1	0.0007096
3510.75	0.0015423
3520.39	0.0007288
3530.04	0.0011631
3539.68	0.0012193
3549.32	0.0015313
3558.97	0.0011176
3568.61	0.00048
3578.26	0.00058
3587.9	0.0014508
3597.55	0.0016451
3607.19	0.00217
3616.84	0.00293
3626.48	0.00728
3636.13	0.01337
3645.77	0.01633
3655.42	0.01013
3665.06	0.00448
3674.71	0.00207
3684.35	0.0009118
3694	0.00185
3703.64	0.000124
3713.29	0.0014263
3722.93	0.0011255
3732.58	0.0006936
3742.22	0.0006976
3751.86	0.0009314
3761.51	0.00082751
3771.15	0.0015407
3780.8	0.0013759
3790.44	0.0012219
3800.09	0.0010631
3809.73	0.0011551
3819.38	0.000678
3829.02	0.00080456
3838.67	0.0011802
3848.31	0.000491
3857.96	0.0009172
3867.6	0.001699
3877.25	0.0010452
3886.89	0.0013471
3896.54	0.000681
3906.18	0.0010878
3915.83	0.0010528
3925.47	0.000626
3935.12	0.0011164
3944.76	0.0015899
3954.41	0.000454
3964.05	0.000484
3973.69	0.0016369
3983.34	0.0012793
3992.98	0.000754585
