Infrared Spectrum: 2,4-THIAZOLIDINEDIONE, 5-P-METHOXYBENZYLIDENE-
Formula: C11 H9 N O3 S
CAS: 6320-51-0
State: SOLID (KBr PELLET)
Melting point: 213-214 C
Class: COBLENTZ
Instrument: Not specified, most likely a prism, grating, or hybrid spectrometer.
Sampling: TRANSMISSION
Resolution: 4
Origin: TENNESSEE EASTMAN COMPANY, RESEARCH LABORATORIES
MICROMETERS	TRANSMITTANCE
2.014	0.25
2.05505	0.248
2.0961	0.246
2.13715	0.248
2.17821	0.25
2.21926	0.26
2.26031	0.267
2.30136	0.284
2.34241	0.296
2.38346	0.31
2.42451	0.317
2.46556	0.332
2.50662	0.343
2.54767	0.351
2.58872	0.365
2.62977	0.389
2.67082	0.401
2.71187	0.406
2.75292	0.406
2.79397	0.397
2.83503	0.38
2.87608	0.36
2.91713	0.356
2.95818	0.361
2.99923	0.387
3.04028	0.408
3.08133	0.397
3.12239	0.353
3.16344	0.289
3.20449	0.209
3.24554	0.241
3.28659	0.257
3.32764	0.216
3.36869	0.3
3.40974	0.377
3.4508	0.442
3.49185	0.454
3.5329	0.459
3.57395	0.487
3.615	0.459
3.65605	0.502
3.6971	0.596
3.73815	0.641
3.77921	0.675
3.82026	0.689
3.86131	0.701
3.90236	0.715
3.94341	0.718
3.98446	0.74
4.02551	0.746
4.06656	0.753
4.10762	0.77
4.14867	0.771
4.18972	0.79
4.23077	0.799
4.27182	0.802
4.31287	0.807
4.35392	0.823
4.39498	0.83
4.43603	0.842
4.47708	0.852
4.51813	0.857
4.55918	0.867
4.60023	0.876
4.64128	0.886
4.68233	0.888
4.72339	0.891
4.76444	0.893
4.80549	0.898
4.84654	0.888
4.88759	0.873
4.92864	0.888
4.96969	0.917
5.01074	0.931
5.0518	0.931
5.09285	0.933
5.1339	0.933
5.17495	0.934
5.216	0.929
5.25705	0.902
5.2981	0.933
5.33916	0.933
5.38021	0.933
5.42126	0.905
5.46231	0.893
5.50336	0.891
5.54441	0.883
5.58546	0.833
5.62651	0.761
5.66757	0.329
5.70862	0.121
5.74967	0.075
5.79072	0.421
5.83177	0.44
5.87282	0.296
5.91387	0.034
5.95492	0.204
5.99598	0.469
6.03703	0.632
6.07808	0.641
6.11913	0.627
6.16018	0.619
6.20123	0.279
6.24228	0.054
6.28334	0.072
6.32439	0.197
6.36544	0.315
6.40649	0.605
6.44754	0.682
6.48859	0.768
6.52964	0.684
6.57069	0.2
6.61175	0.485
6.6528	0.799
6.69385	0.818
6.7349	0.825
6.77595	0.799
6.817	0.713
6.85805	0.792
6.8991	0.584
6.94016	0.783
6.98121	0.512
7.02226	0.677
7.06331	0.847
7.10436	0.869
7.14541	0.823
7.18646	0.807
7.22752	0.857
7.26857	0.847
7.30962	0.79
7.35067	0.572
7.39172	0.259
7.43277	0.101
7.47382	0.106
7.51487	0.463
7.55593	0.614
7.59698	0.651
7.63803	0.451
7.67908	0.602
7.72013	0.751
7.76118	0.814
7.80223	0.789
7.84328	0.622
7.88434	0.193
7.92539	0.036
7.96644	0.14
8.00749	0.543
8.04854	0.694
8.08959	0.668
8.13064	0.547
8.17169	0.759
8.21275	0.818
8.2538	0.831
8.29485	0.852
8.3359	0.833
8.37695	0.646
8.418	0.319
8.45905	0.101
8.50011	0.526
8.54116	0.744
8.58221	0.713
8.62326	0.536
8.66431	0.198
8.70536	0.31
8.74641	0.687
8.78746	0.739
8.82852	0.747
8.86957	0.813
8.91062	0.85
8.95167	0.907
8.99272	0.941
9.03377	0.948
9.07482	0.948
9.11587	0.948
9.15693	0.951
9.19798	0.963
9.23903	0.969
9.28008	0.972
9.32113	0.972
9.36218	0.977
9.40323	0.981
9.44429	0.982
9.48534	0.982
9.52639	0.982
9.56744	0.953
9.60849	0.84
9.64954	0.68
9.69059	0.641
9.73164	0.313
9.7727	0.404
9.81375	0.718
9.8548	0.835
9.89585	0.879
9.9369	0.919
9.97795	0.96
10.019	0.989
10.0601	1.003
10.1011	1.013
10.1422	1.008
10.1832	1.001
10.2243	1.001
10.2653	1
10.3064	1.001
10.3474	1.001
10.3885	1.001
10.4295	1.001
10.4706	0.994
10.5116	0.984
10.5527	0.984
10.5937	0.993
10.6348	0.994
10.6758	0.996
10.7169	1
10.7579	1.001
10.799	1.001
10.84	1.001
10.8811	1
10.9221	0.994
10.9632	0.982
11.0042	0.773
11.0453	0.888
11.0863	0.965
11.1274	0.982
11.1684	0.991
11.2095	0.993
11.2505	0.994
11.2916	0.994
11.3326	0.996
11.3737	0.996
11.4147	0.996
11.4558	0.996
11.4969	0.996
11.5379	0.972
11.579	0.97
11.62	0.979
11.6611	0.981
11.7021	0.979
11.7432	0.967
11.7842	0.933
11.8253	0.898
11.8663	0.838
11.9074	0.771
11.9484	0.622
11.9895	0.37
12.0305	0.207
12.0716	0.159
12.1126	0.418
12.1537	0.559
12.1947	0.595
12.2358	0.593
12.2768	0.566
12.3179	0.595
12.3589	0.651
12.4	0.711
12.441	0.761
12.4821	0.797
12.5231	0.818
12.5642	0.825
12.6052	0.765
12.6463	0.68
12.6873	0.756
12.7284	0.862
12.7694	0.924
12.8105	0.955
12.8515	0.965
12.8926	0.975
12.9336	0.987
12.9747	0.989
13.0157	0.991
13.0568	0.994
13.0979	0.996
13.1389	0.996
13.18	0.996
13.221	0.996
13.2621	0.994
13.3031	0.986
13.3442	0.963
13.3852	0.929
13.4263	0.912
13.4673	0.939
13.5084	0.993
13.5494	1
13.5905	1.001
13.6315	1.001
13.6726	0.998
13.7136	0.975
13.7547	0.933
13.7957	0.871
13.8368	0.797
13.8778	0.761
13.9189	0.766
13.9599	0.828
14.001	0.891
14.042	0.941
14.0831	0.965
14.1241	0.974
14.1652	0.979
14.2062	0.975
14.2473	0.972
14.2883	0.939
14.3294	0.897
14.3704	0.818
14.4115	0.699
14.4525	0.576
14.4936	0.406
14.5346	0.349
14.5757	0.377
14.6167	0.511
14.6578	0.692
14.6989	0.807
14.7399	0.888
14.781	0.946
14.822	0.984
14.8631	1.008
14.9041	1.013
14.9452	1.013
14.9862	1.013
15.0273	1.001
15.0683	1.001
15.1094	1.001
15.1504	0.998
15.1915	0.993
15.2325	0.993
15.2736	0.993
15.3146	0.993
15.3557	0.986
15.3967	0.974
15.4378	0.955
15.4788	0.931
15.5199	0.895
15.5609	0.835
15.602	0.765
15.643	0.677
15.6841	0.605
15.7251	0.562
15.7662	0.56
15.8072	0.578
15.8483	0.619
15.8893	0.66
15.9304	0.687
