Infrared Spectrum: 3-Bromothiophenol
Formula: C 6 H 5 Br S
CAS: 6320-01-0
State: gas
Origin: EPA-IR VAPOR PHASE LIBRARY
1/CM	ABSORBANCE
549.8	0.0003104
559.445	0.0004722
569.09	0.00018886
578.734	0.0008399
588.379	0.000803
598.024	0.0009191
607.669	0.001285
617.313	0.001195
626.958	0.001615
636.603	0.003175
646.248	0.007925
655.893	0.011695
665.537	0.017805
675.182	0.029335
684.827	0.015555
694.472	0.006825
704.116	0.004095
713.761	0.003495
723.406	0.004325
733.051	0.010965
742.695	0.040135
752.34	0.093925
761.985	0.107285
771.63	0.070175
781.275	0.032665
790.919	0.009005
800.564	0.003825
810.209	0.002495
819.854	0.003035
829.498	0.003195
839.143	0.002705
848.788	0.004205
858.433	0.007945
868.078	0.010505
877.722	0.009425
887.367	0.004865
897.012	0.002805
906.657	0.003465
916.301	0.004685
925.946	0.004065
935.591	0.003075
945.236	0.002195
954.88	0.001845
964.525	0.001715
974.17	0.002265
983.815	0.004775
993.46	0.008255
1003.1	0.006725
1012.75	0.005215
1022.39	0.004575
1032.04	0.005105
1041.68	0.006885
1051.33	0.013045
1060.97	0.021325
1070.62	0.026425
1080.26	0.033235
1089.91	0.024975
1099.55	0.016115
1109.2	0.011925
1118.84	0.008915
1128.49	0.006205
1138.13	0.003685
1147.78	0.002875
1157.42	0.002665
1167.07	0.002965
1176.71	0.002935
1186.36	0.002745
1196	0.002215
1205.64	0.001575
1215.29	0.001275
1224.93	0.0008719
1234.58	0.002035
1244.22	0.003065
1253.87	0.002825
1263.51	0.001885
1273.16	0.002095
1282.8	0.003975
1292.45	0.004345
1302.09	0.002615
1311.74	0.003565
1321.38	0.004305
1331.03	0.002455
1340.67	0.001195
1350.32	0.001235
1359.96	0.002255
1369.61	0.005925
1379.25	0.013995
1388.9	0.020165
1398.54	0.023005
1408.18	0.022415
1417.83	0.014145
1427.47	0.007325
1437.12	0.008665
1446.76	0.022755
1456.41	0.071455
1466.05	0.068885
1475.7	0.026745
1485.34	0.015815
1494.99	0.005295
1504.63	0.003275
1514.28	0.003045
1523.92	0.004125
1533.57	0.007965
1543.21	0.020245
1552.86	0.056785
1562.5	0.107045
1572.15	0.103995
1581.79	0.061875
1591.44	0.019455
1601.08	0.006085
1610.73	0.003945
1620.37	0.003425
1630.01	0.002235
1639.66	0.001905
1649.3	0.002365
1658.95	0.003045
1668.59	0.002455
1678.24	0.001335
1687.88	0.0010407
1697.53	0.001225
1707.17	0.001625
1716.82	0.002215
1726.46	0.002725
1736.11	0.003505
1745.75	0.003535
1755.4	0.003135
1765.04	0.002785
1774.69	0.002625
1784.33	0.002265
1793.98	0.001765
1803.62	0.001225
1813.27	0.0011458
1822.91	0.001325
1832.55	0.001805
1842.2	0.002535
1851.84	0.003315
1861.49	0.002905
1871.13	0.001715
1880.78	0.0010167
1890.42	0.000885
1900.07	0.0011313
1909.71	0.001735
1919.36	0.002605
1929	0.002705
1938.65	0.001735
1948.29	0.0008728
1957.94	0.0006311
1967.58	0.0005432
1977.23	0.0004596
1986.87	0.0004266
1996.52	0.0004573
2006.16	0.0003338
2015.81	0.0003438
2025.45	0.00025527
2035.1	0.0003004
2044.74	0.0003379
2054.38	0.0003382
2064.03	0.000373
2073.67	0.00024558
2083.32	0.0002789
2092.96	0.0003533
2102.61	0.0002939
2112.25	0.0003019
2121.9	0.00024149
2131.54	0.00024607
2141.19	0.0003484
2150.83	0.0003518
2160.48	0.0003834
2170.12	0.0004935
2179.77	0.0005598
2189.41	0.0005382
2199.06	0.0006027
2208.7	0.0003187
2218.35	0.0003778
2227.99	0.0004507
2237.64	0.0003944
2247.28	0.0003496
2256.92	0.0004256
2266.57	0.0003166
2276.21	0.0004507
2285.86	0.000416
2295.5	0.0003431
2305.15	0.0004947
2314.79	0.0005642
2324.44	0.0007033
2334.08	0.0007777
2343.73	0.0009023
2353.37	0.0008059
2363.02	0.0007884
2372.66	0.0007768
2382.31	0.0006891
2391.95	0.000776
2401.6	0.0008083
2411.24	0.0007226
2420.89	0.0005248
2430.53	0.0004604
2440.18	0.0004809
2449.82	0.0005181
2459.47	0.0004699
2469.11	0.0004762
2478.75	0.0003819
2488.4	0.0004845
2498.04	0.0005338
2507.69	0.000502
2517.33	0.0005085
2526.98	0.0004013
2536.62	0.0004198
2546.27	0.0005232
2555.91	0.0006118
2565.56	0.0007244
2575.2	0.0007443
2584.85	0.0008821
2594.49	0.0007039
2604.14	0.000579
2613.78	0.0006377
2623.43	0.0007741
2633.07	0.0008253
2642.72	0.0008331
2652.36	0.0008744
2662.01	0.0007632
2671.65	0.0008081
2681.29	0.0007763
2690.94	0.0005494
2700.58	0.0005428
2710.23	0.0003847
2719.87	0.0004082
2729.52	0.0004003
2739.16	0.000391
2748.81	0.0002933
2758.45	0.0003072
2768.1	0.0003289
2777.74	0.0002905
2787.39	0.0006045
2797.03	0.0006181
2806.68	0.0005327
2816.32	0.0005711
2825.97	0.0003688
2835.61	0.0004151
2845.26	0.0003768
2854.9	0.0003681
2864.55	0.0005537
2874.19	0.0005463
2883.84	0.00024755
2893.48	0.0004256
2903.12	0.0004631
2912.77	0.0004817
2922.41	0.0005386
2932.06	0.0003843
2941.7	0.0004251
2951.35	0.0003793
2960.99	0.0003803
2970.64	0.0004892
2980.28	0.0006275
2989.93	0.001098
2999.57	0.001895
3009.22	0.002095
3018.86	0.001685
3028.51	0.001485
3038.15	0.001785
3047.8	0.003965
3057.44	0.009835
3067.09	0.016295
3076.73	0.015595
3086.38	0.009075
3096.02	0.003805
3105.67	0.001425
3115.31	0.0011172
3124.95	0.0011096
3134.6	0.0010261
3144.24	0.0008168
3153.89	0.0007325
3163.53	0.000449
3173.18	0.0003065
3182.82	0.0003068
3192.47	0.0003451
3202.11	0.0001473
3211.76	7.54e-05
3221.4	6.2e-05
3231.05	0.0003189
3240.69	0.0003057
3250.34	0.0002176
3259.98	0.00019771
3269.63	0.0001027
3279.27	0.0003856
3288.92	6.2e-05
3298.56	0.0003762
3308.21	3.5e-05
3317.85	0.0004103
3327.49	0.00025662
3337.14	0.0001564
3346.78	0.0002914
3356.43	8.53e-05
3366.07	0.0005263
3375.72	0.0001236
3385.36	0.00020228
3395.01	0.00022692
3404.65	0.00025188
3414.3	0.0002881
3423.94	0.0001416
3433.59	1e-06
3443.23	0.000307
3452.88	0.0001828
3462.52	0.0001279
3472.17	0.0002941
3481.81	0.0005709
3491.46	0.000572
3501.1	0.0008546
3510.75	0.0006883
3520.39	0.0005513
3530.04	0.0003414
3539.68	0.0001581
3549.32	0.0002905
3558.97	0.00018607
3568.61	0.0003349
3578.26	0.000182428
3587.9	0.00019095
3597.55	0.0002949
3607.19	0.00026673
3616.84	0.00021104
3626.48	0.00025697
3636.13	0.00021997
3645.77	0.0002755
3655.42	0.0003765
3665.06	0.00018991
3674.71	0.00025364
3684.35	0.00025205
3694	0.0003945
3703.64	0.00021982
3713.29	0.0004319
3722.93	0.000742
3732.58	0.0007105
3742.22	0.0007224
3751.86	0.0004754
3761.51	0.00017083
3771.15	0.0001502
3780.8	0.0004119
3790.44	0.00022926
3800.09	0.00025022
3809.73	0.0002956
3819.38	0.0005059
3829.02	0.0006494
3838.67	0.0004048
3848.31	0.0004011
3857.96	0.0004507
3867.6	0.0003097
3877.25	0.00024083
3886.89	0.00026881
3896.54	0.0003496
3906.18	0.0003331
3915.83	0.0001245
3925.47	0.0002835
3935.12	0.00025604
3944.76	0.00020731
3954.41	0.0003069
3964.05	6e-05
3973.69	0.0004047
3983.34	0.0004232
3992.98	0.0003444
