Infrared Spectrum: 2,4,6-Tribromotoluene
Formula: C 7 H 5 Br 3
CAS: 6320-40-7
State: gas
Origin: EPA-IR VAPOR PHASE LIBRARY
1/CM	ABSORBANCE
549.9	0.002274
559.547	0.0017194
569.193	0.0017076
578.84	0.0016349
588.486	0.0015242
598.133	0.0016738
607.779	0.0014565
617.426	0.0014182
627.072	0.0014621
636.719	0.0018469
646.365	0.006184
656.012	0.016884
665.658	0.004504
675.305	0.004224
684.951	0.006014
694.598	0.002624
704.245	0.003064
713.891	0.006234
723.538	0.021274
733.184	0.029614
742.831	0.009214
752.477	0.003374
762.124	0.002134
771.77	0.0016654
781.417	0.0016243
791.063	0.002214
800.71	0.005174
810.356	0.015854
820.003	0.025774
829.649	0.004794
839.296	0.002744
848.943	0.007554
858.589	0.020244
868.236	0.006694
877.882	0.0018572
887.529	0.0015675
897.175	0.0015975
906.822	0.0013677
916.468	0.0012469
926.115	0.0013117
935.761	0.0014106
945.408	0.001773
955.054	0.002584
964.701	0.004584
974.347	0.007474
983.994	0.011114
993.64	0.013604
1003.29	0.007704
1012.93	0.004504
1022.58	0.003724
1032.23	0.003704
1041.87	0.004234
1051.52	0.004894
1061.17	0.003854
1070.81	0.003034
1080.46	0.002564
1090.11	0.002114
1099.75	0.002164
1109.4	0.003574
1119.05	0.003224
1128.69	0.0017467
1138.34	0.001313
1147.99	0.0013688
1157.63	0.0018183
1167.28	0.0016392
1176.92	0.002444
1186.57	0.002814
1196.22	0.0015487
1205.86	0.0017849
1215.51	0.0012805
1225.16	0.0014137
1234.8	0.0018914
1244.45	0.003514
1254.1	0.002274
1263.74	0.00105506
1273.39	0.00101526
1283.04	0.00105871
1292.68	0.0011345
1302.33	0.0011645
1311.98	0.0013272
1321.62	0.0017116
1331.27	0.002024
1340.92	0.005574
1350.56	0.019914
1360.21	0.019124
1369.86	0.020304
1379.5	0.014914
1389.15	0.014254
1398.79	0.010374
1408.44	0.007884
1418.09	0.011304
1427.73	0.031044
1437.38	0.035624
1447.03	0.011394
1456.67	0.004554
1466.32	0.004384
1475.97	0.004534
1485.61	0.003864
1495.26	0.003664
1504.91	0.005074
1514.55	0.011124
1524.2	0.024134
1533.85	0.026594
1543.49	0.018604
1553.14	0.027614
1562.79	0.044134
1572.43	0.032904
1582.08	0.006994
1591.73	0.002424
1601.37	0.001628
1611.02	0.0014413
1620.67	0.0012459
1630.31	0.0012579
1639.96	0.0013339
1649.6	0.0012403
1659.25	0.0011518
1668.9	0.0010836
1678.54	0.0009629
1688.19	0.00097086
1697.84	0.00101569
1707.48	0.0014415
1717.13	0.002744
1726.78	0.003824
1736.42	0.002414
1746.07	0.0016903
1755.72	0.00104007
1765.36	0.00103951
1775.01	0.00098852
1784.66	0.0008775
1794.3	0.000865
1803.95	0.000798
1813.6	0.000722
1823.24	0.000595
1832.89	0.000635
1842.54	0.000658
1852.18	0.000709
1861.83	0.000721
1871.47	0.000595
1881.12	0.000595
1890.77	0.000665
1900.41	0.00062
1910.06	0.000635
1919.71	0.000611
1929.35	0.000637
1939	0.000599
1948.65	0.000517
1958.29	0.00052
1967.94	0.00049
1977.59	0.00048
1987.23	0.000542
1996.88	0.000486
2006.53	0.00054
2016.17	0.000575
2025.82	0.000557
2035.47	0.000603
2045.11	0.000628
2054.76	0.000562
2064.41	0.000612
2074.05	0.000504
2083.7	0.000469
2093.35	0.00049
2102.99	0.0005
2112.64	0.000462
2122.28	0.00044
2131.93	0.000405
2141.58	0.000458
2151.22	0.00043
2160.87	0.00048
2170.52	0.000486
2180.16	0.00048
2189.81	0.000454
2199.46	0.000493
2209.1	0.000496
2218.75	0.000467
2228.4	0.000534
2238.04	0.000444
2247.69	0.000474
2257.34	0.000479
2266.98	0.000432
2276.63	0.00045
2286.28	0.000493
2295.92	0.000529
2305.57	0.000442
2315.22	0.000413
2324.86	0.000383
2334.51	0.000389
2344.16	0.000319
2353.8	0.000386
2363.45	0.000388
2373.09	0.000364
2382.74	0.000369
2392.39	0.000452
2402.03	0.000508
2411.68	0.000539
2421.33	0.000477
2430.97	0.000429
2440.62	0.000412
2450.27	0.000431
2459.91	0.000394
2469.56	0.000356
2479.21	0.000372
2488.85	0.000292
2498.5	0.000276
2508.15	0.000303
2517.79	0.000278
2527.44	0.000215
2537.09	0.00019
2546.73	0.00031
2556.38	0.000391
2566.03	0.000345
2575.67	0.000306
2585.32	0.000498
2594.96	0.000502
2604.61	0.000386
2614.26	0.000332
2623.9	0.000324
2633.55	0.000307
2643.2	0.000301
2652.84	0.000246
2662.49	0.000244
2672.14	0.000273
2681.78	0.000169
2691.43	0.000118
2701.08	9.3e-05
2710.72	4.1e-05
2720.37	7.4e-05
2730.02	7e-06
2739.66	5.9e-05
2749.31	0.000293
2758.96	0.000321
2768.6	0.00035
2778.25	0.000328
2787.9	0.000244
2797.54	0.000181
2807.19	0.000151
2816.84	0.000129
2826.48	0.000104
2836.13	0.000217
2845.77	0.000195
2855.42	0.000473
2865.07	0.000804
2874.71	0.000861
2884.36	0.00055
2894.01	0.000456
2903.65	0.00069
2913.3	0.0009296
2922.95	0.0016038
2932.59	0.002894
2942.24	0.003654
2951.89	0.002604
2961.53	0.001912
2971.18	0.0012884
2980.83	0.000649
2990.47	0.000686
3000.12	0.000632
3009.77	0.000645
3019.41	0.000805
3029.06	0.0009294
3038.71	0.0009081
3048.35	0.000980801
3058	0.000755
3067.64	0.000665
3077.29	0.00067
3086.94	0.00075
3096.58	0.00081
3106.23	0.000753
3115.88	0.000242
3125.52	0.000341
3135.17	0.000343
3144.82	0.000157
3154.46	0.000224
3164.11	0.000269
3173.76	0.000254
3183.4	0.000119
3193.05	0.000323
3202.7	0.000155
3212.34	0.000213
3221.99	0.00029
3231.64	0.000347
3241.28	0.000353
3250.93	0.000323
3260.58	0.000341
3270.22	0.000202
3279.87	0.000363
3289.52	0.000526
3299.16	0.000297
3308.81	0.000501
3318.45	0.000435
3328.1	0.000512
3337.75	0.000539
3347.39	0.000602
3357.04	0.000456
3366.69	0.000575
3376.33	0.000526
3385.98	0.000568
3395.63	0.000599
3405.27	0.000683
3414.92	0.000635
3424.57	0.000739
3434.21	0.000679
3443.86	0.000737
3453.51	0.00073
3463.15	0.000819
3472.8	0.000682
3482.45	0.000739
3492.09	0.000611
3501.74	0.000691
3511.39	0.000745
3521.03	0.000674
3530.68	0.000742
3540.33	0.000757
3549.97	0.000771
3559.62	0.000817
3569.26	0.000854
3578.91	0.000616
3588.56	0.000691
3598.2	0.000822
3607.85	0.000587
3617.5	0.000772
3627.14	0.000671
3636.79	0.000714
3646.44	0.000733
3656.08	0.000697
3665.73	0.000634
3675.38	0.000675
3685.02	0.000688
3694.67	0.000758
3704.32	0.000856
3713.96	0.000682
3723.61	0.000617
3733.26	0.000606
3742.9	0.000618
3752.55	0.000716
3762.2	0.00058
3771.84	0.000591
3781.49	0.000626
3791.13	0.000768
3800.78	0.000732
3810.43	0.000641
3820.07	0.000628
3829.72	0.000586
3839.37	0.000686
3849.01	0.000631
3858.66	0.000577
3868.31	0.000541
3877.95	0.000618
3887.6	0.000667
3897.25	0.00059
3906.89	0.00071
3916.54	0.000613
3926.19	0.000564
3935.83	0.000543
3945.48	0.000451
3955.13	0.000551
3964.77	0.000468
3974.42	0.000445
3984.07	0.000419
3993.71	0.000544
