Infrared Spectrum: 2-Bromothiophenol
Formula: C 6 H 5 Br S
CAS: 6320-02-1
State: gas
Origin: EPA-IR VAPOR PHASE LIBRARY
1/CM	ABSORBANCE
549.9	0.0026999
559.547	0.00294
569.193	0.00318
578.84	0.0026216
588.486	0.0023605
598.133	0.0022272
607.779	0.0023494
617.426	0.00278
627.072	0.00424
636.719	0.00961
646.365	0.01635
656.012	0.01415
665.658	0.00627
675.305	0.00324
684.951	0.00359
694.598	0.00541
704.245	0.00893
713.891	0.01463
723.538	0.0386
733.184	0.08918
742.831	0.14438
752.477	0.05721
762.124	0.01337
771.77	0.00429
781.417	0.0026652
791.063	0.0022128
800.71	0.0025359
810.356	0.00346
820.003	0.00365
829.649	0.0026988
839.296	0.0026969
848.943	0.003
858.589	0.00326
868.236	0.00284
877.882	0.0020554
887.529	0.0022023
897.175	0.0027093
906.822	0.00346
916.468	0.0044
926.115	0.00523
935.761	0.00629
945.408	0.00516
955.054	0.00338
964.701	0.00309
974.347	0.0039
983.994	0.00543
993.64	0.00797
1003.29	0.01298
1012.93	0.02986
1022.58	0.05859
1032.23	0.05579
1041.87	0.02001
1051.52	0.00608
1061.17	0.00369
1070.81	0.00325
1080.46	0.00379
1090.11	0.00672
1099.75	0.01518
1109.4	0.02477
1119.05	0.02464
1128.69	0.01456
1138.34	0.00654
1147.99	0.00441
1157.63	0.00412
1167.28	0.00368
1176.92	0.00293
1186.57	0.0023419
1196.22	0.001559
1205.86	0.000933
1215.51	0.000861
1225.16	0.001317
1234.8	0.00284
1244.45	0.00759
1254.1	0.01623
1263.74	0.01513
1273.39	0.00608
1283.04	0.0028
1292.68	0.0018769
1302.33	0.0017697
1311.98	0.00174991
1321.62	0.00181635
1331.27	0.0022368
1340.92	0.00349
1350.56	0.00395
1360.21	0.00302
1369.86	0.0024944
1379.5	0.00363
1389.15	0.00548
1398.79	0.00611
1408.44	0.00871
1418.09	0.02267
1427.73	0.03627
1437.38	0.04531
1447.03	0.06913
1456.67	0.06677
1466.32	0.03122
1475.97	0.01435
1485.61	0.00662
1495.26	0.00361
1504.91	0.00274
1514.55	0.0023882
1524.2	0.0023452
1533.85	0.00306
1543.49	0.00522
1553.14	0.01123
1562.79	0.01536
1572.43	0.01688
1582.08	0.01508
1591.73	0.00803
1601.37	0.00366
1611.02	0.0023797
1620.67	0.0022044
1630.31	0.0022002
1639.96	0.0020415
1649.6	0.0019933
1659.25	0.002726
1668.9	0.00382
1678.54	0.00405
1688.19	0.00324
1697.84	0.0028
1707.48	0.0025087
1717.13	0.0021269
1726.78	0.00174942
1736.42	0.0016757
1746.07	0.00178852
1755.72	0.0020215
1765.36	0.00276
1775.01	0.00372
1784.66	0.00391
1794.3	0.00331
1803.95	0.003
1813.6	0.0033
1823.24	0.0031
1832.89	0.0023688
1842.54	0.0019822
1852.18	0.0021345
1861.83	0.0025919
1871.47	0.00297
1881.12	0.00302
1890.77	0.00389
1900.41	0.00498
1910.06	0.0045
1919.71	0.00341
1929.35	0.00386
1939	0.00416
1948.65	0.00302
1958.29	0.0018489
1967.94	0.0016546
1977.59	0.001625
1987.23	0.0016529
1996.88	0.0016346
2006.53	0.001492
2016.17	0.001486
2025.82	0.001514
2035.47	0.001601
2045.11	0.0016755
2054.76	0.001622
2064.41	0.001534
2074.05	0.001478
2083.7	0.001461
2093.35	0.001531
2102.99	0.001525
2112.64	0.001495
2122.28	0.001533
2131.93	0.001549
2141.58	0.001491
2151.22	0.00152
2160.87	0.001537
2170.52	0.001474
2180.16	0.001551
2189.81	0.001528
2199.46	0.001506
2209.1	0.001518
2218.75	0.001589
2228.4	0.001596
2238.04	0.001617
2247.69	0.0016359
2257.34	0.0016919
2266.98	0.00182274
2276.63	0.0018379
2286.28	0.0020817
2295.92	0.0020958
2305.57	0.0020399
2315.22	0.0020625
2324.86	0.0022364
2334.51	0.0020654
2344.16	0.0019063
2353.8	0.0019297
2363.45	0.0018877
2373.09	0.0019317
2382.74	0.0018491
2392.39	0.0017045
2402.03	0.00175335
2411.68	0.0019096
2421.33	0.0021145
2430.97	0.0020335
2440.62	0.0018248
2450.27	0.0016623
2459.91	0.001628
2469.56	0.0016638
2479.21	0.0016568
2488.85	0.0016801
2498.5	0.00181131
2508.15	0.0021239
2517.79	0.0024022
2527.44	0.0025082
2537.09	0.0022771
2546.73	0.0021152
2556.38	0.0022876
2566.03	0.00292
2575.67	0.0046
2585.32	0.00864
2594.96	0.00919
2604.61	0.005
2614.26	0.0021067
2623.9	0.00175082
2633.55	0.001554
2643.2	0.001575
2652.84	0.0016621
2662.49	0.0016349
2672.14	0.0016539
2681.78	0.0016631
2691.43	0.001614
2701.08	0.00181434
2710.72	0.0016563
2720.37	0.001596
2730.02	0.001584
2739.66	0.001612
2749.31	0.00159
2758.96	0.001621
2768.6	0.001597
2778.25	0.001587
2787.9	0.001438
2797.54	0.00148
2807.19	0.001559
2816.84	0.0016539
2826.48	0.00176582
2836.13	0.0018447
2845.77	0.00179345
2855.42	0.0016896
2865.07	0.001524
2874.71	0.001408
2884.36	0.001347
2894.01	0.001096
2903.65	0.001022
2913.3	0.001125
2922.95	0.001213
2932.59	0.001156
2942.24	0.001367
2951.89	0.001529
2961.53	0.00175666
2971.18	0.0019229
2980.83	0.0021348
2990.47	0.0026805
3000.12	0.003
3009.77	0.00284
3019.41	0.0023628
3029.06	0.0020395
3038.71	0.003
3048.35	0.00744
3058	0.02074
3067.64	0.03526
3077.29	0.02894
3086.94	0.01171
3096.58	0.00517
3106.23	0.00342
3115.88	0.00392
3125.52	0.00394
3135.17	0.0026793
3144.82	0.001248
3154.46	0.001034
3164.11	0.0007
3173.76	0.00065
3183.4	0.00065
3193.05	0.00056
3202.7	0.00067
3212.34	0.00047
3221.99	0.00047
3231.64	0.00038
3241.28	0.00036
3250.93	0.00035
3260.58	0.00029
3270.22	0.00027
3279.87	0.0003
3289.52	0.00023
3299.16	0.00023
3308.81	0.00018
3318.45	8e-05
3328.1	0.00019
3337.75	8e-05
3347.39	7e-05
3357.04	0.00024
3366.69	0.00017
3376.33	0.00013
3385.98	0.00021
3395.63	0.00014
3405.27	0.00016
3414.92	6e-05
3424.57	0.00017
3434.21	0.00017
3443.86	0.00037
3453.51	0.00038
3463.15	0.00055
3472.8	0.000737
3482.45	0.00173557
3492.09	0.0023237
3501.74	0.00180867
3511.39	0.000779
3521.03	0.00059
3530.68	0.0003
3540.33	0.00027
3549.97	0.00022
3559.62	0.0003
3569.26	0.00041
3578.91	0.00043
3588.56	0.00036
3598.2	0.00027
3607.85	0.00036
3617.5	0.0005
3627.14	0.00033
3636.79	0.00049
3646.44	0.00054
3656.08	0.00045
3665.73	0.00047
3675.38	0.0005
3685.02	0.00051
3694.67	0.00069
3704.32	0.000825
3713.96	0.000777
3723.61	0.001153
3733.26	0.000928
3742.9	0.000972
3752.55	0.000918
3762.2	0.000934
3771.84	0.001083
3781.49	0.001151
3791.13	0.001056
3800.78	0.0009
3810.43	0.000764
3820.07	0.000752
3829.72	0.000869
3839.37	0.000773
3849.01	0.000847
3858.66	0.000789
3868.31	0.000802
3877.95	0.000793
3887.6	0.000815
3897.25	0.00068
3906.89	0.000815
3916.54	0.000745
3926.19	0.000834
3935.83	0.000831
3945.48	0.000859
3955.13	0.000894
3964.77	0.000816
3974.42	0.000958
3984.07	0.000838
3993.71	0.000975
