Infrared Spectrum: 4-Hydroxy-3-Nitroacetophenone
Formula: C 8 H 7 N O 4
CAS: 6322-56-1
State: gas
Origin: EPA-IR VAPOR PHASE LIBRARY
1/CM	ABSORBANCE
549.8	0.006413
559.445	0.006953
569.09	0.007253
578.734	0.006343
588.379	0.006443
598.024	0.007463
607.669	0.007773
617.313	0.005903
626.958	0.003043
636.603	0.003773
646.248	0.003393
655.893	0.005293
665.537	0.006193
675.182	0.006103
684.827	0.006953
694.472	0.006603
704.116	0.006233
713.761	0.004743
723.406	0.004703
733.051	0.005253
742.695	0.003063
752.34	0.002753
761.985	0.004573
771.63	0.004223
781.275	0.002283
790.919	0.0012171
800.564	0.0013485
810.209	0.003433
819.854	0.005503
829.498	0.008713
839.143	0.007763
848.788	0.004843
858.433	0.002563
868.078	0.0015708
877.722	0.002323
887.367	0.003073
897.012	0.005093
906.657	0.004843
916.301	0.002773
925.946	0.0018726
935.591	0.00174
945.236	0.002583
954.88	0.003323
964.525	0.003393
974.17	0.003113
983.815	0.002223
993.46	0.001808
1003.1	0.000856
1012.75	0.0010513
1022.39	0.0011378
1032.04	0.001156
1041.68	0.002283
1051.33	0.002893
1060.97	0.005253
1070.62	0.004243
1080.26	0.004213
1089.91	0.002973
1099.55	0.005283
1109.2	0.003973
1118.84	0.004583
1128.49	0.006973
1138.13	0.008643
1147.78	0.009803
1157.42	0.008253
1167.07	0.007603
1176.71	0.015103
1186.36	0.024653
1196	0.035873
1205.64	0.030903
1215.29	0.023733
1224.93	0.018573
1234.58	0.014333
1244.22	0.021343
1253.87	0.032913
1263.51	0.040483
1273.16	0.033403
1282.8	0.029623
1292.45	0.020673
1302.09	0.015193
1311.74	0.021003
1321.38	0.030903
1331.03	0.029613
1340.67	0.024033
1350.32	0.022743
1359.96	0.024283
1369.61	0.021343
1379.25	0.013353
1388.9	0.009543
1398.54	0.008003
1408.18	0.008583
1417.83	0.011263
1427.47	0.014233
1437.12	0.013203
1446.76	0.009063
1456.41	0.006083
1466.05	0.006173
1475.7	0.007443
1485.34	0.010933
1494.99	0.010673
1504.63	0.005603
1514.28	0.004633
1523.92	0.006413
1533.57	0.013323
1543.21	0.025533
1552.86	0.025483
1562.5	0.013853
1572.15	0.012043
1581.79	0.014843
1591.44	0.012683
1601.08	0.012493
1610.73	0.023423
1620.37	0.044243
1630.01	0.041963
1639.66	0.015593
1649.3	0.005913
1658.95	0.004693
1668.59	0.004793
1678.24	0.004903
1687.88	0.007623
1697.53	0.021543
1707.17	0.037473
1716.82	0.020963
1726.46	0.005663
1736.11	0.003613
1745.75	0.003533
1755.4	0.003453
1765.04	0.002503
1774.69	0.001963
1784.33	0.001973
1793.98	0.0019451
1803.62	0.002213
1813.27	0.001963
1822.91	0.002043
1832.55	0.0013791
1842.2	0.0017136
1851.84	0.0015068
1861.49	0.0013979
1871.13	0.0014761
1880.78	0.0015406
1890.42	0.0015157
1900.07	0.0017239
1909.71	0.0013503
1919.36	0.0015944
1929	0.001689
1938.65	0.0012907
1948.29	0.0014873
1957.94	0.001585
1967.58	0.0014536
1977.23	0.0011154
1986.87	0.0011921
1996.52	0.0012754
2006.16	0.00098464
2015.81	0.0008728
2025.45	0.0011954
2035.1	0.0013343
2044.74	0.0012486
2054.38	0.0010902
2064.03	0.0009017
2073.67	0.0011483
2083.32	0.0013257
2092.96	0.0011149
2102.61	0.00103361
2112.25	0.0008846
2121.9	0.0014637
2131.54	0.00099598
2141.19	0.0011489
2150.83	0.0011905
2160.48	0.00103019
2170.12	0.0011627
2179.77	0.00102277
2189.41	0.0014039
2199.06	0.0011924
2208.7	0.0012171
2218.35	0.0009324
2227.99	0.00102395
2237.64	0.000858
2247.28	0.0008765
2256.92	0.0009222
2266.57	0.00105553
2276.21	0.0009366
2285.86	0.000561
2295.5	0.0009102
2305.15	0.0012588
2314.79	0.000596
2324.44	0.0012654
2334.08	0.0009525
2343.73	0.0013078
2353.37	0.001428
2363.02	0.0013856
2372.66	0.0011582
2382.31	0.0014355
2391.95	0.0013205
2401.6	0.0015012
2411.24	0.00098617
2420.89	0.0010371
2430.53	0.001154
2440.18	0.001183
2449.82	0.0010705
2459.47	0.0012561
2469.11	0.0009271
2478.75	0.0009473
2488.4	0.0011953
2498.04	0.00100014
2507.69	0.0013517
2517.33	0.0009412
2526.98	0.0013601
2536.62	0.001141
2546.27	0.0011767
2555.91	0.001471
2565.56	0.0011819
2575.2	0.0014861
2584.85	0.0016208
2594.49	0.0017169
2604.14	0.0013208
2613.78	0.0011349
2623.43	0.0009392
2633.07	0.0012214
2642.72	0.0017692
2652.36	0.0015519
2662.01	0.0011682
2671.65	0.00104599
2681.29	0.0014607
2690.94	0.0013808
2700.58	0.0014652
2710.23	0.001095
2719.87	0.000569
2729.52	0.0015194
2739.16	0.0013437
2748.81	0.0015218
2758.45	0.0008706
2768.1	0.0014724
2777.74	0.0013074
2787.39	0.0010729
2797.03	0.0015773
2806.68	0.0019092
2816.32	0.001785
2825.97	0.0013777
2835.61	0.0012767
2845.26	0.0017184
2854.9	0.0014713
2864.55	0.0016727
2874.19	0.0014914
2883.84	0.0017171
2893.48	0.0016655
2903.12	0.002053
2912.77	0.0016096
2922.41	0.002043
2932.06	0.002053
2941.7	0.0019537
2951.35	0.0016291
2960.99	0.001807
2970.64	0.002133
2980.28	0.002263
2989.93	0.002043
2999.57	0.0018546
3009.22	0.0018795
3018.86	0.002613
3028.51	0.002363
3038.15	0.0012601
3047.8	0.0010796
3057.44	0.0015896
3067.09	0.002063
3076.73	0.002253
3086.38	0.003033
3096.02	0.0019439
3105.67	0.0016934
3115.31	0.001973
3124.95	0.0019574
3134.6	0.0013495
3144.24	0.001907
3153.89	0.0019455
3163.53	0.002183
3173.18	0.002773
3182.82	0.002843
3192.47	0.003513
3202.11	0.004163
3211.76	0.005223
3221.4	0.006243
3231.05	0.006193
3240.69	0.007393
3250.34	0.007363
3259.98	0.007083
3269.63	0.007493
3279.27	0.006323
3288.92	0.006003
3298.56	0.005933
3308.21	0.005403
3317.85	0.004933
3327.49	0.004353
3337.14	0.004843
3346.78	0.004333
3356.43	0.003953
3366.07	0.004123
3375.72	0.003883
3385.36	0.003533
3395.01	0.003963
3404.65	0.003013
3414.3	0.002333
3423.94	0.002193
3433.59	0.002533
3443.23	0.002773
3452.88	0.002493
3462.52	0.002483
3472.17	0.002103
3481.81	0.002023
3491.46	0.002113
3501.1	0.0012056
3510.75	0.002053
3520.39	0.002073
3530.04	0.0019232
3539.68	0.0017231
3549.32	0.0019475
3558.97	0.001983
3568.61	0.0014604
3578.26	0.0012501
3587.9	0.0015784
3597.55	0.0011004
3607.19	0.0011917
3616.84	0.0016096
3626.48	0.0013858
3636.13	0.0011588
3645.77	0.0012708
3655.42	0.0011271
3665.06	0.001298
3674.71	0.00102348
3684.35	0.00097321
3694	0.0011584
3703.64	0.00103821
3713.29	0.0019255
3722.93	0.0015536
3732.58	0.000683
3742.22	0.0016505
3751.86	0.0015355
3761.51	0.000482
3771.15	0.0011121
3780.8	0.0009085
3790.44	0.00067
3800.09	0.0010725
3809.73	0.000535
3819.38	0.001472
3829.02	0.00102773
3838.67	0.000599
3848.31	0.000357
3857.96	0.0011801
3867.6	0.0009348
3877.25	0.0011138
3886.89	0.0011349
3896.54	0.0013903
3906.18	0.0010737
3915.83	0.0008866
3925.47	0.000317
3935.12	0.0011843
3944.76	0.0011633
3954.41	0.00039
3964.05	0.000381
3973.69	0.000774
3983.34	0.0012799
3992.98	0.00097596
