Infrared Spectrum: 2-Morpholinoethyl isothiocyanate
Formula: C 7 H 12 N 2 O S
CAS: 63224-35-1
State: gas
Origin: EPA-IR VAPOR PHASE LIBRARY
1/CM	ABSORBANCE
549.8	0.007078
559.445	0.007178
569.09	0.006488
578.734	0.005558
588.379	0.004848
598.024	0.004828
607.669	0.006038
617.313	0.005948
626.958	0.004668
636.603	0.003208
646.248	0.002518
655.893	0.002798
665.537	0.003508
675.182	0.004108
684.827	0.003918
694.472	0.004098
704.116	0.005078
713.761	0.005108
723.406	0.003638
733.051	0.002848
742.695	0.002988
752.34	0.004348
761.985	0.006408
771.63	0.005808
781.275	0.003128
790.919	0.002408
800.564	0.002238
810.209	0.002078
819.854	0.001398
829.498	0.001398
839.143	0.002398
848.788	0.005158
858.433	0.010658
868.078	0.013368
877.722	0.012958
887.367	0.011178
897.012	0.012258
906.657	0.016548
916.301	0.023508
925.946	0.022538
935.591	0.013078
945.236	0.006868
954.88	0.004758
964.525	0.003938
974.17	0.003648
983.815	0.004268
993.46	0.005698
1003.1	0.011878
1012.75	0.018618
1022.39	0.016158
1032.04	0.014018
1041.68	0.009358
1051.33	0.006848
1060.97	0.007748
1070.62	0.009008
1080.26	0.008608
1089.91	0.010728
1099.55	0.018408
1109.2	0.039248
1118.84	0.069208
1128.49	0.074568
1138.13	0.058828
1147.78	0.049078
1157.42	0.027298
1167.07	0.014008
1176.71	0.008618
1186.36	0.005808
1196	0.005408
1205.64	0.005598
1215.29	0.005448
1224.93	0.006398
1234.58	0.008958
1244.22	0.010578
1253.87	0.012108
1263.51	0.015938
1273.16	0.019258
1282.8	0.020118
1292.45	0.023588
1302.09	0.029538
1311.74	0.027808
1321.38	0.023138
1331.03	0.027768
1340.67	0.044838
1350.32	0.048308
1359.96	0.030058
1369.61	0.017928
1379.25	0.013028
1388.9	0.010048
1398.54	0.006968
1408.18	0.004608
1417.83	0.004578
1427.47	0.006558
1437.12	0.011958
1446.76	0.024788
1456.41	0.036498
1466.05	0.022518
1475.7	0.008698
1485.34	0.004128
1494.99	0.002538
1504.63	0.001718
1514.28	0.001438
1523.92	0.0012054
1533.57	0.0010796
1543.21	0.0009782
1552.86	0.0008188
1562.5	0.0008185
1572.15	0.0008205
1581.79	0.0007321
1591.44	0.0006049
1601.08	0.0006815
1610.73	0.0008081
1620.37	0.0007675
1630.01	0.0006034
1639.66	0.0006444
1649.3	0.0006947
1658.95	0.0007239
1668.59	0.0007334
1678.24	0.0007701
1687.88	0.0008353
1697.53	0.0008473
1707.17	0.0009323
1716.82	0.0008296
1726.46	0.0008231
1736.11	0.0008696
1745.75	0.0008696
1755.4	0.0009236
1765.04	0.0010741
1774.69	0.0011819
1784.33	0.0011913
1793.98	0.0011977
1803.62	0.0012254
1813.27	0.001308
1822.91	0.001348
1832.55	0.001488
1842.2	0.001608
1851.84	0.001878
1861.49	0.002258
1871.13	0.002668
1880.78	0.003238
1890.42	0.004058
1900.07	0.005078
1909.71	0.006428
1919.36	0.008038
1929	0.010168
1938.65	0.012838
1948.29	0.016528
1957.94	0.021338
1967.58	0.028138
1977.23	0.037668
1986.87	0.050558
1996.52	0.068218
2006.16	0.091768
2015.81	0.121438
2025.45	0.158868
2035.1	0.205878
2044.74	0.256548
2054.38	0.284758
2064.03	0.265908
2073.67	0.216298
2083.32	0.167788
2092.96	0.131618
2102.61	0.103888
2112.25	0.080858
2121.9	0.062218
2131.54	0.050148
2141.19	0.043418
2150.83	0.039648
2160.48	0.036148
2170.12	0.032878
2179.77	0.031178
2189.41	0.030988
2199.06	0.031388
2208.7	0.030228
2218.35	0.025828
2227.99	0.019688
2237.64	0.014738
2247.28	0.011418
2256.92	0.008978
2266.57	0.007118
2276.21	0.005838
2285.86	0.004948
2295.5	0.004318
2305.15	0.003678
2314.79	0.003138
2324.44	0.002628
2334.08	0.002308
2343.73	0.002068
2353.37	0.001838
2363.02	0.001718
2372.66	0.001498
2382.31	0.001558
2391.95	0.001408
2401.6	0.001368
2411.24	0.0011253
2420.89	0.0010973
2430.53	0.0010679
2440.18	0.0011129
2449.82	0.0011717
2459.47	0.0012687
2469.11	0.001298
2478.75	0.001488
2488.4	0.001428
2498.04	0.001448
2507.69	0.001468
2517.33	0.001348
2526.98	0.001478
2536.62	0.001448
2546.27	0.001608
2555.91	0.001778
2565.56	0.001968
2575.2	0.002098
2584.85	0.001998
2594.49	0.001928
2604.14	0.002028
2613.78	0.002028
2623.43	0.002198
2633.07	0.002628
2642.72	0.003188
2652.36	0.004158
2662.01	0.004768
2671.65	0.005918
2681.29	0.007568
2690.94	0.008858
2700.58	0.009068
2710.23	0.009558
2719.87	0.010838
2729.52	0.012818
2739.16	0.014818
2748.81	0.016408
2758.45	0.017988
2768.1	0.019068
2777.74	0.020008
2787.39	0.024278
2797.03	0.036158
2806.68	0.056258
2816.32	0.063448
2825.97	0.051388
2835.61	0.038558
2845.26	0.032958
2854.9	0.040788
2864.55	0.055628
2874.19	0.045878
2883.84	0.035218
2893.48	0.032738
2903.12	0.032708
2912.77	0.032808
2922.41	0.036898
2932.06	0.045988
2941.7	0.056868
2951.35	0.059818
2960.99	0.063138
2970.64	0.075798
2980.28	0.048618
2989.93	0.015788
2999.57	0.006628
3009.22	0.003518
3018.86	0.002208
3028.51	0.001638
3038.15	0.0012514
3047.8	0.0011575
3057.44	0.0009785
3067.09	0.0009056
3076.73	0.0009402
3086.38	0.0007063
3096.02	0.0007955
3105.67	0.0006358
3115.31	0.0008272
3124.95	0.0006246
3134.6	0.0006368
3144.24	0.0004119
3153.89	0.0005684
3163.53	0.0005949
3173.18	0.0005727
3182.82	0.0005101
3192.47	0.0004977
3202.11	0.0006392
3211.76	0.00032945
3221.4	0.0004471
3231.05	0.0004003
3240.69	0.00038219
3250.34	0.0002154
3259.98	0.0003441
3269.63	0.0002478
3279.27	0.0003912
3288.92	0.00032733
3298.56	0.0002331
3308.21	0.0002274
3317.85	0.000209
3327.49	0.000162
3337.14	0.00028184
3346.78	0.0002105
3356.43	0
3366.07	0.00034464
3375.72	0.0004993
3385.36	0.00033592
3395.01	0.00028681
3404.65	0.00030092
3414.3	0.000293998
3423.94	0.0004105
3433.59	0.0004083
3443.23	0.0004064
3452.88	0.00036204
3462.52	0.00035225
3472.17	0.000142
3481.81	0.000172
3491.46	0.0002713
3501.1	0.0004106
3510.75	0.0003549
3520.39	0.00031305
3530.04	0.0004184
3539.68	0.0001887
3549.32	0.0004152
3558.97	0.00030445
3568.61	0.0002106
3578.26	0.0002745
3587.9	0.00038045
3597.55	0.00034155
3607.19	0.00035383
3616.84	0.0005065
3626.48	0.00031123
3636.13	0.00036309
3645.77	0.00034124
3655.42	0.0002712
3665.06	0.0003543
3674.71	0.00038792
3684.35	0.00031668
3694	0.00032473
3703.64	0.0004545
3713.29	0.0002125
3722.93	0.0003939
3732.58	0.0003906
3742.22	0.00036157
3751.86	0.00035083
3761.51	0.0005376
3771.15	0.0005815
3780.8	0.0004464
3790.44	0.0005556
3800.09	0.0004826
3809.73	0.0005663
3819.38	0.0006129
3829.02	0.0007923
3838.67	0.0005288
3848.31	0.0008177
3857.96	0.0006724
3867.6	0.0007575
3877.25	0.0007282
3886.89	0.0007467
3896.54	0.0009721
3906.18	0.0009254
3915.83	0.0009463
3925.47	0.0008491
3935.12	0.0009212
3944.76	0.0011535
3954.41	0.0012562
3964.05	0.0012871
3973.69	0.001558
3983.34	0.001698
3992.98	0.001758
