Infrared Spectrum: 1-Diethylamino-2-butyne
Formula: C 8 H 15 N
CAS: 6323-82-6
State: gas
Origin: EPA-IR VAPOR PHASE LIBRARY
1/CM	ABSORBANCE
549.8	0.0017428
559.445	0.002992
569.09	0.002642
578.734	0.0017346
588.379	0.002342
598.024	0.002022
607.669	0.002002
617.313	0.001231
626.958	0.0013157
636.603	0.0009492
646.248	0.001475
655.893	0.00138
665.537	0.0018065
675.182	0.001288
684.827	0.001148
694.472	0.0013204
704.116	0.0015597
713.761	0.0013156
723.406	0.0017717
733.051	0.002122
742.695	0.002442
752.34	0.003962
761.985	0.004222
771.63	0.004442
781.275	0.003922
790.919	0.003782
800.564	0.003692
810.209	0.003172
819.854	0.004002
829.498	0.0015754
839.143	0.0014769
848.788	0.0013108
858.433	0.0016745
868.078	0.0010747
877.722	0.001872
887.367	0.002092
897.012	0.002072
906.657	0.0016707
916.301	0.0018368
925.946	0.0013073
935.591	0.0016911
945.236	0.002032
954.88	0.002452
964.525	0.002642
974.17	0.003212
983.815	0.003562
993.46	0.002872
1003.1	0.002112
1012.75	0.002252
1022.39	0.002442
1032.04	0.003822
1041.68	0.005132
1051.33	0.007712
1060.97	0.009232
1070.62	0.009942
1080.26	0.009622
1089.91	0.009342
1099.55	0.009902
1109.2	0.010862
1118.84	0.011192
1128.49	0.008072
1138.13	0.005022
1147.78	0.007382
1157.42	0.007862
1167.07	0.008002
1176.71	0.007622
1186.36	0.007432
1196	0.009262
1205.64	0.008012
1215.29	0.006812
1224.93	0.004942
1234.58	0.004182
1244.22	0.003562
1253.87	0.004372
1263.51	0.004312
1273.16	0.004302
1282.8	0.005372
1292.45	0.006092
1302.09	0.007222
1311.74	0.010302
1321.38	0.013322
1331.03	0.012232
1340.67	0.010152
1350.32	0.010462
1359.96	0.010672
1369.61	0.011752
1379.25	0.013092
1388.9	0.010722
1398.54	0.006942
1408.18	0.004322
1417.83	0.004042
1427.47	0.004502
1437.12	0.005712
1446.76	0.006942
1456.41	0.007882
1466.05	0.007672
1475.7	0.005842
1485.34	0.004042
1494.99	0.003332
1504.63	0.002772
1514.28	0.002382
1523.92	0.002312
1533.57	0.0018158
1543.21	0.002202
1552.86	0.0018123
1562.5	0.002132
1572.15	0.0014263
1581.79	0.0014591
1591.44	0.0012783
1601.08	0.0015911
1610.73	0.001145
1620.37	0.0015314
1630.01	0.0014064
1639.66	0.001527
1649.3	0.0013608
1658.95	0.0013622
1668.59	0.0012996
1678.24	0.0013501
1687.88	0.0013136
1697.53	0.0016836
1707.17	0.001198
1716.82	0.0010935
1726.46	0.0010222
1736.11	0.0010962
1745.75	0.0010453
1755.4	0.0011661
1765.04	0.0011829
1774.69	0.001185
1784.33	0.0011189
1793.98	0.00094132
1803.62	0.00090214
1813.27	0.0010826
1822.91	0.0010574
1832.55	0.001097
1842.2	0.0010184
1851.84	0.0010151
1861.49	0.00092205
1871.13	0.001027
1880.78	0.0010447
1890.42	0.0010448
1900.07	0.0010234
1909.71	0.0010189
1919.36	0.0010682
1929	0.0011057
1938.65	0.0011175
1948.29	0.0014071
1957.94	0.0007753
1967.58	0.0010203
1977.23	0.0009638
1986.87	0.00089536
1996.52	0.0010731
2006.16	0.00093183
2015.81	0.0007606
2025.45	0.0009783
2035.1	0.00091226
2044.74	0.001177
2054.38	0.0012289
2064.03	0.0010496
2073.67	0.00085055
2083.32	0.0010086
2092.96	0.0009524
2102.61	0.0010713
2112.25	0.00089192
2121.9	0.000654
2131.54	0.0010572
2141.19	0.0009886
2150.83	0.0009653
2160.48	0.00101
2170.12	0.0010633
2179.77	0.0011194
2189.41	0.0013169
2199.06	0.0011659
2208.7	0.0010316
2218.35	0.0011167
2227.99	0.0014431
2237.64	0.0012397
2247.28	0.0012463
2256.92	0.0016279
2266.57	0.0014588
2276.21	0.0015157
2285.86	0.0011014
2295.5	0.0009479
2305.15	0.0010187
2314.79	0.00085955
2324.44	0.0011599
2334.08	0.0008689
2343.73	0.0009681
2353.37	0.00090943
2363.02	0.0012224
2372.66	0.00088046
2382.31	0.00088453
2391.95	0.0012646
2401.6	0.000774
2411.24	0.00090715
2420.89	0.0011212
2430.53	0.001049
2440.18	0.0010639
2449.82	0.0012613
2459.47	0.00087754
2469.11	0.0012304
2478.75	0.0007694
2488.4	0.0012147
2498.04	0.0009785
2507.69	0.0010507
2517.33	0.0011267
2526.98	0.0012499
2536.62	0.000587
2546.27	0.0010832
2555.91	0.001127
2565.56	0.0009828
2575.2	0.0011564
2584.85	0.0011424
2594.49	0.0011328
2604.14	0.0013468
2613.78	0.0015193
2623.43	0.0014847
2633.07	0.0013713
2642.72	0.002152
2652.36	0.002192
2662.01	0.0015729
2671.65	0.002072
2681.29	0.002062
2690.94	0.002402
2700.58	0.002732
2710.23	0.003102
2719.87	0.003382
2729.52	0.003782
2739.16	0.004532
2748.81	0.004672
2758.45	0.005342
2768.1	0.006492
2777.74	0.007862
2787.39	0.010852
2797.03	0.013152
2806.68	0.014202
2816.32	0.016182
2825.97	0.017522
2835.61	0.016222
2845.26	0.012052
2854.9	0.010712
2864.55	0.012062
2874.19	0.014582
2883.84	0.015062
2893.48	0.014572
2903.12	0.013812
2912.77	0.016852
2922.41	0.023752
2932.06	0.034012
2941.7	0.034192
2951.35	0.026482
2960.99	0.025572
2970.64	0.034802
2980.28	0.036492
2989.93	0.021432
2999.57	0.010132
3009.22	0.006552
3018.86	0.004562
3028.51	0.003952
3038.15	0.003652
3047.8	0.002532
3057.44	0.002742
3067.09	0.002622
3076.73	0.002022
3086.38	0.0017682
3096.02	0.0017863
3105.67	0.0015052
3115.31	0.0013416
3124.95	0.0015913
3134.6	0.0011115
3144.24	0.0011213
3153.89	0.0010918
3163.53	0.0016748
3173.18	0.0015069
3182.82	0.001613
3192.47	0.00087417
3202.11	0.0011485
3211.76	0.0010449
3221.4	0.0007571
3231.05	0.000983
3240.69	0.000705
3250.34	0.0012323
3259.98	0.001012
3269.63	0.0010361
3279.27	0.0012019
3288.92	0.0012342
3298.56	0.000369
3308.21	0.00085613
3317.85	0.0008122
3327.49	0.000634
3337.14	0.00093239
3346.78	0.000678
3356.43	0.0010049
3366.07	0.0009791
3375.72	0.000524
3385.36	0.0007947
3395.01	0.000719
3404.65	0.000613
3414.3	0.000741
3423.94	0.0009765
3433.59	0.0012431
3443.23	0.000704
3452.88	0.00085919
3462.52	0.000535
3472.17	0.0005
3481.81	0.0011831
3491.46	0.001192
3501.1	0.000699
3510.75	0.00088253
3520.39	0.0012402
3530.04	0.0010155
3539.68	0.00088386
3549.32	0.000431
3558.97	0.001038
3568.61	0.00052
3578.26	0.00054
3587.9	0.00062
3597.55	0.0013941
3607.19	0.00092304
3616.84	0.0010979
3626.48	0.0014701
3636.13	0.000333
3645.77	0.000402
3655.42	0.0009565
3665.06	0.000429
3674.71	0.000979
3684.35	0.0011506
3694	0.00085546
3703.64	0.000701
3713.29	0.0009966
3722.93	0.0009448
3732.58	0.0010204
3742.22	0.0008827
3751.86	0.0009259
3761.51	0.000587
3771.15	0.0015246
3780.8	0.0014648
3790.44	0.0008269
3800.09	0.0007821
3809.73	0.0008147
3819.38	0.000631
3829.02	0.00089939
3838.67	0.0015324
3848.31	0.000736
3857.96	0.0011929
3867.6	0.0014615
3877.25	0.000546
3886.89	0.00090821
3896.54	0.000442
3906.18	0.0013596
3915.83	0.00089056
3925.47	0.000618
3935.12	0.0009446
3944.76	0.0014002
3954.41	0.0010321
3964.05	0.0010457
3973.69	0.000533
3983.34	0.0014933
3992.98	0.0012255
