Infrared Spectrum: 1-PHENYL-1,1-DI-O-TOLYL-2-PROPANONE
Formula: C23 H22 O
CAS: 6324-65-8
State: SOLID (1.0% IN KBr PELLET)
Class: COBLENTZ
Instrument: Not specified, most likely a prism, grating, or hybrid spectrometer.
Sampling: TRANSMISSION
Path length: 0.0355 CM THICK
Resolution: 4
Origin: ANDERSON PHYSICAL LABORATORY
1/CM	TRANSMITTANCE
664.589	0.841
673.006	0.841
681.422	0.84
689.839	0.816
698.255	0.7251
706.672	0.364
715.088	0.817
723.505	0.4492
731.921	0.67
740.338	0.4979
748.754	0.41
757.171	0.459
765.587	0.5287
774.004	0.9019
782.42	0.926
790.837	0.928
799.253	0.956
807.67	0.964
816.086	0.965
824.503	0.964
832.919	0.961
841.336	0.955
849.752	0.947
858.169	0.937
866.585	0.926
875.002	0.931
883.418	0.911
891.835	0.792
900.251	0.952
908.668	0.958
917.084	0.958
925.501	0.956
933.917	0.95
942.334	0.947
950.75	0.946
959.167	0.925
967.583	0.926
976	0.917
984.416	0.904
992.833	0.862
1001.25	0.867
1009.67	0.895
1018.08	0.897
1026.5	0.876
1034.92	0.77
1043.33	0.828
1051.75	0.859
1060.16	0.853
1068.58	0.849
1077	0.885
1085.41	0.879
1093.83	0.871
1102.25	0.819
1110.66	0.773
1119.08	0.791
1127.5	0.82
1135.91	0.8
1144.33	0.695
1152.75	0.4081
1161.16	0.7
1169.58	0.707
1178	0.75
1186.41	0.841
1194.83	0.767
1203.25	0.831
1211.66	0.837
1220.08	0.908
1228.49	0.923
1236.91	0.923
1245.33	0.923
1253.74	0.923
1262.16	0.919
1270.58	0.911
1278.99	0.9
1287.41	0.882
1295.83	0.886
1304.24	0.901
1312.66	0.901
1321.08	0.886
1329.49	0.868
1337.91	0.865
1346.33	0.826
1354.74	0.5891
1363.16	0.7679
1371.58	0.873
1379.99	0.855
1388.41	0.752
1396.82	0.737
1405.24	0.817
1413.66	0.814
1422.07	0.771
1430.49	0.647
1438.91	0.667
1447.32	0.623
1455.74	0.549
1464.16	0.714
1472.57	0.717
1480.99	0.622
1489.41	0.504
1497.82	0.616
1506.24	0.7761
1514.66	0.894
1523.07	0.904
1531.49	0.929
1539.91	0.935
1548.32	0.943
1556.74	0.931
1565.15	0.928
1573.57	0.905
1581.99	0.892
1590.4	0.885
1598.82	0.831
1607.24	0.835
1615.65	0.868
1624.07	0.865
1632.49	0.861
1640.9	0.864
1649.32	0.862
1657.74	0.861
1666.15	0.838
1674.57	0.823
1682.99	0.802
1691.4	0.746
1699.82	0.549
1708.24	0.225
1716.65	0.4321
1725.07	0.782
1733.48	0.853
1741.9	0.873
1750.32	0.932
1758.73	0.932
1767.15	0.94
1775.57	0.941
1783.98	0.938
1792.4	0.944
1800.82	0.95
1809.23	0.938
1817.65	0.931
1826.07	0.94
1834.48	0.943
1842.9	0.949
1851.32	0.943
1859.73	0.946
1868.15	0.947
1876.57	0.941
1884.98	0.949
1893.4	0.952
1901.81	0.943
1910.23	0.929
1918.65	0.941
1927.06	0.949
1935.48	0.94
1943.9	0.929
1952.31	0.937
1960.73	0.938
1969.15	0.937
1977.56	0.932
1985.98	0.934
1994.4	0.952
2002.81	0.952
2011.23	0.952
2019.65	0.952
2028.06	0.952
2036.48	0.952
2044.9	0.952
2053.31	0.952
2061.73	0.9541
2070.14	0.955
2078.56	0.955
2086.98	0.955
2095.39	0.955
2103.81	0.953
2112.23	0.953
2120.64	0.9527
2129.06	0.952
2137.48	0.952
2145.89	0.95
2154.31	0.9507
2162.73	0.952
2171.14	0.952
2179.56	0.952
2187.98	0.952
2196.39	0.952
2204.81	0.9502
2213.23	0.949
2221.64	0.949
2230.06	0.949
2238.47	0.949
2246.89	0.947
2255.31	0.947
2263.72	0.947
2272.14	0.947
2280.56	0.9462
2288.97	0.9479
2297.39	0.9497
2305.81	0.9529
2314.22	0.956
2322.64	0.958
2331.06	0.959
2339.47	0.961
2347.89	0.9625
2356.31	0.964
2364.72	0.964
2373.14	0.962
2381.56	0.9605
2389.97	0.958
2398.39	0.956
2406.8	0.953
2415.22	0.952
2423.64	0.9509
2432.05	0.95
2440.47	0.949
2448.89	0.95
2457.3	0.95
2465.72	0.95
2474.14	0.95
2482.55	0.95
2490.97	0.95
2499.39	0.95
2507.8	0.95
2516.22	0.95
2524.64	0.95
2533.05	0.95
2541.47	0.95
2549.89	0.95
2558.3	0.9494
2566.72	0.949
2575.13	0.949
2583.55	0.9494
2591.97	0.95
2600.38	0.952
2608.8	0.953
2617.22	0.955
2625.63	0.955
2634.05	0.955
2642.47	0.955
2650.88	0.953
2659.3	0.953
2667.72	0.952
2676.13	0.9498
2684.55	0.9481
2692.97	0.9416
2701.38	0.9381
2709.8	0.9348
2718.22	0.9315
2726.63	0.9295
2735.05	0.926
2743.46	0.9245
2751.88	0.923
2760.3	0.923
2768.71	0.923
2777.13	0.9182
2785.55	0.914
2793.96	0.9061
2802.38	0.901
2810.8	0.8953
2819.21	0.8834
2827.63	0.8714
2836.05	0.8549
2844.46	0.8484
2852.88	0.8464
2861.3	0.8435
2869.71	0.838
2878.13	0.8363
2886.55	0.8273
2894.96	0.8169
2903.38	0.8068
2911.79	0.804
2920.21	0.8046
2928.63	0.807
2937.04	0.807
2945.46	0.8059
2953.88	0.7981
2962.29	0.7914
2970.71	0.7877
2979.13	0.7842
2987.54	0.778
2995.96	0.759
3004.38	0.7434
3012.79	0.7389
3021.21	0.7531
3029.63	0.7736
3038.04	0.7756
3046.46	0.7736
3054.88	0.773
3063.29	0.774
3071.71	0.79
3080.12	0.8146
3088.54	0.8296
3096.96	0.8457
3105.37	0.8527
3113.79	0.858
3122.21	0.858
3130.62	0.856
3139.04	0.8515
3147.46	0.85
3155.87	0.8492
3164.29	0.849
3172.71	0.8462
3181.12	0.8435
3189.54	0.8414
3197.96	0.838
3206.37	0.8364
3214.79	0.8333
3223.21	0.824
3231.62	0.822
3240.04	0.8214
3248.46	0.8173
3256.87	0.8132
3265.29	0.8109
3273.7	0.8093
3282.12	0.8032
3290.54	0.7971
3298.95	0.792
3307.37	0.7903
3315.79	0.7868
3324.2	0.7795
3332.62	0.7694
3341.04	0.7598
3349.45	0.7504
3357.87	0.7433
3366.29	0.7314
3374.7	0.7238
3383.12	0.72
3391.54	0.7112
3399.95	0.7066
3408.37	0.704
3416.79	0.7013
3425.2	0.701
3433.62	0.7024
3442.03	0.7059
3450.45	0.7094
3458.87	0.7169
3467.28	0.7205
3475.7	0.723
3484.12	0.7272
3492.53	0.731
3500.95	0.7377
3509.37	0.742
3517.78	0.7463
3526.2	0.749
3534.62	0.7552
3543.03	0.7682
3551.45	0.7791
3559.87	0.7883
3568.28	0.7985
3576.7	0.8061
3585.12	0.8096
3593.53	0.8131
3601.95	0.8179
3610.36	0.8247
3618.78	0.8288
3627.2	0.832
3635.61	0.834
3644.03	0.834
3652.45	0.834
3660.86	0.8341
3669.28	0.835
3677.7	0.835
3686.11	0.835
3694.53	0.835
3702.95	0.835
3711.36	0.835
3719.78	0.835
3728.2	0.8353
3736.61	0.837
3745.03	0.8357
3753.45	0.8341
3761.86	0.832
3770.28	0.832
3778.69	0.832
3787.11	0.834
3795.53	0.835
3803.94	0.835
3812.36	0.835
3820.78	0.835
3829.19	0.8348
3837.61	0.8331
3846.03	0.8313
3854.44	0.831
3862.86	0.829
3871.28	0.828
3879.69	0.8258
3888.11	0.822
3896.53	0.8167
3904.94	0.8135
3913.36	0.811
3921.78	0.81
3930.19	0.8077
3938.61	0.8059
3947.02	0.8042
3955.44	0.802
3963.86	0.8017
3972.27	0.7989
