Infrared Spectrum: Diethyl formamidomalonate
Formula: C 8 H 13 N O 5
CAS: 6326-44-9
State: gas
Origin: EPA-IR VAPOR PHASE LIBRARY
1/CM	ABSORBANCE
549.8	0.00832
559.445	0.00792
569.09	0.00826
578.735	0.0089
588.38	0.00887
598.025	0.00832
607.67	0.00727
617.315	0.00658
626.96	0.00638
636.605	0.00653
646.251	0.00668
655.896	0.00626
665.541	0.00621
675.186	0.00607
684.831	0.00619
694.476	0.00621
704.121	0.00678
713.766	0.00755
723.411	0.00761
733.056	0.0074
742.701	0.00671
752.346	0.00599
761.991	0.0055
771.636	0.00552
781.281	0.00559
790.926	0.00558
800.571	0.00535
810.216	0.00524
819.861	0.00495
829.507	0.00545
839.152	0.00702
848.797	0.01078
858.442	0.01672
868.087	0.01567
877.732	0.00827
887.377	0.00482
897.022	0.00426
906.667	0.00403
916.312	0.00442
925.957	0.00537
935.602	0.00648
945.247	0.00735
954.892	0.00796
964.537	0.00871
974.182	0.00996
983.827	0.0118
993.472	0.01524
1003.12	0.02285
1012.76	0.03724
1022.41	0.05555
1032.05	0.06447
1041.7	0.05095
1051.34	0.03149
1060.99	0.02338
1070.63	0.02354
1080.28	0.02649
1089.92	0.03038
1099.57	0.03362
1109.21	0.02864
1118.86	0.02496
1128.5	0.03002
1138.15	0.04776
1147.79	0.08192
1157.44	0.11068
1167.08	0.11839
1176.73	0.13693
1186.37	0.17225
1196.02	0.17235
1205.66	0.12589
1215.31	0.09929
1224.95	0.10436
1234.6	0.11253
1244.24	0.10186
1253.89	0.08509
1263.53	0.07866
1273.18	0.08275
1282.82	0.08448
1292.47	0.08064
1302.11	0.08315
1311.76	0.09237
1321.4	0.09141
1331.05	0.07343
1340.69	0.04508
1350.34	0.02478
1359.98	0.02388
1369.63	0.0397
1379.27	0.03584
1388.92	0.02319
1398.56	0.01889
1408.21	0.01624
1417.85	0.01491
1427.5	0.0158
1437.14	0.01927
1446.79	0.02525
1456.43	0.03223
1466.08	0.04551
1475.73	0.06764
1485.37	0.07883
1495.02	0.05497
1504.66	0.02694
1514.31	0.01449
1523.95	0.0095
1533.6	0.00715
1543.24	0.00568
1552.89	0.00493
1562.53	0.00443
1572.18	0.00415
1581.82	0.00402
1591.47	0.00388
1601.11	0.00387
1610.76	0.00392
1620.4	0.00415
1630.05	0.00434
1639.69	0.00449
1649.34	0.00476
1658.98	0.00549
1668.63	0.0069
1678.27	0.00993
1687.92	0.01547
1697.56	0.02595
1707.21	0.04973
1716.85	0.11378
1726.5	0.22429
1736.14	0.20324
1745.79	0.17899
1755.43	0.18158
1765.08	0.19157
1774.72	0.16973
1784.37	0.08995
1794.01	0.03886
1803.66	0.02098
1813.3	0.01365
1822.95	0.01002
1832.59	0.00814
1842.24	0.00705
1851.88	0.00625
1861.53	0.00553
1871.17	0.00508
1880.82	0.00436
1890.46	0.00394
1900.11	0.00335
1909.75	0.00278
1919.4	0.00243
1929.04	0.00221
1938.69	0.00212
1948.33	0.00204
1957.98	0.0019319
1967.62	0.0018705
1977.27	0.0017516
1986.91	0.0016878
1996.56	0.0016221
2006.2	0.0016962
2015.85	0.0017332
2025.49	0.0016496
2035.14	0.0015813
2044.78	0.0016191
2054.43	0.0015215
2064.07	0.0015014
2073.72	0.0015857
2083.36	0.0016039
2093.01	0.001592
2102.65	0.0015073
2112.3	0.0013872
2121.94	0.0013509
2131.59	0.0013347
2141.23	0.0012582
2150.88	0.0012385
2160.52	0.001291
2170.17	0.0013658
2179.81	0.0012866
2189.46	0.00107797
2199.1	0.00107404
2208.75	0.00109087
2218.39	0.0011368
2228.04	0.001201
2237.68	0.0012468
2247.33	0.0013355
2256.97	0.001348
2266.62	0.0013859
2276.26	0.0014407
2285.91	0.0016035
2295.55	0.001862
2305.2	0.00227
2314.84	0.00271
2324.49	0.00292
2334.13	0.00277
2343.78	0.00264
2353.42	0.00277
2363.07	0.00345
2372.72	0.00298
2382.36	0.0017674
2392.01	0.0011925
2401.65	0.00110446
2411.3	0.0011333
2420.94	0.0011449
2430.59	0.0011216
2440.23	0.00103137
2449.88	0.00109105
2459.52	0.0011581
2469.17	0.00109861
2478.81	0.0011544
2488.46	0.0010656
2498.1	0.0009649
2507.75	0.00108914
2517.39	0.00101787
2527.04	0.00105067
2536.68	0.0010712
2546.33	0.0011136
2555.97	0.00110603
2565.62	0.0010455
2575.26	0.0009459
2584.91	0.000866
2594.55	0.0009202
2604.2	0.0009442
2613.84	0.000892
2623.49	0.000855
2633.13	0.000807
2642.78	0.000755
2652.42	0.000878
2662.07	0.000902
2671.71	0.0011153
2681.36	0.0012208
2691	0.0012749
2700.65	0.0014259
2710.29	0.0015049
2719.94	0.001718
2729.58	0.00257
2739.23	0.0046
2748.87	0.00746
2758.52	0.00546
2768.16	0.00316
2777.81	0.00255
2787.45	0.0024
2797.1	0.00253
2806.74	0.00278
2816.39	0.00356
2826.03	0.00489
2835.68	0.00817
2845.32	0.01884
2854.97	0.03558
2864.61	0.03372
2874.26	0.02623
2883.9	0.02077
2893.55	0.01397
2903.19	0.01201
2912.84	0.01339
2922.48	0.0137
2932.13	0.0163
2941.77	0.02407
2951.42	0.02471
2961.06	0.02172
2970.71	0.02758
2980.35	0.04137
2990	0.04948
2999.64	0.03373
3009.29	0.02248
3018.93	0.01426
3028.58	0.00861
3038.22	0.00558
3047.87	0.00377
3057.51	0.00282
3067.16	0.00218
3076.8	0.0019125
3086.45	0.0016727
3096.09	0.0016402
3105.74	0.0019769
3115.38	0.0019334
3125.03	0.0015609
3134.67	0.00104378
3144.32	0.000803
3153.96	0.000836
3163.61	0.000803
3173.25	0.000805
3182.9	0.000562
3192.54	0.000561
3202.19	0.000504
3211.83	0.000359
3221.48	0.000352
3231.12	0.000259
3240.77	0.000389
3250.41	0.000144
3260.06	0.000145
3269.7	0.00015
3279.35	0.000125
3289	0.000277
3298.64	0.000329
3308.29	0.000251
3317.93	0.000106
3327.58	0.000272
3337.22	0.000287
3346.87	0.000333
3356.51	0.000395
3366.16	0.000435
3375.8	0.000744
3385.45	0.00104853
3395.09	0.001578
3404.74	0.00314
3414.38	0.00613
3424.03	0.01041
3433.67	0.01692
3443.32	0.02455
3452.96	0.02118
3462.61	0.01193
3472.25	0.0072
3481.9	0.00449
3491.54	0.003
3501.19	0.00253
3510.83	0.0017436
3520.48	0.0014821
3530.12	0.0012007
3539.77	0.0012238
3549.41	0.000796
3559.06	0.000471
3568.7	0.000456
3578.35	0.00033
3587.99	0.00021
3597.64	0.0003
3607.28	0.000322
3616.93	0.00024
3626.57	0.000239
3636.22	0.000344
3645.86	0.000311
3655.51	0.000292
3665.15	0.000394
3674.8	0.000217
3684.44	0.000273
3694.09	0.000419
3703.73	0.00018
3713.38	0.000108
3723.02	0.000288
3732.67	0.000391
3742.31	0.000193
3751.96	0.000192
3761.6	0.000185
3771.25	0.000472
3780.89	0.000251
3790.54	0.00028
3800.18	0.000217
3809.83	0.000345
3819.47	0.000273
3829.12	0.000258
3838.76	0.000376
3848.41	0.000229
3858.05	0.000393
3867.7	0.000412
3877.34	0.000331
3886.99	0.000331
3896.63	0.000338
3906.28	0.000308
3915.92	0.000577
3925.57	0.000521
3935.21	0.000474
3944.86	0.00055
3954.5	0.000695
3964.15	0.000231
3973.79	0.000598
3983.44	0.000634
3993.08	0.000424
