Infrared Spectrum: CARBANILIC ACID, n-OCTYL ESTER
Formula: C15 H23 N O2
CAS: 6327-52-2
State: SOLID (1.9 mg / 100 mg KBr)
Melting point: 74 C
Class: COBLENTZ
Instrument: Not specified, most likely a grating spectrometer.
Sampling: TRANSMISSION
Resolution: 4
Origin: CITRUS EXPERIMENT STATION, UNIVERSITY OF FLORIDA (G. EDWARDS)
MICROMETERS	TRANSMITTANCE
2.02	0.852
2.05313	0.854
2.08626	0.856
2.11938	0.858
2.15251	0.858
2.18564	0.858
2.21877	0.858
2.2519	0.858
2.28503	0.859
2.31815	0.863
2.35128	0.864
2.38441	0.867
2.41754	0.87
2.45067	0.871
2.48379	0.874
2.51692	0.874
2.55005	0.875
2.58318	0.879
2.61631	0.881
2.64943	0.893
2.68256	0.894
2.71569	0.897
2.74882	0.897
2.78195	0.898
2.81508	0.899
2.8482	0.901
2.88133	0.898
2.91446	0.881
2.94759	0.847
2.98072	0.776
3.01384	0.296
3.04697	0.546
3.0801	0.78
3.11323	0.819
3.14636	0.85
3.17948	0.812
3.21261	0.844
3.24574	0.806
3.27887	0.822
3.312	0.854
3.34513	0.791
3.37825	0.532
3.41138	0.457
3.44451	0.675
3.47764	0.546
3.51077	0.776
3.54389	0.867
3.57702	0.86
3.61015	0.895
3.64328	0.91
3.67641	0.91
3.70953	0.909
3.74266	0.914
3.77579	0.911
3.80892	0.921
3.84205	0.923
3.87518	0.925
3.9083	0.922
3.94143	0.922
3.97456	0.921
4.00769	0.922
4.04082	0.922
4.07394	0.926
4.10707	0.925
4.1402	0.939
4.17333	0.923
4.20646	0.911
4.23958	0.919
4.27271	0.926
4.30584	0.933
4.33897	0.93
4.3721	0.929
4.40523	0.931
4.43835	0.933
4.47148	0.934
4.50461	0.933
4.53774	0.929
4.57087	0.934
4.60399	0.937
4.63712	0.937
4.67025	0.93
4.70338	0.933
4.73651	0.934
4.76963	0.93
4.80276	0.931
4.83589	0.935
4.86902	0.935
4.90215	0.933
4.93528	0.927
4.9684	0.931
5.00153	0.934
5.03466	0.937
5.06779	0.93
5.10092	0.925
5.13404	0.919
5.16717	0.933
5.2003	0.934
5.23343	0.931
5.26656	0.929
5.29968	0.913
5.33281	0.913
5.36594	0.923
5.39907	0.925
5.4322	0.922
5.46533	0.914
5.49845	0.894
5.53158	0.887
5.56471	0.893
5.59784	0.894
5.63097	0.872
5.66409	0.855
5.69722	0.799
5.73035	0.727
5.76348	0.601
5.79661	0.422
5.82973	0.291
5.86286	0.229
5.89599	0.323
5.92912	0.606
5.96225	0.723
5.99538	0.747
6.0285	0.816
6.06163	0.86
6.09476	0.844
6.12789	0.828
6.16102	0.66
6.19414	0.561
6.22727	0.41
6.2604	0.389
6.29353	0.637
6.32666	0.826
6.35978	0.782
6.39291	0.336
6.42604	0.192
6.45917	0.235
6.4923	0.485
6.52543	0.685
6.55855	0.735
6.59168	0.632
6.62481	0.542
6.65794	0.632
6.69107	0.613
6.72419	0.7
6.75732	0.613
6.79045	0.617
6.82358	0.704
6.85671	0.691
6.88983	0.423
6.92296	0.31
6.95609	0.649
6.98922	0.779
7.02235	0.815
7.05548	0.834
7.0886	0.83
7.12173	0.819
7.15486	0.792
7.18799	0.774
7.22112	0.778
7.25424	0.791
7.28737	0.807
7.3205	0.816
7.35363	0.819
7.38676	0.803
7.41988	0.788
7.45301	0.775
7.48614	0.604
7.51927	0.616
7.5524	0.308
7.58553	0.362
7.61865	0.574
7.65178	0.462
7.68491	0.657
7.71804	0.772
7.75117	0.807
7.78429	0.811
7.81742	0.795
7.85055	0.741
7.88368	0.562
7.91681	0.514
7.94993	0.584
7.98306	0.429
8.01619	0.187
8.04932	0.061
8.08245	0.073
8.11558	0.221
8.1487	0.352
8.18183	0.479
8.21496	0.522
8.24809	0.64
8.28122	0.705
8.31434	0.748
8.34747	0.787
8.3806	0.803
8.41373	0.824
8.44686	0.779
8.47998	0.783
8.51311	0.847
8.54624	0.862
8.57937	0.852
8.6125	0.815
8.64563	0.859
8.67875	0.894
8.71188	0.894
8.74501	0.894
8.77814	0.887
8.81127	0.872
8.84439	0.859
8.87752	0.871
8.91065	0.883
8.94378	0.875
8.97691	0.87
9.01003	0.867
9.04316	0.856
9.07629	0.848
9.10942	0.78
9.14255	0.672
9.17568	0.469
9.2088	0.487
9.24193	0.588
9.27506	0.653
9.30819	0.725
9.34132	0.701
9.37444	0.564
9.40757	0.54
9.4407	0.47
9.47383	0.336
9.50696	0.451
9.54008	0.651
9.57321	0.72
9.60634	0.741
9.63947	0.783
9.6726	0.767
9.70573	0.624
9.73885	0.681
9.77198	0.705
9.80511	0.756
9.83824	0.83
9.87137	0.85
9.90449	0.875
9.93762	0.891
9.97075	0.893
10.0039	0.87
10.037	0.788
10.0701	0.823
10.1033	0.863
10.1364	0.887
10.1695	0.895
10.2026	0.905
10.2358	0.899
10.2689	0.875
10.302	0.856
10.3352	0.832
10.3683	0.827
10.4014	0.858
10.4345	0.882
10.4677	0.906
10.5008	0.911
10.5339	0.915
10.5671	0.915
10.6002	0.918
10.6333	0.922
10.6664	0.922
10.6996	0.922
10.7327	0.922
10.7658	0.922
10.799	0.922
10.8321	0.923
10.8652	0.923
10.8983	0.921
10.9315	0.917
10.9646	0.91
10.9977	0.868
11.0309	0.8
11.064	0.852
11.0971	0.913
11.1302	0.923
11.1634	0.921
11.1965	0.914
11.2296	0.914
11.2627	0.918
11.2959	0.925
11.329	0.93
11.3621	0.931
11.3953	0.931
11.4284	0.93
11.4615	0.927
11.4946	0.927
11.5278	0.927
11.5609	0.929
11.594	0.926
11.6272	0.922
11.6603	0.914
11.6934	0.893
11.7265	0.863
11.7597	0.835
11.7928	0.854
11.8259	0.852
11.8591	0.834
11.8922	0.812
11.9253	0.851
11.9584	0.89
11.9916	0.911
12.0247	0.915
12.0578	0.919
12.091	0.923
12.1241	0.923
12.1572	0.923
12.1903	0.923
12.2235	0.925
12.2566	0.925
12.2897	0.929
12.3228	0.93
12.356	0.927
12.3891	0.93
12.4222	0.93
12.4554	0.922
12.4885	0.918
12.5216	0.919
12.5547	0.922
12.5879	0.922
12.621	0.922
12.6541	0.921
12.6873	0.918
12.7204	0.917
12.7535	0.917
12.7866	0.903
12.8198	0.882
12.8529	0.844
12.886	0.79
12.9192	0.688
12.9523	0.652
12.9854	0.693
13.0185	0.76
13.0517	0.762
13.0848	0.711
13.1179	0.677
13.1511	0.697
13.1842	0.704
13.2173	0.676
13.2504	0.636
13.2836	0.596
13.3167	0.554
13.3498	0.487
13.3829	0.502
13.4161	0.573
13.4492	0.659
13.4823	0.729
13.5155	0.767
13.5486	0.804
13.5817	0.811
13.6148	0.815
13.648	0.816
13.6811	0.819
13.7142	0.815
13.7474	0.794
13.7805	0.766
13.8136	0.763
13.8467	0.768
13.8799	0.786
13.913	0.78
13.9461	0.772
13.9793	0.759
14.0124	0.735
14.0455	0.717
14.0786	0.696
14.1118	0.673
14.1449	0.649
14.178	0.633
14.2112	0.624
14.2443	0.617
14.2774	0.614
14.3105	0.617
14.3437	0.632
14.3768	0.644
14.4099	0.653
14.443	0.685
14.4762	0.713
14.5093	0.74
14.5424	0.754
14.5756	0.771
14.6087	0.774
14.6418	0.782
14.6749	0.786
14.7081	0.791
14.7412	0.795
14.7743	0.807
14.8075	0.812
14.8406	0.816
14.8737	0.812
14.9068	0.808
14.94	0.814
14.9731	0.839
