Infrared Spectrum: Purine, 2-amino-6-propoxy-
Formula: C8 H11 N5 O
CAS: 6331-91-5
State: SOLID (0.9 mg / 650 mg KBr DISC)
Class: COBLENTZ III
Instrument: PERKIN-ELMER 21 (GRATING)
Instrument parameters: FILTER CHANGE ABOUT 1025 CM^-^1
Sampling: TRANSMISSION
Resolution: 2
Origin: SOUTHERN RESEARCH INSTITUTE
1/CM	TRANSMITTANCE
601.01	0.4337
610.042	0.442
619.073	0.4392
628.105	0.4332
637.137	0.457
646.169	0.5117
655.2	0.5094
664.232	0.5069
673.264	0.5073
682.296	0.508
691.327	0.5091
700.359	0.5101
709.391	0.5109
718.423	0.5114
727.454	0.512
736.486	0.5439
745.518	0.5553
754.55	0.5493
763.581	0.5155
772.613	0.4871
781.645	0.4234
790.677	0.3331
799.708	0.518
808.74	0.5329
817.772	0.4949
826.804	0.4648
835.835	0.5163
844.867	0.5055
853.899	0.4871
862.931	0.4951
871.962	0.491
880.994	0.4864
890.026	0.4859
899.058	0.4874
908.089	0.4809
917.121	0.455
926.153	0.4314
935.185	0.4003
944.216	0.355
953.248	0.3302
962.28	0.3552
971.312	0.3083
980.343	0.3441
989.375	0.6406
998.407	0.6434
1007.44	0.635
1016.47	0.6224
1025.5	0.5534
1034.53	0.4707
1043.57	0.5214
1052.6	0.5924
1061.63	0.5939
1070.66	0.5161
1079.69	0.4383
1088.72	0.3605
1097.76	0.3438
1106.79	0.3518
1115.82	0.3545
1124.85	0.3593
1133.88	0.4615
1142.91	0.5234
1151.95	0.5213
1160.98	0.5498
1170.01	0.6095
1179.04	0.6112
1188.07	0.6002
1197.11	0.5834
1206.14	0.5469
1215.17	0.4365
1224.2	0.3398
1233.23	0.5409
1242.26	0.5284
1251.3	0.4886
1260.33	0.4055
1269.36	0.31
1278.39	0.2064
1287.42	0.2034
1296.45	0.4065
1305.49	0.5067
1314.52	0.4634
1323.55	0.3495
1332.58	0.2966
1341.61	0.3755
1350.65	0.3436
1359.68	0.2026
1368.71	0.1064
1377.74	0.1985
1386.77	0.2418
1395.8	0.0929
1404.84	0.1119
1413.87	0.4234
1422.9	0.3827
1431.93	0.3616
1440.96	0.2769
1449.99	0.1378
1459.03	0.1264
1468.06	0.1553
1477.09	0.28
1486.12	0.3029
1495.15	0.2742
1504.18	0.1523
1513.22	0.1944
1522.25	0.4168
1531.28	0.5396
1540.31	0.5047
1549.34	0.4201
1558.38	0.3174
1567.41	0.1841
1576.44	0.0703
1585.47	0.0382
1594.5	0.0577
1603.53	0.0841
1612.57	0.0571
1621.6	0.0336
1630.63	0.0544
1639.66	0.1169
1648.69	0.2058
1657.72	0.317
1666.76	0.407
1675.79	0.4594
1684.82	0.5012
1693.85	0.5153
1702.88	0.5451
1711.91	0.5857
1720.95	0.6415
1729.98	0.6758
1739.01	0.6989
1748.04	0.7064
1757.07	0.7139
1766.11	0.7219
1775.14	0.7302
1784.17	0.738
1793.2	0.7448
1802.23	0.7506
1811.26	0.7561
1820.3	0.7612
1829.33	0.7648
1838.36	0.7675
1847.39	0.7688
1856.42	0.7686
1865.45	0.77
1874.49	0.7745
1883.52	0.7824
1892.55	0.7913
1901.58	0.7978
1910.61	0.8013
1919.65	0.8032
1928.68	0.804
1937.71	0.8047
1946.74	0.8048
1955.77	0.8048
1964.8	0.8044
1973.84	0.8037
1982.87	0.8029
1991.9	0.8021
2000.93	0.8011
2009.96	0.7955
2018.99	0.7925
2028.03	0.7899
2037.06	0.7872
2046.09	0.7836
2055.12	0.7803
2064.15	0.7774
2073.18	0.7745
2082.22	0.7712
2091.25	0.7679
2100.28	0.7646
2109.31	0.7615
2118.34	0.7584
2127.38	0.7558
2136.41	0.7531
2145.44	0.7509
2154.47	0.7481
2163.5	0.7447
2172.53	0.7405
2181.57	0.7351
2190.6	0.7296
2199.63	0.7242
2208.66	0.7194
2217.69	0.7146
2226.72	0.7107
2235.76	0.7075
2244.79	0.703
2253.82	0.6966
2262.85	0.6902
2271.88	0.6839
2280.92	0.6775
2289.95	0.671
2298.98	0.6586
2308.01	0.6375
2317.04	0.6285
2326.07	0.622
2335.11	0.6177
2344.14	0.6151
2353.17	0.613
2362.2	0.6114
2371.23	0.6056
2380.26	0.5968
2389.3	0.5871
2398.33	0.5771
2407.36	0.5676
2416.39	0.5582
2425.42	0.5495
2434.45	0.542
2443.49	0.5345
2452.52	0.5245
2461.55	0.5084
2470.58	0.4923
2479.61	0.4781
2488.65	0.4641
2497.68	0.4481
2506.71	0.4299
2515.74	0.411
2524.77	0.3989
2533.8	0.3942
2542.84	0.3964
2551.87	0.3997
2560.9	0.4021
2569.93	0.4085
2578.96	0.4006
2587.99	0.3973
2597.03	0.3939
2606.06	0.3895
2615.09	0.3847
2624.12	0.3791
2633.15	0.3706
2642.18	0.3615
2651.22	0.3525
2660.25	0.3441
2669.28	0.335
2678.31	0.3259
2687.34	0.3186
2696.38	0.3126
2705.41	0.3068
2714.44	0.3017
2723.47	0.2967
2732.5	0.2915
2741.53	0.2818
2750.57	0.2735
2759.6	0.2718
2768.63	0.2726
2777.66	0.2751
2786.69	0.2849
2795.72	0.3035
2804.76	0.3256
2813.79	0.3517
2822.82	0.3725
2831.85	0.3693
2840.88	0.3578
2849.92	0.3436
2858.95	0.3311
2867.98	0.3202
2877.01	0.3147
2886.04	0.316
2895.07	0.3194
2904.11	0.3191
2913.14	0.3145
2922.17	0.2992
2931.2	0.2838
2940.23	0.2722
2949.26	0.2641
2958.3	0.258
2967.33	0.2525
2976.36	0.2528
2985.39	0.2763
2994.42	0.3049
3003.45	0.3232
3012.49	0.3432
3021.52	0.3436
3030.55	0.3398
3039.58	0.3311
3048.61	0.3209
3057.65	0.3131
3066.68	0.3071
3075.71	0.3011
3084.74	0.2952
3093.77	0.2897
3102.8	0.2844
3111.84	0.2801
3120.87	0.2764
3129.9	0.2735
3138.93	0.2708
3147.96	0.2683
3156.99	0.2658
3166.03	0.2647
3175.06	0.2713
3184.09	0.2885
3193.12	0.3065
3202.15	0.3239
3211.19	0.3415
3220.22	0.3613
3229.25	0.3808
3238.28	0.3897
3247.31	0.3895
3256.34	0.3781
3265.38	0.3612
3274.41	0.3426
3283.44	0.3238
3292.47	0.3088
3301.5	0.3018
3310.53	0.3031
3319.57	0.3085
3328.6	0.3206
3337.63	0.3391
3346.66	0.3584
3355.69	0.3767
3364.72	0.3958
3373.76	0.4122
3382.79	0.4246
3391.82	0.4282
3400.85	0.427
3409.88	0.4241
3418.92	0.4194
3427.95	0.4109
3436.98	0.3997
3446.01	0.3899
3455.04	0.3792
3464.07	0.363
3473.11	0.351
3482.14	0.3421
3491.17	0.339
3500.2	0.3429
3509.23	0.3702
3518.26	0.4251
3527.3	0.4829
3536.33	0.5343
3545.36	0.5616
3554.39	0.5803
3563.42	0.5907
3572.45	0.6004
3581.49	0.6111
3590.52	0.6237
3599.55	0.6377
3608.58	0.6508
3617.61	0.6636
3626.65	0.6744
3635.68	0.6832
3644.71	0.6933
3653.74	0.7015
3662.77	0.7063
3671.8	0.7089
3680.84	0.7107
3689.87	0.7123
3698.9	0.713
3707.93	0.7136
3716.96	0.7139
3725.99	0.7143
3735.03	0.7149
3744.06	0.7159
3753.09	0.7169
3762.12	0.7168
3771.15	0.7165
3780.19	0.7162
3789.22	0.7159
3798.25	0.7155
3807.28	0.713
3816.31	0.7092
3825.34	0.7055
3834.38	0.7039
3843.41	0.703
3852.44	0.6977
3861.47	0.6917
3870.5	0.6877
3879.53	0.6877
3888.57	0.6895
3897.6	0.6894
3906.63	0.688
3915.66	0.6854
3924.69	0.6825
3933.72	0.6809
3942.76	0.6795
3951.79	0.6784
3960.82	0.6774
3969.85	0.6763
3978.88	0.6744
3987.92	0.6716
3996.95	0.6669
4005.98	0.6625
