Infrared Spectrum: Benzaldehyde, p-nitro-, purin-6-yl-hydrazone
Formula: C12 H9 N7 O2
CAS: 6331-03-9
State: SOLID (0.7 mg / 650 mg KBr DISC)
Class: COBLENTZ III
Instrument: PERKIN-ELMER 21 (GRATING)
Instrument parameters: FILTER CHANGE ABOUT 1020 CM^-^1
Sampling: TRANSMISSION
Resolution: 2
Origin: SOUTHERN RESEARCH INSTITUTE
1/CM	TRANSMITTANCE
607	0.5808
616.027	0.5782
625.053	0.574
634.08	0.5649
643.106	0.5616
652.133	0.5652
661.159	0.5771
670.186	0.5698
679.212	0.5126
688.239	0.491
697.265	0.587
706.292	0.5933
715.318	0.5861
724.345	0.5617
733.371	0.5281
742.398	0.5361
751.424	0.5414
760.451	0.6607
769.477	0.6445
778.504	0.6328
787.531	0.6109
796.557	0.5466
805.584	0.5962
814.61	0.5836
823.637	0.5818
832.663	0.512
841.69	0.4346
850.716	0.5003
859.743	0.5744
868.769	0.518
877.796	0.6586
886.822	0.631
895.849	0.571
904.875	0.4786
913.902	0.6412
922.928	0.6337
931.955	0.612
940.981	0.5626
950.008	0.5827
959.034	0.5861
968.061	0.6195
977.088	0.6319
986.114	0.6143
995.141	0.5948
1004.17	0.5795
1013.19	0.5565
1022.22	0.5568
1031.25	0.5521
1040.27	0.5195
1049.3	0.463
1058.33	0.3434
1067.35	0.3391
1076.38	0.4741
1085.41	0.3573
1094.43	0.2675
1103.46	0.2529
1112.49	0.3999
1121.51	0.3947
1130.54	0.295
1139.56	0.2668
1148.59	0.5207
1157.62	0.5256
1166.64	0.5183
1175.67	0.3737
1184.7	0.3944
1193.72	0.6222
1202.75	0.612
1211.78	0.5807
1220.8	0.5208
1229.83	0.5007
1238.86	0.5197
1247.88	0.5465
1256.91	0.5094
1265.94	0.4694
1274.96	0.4259
1283.99	0.3704
1293.02	0.2618
1302.04	0.2833
1311.07	0.1778
1320.1	0.1311
1329.12	0.1099
1338.15	0.1687
1347.18	0.2554
1356.2	0.5605
1365.23	0.4118
1374.25	0.149
1383.28	0.2449
1392.31	0.3272
1401.33	0.1901
1410.36	0.4105
1419.39	0.6839
1428.41	0.716
1437.44	0.6733
1446.47	0.4413
1455.49	0.5669
1464.52	0.653
1473.55	0.5922
1482.57	0.5363
1491.6	0.4584
1500.63	0.3283
1509.65	0.216
1518.68	0.3085
1527.71	0.4496
1536.73	0.3905
1545.76	0.2665
1554.79	0.2014
1563.81	0.1517
1572.84	0.319
1581.86	0.2944
1590.89	0.228
1599.92	0.3693
1608.94	0.2872
1617.97	0.1504
1627	0.1381
1636.02	0.2918
1645.05	0.4738
1654.08	0.6397
1663.1	0.6728
1672.13	0.7212
1681.16	0.7767
1690.18	0.7823
1699.21	0.784
1708.24	0.7771
1717.26	0.7735
1726.29	0.7637
1735.32	0.7581
1744.34	0.7538
1753.37	0.7453
1762.4	0.7324
1771.42	0.723
1780.45	0.7181
1789.47	0.7149
1798.5	0.7109
1807.53	0.7054
1816.55	0.7031
1825.58	0.7024
1834.61	0.7033
1843.63	0.7012
1852.66	0.6952
1861.69	0.6886
1870.71	0.6825
1879.74	0.6767
1888.77	0.6722
1897.79	0.6685
1906.82	0.667
1915.85	0.6665
1924.87	0.6651
1933.9	0.6627
1942.93	0.6599
1951.95	0.6571
1960.98	0.6523
1970.01	0.6458
1979.03	0.64
1988.06	0.6375
1997.08	0.6365
2006.11	0.6331
2015.14	0.6276
2024.16	0.6219
2033.19	0.617
2042.22	0.613
2051.24	0.6094
2060.27	0.605
2069.3	0.6002
2078.32	0.5954
2087.35	0.5911
2096.38	0.587
2105.4	0.5845
2114.43	0.5812
2123.46	0.5775
2132.48	0.5739
2141.51	0.5714
2150.54	0.5683
2159.56	0.5649
2168.59	0.5616
2177.62	0.5586
2186.64	0.5562
2195.67	0.5543
2204.69	0.5531
2213.72	0.5461
2222.75	0.5419
2231.77	0.5433
2240.8	0.5443
2249.83	0.5382
2258.85	0.5291
2267.88	0.5215
2276.91	0.5128
2285.93	0.4935
2294.96	0.4775
2303.99	0.465
2313.01	0.4565
2322.04	0.4517
2331.07	0.4512
2340.09	0.4519
2349.12	0.4523
2358.15	0.459
2367.17	0.4627
2376.2	0.4615
2385.23	0.4568
2394.25	0.4479
2403.28	0.4424
2412.31	0.4392
2421.33	0.4369
2430.36	0.4353
2439.38	0.4331
2448.41	0.4308
2457.44	0.4282
2466.46	0.4251
2475.49	0.4219
2484.52	0.4178
2493.54	0.4135
2502.57	0.4073
2511.6	0.4002
2520.62	0.3915
2529.65	0.3827
2538.68	0.374
2547.7	0.3652
2556.73	0.3565
2565.76	0.3498
2574.78	0.3441
2583.81	0.3382
2592.84	0.3335
2601.86	0.3301
2610.89	0.3279
2619.92	0.3263
2628.94	0.3238
2637.97	0.3197
2646.99	0.3174
2656.02	0.3169
2665.05	0.3167
2674.07	0.3171
2683.1	0.3174
2692.13	0.3174
2701.15	0.3178
2710.18	0.3189
2719.21	0.32
2728.23	0.3208
2737.26	0.3214
2746.29	0.3222
2755.31	0.323
2764.34	0.3239
2773.37	0.3245
2782.39	0.3248
2791.42	0.3256
2800.45	0.3272
2809.47	0.3299
2818.5	0.3328
2827.53	0.3366
2836.55	0.3433
2845.58	0.3518
2854.6	0.36
2863.63	0.3671
2872.66	0.3742
2881.68	0.3787
2890.71	0.3823
2899.74	0.3843
2908.76	0.3849
2917.79	0.385
2926.82	0.3849
2935.84	0.3848
2944.87	0.3852
2953.9	0.386
2962.92	0.3877
2971.95	0.3929
2980.98	0.3972
2990	0.3974
2999.03	0.3969
3008.06	0.3969
3017.08	0.3974
3026.11	0.3985
3035.14	0.3991
3044.16	0.4007
3053.19	0.4033
3062.21	0.404
3071.24	0.4006
3080.27	0.3959
3089.29	0.3895
3098.32	0.3873
3107.35	0.3886
3116.37	0.3922
3125.4	0.3959
3134.43	0.3921
3143.45	0.3869
3152.48	0.3859
3161.51	0.3844
3170.53	0.3828
3179.56	0.3814
3188.59	0.381
3197.61	0.3828
3206.64	0.3859
3215.67	0.3862
3224.69	0.3835
3233.72	0.379
3242.75	0.3736
3251.77	0.3678
3260.8	0.3622
3269.82	0.3569
3278.85	0.352
3287.88	0.3476
3296.9	0.3441
3305.93	0.3429
3314.96	0.3365
3323.98	0.3274
3333.01	0.328
3342.04	0.328
3351.06	0.3214
3360.09	0.3139
3369.12	0.3072
3378.14	0.3005
3387.17	0.2927
3396.2	0.2845
3405.22	0.276
3414.25	0.2671
3423.28	0.259
3432.3	0.2545
3441.33	0.2517
3450.36	0.2627
3459.38	0.287
3468.41	0.321
3477.44	0.3405
3486.46	0.3429
3495.49	0.3367
3504.51	0.3292
3513.54	0.3298
3522.57	0.3307
3531.59	0.3307
3540.62	0.3303
3549.65	0.3302
3558.67	0.3306
3567.7	0.3311
3576.73	0.3325
3585.75	0.3401
3594.78	0.3448
3603.81	0.3463
3612.83	0.3463
3621.86	0.3459
3630.89	0.3454
3639.91	0.3449
3648.94	0.3442
3657.97	0.343
3666.99	0.3418
3676.02	0.3405
3685.05	0.3395
3694.07	0.3384
3703.1	0.3373
3712.12	0.3364
3721.15	0.3356
3730.18	0.3348
3739.2	0.3342
3748.23	0.3336
3757.26	0.333
3766.28	0.3327
3775.31	0.3324
3784.34	0.3322
3793.36	0.3322
3802.39	0.3317
3811.42	0.3307
3820.44	0.3278
3829.47	0.3211
3838.5	0.3201
3847.52	0.3197
3856.55	0.3202
3865.58	0.3211
3874.6	0.3217
3883.63	0.3219
3892.66	0.322
3901.68	0.3217
3910.71	0.3214
3919.73	0.3208
3928.76	0.3201
3937.79	0.3194
3946.81	0.3184
3955.84	0.3173
3964.87	0.3152
3973.89	0.3127
3982.92	0.3102
3991.95	0.306
4000.97	0.2999
4010	0.2881
