Infrared Spectrum: Purine, 2,6-bis(MethylAmino)-
Formula: C7 H10 N6
CAS: 6333-66-0
State: SOLID (0.8 mg / 650 mg KBr DISC)
Class: COBLENTZ III
Instrument: PERKIN-ELMER 21 (GRATING)
Instrument parameters: FILTER CHANGE ABOUT 1020 CM^-^1
Sampling: TRANSMISSION
Resolution: 2
Origin: SOUTHERN RESEARCH INSTITUTE
1/CM	TRANSMITTANCE
608	0.2892
617	0.2992
626	0.3353
635	0.4248
644	0.4364
653	0.4371
662	0.4386
671	0.4822
680	0.4765
689	0.4632
698	0.4795
707	0.5144
716	0.5162
725	0.5043
734	0.4716
743	0.4622
752	0.5249
761	0.5405
770	0.5323
779	0.4021
788	0.4583
797	0.5744
806	0.5271
815	0.4588
824	0.383
833	0.3211
842	0.3634
851	0.4874
860	0.5699
869	0.638
878	0.656
887	0.6544
896	0.6345
905	0.5914
914	0.4971
923	0.3184
932	0.456
941	0.7406
950	0.7374
959	0.7244
968	0.7177
977	0.7342
986	0.726
995	0.6979
1004	0.6919
1013	0.6848
1022	0.6767
1031	0.666
1040	0.6566
1049	0.647
1058	0.6277
1067	0.583
1076	0.4584
1085	0.3103
1094	0.5073
1103	0.6068
1112	0.5536
1121	0.3455
1130	0.3758
1139	0.3917
1148	0.5304
1157	0.5437
1166	0.5327
1175	0.6179
1184	0.6194
1193	0.6059
1202	0.5879
1211	0.5544
1220	0.4791
1229	0.3957
1238	0.4793
1247	0.3963
1256	0.2522
1265	0.2345
1274	0.3871
1283	0.4997
1292	0.4741
1301	0.403
1310	0.3303
1319	0.2576
1328	0.2433
1337	0.365
1346	0.2553
1355	0.1299
1364	0.1562
1373	0.1939
1382	0.1313
1391	0.1718
1400	0.2648
1409	0.4495
1418	0.3623
1427	0.3844
1436	0.3785
1445	0.3225
1454	0.3167
1463	0.275
1472	0.1838
1481	0.0981
1490	0.047
1499	0.0696
1508	0.1144
1517	0.1566
1526	0.2084
1535	0.2831
1544	0.2681
1553	0.2575
1562	0.2192
1571	0.1425
1580	0.0672
1589	0.0289
1598	0.0161
1607	0.0195
1616	0.0287
1625	0.0449
1634	0.1391
1643	0.2821
1652	0.3717
1661	0.4864
1670	0.5884
1679	0.6426
1688	0.6969
1697	0.733
1706	0.7572
1715	0.7787
1724	0.7999
1733	0.825
1742	0.8421
1751	0.8501
1760	0.8675
1769	0.8725
1778	0.8723
1787	0.8743
1796	0.8785
1805	0.8849
1814	0.8886
1823	0.8902
1832	0.8904
1841	0.8896
1850	0.8887
1859	0.8875
1868	0.8862
1877	0.8845
1886	0.8823
1895	0.8796
1904	0.8762
1913	0.872
1922	0.8676
1931	0.8621
1940	0.8563
1949	0.8501
1958	0.8441
1967	0.8408
1976	0.8411
1985	0.8416
1994	0.8427
2003	0.8421
2012	0.8383
2021	0.8325
2030	0.8233
2039	0.8144
2048	0.8084
2057	0.8052
2066	0.8028
2075	0.8004
2084	0.7985
2093	0.7966
2102	0.7951
2111	0.794
2120	0.7933
2129	0.791
2138	0.7874
2147	0.7836
2156	0.7796
2165	0.7753
2174	0.7705
2183	0.7659
2192	0.7618
2201	0.7577
2210	0.7522
2219	0.7451
2228	0.7387
2237	0.7323
2246	0.7257
2255	0.7182
2264	0.7101
2273	0.701
2282	0.6904
2291	0.6769
2300	0.6673
2309	0.6621
2318	0.659
2327	0.6554
2336	0.6523
2345	0.6495
2354	0.6463
2363	0.642
2372	0.6371
2381	0.6303
2390	0.622
2399	0.6133
2408	0.6032
2417	0.5928
2426	0.5813
2435	0.5704
2444	0.5603
2453	0.5494
2462	0.5389
2471	0.529
2480	0.5175
2489	0.4972
2498	0.4769
2507	0.4567
2516	0.441
2525	0.4354
2534	0.4347
2543	0.4357
2552	0.4329
2561	0.4168
2570	0.3989
2579	0.385
2588	0.3741
2597	0.367
2606	0.362
2615	0.3594
2624	0.3538
2633	0.3444
2642	0.3346
2651	0.3235
2660	0.3147
2669	0.3039
2678	0.2882
2687	0.2674
2696	0.2597
2705	0.2568
2714	0.2552
2723	0.2521
2732	0.2358
2741	0.2199
2750	0.2095
2759	0.2051
2768	0.2035
2777	0.2046
2786	0.2074
2795	0.2134
2804	0.2264
2813	0.2434
2822	0.2531
2831	0.2519
2840	0.2485
2849	0.2437
2858	0.2285
2867	0.2137
2876	0.211
2885	0.213
2894	0.2169
2903	0.2285
2912	0.2486
2921	0.2579
2930	0.2559
2939	0.2507
2948	0.243
2957	0.2428
2966	0.2456
2975	0.2565
2984	0.2726
2993	0.2938
3002	0.2993
3011	0.2952
3020	0.2878
3029	0.2713
3038	0.2637
3047	0.268
3056	0.2792
3065	0.2944
3074	0.3124
3083	0.3171
3092	0.3186
3101	0.3198
3110	0.3231
3119	0.3311
3128	0.3409
3137	0.3502
3146	0.3526
3155	0.3406
3164	0.3214
3173	0.2948
3182	0.2799
3191	0.2801
3200	0.2871
3209	0.2911
3218	0.2806
3227	0.2587
3236	0.2319
3245	0.2069
3254	0.2008
3263	0.2089
3272	0.2349
3281	0.3014
3290	0.3282
3299	0.3577
3308	0.3682
3317	0.3638
3326	0.3518
3335	0.3334
3344	0.3146
3353	0.2998
3362	0.2986
3371	0.3301
3380	0.373
3389	0.4329
3398	0.4774
3407	0.5212
3416	0.5678
3425	0.5983
3434	0.6163
3443	0.6306
3452	0.6421
3461	0.6519
3470	0.66
3479	0.6661
3488	0.6717
3497	0.6772
3506	0.6828
3515	0.6892
3524	0.6975
3533	0.7077
3542	0.7154
3551	0.7226
3560	0.7309
3569	0.742
3578	0.7523
3587	0.758
3596	0.7617
3605	0.7639
3614	0.7657
3623	0.7663
3632	0.7665
3641	0.7667
3650	0.7664
3659	0.766
3668	0.7658
3677	0.7657
3686	0.7652
3695	0.7646
3704	0.7631
3713	0.7608
3722	0.76
3731	0.7601
3740	0.7597
3749	0.759
3758	0.7574
3767	0.7537
3776	0.7479
3785	0.7425
3794	0.7383
3803	0.7351
3812	0.7325
3821	0.7298
3830	0.7262
3839	0.7207
3848	0.7153
3857	0.711
3866	0.7069
3875	0.7031
3884	0.6996
3893	0.696
3902	0.6938
3911	0.6916
3920	0.6897
3929	0.6881
3938	0.6865
3947	0.6851
3956	0.6837
3965	0.6823
3974	0.6821
3983	0.6825
3992	0.6833
