Infrared Spectrum: 2-HYDROXY-1-NAPHTHYLPHENYL KETONE
Formula: C17 H12 O2
CAS: 6333-07-9
State: SOLUTION (1% IN CCl4 FOR 5000-1350 CM^-^1, 1% IN CS2 FOR 1350-625 CM^-^1)
Class: COBLENTZ
Instrument: Not specified, most likely a prism, grating, or hybrid spectrometer.
Sampling: TRANSMISSION
Path length: 0.1 CM, 0.1 CM
Resolution: 4
Origin: DOW CHEMICAL COMPANY
MICROMETERS	TRANSMITTANCE
2.021	0.881
2.06016	0.882
2.09931	0.874
2.13847	0.874
2.17762	0.876
2.21678	0.881
2.25593	0.881
2.29509	0.882
2.33425	0.884
2.3734	0.884
2.41256	0.884
2.45171	0.886
2.49087	0.891
2.53002	0.894
2.56918	0.894
2.60833	0.891
2.64749	0.882
2.68665	0.879
2.7258	0.881
2.76496	0.873
2.80411	0.866
2.84327	0.852
2.88242	0.822
2.92158	0.804
2.96074	0.785
2.99989	0.773
3.03905	0.76
3.0782	0.751
3.11736	0.751
3.15651	0.751
3.19567	0.726
3.23482	0.616
3.27398	0.564
3.31314	0.725
3.35229	0.785
3.39145	0.8
3.4306	0.822
3.46976	0.83
3.50891	0.834
3.54807	0.83
3.58723	0.84
3.62638	0.842
3.66554	0.85
3.70469	0.863
3.74385	0.869
3.783	0.868
3.82216	0.868
3.86132	0.879
3.90047	0.891
3.93963	0.899
3.97878	0.904
4.01794	0.91
4.05709	0.91
4.09625	0.91
4.1354	0.9
4.17456	0.874
4.21372	0.839
4.25287	0.78
4.29203	0.733
4.33118	0.718
4.37034	0.786
4.40949	0.868
4.44865	0.902
4.48781	0.931
4.52696	0.933
4.56612	0.938
4.60527	0.943
4.64443	0.939
4.68358	0.944
4.72274	0.938
4.76189	0.941
4.80105	0.933
4.84021	0.91
4.87936	0.892
4.91852	0.879
4.95767	0.865
4.99683	0.865
5.03598	0.861
5.07514	0.856
5.1143	0.856
5.15345	0.879
5.19261	0.86
5.23176	0.861
5.27092	0.865
5.31007	0.874
5.34923	0.85
5.38838	0.832
5.42754	0.822
5.4667	0.827
5.50585	0.824
5.54501	0.873
5.58416	0.881
5.62332	0.869
5.66247	0.886
5.70163	0.871
5.74079	0.882
5.77994	0.879
5.8191	0.865
5.85825	0.824
5.89741	0.788
5.93656	0.77
5.97572	0.71
6.01488	0.608
6.05403	0.453
6.09319	0.19
6.13234	0.024
6.1715	0.037
6.21065	0.045
6.24981	0.032
6.28896	0.021
6.32812	0.017
6.36728	0.017
6.40643	0.017
6.44559	0.021
6.48474	0.026
6.5239	0.034
6.56305	0.043
6.60221	0.082
6.64137	0.182
6.68052	0.302
6.71968	0.419
6.75883	0.331
6.79799	0.134
6.83714	0.331
6.8763	0.538
6.91545	0.681
6.95461	0.622
6.99377	0.562
7.03292	0.404
7.07208	0.239
7.11123	0.292
7.15039	0.455
7.18954	0.6
7.2287	0.582
7.26786	0.413
7.30701	0.487
7.34617	0.486
7.38532	0.443
7.42448	0.32
7.46363	0.139
7.50279	0.084
7.54195	0.165
7.5811	0.245
7.62026	0.282
7.65941	0.33
7.69857	0.507
7.73772	0.626
7.77688	0.608
7.81603	0.544
7.85519	0.465
7.89435	0.357
7.9335	0.341
7.97266	0.269
8.01181	0.086
8.05097	0.061
8.09012	0.081
8.12928	0.043
8.16844	0.052
8.20759	0.108
8.24675	0.095
8.2859	0.333
8.32506	0.52
8.36421	0.6
8.40337	0.608
8.44252	0.482
8.48168	0.398
8.52084	0.613
8.55999	0.585
8.59915	0.455
8.6383	0.486
8.67746	0.447
8.71661	0.291
8.75577	0.452
8.79493	0.725
8.83408	0.791
8.87324	0.821
8.91239	0.839
8.95155	0.852
8.9907	0.863
9.02986	0.863
9.06902	0.871
9.10817	0.871
9.14733	0.868
9.18648	0.835
9.22564	0.769
9.26479	0.681
9.30395	0.622
9.3431	0.538
9.38226	0.593
9.42142	0.78
9.46057	0.822
9.49973	0.83
9.53888	0.821
9.57804	0.772
9.61719	0.712
9.65635	0.739
9.69551	0.639
9.73466	0.627
9.77382	0.839
9.81297	0.873
9.85213	0.882
9.89128	0.873
9.93044	0.85
9.96959	0.829
10.0088	0.894
10.0479	0.9
10.0871	0.886
10.1262	0.881
10.1654	0.869
10.2045	0.824
10.2437	0.725
10.2828	0.567
10.322	0.604
10.3612	0.791
10.4003	0.861
10.4395	0.882
10.4786	0.876
10.5178	0.806
10.5569	0.734
10.5961	0.8
10.6352	0.824
10.6744	0.756
10.7136	0.586
10.7527	0.487
10.7919	0.59
10.831	0.536
10.8702	0.343
10.9093	0.26
10.9485	0.505
10.9876	0.632
11.0268	0.692
11.066	0.691
11.1051	0.661
11.1443	0.621
11.1834	0.569
11.2226	0.502
11.2617	0.419
11.3009	0.349
11.34	0.292
11.3792	0.256
11.4184	0.213
11.4575	0.182
11.4967	0.152
11.5358	0.125
11.575	0.092
11.6141	0.076
11.6533	0.073
11.6924	0.076
11.7316	0.091
11.7708	0.121
11.8099	0.18
11.8491	0.245
11.8882	0.313
11.9274	0.349
11.9665	0.333
12.0057	0.232
12.0448	0.076
12.084	0.009
12.1232	0.115
12.1623	0.291
12.2015	0.419
12.2406	0.473
12.2798	0.492
12.3189	0.492
12.3581	0.487
12.3972	0.481
12.4364	0.479
12.4756	0.487
12.5147	0.491
12.5539	0.482
12.593	0.474
12.6322	0.465
12.6713	0.452
12.7105	0.45
12.7496	0.452
12.7888	0.453
12.828	0.43
12.8671	0.333
12.9063	0.239
12.9454	0.307
12.9846	0.422
13.0237	0.463
13.0629	0.471
13.102	0.469
13.1412	0.46
13.1804	0.44
13.2195	0.398
13.2587	0.3
13.2978	0.164
13.337	0.047
13.3761	0.048
13.4153	0.186
13.4544	0.282
13.4936	0.321
13.5328	0.33
13.5719	0.318
13.6111	0.286
13.6502	0.248
13.6894	0.206
13.7285	0.173
13.7677	0.186
13.8068	0.248
13.846	0.305
13.8852	0.359
13.9243	0.39
13.9635	0.4
14.0026	0.406
14.0418	0.403
14.0809	0.395
14.1201	0.377
14.1592	0.341
14.1984	0.287
14.2376	0.222
14.2767	0.138
14.3159	0.073
14.355	0.071
14.3942	0.144
14.4333	0.239
14.4725	0.304
14.5116	0.325
14.5508	0.318
14.59	0.281
14.6291	0.243
14.6683	0.224
14.7074	0.227
14.7466	0.253
14.7857	0.276
14.8249	0.291
14.864	0.3
14.9032	0.295
14.9424	0.292
14.9815	0.287
15.0207	0.265
15.0598	0.234
15.099	0.206
15.1381	0.188
15.1773	0.177
15.2165	0.17
15.2556	0.165
15.2948	0.164
15.3339	0.169
15.3731	0.172
15.4122	0.169
15.4514	0.16
15.4905	0.141
15.5297	0.118
15.5689	0.107
15.608	0.112
15.6472	0.133
15.6863	0.162
15.7255	0.175
15.7646	0.185
15.8038	0.193
15.8429	0.195
15.8821	0.165
