Infrared Spectrum: HYDRACRYLIC ACID, 2-(CARBOXYAMINO)-, DIBENZYL ESTER, CHLOROACETATE
Formula: C20 H20 Cl N O6
CAS: 6335-07-5
State: SOLID (1.3 mg / 650 mg, KBr DISC)
Class: COBLENTZ III
Instrument: PERKIN-ELMER 21 (GRATING)
Instrument parameters: FILTER CHANGE AT ABOUT 1090 CM^-^1
Sampling: TRANSMISSION
Resolution: 2
Origin: SOUTHERN RESEARCH INSTITUTE
1/CM	TRANSMITTANCE
613.106	0.655
621.397	0.651
629.688	0.648
637.979	0.643
646.27	0.6383
654.561	0.6284
662.852	0.6065
671.143	0.5616
679.434	0.52
687.725	0.4948
696.016	0.4296
704.307	0.245
712.598	0.545
720.889	0.607
729.18	0.531
737.471	0.3074
745.762	0.4231
754.053	0.5071
762.344	0.323
770.636	0.5877
778.927	0.4829
787.218	0.4728
795.509	0.5867
803.8	0.6825
812.091	0.704
820.382	0.701
828.673	0.6654
836.964	0.6744
845.255	0.717
853.546	0.722
861.837	0.72
870.128	0.7023
878.419	0.6587
886.71	0.6751
895.001	0.6451
903.292	0.5809
911.583	0.566
919.874	0.5789
928.165	0.5434
936.456	0.5771
944.747	0.5827
953.038	0.5042
961.329	0.4911
969.62	0.5808
977.911	0.5416
986.202	0.4812
994.493	0.4489
1002.78	0.388
1011.08	0.4682
1019.37	0.4923
1027.66	0.4377
1035.95	0.4371
1044.24	0.4912
1052.53	0.3543
1060.82	0.235
1069.11	0.3878
1077.4	0.4206
1085.69	0.3555
1093.99	0.4016
1102.28	0.5086
1110.57	0.5315
1118.86	0.5026
1127.15	0.473
1135.44	0.4149
1143.73	0.32
1152.02	0.149
1160.31	0.1398
1168.6	0.2366
1176.9	0.3422
1185.19	0.3767
1193.48	0.37
1201.77	0.378
1210.06	0.372
1218.35	0.3247
1226.64	0.2941
1234.93	0.2447
1243.22	0.2243
1251.52	0.2778
1259.81	0.239
1268.1	0.3133
1276.39	0.3751
1284.68	0.4156
1292.97	0.3678
1301.26	0.2564
1309.55	0.17
1317.84	0.1993
1326.13	0.3504
1334.43	0.444
1342.72	0.4527
1351.01	0.4898
1359.3	0.5421
1367.59	0.6009
1375.88	0.6336
1384.17	0.5637
1392.46	0.5565
1400.75	0.511
1409.04	0.3947
1417.34	0.5636
1425.63	0.6275
1433.92	0.6629
1442.21	0.674
1450.5	0.598
1458.79	0.4412
1467.08	0.5084
1475.37	0.511
1483.66	0.6465
1491.95	0.6468
1500.25	0.5593
1508.54	0.4641
1516.83	0.4498
1525.12	0.3683
1533.41	0.2533
1541.7	0.1904
1549.99	0.2932
1558.28	0.4049
1566.57	0.5689
1574.87	0.6361
1583.16	0.6754
1591.45	0.6398
1599.74	0.6801
1608.03	0.687
1616.32	0.667
1624.61	0.6909
1632.9	0.6871
1641.19	0.6636
1649.48	0.6504
1657.78	0.6282
1666.07	0.6143
1674.36	0.5676
1682.65	0.5294
1690.94	0.4755
1699.23	0.3464
1707.52	0.2309
1715.81	0.1296
1724.1	0.122
1732.39	0.1314
1740.69	0.1963
1748.98	0.2816
1757.27	0.3256
1765.56	0.3249
1773.85	0.1765
1782.14	0.375
1790.43	0.5193
1798.72	0.6087
1807.01	0.6541
1815.3	0.665
1823.6	0.6829
1831.89	0.7097
1840.18	0.722
1848.47	0.741
1856.76	0.7473
1865.05	0.757
1873.34	0.758
1881.63	0.7663
1889.92	0.7706
1898.22	0.7746
1906.51	0.7815
1914.8	0.79
1923.09	0.7953
1931.38	0.8004
1939.67	0.801
1947.96	0.7993
1956.25	0.795
1964.54	0.789
1972.83	0.778
1981.13	0.7832
1989.42	0.7919
1997.71	0.792
2006	0.8081
2014.29	0.817
2022.58	0.818
2030.87	0.817
2039.16	0.815
2047.45	0.8161
2055.74	0.8211
2064.04	0.827
2072.33	0.8291
2080.62	0.829
2088.91	0.828
2097.2	0.8291
2105.49	0.831
2113.78	0.832
2122.07	0.832
2130.36	0.832
2138.65	0.8309
2146.95	0.8311
2155.24	0.836
2163.53	0.838
2171.82	0.831
2180.11	0.834
2188.4	0.836
2196.69	0.8371
2204.98	0.8411
2213.27	0.843
2221.57	0.845
2229.86	0.841
2238.15	0.84
2246.44	0.8441
2254.73	0.847
2263.02	0.844
2271.31	0.844
2279.6	0.843
2287.89	0.841
2296.18	0.838
2304.48	0.8341
2312.77	0.835
2321.06	0.8289
2329.35	0.8241
2337.64	0.829
2345.93	0.829
2354.22	0.829
2362.51	0.828
2370.8	0.8301
2379.09	0.8381
2387.39	0.847
2395.68	0.842
2403.97	0.84
2412.26	0.8359
2420.55	0.8371
2428.84	0.837
2437.13	0.834
2445.42	0.836
2453.71	0.8399
2462	0.8359
2470.3	0.8349
2478.59	0.831
2486.88	0.83
2495.17	0.8301
2503.46	0.835
2511.75	0.8381
2520.04	0.841
2528.33	0.84
2536.62	0.8359
2544.92	0.828
2553.21	0.8321
2561.5	0.831
2569.79	0.8321
2578.08	0.837
2586.37	0.8309
2594.66	0.829
2602.95	0.828
2611.24	0.827
2619.53	0.823
2627.83	0.816
2636.12	0.8211
2644.41	0.8251
2652.7	0.824
2660.99	0.824
2669.28	0.8229
2677.57	0.82
2685.86	0.8251
2694.15	0.8219
2702.44	0.8251
2710.74	0.825
2719.03	0.8179
2727.32	0.812
2735.61	0.811
2743.9	0.809
2752.19	0.805
2760.48	0.8019
2768.77	0.7961
2777.06	0.7998
2785.35	0.795
2793.65	0.7971
2801.94	0.7949
2810.23	0.7961
2818.52	0.7949
2826.81	0.7829
2835.1	0.7719
2843.39	0.7619
2851.68	0.7559
2859.97	0.7439
2868.27	0.7369
2876.56	0.724
2884.85	0.7139
2893.14	0.6979
2901.43	0.6849
2909.72	0.6555
2918.01	0.6236
2926.3	0.5979
2934.59	0.598
2942.88	0.6252
2951.18	0.643
2959.47	0.6369
2967.76	0.6301
2976.05	0.6513
2984.34	0.6621
2992.63	0.6639
3000.92	0.6701
3009.21	0.676
3017.5	0.675
3025.79	0.671
3034.09	0.6636
3042.38	0.6359
3050.67	0.627
3058.96	0.6311
3067.25	0.6501
3075.54	0.662
3083.83	0.6741
3092.12	0.6881
3100.41	0.7032
3108.71	0.7181
3117	0.7281
3125.29	0.7511
3133.58	0.758
3141.87	0.758
3150.16	0.758
3158.45	0.7509
3166.74	0.7521
3175.03	0.756
3183.32	0.752
3191.62	0.7509
3199.91	0.748
3208.2	0.741
3216.49	0.74
3224.78	0.737
3233.07	0.731
3241.36	0.721
3249.65	0.7149
3257.94	0.707
3266.23	0.6979
3274.53	0.69
3282.82	0.687
3291.11	0.684
3299.4	0.6799
3307.69	0.6709
3315.98	0.6608
3324.27	0.652
3332.56	0.6429
3340.85	0.63
3349.14	0.6229
3357.44	0.6049
3365.73	0.5887
3374.02	0.5536
3382.31	0.5026
3390.6	0.4438
3398.89	0.3741
3407.18	0.4034
3415.47	0.4948
3423.76	0.5601
3432.06	0.5844
3440.35	0.6091
3448.64	0.6272
3456.93	0.6441
3465.22	0.6551
3473.51	0.667
3481.8	0.6691
3490.09	0.6762
3498.38	0.6871
3506.67	0.689
3514.97	0.682
3523.26	0.688
3531.55	0.6941
3539.84	0.7021
3548.13	0.7091
3556.42	0.7161
3564.71	0.724
3573	0.7311
3581.29	0.7401
3589.58	0.7441
3597.88	0.7521
3606.17	0.758
3614.46	0.7642
3622.75	0.769
3631.04	0.7711
3639.33	0.778
3647.62	0.7841
3655.91	0.7901
3664.2	0.7941
3672.49	0.797
3680.79	0.8001
3689.08	0.8031
3697.37	0.805
3705.66	0.805
3713.95	0.8029
3722.24	0.7979
3730.53	0.7971
3738.82	0.7981
3747.11	0.804
3755.41	0.804
3763.7	0.804
3771.99	0.803
3780.28	0.804
3788.57	0.804
3796.86	0.8041
3805.15	0.807
3813.44	0.8079
