Infrared Spectrum: N,N-DIPHENYL-1-BROMO-ACETAMIDE
Formula: C14 H12 N Br O
CAS: 6335-34-8
State: SOLID (1.0% KBr PELLET)
Class: COBLENTZ
Instrument: Not specified, most likely a prism, grating, or hybrid spectrometer.
Sampling: TRANSMISSION
Path length: 0.0355 CM
Resolution: 4
Origin: ANDERSON PHYSICAL LABORATORY
1/CM	TRANSMITTANCE
674.157	0.716
682.584	0.5902
691.011	0.3069
699.438	0.223
707.865	0.6768
716.292	0.94
724.719	0.8411
733.146	0.407
741.573	0.841
750	0.668
758.427	0.653
766.854	0.878
775.281	0.7521
783.708	0.43
792.135	0.8409
800.562	0.982
808.989	0.988
817.416	0.985
825.843	0.967
834.27	0.956
842.697	0.901
851.124	0.935
859.551	0.94
867.978	0.938
876.405	0.932
884.832	0.922
893.259	0.905
901.686	0.89
910.113	0.872
918.54	0.883
926.967	0.874
935.394	0.868
943.821	0.7791
952.248	0.887
960.675	0.886
969.102	0.863
977.529	0.83
985.956	0.782
994.383	0.748
1002.81	0.805
1011.24	0.755
1019.66	0.851
1028.09	0.7841
1036.52	0.695
1044.94	0.857
1053.37	0.859
1061.8	0.833
1070.23	0.758
1078.65	0.581
1087.08	0.839
1095.51	0.854
1103.93	0.853
1112.36	0.824
1120.79	0.818
1129.21	0.809
1137.64	0.8
1146.07	0.769
1154.5	0.697
1162.92	0.628
1171.35	0.67
1179.78	0.746
1188.2	0.763
1196.63	0.793
1205.06	0.772
1213.48	0.757
1221.91	0.725
1230.34	0.691
1238.77	0.625
1247.19	0.503
1255.62	0.566
1264.05	0.409
1272.47	0.2479
1280.9	0.4659
1289.33	0.565
1297.75	0.599
1306.18	0.737
1314.61	0.68
1323.04	0.71
1331.46	0.673
1339.89	0.623
1348.32	0.533
1356.74	0.3911
1365.17	0.268
1373.6	0.235
1382.02	0.3879
1390.45	0.547
1398.88	0.646
1407.31	0.698
1415.73	0.724
1424.16	0.608
1432.59	0.6131
1441.01	0.772
1449.44	0.751
1457.87	0.6051
1466.29	0.686
1474.72	0.73
1483.15	0.589
1491.58	0.356
1500	0.2211
1508.43	0.643
1516.86	0.764
1525.28	0.848
1533.71	0.848
1542.14	0.842
1550.56	0.818
1558.99	0.805
1567.42	0.785
1575.85	0.715
1584.27	0.598
1592.7	0.433
1601.13	0.412
1609.55	0.6489
1617.98	0.727
1626.41	0.685
1634.83	0.638
1643.26	0.571
1651.69	0.545
1660.12	0.473
1668.54	0.352
1676.97	0.16
1685.4	0.086
1693.82	0.2949
1702.25	0.553
1710.68	0.793
1719.1	0.893
1727.53	0.952
1735.96	0.961
1744.39	0.956
1752.81	0.959
1761.24	0.968
1769.67	0.947
1778.09	0.94
1786.52	0.94
1794.95	0.934
1803.37	0.94
1811.8	0.928
1820.23	0.934
1828.66	0.937
1837.08	0.943
1845.51	0.943
1853.94	0.94
1862.36	0.925
1870.79	0.899
1879.22	0.907
1887.64	0.907
1896.07	0.893
1904.5	0.896
1912.93	0.901
1921.35	0.901
1929.78	0.901
1938.21	0.896
1946.63	0.889
1955.06	0.874
1963.49	0.869
1971.91	0.866
1980.34	0.869
1988.77	0.871
1997.2	0.877
2005.62	0.883
2014.05	0.8855
2022.48	0.887
2030.9	0.889
2039.33	0.8879
2047.76	0.8844
2056.18	0.8828
2064.61	0.8807
2073.04	0.8788
2081.47	0.8741
2089.89	0.8719
2098.32	0.8702
2106.75	0.868
2115.17	0.8651
2123.6	0.8628
2132.03	0.8611
2140.45	0.8593
2148.88	0.856
2157.31	0.8538
2165.73	0.852
2174.16	0.8503
2182.59	0.848
2191.02	0.8477
2199.44	0.8459
2207.87	0.8424
2216.3	0.8389
2224.72	0.8373
2233.15	0.8338
2241.58	0.8303
2250	0.829
2258.43	0.8282
2266.86	0.8264
2275.29	0.8242
2283.71	0.823
2292.14	0.8222
2300.57	0.8203
2308.99	0.817
2317.42	0.8113
2325.85	0.8046
2334.27	0.7978
2342.7	0.791
2351.13	0.7842
2359.56	0.7785
2367.98	0.7752
2376.41	0.773
2384.84	0.7736
2393.26	0.7772
2401.69	0.7815
2410.12	0.785
2418.54	0.787
2426.97	0.787
2435.4	0.7852
2443.83	0.7837
2452.25	0.7816
2460.68	0.779
2469.11	0.778
2477.53	0.776
2485.96	0.7755
2494.39	0.775
2502.81	0.773
2511.24	0.7715
2519.67	0.7665
2528.1	0.764
2536.52	0.763
2544.95	0.761
2553.38	0.7604
2561.8	0.7583
2570.23	0.758
2578.66	0.758
2587.08	0.757
2595.51	0.757
2603.94	0.755
2612.37	0.7546
2620.79	0.7527
2629.22	0.751
2637.65	0.748
2646.07	0.7455
2654.5	0.7428
2662.93	0.74
2671.35	0.737
2679.78	0.736
2688.21	0.736
2696.64	0.734
2705.06	0.7324
2713.49	0.731
2721.92	0.73
2730.34	0.7279
2738.77	0.727
2747.2	0.725
2755.62	0.7224
2764.05	0.7219
2772.48	0.721
2780.91	0.719
2789.33	0.718
2797.76	0.7114
2806.19	0.7038
2814.61	0.6959
2823.04	0.692
2831.47	0.6905
2839.89	0.689
2848.32	0.6882
2856.75	0.6879
2865.18	0.6857
2873.6	0.6813
2882.03	0.6762
2890.46	0.6729
2898.88	0.6693
2907.31	0.6626
2915.74	0.6537
2924.16	0.6322
2932.59	0.5884
2941.02	0.5203
2949.45	0.4702
2957.87	0.5124
2966.3	0.5555
2974.73	0.5938
2983.15	0.631
2991.58	0.6223
3000.01	0.6145
3008.43	0.5948
3016.86	0.566
3025.29	0.5666
3033.72	0.5706
3042.14	0.5774
3050.57	0.5861
3059	0.5907
3067.42	0.5926
3075.85	0.5947
3084.28	0.595
3092.7	0.595
3101.13	0.595
3109.56	0.5959
3117.99	0.6031
3126.41	0.6147
3134.84	0.62
3143.27	0.622
3151.69	0.6198
3160.12	0.6145
3168.55	0.6085
3176.97	0.605
3185.4	0.6017
3193.83	0.5969
3202.26	0.5926
3210.68	0.5888
3219.11	0.5824
3227.54	0.5774
3235.96	0.5741
3244.39	0.5708
3252.82	0.5669
3261.24	0.5611
3269.67	0.5545
3278.1	0.5527
3286.53	0.5467
3294.95	0.5376
3303.38	0.5272
3311.81	0.5194
3320.23	0.5126
3328.66	0.5016
3337.09	0.491
3345.51	0.4842
3353.94	0.4774
3362.37	0.4726
3370.8	0.4689
3379.22	0.4654
3387.65	0.4618
3396.08	0.4572
3404.5	0.4517
3412.93	0.4449
3421.36	0.4407
3429.78	0.44
3438.21	0.439
3446.64	0.439
3455.07	0.439
3463.49	0.44
3471.92	0.4452
3480.35	0.4494
3488.77	0.4535
3497.2	0.46
3505.63	0.4648
3514.05	0.4705
3522.48	0.4773
3530.91	0.4821
3539.33	0.4886
3547.76	0.4936
3556.19	0.496
3564.62	0.4991
3573.04	0.5054
3581.47	0.5108
3589.9	0.5205
3598.32	0.5261
3606.75	0.529
3615.18	0.5297
3623.6	0.5357
3632.03	0.5416
3640.46	0.5459
3648.89	0.5502
3657.31	0.553
3665.74	0.5545
3674.17	0.557
3682.59	0.559
3691.02	0.559
3699.45	0.5606
3707.87	0.5641
3716.3	0.565
3724.73	0.565
3733.16	0.565
3741.58	0.565
3750.01	0.565
3758.44	0.563
3766.86	0.562
3775.29	0.562
3783.72	0.562
3792.14	0.559
3800.57	0.557
3809	0.557
3817.43	0.556
3825.85	0.553
3834.28	0.553
3842.71	0.553
3851.13	0.553
3859.56	0.551
3867.99	0.551
3876.41	0.551
3884.84	0.551
3893.27	0.551
3901.7	0.551
3910.12	0.551
3918.55	0.55
3926.98	0.5492
3935.4	0.548
3943.83	0.5471
3952.26	0.542
3960.68	0.5416
3969.11	0.5396
3977.54	0.539
3985.97	0.538
