Infrared Spectrum: 1,2-Naphthalenediol, diacetate
Formula: C14 H12 O4
CAS: 6336-79-4
State: SOLID (NUJOL MULL)
Class: COBLENTZ III
Instrument: PERKIN-ELMER 421 (GRATING)
Instrument parameters: GRATING CHANGE AT 1999 CM^-^1
Resolution: 2
Origin: ABBOTT LABORATORIES
1/CM	TRANSMITTANCE
723	0.579
732	0.4539
741	0.3405
750	0.5137
759	0.3027
768	0.633
777	0.5457
786	0.7079
795	0.6853
804	0.4812
813	0.3784
822	0.6822
831	0.6577
840	0.4895
849	0.4776
858	0.6318
867	0.5309
876	0.5337
885	0.4032
894	0.2364
903	0.4972
912	0.5962
921	0.6013
930	0.5889
939	0.5518
948	0.5266
957	0.4204
966	0.3664
975	0.4112
984	0.5459
993	0.4537
1002	0.2839
1011	0.2509
1020	0.3507
1029	0.4394
1038	0.4257
1047	0.4617
1056	0.4381
1065	0.239
1074	0.2828
1083	0.5119
1092	0.5131
1101	0.4919
1110	0.4536
1119	0.4056
1128	0.3199
1137	0.2343
1146	0.156
1155	0.0891
1164	0.085
1173	0.1661
1182	0.0618
1191	0.042
1200	0.0486
1209	0.049
1218	0.1168
1227	0.2661
1236	0.1214
1245	0.358
1254	0.459
1263	0.5409
1272	0.6206
1281	0.6535
1290	0.6751
1299	0.6695
1308	0.6608
1317	0.6483
1326	0.6114
1335	0.4908
1344	0.4407
1353	0.2556
1362	0.0811
1371	0.1236
1380	0.3054
1389	0.4684
1398	0.4957
1407	0.5501
1416	0.4282
1425	0.3127
1434	0.2639
1443	0.1805
1452	0.1393
1461	0.1297
1470	0.3495
1479	0.5884
1488	0.5831
1497	0.5473
1506	0.5415
1515	0.7029
1524	0.6979
1533	0.6872
1542	0.675
1551	0.6621
1560	0.6501
1569	0.5946
1578	0.6061
1587	0.5074
1596	0.2741
1605	0.6451
1614	0.6098
1623	0.5444
1632	0.5418
1641	0.6169
1650	0.6281
1659	0.6101
1668	0.577
1677	0.518
1686	0.4944
1695	0.4672
1704	0.4323
1713	0.3559
1722	0.2977
1731	0.1526
1740	0.0772
1749	0.0461
1758	0.0607
1767	0.1771
1776	0.2748
1785	0.3399
1794	0.3902
1803	0.4385
1812	0.501
1821	0.5254
1830	0.5422
1839	0.5649
1848	0.5704
1857	0.5727
1866	0.5948
1875	0.5974
1884	0.5969
1893	0.5897
1902	0.5872
1911	0.5902
1920	0.5964
1929	0.5935
1938	0.5914
1947	0.5904
1956	0.5893
1965	0.5889
1974	0.6043
1983	0.6083
1992	0.6132
2001	0.6029
2010	0.5995
2019	0.6
2028	0.5983
2037	0.5892
2046	0.5883
2055	0.5872
2064	0.5839
2073	0.5782
2082	0.5774
2091	0.5824
2100	0.5868
2109	0.5878
2118	0.5875
2127	0.5869
2136	0.5854
2145	0.5836
2154	0.581
2163	0.5784
2172	0.576
2181	0.5736
2190	0.5706
2199	0.568
2208	0.5662
2217	0.5651
2226	0.5625
2235	0.5594
2244	0.5563
2253	0.5534
2262	0.5509
2271	0.5492
2280	0.5468
2289	0.5437
2298	0.5393
2307	0.536
2316	0.5329
2325	0.5304
2334	0.5279
2343	0.5263
2352	0.5251
2361	0.5244
2370	0.5238
2379	0.5239
2388	0.5242
2397	0.5247
2406	0.525
2415	0.5251
2424	0.525
2433	0.5244
2442	0.5232
2451	0.522
2460	0.5199
2469	0.517
2478	0.5151
2487	0.52
2496	0.5186
2505	0.5144
2514	0.5103
2523	0.5059
2532	0.5018
2541	0.4989
2550	0.4958
2559	0.4919
2568	0.4879
2577	0.4838
2586	0.4801
2595	0.4766
2604	0.4732
2613	0.47
2622	0.4668
2631	0.4642
2640	0.4615
2649	0.4604
2658	0.4597
2667	0.4591
2676	0.4592
2685	0.4597
2694	0.4602
2703	0.4556
2712	0.4533
2721	0.4583
2730	0.4611
2739	0.4623
2748	0.4617
2757	0.4592
2766	0.4541
2775	0.4456
2784	0.4323
2793	0.4126
2802	0.3891
2811	0.3533
2820	0.2778
2829	0.1019
2838	0.0367
2847	0.0265
2856	0.0299
2865	0.0385
2874	0.0406
2883	0.0292
2892	0.0138
2901	0.0108
2910	0.0111
2919	0.012
2928	0.014
2937	0.0165
2946	0.0203
2955	0.0252
2964	0.0404
2973	0.0761
2982	0.1459
2991	0.1898
3000	0.2194
3009	0.2437
3018	0.2652
3027	0.2795
3036	0.2899
3045	0.298
3054	0.3024
3063	0.3207
3072	0.3264
3081	0.3309
3090	0.3331
3099	0.3345
3108	0.3358
3117	0.337
3126	0.3383
3135	0.3399
3144	0.3423
3153	0.3446
3162	0.3462
3171	0.3478
3180	0.3499
3189	0.3524
3198	0.3551
3207	0.3578
3216	0.3603
3225	0.3629
3234	0.3646
3243	0.3649
3252	0.3652
3261	0.3654
3270	0.3656
3279	0.3658
3288	0.3659
3297	0.3659
3306	0.3659
3315	0.366
3324	0.3658
3333	0.3656
3342	0.3654
3351	0.3652
3360	0.3648
3369	0.3639
3378	0.3629
3387	0.3619
3396	0.3616
3405	0.3612
3414	0.3609
3423	0.3606
3432	0.3589
3441	0.3569
3450	0.3545
3459	0.3521
3468	0.3469
3477	0.3418
3486	0.3373
3495	0.3335
3504	0.3423
3513	0.3523
3522	0.3585
3531	0.3584
3540	0.3583
3549	0.3581
3558	0.3579
3567	0.3574
3576	0.3569
3585	0.3564
3594	0.3554
3603	0.3543
3612	0.3532
3621	0.3521
3630	0.3513
3639	0.3507
3648	0.35
3657	0.3494
3666	0.349
3675	0.3488
3684	0.3485
3693	0.348
3702	0.3469
3711	0.3458
3720	0.3446
3729	0.3435
3738	0.3423
3747	0.341
3756	0.3398
3765	0.3385
3774	0.3371
3783	0.3357
3792	0.3342
3801	0.3327
3810	0.3311
3819	0.3295
3828	0.3286
3837	0.3278
3846	0.3268
3855	0.3256
3864	0.3241
3873	0.3242
3882	0.3244
3891	0.3247
3900	0.3249
3909	0.3252
3918	0.3251
3927	0.3244
3936	0.3236
3945	0.3228
3954	0.3213
3963	0.3194
3972	0.3177
3981	0.3174
3990	0.3171
3999	0.3167
