Infrared Spectrum: 3-Dibutylamino-1-propyne
Formula: C 11 H 21 N
CAS: 6336-58-9
State: gas
Origin: EPA-IR VAPOR PHASE LIBRARY
1/CM	ABSORBANCE
549.8	0.001503
559.445	0.001503
569.09	0.0012013
578.735	0.001553
588.38	0.001903
598.025	0.002393
607.67	0.003373
617.315	0.013703
626.96	0.024053
636.605	0.011743
646.251	0.021403
655.896	0.015333
665.541	0.005013
675.186	0.001983
684.831	0.0013245
694.476	0.0010789
704.121	0.0010642
713.766	0.0013269
723.411	0.001743
733.056	0.002203
742.701	0.002303
752.346	0.002053
761.991	0.001583
771.636	0.001443
781.281	0.001603
790.926	0.001903
800.571	0.001843
810.216	0.001633
819.861	0.0014016
829.507	0.001194
839.152	0.001463
848.797	0.001613
858.442	0.001513
868.087	0.001853
877.732	0.002733
887.377	0.004193
897.022	0.005353
906.667	0.004513
916.312	0.002853
925.957	0.002843
935.602	0.003853
945.247	0.004403
954.892	0.004393
964.537	0.003563
974.182	0.002693
983.827	0.002333
993.472	0.002003
1003.12	0.001713
1012.76	0.001473
1022.41	0.001513
1032.05	0.002063
1041.7	0.003243
1051.34	0.004373
1060.99	0.005673
1070.63	0.008623
1080.28	0.012173
1089.92	0.013313
1099.57	0.011113
1109.21	0.007713
1118.86	0.006163
1128.5	0.005623
1138.15	0.006373
1147.79	0.008023
1157.44	0.008553
1167.08	0.007983
1176.73	0.006283
1186.37	0.003843
1196.02	0.002243
1205.66	0.001833
1215.31	0.002243
1224.95	0.003543
1234.6	0.007903
1244.24	0.011943
1253.89	0.009133
1263.53	0.005693
1273.18	0.004633
1282.82	0.004643
1292.47	0.005603
1302.11	0.007133
1311.76	0.007843
1321.4	0.009893
1331.05	0.009413
1340.69	0.007083
1350.34	0.007173
1359.98	0.008113
1369.63	0.008083
1379.27	0.007263
1388.92	0.005433
1398.56	0.003453
1408.21	0.002683
1417.85	0.003063
1427.5	0.004393
1437.14	0.006313
1446.79	0.007633
1456.43	0.009683
1466.08	0.010553
1475.73	0.007033
1485.37	0.003413
1495.02	0.002023
1504.66	0.001533
1514.31	0.0011819
1523.95	0.0010123
1533.6	0.0008794
1543.24	0.0006906
1552.89	0.0006467
1562.53	0.00052642
1572.18	0.00046916
1581.82	0.0005478
1591.47	0.00053194
1601.11	0.00046882
1610.76	0.00044741
1620.4	0.00045237
1630.05	0.0003908
1639.69	0.00047888
1649.34	0.0003517
1658.98	0.0003934
1668.63	0.00049194
1678.27	0.00050283
1687.92	0.000372
1697.56	0.000293
1707.21	0.0003412
1716.85	0.000239
1726.5	0.000318
1736.14	0.000265
1745.79	0.000322
1755.43	0.000228
1765.08	0.000318
1774.72	0.00029
1784.37	0.000294
1794.01	0.000296
1803.66	0.00023
1813.3	0.000292
1822.95	0.000258
1832.59	0.000326
1842.24	0.000295
1851.88	0.000297
1861.53	0.0003364
1871.17	0.000316
1880.82	0.000318
1890.46	0.0003606
1900.11	0.0003874
1909.75	0.0003458
1919.4	0.0003459
1929.04	0.0003876
1938.69	0.0003411
1948.33	0.0003752
1957.98	0.0003992
1967.62	0.000328
1977.27	0.000369
1986.91	0.0003391
1996.56	0.0003488
2006.2	0.000313
2015.85	0.000305
2025.49	0.000319
2035.14	0.000333
2044.78	0.000303
2054.43	0.000308
2064.07	0.0003455
2073.72	0.0003585
2083.36	0.000314
2093.01	0.000311
2102.65	0.00044451
2112.3	0.0003458
2121.94	0.0003774
2131.59	0.000327
2141.23	0.0003763
2150.88	0.000269
2160.52	0.000274
2170.17	0.0003811
2179.81	0.000297
2189.46	0.000311
2199.1	0.0003756
2208.75	0.0003649
2218.39	0.0003905
2228.04	0.0003923
2237.68	0.0003408
2247.33	0.0003801
2256.97	0.0003781
2266.62	0.000321
2276.26	0.000333
2285.91	0.00042593
2295.55	0.0004185
2305.2	0.0004073
2314.84	0.00044867
2324.49	0.00044676
2334.13	0.0003603
2343.78	0.000321
2353.42	0.0003693
2363.07	0.0003791
2372.72	0.00044939
2382.36	0.00042
2392.01	0.0004199
2401.65	0.0004763
2411.3	0.00050263
2420.94	0.0003793
2430.59	0.0003777
2440.23	0.0004113
2449.88	0.0004155
2459.52	0.0003688
2469.17	0.0003392
2478.81	0.0003753
2488.46	0.0004013
2498.1	0.0003379
2507.75	0.00047165
2517.39	0.000374
2527.04	0.00042588
2536.68	0.0005687
2546.33	0.0006362
2555.97	0.0006842
2565.62	0.0006925
2575.26	0.0007349
2584.91	0.0008728
2594.55	0.0008531
2604.2	0.0010037
2613.84	0.0010718
2623.49	0.001204
2633.13	0.0012699
2642.78	0.0014086
2652.42	0.001443
2662.07	0.001753
2671.71	0.002023
2681.36	0.002233
2691	0.002363
2700.65	0.002723
2710.29	0.003063
2719.94	0.003313
2729.58	0.003683
2739.23	0.004483
2748.87	0.004803
2758.52	0.005173
2768.16	0.005973
2777.81	0.007463
2787.45	0.010413
2797.1	0.012803
2806.74	0.014573
2816.39	0.016243
2826.03	0.018143
2835.68	0.017793
2845.32	0.015623
2854.97	0.017013
2864.61	0.023473
2874.26	0.029053
2883.9	0.029023
2893.55	0.024753
2903.19	0.025683
2912.84	0.031483
2922.48	0.040773
2932.13	0.056653
2941.77	0.065513
2951.42	0.058683
2961.06	0.061053
2970.71	0.055833
2980.35	0.026553
2990	0.012873
2999.64	0.008213
3009.29	0.005973
3018.93	0.004643
3028.58	0.003663
3038.22	0.002953
3047.87	0.002433
3057.51	0.002053
3067.16	0.001823
3076.8	0.001533
3086.45	0.001513
3096.09	0.0013467
3105.74	0.0013008
3115.38	0.0011927
3125.03	0.0010634
3134.67	0.0010611
3144.32	0.0010083
3153.96	0.0009409
3163.61	0.0008669
3173.25	0.0007566
3182.9	0.0006437
3192.54	0.0007389
3202.19	0.0007012
3211.83	0.0007286
3221.48	0.0005535
3231.12	0.00047495
3240.77	0.0006187
3250.41	0.0006364
3260.06	0.0009106
3269.7	0.0010533
3279.35	0.001923
3289	0.002633
3298.64	0.005233
3308.29	0.007123
3317.93	0.012373
3327.58	0.015463
3337.22	0.006063
3346.87	0.002013
3356.51	0.0010629
3366.16	0.0007556
3375.8	0.00052712
3385.45	0.0005015
3395.09	0.0004003
3404.74	0.0003378
3414.38	0.0003362
3424.03	0.000147
3433.67	0.00018
3443.32	0.000252
3452.96	0.0003716
3462.61	0.000292
3472.25	0.000178
3481.9	0.000231
3491.54	0.000173
3501.19	0.000203
3510.83	0.000197
3520.48	0.000119
3530.12	0.000169
3539.77	4.4e-05
3549.41	0.000204
3559.06	0.000141
3568.7	0.000189
3578.35	0.00022
3587.99	0.000238
3597.64	0.000144
3607.28	0.000248
3616.93	0.000222
3626.57	9.8e-05
3636.22	0.000228
3645.86	9.8e-05
3655.51	0.000131
3665.15	0.000149
3674.8	8.3e-05
3684.44	0.000253
3694.09	0.000169
3703.73	0.000115
3713.38	0.000252
3723.02	0.000155
3732.67	0.000199
3742.31	0.000177
3751.96	0.000165
3761.6	0.000159
3771.25	0.000243
3780.89	5.5e-05
3790.54	6.9e-05
3800.18	0.000241
3809.83	0
3819.47	0.00026
3829.12	0.000171
3838.76	0.000162
3848.41	0.000214
3858.05	0.000235
3867.7	0.000252
3877.34	0.000236
3886.99	0.0003833
3896.63	0.0003857
3906.28	0.000203
3915.92	0.0003461
3925.57	0.00052778
3935.21	0.00046575
3944.86	0.0003769
3954.5	0.0004195
3964.15	0.000411
3973.79	0.0005766
3983.44	0.0005461
3993.08	0.0003444
