Infrared Spectrum: Glutarimide, 3-[(5-methyl-2-oxocyclohexyl)carbonyl]-
Formula: C13 H17 N O4
CAS: 6338-83-6
State: SOLID (1 mg / 650 mg KBr DISC)
Class: COBLENTZ III
Instrument: PERKIN-ELMER 21 (GRATING)
Instrument parameters: FILTER CHANGE ABOUT 1020 CM^-^1
Sampling: TRANSMISSION
Resolution: 2
Origin: SOUTHERN RESEARCH INSTITUTE
1/CM	TRANSMITTANCE
602	0.9039
611.019	0.8987
620.037	0.8933
629.056	0.8854
638.074	0.8759
647.093	0.8649
656.111	0.853
665.13	0.8525
674.148	0.8586
683.167	0.8524
692.185	0.8418
701.204	0.837
710.222	0.8306
719.241	0.7947
728.26	0.7421
737.278	0.7352
746.297	0.8251
755.315	0.811
764.334	0.804
773.352	0.8047
782.371	0.7939
791.389	0.7771
800.408	0.753
809.426	0.7265
818.445	0.6705
827.464	0.5982
836.482	0.6603
845.501	0.5951
854.519	0.5076
863.538	0.4422
872.556	0.433
881.575	0.536
890.593	0.6934
899.612	0.6631
908.63	0.6075
917.649	0.6797
926.667	0.6202
935.686	0.5696
944.705	0.5067
953.723	0.5185
962.742	0.4449
971.76	0.5465
980.779	0.6586
989.797	0.7212
998.816	0.7499
1007.83	0.761
1016.85	0.7616
1025.87	0.7602
1034.89	0.7626
1043.91	0.7683
1052.93	0.7617
1061.95	0.7176
1070.96	0.6722
1079.98	0.7123
1089	0.7201
1098.02	0.719
1107.04	0.7251
1116.06	0.6761
1125.08	0.6104
1134.09	0.5368
1143.11	0.5136
1152.13	0.4685
1161.15	0.2879
1170.17	0.2811
1179.19	0.6097
1188.21	0.5577
1197.22	0.4229
1206.24	0.3303
1215.26	0.3097
1224.28	0.4506
1233.3	0.5434
1242.32	0.5358
1251.33	0.4041
1260.35	0.2659
1269.37	0.179
1278.39	0.1862
1287.41	0.3951
1296.43	0.5129
1305.45	0.4921
1314.46	0.4861
1323.48	0.5613
1332.5	0.5571
1341.52	0.4197
1350.54	0.4084
1359.56	0.3687
1368.58	0.3254
1377.59	0.3808
1386.61	0.4006
1395.63	0.5339
1404.65	0.463
1413.67	0.3663
1422.69	0.4489
1431.71	0.4795
1440.72	0.5235
1449.74	0.586
1458.76	0.5351
1467.78	0.5395
1476.8	0.682
1485.82	0.6928
1494.84	0.6838
1503.85	0.6682
1512.87	0.6325
1521.89	0.5955
1530.91	0.5762
1539.93	0.5208
1548.95	0.4445
1557.97	0.374
1566.98	0.3063
1576	0.2456
1585.02	0.2272
1594.04	0.2314
1603.06	0.2521
1612.08	0.3439
1621.1	0.4294
1630.11	0.4639
1639.13	0.494
1648.15	0.4636
1657.17	0.3962
1666.19	0.3406
1675.21	0.144
1684.22	0.1013
1693.24	0.1071
1702.26	0.151
1711.28	0.2511
1720.3	0.2512
1729.32	0.1677
1738.34	0.3312
1747.35	0.4621
1756.37	0.5688
1765.39	0.629
1774.41	0.663
1783.43	0.6846
1792.45	0.7074
1801.47	0.7154
1810.48	0.7181
1819.5	0.7254
1828.52	0.7399
1837.54	0.763
1846.56	0.7811
1855.58	0.7931
1864.6	0.802
1873.61	0.8105
1882.63	0.817
1891.65	0.8214
1900.67	0.8245
1909.69	0.8268
1918.71	0.829
1927.73	0.8305
1936.74	0.8318
1945.76	0.8332
1954.78	0.8348
1963.8	0.8366
1972.82	0.8386
1981.84	0.8412
1990.86	0.8442
1999.87	0.8479
2008.89	0.8512
2017.91	0.8513
2026.93	0.8509
2035.95	0.8513
2044.97	0.8518
2053.98	0.8526
2063	0.8539
2072.02	0.8563
2081.04	0.8576
2090.06	0.8573
2099.08	0.8539
2108.1	0.8549
2117.11	0.8575
2126.13	0.8577
2135.15	0.8588
2144.17	0.8594
2153.19	0.8588
2162.21	0.8584
2171.23	0.8577
2180.24	0.8567
2189.26	0.8557
2198.28	0.8561
2207.3	0.8561
2216.32	0.8559
2225.34	0.8548
2234.36	0.8535
2243.37	0.8522
2252.39	0.8507
2261.41	0.8493
2270.43	0.848
2279.45	0.8467
2288.47	0.8452
2297.49	0.8431
2306.5	0.8394
2315.52	0.8359
2324.54	0.8338
2333.56	0.8324
2342.58	0.8317
2351.6	0.831
2360.62	0.8331
2369.63	0.839
2378.65	0.8443
2387.67	0.8436
2396.69	0.8421
2405.71	0.8403
2414.73	0.8392
2423.75	0.8395
2432.76	0.8396
2441.78	0.8385
2450.8	0.8369
2459.82	0.8364
2468.84	0.8347
2477.86	0.834
2486.87	0.8335
2495.89	0.8321
2504.91	0.8308
2513.93	0.8295
2522.95	0.8281
2531.97	0.8268
2540.99	0.8264
2550	0.8268
2559.02	0.8259
2568.04	0.824
2577.06	0.8224
2586.08	0.8208
2595.1	0.8194
2604.12	0.8184
2613.13	0.8175
2622.15	0.8172
2631.17	0.8172
2640.19	0.8174
2649.21	0.8197
2658.23	0.8228
2667.25	0.8221
2676.26	0.8217
2685.28	0.8217
2694.3	0.8234
2703.32	0.8259
2712.34	0.8266
2721.36	0.8253
2730.38	0.8241
2739.39	0.823
2748.41	0.8213
2757.43	0.8178
2766.45	0.8132
2775.47	0.8046
2784.49	0.7912
2793.51	0.7714
2802.52	0.7457
2811.54	0.7172
2820.56	0.6872
2829.58	0.6426
2838.6	0.6148
2847.62	0.5933
2856.64	0.5866
2865.65	0.5833
2874.67	0.5806
2883.69	0.5792
2892.71	0.576
2901.73	0.5597
2910.75	0.5326
2919.76	0.5019
2928.78	0.4832
2937.8	0.4894
2946.82	0.5151
2955.84	0.5431
2964.86	0.5704
2973.88	0.6309
2982.89	0.6759
2991.91	0.6913
3000.93	0.6966
3009.95	0.699
3018.97	0.6981
3027.99	0.6922
3037.01	0.6778
3046.02	0.6535
3055.04	0.6281
3064.06	0.6076
3073.08	0.5764
3082.1	0.5343
3091.12	0.497
3100.14	0.4883
3109.15	0.4916
3118.17	0.5086
3127.19	0.524
3136.21	0.5174
3145.23	0.5011
3154.25	0.4812
3163.27	0.4683
3172.28	0.4619
3181.3	0.454
3190.32	0.4491
3199.34	0.4503
3208.36	0.4566
3217.38	0.4723
3226.4	0.4974
3235.41	0.5346
3244.43	0.5686
3253.45	0.5972
3262.47	0.6252
3271.49	0.6561
3280.51	0.6786
3289.53	0.6944
3298.54	0.7068
3307.56	0.7167
3316.58	0.7236
3325.6	0.7274
3334.62	0.7284
3343.64	0.7266
3352.65	0.7238
3361.67	0.7196
3370.69	0.7156
3379.71	0.7115
3388.73	0.7075
3397.75	0.7036
3406.77	0.6999
3415.78	0.6964
3424.8	0.6939
3433.82	0.6913
3442.84	0.6888
3451.86	0.6874
3460.88	0.687
3469.9	0.6874
3478.91	0.6883
3487.93	0.6905
3496.95	0.695
3505.97	0.7007
3514.99	0.7077
3524.01	0.7115
3533.03	0.7148
3542.04	0.7183
3551.06	0.7217
3560.08	0.7257
3569.1	0.732
3578.12	0.7397
3587.14	0.7487
3596.16	0.7571
3605.17	0.7649
3614.19	0.7734
3623.21	0.7838
3632.23	0.7982
3641.25	0.8081
3650.27	0.8124
3659.29	0.8165
3668.3	0.8199
3677.32	0.8231
3686.34	0.8251
3695.36	0.8269
3704.38	0.828
3713.4	0.8292
3722.41	0.8307
3731.43	0.832
3740.45	0.8333
3749.47	0.8334
3758.49	0.8327
3767.51	0.8298
3776.53	0.8282
3785.54	0.8298
3794.56	0.8355
3803.58	0.8414
3812.6	0.8421
3821.62	0.8405
3830.64	0.8366
3839.66	0.8318
3848.67	0.8293
3857.69	0.8282
3866.71	0.8296
3875.73	0.8324
3884.75	0.8282
3893.77	0.8246
3902.79	0.824
3911.8	0.8247
3920.82	0.8255
3929.84	0.8263
3938.86	0.8265
3947.88	0.8265
3956.9	0.8265
3965.92	0.8264
3974.93	0.8264
3983.95	0.8267
3992.97	0.8277
4001.99	0.8283
