Infrared Spectrum: N,N-Dimethylethanesulfonamide
Formula: C 4 H 11 N O 2 S
CAS: 6338-68-7
State: gas
Origin: EPA-IR VAPOR PHASE LIBRARY
1/CM	ABSORBANCE
549.8	0.006167
559.445	0.002637
569.09	0.000804
578.734	0.0009256
588.379	0.0007415
598.024	0.0005835
607.669	0.0009775
617.313	0.0011778
626.958	0.002117
636.603	0.003687
646.248	0.005087
655.893	0.004587
665.537	0.004507
675.182	0.005607
684.827	0.005687
694.472	0.004017
704.116	0.002957
713.761	0.004417
723.406	0.010077
733.051	0.022517
742.695	0.034347
752.34	0.031707
761.985	0.018497
771.63	0.012577
781.275	0.014357
790.919	0.011897
800.564	0.006057
810.209	0.002487
819.854	0.001527
829.498	0.0011549
839.143	0.0008931
848.788	0.0011768
858.433	0.0010021
868.078	0.0012086
877.722	0.0013284
887.367	0.001637
897.012	0.002097
906.657	0.002847
916.301	0.004847
925.946	0.008797
935.591	0.017397
945.236	0.029547
954.88	0.037417
964.525	0.033287
974.17	0.021167
983.815	0.011487
993.46	0.007097
1003.1	0.005107
1012.75	0.004097
1022.39	0.004017
1032.04	0.004917
1041.68	0.006387
1051.33	0.007167
1060.97	0.006377
1070.62	0.004417
1080.26	0.003097
1089.91	0.002627
1099.55	0.002567
1109.2	0.002567
1118.84	0.003657
1128.49	0.008457
1138.13	0.023907
1147.78	0.045337
1157.42	0.055127
1167.07	0.037647
1176.71	0.016097
1186.36	0.008707
1196	0.008157
1205.64	0.007797
1215.29	0.007237
1224.93	0.006737
1234.58	0.006907
1244.22	0.007407
1253.87	0.009387
1263.51	0.011367
1273.16	0.011967
1282.8	0.010897
1292.45	0.009317
1302.09	0.007237
1311.74	0.006407
1321.38	0.008357
1331.03	0.017137
1340.67	0.040027
1350.32	0.066527
1359.96	0.072677
1369.61	0.046767
1379.25	0.019097
1388.9	0.008337
1398.54	0.006197
1408.18	0.006247
1417.83	0.006547
1427.47	0.005757
1437.12	0.005507
1446.76	0.006527
1456.41	0.007787
1466.05	0.008317
1475.7	0.007147
1485.34	0.005467
1494.99	0.004047
1504.63	0.003077
1514.28	0.002437
1523.92	0.002137
1533.57	0.001947
1543.21	0.001687
1552.86	0.001537
1562.5	0.001547
1572.15	0.001487
1581.79	0.001437
1591.44	0.001407
1601.08	0.001437
1610.73	0.0013388
1620.37	0.0012712
1630.01	0.0012011
1639.66	0.000979
1649.3	0.0009307
1658.95	0.0007798
1668.59	0.000706
1678.24	0.000578
1687.88	0.0006111
1697.53	0.0006619
1707.17	0.0005315
1716.82	0.0005248
1726.46	0.0004659
1736.11	0.0004206
1745.75	0.00041455
1755.4	0.00042281
1765.04	0.00036338
1774.69	0.00038047
1784.33	0.00035922
1793.98	0.0002895
1803.62	0.00035317
1813.27	0.00036595
1822.91	0.00034296
1832.55	0.0002647
1842.2	0.0002506
1851.84	0.000202
1861.49	0.0002471
1871.13	0.000238
1880.78	0.000295
1890.42	0.0003348
1900.07	0.00033932
1909.71	0.0003675
1919.36	0.0003888
1929	0.00037541
1938.65	0.00039132
1948.29	0.00034529
1957.94	0.00036568
1967.58	0.0002951
1977.23	0.0003084
1986.87	0.0002765
1996.52	0.0002918
2006.16	0.00036501
2015.81	0.00038138
2025.45	0.0003269
2035.1	0.0003251
2044.74	0.0003103
2054.38	0.0002888
2064.03	0.0003214
2073.67	0.000301
2083.32	0.0003019
2092.96	0.000241
2102.61	0.000273
2112.25	0.0002915
2121.9	0.0002866
2131.54	0.0002794
2141.19	0.00033726
2150.83	0.000267
2160.48	0.0002753
2170.12	0.0002965
2179.77	0.00031
2189.41	0.00035724
2199.06	0.0003347
2208.7	0.00037056
2218.35	0.0003064
2227.99	0.000307
2237.64	0.0002927
2247.28	0.0002586
2256.92	0.0003329
2266.57	0.00038379
2276.21	0.00034303
2285.86	0.00042585
2295.5	0.00039949
2305.15	0.0004641
2314.79	0.00042506
2324.44	0.0003223
2334.08	0.000347292
2343.73	0.0002544
2353.37	0.0002685
2363.02	0.00034311
2372.66	0.0003247
2382.31	0.00040322
2391.95	0.0004478
2401.6	0.00039371
2411.24	0.00036629
2420.89	0.00039496
2430.53	0.00042156
2440.18	0.0004054
2449.82	0.00042477
2459.47	0.0003154
2469.11	0.00041315
2478.75	0.0005153
2488.4	0.0006481
2498.04	0.0006605
2507.69	0.0006801
2517.33	0.0005287
2526.98	0.0003732
2536.62	0.0003344
2546.27	0.00033864
2555.91	0.0003285
2565.56	0.00036485
2575.2	0.00039662
2584.85	0.0003013
2594.49	0.0003017
2604.14	0.0002969
2613.78	0.0002773
2623.43	0.00038065
2633.07	0.00034074
2642.72	0.000353443
2652.36	0.00036233
2662.01	0.00037114
2671.65	0.000347702
2681.29	0.00043506
2690.94	0.00037887
2700.58	0.0004622
2710.23	0.000543
2719.87	0.0005264
2729.52	0.000636
2739.16	0.0007793
2748.81	0.0007487
2758.45	0.0009386
2768.1	0.0010795
2777.74	0.0013192
2787.39	0.001757
2797.03	0.002627
2806.68	0.004327
2816.32	0.005947
2825.97	0.006257
2835.61	0.005477
2845.26	0.005967
2854.9	0.007077
2864.55	0.008307
2874.19	0.009127
2883.84	0.010647
2893.48	0.012517
2903.12	0.013657
2912.77	0.013917
2922.41	0.015187
2932.06	0.018697
2941.7	0.022927
2951.35	0.023447
2960.99	0.018357
2970.64	0.012677
2980.28	0.010497
2989.93	0.010487
2999.57	0.009457
3009.22	0.007147
3018.86	0.004877
3028.51	0.003467
3038.15	0.002487
3047.8	0.002097
3057.44	0.001617
3067.09	0.001467
3076.73	0.001537
3086.38	0.0013285
3096.02	0.0012289
3105.67	0.001055
3115.31	0.0010071
3124.95	0.0008641
3134.6	0.0009033
3144.24	0.0007283
3153.89	0.0007547
3163.53	0.0007579
3173.18	0.00043324
3182.82	0.0004556
3192.47	0.00042765
3202.11	0.00040264
3211.76	0.0002905
3221.4	0.000222
3231.05	0.0003111
3240.69	0.0002782
3250.34	0.000246
3259.98	0.0002953
3269.63	0.0002737
3279.27	0.000346819
3288.92	0.0002855
3298.56	0.0003192
3308.21	0.000191
3317.85	0.000349297
3327.49	0.000168
3337.14	0.000146
3346.78	5.7e-05
3356.43	6.8e-05
3366.07	0.000174
3375.72	0.000111
3385.36	8.8e-05
3395.01	0.0002613
3404.65	0.0002769
3414.3	0.000194
3423.94	0.000222
3433.59	0.0002772
3443.23	0.000127
3452.88	0.000288
3462.52	0.000183
3472.17	0.000211
3481.81	0.00016
3491.46	0.000198
3501.1	0.000148
3510.75	0.0002849
3520.39	0.000175
3530.04	0.000213
3539.68	0.000204
3549.32	0.00018
3558.97	0.000226
3568.61	0.000119
3578.26	0
3587.9	0.000133
3597.55	0.000222
3607.19	0.0002954
3616.84	0.00029
3626.48	0.000109
3636.13	0.000193
3645.77	0.000137
3655.42	0.000191
3665.06	0.000151
3674.71	0.0002673
3684.35	0.0002648
3694	0.00012
3703.64	0.00034303
3713.29	0.000233
3722.93	8.7e-05
3732.58	0.0002657
3742.22	0.000218
3751.86	0.0002729
3761.51	0.0003273
3771.15	0.000193
3780.8	0.0002746
3790.44	0.0003207
3800.09	0.00039316
3809.73	0.00033933
3819.38	0.000212
3829.02	0.00035808
3838.67	0.000158
3848.31	0.000239
3857.96	0.000103
3867.6	0.00036614
3877.25	0.0002848
3886.89	0.0002587
3896.54	0.0003043
3906.18	0.000311
3915.83	0.0002528
3925.47	0.0002969
3935.12	0.000214
3944.76	0.00043648
3954.41	0.000346427
3964.05	0.00039371
3973.69	0.00039364
3983.34	0.00040693
3992.98	0.00040136
