Infrared Spectrum: 1,2-Bis(2,4-dichlorophenoxy)ethane
Formula: C 14 H 10 Cl 4 O 2
CAS: 6339-70-4
State: gas
Origin: EPA-IR VAPOR PHASE LIBRARY
1/CM	ABSORBANCE
549.8	0
559.445	0.0009
569.09	0.00105
578.734	0.00032
588.379	0.00103
598.024	0.00233
607.669	0.00323
617.313	0.00364
626.958	0.00337
636.603	0.00441
646.248	0.00637
655.893	0.00671
665.537	0.00393
675.182	0.00402
684.827	0.00479
694.472	0.00624
704.116	0.0071
713.761	0.00695
723.406	0.00789
733.051	0.00985
742.695	0.01054
752.34	0.00783
761.985	0.00601
771.63	0.00559
781.275	0.00575
790.919	0.00728
800.564	0.01057
810.209	0.01125
819.854	0.01253
829.498	0.01246
839.143	0.01089
848.788	0.00734
858.433	0.00727
868.078	0.0108
877.722	0.0079
887.367	0.00575
897.012	0.00557
906.657	0.006
916.301	0.00652
925.946	0.00724
935.591	0.00764
945.236	0.00669
954.88	0.0059
964.525	0.00535
974.17	0.00539
983.815	0.00554
993.46	0.00594
1003.1	0.00732
1012.75	0.00949
1022.39	0.01057
1032.04	0.0097
1041.68	0.01006
1051.33	0.01264
1060.97	0.02055
1070.62	0.01842
1080.26	0.0135
1089.91	0.01185
1099.55	0.0214
1109.2	0.01913
1118.84	0.01
1128.49	0.0073
1138.13	0.00679
1147.78	0.00631
1157.42	0.00552
1167.07	0.00536
1176.71	0.00542
1186.36	0.00579
1196	0.00677
1205.64	0.00823
1215.29	0.01328
1224.93	0.02292
1234.58	0.02717
1244.22	0.03093
1253.87	0.03405
1263.51	0.02947
1273.16	0.02336
1282.8	0.02193
1292.45	0.0175259
1302.09	0.01252
1311.74	0.00852
1321.38	0.0063
1331.03	0.00557
1340.67	0.00549
1350.32	0.00565
1359.96	0.00684
1369.61	0.00818
1379.25	0.00798
1388.9	0.0087
1398.54	0.00702
1408.18	0.00596
1417.83	0.00653
1427.47	0.0095
1437.12	0.0114
1446.76	0.01366
1456.41	0.02195
1466.05	0.03261
1475.7	0.06365
1485.34	0.04746
1494.99	0.02213
1504.63	0.01203
1514.28	0.00759
1523.92	0.00584
1533.57	0.00511
1543.21	0.00495
1552.86	0.0052
1562.5	0.00628
1572.15	0.00723
1581.79	0.00775
1591.44	0.00647
1601.08	0.00492
1610.73	0.00434
1620.37	0.0041
1630.01	0.00406
1639.66	0.00404
1649.3	0.00393
1658.95	0.00387
1668.59	0.00385
1678.24	0.00377
1687.88	0.00378
1697.53	0.00383
1707.17	0.004
1716.82	0.00402
1726.46	0.00431
1736.11	0.00453
1745.75	0.0042
1755.4	0.00389
1765.04	0.00384
1774.69	0.00369
1784.33	0.00374
1793.98	0.00378
1803.62	0.0037
1813.27	0.00371
1822.91	0.00376
1832.55	0.00373
1842.2	0.00383
1851.84	0.00387
1861.49	0.00391
1871.13	0.00392
1880.78	0.00382
1890.42	0.00371
1900.07	0.00354
1909.71	0.00357
1919.36	0.00356
1929	0.00363
1938.65	0.00364
1948.29	0.00371
1957.94	0.00356
1967.58	0.00368
1977.23	0.00362
1986.87	0.00372
1996.52	0.00361
2006.16	0.00352
2015.81	0.00356
2025.45	0.00357
2035.1	0.00349
2044.74	0.00342
2054.38	0.00347
2064.03	0.00339
2073.67	0.00337
2083.32	0.00344
2092.96	0.00351
2102.61	0.0035
2112.25	0.00343
2121.9	0.00342
2131.54	0.0033
2141.19	0.00335
2150.83	0.00312
2160.48	0.00316
2170.12	0.00322
2179.77	0.0032
2189.41	0.00322
2199.06	0.00329
2208.7	0.00326
2218.35	0.00316
2227.99	0.00311
2237.64	0.00306
2247.28	0.00313
2256.92	0.0031
2266.57	0.00314
2276.21	0.0032
2285.86	0.00322
2295.5	0.0032
2305.15	0.00331
2314.79	0.00321
2324.44	0.00325
2334.08	0.0032
2343.73	0.00298
2353.37	0.00305
2363.02	0.00296
2372.66	0.003
2382.31	0.00302
2391.95	0.00295
2401.6	0.00306
2411.24	0.00287
2420.89	0.003
2430.53	0.00308
2440.18	0.00307
2449.82	0.00299
2459.47	0.00306
2469.11	0.00309
2478.75	0.00304
2488.4	0.00311
2498.04	0.00315
2507.69	0.00322
2517.33	0.00325
2526.98	0.00317
2536.62	0.00322
2546.27	0.00303
2555.91	0.003
2565.56	0.00293
2575.2	0.00289
2584.85	0.00281
2594.49	0.00283
2604.14	0.00284
2613.78	0.00269
2623.43	0.00279
2633.07	0.00276
2642.72	0.00287
2652.36	0.00271
2662.01	0.00271
2671.65	0.00273
2681.29	0.00278
2690.94	0.00277
2700.58	0.00275
2710.23	0.00284
2719.87	0.00291
2729.52	0.00289
2739.16	0.00294
2748.81	0.00282
2758.45	0.00288
2768.1	0.00283
2777.74	0.00283
2787.39	0.00287
2797.03	0.00299
2806.68	0.00315
2816.32	0.0031
2825.97	0.00304
2835.61	0.00287
2845.26	0.00299
2854.9	0.00314
2864.55	0.00343
2874.19	0.00411
2883.84	0.00451
2893.48	0.00451
2903.12	0.00425
2912.77	0.00425
2922.41	0.00491
2932.06	0.00592
2941.7	0.0064
2951.35	0.00607
2960.99	0.00564
2970.64	0.00508
2980.28	0.00482
2989.93	0.00429
2999.57	0.0035
3009.22	0.00285
3018.86	0.00293
3028.51	0.00288
3038.15	0.00299
3047.8	0.00283
3057.44	0.00287
3067.09	0.00311
3076.73	0.00362
3086.38	0.0031
3096.02	0.00278
3105.67	0.00273
3115.31	0.00258
3124.95	0.00249
3134.6	0.00267
3144.24	0.0025
3153.89	0.00244
3163.53	0.00264
3173.18	0.00252
3182.82	0.00251
3192.47	0.00242
3202.11	0.00239
3211.76	0.00234
3221.4	0.00253
3231.05	0.00241
3240.69	0.00252
3250.34	0.00235
3259.98	0.00232
3269.63	0.0024
3279.27	0.00237
3288.92	0.00232
3298.56	0.00241
3308.21	0.00228
3317.85	0.00222
3327.49	0.00235
3337.14	0.00227
3346.78	0.00225
3356.43	0.00241
3366.07	0.0022
3375.72	0.00236
3385.36	0.00235
3395.01	0.00236
3404.65	0.00227
3414.3	0.0023
3423.94	0.00243
3433.59	0.00206
3443.23	0.00233
3452.88	0.00237
3462.52	0.00227
3472.17	0.00232
3481.81	0.00241
3491.46	0.00251
3501.1	0.00243
3510.75	0.00229
3520.39	0.00232
3530.04	0.00229
3539.68	0.00249
3549.32	0.00235
3558.97	0.00219
3568.61	0.00221
3578.26	0.00246
3587.9	0.00226
3597.55	0.00212
3607.19	0.00215
3616.84	0.00226
3626.48	0.00241
3636.13	0.00226
3645.77	0.00231
3655.42	0.0023
3665.06	0.00234
3674.71	0.00234
3684.35	0.00246
3694	0.00226
3703.64	0.00235
3713.29	0.00235
3722.93	0.00249
3732.58	0.00241
3742.22	0.00219
3751.86	0.0021
3761.51	0.00232
3771.15	0.00223
3780.8	0.00236
3790.44	0.00235
3800.09	0.00248
3809.73	0.00254
3819.38	0.00237
3829.02	0.00232
3838.67	0.00229
3848.31	0.00229
3857.96	0.00224
3867.6	0.00236
3877.25	0.00219
3886.89	0.00255
3896.54	0.00242
3906.18	0.00217
3915.83	0.00225
3925.47	0.00224
3935.12	0.00228
3944.76	0.00244
3954.41	0.00224
3964.05	0.00236
3973.69	0.00209
3983.34	0.00237
3992.98	0.00224
