Infrared Spectrum: RHODANINE, 5-P-HYDROXYBENZYLIDENE-
Formula: C10 H7 N O2 S2
CAS: 6339-79-3
State: SOLID (KBr PELLET)
Melting point: 276-277 C
Class: COBLENTZ
Instrument: Not specified, most likely a prism, grating, or hybrid spectrometer.
Sampling: TRANSMISSION
Resolution: 4
Origin: TENNESSEE EASTMAN COMPANY, RESEARCH LABORATORIES
MICROMETERS	TRANSMITTANCE
2.033	0.67
2.07268	0.668
2.11236	0.67
2.15204	0.672
2.19172	0.682
2.2314	0.692
2.27108	0.701
2.31076	0.706
2.35044	0.713
2.39012	0.718
2.4298	0.728
2.46948	0.74
2.50916	0.745
2.54884	0.753
2.58851	0.759
2.62819	0.764
2.66787	0.773
2.70755	0.776
2.74723	0.667
2.78691	0.589
2.82659	0.554
2.86627	0.518
2.90595	0.42
2.94563	0.144
2.98531	0.284
3.02499	0.394
3.06467	0.397
3.10435	0.384
3.14403	0.317
3.18371	0.258
3.22339	0.25
3.26307	0.312
3.30275	0.392
3.34243	0.504
3.38211	0.579
3.42179	0.597
3.46147	0.5
3.50115	0.46
3.54083	0.605
3.58051	0.649
3.62018	0.655
3.65986	0.663
3.69954	0.693
3.73922	0.703
3.7789	0.721
3.81858	0.748
3.85826	0.754
3.89794	0.766
3.93762	0.789
3.9773	0.793
4.01698	0.793
4.05666	0.799
4.09634	0.819
4.13602	0.831
4.1757	0.85
4.21538	0.865
4.25506	0.87
4.29474	0.87
4.33442	0.87
4.3741	0.897
4.41378	0.912
4.45346	0.918
4.49314	0.927
4.53282	0.932
4.5725	0.933
4.61218	0.935
4.65185	0.935
4.69153	0.935
4.73121	0.935
4.77089	0.935
4.81057	0.935
4.85025	0.935
4.88993	0.935
4.92961	0.935
4.96929	0.94
5.00897	0.963
5.04865	0.963
5.08833	0.963
5.12801	0.963
5.16769	0.963
5.20737	0.955
5.24705	0.953
5.28673	0.953
5.32641	0.95
5.36609	0.95
5.40577	0.951
5.44545	0.953
5.48513	0.928
5.52481	0.917
5.56449	0.917
5.60417	0.925
5.64385	0.923
5.68353	0.897
5.7232	0.837
5.76288	0.725
5.80256	0.579
5.84224	0.301
5.88192	0.122
5.9216	0.051
5.96128	0.273
6.00096	0.498
6.04064	0.614
6.08032	0.677
6.12	0.693
6.15968	0.683
6.19936	0.567
6.23904	0.342
6.27872	0.051
6.3184	0.019
6.35808	0.096
6.39776	0.46
6.43744	0.673
6.47712	0.726
6.5168	0.685
6.55648	0.322
6.59616	0.238
6.63584	0.649
6.67552	0.682
6.7152	0.667
6.75487	0.6
6.79455	0.392
6.83423	0.293
6.87391	0.17
6.91359	0.052
6.95327	0.145
6.99295	0.387
7.03263	0.609
7.07231	0.663
7.11199	0.645
7.15167	0.677
7.19135	0.708
7.23103	0.7
7.27071	0.625
7.31039	0.72
7.35007	0.778
7.38975	0.761
7.42943	0.569
7.46911	0.511
7.50879	0.539
7.54847	0.687
7.58815	0.68
7.62783	0.627
7.66751	0.543
7.70719	0.289
7.74687	0.213
7.78655	0.221
7.82622	0.251
7.8659	0.286
7.90558	0.23
7.94526	0.238
7.98494	0.235
8.02462	0.153
8.0643	0.114
8.10398	0.19
8.14366	0.225
8.18334	0.369
8.22302	0.397
8.2627	0.319
8.30238	0.183
8.34206	0.081
8.38174	0.052
8.42142	0.057
8.4611	0.057
8.50078	0.044
8.54046	0.074
8.58014	0.279
8.61982	0.508
8.6595	0.629
8.69918	0.7
8.73886	0.731
8.77854	0.764
8.81822	0.776
8.85789	0.778
8.89757	0.778
8.93725	0.781
8.97693	0.789
9.01661	0.798
9.05629	0.789
9.09597	0.786
9.13565	0.804
9.17533	0.806
9.21501	0.778
9.25469	0.665
9.29437	0.599
9.33405	0.534
9.37373	0.653
9.41341	0.771
9.45309	0.807
9.49277	0.834
9.53245	0.841
9.57213	0.847
9.61181	0.847
9.65149	0.849
9.69117	0.837
9.73085	0.766
9.77053	0.678
9.81021	0.644
9.84989	0.75
9.88956	0.816
9.92924	0.837
9.96892	0.842
10.0086	0.85
10.0483	0.859
10.088	0.865
10.1276	0.872
10.1673	0.877
10.207	0.88
10.2467	0.884
10.2864	0.885
10.326	0.884
10.3657	0.864
10.4054	0.842
10.4451	0.859
10.4848	0.869
10.5244	0.877
10.5641	0.88
10.6038	0.88
10.6435	0.877
10.6832	0.869
10.7228	0.87
10.7625	0.879
10.8022	0.885
10.8419	0.887
10.8816	0.885
10.9212	0.869
10.9609	0.743
11.0006	0.587
11.0403	0.716
11.08	0.809
11.1196	0.846
11.1593	0.867
11.199	0.879
11.2387	0.889
11.2784	0.89
11.318	0.889
11.3577	0.889
11.3974	0.889
11.4371	0.889
11.4767	0.885
11.5164	0.877
11.5561	0.857
11.5958	0.831
11.6355	0.831
11.6751	0.832
11.7148	0.832
11.7545	0.812
11.7942	0.751
11.8339	0.713
11.8735	0.615
11.9132	0.442
11.9529	0.451
11.9926	0.435
12.0323	0.451
12.0719	0.556
12.1116	0.653
12.1513	0.723
12.191	0.721
12.2307	0.655
12.2703	0.586
12.31	0.579
12.3497	0.581
12.3894	0.602
12.4291	0.716
12.4687	0.796
12.5084	0.829
12.5481	0.847
12.5878	0.859
12.6275	0.867
12.6671	0.869
12.7068	0.869
12.7465	0.869
12.7862	0.869
12.8259	0.87
12.8655	0.869
12.9052	0.862
12.9449	0.854
12.9846	0.842
13.0243	0.822
13.0639	0.801
13.1036	0.768
13.1433	0.726
13.183	0.688
13.2227	0.66
13.2623	0.635
13.302	0.627
13.3417	0.634
13.3814	0.692
13.4211	0.73
13.4607	0.779
13.5004	0.824
13.5401	0.849
13.5798	0.865
13.6194	0.867
13.6591	0.865
13.6988	0.846
13.7385	0.832
13.7782	0.827
13.8178	0.827
13.8575	0.829
13.8972	0.829
13.9369	0.829
13.9766	0.827
14.0162	0.824
14.0559	0.824
14.0956	0.829
14.1353	0.831
14.175	0.832
14.2146	0.827
14.2543	0.796
14.294	0.723
14.3337	0.63
14.3734	0.503
14.413	0.402
14.4527	0.365
14.4924	0.362
14.5321	0.394
14.5718	0.44
14.6114	0.493
14.6511	0.544
14.6908	0.61
14.7305	0.685
14.7702	0.733
14.8098	0.781
14.8495	0.812
14.8892	0.832
14.9289	0.842
14.9686	0.842
15.0082	0.847
15.0479	0.857
15.0876	0.87
15.1273	0.874
15.167	0.874
15.2066	0.874
15.2463	0.872
15.286	0.87
15.3257	0.865
15.3654	0.852
15.405	0.831
15.4447	0.812
15.4844	0.788
15.5241	0.759
15.5638	0.728
15.6034	0.697
15.6431	0.68
15.6828	0.667
15.7225	0.665
15.7621	0.662
15.8018	0.658
15.8415	0.657
15.8812	0.655
15.9209	0.653
15.9605	0.652
