Infrared Spectrum: DISULFIDE, BIS(P-CHLORO ACETAMIDO PHENYL)
Formula: C16 H14 Cl2 N2 O2 S2
CAS: 6339-52-2
State: SOLID (1.0% IN KBr PELLET)
Class: COBLENTZ
Instrument: Not specified, most likely a prism, grating, or hybrid spectrometer.
Sampling: TRANSMISSION
Path length: 0.0355 CM THICK
Resolution: 4
Origin: ANDERSON PHYSICAL LABORATORY
1/CM	TRANSMITTANCE
675.373	0.438
683.769	0.494
692.164	0.6139
700.56	0.661
708.955	0.704
717.351	0.753
725.746	0.738
734.142	0.764
742.537	0.828
750.933	0.838
759.328	0.779
767.724	0.5611
776.119	0.3941
784.515	0.6336
792.91	0.862
801.306	0.9
809.701	0.779
818.097	0.4134
826.492	0.138
834.888	0.562
843.283	0.785
851.679	0.962
860.074	0.9411
868.47	0.843
876.865	0.9519
885.261	0.979
893.656	0.97
902.052	0.95
910.447	0.943
918.843	0.919
927.238	0.789
935.634	0.8529
944.029	0.817
952.425	0.916
960.821	0.901
969.216	0.798
977.612	0.783
986.007	0.882
994.403	0.9
1002.8	0.897
1011.19	0.855
1019.59	0.4801
1027.98	0.8798
1036.38	0.897
1044.78	0.892
1053.17	0.885
1061.57	0.873
1069.96	0.85
1078.36	0.817
1086.75	0.71
1095.15	0.659
1103.54	0.816
1111.94	0.771
1120.34	0.691
1128.73	0.698
1137.13	0.78
1145.52	0.804
1153.92	0.792
1162.31	0.753
1170.71	0.695
1179.1	0.585
1187.5	0.5341
1195.89	0.5348
1204.29	0.711
1212.69	0.734
1221.08	0.741
1229.48	0.717
1237.87	0.646
1246.27	0.464
1254.66	0.358
1263.06	0.523
1271.45	0.417
1279.85	0.501
1288.25	0.449
1296.64	0.5289
1305.04	0.5831
1313.43	0.592
1321.83	0.394
1330.22	0.479
1338.62	0.461
1347.01	0.525
1355.41	0.562
1363.81	0.561
1372.2	0.592
1380.6	0.598
1388.99	0.546
1397.39	0.3291
1405.78	0.188
1414.18	0.485
1422.57	0.577
1430.97	0.677
1439.36	0.704
1447.76	0.668
1456.16	0.647
1464.55	0.634
1472.95	0.589
1481.34	0.528
1489.74	0.386
1498.13	0.1491
1506.53	0.24
1514.92	0.274
1523.32	0.1071
1531.72	0.061
1540.11	0.067
1548.51	0.2818
1556.9	0.6099
1565.3	0.697
1573.69	0.722
1582.09	0.604
1590.48	0.213
1598.88	0.114
1607.28	0.4007
1615.67	0.5679
1624.07	0.57
1632.46	0.4951
1640.86	0.3851
1649.25	0.246
1657.65	0.1201
1666.04	0.061
1674.44	0.07
1682.83	0.085
1691.23	0.1848
1699.63	0.3938
1708.02	0.6768
1716.42	0.81
1724.81	0.882
1733.21	0.898
1741.6	0.897
1750	0.897
1758.39	0.895
1766.79	0.895
1775.19	0.891
1783.58	0.883
1791.98	0.885
1800.37	0.885
1808.77	0.888
1817.16	0.889
1825.56	0.883
1833.95	0.883
1842.35	0.883
1850.75	0.883
1859.14	0.882
1867.54	0.874
1875.93	0.873
1884.33	0.861
1892.72	0.84
1901.12	0.807
1909.51	0.81
1917.91	0.835
1926.3	0.843
1934.7	0.844
1943.1	0.843
1951.49	0.843
1959.89	0.84
1968.28	0.837
1976.68	0.834
1985.07	0.831
1993.47	0.829
2001.86	0.8285
2010.26	0.826
2018.66	0.823
2027.05	0.8191
2035.45	0.814
2043.84	0.8108
2052.24	0.8071
2060.63	0.802
2069.03	0.8
2077.42	0.798
2085.82	0.7951
2094.21	0.7936
2102.61	0.7871
2111.01	0.7823
2119.4	0.78
2127.8	0.78
2136.19	0.779
2144.59	0.775
2152.98	0.7701
2161.38	0.7678
2169.77	0.7662
2178.17	0.765
2186.57	0.764
2194.96	0.7616
2203.36	0.7572
2211.75	0.7524
2220.15	0.7503
2228.54	0.7487
2236.94	0.7452
2245.33	0.7418
2253.73	0.74
2262.13	0.7368
2270.52	0.7333
2278.92	0.731
2287.31	0.7293
2295.71	0.7287
2304.1	0.7243
2312.5	0.7194
2320.89	0.7162
2329.29	0.7139
2337.68	0.7123
2346.08	0.7104
2354.48	0.708
2362.87	0.705
2371.27	0.704
2379.66	0.7014
2388.06	0.701
2396.45	0.701
2404.85	0.7
2413.24	0.6989
2421.64	0.697
2430.04	0.695
2438.43	0.6917
2446.83	0.6885
2455.22	0.6852
2463.62	0.682
2472.01	0.6785
2480.41	0.675
2488.8	0.6715
2497.2	0.67
2505.6	0.6695
2513.99	0.668
2522.39	0.667
2530.78	0.665
2539.18	0.6606
2547.57	0.658
2555.97	0.6566
2564.36	0.655
2572.76	0.6516
2581.15	0.6496
2589.55	0.6463
2597.95	0.6441
2606.34	0.6426
2614.74	0.6406
2623.13	0.6373
2631.53	0.635
2639.92	0.632
2648.32	0.631
2656.71	0.6283
2665.11	0.6262
2673.51	0.6247
2681.9	0.6188
2690.3	0.616
2698.69	0.6131
2707.09	0.6109
2715.48	0.6076
2723.88	0.605
2732.27	0.604
2740.67	0.6019
2749.07	0.598
2757.46	0.5958
2765.86	0.594
2774.25	0.5907
2782.65	0.5857
2791.04	0.5824
2799.44	0.582
2807.83	0.58
2816.23	0.5797
2824.62	0.5752
2833.02	0.5685
2841.42	0.567
2849.81	0.5661
2858.21	0.5599
2866.6	0.5564
2875	0.5549
2883.39	0.5527
2891.79	0.5509
2900.18	0.5492
2908.58	0.547
2916.98	0.5454
2925.37	0.5343
2933.77	0.5227
2942.16	0.5129
2950.56	0.507
2958.95	0.5015
2967.35	0.5
2975.74	0.498
2984.14	0.498
2992.54	0.497
3000.93	0.4918
3009.33	0.486
3017.72	0.4791
3026.12	0.4716
3034.51	0.468
3042.91	0.4651
3051.3	0.465
3059.7	0.4659
3068.09	0.4677
3076.49	0.4709
3084.89	0.4726
3093.28	0.4673
3101.68	0.4532
3110.07	0.4471
3118.47	0.4474
3126.86	0.4533
3135.26	0.461
3143.65	0.461
3152.05	0.452
3160.45	0.4396
3168.84	0.434
3177.24	0.4311
3185.63	0.4229
3194.03	0.4188
3202.42	0.4121
3210.82	0.4052
3219.21	0.4019
3227.61	0.3978
3236.01	0.3733
3244.4	0.3441
3252.8	0.322
3261.19	0.3008
3269.59	0.2831
3277.98	0.2706
3286.38	0.2557
3294.77	0.2439
3303.17	0.2186
3311.56	0.1964
3319.96	0.1762
3328.36	0.1594
3336.75	0.1511
3345.15	0.1936
3353.54	0.2573
3361.94	0.3313
3370.33	0.3839
3378.73	0.4215
3387.12	0.4433
3395.52	0.4506
3403.92	0.4606
3412.31	0.464
3420.71	0.4639
3429.1	0.462
3437.5	0.4585
3445.89	0.4552
3454.29	0.45
3462.68	0.449
3471.08	0.447
3479.47	0.4438
3487.87	0.443
3496.27	0.441
3504.66	0.4405
3513.06	0.44
3521.45	0.44
3529.85	0.44
3538.24	0.44
3546.64	0.44
3555.03	0.44
3563.43	0.44
3571.83	0.44
3580.22	0.44
3588.62	0.44
3597.01	0.44
3605.41	0.44
3613.8	0.438
3622.2	0.438
3630.59	0.438
3638.99	0.4388
3647.39	0.4407
3655.78	0.443
3664.18	0.444
3672.57	0.446
3680.97	0.446
3689.36	0.444
3697.76	0.4409
3706.15	0.4392
3714.55	0.438
3722.94	0.44
3731.34	0.44
3739.74	0.4393
3748.13	0.438
3756.53	0.438
3764.92	0.437
3773.32	0.435
3781.71	0.434
3790.11	0.434
3798.5	0.4317
3806.9	0.4287
3815.3	0.428
3823.69	0.428
3832.09	0.4259
3840.48	0.4243
3848.88	0.422
3857.27	0.422
3865.67	0.419
3874.06	0.4184
3882.46	0.4164
3890.86	0.4144
3899.25	0.413
3907.65	0.4124
3916.04	0.4105
3924.44	0.41
3932.83	0.408
3941.23	0.4062
3949.62	0.403
3958.02	0.4012
3966.41	0.4
3974.81	0.3978
3983.21	0.3955
