Infrared Spectrum: Ethyl 2-cyanoacetoacetate
Formula: C 7 H 9 N O 3
CAS: 634-55-9
State: gas
Origin: EPA-IR VAPOR PHASE LIBRARY
1/CM	ABSORBANCE
549.8	0.0004713
559.445	0.0005518
569.09	0.0007645
578.734	0.0010076
588.379	0.00127
598.024	0.00129
607.669	0.00126
617.313	0.0008908
626.958	0.0007991
636.603	0.0004323
646.248	0.0005401
655.893	0.00027397
665.537	0.0006667
675.182	0.000772
684.827	0.0008918
694.472	0.0008072
704.116	0.0007712
713.761	0.0010619
723.406	0.000826
733.051	0.0009298
742.695	0.0010932
752.34	0.0009133
761.985	0.000897
771.63	0.0009301
781.275	0.0011203
790.919	0.00126
800.564	0.0010842
810.209	0.0010801
819.854	0.0012025
829.498	0.00151
839.143	0.00214
848.788	0.00265
858.433	0.0025
868.078	0.00163
877.722	0.0007379
887.367	0.0008918
897.012	0.0012384
906.657	0.00164
916.301	0.00202
925.946	0.00243
935.591	0.00213
945.236	0.00186
954.88	0.00148
964.525	0.00145
974.17	0.00142
983.815	0.00156
993.46	0.00199
1003.1	0.00316
1012.75	0.00694
1022.39	0.01297
1032.04	0.01588
1041.68	0.013
1051.33	0.00653
1060.97	0.00397
1070.62	0.00294
1080.26	0.00267
1089.91	0.00371
1099.55	0.00477
1109.2	0.00475
1118.84	0.00358
1128.49	0.00457
1138.13	0.00828
1147.78	0.01507
1157.42	0.02431
1167.07	0.02927
1176.71	0.02914
1186.36	0.02691
1196	0.02269
1205.64	0.01788
1215.29	0.01435
1224.93	0.01428
1234.58	0.01777
1244.22	0.02587
1253.87	0.03506
1263.51	0.03658
1273.16	0.02869
1282.8	0.01888
1292.45	0.01486
1302.09	0.0147
1311.74	0.014
1321.38	0.01323
1331.03	0.01195
1340.67	0.00865
1350.32	0.00471
1359.96	0.00488
1369.61	0.00662
1379.25	0.00665
1388.9	0.00443
1398.54	0.00409
1408.18	0.00452
1417.83	0.00438
1427.47	0.00379
1437.12	0.0032
1446.76	0.00305
1456.41	0.00312
1466.05	0.00333
1475.7	0.00318
1485.34	0.0024
1494.99	0.00166
1504.63	0.0011207
1514.28	0.0009235
1523.92	0.0008626
1533.57	0.0007774
1543.21	0.0007946
1552.86	0.000768
1562.5	0.0007264
1572.15	0.0006796
1581.79	0.0007104
1591.44	0.0006455
1601.08	0.0005663
1610.73	0.0007144
1620.37	0.0005556
1630.01	0.0006862
1639.66	0.0006607
1649.3	0.0007413
1658.95	0.0007867
1668.59	0.0009335
1678.24	0.0010646
1687.88	0.0012191
1697.53	0.00157
1707.17	0.00218
1716.82	0.00314
1726.46	0.0049
1736.11	0.00879
1745.75	0.01801
1755.4	0.03551
1765.04	0.0483
1774.69	0.05078
1784.33	0.0338
1793.98	0.01683
1803.62	0.00773
1813.27	0.00397
1822.91	0.00253
1832.55	0.00179
1842.2	0.00142
1851.84	0.0012064
1861.49	0.0010774
1871.13	0.0010124
1880.78	0.00097
1890.42	0.0009602
1900.07	0.0008409
1909.71	0.0007043
1919.36	0.0006768
1929	0.0006065
1938.65	0.0006012
1948.29	0.0005794
1957.94	0.0005334
1967.58	0.0005776
1977.23	0.0005749
1986.87	0.0005178
1996.52	0.0005993
2006.16	0.0005712
2015.81	0.0006496
2025.45	0.0005781
2035.1	0.0005751
2044.74	0.0005903
2054.38	0.0005869
2064.03	0.0006425
2073.67	0.0005681
2083.32	0.000547
2092.96	0.0006373
2102.61	0.0006342
2112.25	0.0005636
2121.9	0.000534
2131.54	0.0005297
2141.19	0.0005309
2150.83	0.0003976
2160.48	0.0004115
2170.12	0.0003649
2179.77	0.0003791
2189.41	0.00032625
2199.06	0.0003478
2208.7	0.0003465
2218.35	0.0003923
2227.99	0.0003922
2237.64	0.0003999
2247.28	0.0005848
2256.92	0.0005344
2266.57	0.0006422
2276.21	0.0005638
2285.86	0.0004129
2295.5	0.0005691
2305.15	0.0005997
2314.79	0.0007814
2324.44	0.000938
2334.08	0.0008657
2343.73	0.0009228
2353.37	0.0009924
2363.02	0.0011211
2372.66	0.0009572
2382.31	0.0005502
2391.95	0.0004996
2401.6	0.0004056
2411.24	0.0004661
2420.89	0.0004255
2430.53	0.0004404
2440.18	0.0003646
2449.82	0.0004306
2459.47	0.0003889
2469.11	0.0004955
2478.75	0.00032036
2488.4	0.0004318
2498.04	0.0004635
2507.69	0.00033717
2517.33	0.000414
2526.98	0.0003922
2536.62	0.0004312
2546.27	0.0002959
2555.91	0.00033446
2565.56	0.0003504
2575.2	0.00027724
2584.85	0.000352
2594.49	0.000347
2604.14	0.00027605
2613.78	0.0003518
2623.43	0.00031427
2633.07	0.00032761
2642.72	0.0003932
2652.36	0.00033556
2662.01	0.0003448
2671.65	0.0003403
2681.29	0.0003984
2690.94	0.0004636
2700.58	0.0004297
2710.23	0.00030879
2719.87	0.00030472
2729.52	0.00031932
2739.16	0.00043
2748.81	0.00023594
2758.45	0.0004092
2768.1	0.0003958
2777.74	0.0004232
2787.39	0.0004839
2797.03	0.0003914
2806.68	0.0004098
2816.32	0.0006958
2825.97	0.0005517
2835.61	0.0006103
2845.26	0.0006128
2854.9	0.000728
2864.55	0.0011214
2874.19	0.00131
2883.84	0.00178
2893.48	0.00188
2903.12	0.00196
2912.77	0.00235
2922.41	0.00264
2932.06	0.0032
2941.7	0.00422
2951.35	0.0045
2960.99	0.00445
2970.64	0.00512
2980.28	0.00776
2989.93	0.00936
2999.57	0.00847
3009.22	0.00561
3018.86	0.00404
3028.51	0.0024
3038.15	0.00155
3047.8	0.0009905
3057.44	0.00063
3067.09	0.0005569
3076.73	0.0005526
3086.38	0.0005572
3096.02	0.0005204
3105.67	0.0003663
3115.31	0.0004595
3124.95	0.0004191
3134.6	0.0003644
3144.24	0.0004122
3153.89	0.0004306
3163.53	0.0002988
3173.18	0.0003533
3182.82	0.0003888
3192.47	0.00027217
3202.11	0.0004814
3211.76	0.0004619
3221.4	0.0004002
3231.05	0.0004393
3240.69	0.00028759
3250.34	0.0002193
3259.98	0.00029295
3269.63	0.0002055
3279.27	0.00025147
3288.92	0.0001474
3298.56	0.0002079
3308.21	0.0004098
3317.85	0.000242938
3327.49	0.0002266
3337.14	0.0001895
3346.78	0.0002057
3356.43	0.0004166
3366.07	0.0002293
3375.72	0.0001694
3385.36	0.0001837
3395.01	0.00023177
3404.65	5.4e-05
3414.3	0.0002205
3423.94	0.0002284
3433.59	0.0003479
3443.23	0.00031471
3452.88	0.00029044
3462.52	0.0001561
3472.17	0.00030758
3481.81	0.00031477
3491.46	0.0004987
3501.1	0.0005535
3510.75	0.0007928
3520.39	0.0006627
3530.04	0.0006132
3539.68	0.0005036
3549.32	0.00027844
3558.97	0.00014
3568.61	0.0004139
3578.26	0.00028615
3587.9	0.00030066
3597.55	0.000114
3607.19	0.0003063
3616.84	0.000176
3626.48	0.00030073
3636.13	8.5e-05
3645.77	0.000248066
3655.42	0.0002049
3665.06	0.0002173
3674.71	0.00023391
3684.35	0.00028711
3694	0.000239289
3703.64	0.000248563
3713.29	0.000132
3722.93	0.0002265
3732.58	0.000377
3742.22	0.00033382
3751.86	0.0001789
3761.51	0.0001414
3771.15	0.00031732
3780.8	0.0004602
3790.44	0.0002097
3800.09	0.00011
3809.73	2.1e-05
3819.38	0.00029658
3829.02	0.0003569
3838.67	0.0001486
3848.31	0.0002259
3857.96	0.0003537
3867.6	0.00025701
3877.25	7.9e-05
3886.89	0.00025973
3896.54	0.0001964
3906.18	0.00028811
3915.83	0.000245234
3925.47	0.00032225
3935.12	0.00026413
3944.76	0.000240494
3954.41	0
3964.05	8.2e-05
3973.69	0.00025137
3983.34	0.000133
3992.98	7.4e-05
