Infrared Spectrum: Phendimetrazine
Formula: C 12 H 17 N O
CAS: 634-03-7
State: gas
Instrument: HP-GC/MS/IRD
Origin: NIST Mass Spectrometry Data Center
1/CM	ABSORBANCE
550	0.0001188
562	6.48e-05
574	0.0001197
586	0.0001224
598	0.0005832
610	0.0003888
622	0.0001098
634	0.0004149
646	0.0008181
658	0.0004059
670	0.0004275
682	0.0008946
694	0.003159
706	0.0024462
718	0.000729
730	0.0006948
742	0.0021348
754	0.0028296
766	0.0008208
778	0.0005868
790	0.0006543
802	0.0003132
814	0.0001557
826	0.0001368
838	0.0002664
850	0.000342
862	0.0003807
874	0.0006255
886	0.0005868
898	0.0007011
910	0.0010035
922	0.0008541
934	0.0011331
946	0.000819
958	0.0003771
970	0.0005184
982	0.000972
994	0.0022329
1006	0.0021699
1018	0.0010062
1030	0.0013059
1042	0.0009666
1054	0.0008721
1066	0.0018063
1078	0.0034011
1090	0.0051813
1102	0.0055179
1114	0.0085851
1126	0.0078876
1138	0.0041445
1150	0.0022914
1162	0.0023292
1174	0.0016659
1186	0.0007605
1198	0.0006066
1210	0.0005895
1222	0.000801
1234	0.0010656
1246	0.0014004
1258	0.0017973
1270	0.002763
1282	0.0026748
1294	0.0015984
1306	0.0007893
1318	0.0008874
1330	0.001044
1342	0.0012969
1354	0.0019089
1366	0.0014292
1378	0.0016569
1390	0.0010098
1402	0.0003987
1414	0.0003402
1426	0.0004347
1438	0.0009954
1450	0.002331
1462	0.0021573
1474	0.0013518
1486	0.0009639
1498	0.0007821
1510	0.0003519
1522	0.0002124
1534	0.0001728
1546	0.0001287
1558	7.47e-05
1570	0.0001314
1582	0.0002412
1594	0.0003267
1606	0.000324
1618	0.0001611
1630	0.000135
1642	0.0001341
1654	0.0001584
1666	0.0001224
1678	6.75e-05
1690	5.94e-05
1702	6.66e-05
1714	7.38e-05
1726	8.82e-05
1738	8.82e-05
1750	9.81e-05
1762	9.36e-05
1774	6.3e-05
1786	0.0001296
1798	0.0002349
1810	0.0001296
1822	8.28e-05
1834	6.21e-05
1846	7.83e-05
1858	0.0001116
1870	0.0001746
1882	0.0001764
1894	0.0001179
1906	6.75e-05
1918	8.64e-05
1930	0.000153
1942	0.0002286
1954	0.0002016
1966	0.0001071
1978	5.67e-05
1990	9.09e-05
2002	7.65e-05
2014	0.0001044
2026	9.72e-05
2038	7.83e-05
2050	6.93e-05
2062	6.03e-05
2074	7.56e-05
2086	5.67e-05
2098	7.83e-05
2110	4.86e-05
2122	5.58e-05
2134	1.26e-05
2146	1.53e-05
2158	2.79e-05
2170	4.14e-05
2182	4.41e-05
2194	5.4e-05
2206	4.59e-05
2218	4.32e-05
2230	2.52e-05
2242	2.43e-05
2254	2.88e-05
2266	3.96e-05
2278	5.49e-05
2290	5.94e-05
2302	4.86e-05
2314	5.04e-05
2326	5.85e-05
2338	6.57e-05
2350	6.93e-05
2362	5.13e-05
2374	4.5e-05
2386	6.57e-05
2398	2.52e-05
2410	3.87e-05
2422	6.03e-05
2434	6.57e-05
2446	7.74e-05
2458	8.82e-05
2470	8.1e-05
2482	9.09e-05
2494	8.19e-05
2506	9.72e-05
2518	0.0001287
2530	0.0001269
2542	0.0001341
2554	0.000171
2566	0.0002007
2578	0.000234
2590	0.0002502
2602	0.0002502
2614	0.0002808
2626	0.0002736
2638	0.000234
2650	0.0002277
2662	0.000252
2674	0.0003654
2686	0.0005805
2698	0.0008397
2710	0.000828
2722	0.0008613
2734	0.0009045
2746	0.0011079
2758	0.0013383
2770	0.0021663
2782	0.0037071
2794	0.0061236
2806	0.0056592
2818	0.0034911
2830	0.0024147
2842	0.0030996
2854	0.005463
2866	0.0058644
2878	0.0031626
2890	0.002592
2902	0.0025065
2914	0.0030195
2926	0.0037062
2938	0.005283
2950	0.0037674
2962	0.0062289
2974	0.0053964
2986	0.0038295
2998	0.0036756
3010	0.0015786
3022	0.0012564
3034	0.0021519
3046	0.0019071
3058	0.0015426
3070	0.0024156
3082	0.0017037
3094	0.0011817
3106	0.0007308
3118	0.0004554
3130	0.0003024
3142	0.0002061
3154	0.0001989
3166	0.0002169
3178	0.0001701
3190	0.0001233
3202	0.0001161
3214	0.000108
3226	0.0001026
3238	8.91e-05
3250	9.9e-05
3262	3.69e-05
3274	6.93e-05
3286	0.0001053
3298	9.45e-05
3310	7.11e-05
3322	4.32e-05
3334	0.0001116
3346	6.57e-05
3358	7.56e-05
3370	6.93e-05
3382	8.55e-05
3394	9e-05
3406	5.4e-05
3418	8.91e-05
3430	6.03e-05
3442	5.94e-05
3454	4.68e-05
3466	1.26e-05
3478	5.31e-05
3490	3.96e-05
3502	8.73e-05
3514	3.33e-05
3526	5.04e-05
3538	7.11e-05
3550	4.77e-05
3562	0.0001026
3574	9.09e-05
3586	7.2e-05
3598	4.68e-05
3610	6.66e-05
3622	5.4e-05
3634	7.2e-05
3646	0.0001368
3658	0.0001134
3670	9.36e-05
3682	8.1e-05
3694	9e-05
3706	0.0001008
3718	0.0001017
3730	7.65e-05
3742	9e-05
3754	9.18e-05
3766	9.72e-05
3778	8.91e-05
3790	9.54e-05
3802	8.46e-05
3814	0.0001323
3826	9.81e-05
3838	7.11e-05
