Infrared Spectrum: 1-ETHYL-2-[(1-ETHYL-4(1H)-QUINOLYLIDENE)METHYL]-QUINOLINIUM IODIDE
Formula: C23 H23 I N2
CAS: 634-21-9
State: SOLID (MINERAL OIL MULL)
Class: COBLENTZ
Instrument: Not specified, most likely a prism, grating, or hybrid spectrometer.
Sampling: TRANSMISSION
Resolution: 4
Origin: WYANDOTTE CHEMICALS CORP., WYANDOTTE, MICHIGAN, USA
MICROMETERS	TRANSMITTANCE
2.019	0.13
2.05637	0.131
2.09373	0.131
2.1311	0.138
2.16846	0.141
2.20583	0.141
2.2432	0.145
2.28056	0.147
2.31793	0.155
2.3553	0.156
2.39266	0.156
2.43003	0.156
2.46739	0.156
2.50476	0.158
2.54213	0.161
2.57949	0.164
2.61686	0.169
2.65423	0.175
2.69159	0.182
2.72896	0.193
2.76632	0.197
2.80369	0.191
2.84106	0.186
2.87842	0.185
2.91579	0.183
2.95316	0.183
2.99052	0.185
3.02789	0.197
3.06525	0.199
3.10262	0.2
3.13999	0.2
3.17735	0.2
3.21472	0.199
3.25209	0.186
3.28945	0.169
3.32682	0.12
3.36418	0.037
3.40155	0.017
3.43892	0.02
3.47628	0.029
3.51365	0.036
3.55102	0.102
3.58838	0.224
3.62575	0.26
3.66311	0.266
3.70048	0.268
3.73785	0.27
3.77521	0.281
3.81258	0.284
3.84995	0.287
3.88731	0.288
3.92468	0.299
3.96204	0.318
3.99941	0.323
4.03678	0.339
4.07414	0.343
4.11151	0.346
4.14888	0.353
4.18624	0.357
4.22361	0.367
4.26097	0.357
4.29834	0.361
4.33571	0.372
4.37307	0.392
4.41044	0.406
4.44781	0.409
4.48517	0.414
4.52254	0.425
4.5599	0.437
4.59727	0.437
4.63464	0.442
4.672	0.45
4.70937	0.458
4.74674	0.469
4.7841	0.475
4.82147	0.481
4.85883	0.499
4.8962	0.5
4.93357	0.5
4.97093	0.505
5.0083	0.503
5.04567	0.513
5.08303	0.532
5.1204	0.522
5.15776	0.538
5.19513	0.547
5.2325	0.56
5.26986	0.577
5.30723	0.577
5.3446	0.599
5.38196	0.609
5.41933	0.621
5.45669	0.618
5.49406	0.64
5.53143	0.646
5.56879	0.665
5.60616	0.681
5.64352	0.706
5.68089	0.722
5.71826	0.731
5.75562	0.748
5.79299	0.786
5.83036	0.791
5.86772	0.784
5.90509	0.81
5.94245	0.816
5.97982	0.836
6.01719	0.908
6.05455	0.927
6.09192	0.857
6.12929	0.533
6.16665	0.296
6.20402	0.116
6.24138	0.145
6.27875	0.485
6.31612	0.566
6.35348	0.205
6.39085	0.135
6.42822	0.202
6.46558	0.161
6.50295	0.186
6.54031	0.147
6.57768	0.108
6.61505	0.073
6.65241	0.05
6.68978	0.047
6.72715	0.059
6.76451	0.067
6.80188	0.036
6.83924	0.043
6.87661	0.05
6.91398	0.087
6.95134	0.084
6.98871	0.178
7.02608	0.32
7.06344	0.392
7.10081	0.384
7.13817	0.251
7.17554	0.094
7.21291	0.135
7.25027	0.089
7.28764	0.124
7.32501	0.229
7.36237	0.299
7.39974	0.202
7.4371	0.295
7.47447	0.329
7.51184	0.161
7.5492	0.08
7.58657	0.116
7.62394	0.26
7.6613	0.346
7.69867	0.409
7.73603	0.328
7.7734	0.145
7.81077	0.124
7.84813	0.189
7.8855	0.337
7.92287	0.353
7.96023	0.191
7.9976	0.332
8.03496	0.475
8.07233	0.54
8.1097	0.445
8.14706	0.218
8.18443	0.075
8.2218	0.08
8.25916	0.147
8.29653	0.222
8.33389	0.26
8.37126	0.262
8.40863	0.376
8.44599	0.434
8.48336	0.401
8.52073	0.401
8.55809	0.315
8.59546	0.262
8.63282	0.16
8.67019	0.048
8.70756	0.076
8.74492	0.167
8.78229	0.241
8.81965	0.285
8.85702	0.295
8.89439	0.257
8.93175	0.291
8.96912	0.328
9.00649	0.357
9.04385	0.383
9.08122	0.39
9.11858	0.395
9.15595	0.332
9.19332	0.243
9.23068	0.304
9.26805	0.354
9.30542	0.395
9.34278	0.392
9.38015	0.331
9.41751	0.335
9.45488	0.317
9.49225	0.378
9.52961	0.317
9.56698	0.315
9.60435	0.395
9.64171	0.428
9.67908	0.458
9.71644	0.469
9.75381	0.488
9.79118	0.491
9.82854	0.486
9.86591	0.472
9.90328	0.499
9.94064	0.529
9.97801	0.541
10.0154	0.562
10.0527	0.555
10.0901	0.555
10.1275	0.562
10.1648	0.568
10.2022	0.571
10.2396	0.562
10.2769	0.577
10.3143	0.583
10.3517	0.572
10.389	0.554
10.4264	0.514
10.4638	0.47
10.5011	0.408
10.5385	0.456
10.5759	0.516
10.6132	0.576
10.6506	0.591
10.688	0.609
10.7253	0.62
10.7627	0.631
10.8001	0.635
10.8374	0.645
10.8748	0.649
10.9122	0.651
10.9495	0.657
10.9869	0.657
11.0243	0.675
11.0616	0.689
11.099	0.703
11.1364	0.711
11.1737	0.715
11.2111	0.722
11.2485	0.722
11.2858	0.734
11.3232	0.733
11.3606	0.731
11.3979	0.725
11.4353	0.66
11.4727	0.599
11.51	0.698
11.5474	0.725
11.5848	0.648
11.6221	0.62
11.6595	0.664
11.6969	0.689
11.7342	0.695
11.7716	0.632
11.809	0.59
11.8463	0.653
11.8837	0.682
11.9211	0.687
11.9584	0.708
11.9958	0.733
12.0332	0.734
12.0705	0.729
12.1079	0.698
12.1452	0.643
12.1826	0.543
12.22	0.387
12.2573	0.317
12.2947	0.238
12.3321	0.244
12.3694	0.401
12.4068	0.502
12.4442	0.34
12.4815	0.249
12.5189	0.387
12.5563	0.508
12.5936	0.568
12.631	0.511
12.6684	0.547
12.7057	0.579
12.7431	0.37
12.7805	0.357
12.8178	0.456
12.8552	0.518
12.8926	0.551
12.9299	0.562
12.9673	0.51
13.0047	0.342
13.042	0.238
13.0794	0.251
13.1168	0.32
13.1541	0.35
13.1915	0.281
13.2289	0.142
13.2662	0.091
13.3036	0.133
13.341	0.263
13.3783	0.431
13.4157	0.535
13.4531	0.599
13.4904	0.604
13.5278	0.543
13.5652	0.4
13.6025	0.251
13.6399	0.16
13.6773	0.113
13.7146	0.106
13.752	0.122
13.7894	0.166
13.8267	0.252
13.8641	0.335
13.9015	0.412
13.9388	0.477
13.9762	0.514
14.0136	0.563
14.0509	0.598
14.0883	0.635
14.1257	0.659
14.163	0.673
14.2004	0.682
14.2378	0.681
14.2751	0.675
14.3125	0.697
14.3499	0.723
14.3872	0.733
14.4246	0.723
14.462	0.671
14.4993	0.601
14.5367	0.569
14.5741	0.577
14.6114	0.621
14.6488	0.656
14.6862	0.682
14.7235	0.693
14.7609	0.704
14.7983	0.72
14.8356	0.729
14.873	0.744
14.9104	0.745
14.9477	0.74
14.9851	0.734
15.0225	0.686
15.0598	0.626
15.0972	0.587
15.1345	0.574
15.1719	0.525
15.2093	0.463
15.2466	0.463
15.284	0.481
15.3214	0.519
15.3587	0.546
15.3961	0.525
15.4335	0.43
15.4708	0.328
15.5082	0.277
15.5456	0.26
15.5829	0.273
15.6203	0.277
15.6577	0.282
15.695	0.298
15.7324	0.328
15.7698	0.342
15.8071	0.348
15.8445	0.361
15.8819	0.365
15.9192	0.368
15.9566	0.365
15.994	0.357
