Infrared Spectrum: Pyrrole-2-carboxylic acid
Formula: C5 H5 N O2
CAS: 634-97-9
State: gas
Origin: EPA-IR VAPOR PHASE LIBRARY
1/CM	ABSORBANCE
549.8	0.009425
559.445	0.008045
569.09	0.005815
578.734	0.003715
588.379	0.002085
598.024	0.001535
607.669	0.001675
617.313	0.001995
626.958	0.001465
636.603	0.001425
646.248	0.001355
655.893	0.001585
665.537	0.002435
675.182	0.004125
684.827	0.006355
694.472	0.007185
704.116	0.005135
713.761	0.004955
723.406	0.011305
733.051	0.010595
742.695	0.010125
752.34	0.009775
761.985	0.007255
771.63	0.005025
781.275	0.003725
790.919	0.001965
800.564	0.001315
810.209	0.001225
819.854	0.001275
829.498	0.001275
839.143	0.0009064
848.788	0.0009158
858.433	0.0010049
868.078	0.001183
877.722	0.001295
887.367	0.001205
897.012	0.0010047
906.657	0.0008655
916.301	0.0006973
925.946	0.001385
935.591	0.001995
945.236	0.002485
954.88	0.002155
964.525	0.001205
974.17	0.001305
983.815	0.001755
993.46	0.002015
1003.1	0.002195
1012.75	0.002565
1022.39	0.004925
1032.04	0.005065
1041.68	0.004885
1051.33	0.005175
1060.97	0.005995
1070.62	0.008195
1080.26	0.014865
1089.91	0.021355
1099.55	0.023905
1109.2	0.017975
1118.84	0.012455
1128.49	0.011655
1138.13	0.009735
1147.78	0.008185
1157.42	0.005145
1167.07	0.004205
1176.71	0.004275
1186.36	0.003965
1196	0.004965
1205.64	0.006445
1215.29	0.006955
1224.93	0.006755
1234.58	0.005625
1244.22	0.004945
1253.87	0.004925
1263.51	0.006085
1273.16	0.006225
1282.8	0.006965
1292.45	0.006975
1302.09	0.005685
1311.74	0.004155
1321.38	0.003755
1331.03	0.004095
1340.67	0.004635
1350.32	0.004515
1359.96	0.004505
1369.61	0.003945
1379.25	0.003395
1388.9	0.002925
1398.54	0.003585
1408.18	0.007445
1417.83	0.013345
1427.47	0.014175
1437.12	0.011395
1446.76	0.006585
1456.41	0.005375
1466.05	0.003235
1475.7	0.001605
1485.34	0.0008658
1494.99	0.0005829
1504.63	0.0005024
1514.28	0.0005377
1523.92	0.0008442
1533.57	0.001295
1543.21	0.002825
1552.86	0.004815
1562.5	0.004925
1572.15	0.003625
1581.79	0.001585
1591.44	0.0010712
1601.08	0.0008994
1610.73	0.0009102
1620.37	0.0011209
1630.01	0.001325
1639.66	0.001375
1649.3	0.001595
1658.95	0.001605
1668.59	0.001665
1678.24	0.001795
1687.88	0.002335
1697.53	0.003025
1707.17	0.004215
1716.82	0.007585
1726.46	0.017745
1736.11	0.032805
1745.75	0.034775
1755.4	0.033015
1765.04	0.018375
1774.69	0.014265
1784.33	0.005445
1793.98	0.002155
1803.62	0.001355
1813.27	0.0011019
1822.91	0.0011781
1832.55	0.001255
1842.2	0.001315
1851.84	0.0011334
1861.49	0.0010256
1871.13	0.0008355
1880.78	0.0007453
1890.42	0.0006682
1900.07	0.0007033
1909.71	0.0006556
1919.36	0.0007795
1929	0.0007776
1938.65	0.0006092
1948.29	0.0006137
1957.94	0.0006842
1967.58	0.0006489
1977.23	0.0006627
1986.87	0.0006331
1996.52	0.0005437
2006.16	0.0004928
2015.81	0.0004854
2025.45	0.0004476
2035.1	0.0004801
2044.74	0.0004738
2054.38	0.0004468
2064.03	0.0005093
2073.67	0.0004126
2083.32	0.0004692
2092.96	0.0004688
2102.61	0.0004422
2112.25	0.0005736
2121.9	0.0004884
2131.54	0.0004166
2141.19	0.0004938
2150.83	0.0005625
2160.48	0.000535
2170.12	0.0004559
2179.77	0.000438
2189.41	0.0004461
2199.06	0.0003527
2208.7	0.00027304
2218.35	0.0004131
2227.99	0.0003964
2237.64	0.0004168
2247.28	0.0004542
2256.92	0.0005681
2266.57	0.0008396
2276.21	0.0011591
2285.86	0.001785
2295.5	0.002925
2305.15	0.004745
2314.79	0.006495
2324.44	0.007565
2334.08	0.007105
2343.73	0.006625
2353.37	0.007405
2363.02	0.009965
2372.66	0.008095
2382.31	0.003375
2391.95	0.0007839
2401.6	0.0004737
2411.24	0.0003877
2420.89	0.0004249
2430.53	0.0005378
2440.18	0.0005341
2449.82	0.0005603
2459.47	0.0005838
2469.11	0.0005629
2478.75	0.0004254
2488.4	0.0005643
2498.04	0.0004398
2507.69	0.000475
2517.33	0.0005118
2526.98	0.0005292
2536.62	0.000465
2546.27	0.0005197
2555.91	0.0003546
2565.56	0.0003673
2575.2	0.0004698
2584.85	0.0003054
2594.49	0.0004984
2604.14	0.00026496
2613.78	0.0003084
2623.43	0.0004224
2633.07	0.0004382
2642.72	0.0003266
2652.36	0.0003684
2662.01	0.0003554
2671.65	0.0003564
2681.29	0.0003872
2690.94	0.0002931
2700.58	0.0003473
2710.23	0.0002749
2719.87	0.00022613
2729.52	6e-05
2739.16	0.000184847
2748.81	0.00021376
2758.45	0.00020004
2768.1	0.00026743
2777.74	0.00022228
2787.39	0.00025096
2797.03	0.0001472
2806.68	0.00024128
2816.32	0.00026609
2825.97	0.00025123
2835.61	0.0003203
2845.26	0.00020727
2854.9	0.0003326
2864.55	0.0003845
2874.19	0.0003907
2883.84	0.00023961
2893.48	0.0001726
2903.12	0.0004168
2912.77	0.0001618
2922.41	0.0003184
2932.06	0.0001543
2941.7	0.000191735
2951.35	0.0004624
2960.99	0.0005494
2970.64	0.0003416
2980.28	0.0004396
2989.93	0.0004729
2999.57	0.0004129
3009.22	0.0003871
3018.86	0.0003716
3028.51	0.0003251
3038.15	0.0004184
3047.8	0.0002381
3057.44	0.0004444
3067.09	0.0003799
3076.73	0.0004158
3086.38	0.0004634
3096.02	0.0004658
3105.67	0.0004724
3115.31	0.0007107
3124.95	0.0007998
3134.6	0.0006439
3144.24	0.000663
3153.89	0.0007403
3163.53	0.0003726
3173.18	0.0006561
3182.82	0.0006595
3192.47	0.0004997
3202.11	0.00056
3211.76	0.0004859
3221.4	0.0001343
3231.05	0.000435
3240.69	0.0003834
3250.34	0.000332
3259.98	0.000326
3269.63	0.0003044
3279.27	0.0004571
3288.92	0.000475
3298.56	0.0003861
3308.21	0.0005663
3317.85	0.0006276
3327.49	0.0004666
3337.14	0.0004828
3346.78	0.000364
3356.43	0.0003015
3366.07	0.0004786
3375.72	0.0003849
3385.36	0.0004115
3395.01	0.0004822
3404.65	0.0006516
3414.3	0.0008429
3423.94	0.0004329
3433.59	0.0006222
3443.23	0.0008799
3452.88	0.001255
3462.52	0.002375
3472.17	0.004085
3481.81	0.007095
3491.46	0.007615
3501.1	0.008405
3510.75	0.005855
3520.39	0.003835
3530.04	0.002325
3539.68	0.001495
3549.32	0.0011733
3558.97	0.001315
3568.61	0.002395
3578.26	0.007835
3587.9	0.010595
3597.55	0.009315
3607.19	0.002725
3616.84	0.0010417
3626.48	0.0006749
3636.13	0.0004588
3645.77	0.0006045
3655.42	0.0006794
3665.06	0.000452
3674.71	0.0007455
3684.35	0.0004804
3694	0.0004414
3703.64	0.0007689
3713.29	0.000442
3722.93	0.0006549
3732.58	0.0007098
3742.22	0.0006678
3751.86	0.0005442
3761.51	0.0003997
3771.15	0.0005901
3780.8	0.0004162
3790.44	0.0003554
3800.09	0.0003038
3809.73	0.00026836
3819.38	0.0004866
3829.02	0.0004797
3838.67	0.0003752
3848.31	0.0005293
3857.96	0.0003418
3867.6	0.0004977
3877.25	0.0003803
3886.89	0.0004344
3896.54	0.0003277
3906.18	0.0004446
3915.83	0.000384
3925.47	0.0004912
3935.12	0.0004019
3944.76	0.0004703
3954.41	0.0005406
3964.05	0.00014
3973.69	0.0003346
3983.34	0.0005114
3992.98	0.0006003
