Infrared Spectrum: 3-(4-Bromobenzoyl)propionic acid
Formula: C 10 H 9 Br O 3
CAS: 6340-79-0
State: gas
Origin: EPA-IR VAPOR PHASE LIBRARY
1/CM	ABSORBANCE
549.8	0.01919
559.445	0.01852
569.09	0.01739
578.734	0.01934
588.379	0.02176
598.024	0.02178
607.669	0.01839
617.313	0.01634
626.958	0.01423
636.603	0.01155
646.248	0.00846
655.893	0.0071
665.537	0.00588
675.182	0.00498
684.827	0.005
694.472	0.00479
704.116	0.00401
713.761	0.00358
723.406	0.00413
733.051	0.00468
742.695	0.005
752.34	0.00622
761.985	0.00725
771.63	0.00725
781.275	0.01036
790.919	0.01416
800.564	0.0164
810.209	0.01322
819.854	0.0106
829.498	0.01231
839.143	0.01074
848.788	0.00519
858.433	0.00337
868.078	0.00271
877.722	0.00262
887.367	0.00297
897.012	0.00398
906.657	0.00452
916.301	0.00477
925.946	0.00537
935.591	0.0077
945.236	0.01129
954.88	0.01465
964.525	0.01811
974.17	0.02351
983.815	0.02389
993.46	0.01428
1003.1	0.01668
1012.75	0.03842
1022.39	0.00906
1032.04	0.00848
1041.68	0.01146
1051.33	0.01876
1060.97	0.02903
1070.62	0.05668
1080.26	0.02902
1089.91	0.01924
1099.55	0.02597
1109.2	0.04259
1118.84	0.08044
1128.49	0.09938
1138.13	0.05566
1147.78	0.03547
1157.42	0.02468
1167.07	0.02077
1176.71	0.02659
1186.36	0.02269
1196	0.02792
1205.64	0.03619
1215.29	0.03032
1224.93	0.0247
1234.58	0.02592
1244.22	0.02606
1253.87	0.02332
1263.51	0.02354
1273.16	0.02403
1282.8	0.0233
1292.45	0.01886
1302.09	0.01504
1311.74	0.01466
1321.38	0.0155
1331.03	0.02011
1340.67	0.02805
1350.32	0.03287
1359.96	0.0248
1369.61	0.01884
1379.25	0.02166
1388.9	0.02793
1398.54	0.02822
1408.18	0.01799
1417.83	0.01475
1427.47	0.0131
1437.12	0.01094
1446.76	0.00843
1456.41	0.00636
1466.05	0.00533
1475.7	0.00752
1485.34	0.01198
1494.99	0.00513
1504.63	0.00283
1514.28	0.00241
1523.92	0.00234
1533.57	0.00257
1543.21	0.0032
1552.86	0.00566
1562.5	0.01139
1572.15	0.018
1581.79	0.04187
1591.44	0.04632
1601.08	0.00935
1610.73	0.00467
1620.37	0.00323
1630.01	0.00327
1639.66	0.00354
1649.3	0.00409
1658.95	0.00505
1668.59	0.00674
1678.24	0.01004
1687.88	0.02279
1697.53	0.05942
1707.17	0.08481
1716.82	0.03798
1726.46	0.01854
1736.11	0.01832
1745.75	0.02481
1755.4	0.03879
1765.04	0.06237
1774.69	0.09069
1784.33	0.08617
1793.98	0.05283
1803.62	0.03137
1813.27	0.01791
1822.91	0.01047
1832.55	0.00621
1842.2	0.00392
1851.84	0.00268
1861.49	0.00209
1871.13	0.00189
1880.78	0.00182
1890.42	0.00199
1900.07	0.00211
1909.71	0.00207
1919.36	0.00173
1929	0.0018
1938.65	0.0015
1948.29	0.00144
1957.94	0.0011231
1967.58	0.0009158
1977.23	0.0009662
1986.87	0.000891
1996.52	0.0008291
2006.16	0.000864
2015.81	0.0007444
2025.45	0.0007887
2035.1	0.000782
2044.74	0.0006868
2054.38	0.0004744
2064.03	0.0005369
2073.67	0.0004637
2083.32	0.0005006
2092.96	0.0005204
2102.61	0.0005757
2112.25	0.0006046
2121.9	0.000651
2131.54	0.0005485
2141.19	0.0005405
2150.83	0.0006354
2160.48	0.00072
2170.12	0.0007127
2179.77	0.0007608
2189.41	0.0006935
2199.06	0.0007143
2208.7	0.0006425
2218.35	0.0005834
2227.99	0.0009001
2237.64	0.0008644
2247.28	0.0009944
2256.92	0.0008709
2266.57	0.0008618
2276.21	0.0006778
2285.86	0.0010353
2295.5	0.0009342
2305.15	0.0007685
2314.79	0.0006978
2324.44	0.0008933
2334.08	0.0009384
2343.73	0.0007906
2353.37	0.0007133
2363.02	0.000898
2372.66	0.0009265
2382.31	0.0009166
2391.95	0.0007632
2401.6	0.0008463
2411.24	0.0008707
2420.89	0.000823
2430.53	0.0007323
2440.18	0.0007372
2449.82	0.0006486
2459.47	0.0005592
2469.11	0.0007161
2478.75	0.0006691
2488.4	0.0006659
2498.04	0.0007059
2507.69	0.0007043
2517.33	0.0009378
2526.98	0.0008215
2536.62	0.0011776
2546.27	0.001064
2555.91	0.0009882
2565.56	0.0008478
2575.2	0.0007292
2584.85	0.0007922
2594.49	0.0006458
2604.14	0.0006893
2613.78	0.0004963
2623.43	0.0006712
2633.07	0.0005368
2642.72	0.0005308
2652.36	0.0005518
2662.01	0.0007291
2671.65	0.000486
2681.29	0.000501
2690.94	0.0005685
2700.58	0.0007107
2710.23	0.0003506
2719.87	0.0004909
2729.52	0.0006667
2739.16	0.0003895
2748.81	0.0006847
2758.45	0.0007094
2768.1	0.0006419
2777.74	0.000692
2787.39	0.0007787
2797.03	0.0006279
2806.68	0.0008931
2816.32	0.0009173
2825.97	0.0009355
2835.61	0.0009794
2845.26	0.0008817
2854.9	0.0012
2864.55	0.00145
2874.19	0.0011994
2883.84	0.0015
2893.48	0.00177
2903.12	0.00252
2912.77	0.0046
2922.41	0.00792
2932.06	0.00811
2941.7	0.0075
2951.35	0.00644
2960.99	0.0043
2970.64	0.00347
2980.28	0.00306
2989.93	0.003
2999.57	0.0028
3009.22	0.00223
3018.86	0.00138
3028.51	0.00157
3038.15	0.00184
3047.8	0.00142
3057.44	0.002
3067.09	0.00244
3076.73	0.00218
3086.38	0.00331
3096.02	0.00311
3105.67	0.00143
3115.31	0.0008715
3124.95	0.0007288
3134.6	0.0008611
3144.24	0.0006021
3153.89	0.0006224
3163.53	0.0003964
3173.18	0.00038
3182.82	0.0004299
3192.47	0.0004341
3202.11	0.0004813
3211.76	0.0003395
3221.4	0.00021493
3231.05	0.00026883
3240.69	0.0003224
3250.34	0.00027743
3259.98	0.0006455
3269.63	0.0006078
3279.27	0.0004279
3288.92	0.0003679
3298.56	0.0004125
3308.21	0.0005223
3317.85	0.0006404
3327.49	0.000407
3337.14	0.0008195
3346.78	0.0006764
3356.43	0.0004611
3366.07	0.000924
3375.72	0.00123
3385.36	0.00169
3395.01	0.00187
3404.65	0.0011064
3414.3	0.0010758
3423.94	0.0010848
3433.59	0.0005719
3443.23	0.0006915
3452.88	0.0007193
3462.52	0.0006692
3472.17	0.0006457
3481.81	0.0007938
3491.46	0.0009511
3501.1	0.0009238
3510.75	0.0010662
3520.39	0.0014
3530.04	0.00144
3539.68	0.00176
3549.32	0.00326
3558.97	0.00816
3568.61	0.0238
3578.26	0.04541
3587.9	0.01433
3597.55	0.0051
3607.19	0.00241
3616.84	0.00154
3626.48	0.00122
3636.13	0.0007459
3645.77	0.0011395
3655.42	0.0007107
3665.06	0.0009573
3674.71	0.0010714
3684.35	0.0003686
3694	0.0006269
3703.64	0.0003549
3713.29	0.0008745
3722.93	0.0004299
3732.58	0.0006741
3742.22	0.000303
3751.86	0.0007188
3761.51	0.0006582
3771.15	0.0004293
3780.8	0.0003663
3790.44	0.0005663
3800.09	0.0005059
3809.73	0.0005765
3819.38	0.0001624
3829.02	0.00029604
3838.67	0.0005618
3848.31	0.0005238
3857.96	0.0005022
3867.6	0.0007382
3877.25	0.0005297
3886.89	0.0003386
3896.54	0.00025168
3906.18	0.0005295
3915.83	0.0005903
3925.47	0.0003362
3935.12	0.0004955
3944.76	0.0005519
3954.41	0.0004439
3964.05	0.0005775
3973.69	0.0001633
3983.34	0.00019137
3992.98	0.0004421
