Infrared Spectrum: 1,2-Cyclohexanedicarboximide, N-fluoren-2-yl-
Formula: C21 H19 N O2
CAS: 6341-14-6
State: SOLID (SPLIT MULL), FLUOROLUBE FOR 3800-1330 CM^-^1, NUJOL FOR 1330-470 CM^-^1
Class: COBLENTZ III
Instrument: DOW KBr FOREPRISM-GRATING
Instrument parameters: BLAZED AT 3.5, 12.0, 20.0 MICRON AND CHANGED AT 5.0, 7.5, 14.9 MICRON
Sampling: TRANSMISSION
Resolution: 2
Origin: DOW CHEMICAL COMPANY
1/CM	TRANSMITTANCE
3800	0.5966
3791	0.5971
3782	0.5977
3773	0.5981
3764	0.5999
3755	0.6032
3746	0.6082
3737	0.6129
3728	0.6143
3719	0.6151
3710	0.6155
3701	0.6156
3692	0.616
3683	0.6174
3674	0.6221
3665	0.6225
3656	0.6212
3647	0.6234
3638	0.626
3629	0.6275
3620	0.6284
3611	0.6288
3602	0.6287
3593	0.6279
3584	0.6262
3575	0.6256
3566	0.6279
3557	0.6296
3548	0.6308
3539	0.6318
3530	0.6326
3521	0.6334
3512	0.6346
3503	0.6357
3494	0.636
3485	0.6343
3476	0.6307
3467	0.6282
3458	0.6295
3449	0.6314
3440	0.6334
3431	0.6354
3422	0.6375
3413	0.6396
3404	0.6418
3395	0.6438
3386	0.6458
3377	0.6478
3368	0.6498
3359	0.6517
3350	0.6531
3341	0.6544
3332	0.6558
3323	0.6571
3314	0.6586
3305	0.6599
3296	0.6611
3287	0.6622
3278	0.6634
3269	0.6645
3260	0.6656
3251	0.6667
3242	0.6684
3233	0.6699
3224	0.6715
3215	0.6728
3206	0.6737
3197	0.6746
3188	0.6756
3179	0.6765
3170	0.6778
3161	0.6795
3152	0.6811
3143	0.6828
3134	0.6847
3125	0.6856
3116	0.6864
3107	0.6874
3098	0.6884
3089	0.6868
3080	0.6871
3071	0.6862
3062	0.6841
3053	0.6875
3044	0.6914
3035	0.6953
3026	0.6993
3017	0.7034
3008	0.7075
2999	0.711
2990	0.7135
2981	0.7146
2972	0.7121
2963	0.6335
2954	0.5267
2945	0.5338
2936	0.5515
2927	0.5544
2918	0.6149
2909	0.6431
2900	0.6472
2891	0.6656
2882	0.6778
2873	0.6701
2864	0.6212
2855	0.6265
2846	0.6645
2837	0.6861
2828	0.6975
2819	0.7057
2810	0.7115
2801	0.7148
2792	0.7181
2783	0.7211
2774	0.7234
2765	0.7255
2756	0.7276
2747	0.7295
2738	0.7311
2729	0.7328
2720	0.7343
2711	0.7357
2702	0.7371
2693	0.7386
2684	0.7401
2675	0.7415
2666	0.743
2657	0.7444
2648	0.746
2639	0.7476
2630	0.7494
2621	0.7511
2612	0.7528
2603	0.7544
2594	0.7558
2585	0.7571
2576	0.7584
2567	0.7597
2558	0.761
2549	0.7619
2540	0.7626
2531	0.7633
2522	0.764
2513	0.7644
2504	0.7649
2495	0.7653
2486	0.7655
2477	0.7657
2468	0.766
2459	0.7661
2450	0.7664
2441	0.7656
2432	0.7648
2423	0.764
2414	0.7632
2405	0.7625
2396	0.7621
2387	0.7615
2378	0.761
2369	0.7604
2360	0.76
2351	0.7595
2342	0.7592
2333	0.7588
2324	0.7585
2315	0.7585
2306	0.7587
2297	0.7588
2288	0.759
2279	0.76
2270	0.7617
2261	0.7634
2252	0.7653
2243	0.7676
2234	0.7701
2225	0.7725
2216	0.7751
2207	0.7775
2198	0.78
2189	0.7825
2180	0.785
2171	0.7874
2162	0.7897
2153	0.7915
2144	0.7936
2135	0.7955
2126	0.7975
2117	0.7995
2108	0.8015
2099	0.8035
2090	0.8054
2081	0.8071
2072	0.8087
2063	0.8104
2054	0.8121
2045	0.8136
2036	0.8151
2027	0.8165
2018	0.8178
2009	0.8187
2000	0.8188
1991	0.8195
1982	0.821
1973	0.8223
1964	0.8325
1955	0.8227
1946	0.8254
1937	0.8236
1928	0.824
1919	0.823
1910	0.8259
1901	0.8281
1892	0.8296
1883	0.8301
1874	0.8308
1865	0.8321
1856	0.8328
1847	0.8321
1838	0.8309
1829	0.8289
1820	0.8293
1811	0.8301
1802	0.8289
1793	0.8209
1784	0.7956
1775	0.8065
1766	0.8125
1757	0.8132
1748	0.8033
1739	0.7425
1730	0.5957
1721	0.1844
1712	0.0939
1703	0.4526
1694	0.5586
1685	0.6358
1676	0.6999
1667	0.7403
1658	0.7568
1649	0.7728
1640	0.7851
1631	0.7934
1622	0.7934
1613	0.7937
1604	0.8034
1595	0.8096
1586	0.7971
1577	0.8035
1568	0.8124
1559	0.8194
1550	0.8238
1541	0.8271
1532	0.8288
1523	0.8268
1514	0.8293
1505	0.8318
1496	0.7565
1487	0.7275
1478	0.7862
1469	0.7633
1460	0.5498
1451	0.7181
1442	0.7911
1433	0.6722
1424	0.7185
1415	0.7856
1406	0.7751
1397	0.6767
1388	0.51
1379	0.4192
1370	0.6206
1361	0.6237
1352	0.6874
1343	0.6608
1334	0.6377
1325	0.69
1316	0.7368
1307	0.7106
1298	0.6931
1289	0.7518
1280	0.7678
1271	0.7803
1262	0.7956
1253	0.8097
1244	0.768
1235	0.7567
1226	0.8108
1217	0.8188
1208	0.7961
1199	0.741
1190	0.5957
1181	0.6525
1172	0.3598
1163	0.6306
1154	0.7255
1145	0.5979
1136	0.7284
1127	0.7535
1118	0.7697
1109	0.7496
1100	0.7701
1091	0.7918
1082	0.7251
1073	0.8151
1064	0.8278
1055	0.8136
1046	0.8377
1037	0.8438
1028	0.8238
1019	0.8525
1010	0.8184
1001	0.8434
992	0.8577
983	0.85
974	0.8333
965	0.7703
956	0.8185
947	0.8483
938	0.8561
929	0.8552
920	0.8485
911	0.8659
902	0.8578
893	0.7061
884	0.8015
875	0.8602
866	0.8645
857	0.8689
848	0.7456
839	0.8417
830	0.6803
821	0.8603
812	0.7621
803	0.855
794	0.8435
785	0.8621
776	0.5423
767	0.7582
758	0.6774
749	0.798
740	0.525
731	0.7221
722	0.77
713	0.8096
704	0.829
695	0.8335
686	0.8323
677	0.8562
668	0.8474
659	0.87
650	0.8709
641	0.8093
632	0.8588
623	0.7472
614	0.8418
605	0.843
596	0.8033
587	0.818
578	0.7392
569	0.8194
560	0.831
551	0.7971
542	0.8121
533	0.8232
524	0.8315
515	0.8361
506	0.8389
497	0.837
488	0.8291
479	0.8323
470	0.8375
