Infrared Spectrum: 3-(2-Methoxyphenyl)propionic acid
Formula: C 10 H 12 O 3
CAS: 6342-77-4
State: gas
Origin: EPA-IR VAPOR PHASE LIBRARY
1/CM	ABSORBANCE
549.9	0.04802
559.547	0.04835
569.193	0.05232
578.84	0.05306
588.486	0.04835
598.133	0.04095
607.779	0.03949
617.426	0.04114
627.072	0.03933
636.719	0.03488
646.365	0.02742
656.012	0.02103
665.658	0.01777
675.305	0.01619
684.951	0.01505
694.598	0.01381
704.245	0.01317
713.891	0.0149
723.538	0.02386
733.184	0.04639
742.831	0.08178
752.477	0.09488
762.124	0.05202
771.77	0.02359
781.417	0.01656
791.063	0.01398
800.71	0.01193
810.356	0.01175
820.003	0.01188
829.649	0.01013
839.296	0.00787
848.943	0.00659
858.589	0.0061189
868.236	0.0061999
877.882	0.00661
887.529	0.00735
897.175	0.00834
906.822	0.00881
916.468	0.00975
926.115	0.0116
935.761	0.01284
945.408	0.01465
955.054	0.01508
964.701	0.01496
974.347	0.01551
983.994	0.01764
993.64	0.02128
1003.29	0.02612
1012.93	0.03619
1022.58	0.05407
1032.23	0.07128
1041.87	0.07491
1051.52	0.06644
1061.17	0.04755
1070.81	0.04085
1080.46	0.05857
1090.11	0.10243
1099.75	0.16027
1109.4	0.1983
1119.05	0.20244
1128.69	0.16427
1138.34	0.10763
1147.99	0.07692
1157.63	0.06558
1167.28	0.06346
1176.92	0.06909
1186.57	0.072
1196.22	0.06992
1205.86	0.06364
1215.51	0.06339
1225.16	0.08996
1234.8	0.16452
1244.45	0.2134
1254.1	0.1483
1263.74	0.07989
1273.39	0.06281
1283.04	0.06055
1292.68	0.05262
1302.33	0.04159
1311.98	0.03753
1321.62	0.03602
1331.27	0.03413
1340.92	0.0332
1350.56	0.03435
1360.21	0.03815
1369.86	0.04378
1379.5	0.04592
1389.15	0.03615
1398.79	0.02492
1408.44	0.02143
1418.09	0.02364
1427.73	0.03275
1437.38	0.04886
1447.03	0.05557
1456.67	0.05739
1466.32	0.0637
1475.97	0.06642
1485.61	0.09967
1495.26	0.11945
1504.91	0.06469
1514.55	0.02392
1524.2	0.01388
1533.85	0.01041
1543.49	0.00896
1553.14	0.00926
1562.79	0.01209
1572.43	0.01961
1582.08	0.03125
1591.73	0.03899
1601.37	0.03555
1611.02	0.02207
1620.67	0.01095
1630.31	0.00766
1639.96	0.00653
1649.6	0.00632
1659.25	0.00662
1668.9	0.00741
1678.54	0.00824
1688.19	0.00912
1697.84	0.01076
1707.48	0.01391
1717.13	0.01959
1726.78	0.02964
1736.42	0.04715
1746.07	0.07364
1755.72	0.11433
1765.36	0.19343
1775.01	0.26754
1784.66	0.21223
1794.3	0.1282
1803.95	0.07888
1813.6	0.04588
1823.24	0.02592
1832.89	0.0163
1842.54	0.01179
1852.18	0.00935
1861.83	0.00798
1871.47	0.00759
1881.12	0.0082
1890.77	0.00835
1900.41	0.00714
1910.06	0.00653
1919.71	0.00726
1929.35	0.00718
1939	0.0056029
1948.65	0.004832
1958.29	0.004715
1967.94	0.004861
1977.59	0.005066
1987.23	0.0052378
1996.88	0.00531677
2006.53	0.0052438
2016.17	0.005186
2025.82	0.00533462
2035.47	0.0055957
2045.11	0.0059192
2054.76	0.0061297
2064.41	0.0061117
2074.05	0.0056324
2083.7	0.004932
2093.35	0.004328
2102.99	0.00395
2112.64	0.00381
2122.28	0.00374
2131.93	0.00384
2141.58	0.00394
2151.22	0.00396
2160.87	0.00389
2170.52	0.0038
2180.16	0.00382
2189.81	0.00387
2199.46	0.00403
2209.1	0.00425
2218.75	0.004382
2228.4	0.004477
2238.04	0.004365
2247.69	0.00418
2257.34	0.00409
2266.98	0.00399
2276.63	0.00395
2286.28	0.00383
2295.92	0.00369
2305.57	0.00366
2315.22	0.00381
2324.86	0.00389
2334.51	0.00373
2344.16	0.00353
2353.8	0.00348
2363.45	0.00341
2373.09	0.00334
2382.74	0.00336
2392.39	0.00341
2402.03	0.00356
2411.68	0.00364
2421.33	0.00358
2430.97	0.00357
2440.62	0.00357
2450.27	0.00363
2459.91	0.00372
2469.56	0.00402
2479.21	0.00423
2488.85	0.00408
2498.5	0.00378
2508.15	0.00357
2517.79	0.00361
2527.44	0.00381
2537.09	0.00374
2546.73	0.00348
2556.38	0.00339
2566.03	0.00331
2575.67	0.00325
2585.32	0.00322
2594.96	0.00326
2604.61	0.00324
2614.26	0.00313
2623.9	0.00314
2633.55	0.00301
2643.2	0.00287
2652.84	0.00278
2662.49	0.00266
2672.14	0.00269
2681.78	0.00267
2691.43	0.00271
2701.08	0.00273
2710.72	0.00263
2720.37	0.00262
2730.02	0.00257
2739.66	0.00267
2749.31	0.00265
2758.96	0.00282
2768.6	0.0031
2778.25	0.00346
2787.9	0.00391
2797.54	0.004652
2807.19	0.0056981
2816.84	0.00752
2826.48	0.01174
2836.13	0.02325
2845.77	0.03196
2855.42	0.02364
2865.07	0.01697
2874.71	0.01667
2884.36	0.01762
2894.01	0.01997
2903.65	0.02423
2913.3	0.03174
2922.95	0.03968
2932.59	0.05074
2942.24	0.06687
2951.89	0.06885
2961.53	0.05339
2971.18	0.03737
2980.83	0.02939
2990.47	0.02959
3000.12	0.03664
3009.77	0.0353
3019.41	0.02842
3029.06	0.03151
3038.71	0.02801
3048.35	0.02279
3058	0.02514
3067.64	0.03145
3077.29	0.03508
3086.94	0.02516
3096.58	0.01288
3106.23	0.00908
3115.88	0.00639
3125.52	0.00348
3135.17	0.00225
3144.82	0.00181
3154.46	0.00165
3164.11	0.00148
3173.76	0.00121
3183.4	0.00085
3193.05	0.00071
3202.7	0.00057
3212.34	0.00038
3221.99	0.00034
3231.64	0.00021
3241.28	0.00019
3250.93	0.00026
3260.58	0.00027
3270.22	0.00029
3279.87	0.00018
3289.52	0.00016
3299.16	0.00038
3308.81	0.00028
3318.45	0.00042
3328.1	0.00034
3337.75	0.00041
3347.39	0.00047
3357.04	0.00047
3366.69	0.0006
3376.33	0.00062
3385.98	0.00071
3395.63	0.00083
3405.27	0.00071
3414.92	0.00087
3424.57	0.00114
3434.21	0.00121
3443.86	0.00127
3453.51	0.00144
3463.15	0.00164
3472.8	0.00175
3482.45	0.00209
3492.09	0.00249
3501.74	0.00303
3511.39	0.00384
3521.03	0.004708
3530.68	0.0056833
3540.33	0.00717
3549.97	0.00999
3559.62	0.02087
3569.26	0.0885
3578.91	0.09938
3588.56	0.02398
3598.2	0.00942
3607.85	0.0060122
3617.5	0.00471
3627.14	0.00395
3636.79	0.00349
3646.44	0.00342
3656.08	0.00307
3665.73	0.00254
3675.38	0.00227
3685.02	0.00221
3694.67	0.00226
3704.32	0.00213
3713.96	0.00223
3723.61	0.00225
3733.26	0.00221
3742.9	0.00229
3752.55	0.00218
3762.2	0.00227
3771.84	0.00228
3781.49	0.00224
3791.13	0.00238
3800.78	0.00232
3810.43	0.00233
3820.07	0.00247
3829.72	0.00256
3839.37	0.00257
3849.01	0.00264
3858.66	0.0027
3868.31	0.0028
3877.95	0.0029
3887.6	0.00298
3897.25	0.00296
3906.89	0.0028
3916.54	0.00266
3926.19	0.00259
3935.83	0.00262
3945.48	0.00274
3955.13	0.00272
3964.77	0.00289
3974.42	0.00294
3984.07	0.00295
3993.71	0.00283
