Infrared Spectrum: 5-Chloro-2-methoxyphenyl isocyanate
Formula: C 8 H 6 Cl N O 2
CAS: 63429-99-2
State: gas
Origin: EPA-IR VAPOR PHASE LIBRARY
1/CM	ABSORBANCE
549.8	0.007192
559.445	0.007882
569.09	0.012052
578.734	0.014302
588.379	0.011922
598.024	0.010422
607.669	0.006712
617.313	0.007422
626.958	0.007452
636.603	0.011682
646.248	0.030402
655.893	0.024792
665.537	0.012902
675.182	0.011222
684.827	0.011632
694.472	0.017282
704.116	0.028902
713.761	0.027582
723.406	0.012072
733.051	0.006392
742.695	0.004832
752.34	0.004202
761.985	0.003792
771.63	0.003632
781.275	0.005282
790.919	0.013802
800.564	0.040642
810.209	0.046222
819.854	0.018312
829.498	0.007222
839.143	0.003822
848.788	0.003092
858.433	0.007152
868.078	0.018382
877.722	0.014062
887.367	0.004832
897.012	0.003552
906.657	0.004302
916.301	0.004892
925.946	0.004312
935.591	0.004102
945.236	0.005612
954.88	0.010482
964.525	0.020522
974.17	0.021192
983.815	0.012562
993.46	0.010062
1003.1	0.014442
1012.75	0.024292
1022.39	0.030962
1032.04	0.030532
1041.68	0.020502
1051.33	0.008522
1060.97	0.004942
1070.62	0.004082
1080.26	0.006492
1089.91	0.011912
1099.55	0.007482
1109.2	0.007102
1118.84	0.017192
1128.49	0.027862
1138.13	0.020372
1147.78	0.009752
1157.42	0.006702
1167.07	0.007702
1176.71	0.012092
1186.36	0.012892
1196	0.011562
1205.64	0.018752
1215.29	0.039902
1224.93	0.066112
1234.58	0.046502
1244.22	0.023452
1253.87	0.030112
1263.51	0.045952
1273.16	0.056342
1282.8	0.053132
1292.45	0.042622
1302.09	0.026562
1311.74	0.010812
1321.38	0.005672
1331.03	0.004102
1340.67	0.003262
1350.32	0.003282
1359.96	0.003642
1369.61	0.003952
1379.25	0.004642
1388.9	0.007402
1398.54	0.013372
1408.18	0.015012
1417.83	0.009842
1427.47	0.010482
1437.12	0.022902
1446.76	0.027522
1456.41	0.021592
1466.05	0.028422
1475.7	0.040532
1485.34	0.102142
1494.99	0.146662
1504.63	0.070532
1514.28	0.025742
1523.92	0.013242
1533.57	0.008892
1543.21	0.007102
1552.86	0.007082
1562.5	0.009832
1572.15	0.018322
1581.79	0.038182
1591.44	0.049762
1601.08	0.023722
1610.73	0.009612
1620.37	0.006172
1630.01	0.004332
1639.66	0.003382
1649.3	0.003062
1658.95	0.002602
1668.59	0.002372
1678.24	0.002232
1687.88	0.002252
1697.53	0.002112
1707.17	0.002292
1716.82	0.002812
1726.46	0.003582
1736.11	0.004302
1745.75	0.003792
1755.4	0.002732
1765.04	0.002512
1774.69	0.002892
1784.33	0.003012
1793.98	0.002982
1803.62	0.003212
1813.27	0.003392
1822.91	0.003852
1832.55	0.004612
1842.2	0.005512
1851.84	0.005402
1861.49	0.005462
1871.13	0.005822
1880.78	0.006572
1890.42	0.008022
1900.07	0.010382
1909.71	0.014452
1919.36	0.021522
1929	0.031202
1938.65	0.040462
1948.29	0.047232
1957.94	0.057422
1967.58	0.078752
1977.23	0.108892
1986.87	0.136912
1996.52	0.165662
2006.16	0.214922
2015.81	0.314392
2025.45	0.428432
2035.1	0.393782
2044.74	0.291422
2054.38	0.222802
2064.03	0.180872
2073.67	0.169642
2083.32	0.200082
2092.96	0.239362
2102.61	0.233282
2112.25	0.177462
2121.9	0.117472
2131.54	0.085612
2141.19	0.070002
2150.83	0.057182
2160.48	0.043662
2170.12	0.031892
2179.77	0.025682
2189.41	0.023342
2199.06	0.021012
2208.7	0.015722
2218.35	0.011812
2227.99	0.010652
2237.64	0.009912
2247.28	0.007732
2256.92	0.005582
2266.57	0.004242
2276.21	0.003772
2285.86	0.003552
2295.5	0.003342
2305.15	0.003292
2314.79	0.002892
2324.44	0.002502
2334.08	0.002222
2343.73	0.002272
2353.37	0.002362
2363.02	0.002262
2372.66	0.002402
2382.31	0.002652
2391.95	0.003002
2401.6	0.003302
2411.24	0.003062
2420.89	0.002702
2430.53	0.002702
2440.18	0.002932
2449.82	0.003242
2459.47	0.003412
2469.11	0.003572
2478.75	0.003952
2488.4	0.004472
2498.04	0.004772
2507.69	0.004902
2517.33	0.005152
2526.98	0.005312
2536.62	0.005512
2546.27	0.005402
2555.91	0.004922
2565.56	0.004702
2575.2	0.004402
2584.85	0.004032
2594.49	0.003602
2604.14	0.003242
2613.78	0.002952
2623.43	0.003132
2633.07	0.002672
2642.72	0.002252
2652.36	0.002032
2662.01	0.002002
2671.65	0.002082
2681.29	0.002162
2690.94	0.002202
2700.58	0.002122
2710.23	0.002322
2719.87	0.002702
2729.52	0.003292
2739.16	0.003602
2748.81	0.003412
2758.45	0.002982
2768.1	0.002842
2777.74	0.002882
2787.39	0.003162
2797.03	0.003572
2806.68	0.003942
2816.32	0.004612
2825.97	0.005932
2835.61	0.008682
2845.26	0.012552
2854.9	0.011862
2864.55	0.008032
2874.19	0.005502
2883.84	0.005342
2893.48	0.006492
2903.12	0.008182
2912.77	0.009852
2922.41	0.010272
2932.06	0.011242
2941.7	0.018212
2951.35	0.022382
2960.99	0.017992
2970.64	0.014092
2980.28	0.009782
2989.93	0.007622
2999.57	0.007942
3009.22	0.010872
3018.86	0.011872
3028.51	0.006692
3038.15	0.004162
3047.8	0.003322
3057.44	0.003332
3067.09	0.003532
3076.73	0.004232
3086.38	0.004022
3096.02	0.002622
3105.67	0.002062
3115.31	0.001522
3124.95	0.0011022
3134.6	0.0008869
3144.24	0.0006805
3153.89	0.000727
3163.53	0.0006771
3173.18	0.0005872
3182.82	0.00047627
3192.47	0.000453584
3202.11	0.00035
3211.76	0.000217
3221.4	0.000348
3231.05	0.0003557
3240.69	0.000143
3250.34	0.000236
3259.98	0.000185
3269.63	0.00028
3279.27	0.000145
3288.92	0.0003781
3298.56	0.000142
3308.21	0.000264
3317.85	0.0003595
3327.49	0.000303
3337.14	0.000266
3346.78	8.1e-05
3356.43	0.000261
3366.07	0.000206
3375.72	0.000234
3385.36	0.000171
3395.01	0.00044681
3404.65	0.000291
3414.3	0.0003828
3423.94	0.000284
3433.59	0.000179
3443.23	0.000218
3452.88	0.000267
3462.52	0.000352
3472.17	0.0003714
3481.81	0.0003869
3491.46	0.0003961
3501.1	0.0004114
3510.75	0.0004352
3520.39	0.000455274
3530.04	0.000349
3539.68	0.000233
3549.32	0.000326
3558.97	0.000242
3568.61	0.00022
3578.26	0.000229
3587.9	0.000378
3597.55	0.00047712
3607.19	0.000347
3616.84	0.000382
3626.48	0.0004228
3636.13	0.000456618
3645.77	0.000455891
3655.42	0.00050719
3665.06	0.0003815
3674.71	0.00046214
3684.35	0.00050303
3694	0.0004457
3703.64	0.000563
3713.29	0.0005659
3722.93	0.0005411
3732.58	0.000303
3742.22	0.0006013
3751.86	0.0006435
3761.51	0.000668
3771.15	0.00053789
3780.8	0.0006553
3790.44	0.0006089
3800.09	0.0006685
3809.73	0.0006081
3819.38	0.00052107
3829.02	0.0006258
3838.67	0.0006516
3848.31	0.000707
3857.96	0.0008602
3867.6	0.0009766
3877.25	0.0009772
3886.89	0.0010365
3896.54	0.0012079
3906.18	0.0009441
3915.83	0.0010081
3925.47	0.0012001
3935.12	0.0011996
3944.76	0.0013165
3954.41	0.001492
3964.05	0.001622
3973.69	0.001932
3983.34	0.001952
3992.98	0.001922
