Infrared Spectrum: 3-Diethylamino-2,2-dimethylpropionaldehyde
Formula: C 9 H 19 N O
CAS: 6343-47-1
State: gas
Origin: EPA-IR VAPOR PHASE LIBRARY
1/CM	ABSORBANCE
501.5	0.000935
513.074	0.0007251
524.648	0.0008688
536.222	0.0009389
547.796	0.0005295
559.37	0.0004399
570.944	0.0003819
582.518	0.000571
594.092	0.0006723
605.666	0.0008289
617.24	0.0008935
628.814	0.0006991
640.388	0.0005772
651.962	0.0003354
663.536	0.0001815
675.11	0.0002092
686.684	0.000192
698.258	0.0002758
709.832	0.0003502
721.406	0.0005168
732.98	0.0008779
744.554	0.0017661
756.128	0.0036361
767.702	0.0059261
779.276	0.0054461
790.85	0.0035061
802.423	0.0028761
813.997	0.0026761
825.571	0.0022961
837.145	0.0029461
848.719	0.0054961
860.293	0.0092861
871.867	0.0102361
883.441	0.0081761
895.015	0.0070061
906.589	0.0060561
918.163	0.0042061
929.737	0.0028861
941.311	0.0023161
952.885	0.0020061
964.459	0.0019561
976.033	0.0025161
987.607	0.0031361
999.181	0.0036861
1010.76	0.0038961
1022.33	0.0043261
1033.9	0.0057461
1045.48	0.0097861
1057.05	0.0159961
1068.63	0.0204461
1080.2	0.0173361
1091.77	0.0128761
1103.35	0.0104661
1114.92	0.0086561
1126.49	0.0072761
1138.07	0.0074661
1149.64	0.0071561
1161.22	0.0062761
1172.79	0.0058661
1184.36	0.0071461
1195.94	0.0127761
1207.51	0.0150461
1219.09	0.0100761
1230.66	0.0084461
1242.23	0.0071561
1253.81	0.0053961
1265.38	0.0047961
1276.96	0.0051361
1288.53	0.0066961
1300.1	0.0081661
1311.68	0.0084661
1323.25	0.0076761
1334.83	0.0083361
1346.4	0.0106161
1357.97	0.0128361
1369.55	0.0184861
1381.12	0.0223361
1392.7	0.0181961
1404.27	0.0107561
1415.84	0.0054661
1427.42	0.0045661
1438.99	0.0062861
1450.57	0.0107061
1462.14	0.0161861
1473.71	0.0159461
1485.29	0.0081961
1496.86	0.0034561
1508.44	0.0021461
1520.01	0.0016761
1531.58	0.0014061
1543.16	0.0012261
1554.73	0.0010661
1566.31	0.0009635
1577.88	0.000884
1589.45	0.0008749
1601.03	0.0008815
1612.6	0.0009455
1624.18	0.0011461
1635.75	0.0014461
1647.32	0.0017461
1658.9	0.0021961
1670.47	0.0029061
1682.05	0.0039161
1693.62	0.0055461
1705.19	0.0084261
1716.77	0.0165961
1728.34	0.0377961
1739.92	0.0504461
1751.49	0.0314261
1763.06	0.0150061
1774.64	0.0085061
1786.21	0.0052261
1797.79	0.0033661
1809.36	0.0022661
1820.93	0.0016661
1832.51	0.0012961
1844.08	0.0010561
1855.66	0.0008571
1867.23	0.000737
1878.8	0.0005869
1890.38	0.0005285
1901.95	0.0004531
1913.53	0.0003879
1925.1	0.0003984
1936.67	0.0003862
1948.25	0.0003753
1959.82	0.0004046
1971.4	0.0004382
1982.97	0.0004013
1994.54	0.0003873
2006.12	0.000372
2017.69	0.0003156
2029.27	0.00029
2040.84	0.0002964
2052.41	0.0003193
2063.99	0.000338
2075.56	0.0003391
2087.14	0.000381
2098.71	0.0003683
2110.28	0.0004114
2121.86	0.0003829
2133.43	0.0003879
2145.01	0.0003691
2156.58	0.0003492
2168.15	0.0003815
2179.73	0.0003533
2191.3	0.0003549
2202.88	0.0002868
2214.45	0.000264
2226.02	0.0002699
2237.6	0.0002794
2249.17	0.0003012
2260.74	0.0002829
2272.32	0.0002855
2283.89	0.0002848
2295.47	0.0002759
2307.04	0.0002807
2318.61	0.0002989
2330.19	0.0002856
2341.76	0.0003224
2353.34	0.0003416
2364.91	0.0003296
2376.48	0.0003439
2388.06	0.0003678
2399.63	0.0004032
2411.21	0.0003674
2422.78	0.0004023
2434.35	0.0003974
2445.93	0.0003719
2457.5	0.0003521
2469.08	0.0003313
2480.65	0.000325
2492.22	0.0003568
2503.8	0.0003873
2515.37	0.0004639
2526.95	0.0005602
2538.52	0.0006426
2550.09	0.0008198
2561.67	0.0010112
2573.24	0.0012461
2584.82	0.0015461
2596.39	0.0018261
2607.96	0.0021661
2619.54	0.0026061
2631.11	0.0032161
2642.69	0.0040261
2654.26	0.0052761
2665.83	0.0077861
2677.41	0.0126561
2688.98	0.0168161
2700.56	0.0160461
2712.13	0.0132061
2723.7	0.0111361
2735.28	0.0105161
2746.85	0.0108361
2758.43	0.0123061
2770	0.0143661
2781.57	0.0177861
2793.15	0.0239661
2804.72	0.0328861
2816.3	0.0363361
2827.87	0.0320061
2839.44	0.0256061
2851.02	0.0204961
2862.59	0.0196261
2874.17	0.0254561
2885.74	0.0287061
2897.31	0.0264361
2908.89	0.0272261
2920.46	0.0318461
2932.04	0.0419261
2943.61	0.0469861
2955.18	0.0458361
2966.76	0.0662861
2978.33	0.0748161
2989.91	0.0428661
3001.48	0.0176961
3013.05	0.0084861
3024.63	0.0053661
3036.2	0.0041661
3047.78	0.0035061
3059.35	0.0029961
3070.92	0.0025461
3082.5	0.0023261
3094.07	0.0022361
3105.65	0.0019461
3117.22	0.0018561
3128.79	0.0016661
3140.37	0.0014561
3151.94	0.0013261
3163.52	0.0011461
3175.09	0.0010661
3186.66	0.0009481
3198.24	0.0008291
3209.81	0.0007415
3221.39	0.0005427
3232.96	0.0004732
3244.53	0.0003956
3256.11	0.0003006
3267.68	0.0003716
3279.26	0.0002798
3290.83	0.0002053
3302.4	0.0002065
3313.98	0.0002347
3325.55	0.0001305
3337.13	0.0001942
3348.7	0.0001543
3360.27	0.0002222
3371.85	0.0002409
3383.42	0.000247
3395	0.0002463
3406.57	0.000257
3418.14	0.0004074
3429.72	0.000549
3441.29	0.0008172
3452.86	0.0010761
3464.44	0.0009542
3476.01	0.0005777
3487.59	0.0004286
3499.16	0.0003366
3510.73	0.0001649
3522.31	0.0001434
3533.88	6.185e-05
3545.46	0.00010843
3557.03	0
3568.6	5.774e-05
3580.18	8.924e-05
3591.75	5.044e-05
3603.33	0.00010447
3614.9	0.00010412
3626.47	0.00012518
3638.05	0.0001429
3649.62	0.0001289
3661.2	0.0002034
3672.77	3.4682e-05
3684.34	5.464e-05
3695.92	9.334e-05
3707.49	8.967e-05
3719.07	1.59e-05
3730.64	9.375e-05
3742.21	0.000146
3753.79	0.00012568
3765.36	4.125e-05
3776.94	9.51e-05
3788.51	3.97e-05
3800.08	8.627e-05
3811.66	8.337e-05
3823.23	0.0001036
3834.81	0.0001316
3846.38	9.035e-05
3857.95	0.0001758
3869.53	0.0002047
3881.1	0.000231
3892.68	0.0001288
3904.25	0.0002136
3915.82	0.0002177
3927.4	0.0002417
3938.97	0.0002472
3950.55	0.0001711
3962.12	0.0001773
3973.69	0.0002455
3985.27	0.0002667
3996.84	0.0002817
