Infrared Spectrum: N-Benzylformamide
Formula: C 8 H 9 N O
CAS: 6343-54-0
State: gas
Instrument: HP-GC/MS/IRD
Origin: NIST Mass Spectrometry Data Center
1/CM	ABSORBANCE
550	0.005706
562	0.0069106
574	0.0098587
586	0.0132189
598	0.0125532
610	0.0086224
622	0.0054841
634	0.0039625
646	0.0029164
658	0.0029798
670	0.0067204
682	0.0168644
694	0.0300516
706	0.0286568
718	0.0227289
730	0.0235848
742	0.025994
754	0.0197491
766	0.0088126
778	0.0031066
790	0.0016167
802	0.0013631
814	0.0015533
826	0.0008242
838	0.0001268
850	0
862	0.0001585
874	0.0003804
886	0.0007925
898	0.0017118
910	0.0027579
922	0.0039625
934	0.0059279
946	0.0071642
958	0.0060864
970	0.0045648
982	0.0033602
994	0.002853
1006	0.0028847
1018	0.005072
1030	0.0068472
1042	0.0027579
1054	0.0025994
1066	0.0042161
1078	0.004755
1090	0.003804
1102	0.0029798
1114	0.0029164
1126	0.0039942
1138	0.0071642
1150	0.0155013
1162	0.0384521
1174	0.0677112
1186	0.0521782
1198	0.0338239
1210	0.0294493
1222	0.0203831
1234	0.0186713
1246	0.0195906
1258	0.0172131
1270	0.0173716
1282	0.0183226
1294	0.0119826
1306	0.0067204
1318	0.0047867
1330	0.0040259
1342	0.0046282
1354	0.0068789
1366	0.0085907
1378	0.0109682
1390	0.010778
1402	0.0093198
1414	0.0099538
1426	0.0156281
1438	0.0291323
1450	0.0463771
1462	0.061498
1474	0.0819762
1486	0.0996331
1498	0.0726881
1510	0.0309709
1522	0.0130287
1534	0.0063083
1546	0.0035187
1558	0.0023775
1570	0.002219
1582	0.0029798
1594	0.0045965
1606	0.0056109
1618	0.0033602
1630	0.0021556
1642	0.0026628
1654	0.0041527
1666	0.0071325
1678	0.0140431
1690	0.0286251
1702	0.0585499
1714	0.136659
1726	0.293035
1738	0.25639
1750	0.0967484
1762	0.0355357
1774	0.014899
1786	0.0083371
1798	0.0058962
1810	0.0035504
1822	0.0021873
1834	0.001902
1846	0.001902
1858	0.0019654
1870	0.0020288
1882	0.0016801
1894	0.0010144
1906	0.0007608
1918	0.0010461
1930	0.0016801
1942	0.0022824
1954	0.0023775
1966	0.0012997
1978	0.0003804
1990	0.0001902
2002	9.51e-05
2014	3.17e-05
2026	0
2038	3.17e-05
2050	6.34e-05
2062	9.51e-05
2074	6.34e-05
2086	0.0001268
2098	0.0002219
2110	0.0002853
2122	0.0002853
2134	0.0002536
2146	0.0001585
2158	0.0001585
2170	0.0001902
2182	0.0002853
2194	0.000317
2206	0.0002853
2218	0.0001585
2230	6.34e-05
2242	6.34e-05
2254	3.17e-05
2266	3.17e-05
2278	6.34e-05
2290	6.34e-05
2302	0.0001268
2314	0.0003487
2326	0.0003804
2338	0.0004121
2350	0.0003804
2362	0.0001902
2374	9.51e-05
2386	9.51e-05
2398	0.0001585
2410	0.0001902
2422	0.0003487
2434	0.0003487
2446	0.0003804
2458	0.0002853
2470	0.0002536
2482	0.0002219
2494	0.0001902
2506	0.0001585
2518	9.51e-05
2530	0.0001268
2542	3.17e-05
2554	3.17e-05
2566	3.17e-05
2578	0.0001585
2590	0.0002219
2602	0.0003804
2614	0.0005706
2626	0.0007608
2638	0.0009193
2650	0.0010461
2662	0.0011412
2674	0.0012363
2686	0.0013948
2698	0.0018069
2710	0.0023775
2722	0.003804
2734	0.0074495
2746	0.0133774
2758	0.0107146
2770	0.0055158
2782	0.0043112
2794	0.0049769
2806	0.0074178
2818	0.0140431
2830	0.0311294
2842	0.0541753
2854	0.0426048
2866	0.0241554
2878	0.0164523
2890	0.0123947
2902	0.0105561
2914	0.0110633
2926	0.0134408
2938	0.0144552
2950	0.0123313
2962	0.0090028
2974	0.0058328
2986	0.0039625
2998	0.0040259
3010	0.0070057
3022	0.0137895
3034	0.0219681
3046	0.0200661
3058	0.0160085
3070	0.0239018
3082	0.0212707
3094	0.0130921
3106	0.0093832
3118	0.0053256
3130	0.0019654
3142	0.0008876
3154	0.0006974
3166	0.0007608
3178	0.000634
3190	0.0003804
3202	0.000317
3214	0.0001902
3226	0.0001902
3238	9.51e-05
3250	3.17e-05
3262	6.34e-05
3274	3.17e-05
3286	3.17e-05
3298	6.34e-05
3310	0.0001268
3322	0.0001585
3334	0.0001902
3346	0.0001902
3358	0.0002853
3370	0.0003804
3382	0.0006974
3394	0.0012046
3406	0.0022824
3418	0.0042478
3430	0.0073544
3442	0.0102708
3454	0.0129336
3466	0.0135359
3478	0.0092247
3490	0.0048184
3502	0.0023458
3514	0.0010461
3526	0.0005072
3538	0.0002853
3550	0.0002536
3562	0.0001902
3574	0.0002219
3586	0.0002219
3598	0.0001585
3610	0.0001585
3622	0.0001902
3634	0.0002219
3646	0.000317
3658	0.000317
3670	0.0002853
3682	0.0001902
3694	0.0001902
3706	0.0002853
3718	0.0002536
3730	0.0002536
3742	0.0001268
3754	0.0002219
3766	0.0001902
3778	0.0001585
3790	0.0001585
3802	0.0002219
3814	0.0001585
3826	0.0002536
3838	0.0002219
