Infrared Spectrum: Formamidine, 1-cyano-N,N'-diphenyl-
Formula: C14 H11 N3
CAS: 6343-76-6
State: SOLID (SPLIT MULL), FLUOROLUBE FOR 3800-1335 CM^-^1, NUJOL FOR 1335-400 CM^-^1
Melting point: 139 C
Class: COBLENTZ III
Instrument: BECKMAN IR-9 (GRATING)
Instrument parameters: ORDER CHANGES: 670, 1200, 2000 CM^-^1
Sampling: TRANSMISSION
Resolution: 2
Origin: DOW CHEMICAL COMPANY
1/CM	TRANSMITTANCE
3800	0.6038
3791	0.6023
3782	0.6014
3773	0.6054
3764	0.6101
3755	0.6116
3746	0.6127
3737	0.6133
3728	0.6139
3719	0.6164
3710	0.6193
3701	0.6219
3692	0.6244
3683	0.6255
3674	0.6262
3665	0.6271
3656	0.6285
3647	0.63
3638	0.6312
3629	0.6318
3620	0.6323
3611	0.6327
3602	0.6323
3593	0.6228
3584	0.62
3575	0.6405
3566	0.6437
3557	0.6458
3548	0.6478
3539	0.6497
3530	0.6518
3521	0.6539
3512	0.656
3503	0.658
3494	0.66
3485	0.6618
3476	0.664
3467	0.6658
3458	0.6678
3449	0.6706
3440	0.6733
3431	0.6757
3422	0.6772
3413	0.6787
3404	0.6798
3395	0.6783
3386	0.6745
3377	0.6683
3368	0.6556
3359	0.6175
3350	0.5434
3341	0.3793
3332	0.3629
3323	0.4705
3314	0.5381
3305	0.5692
3296	0.5921
3287	0.6094
3278	0.6201
3269	0.6297
3260	0.6385
3251	0.6461
3242	0.6542
3233	0.66
3224	0.6593
3215	0.6586
3206	0.6582
3197	0.6678
3188	0.6772
3179	0.6837
3170	0.6878
3161	0.6882
3152	0.6855
3143	0.6264
3134	0.6889
3125	0.6984
3116	0.7022
3107	0.696
3098	0.6588
3089	0.6768
3080	0.683
3071	0.6805
3062	0.695
3053	0.7011
3044	0.7021
3035	0.6975
3026	0.6996
3017	0.7115
3008	0.7212
2999	0.7258
2990	0.7283
2981	0.7307
2972	0.7325
2963	0.734
2954	0.7355
2945	0.7368
2936	0.7403
2927	0.7447
2918	0.75
2909	0.7555
2900	0.7587
2891	0.7617
2882	0.7643
2873	0.7665
2864	0.7687
2855	0.7705
2846	0.7704
2837	0.7714
2828	0.7736
2819	0.7764
2810	0.7793
2801	0.7818
2792	0.7841
2783	0.7864
2774	0.7891
2765	0.7919
2756	0.7949
2747	0.7976
2738	0.8007
2729	0.8036
2720	0.8065
2711	0.8096
2702	0.8125
2693	0.8156
2684	0.8185
2675	0.8214
2666	0.8241
2657	0.8265
2648	0.8289
2639	0.8318
2630	0.8357
2621	0.8393
2612	0.8423
2603	0.8456
2594	0.8481
2585	0.8496
2576	0.8491
2567	0.8482
2558	0.8483
2549	0.849
2540	0.8506
2531	0.8514
2522	0.8521
2513	0.8532
2504	0.8543
2495	0.8546
2486	0.8549
2477	0.8552
2468	0.8555
2459	0.8566
2450	0.8578
2441	0.8596
2432	0.8611
2423	0.8613
2414	0.8595
2405	0.8578
2396	0.8573
2387	0.858
2378	0.859
2369	0.8601
2360	0.8605
2351	0.8606
2342	0.8604
2333	0.8599
2324	0.8595
2315	0.8594
2306	0.8599
2297	0.8607
2288	0.8612
2279	0.8618
2270	0.8633
2261	0.8638
2252	0.8631
2243	0.8585
2234	0.865
2225	0.8734
2216	0.8771
2207	0.8791
2198	0.8808
2189	0.8824
2180	0.8848
2171	0.8873
2162	0.8899
2153	0.8921
2144	0.8944
2135	0.8966
2126	0.8983
2117	0.8997
2108	0.9015
2099	0.9033
2090	0.905
2081	0.9061
2072	0.9068
2063	0.9075
2054	0.9085
2045	0.9098
2036	0.9107
2027	0.9117
2018	0.9113
2009	0.9061
2000	0.8991
1991	0.8975
1982	0.8933
1973	0.8843
1964	0.8835
1955	0.8759
1946	0.8755
1937	0.8774
1928	0.8783
1919	0.878
1910	0.8771
1901	0.875
1892	0.8713
1883	0.8664
1874	0.8616
1865	0.8653
1856	0.869
1847	0.8688
1838	0.8673
1829	0.8641
1820	0.8617
1811	0.8615
1802	0.859
1793	0.8607
1784	0.8623
1775	0.8627
1766	0.8625
1757	0.8585
1748	0.8495
1739	0.8315
1730	0.8403
1721	0.8487
1712	0.8514
1703	0.8478
1694	0.841
1685	0.8325
1676	0.8112
1667	0.756
1658	0.5398
1649	0.1349
1640	0.3167
1631	0.6094
1622	0.624
1613	0.6006
1604	0.4684
1595	0.3358
1586	0.6106
1577	0.7044
1568	0.6803
1559	0.2802
1550	0.6575
1541	0.7285
1532	0.7478
1523	0.7607
1514	0.7534
1505	0.4951
1496	0.5633
1487	0.5265
1478	0.7036
1469	0.7396
1460	0.7495
1451	0.4844
1442	0.699
1433	0.7299
1424	0.7365
1415	0.741
1406	0.7431
1397	0.7421
1388	0.7403
1379	0.7405
1370	0.7389
1361	0.7217
1352	0.6653
1343	0.6539
1334	0.2895
1325	0.5891
1316	0.715
1307	0.7225
1298	0.7217
1289	0.7144
1280	0.7321
1271	0.743
1262	0.7418
1253	0.7293
1244	0.719
1235	0.7015
1226	0.5068
1217	0.6547
1208	0.6903
1199	0.664
1190	0.4967
1181	0.6281
1172	0.6542
1163	0.6803
1154	0.6907
1145	0.7376
1136	0.7443
1127	0.7517
1118	0.743
1109	0.7505
1100	0.7618
1091	0.756
1082	0.6484
1073	0.6674
1064	0.7572
1055	0.7684
1046	0.7731
1037	0.7547
1028	0.7389
1019	0.7574
1010	0.7734
1001	0.7668
992	0.7804
983	0.7708
974	0.794
965	0.7911
956	0.7939
947	0.7294
938	0.7791
929	0.7947
920	0.799
911	0.7724
902	0.6166
893	0.804
884	0.8143
875	0.8176
866	0.8213
857	0.8199
848	0.7488
839	0.779
830	0.8136
821	0.8187
812	0.8195
803	0.8184
794	0.8094
785	0.6234
776	0.7858
767	0.7762
758	0.3745
749	0.4651
740	0.7558
731	0.7731
722	0.7883
713	0.8118
704	0.6945
695	0.4407
686	0.6671
677	0.7978
668	0.7887
659	0.8053
650	0.8071
641	0.8061
632	0.7821
623	0.6525
614	0.6862
605	0.6154
596	0.6978
587	0.773
578	0.8033
569	0.824
560	0.8428
551	0.8597
542	0.8696
533	0.8588
524	0.8688
515	0.8643
506	0.6242
497	0.7858
488	0.8499
479	0.8353
470	0.8111
461	0.7846
452	0.7598
443	0.7292
434	0.6655
425	0.6112
416	0.5705
407	0.5565
