Infrared Spectrum: Methyl-3-amino-4-hydroxybenzoate
Formula: C 8 H 9 N O 3
CAS: 63435-16-5
State: gas
Origin: EPA-IR VAPOR PHASE LIBRARY
1/CM	ABSORBANCE
549.8	0.0035106
559.445	0.0037706
569.09	0.0044506
578.734	0.0043606
588.379	0.0036806
598.024	0.0033706
607.669	0.0032306
617.313	0.0034706
626.958	0.0045006
636.603	0.0063906
646.248	0.0060306
655.893	0.0049306
665.537	0.0046106
675.182	0.0044206
684.827	0.0041606
694.472	0.0042706
704.116	0.0044706
713.761	0.0053306
723.406	0.0055806
733.051	0.0057306
742.695	0.0068506
752.34	0.0107806
761.985	0.0172606
771.63	0.0163506
781.275	0.0090506
790.919	0.0050706
800.564	0.0048606
810.209	0.0044706
819.854	0.0037906
829.498	0.0036806
839.143	0.0030806
848.788	0.0027406
858.433	0.0024206
868.078	0.0024806
877.722	0.0036506
887.367	0.0049606
897.012	0.0054906
906.657	0.0049706
916.301	0.0033606
925.946	0.0022006
935.591	0.0018006
945.236	0.0016606
954.88	0.0016406
964.525	0.0019806
974.17	0.0026306
983.815	0.0043906
993.46	0.0065306
1003.1	0.0050806
1012.75	0.0025106
1022.39	0.0023506
1032.04	0.0020306
1041.68	0.0024606
1051.33	0.0028506
1060.97	0.0039906
1070.62	0.0056206
1080.26	0.0092306
1089.91	0.0168506
1099.55	0.0233106
1109.2	0.0214606
1118.84	0.0185706
1128.49	0.0269606
1138.13	0.0274506
1147.78	0.0143106
1157.42	0.0172006
1167.07	0.0204706
1176.71	0.0150906
1186.36	0.0150606
1196	0.0213806
1205.64	0.0348506
1215.29	0.0527806
1224.93	0.0618206
1234.58	0.0430006
1244.22	0.0197206
1253.87	0.0145206
1263.51	0.0156106
1273.16	0.0178506
1282.8	0.0302906
1292.45	0.0609506
1302.09	0.0692006
1311.74	0.0428006
1321.38	0.0185906
1331.03	0.0133306
1340.67	0.0120606
1350.32	0.0075806
1359.96	0.0043106
1369.61	0.0034306
1379.25	0.0029006
1388.9	0.0027906
1398.54	0.0030706
1408.18	0.0035406
1417.83	0.0043106
1427.47	0.0077806
1437.12	0.0177606
1446.76	0.0192106
1456.41	0.0094806
1466.05	0.0048106
1475.7	0.0041006
1485.34	0.0045806
1494.99	0.0076906
1504.63	0.0155406
1514.28	0.0202306
1523.92	0.0120506
1533.57	0.0044906
1543.21	0.0028006
1552.86	0.0027706
1562.5	0.0033406
1572.15	0.0048906
1581.79	0.0083506
1591.44	0.0130706
1601.08	0.0149306
1610.73	0.0142406
1620.37	0.0150406
1630.01	0.0142406
1639.66	0.0091006
1649.3	0.0050006
1658.95	0.0032006
1668.59	0.0025506
1678.24	0.0026506
1687.88	0.0034906
1697.53	0.0042706
1707.17	0.0047706
1716.82	0.0080606
1726.46	0.0223806
1736.11	0.0543106
1745.75	0.0551106
1755.4	0.0176506
1765.04	0.0052706
1774.69	0.0036406
1784.33	0.0037006
1793.98	0.0029906
1803.62	0.0017806
1813.27	0.0011406
1822.91	0.0009813
1832.55	0.0009603
1842.2	0.000902
1851.84	0.0009062
1861.49	0.0009257
1871.13	0.0010482
1880.78	0.0009817
1890.42	0.0009601
1900.07	0.0009591
1909.71	0.0008865
1919.36	0.0006606
1929	0.000595
1938.65	0.0005476
1948.29	0.0005103
1957.94	0.0005156
1967.58	0.0005718
1977.23	0.0005867
1986.87	0.0005627
1996.52	0.000603
2006.16	0.0005697
2015.81	0.0006146
2025.45	0.0006498
2035.1	0.0007438
2044.74	0.0007001
2054.38	0.0007933
2064.03	0.0008853
2073.67	0.0008587
2083.32	0.000777
2092.96	0.0005522
2102.61	0.0005013
2112.25	0.0005565
2121.9	0.0005035
2131.54	0.0005363
2141.19	0.0005104
2150.83	0.0004428
2160.48	0.0003861
2170.12	0.0003423
2179.77	0.0003152
2189.41	0.0003446
2199.06	0.0003214
2208.7	0.0003345
2218.35	0.0003042
2227.99	0.0003157
2237.64	0.000347
2247.28	0.0003296
2256.92	0.0002866
2266.57	0.0002923
2276.21	0.0003386
2285.86	0.000378
2295.5	0.0003533
2305.15	0.0003105
2314.79	0.0003269
2324.44	0.0003692
2334.08	0.0003132
2343.73	0.0003691
2353.37	0.0004501
2363.02	0.0004455
2372.66	0.0004305
2382.31	0.0003895
2391.95	0.0004291
2401.6	0.0003472
2411.24	0.0003992
2420.89	0.000365
2430.53	0.000424
2440.18	0.0002789
2449.82	0.0002911
2459.47	0.000386
2469.11	0.0003538
2478.75	0.0004382
2488.4	0.0004127
2498.04	0.0004736
2507.69	0.0004816
2517.33	0.0005084
2526.98	0.0005915
2536.62	0.0004207
2546.27	0.0003993
2555.91	0.0003234
2565.56	0.0003701
2575.2	0.0003886
2584.85	0.0003673
2594.49	0.0002849
2604.14	0.0004124
2613.78	0.0003209
2623.43	0.0003282
2633.07	0.0004072
2642.72	0.0005815
2652.36	0.0004767
2662.01	0.000504
2671.65	0.0004065
2681.29	0.0003768
2690.94	0.0003108
2700.58	0.0003403
2710.23	0.0002856
2719.87	0.0002219
2729.52	0.0003369
2739.16	0.0002932
2748.81	0.0002155
2758.45	0.000241
2768.1	0.0003317
2777.74	0.0002892
2787.39	0.0001849
2797.03	0.0002611
2806.68	0.0003095
2816.32	0.0004481
2825.97	0.0005239
2835.61	0.0009291
2845.26	0.0018906
2854.9	0.0016406
2864.55	0.00082
2874.19	0.0007666
2883.84	0.0009709
2893.48	0.0012606
2903.12	0.0017906
2912.77	0.0021206
2922.41	0.0021706
2932.06	0.0020106
2941.7	0.0028006
2951.35	0.0066006
2960.99	0.0101806
2970.64	0.0053506
2980.28	0.0024006
2989.93	0.0025006
2999.57	0.0030706
3009.22	0.0031406
3018.86	0.0030806
3028.51	0.0028906
3038.15	0.0026806
3047.8	0.0023506
3057.44	0.0023106
3067.09	0.0018106
3076.73	0.0016306
3086.38	0.0013806
3096.02	0.0011606
3105.67	0.0008291
3115.31	0.0005074
3124.95	0.0005083
3134.6	0.000391
3144.24	0.0004892
3153.89	0.00041
3163.53	0.0003806
3173.18	0.0003097
3182.82	0.0003933
3192.47	0.0004202
3202.11	0.0004874
3211.76	0.0004744
3221.4	0.0002531
3231.05	0.0003661
3240.69	0.0001937
3250.34	0.0002388
3259.98	0.0003114
3269.63	0.0001617
3279.27	0.0002559
3288.92	0.0001428
3298.56	0.0002228
3308.21	0.0003624
3317.85	0.0003676
3327.49	0.0006977
3337.14	0.0006819
3346.78	0.0008817
3356.43	0.000951
3366.07	0.0010706
3375.72	0.0012906
3385.36	0.0012806
3395.01	0.0015506
3404.65	0.0023206
3414.3	0.0028306
3423.94	0.0025606
3433.59	0.0016206
3443.23	0.0013706
3452.88	0.0017606
3462.52	0.0022206
3472.17	0.0024006
3481.81	0.0029406
3491.46	0.0038006
3501.1	0.0044806
3510.75	0.0043406
3520.39	0.0035906
3530.04	0.0027406
3539.68	0.0021406
3549.32	0.0017306
3558.97	0.0013306
3568.61	0.0013706
3578.26	0.0011306
3587.9	0.0011106
3597.55	0.0010231
3607.19	0.0008824
3616.84	0.0008297
3626.48	0.0010283
3636.13	0.0017506
3645.77	0.0052906
3655.42	0.0100006
3665.06	0.0054906
3674.71	0.0011806
3684.35	0.0004049
3694	0.0004411
3703.64	0.0003409
3713.29	0.0003671
3722.93	0.000221
3732.58	0.0003502
3742.22	0.0002596
3751.86	0.0003886
3761.51	0.00015149
3771.15	0.0002308
3780.8	0.0003201
3790.44	0.0002846
3800.09	0.0002337
3809.73	0.0003239
3819.38	2.4e-05
3829.02	0.0002913
3838.67	0.0004284
3848.31	0.0002992
3857.96	0.0006034
3867.6	0.0003408
3877.25	0.0003138
3886.89	0.0003988
3896.54	0.0002594
3906.18	0.0002941
3915.83	0.0002461
3925.47	9.143e-05
3935.12	0.000328
3944.76	0.0003212
3954.41	0.000318
3964.05	0.0001679
3973.69	0.0001928
3983.34	0.0003114
3992.98	0.0002121
