Infrared Spectrum: 4-Methoxyphenylacetamide
Formula: C 9 H 11 N O 2
CAS: 6343-93-7
State: gas
Origin: EPA-IR VAPOR PHASE LIBRARY
1/CM	ABSORBANCE
549.9	0.004988
559.547	0.005118
569.193	0.004668
578.84	0.003588
588.486	0.002638
598.133	0.002458
607.779	0.002248
617.426	0.002018
627.072	0.001948
636.719	0.002038
646.365	0.001798
656.012	0.001654
665.658	0.0016297
675.305	0.0014929
684.951	0.0015866
694.598	0.0016904
704.245	0.001898
713.891	0.001978
723.538	0.001988
733.184	0.002038
742.831	0.002108
752.477	0.002288
762.124	0.003088
771.77	0.004178
781.417	0.004178
791.063	0.004468
800.71	0.005648
810.356	0.006438
820.003	0.005748
829.649	0.004438
839.296	0.003738
848.943	0.003568
858.589	0.003148
868.236	0.002778
877.882	0.002438
887.529	0.002078
897.175	0.001908
906.822	0.001699
916.468	0.0017002
926.115	0.0016957
935.761	0.001738
945.408	0.0016306
955.054	0.0015139
964.701	0.0016206
974.347	0.0016082
983.994	0.001638
993.64	0.001828
1003.29	0.002138
1012.93	0.002968
1022.58	0.004428
1032.23	0.007068
1041.87	0.008458
1051.52	0.005878
1061.17	0.003338
1070.81	0.002658
1080.46	0.002438
1090.11	0.002348
1099.75	0.002548
1109.4	0.002578
1119.05	0.002158
1128.69	0.001898
1138.34	0.001788
1147.99	0.002168
1157.63	0.002798
1167.28	0.006228
1176.92	0.010248
1186.57	0.005838
1196.22	0.003558
1205.86	0.003938
1215.51	0.005338
1225.16	0.008188
1234.8	0.015838
1244.45	0.031668
1254.1	0.031078
1263.74	0.014728
1273.39	0.010108
1283.04	0.009978
1292.68	0.010918
1302.33	0.009748
1311.98	0.008768
1321.62	0.009748
1331.27	0.010158
1340.92	0.008918
1350.56	0.007128
1360.21	0.005328
1369.86	0.003878
1379.5	0.002828
1389.15	0.002268
1398.79	0.002058
1408.44	0.002018
1418.09	0.002418
1427.73	0.002888
1437.38	0.003668
1447.03	0.003968
1456.67	0.003888
1466.32	0.004658
1475.97	0.003978
1485.61	0.003588
1495.26	0.006918
1504.91	0.020578
1514.55	0.026598
1524.2	0.009528
1533.85	0.003708
1543.49	0.002878
1553.14	0.003148
1562.79	0.004688
1572.43	0.007868
1582.08	0.011918
1591.73	0.011548
1601.37	0.009668
1611.02	0.009188
1620.67	0.006248
1630.31	0.003478
1639.96	0.002788
1649.6	0.002568
1659.25	0.002618
1668.9	0.003138
1678.54	0.004008
1688.19	0.005618
1697.84	0.008688
1707.48	0.013488
1717.13	0.021058
1726.78	0.033358
1736.42	0.032038
1746.07	0.019288
1755.72	0.013088
1765.36	0.007738
1775.01	0.004128
1784.66	0.002468
1794.3	0.0016919
1803.95	0.0013128
1813.6	0.0011678
1823.24	0.0010296
1832.89	0.0009988
1842.54	0.0010763
1852.18	0.001086
1861.83	0.0011092
1871.47	0.0011623
1881.12	0.0011911
1890.77	0.0011191
1900.41	0.00102
1910.06	0.0009073
1919.71	0.0008911
1929.35	0.0008455
1939	0.0008553
1948.65	0.0008638
1958.29	0.00081873
1967.94	0.00078636
1977.59	0.00077453
1987.23	0.00078271
1996.88	0.00081428
2006.53	0.0008864
2016.17	0.0009977
2025.82	0.0009887
2035.47	0.0009246
2045.11	0.0009307
2054.76	0.0010128
2064.41	0.001017
2074.05	0.0009549
2083.7	0.0009041
2093.35	0.00078581
2102.99	0.0006981
2112.64	0.0006528
2122.28	0.0006984
2131.93	0.000613
2141.58	0.00059
2151.22	0.000601
2160.87	0.000594
2170.52	0.000551
2180.16	0.000581
2189.81	0.000587
2199.46	0.000541
2209.1	0.000588
2218.75	0.00058
2228.4	0.000581
2238.04	0.000581
2247.69	0.000572
2257.34	0.000567
2266.98	0.000613
2276.63	0.000684
2286.28	0.0006993
2295.92	0.0006478
2305.57	0.000602
2315.22	0.000587
2324.86	0.000601
2334.51	0.000618
2344.16	0.000624
2353.8	0.000603
2363.45	0.000616
2373.09	0.000589
2382.74	0.000567
2392.39	0.000546
2402.03	0.000513
2411.68	0.000529
2421.33	0.000517
2430.97	0.000535
2440.62	0.000491
2450.27	0.000491
2459.91	0.000491
2469.56	0.000571
2479.21	0.000519
2488.85	0.000551
2498.5	0.000536
2508.15	0.000531
2517.79	0.000619
2527.44	0.000556
2537.09	0.000617
2546.73	0.000581
2556.38	0.000608
2566.03	0.000456
2575.67	0.000393
2585.32	0.000459
2594.96	0.000497
2604.61	0.000419
2614.26	0.000399
2623.9	0.000399
2633.55	0.000356
2643.2	0.00034
2652.84	0.00031
2662.49	0.000304
2672.14	0.000291
2681.78	0.000371
2691.43	0.000345
2701.08	0.000375
2710.72	0.000287
2720.37	0.000341
2730.02	0.000292
2739.66	0.000344
2749.31	0.000323
2758.96	0.000292
2768.6	0.00038
2778.25	0.000359
2787.9	0.000475
2797.54	0.0006416
2807.19	0.00076566
2816.84	0.0009968
2826.48	0.0013817
2836.13	0.002518
2845.77	0.003638
2855.42	0.002388
2865.07	0.0016315
2874.71	0.0013615
2884.36	0.0015161
2894.01	0.001868
2903.65	0.002778
2913.3	0.003928
2922.95	0.004458
2932.59	0.005108
2942.24	0.005798
2951.89	0.005508
2961.53	0.004548
2971.18	0.003168
2980.83	0.002608
2990.47	0.002758
3000.12	0.004068
3009.77	0.004958
3019.41	0.003288
3029.06	0.003008
3038.71	0.002988
3048.35	0.002048
3058	0.0015739
3067.64	0.001491
3077.29	0.0016596
3086.94	0.0011951
3096.58	0.0009884
3106.23	0.0010244
3115.88	0.00080835
3125.52	0.00080319
3135.17	0.000414
3144.82	0.00035
3154.46	0.00033
3164.11	0.000303
3173.76	8.6e-05
3183.4	0.000268
3193.05	0.000156
3202.7	0.000173
3212.34	0.000344
3221.99	0.000146
3231.64	0.0003
3241.28	0.000274
3250.93	2.2e-05
3260.58	0.00036
3270.22	0.000271
3279.87	0.000142
3289.52	0.000261
3299.16	0.000382
3308.81	0.000266
3318.45	0.000183
3328.1	0.000478
3337.75	0.000366
3347.39	0.000371
3357.04	0.000518
3366.69	0.000303
3376.33	0.00038
3385.98	0.00076382
3395.63	0.0010209
3405.27	0.0015888
3414.92	0.002168
3424.57	0.002628
3434.21	0.002648
3443.86	0.002158
3453.51	0.0014111
3463.15	0.0010048
3472.8	0.001023
3482.45	0.0010036
3492.09	0.0011029
3501.74	0.001419
3511.39	0.002018
3521.03	0.002628
3530.68	0.002948
3540.33	0.003658
3549.97	0.004448
3559.62	0.002788
3569.26	0.0014784
3578.91	0.0009245
3588.56	0.0006986
3598.2	0.000529
3607.85	0.0006312
3617.5	0.000537
3627.14	0.000628
3636.79	0.000553
3646.44	0.000425
3656.08	0.000561
3665.73	0.000575
3675.38	0.000521
3685.02	0.0006834
3694.67	0.000562
3704.32	0.00045
3713.96	0.0006625
3723.61	0.000575
3733.26	0.0006347
3742.9	0.000524
3752.55	0.000589
3762.2	0.000513
3771.84	0.000459
3781.49	0.0006365
3791.13	0.00051
3800.78	0.000576
3810.43	0.000431
3820.07	0.000346
3829.72	0.000491
3839.37	0.000469
3849.01	0.000621
3858.66	0.000484
3868.31	0.000558
3877.95	0.000602
3887.6	0.000427
3897.25	0.000444
3906.89	0.000544
3916.54	0.000429
3926.19	0.000506
3935.83	0.000493
3945.48	0.000485
3955.13	0.000431
3964.77	0.000507
3974.42	0.000466
3984.07	0.000517
3993.71	0.000473
