Infrared Spectrum: o-(4-TERT-BUTYLPHENYL) 0-PHENYL PHOSPHOROCHLORIDATE
Formula: C16 H18 Cl O3 P
CAS: 63449-81-0
State: SOLUTION (10% IN CCl4 FOR 5000-1350 CM^-^1, 10% IN CS2 FOR 1350-625 CM^-^1)
Class: COBLENTZ
Instrument: Not specified, most likely a prism, grating, or hybrid spectrometer.
Sampling: TRANSMISSION
Path length: 0.01 CM, 0.01 CM
Resolution: 4
Origin: DOW CHEMICAL COMPANY
MICROMETERS	TRANSMITTANCE
2.013	0.875
2.05222	0.876
2.09143	0.878
2.13065	0.875
2.16986	0.881
2.20908	0.889
2.24829	0.881
2.28751	0.878
2.32672	0.88
2.36594	0.886
2.40515	0.886
2.44437	0.881
2.48358	0.901
2.5228	0.902
2.56201	0.904
2.60123	0.896
2.64044	0.901
2.67966	0.904
2.71887	0.901
2.75809	0.897
2.7973	0.888
2.83652	0.881
2.87573	0.884
2.91495	0.881
2.95416	0.881
2.99338	0.875
3.03259	0.871
3.07181	0.87
3.11102	0.867
3.15024	0.865
3.18945	0.86
3.22867	0.805
3.26788	0.758
3.3071	0.8
3.34632	0.583
3.38553	0.41
3.42475	0.64
3.46396	0.695
3.50318	0.858
3.54239	0.888
3.58161	0.902
3.62082	0.909
3.66004	0.915
3.69925	0.92
3.73847	0.925
3.77768	0.928
3.8169	0.93
3.85611	0.931
3.89533	0.933
3.93454	0.935
3.97376	0.935
4.01297	0.935
4.05219	0.935
4.0914	0.933
4.13062	0.93
4.16983	0.923
4.20905	0.92
4.24826	0.918
4.28748	0.92
4.32669	0.925
4.36591	0.931
4.40512	0.936
4.44434	0.943
4.48355	0.949
4.52277	0.952
4.56198	0.956
4.6012	0.957
4.64042	0.957
4.67963	0.957
4.71885	0.957
4.75806	0.957
4.79728	0.956
4.83649	0.952
4.87571	0.951
4.91492	0.948
4.95414	0.94
4.99335	0.93
5.03257	0.922
5.07178	0.917
5.111	0.888
5.15021	0.87
5.18943	0.897
5.22864	0.899
5.26786	0.875
5.30707	0.899
5.34629	0.902
5.3855	0.923
5.42472	0.94
5.46393	0.938
5.50315	0.936
5.54236	0.928
5.58158	0.918
5.62079	0.91
5.66001	0.915
5.69922	0.909
5.73844	0.889
5.77765	0.883
5.81687	0.888
5.85608	0.901
5.8953	0.912
5.93452	0.918
5.97373	0.915
6.01295	0.883
6.05216	0.87
6.09138	0.88
6.13059	0.85
6.16981	0.76
6.20902	0.523
6.24824	0.35
6.28745	0.444
6.32667	0.56
6.36588	0.564
6.4051	0.515
6.44431	0.491
6.48353	0.531
6.52274	0.572
6.56196	0.499
6.60117	0.298
6.64039	0.23
6.6796	0.17
6.71882	0.32
6.75803	0.492
6.79725	0.575
6.83646	0.645
6.87568	0.81
6.91489	0.841
6.95411	0.868
6.99332	0.86
7.03254	0.818
7.07175	0.782
7.11097	0.786
7.15019	0.771
7.1894	0.841
7.22862	0.823
7.26783	0.667
7.30705	0.573
7.34626	0.844
7.38548	0.82
7.42469	0.752
7.46391	0.585
7.50312	0.432
7.54234	0.196
7.58155	0.061
7.62077	0.097
7.65998	0.1
7.6992	0.35
7.73841	0.583
7.77763	0.674
7.81684	0.69
7.85606	0.573
7.89527	0.645
7.93449	0.763
7.9737	0.758
8.01292	0.721
8.05213	0.638
8.09135	0.529
8.13056	0.45
8.16978	0.376
8.20899	0.213
8.24821	0.213
8.28742	0.222
8.32664	0.103
8.36585	0.027
8.40507	0.084
8.44429	0.17
8.4835	0.085
8.52272	0.025
8.56193	0.025
8.60115	0.059
8.64036	0.285
8.67958	0.538
8.71879	0.701
8.75801	0.779
8.79722	0.815
8.83644	0.829
8.87565	0.833
8.91487	0.808
8.95408	0.732
8.9933	0.683
9.03251	0.81
9.07173	0.873
9.11094	0.889
9.15016	0.899
9.18937	0.889
9.22859	0.888
9.2678	0.855
9.30702	0.76
9.34623	0.776
9.38545	0.857
9.42466	0.878
9.46388	0.878
9.50309	0.87
9.54231	0.858
9.58152	0.841
9.62074	0.795
9.65995	0.714
9.69917	0.529
9.73839	0.4
9.7776	0.478
9.81682	0.397
9.85603	0.423
9.89525	0.269
9.93446	0.455
9.97368	0.554
10.0129	0.484
10.0521	0.411
10.0913	0.285
10.1305	0.158
10.1698	0.068
10.209	0.019
10.2482	0.008
10.2874	0.001
10.3266	0.001
10.3658	0.004
10.405	0.025
10.4443	0.055
10.4835	0.095
10.5227	0.119
10.5619	0.124
10.6011	0.121
10.6403	0.131
10.6795	0.17
10.7188	0.27
10.758	0.421
10.7972	0.542
10.8364	0.641
10.8756	0.721
10.9148	0.753
10.9541	0.769
10.9933	0.764
11.0325	0.711
11.0717	0.648
11.1109	0.687
11.1501	0.764
11.1893	0.794
11.2286	0.81
11.2678	0.803
11.307	0.792
11.3462	0.779
11.3854	0.764
11.4246	0.758
11.4639	0.747
11.5031	0.737
11.5423	0.721
11.5815	0.703
11.6207	0.69
11.6599	0.669
11.6991	0.658
11.7384	0.633
11.7776	0.575
11.8168	0.471
11.856	0.419
11.8952	0.301
11.9344	0.144
11.9736	0.15
12.0129	0.384
12.0521	0.554
12.0913	0.649
12.1305	0.7
12.1697	0.724
12.2089	0.742
12.2482	0.75
12.2874	0.758
12.3266	0.766
12.3658	0.771
12.405	0.776
12.4442	0.774
12.4834	0.768
12.5227	0.763
12.5619	0.753
12.6011	0.734
12.6403	0.705
12.6795	0.666
12.7187	0.611
12.758	0.539
12.7972	0.457
12.8364	0.354
12.8756	0.29
12.9148	0.283
12.954	0.29
12.9932	0.252
13.0325	0.196
13.0717	0.163
13.1109	0.165
13.1501	0.22
13.1893	0.277
13.2285	0.325
13.2677	0.371
13.307	0.421
13.3462	0.463
13.3854	0.507
13.4246	0.546
13.4638	0.581
13.503	0.612
13.5423	0.651
13.5815	0.688
13.6207	0.701
13.6599	0.701
13.6991	0.701
13.7383	0.706
13.7775	0.721
13.8168	0.732
13.856	0.739
13.8952	0.74
13.9344	0.743
13.9736	0.739
14.0128	0.734
14.0521	0.729
14.0913	0.722
14.1305	0.714
14.1697	0.708
14.2089	0.696
14.2481	0.68
14.2873	0.659
14.3266	0.632
14.3658	0.594
14.405	0.536
14.4442	0.455
14.4834	0.346
14.5226	0.265
14.5618	0.249
14.6011	0.322
14.6403	0.432
14.6795	0.5
14.7187	0.539
14.7579	0.554
14.7971	0.56
14.8364	0.559
14.8756	0.544
14.9148	0.531
14.954	0.525
14.9932	0.518
15.0324	0.497
15.0716	0.47
15.1109	0.445
15.1501	0.419
15.1893	0.392
15.2285	0.363
15.2677	0.341
15.3069	0.329
15.3462	0.32
15.3854	0.316
15.4246	0.314
15.4638	0.314
15.503	0.317
15.5422	0.319
15.5814	0.314
15.6207	0.303
15.6599	0.291
15.6991	0.28
15.7383	0.27
15.7775	0.269
15.8167	0.262
15.8559	0.262
15.8952	0.278
