Infrared Spectrum: Toluene-Alpha,Alpha-diol, o-nitro-, diacetate
Formula: C11 H11 N O6
CAS: 6345-63-7
State: SOLID (SPLIT MULL), FLUOROLUBE FOR 3800-1330 CM^-^1, NUJOL FOR 1330-400 CM^-^1
Class: COBLENTZ III
Instrument: BECKMAN IR-9 (GRATING)
Instrument parameters: ORDER CHANGES: 670, 1200, 2000 CM^-^1
Sampling: TRANSMISSION
Resolution: 2
Origin: DOW CHEMICAL COMPANY
1/CM	TRANSMITTANCE
3800	0.6736
3791	0.6746
3782	0.6758
3773	0.6769
3764	0.6775
3755	0.6778
3746	0.6781
3737	0.6785
3728	0.679
3719	0.6795
3710	0.6804
3701	0.6811
3692	0.6821
3683	0.6836
3674	0.685
3665	0.6862
3656	0.6876
3647	0.6889
3638	0.6901
3629	0.6906
3620	0.6911
3611	0.6915
3602	0.6918
3593	0.6921
3584	0.6928
3575	0.6944
3566	0.6951
3557	0.6953
3548	0.6943
3539	0.6934
3530	0.6925
3521	0.6911
3512	0.6906
3503	0.6935
3494	0.6971
3485	0.6978
3476	0.6968
3467	0.6926
3458	0.6961
3449	0.7008
3440	0.7037
3431	0.7061
3422	0.7084
3413	0.7106
3404	0.7128
3395	0.7151
3386	0.7174
3377	0.7192
3368	0.7208
3359	0.7226
3350	0.7244
3341	0.7258
3332	0.7272
3323	0.7287
3314	0.7297
3305	0.7307
3296	0.7317
3287	0.7326
3278	0.7338
3269	0.7349
3260	0.736
3251	0.7371
3242	0.7382
3233	0.7393
3224	0.7397
3215	0.7398
3206	0.7401
3197	0.7401
3188	0.74
3179	0.7398
3170	0.7395
3161	0.739
3152	0.7385
3143	0.7368
3134	0.7328
3125	0.7207
3116	0.7231
3107	0.708
3098	0.7043
3089	0.724
3080	0.7332
3071	0.7344
3062	0.7195
3053	0.7101
3044	0.734
3035	0.7386
3026	0.7417
3017	0.7444
3008	0.7468
2999	0.7492
2990	0.7514
2981	0.7532
2972	0.7547
2963	0.7541
2954	0.7492
2945	0.7425
2936	0.7454
2927	0.751
2918	0.7545
2909	0.7564
2900	0.7567
2891	0.755
2882	0.7492
2873	0.7445
2864	0.7556
2855	0.7633
2846	0.7687
2837	0.7731
2828	0.7755
2819	0.7757
2810	0.7755
2801	0.7758
2792	0.7769
2783	0.7781
2774	0.7791
2765	0.78
2756	0.7808
2747	0.7814
2738	0.7819
2729	0.7828
2720	0.7841
2711	0.7858
2702	0.7874
2693	0.7891
2684	0.7908
2675	0.7926
2666	0.7944
2657	0.7958
2648	0.7974
2639	0.7987
2630	0.8001
2621	0.8014
2612	0.8021
2603	0.8026
2594	0.8035
2585	0.8044
2576	0.8051
2567	0.806
2558	0.8068
2549	0.8075
2540	0.8078
2531	0.8078
2522	0.8076
2513	0.8075
2504	0.8069
2495	0.8064
2486	0.8058
2477	0.8051
2468	0.8043
2459	0.8034
2450	0.8022
2441	0.8008
2432	0.7996
2423	0.7981
2414	0.7968
2405	0.7957
2396	0.7947
2387	0.7938
2378	0.7932
2369	0.7926
2360	0.7926
2351	0.7925
2342	0.7932
2333	0.7941
2324	0.7961
2315	0.7982
2306	0.8005
2297	0.803
2288	0.8056
2279	0.809
2270	0.8124
2261	0.8169
2252	0.8216
2243	0.8273
2234	0.8325
2225	0.8359
2216	0.8367
2207	0.8356
2198	0.8353
2189	0.8365
2180	0.8389
2171	0.8418
2162	0.8456
2153	0.8488
2144	0.8518
2135	0.8539
2126	0.8545
2117	0.8547
2108	0.8555
2099	0.8605
2090	0.8682
2081	0.87
2072	0.8692
2063	0.8749
2054	0.878
2045	0.8784
2036	0.8792
2027	0.8791
2018	0.8768
2009	0.8724
2000	0.8603
1991	0.883
1982	0.8838
1973	0.8806
1964	0.8875
1955	0.892
1946	0.8931
1937	0.8928
1928	0.8933
1919	0.8941
1910	0.8943
1901	0.8923
1892	0.8844
1883	0.8834
1874	0.8842
1865	0.8838
1856	0.8751
1847	0.8777
1838	0.8832
1829	0.8673
1820	0.8613
1811	0.8546
1802	0.8248
1793	0.773
1784	0.572
1775	0.1841
1766	0.1292
1757	0.3947
1748	0.0677
1739	0.253
1730	0.5822
1721	0.6758
1712	0.7361
1703	0.7531
1694	0.7705
1685	0.7847
1676	0.7967
1667	0.8193
1658	0.8287
1649	0.8248
1640	0.8231
1631	0.8325
1622	0.8399
1613	0.7586
1604	0.8347
1595	0.8452
1586	0.8158
1577	0.791
1568	0.8294
1559	0.7865
1550	0.7333
1541	0.6041
1532	0.1696
1523	0.0697
1514	0.4955
1505	0.6575
1496	0.7144
1487	0.748
1478	0.7742
1469	0.7753
1460	0.7554
1451	0.6032
1442	0.6769
1433	0.6436
1424	0.6865
1415	0.7325
1406	0.7536
1397	0.7506
1388	0.6937
1379	0.3566
1370	0.3184
1361	0.3174
1352	0.1719
1343	0.4858
1334	0.5916
1325	0.6135
1316	0.6185
1307	0.5846
1298	0.605
1289	0.6019
1280	0.5898
1271	0.5836
1262	0.5359
1253	0.4246
1244	0.1743
1235	0.0859
1226	0.2816
1217	0.3568
1208	0.0523
1199	0.053
1190	0.325
1181	0.5207
1172	0.5739
1163	0.6071
1154	0.6041
1145	0.5889
1136	0.6354
1127	0.6325
1118	0.6247
1109	0.5673
1100	0.3455
1091	0.4731
1082	0.4837
1073	0.472
1064	0.3068
1055	0.5125
1046	0.4814
1037	0.5192
1028	0.4797
1019	0.2103
1010	0.1569
1001	0.4262
992	0.4882
983	0.4821
974	0.2432
965	0.3509
956	0.4312
947	0.4873
938	0.349
929	0.5489
920	0.4931
911	0.3185
902	0.6119
893	0.6411
884	0.5754
875	0.6747
866	0.6637
857	0.6718
848	0.6924
839	0.676
830	0.6525
821	0.695
812	0.6965
803	0.6833
794	0.3987
785	0.6894
776	0.6967
767	0.6944
758	0.6718
749	0.3146
740	0.6681
731	0.6635
722	0.6212
713	0.6565
704	0.6991
695	0.664
686	0.6788
677	0.7069
668	0.6978
659	0.6425
650	0.7011
641	0.6697
632	0.6811
623	0.7082
614	0.7026
605	0.6283
596	0.6055
587	0.6987
578	0.704
569	0.665
560	0.6924
551	0.4695
542	0.6861
533	0.65
524	0.6722
515	0.6933
506	0.6912
497	0.6868
488	0.6768
479	0.6637
470	0.6512
461	0.6252
452	0.6071
443	0.5646
434	0.5504
425	0.5418
416	0.5432
407	0.5535
398	0.579
