Infrared Spectrum: p-Pentyloxynitrobenzene
Formula: C 11 H 15 N O 3
CAS: 63469-11-4
State: gas
Origin: EPA-IR VAPOR PHASE LIBRARY
1/CM	ABSORBANCE
549.8	0.001122
559.445	0.0010799
569.09	0.000881
578.734	0.001512
588.379	0.001682
598.024	0.002502
607.669	0.005692
617.313	0.009212
626.958	0.008622
636.603	0.011002
646.248	0.019122
655.893	0.018202
665.537	0.006642
675.182	0.007362
684.827	0.009982
694.472	0.007822
704.116	0.005302
713.761	0.003862
723.406	0.003802
733.051	0.006172
742.695	0.013342
752.34	0.018002
761.985	0.009332
771.63	0.004782
781.275	0.003372
790.919	0.002772
800.564	0.002862
810.209	0.003792
819.854	0.006692
829.498	0.016262
839.143	0.035112
848.788	0.049842
858.433	0.064162
868.078	0.024572
877.722	0.009892
887.367	0.007302
897.012	0.007832
906.657	0.008502
916.301	0.008382
925.946	0.006262
935.591	0.004642
945.236	0.005032
954.88	0.005252
964.525	0.006832
974.17	0.011252
983.815	0.020272
993.46	0.031602
1003.1	0.037352
1012.75	0.034732
1022.39	0.036292
1032.04	0.036082
1041.68	0.031362
1051.33	0.023272
1060.97	0.014332
1070.62	0.014942
1080.26	0.014132
1089.91	0.014662
1099.55	0.023832
1109.2	0.054172
1118.84	0.035492
1128.49	0.011752
1138.13	0.007862
1147.78	0.009242
1157.42	0.019202
1167.07	0.059522
1176.71	0.037042
1186.36	0.018392
1196	0.016582
1205.64	0.024702
1215.29	0.038572
1224.93	0.057972
1234.58	0.102062
1244.22	0.174202
1253.87	0.239252
1263.51	0.154292
1273.16	0.064002
1282.8	0.045382
1292.45	0.063012
1302.09	0.051712
1311.74	0.041682
1321.38	0.059302
1331.03	0.073542
1340.67	0.157382
1350.32	0.224322
1359.96	0.096052
1369.61	0.048702
1379.25	0.032392
1388.9	0.026282
1398.54	0.016092
1408.18	0.011072
1417.83	0.011032
1427.47	0.012482
1437.12	0.015802
1446.76	0.019982
1456.41	0.026942
1466.05	0.042872
1475.7	0.057262
1485.34	0.057352
1494.99	0.130712
1504.63	0.094322
1514.28	0.057712
1523.92	0.098162
1533.57	0.147662
1543.21	0.110602
1552.86	0.052502
1562.5	0.033352
1572.15	0.035082
1581.79	0.068952
1591.44	0.151502
1601.08	0.134212
1610.73	0.074562
1620.37	0.035662
1630.01	0.014472
1639.66	0.008802
1649.3	0.006832
1658.95	0.005222
1668.59	0.003982
1678.24	0.003142
1687.88	0.002732
1697.53	0.002362
1707.17	0.002152
1716.82	0.002122
1726.46	0.002082
1736.11	0.002392
1745.75	0.002692
1755.4	0.003542
1765.04	0.003662
1774.69	0.002282
1784.33	0.001872
1793.98	0.001892
1803.62	0.001752
1813.27	0.001562
1822.91	0.001512
1832.55	0.001302
1842.2	0.001312
1851.84	0.001412
1861.49	0.001662
1871.13	0.002022
1880.78	0.002562
1890.42	0.003112
1900.07	0.003432
1909.71	0.003272
1919.36	0.002702
1929	0.001942
1938.65	0.001602
1948.29	0.001582
1957.94	0.001742
1967.58	0.002022
1977.23	0.001942
1986.87	0.001842
1996.52	0.001932
2006.16	0.002142
2015.81	0.002472
2025.45	0.002542
2035.1	0.002482
2044.74	0.002312
2054.38	0.002062
2064.03	0.001922
2073.67	0.001632
2083.32	0.001452
2092.96	0.001472
2102.61	0.001542
2112.25	0.001702
2121.9	0.001452
2131.54	0.0010708
2141.19	0.0009035
2150.83	0.0008509
2160.48	0.0007703
2170.12	0.0006673
2179.77	0.0006626
2189.41	0.0007929
2199.06	0.0008427
2208.7	0.0009769
2218.35	0.0010889
2227.99	0.00102
2237.64	0.0008496
2247.28	0.0007867
2256.92	0.0008885
2266.57	0.0010088
2276.21	0.0011693
2285.86	0.0011349
2295.5	0.0010619
2305.15	0.0009574
2314.79	0.0009588
2324.44	0.00093
2334.08	0.0010303
2343.73	0.0011542
2353.37	0.001282
2363.02	0.001262
2372.66	0.001312
2382.31	0.001472
2391.95	0.001542
2401.6	0.001632
2411.24	0.001642
2420.89	0.001692
2430.53	0.001812
2440.18	0.002242
2449.82	0.002962
2459.47	0.003282
2469.11	0.002672
2478.75	0.002332
2488.4	0.002202
2498.04	0.002322
2507.69	0.002352
2517.33	0.001912
2526.98	0.001822
2536.62	0.002102
2546.27	0.002582
2555.91	0.002662
2565.56	0.002722
2575.2	0.002882
2584.85	0.002792
2594.49	0.002582
2604.14	0.002472
2613.78	0.002422
2623.43	0.002152
2633.07	0.002142
2642.72	0.002002
2652.36	0.001962
2662.01	0.001842
2671.65	0.001922
2681.29	0.002012
2690.94	0.002222
2700.58	0.002322
2710.23	0.002362
2719.87	0.002222
2729.52	0.002252
2739.16	0.002792
2748.81	0.003202
2758.45	0.003132
2768.1	0.002872
2777.74	0.002932
2787.39	0.003132
2797.03	0.003532
2806.68	0.003952
2816.32	0.004822
2825.97	0.006332
2835.61	0.008432
2845.26	0.012462
2854.9	0.019502
2864.55	0.030292
2874.19	0.039402
2883.84	0.041892
2893.48	0.037442
2903.12	0.036492
2912.77	0.042912
2922.41	0.055592
2932.06	0.074532
2941.7	0.090142
2951.35	0.082232
2960.99	0.077252
2970.64	0.080422
2980.28	0.047722
2989.93	0.022572
2999.57	0.013012
3009.22	0.008692
3018.86	0.006462
3028.51	0.004962
3038.15	0.004232
3047.8	0.003962
3057.44	0.004022
3067.09	0.004392
3076.73	0.005732
3086.38	0.008862
3096.02	0.007332
3105.67	0.002912
3115.31	0.002062
3124.95	0.001622
3134.6	0.001342
3144.24	0.00116
3153.89	0.001016
3163.53	0.0009535
3173.18	0.0010615
3182.82	0.0011761
3192.47	0.001292
3202.11	0.001332
3211.76	0.001462
3221.4	0.0008305
3231.05	0.0007928
3240.69	0.0005806
3250.34	0.0004687
3259.98	0.0003764
3269.63	0.0003759
3279.27	0.000235581
3288.92	0.00026772
3298.56	0.000234167
3308.21	0.0004276
3317.85	0.0003908
3327.49	0.00027772
3337.14	0.0003555
3346.78	0.0003454
3356.43	0.00030271
3366.07	0.0003478
3375.72	0.0003457
3385.36	0.0001503
3395.01	0.00028128
3404.65	0.000235976
3414.3	9.8e-05
3423.94	0.000181
3433.59	0.0003829
3443.23	0.00029782
3452.88	0.000232885
3462.52	3.2e-05
3472.17	0.00028607
3481.81	5.7e-05
3491.46	0.0001
3501.1	0
3510.75	0.0002124
3520.39	0.0001356
3530.04	0.0001663
3539.68	0.0003594
3549.32	0.000124
3558.97	0.0002013
3568.61	0.0001947
3578.26	0.000235247
3587.9	0.000234634
3597.55	0.000221
3607.19	0.000122
3616.84	0.0001587
3626.48	0.000154
3636.13	0.00023021
3645.77	0.000414
3655.42	0.00027031
3665.06	0.00031812
3674.71	0.0004495
3684.35	0.0005782
3694	0.0004529
3703.64	0.0004171
3713.29	0.0003709
3722.93	0.00037
3732.58	0.0005232
3742.22	0.000423
3751.86	0.0005778
3761.51	0.0004369
3771.15	0.0004521
3780.8	0.0001966
3790.44	0.0006449
3800.09	0.0004228
3809.73	0.0004515
3819.38	0.0005492
3829.02	0.00031671
3838.67	0.0004745
3848.31	0.0003902
3857.96	0.0003593
3867.6	0.0004857
3877.25	0.0005243
3886.89	0.0003806
3896.54	0.0004822
3906.18	0.0005592
3915.83	0.0003692
3925.47	0.0005486
3935.12	0.0003702
3944.76	0.0006665
3954.41	0.0005503
3964.05	0.0004004
3973.69	0.0004131
3983.34	0.0005483
3992.98	0.0005068
