Infrared Spectrum: 4-Aminobutyraldehyde diethyl acetal
Formula: C 8 H 19 N O 2
CAS: 6346-09-4
State: gas
Instrument: HP-GC/MS/IRD
Origin: NIST Mass Spectrometry Data Center
1/CM	ABSORBANCE
550	0.0001872
562	0.0002736
574	8.16e-05
586	0
598	0.0001344
610	0.0001632
622	0.0002472
634	0.0002592
646	0.0004728
658	0.0004896
670	0.0006312
682	0.0007416
694	0.0008544
706	0.001164
718	0.0015576
730	0.0022488
742	0.003168
754	0.003804
766	0.0043704
778	0.0045
790	0.0034512
802	0.0024288
814	0.001872
826	0.0016056
838	0.001476
850	0.0014856
862	0.0015048
874	0.0014376
886	0.0013824
898	0.0015192
910	0.0015552
922	0.0016872
934	0.0019944
946	0.0027312
958	0.0038928
970	0.0052152
982	0.0061584
994	0.0068832
1006	0.0071712
1018	0.007548
1030	0.009564
1042	0.014328
1054	0.0213024
1066	0.0239832
1078	0.0197136
1090	0.0158136
1102	0.0143184
1114	0.0153744
1126	0.0182304
1138	0.0159024
1150	0.0111048
1162	0.0077184
1174	0.0054384
1186	0.0038616
1198	0.0028224
1210	0.0022368
1222	0.0019032
1234	0.0015912
1246	0.0013992
1258	0.0013704
1270	0.0014616
1282	0.0015096
1294	0.0017664
1306	0.0019464
1318	0.0020736
1330	0.002796
1342	0.0047328
1354	0.0050352
1366	0.0050424
1378	0.0069072
1390	0.004584
1402	0.0028056
1414	0.0019632
1426	0.0016704
1438	0.002124
1450	0.0025584
1462	0.0019416
1474	0.0015336
1486	0.0012312
1498	0.0007704
1510	0.000516
1522	0.0003816
1534	0.0003456
1546	0.0002664
1558	0.0002736
1570	0.000336
1582	0.000396
1594	0.0006048
1606	0.0009624
1618	0.00144
1630	0.0013368
1642	0.00078
1654	0.0004392
1666	0.0002496
1678	0.0001344
1690	6.48e-05
1702	3.36e-05
1714	2.4e-05
1726	0
1738	2.4e-05
1750	1.2e-05
1762	0
1774	2.4e-06
1786	1.92e-05
1798	2.4e-05
1810	2.64e-05
1822	4.8e-05
1834	5.76e-05
1846	5.52e-05
1858	5.28e-05
1870	7.2e-05
1882	9.36e-05
1894	9.36e-05
1906	0.0001416
1918	0.0001176
1930	0.0001536
1942	0.0001728
1954	0.0001824
1966	0.000144
1978	0.0001656
1990	9.12e-05
2002	7.68e-05
2014	5.04e-05
2026	4.56e-05
2038	3.12e-05
2050	2.16e-05
2062	7.2e-06
2074	7.2e-06
2086	0
2098	2.64e-05
2110	4.32e-05
2122	4.08e-05
2134	3.36e-05
2146	3.84e-05
2158	5.76e-05
2170	2.88e-05
2182	4.32e-05
2194	5.04e-05
2206	2.16e-05
2218	3.6e-05
2230	4.32e-05
2242	4.32e-05
2254	4.8e-05
2266	3.36e-05
2278	2.64e-05
2290	2.16e-05
2302	1.68e-05
2314	2.4e-06
2326	1.92e-05
2338	0
2350	1.68e-05
2362	2.88e-05
2374	2.64e-05
2386	1.2e-05
2398	1.92e-05
2410	4.56e-05
2422	8.4e-05
2434	6e-05
2446	5.04e-05
2458	4.32e-05
2470	2.16e-05
2482	4.8e-05
2494	6e-05
2506	8.4e-05
2518	7.44e-05
2530	7.44e-05
2542	9.36e-05
2554	0.000132
2566	0.0001488
2578	0.0001584
2590	0.0002568
2602	0.0003048
2614	0.0003768
2626	0.0004344
2638	0.000516
2650	0.0005544
2662	0.000624
2674	0.0006528
2686	0.000684
2698	0.0007536
2710	0.0008304
2722	0.0009504
2734	0.0011208
2746	0.0012792
2758	0.0014256
2770	0.0015768
2782	0.0017712
2794	0.0020112
2806	0.0022536
2818	0.0027768
2830	0.00372
2842	0.0055176
2854	0.00822
2866	0.0106488
2878	0.0121128
2890	0.012144
2902	0.011988
2914	0.0129336
2926	0.0145512
2938	0.0169968
2950	0.0162168
2962	0.0131808
2974	0.0133728
2986	0.0132912
2998	0.0064824
3010	0.0035376
3022	0.0023904
3034	0.0016104
3046	0.0010872
3058	0.0007704
3070	0.0006
3082	0.0004992
3094	0.000444
3106	0.0003576
3118	0.000408
3130	0.000372
3142	0.0002856
3154	0.0002976
3166	0.0003552
3178	0.0002808
3190	0.0003216
3202	0.000288
3214	0.0002688
3226	0.0001968
3238	0.0001728
3250	0.000168
3262	0.0001896
3274	0.0001368
3286	0.0001512
3298	0.0001632
3310	0.000132
3322	0.00018
3334	0.000204
3346	0.0002928
3358	0.000252
3370	0.0001536
3382	0.0001272
3394	0.0001296
3406	0.0001224
3418	0.000192
3430	0.000144
3442	0.0001656
3454	0.0001464
3466	5.52e-05
3478	7.68e-05
3490	0.0001056
3502	0.0001056
3514	6.72e-05
3526	0.0001224
3538	3.84e-05
3550	1.2e-05
3562	9.36e-05
3574	8.88e-05
3586	8.64e-05
3598	6.72e-05
3610	7.2e-05
3622	5.52e-05
3634	9.84e-05
3646	0.0001872
3658	0.0001992
3670	0.0001968
3682	0.000216
3694	0.0002208
3706	0.0001056
3718	0.0001344
3730	0.0001896
3742	0.0001512
3754	0.0001128
3766	0.0001608
3778	0.0001368
3790	0.0001536
3802	0.0001752
3814	0.0001824
3826	0.0002136
3838	0.0001944
