Infrared Spectrum: ACETIC ACID, 2-PHENYLCYCLOHEXYL ESTER
Formula: C14 H18 O2
CAS: 63476-56-2
State: SOLUTION (10% IN CCl4)
Class: COBLENTZ III
Instrument: BECKMAN IR-9 (GRATING)
Instrument parameters: ORDER CHANGES AT 670, 1200, 2000 CM^-^1
Sampling: TRANSMISSION
Resolution: 4
Origin: DOW CHEMICAL COMPANY
1/CM	TRANSMITTANCE
409.86	0.567
418.611	0.491
427.363	0.544
436.114	0.633
444.866	0.694
453.617	0.727
462.369	0.796
471.12	0.826
479.872	0.767
488.623	0.812
497.375	0.88
506.126	0.885
514.878	0.889
523.629	0.678
532.381	0.653
541.132	0.742
549.884	0.879
558.635	0.913
567.387	0.926
576.138	0.927
584.89	0.928
593.641	0.909
602.393	0.675
611.144	0.833
619.896	0.878
628.647	0.82
637.399	0.876
646.15	0.833
654.902	0.761
663.653	0.857
672.405	0.874
681.156	0.891
689.908	0.778
698.659	0.116
707.411	0.67
716.162	0.874
724.913	0.902
733.665	0.894
742.416	0.835
751.168	0.346
759.919	0.5991
768.671	0.838
777.422	0.841
786.174	0.891
794.925	0.912
803.677	0.912
812.428	0.871
821.18	0.865
829.931	0.9
838.683	0.867
847.434	0.704
856.186	0.744
864.937	0.746
873.689	0.726
882.44	0.812
891.192	0.794
899.943	0.692
908.695	0.578
917.446	0.841
926.198	0.876
934.949	0.861
943.701	0.872
952.452	0.731
961.204	0.634
969.955	0.6072
978.707	0.827
987.458	0.833
996.21	0.742
1004.96	0.601
1013.71	0.502
1022.46	0.396
1031.22	0.145
1039.97	0.0641
1048.72	0.3251
1057.47	0.487
1066.22	0.651
1074.97	0.627
1083.72	0.749
1092.48	0.792
1101.23	0.757
1109.98	0.737
1118.73	0.777
1127.48	0.6681
1136.23	0.775
1144.98	0.761
1153.74	0.783
1162.49	0.809
1171.24	0.786
1179.99	0.59
1188.74	0.651
1197.49	0.633
1206.25	0.54
1215	0.407
1223.75	0.216
1232.5	0.013
1241.25	0.001
1250	0.006
1258.75	0.2331
1267.51	0.456
1276.26	0.589
1285.01	0.634
1293.76	0.653
1302.51	0.707
1311.26	0.745
1320.01	0.742
1328.77	0.777
1337.52	0.796
1346.27	0.759
1355.02	0.5749
1363.77	0.383
1372.52	0.18
1381.27	0.4241
1390.03	0.678
1398.78	0.757
1407.53	0.77
1416.28	0.744
1425.03	0.681
1433.78	0.632
1442.54	0.526
1451.29	0.2651
1460.04	0.637
1468.79	0.761
1477.54	0.794
1486.29	0.741
1495.04	0.393
1503.8	0.667
1512.55	0.66
1521.3	0.653
1530.05	0.607
1538.8	0.526
1547.55	0.466
1556.3	0.477
1565.06	0.552
1573.81	0.603
1582.56	0.586
1591.31	0.629
1600.06	0.6369
1608.81	0.751
1617.56	0.807
1626.32	0.838
1635.07	0.85
1643.82	0.839
1652.57	0.818
1661.32	0.811
1670.07	0.808
1678.83	0.793
1687.58	0.709
1696.33	0.664
1705.08	0.604
1713.83	0.4089
1722.58	0.1569
1731.33	0.021
1740.09	0.004
1748.84	0.1532
1757.59	0.5381
1766.34	0.675
1775.09	0.725
1783.84	0.741
1792.59	0.731
1801.35	0.76
1810.1	0.816
1818.85	0.841
1827.6	0.863
1836.35	0.87
1845.1	0.878
1853.86	0.872
1862.61	0.857
1871.36	0.857
1880.11	0.871
1888.86	0.88
1897.61	0.891
1906.36	0.893
1915.12	0.894
1923.87	0.894
1932.62	0.885
1941.37	0.844
1950.12	0.876
1958.87	0.88
1967.62	0.897
1976.38	0.905
1985.13	0.905
1993.88	0.904
2002.63	0.9045
2011.38	0.9115
2020.13	0.911
2028.88	0.9125
2037.64	0.913
2046.39	0.915
2055.14	0.915
2063.89	0.9155
2072.64	0.9115
2081.39	0.9155
2090.15	0.917
2098.9	0.917
2107.65	0.917
2116.4	0.916
2125.15	0.913
2133.9	0.9098
2142.65	0.906
2151.41	0.908
2160.16	0.9056
2168.91	0.9116
2177.66	0.913
2186.41	0.915
2195.16	0.915
2203.91	0.915
2212.67	0.915
2221.42	0.915
2230.17	0.9138
2238.92	0.915
2247.67	0.913
2256.42	0.9068
2265.17	0.905
2273.93	0.9008
2282.68	0.8974
2291.43	0.896
2300.18	0.898
2308.93	0.901
2317.68	0.9
2326.44	0.901
2335.19	0.904
2343.94	0.9014
2352.69	0.9046
2361.44	0.911
2370.19	0.912
2378.94	0.912
2387.7	0.912
2396.45	0.912
2405.2	0.912
2413.95	0.913
2422.7	0.912
2431.45	0.9143
2440.2	0.915
2448.96	0.915
2457.71	0.9123
2466.46	0.906
2475.21	0.905
2483.96	0.9033
2492.71	0.905
2501.47	0.908
2510.22	0.906
2518.97	0.9103
2527.72	0.912
2536.47	0.912
2545.22	0.9113
2553.97	0.911
2562.73	0.909
2571.48	0.9057
2580.23	0.905
2588.98	0.904
2597.73	0.901
2606.48	0.9
2615.23	0.898
2623.99	0.898
2632.74	0.8933
2641.49	0.8907
2650.24	0.893
2658.99	0.885
2667.74	0.8726
2676.49	0.8757
2685.25	0.882
2694	0.8857
2702.75	0.887
2711.5	0.8925
2720.25	0.896
2729	0.894
2737.76	0.897
2746.51	0.8977
2755.26	0.898
2764.01	0.897
2772.76	0.8932
2781.51	0.8867
2790.26	0.8765
2799.02	0.871
2807.77	0.868
2816.52	0.8595
2825.27	0.8424
2834.02	0.8183
2842.77	0.7171
2851.52	0.4299
2860.28	0.2356
2869.03	0.3779
2877.78	0.5347
2886.53	0.545
2895.28	0.56
2904.03	0.4832
2912.78	0.3776
2921.54	0.1744
2930.29	0.0944
2939.04	0.0498
2947.79	0.0557
2956.54	0.29
2965.29	0.5042
2974.05	0.6639
2982.8	0.7243
2991.55	0.7613
3000.3	0.7707
3009.05	0.7602
3017.8	0.7593
3026.55	0.5581
3035.31	0.5233
3044.06	0.7163
3052.81	0.749
3061.56	0.6559
3070.31	0.6812
3079.06	0.7437
3087.81	0.708
3096.57	0.7806
3105.32	0.8129
3114.07	0.8425
3122.82	0.8595
3131.57	0.8709
3140.32	0.871
3149.07	0.874
3157.83	0.874
3166.58	0.874
3175.33	0.875
3184.08	0.8789
3192.83	0.8791
3201.58	0.878
3210.34	0.8799
3219.09	0.879
3227.84	0.88
3236.59	0.88
3245.34	0.88
3254.09	0.88
3262.84	0.88
3271.6	0.882
3280.35	0.8819
3289.1	0.88
3297.85	0.882
3306.6	0.882
3315.35	0.883
3324.1	0.885
3332.86	0.886
3341.61	0.887
3350.36	0.887
3359.11	0.887
3367.86	0.89
3376.61	0.89
3385.37	0.891
3394.12	0.89
3402.87	0.89
3411.62	0.891
3420.37	0.893
3429.12	0.89
3437.87	0.885
3446.63	0.876
3455.38	0.87
3464.13	0.872
3472.88	0.88
3481.63	0.89
3490.38	0.894
3499.13	0.896
3507.89	0.897
3516.64	0.897
3525.39	0.897
3534.14	0.897
3542.89	0.898
3551.64	0.9
3560.39	0.902
3569.15	0.904
3577.9	0.904
3586.65	0.904
3595.4	0.904
3604.15	0.904
3612.9	0.9061
3621.66	0.909
3630.41	0.911
3639.16	0.911
3647.91	0.911
3656.66	0.908
3665.41	0.911
3674.16	0.909
3682.92	0.906
3691.67	0.905
3700.42	0.904
3709.17	0.905
3717.92	0.9061
3726.67	0.909
3735.42	0.9108
3744.18	0.911
3752.93	0.911
3761.68	0.911
3770.43	0.912
3779.18	0.9119
3787.93	0.911
3796.68	0.911
