Infrared Spectrum: 5-CHLORO-2-HYDROXY BENZALDEHYDE
Formula: C7 H5 Cl O2
CAS: 635-93-8
State: SOLID (MULL)
Melting point: 98-100 C
Class: COBLENTZ
Instrument: Not specified, most likely a prism, grating, or hybrid spectrometer.
Sampling: TRANSMISSION
Resolution: 4
Origin: WYANDOTTE CHEMICALS CORP., WYANDOTTE, MICHIGAN, USA
MICROMETERS	TRANSMITTANCE
2.024	0.256
2.06384	0.256
2.10368	0.256
2.14352	0.256
2.18336	0.256
2.2232	0.251
2.26304	0.253
2.30288	0.256
2.34272	0.251
2.38256	0.261
2.4224	0.261
2.46224	0.263
2.50208	0.266
2.54192	0.27
2.58176	0.278
2.6216	0.28
2.66144	0.281
2.70128	0.283
2.74112	0.288
2.78096	0.285
2.8208	0.273
2.86064	0.27
2.90048	0.261
2.94032	0.258
2.98016	0.251
3.02	0.238
3.05984	0.175
3.09968	0.131
3.13952	0.135
3.17936	0.156
3.2192	0.18
3.25904	0.186
3.29888	0.173
3.33872	0.09
3.37856	0.02
3.4184	0.03
3.45824	0.033
3.49808	0.036
3.53792	0.178
3.57776	0.316
3.6176	0.353
3.65744	0.346
3.69728	0.356
3.73712	0.381
3.77696	0.383
3.8168	0.388
3.85664	0.403
3.89648	0.418
3.93632	0.431
3.97616	0.425
4.016	0.445
4.05584	0.455
4.09568	0.461
4.13552	0.465
4.17536	0.466
4.2152	0.47
4.25504	0.451
4.29488	0.46
4.33472	0.48
4.37456	0.521
4.4144	0.523
4.45424	0.528
4.49408	0.536
4.53392	0.538
4.57376	0.543
4.6136	0.568
4.65344	0.576
4.69328	0.586
4.73312	0.598
4.77296	0.606
4.8128	0.615
4.85264	0.618
4.89248	0.628
4.93232	0.636
4.97216	0.631
5.012	0.64
5.05184	0.663
5.09168	0.685
5.13152	0.701
5.17136	0.706
5.2112	0.716
5.25104	0.693
5.29088	0.688
5.33072	0.741
5.37056	0.76
5.4104	0.78
5.45024	0.783
5.49008	0.825
5.52991	0.841
5.56975	0.845
5.60959	0.82
5.64943	0.816
5.68927	0.86
5.72911	0.946
5.76895	0.96
5.80879	0.871
5.84863	0.681
5.88847	0.376
5.92831	0.061
5.96815	0.066
6.00799	0.021
6.04783	0.145
6.08767	0.256
6.12751	0.266
6.16735	0.151
6.20719	0.363
6.24703	0.436
6.28687	0.383
6.32671	0.148
6.36655	0.381
6.40639	0.531
6.44623	0.58
6.48607	0.618
6.52591	0.65
6.56575	0.585
6.60559	0.385
6.64543	0.408
6.68527	0.221
6.72511	0.038
6.76495	0.016
6.80479	0.026
6.84463	0.053
6.88447	0.098
6.92431	0.148
6.96415	0.198
7.00399	0.413
7.04383	0.491
7.08367	0.491
7.12351	0.48
7.16335	0.425
7.20319	0.166
7.24303	0.041
7.28287	0.16
7.32271	0.268
7.36255	0.365
7.40239	0.455
7.44223	0.493
7.48207	0.506
7.52191	0.623
7.56175	0.643
7.60159	0.413
7.64143	0.221
7.68127	0.346
7.72111	0.346
7.76095	0.041
7.80079	0.02
7.84063	0.03
7.88047	0.03
7.92031	0.066
7.96015	0.21
7.99999	0.346
8.03983	0.438
8.07967	0.42
8.11951	0.5
8.15935	0.35
8.19919	0.09
8.23903	0.061
8.27887	0.103
8.31871	0.128
8.35855	0.131
8.39839	0.106
8.43823	0.053
8.47807	0.033
8.51791	0.03
8.55775	0.03
8.59759	0.03
8.63743	0.028
8.67727	0.051
8.71711	0.128
8.75695	0.238
8.79679	0.348
8.83663	0.39
8.87647	0.238
8.91631	0.066
8.95615	0.076
8.99599	0.136
9.03583	0.176
9.07567	0.193
9.11551	0.235
9.15535	0.256
9.19519	0.143
9.23503	0.156
9.27487	0.278
9.31471	0.351
9.35455	0.391
9.39439	0.418
9.43423	0.435
9.47407	0.451
9.51391	0.466
9.55375	0.495
9.59359	0.515
9.63343	0.54
9.67327	0.558
9.71311	0.576
9.75295	0.578
9.79279	0.49
9.83263	0.475
9.87247	0.568
9.91231	0.58
9.95215	0.576
9.99199	0.613
10.0318	0.635
10.0717	0.64
10.1115	0.645
10.1513	0.643
10.1912	0.651
10.231	0.648
10.2709	0.653
10.3107	0.653
10.3505	0.678
10.3904	0.661
10.4302	0.633
10.4701	0.63
10.5099	0.64
10.5497	0.69
10.5896	0.705
10.6294	0.72
10.6693	0.725
10.7091	0.725
10.7489	0.725
10.7888	0.73
10.8286	0.733
10.8685	0.74
10.9083	0.736
10.9481	0.708
10.988	0.55
11.0278	0.125
11.0677	0.06
11.1075	0.181
11.1473	0.275
11.1872	0.255
11.227	0.221
11.2669	0.153
11.3067	0.186
11.3465	0.391
11.3864	0.55
11.4262	0.613
11.4661	0.645
11.5059	0.656
11.5457	0.668
11.5856	0.67
11.6254	0.686
11.6653	0.688
11.7051	0.69
11.7449	0.686
11.7848	0.671
11.8246	0.625
11.8645	0.508
11.9043	0.298
11.9441	0.323
11.984	0.186
12.0238	0.053
12.0637	0.031
12.1035	0.166
12.1433	0.493
12.1832	0.67
12.223	0.756
12.2629	0.805
12.3027	0.835
12.3425	0.86
12.3824	0.86
12.4222	0.856
12.4621	0.858
12.5019	0.856
12.5417	0.85
12.5816	0.84
12.6214	0.828
12.6613	0.825
12.7011	0.811
12.7409	0.778
12.7808	0.746
12.8206	0.7
12.8605	0.61
12.9003	0.44
12.9401	0.175
12.98	0.04
13.0198	0.051
13.0597	0.21
13.0995	0.395
13.1393	0.508
13.1792	0.541
13.219	0.508
13.2589	0.456
13.2987	0.43
13.3385	0.415
13.3784	0.381
13.4182	0.351
13.4581	0.298
13.4979	0.27
13.5377	0.238
13.5776	0.188
13.6174	0.126
13.6573	0.083
13.6971	0.065
13.7369	0.075
13.7768	0.085
13.8166	0.088
13.8565	0.086
13.8963	0.083
13.9361	0.076
13.976	0.08
14.0158	0.071
14.0557	0.065
14.0955	0.065
14.1353	0.058
14.1752	0.055
14.215	0.048
14.2549	0.051
14.2947	0.053
14.3345	0.053
14.3744	0.07
14.4142	0.09
14.4541	0.115
14.4939	0.15
14.5337	0.181
14.5736	0.223
14.6134	0.266
14.6533	0.308
14.6931	0.338
14.7329	0.373
14.7728	0.408
14.8126	0.445
14.8525	0.468
14.8923	0.485
14.9321	0.508
14.972	0.513
15.0118	0.508
15.0517	0.486
15.0915	0.478
15.1313	0.495
15.1712	0.536
15.211	0.571
15.2509	0.593
15.2907	0.596
15.3305	0.591
15.3704	0.576
15.4102	0.52
15.4501	0.431
15.4899	0.333
15.5297	0.255
15.5696	0.238
15.6094	0.26
15.6493	0.281
15.6891	0.323
15.7289	0.356
15.7688	0.406
15.8086	0.451
15.8485	0.468
15.8883	0.485
15.9281	0.49
15.968	0.485
