Infrared Spectrum: Tetramethyl pyromellitate
Formula: C 14 H 14 O 8
CAS: 635-10-9
State: gas
Origin: EPA-IR VAPOR PHASE LIBRARY
1/CM	ABSORBANCE
549.8	0.003285
559.445	0.002825
569.09	0.002345
578.734	0.002265
588.379	0.002385
598.024	0.002115
607.669	0.002215
617.313	0.001985
626.958	0.001885
636.603	0.001835
646.248	0.001955
655.893	0.001945
665.537	0.002105
675.182	0.002405
684.827	0.002335
694.472	0.002445
704.116	0.002615
713.761	0.002955
723.406	0.003855
733.051	0.005465
742.695	0.009375
752.34	0.011665
761.985	0.008445
771.63	0.009135
781.275	0.012485
790.919	0.017795
800.564	0.020985
810.209	0.019975
819.854	0.011815
829.498	0.014165
839.143	0.012585
848.788	0.004995
858.433	0.003405
868.078	0.003735
877.722	0.005515
887.367	0.008005
897.012	0.008355
906.657	0.007775
916.301	0.008755
925.946	0.007015
935.591	0.004575
945.236	0.004455
954.88	0.006265
964.525	0.010425
974.17	0.020125
983.815	0.031585
993.46	0.016345
1003.1	0.007625
1012.75	0.007815
1022.39	0.009385
1032.04	0.009925
1041.68	0.009675
1051.33	0.010975
1060.97	0.013155
1070.62	0.021685
1080.26	0.046315
1089.91	0.113245
1099.55	0.156045
1109.2	0.110285
1118.84	0.137355
1128.49	0.146135
1138.13	0.076045
1147.78	0.040705
1157.42	0.027445
1167.07	0.024185
1176.71	0.026005
1186.36	0.033935
1196	0.041845
1205.64	0.051255
1215.29	0.077155
1224.93	0.130065
1234.58	0.230935
1244.22	0.382465
1253.87	0.417845
1263.51	0.279185
1273.16	0.175955
1282.8	0.138545
1292.45	0.126925
1302.09	0.085335
1311.74	0.064995
1321.38	0.048675
1331.03	0.030735
1340.67	0.019875
1350.32	0.015485
1359.96	0.015605
1369.61	0.020475
1379.25	0.026595
1388.9	0.020575
1398.54	0.012895
1408.18	0.011665
1417.83	0.012865
1427.47	0.024245
1437.12	0.079655
1446.76	0.033235
1456.41	0.018005
1466.05	0.016005
1475.7	0.015015
1485.34	0.018505
1494.99	0.019785
1504.63	0.013875
1514.28	0.010245
1523.92	0.008435
1533.57	0.007725
1543.21	0.007775
1552.86	0.008045
1562.5	0.008125
1572.15	0.007305
1581.79	0.006525
1591.44	0.006135
1601.08	0.005965
1610.73	0.005825
1620.37	0.005335
1630.01	0.005145
1639.66	0.005085
1649.3	0.005115
1658.95	0.005675
1668.59	0.006555
1678.24	0.007595
1687.88	0.009425
1697.53	0.012535
1707.17	0.018165
1716.82	0.026625
1726.46	0.046835
1736.11	0.107945
1745.75	0.253755
1755.4	0.379685
1765.04	0.212525
1774.69	0.094105
1784.33	0.038615
1793.98	0.019375
1803.62	0.013835
1813.27	0.011935
1822.91	0.009865
1832.55	0.007595
1842.2	0.005895
1851.84	0.004695
1861.49	0.003845
1871.13	0.003185
1880.78	0.002885
1890.42	0.002575
1900.07	0.002465
1909.71	0.002535
1919.36	0.002815
1929	0.003115
1938.65	0.003105
1948.29	0.002855
1957.94	0.002445
1967.58	0.002465
1977.23	0.002635
1986.87	0.002935
1996.52	0.002905
2006.16	0.002595
2015.81	0.002355
2025.45	0.002245
2035.1	0.002245
2044.74	0.002375
2054.38	0.002525
2064.03	0.002355
2073.67	0.002275
2083.32	0.002335
2092.96	0.002375
2102.61	0.002395
2112.25	0.002395
2121.9	0.002375
2131.54	0.002125
2141.19	0.002025
2150.83	0.001835
2160.48	0.001495
2170.12	0.001235
2179.77	0.0010897
2189.41	0.0010507
2199.06	0.0011396
2208.7	0.0010985
2218.35	0.0010957
2227.99	0.0010631
2237.64	0.0009333
2247.28	0.0008154
2256.92	0.0007473
2266.57	0.0008324
2276.21	0.0008843
2285.86	0.0007701
2295.5	0.0007824
2305.15	0.0007101
2314.79	0.0007311
2324.44	0.0008815
2334.08	0.0009756
2343.73	0.0009478
2353.37	0.0009048
2363.02	0.0008936
2372.66	0.0009398
2382.31	0.0010311
2391.95	0.0012084
2401.6	0.0011794
2411.24	0.0009919
2420.89	0.0009338
2430.53	0.0008195
2440.18	0.0008732
2449.82	0.000839
2459.47	0.0008212
2469.11	0.0007205
2478.75	0.0008327
2488.4	0.0007523
2498.04	0.0007534
2507.69	0.0007862
2517.33	0.0008227
2526.98	0.000741
2536.62	0.0008719
2546.27	0.0009423
2555.91	0.0008749
2565.56	0.0009291
2575.2	0.0010089
2584.85	0.0008979
2594.49	0.0010163
2604.14	0.000925
2613.78	0.0009728
2623.43	0.0007691
2633.07	0.0007302
2642.72	0.000864
2652.36	0.0007329
2662.01	0.0007213
2671.65	0.0006964
2681.29	0.000653
2690.94	0.0005562
2700.58	0.0005044
2710.23	0.0005626
2719.87	0.0005385
2729.52	0.0004098
2739.16	0.0005389
2748.81	0.0005584
2758.45	0.0004555
2768.1	0.0006315
2777.74	0.0005252
2787.39	0.0006822
2797.03	0.0008827
2806.68	0.0011584
2816.32	0.001615
2825.97	0.002515
2835.61	0.003925
2845.26	0.009485
2854.9	0.011275
2864.55	0.004705
2874.19	0.003905
2883.84	0.004875
2893.48	0.007455
2903.12	0.009745
2912.77	0.010315
2922.41	0.009505
2932.06	0.009665
2941.7	0.013685
2951.35	0.032375
2960.99	0.086215
2970.64	0.030855
2980.28	0.012825
2989.93	0.012115
2999.57	0.014285
3009.22	0.014815
3018.86	0.013145
3028.51	0.012315
3038.15	0.010375
3047.8	0.007445
3057.44	0.005405
3067.09	0.004465
3076.73	0.003945
3086.38	0.003885
3096.02	0.003625
3105.67	0.003285
3115.31	0.002755
3124.95	0.002385
3134.6	0.001865
3144.24	0.001555
3153.89	0.0011954
3163.53	0.0011091
3173.18	0.0009519
3182.82	0.0009
3192.47	0.0009652
3202.11	0.0007219
3211.76	0.0005253
3221.4	0.000382
3231.05	0.0003856
3240.69	0.00031392
3250.34	0.0004676
3259.98	0.00030604
3269.63	0.000217739
3279.27	0.0003427
3288.92	0.000219987
3298.56	0.0004416
3308.21	0.0003466
3317.85	0.0002645
3327.49	0.0004093
3337.14	0.0004352
3346.78	0.00027867
3356.43	0.0004899
3366.07	0.0004032
3375.72	0.0004009
3385.36	0.00027201
3395.01	0.0003226
3404.65	0.00036
3414.3	0.0003858
3423.94	0.0003902
3433.59	0.000558
3443.23	0.000511
3452.88	0.000803
3462.52	0.001395
3472.17	0.002115
3481.81	0.003135
3491.46	0.003485
3501.1	0.002665
3510.75	0.001815
3520.39	0.00112
3530.04	0.0008678
3539.68	0.000664
3549.32	0.0004414
3558.97	0.0005649
3568.61	0.0004476
3578.26	0.000363
3587.9	0.0001771
3597.55	0.00031106
3607.19	0.0001608
3616.84	0.0003459
3626.48	0.0003278
3636.13	0.00022521
3645.77	0.000216459
3655.42	0.00022658
3665.06	0.0003226
3674.71	9.8e-05
3684.35	0.0001174
3694	0.00027616
3703.64	0.00027234
3713.29	0.000365
3722.93	0.00020674
3732.58	0.00031124
3742.22	7.5e-05
3751.86	0.0001233
3761.51	0.00029854
3771.15	0.00028845
3780.8	0.0004471
3790.44	0.0004271
3800.09	0.0004356
3809.73	0.00027178
3819.38	0.000191
3829.02	0.0003446
3838.67	0.000214619
3848.31	0.00026934
3857.96	0.000232
3867.6	0.00026045
3877.25	0.0005898
3886.89	0.0003201
3896.54	0.0003322
3906.18	0.0004335
3915.83	0.0004276
3925.47	0.0003676
3935.12	0.0003449
3944.76	0.0004393
3954.41	0.0005431
3964.05	0.000591
3973.69	0.0005258
3983.34	0.0004643
3992.98	0.0004459
