Infrared Spectrum: O-(CARBOXYMETHOXY) BENZOIC ACID
Formula: C9 H8 O5
CAS: 635-53-0
State: SOLID (MINERAL OIL MULL)
Class: COBLENTZ
Instrument: Not specified, most likely a prism, grating, or hybrid spectrometer.
Sampling: TRANSMISSION
Resolution: 4
Origin: WYANDOTTE CHEMICALS CORP., WYANDOTTE, MICHIGAN, USA
MICROMETERS	TRANSMITTANCE
2.027	0.495
2.06675	0.51
2.1065	0.512
2.14625	0.504
2.18601	0.5
2.22576	0.505
2.26551	0.52
2.30526	0.535
2.34501	0.553
2.38476	0.565
2.42451	0.577
2.46427	0.582
2.50402	0.592
2.54377	0.603
2.58352	0.623
2.62327	0.63
2.66302	0.641
2.70277	0.643
2.74253	0.648
2.78228	0.651
2.82203	0.641
2.86178	0.636
2.90153	0.628
2.94128	0.641
2.98103	0.643
3.02079	0.636
3.06054	0.613
3.10029	0.424
3.14004	0.126
3.17979	0.235
3.21954	0.313
3.25929	0.344
3.29905	0.266
3.3388	0.059
3.37855	0.031
3.4183	0.034
3.45805	0.039
3.4978	0.043
3.53755	0.14
3.57731	0.271
3.61706	0.301
3.65681	0.288
3.69656	0.331
3.73631	0.349
3.77606	0.353
3.81581	0.306
3.85557	0.341
3.89532	0.341
3.93507	0.296
3.97482	0.328
4.01457	0.396
4.05432	0.449
4.09407	0.472
4.13383	0.51
4.17358	0.537
4.21333	0.585
4.25308	0.585
4.29283	0.597
4.33258	0.648
4.37233	0.708
4.41209	0.742
4.45184	0.747
4.49159	0.751
4.53134	0.774
4.57109	0.809
4.61084	0.825
4.65059	0.854
4.69035	0.857
4.7301	0.854
4.76985	0.877
4.8096	0.888
4.84935	0.903
4.8891	0.922
4.92885	0.938
4.96861	0.938
5.00836	0.925
5.04811	0.938
5.08786	0.917
5.12761	0.96
5.16736	0.933
5.20711	0.966
5.24687	0.95
5.28662	0.968
5.32637	0.96
5.36612	0.955
5.40587	0.961
5.44562	0.943
5.48537	0.902
5.52513	0.847
5.56488	0.794
5.60463	0.781
5.64438	0.661
5.68413	0.339
5.72388	0.087
5.76363	0.16
5.80339	0.381
5.84314	0.426
5.88289	0.212
5.92264	0.053
5.96239	0.044
6.00214	0.101
6.04189	0.2
6.08165	0.331
6.1214	0.442
6.16115	0.409
6.2009	0.067
6.24065	0.336
6.2804	0.361
6.32015	0.504
6.35991	0.58
6.39966	0.666
6.43941	0.648
6.47916	0.679
6.51891	0.646
6.55866	0.62
6.59841	0.573
6.63817	0.462
6.67792	0.285
6.71767	0.147
6.75742	0.263
6.79717	0.044
6.83692	0.081
6.87667	0.084
6.91643	0.061
6.95618	0.15
6.99593	0.301
7.03568	0.432
7.07543	0.55
7.11518	0.538
7.15493	0.391
7.19469	0.17
7.23444	0.064
7.27419	0.046
7.31394	0.048
7.35369	0.074
7.39344	0.089
7.43319	0.061
7.47294	0.064
7.5127	0.14
7.55245	0.207
7.5922	0.273
7.63195	0.29
7.6717	0.32
7.71145	0.348
7.7512	0.424
7.79096	0.505
7.83071	0.525
7.87046	0.495
7.91021	0.373
7.94996	0.23
7.98971	0.177
8.02946	0.111
8.06922	0.048
8.10897	0.053
8.14872	0.077
8.18847	0.049
8.22822	0.071
8.26797	0.126
8.30772	0.185
8.34748	0.233
8.38723	0.268
8.42698	0.31
8.46673	0.373
8.50648	0.414
8.54623	0.389
8.58598	0.203
8.62574	0.235
8.66549	0.373
8.70524	0.457
8.74499	0.502
8.78474	0.368
8.82449	0.315
8.86424	0.464
8.904	0.55
8.94375	0.587
8.9835	0.577
9.02325	0.407
9.063	0.442
9.10275	0.56
9.1425	0.611
9.18226	0.638
9.22201	0.658
9.26176	0.671
9.30151	0.684
9.34126	0.679
9.38101	0.587
9.42076	0.271
9.46052	0.122
9.50027	0.271
9.54002	0.407
9.57977	0.47
9.61952	0.475
9.65927	0.456
9.69902	0.52
9.73878	0.565
9.77853	0.59
9.81828	0.601
9.85803	0.62
9.89778	0.623
9.93753	0.633
9.97728	0.636
10.017	0.635
10.0568	0.636
10.0965	0.638
10.1363	0.63
10.176	0.625
10.2158	0.615
10.2555	0.601
10.2953	0.585
10.335	0.577
10.3748	0.577
10.4146	0.57
10.4543	0.558
10.4941	0.533
10.5338	0.514
10.5736	0.5
10.6133	0.472
10.6531	0.446
10.6928	0.434
10.7326	0.419
10.7723	0.407
10.8121	0.417
10.8518	0.441
10.8916	0.461
10.9313	0.485
10.9711	0.524
11.0108	0.542
11.0506	0.537
11.0903	0.555
11.1301	0.588
11.1698	0.608
11.2096	0.626
11.2493	0.648
11.2891	0.668
11.3288	0.684
11.3686	0.701
11.4083	0.716
11.4481	0.723
11.4878	0.734
11.5276	0.739
11.5673	0.733
11.6071	0.733
11.6468	0.734
11.6866	0.729
11.7263	0.714
11.7661	0.663
11.8059	0.555
11.8456	0.451
11.8854	0.479
11.9251	0.565
11.9649	0.628
12.0046	0.678
12.0444	0.699
12.0841	0.719
12.1239	0.734
12.1636	0.741
12.2034	0.744
12.2431	0.744
12.2829	0.739
12.3226	0.728
12.3624	0.696
12.4021	0.628
12.4419	0.479
12.4816	0.409
12.5214	0.595
12.5611	0.706
12.6009	0.658
12.6406	0.583
12.6804	0.605
12.7201	0.552
12.7599	0.456
12.7996	0.475
12.8394	0.494
12.8791	0.469
12.9189	0.394
12.9586	0.306
12.9984	0.218
13.0381	0.154
13.0779	0.116
13.1176	0.099
13.1574	0.109
13.1971	0.147
13.2369	0.21
13.2767	0.285
13.3164	0.363
13.3562	0.431
13.3959	0.48
13.4357	0.52
13.4754	0.553
13.5152	0.58
13.5549	0.6
13.5947	0.615
13.6344	0.633
13.6742	0.645
13.7139	0.663
13.7537	0.668
13.7934	0.679
13.8332	0.688
13.8729	0.696
13.9127	0.701
13.9524	0.723
13.9922	0.754
14.0319	0.777
14.0717	0.799
14.1114	0.809
14.1512	0.819
14.1909	0.825
14.2307	0.824
14.2704	0.82
14.3102	0.81
14.3499	0.784
14.3897	0.744
14.4294	0.669
14.4692	0.563
14.5089	0.457
14.5487	0.396
14.5884	0.389
14.6282	0.447
14.668	0.514
14.7077	0.572
14.7475	0.613
14.7872	0.62
14.827	0.635
14.8667	0.64
14.9065	0.646
14.9462	0.635
14.986	0.611
15.0257	0.567
15.0655	0.529
15.1052	0.51
15.145	0.533
15.1847	0.57
15.2245	0.598
15.2642	0.608
15.304	0.616
15.3437	0.621
15.3835	0.625
15.4232	0.62
15.463	0.608
15.5027	0.588
15.5425	0.56
15.5822	0.543
15.622	0.53
15.6617	0.519
15.7015	0.515
15.7412	0.524
15.781	0.538
15.8207	0.55
15.8605	0.553
15.9002	0.553
15.94	0.548
15.9797	0.547
