Infrared Spectrum: PYRROLE, 1-PHENYL-
Formula: C10 H9 N
CAS: 635-90-5
State: SOLUTION (10% CCl4 FOR 3800-1340, 10% CS2 FOR 1340-400 CM^-^1)
Melting point: 60 C
Class: COBLENTZ III
Instrument: DOW KBr FOREPRISM-GRATING
Instrument parameters: BLAZED AT 3.5, 12.0, 20.0 MICRON AND CHANGED AT 5.0, 7.5, 14.9 MICRON
Sampling: TRANSMISSION
Path length: 0.012 CM, 0.011 CM
Resolution: 2
Origin: DOW CHEMICAL COMPANY
1/CM	TRANSMITTANCE
3796	0.9415
3787	0.9403
3778	0.9378
3769	0.9363
3760	0.9366
3751	0.9352
3742	0.9371
3733	0.939
3724	0.9413
3715	0.9389
3706	0.9366
3697	0.9313
3688	0.931
3679	0.9304
3670	0.9337
3661	0.9321
3652	0.9326
3643	0.9337
3634	0.9349
3625	0.9379
3616	0.9377
3607	0.9378
3598	0.9356
3589	0.9338
3580	0.9284
3571	0.9287
3562	0.9296
3553	0.9304
3544	0.9315
3535	0.9326
3526	0.93
3517	0.9291
3508	0.9281
3499	0.9271
3490	0.9258
3481	0.9245
3472	0.923
3463	0.9214
3454	0.919
3445	0.9108
3436	0.898
3427	0.891
3418	0.8936
3409	0.8978
3400	0.902
3391	0.9044
3382	0.9058
3373	0.9044
3364	0.9072
3355	0.9095
3346	0.9119
3337	0.9157
3328	0.9143
3319	0.9156
3310	0.9194
3301	0.9178
3292	0.9181
3283	0.9196
3274	0.9184
3265	0.9177
3256	0.9151
3247	0.9171
3238	0.9164
3229	0.9151
3220	0.9136
3211	0.9117
3202	0.9072
3193	0.9079
3184	0.9029
3175	0.8997
3166	0.8944
3157	0.8871
3148	0.8526
3139	0.8464
3130	0.8533
3121	0.7872
3112	0.6836
3103	0.7547
3094	0.7502
3085	0.6235
3076	0.6168
3067	0.6729
3058	0.7002
3049	0.5418
3040	0.6382
3031	0.7731
3022	0.8077
3013	0.8409
3004	0.873
2995	0.8845
2986	0.8862
2977	0.8852
2968	0.8902
2959	0.8947
2950	0.8962
2941	0.8913
2932	0.8845
2923	0.8803
2914	0.8765
2905	0.878
2896	0.8862
2887	0.8877
2878	0.8881
2869	0.8884
2860	0.8886
2851	0.8856
2842	0.8847
2833	0.8765
2824	0.8878
2815	0.8994
2806	0.9018
2797	0.8982
2788	0.9033
2779	0.9054
2770	0.9045
2761	0.9054
2752	0.9039
2743	0.905
2734	0.905
2725	0.9046
2716	0.9042
2707	0.906
2698	0.9074
2689	0.904
2680	0.8983
2671	0.895
2662	0.8889
2653	0.8441
2644	0.8658
2635	0.8727
2626	0.8916
2617	0.8974
2608	0.8983
2599	0.8875
2590	0.8686
2581	0.89
2572	0.8976
2563	0.9078
2554	0.912
2545	0.9116
2536	0.9041
2527	0.904
2518	0.9066
2509	0.9015
2500	0.8957
2491	0.9054
2482	0.9061
2473	0.9046
2464	0.9022
2455	0.8997
2446	0.9036
2437	0.9055
2428	0.9086
2419	0.9112
2410	0.9126
2401	0.916
2392	0.9167
2383	0.9212
2374	0.9238
2365	0.9211
2356	0.9286
2347	0.9311
2338	0.9285
2329	0.9304
2320	0.9339
2311	0.9357
2302	0.9357
2293	0.9309
2284	0.9228
2275	0.9137
2266	0.9213
2257	0.916
2248	0.9174
2239	0.919
2230	0.9187
2221	0.9151
2212	0.9116
2203	0.9076
2194	0.8944
2185	0.902
2176	0.9147
2167	0.9155
2158	0.916
2149	0.905
2140	0.9008
2131	0.9145
2122	0.9114
2113	0.9128
2104	0.9152
2095	0.9164
2086	0.9169
2077	0.9165
2068	0.9154
2059	0.9135
2050	0.9134
2041	0.9081
2032	0.905
2023	0.9101
2014	0.9235
2005	0.9291
1996	0.9326
1987	0.9384
1978	0.9328
1969	0.92
1960	0.8817
1951	0.8886
1942	0.8266
1933	0.9011
1924	0.9193
1915	0.9275
1906	0.9338
1897	0.9309
1888	0.9109
1879	0.8853
1870	0.8689
1861	0.8678
1852	0.893
1843	0.9118
1834	0.9243
1825	0.9312
1816	0.9324
1807	0.8974
1798	0.8868
1789	0.8794
1780	0.8917
1771	0.9009
1762	0.9042
1753	0.902
1744	0.8663
1735	0.7955
1726	0.7406
1717	0.8046
1708	0.8221
1699	0.7102
1690	0.641
1681	0.8353
1672	0.8642
1663	0.8677
1654	0.87
1645	0.8708
1636	0.8667
1627	0.8153
1618	0.5567
1609	0.0469
1600	0.1565
1591	0.5315
1582	0.771
1573	0.7863
1564	0.6155
1555	0.4677
1546	0.7743
1537	0.7855
1528	0.5521
1519	0.0168
1510	0.0089
1501	0.0707
1492	0.4696
1483	0.2895
1474	0.5824
1465	0.4578
1456	0.6872
1447	0.7538
1438	0.7254
1429	0.7545
1420	0.6622
1411	0.6212
1402	0.65
1393	0.7264
1384	0.7785
1375	0.8016
1366	0.7963
1357	0.806
1348	0.7384
1339	0.5882
1330	0.0095
1321	0.3761
1312	0.5931
1303	0.6946
1294	0.7645
1285	0.8028
1276	0.8373
1267	0.8449
1258	0.8161
1249	0.7649
1240	0.826
1231	0.8277
1222	0.8495
1213	0.8383
1204	0.8533
1195	0.8439
1186	0.7581
1177	0.6629
1168	0.8367
1159	0.7778
1150	0.8443
1141	0.858
1132	0.8419
1123	0.3949
1114	0.7658
1105	0.8072
1096	0.8308
1087	0.7199
1078	0.2154
1069	0.3058
1060	0.7279
1051	0.8349
1042	0.8382
1033	0.7539
1024	0.5833
1015	0.5689
1006	0.8179
997	0.7992
988	0.8681
979	0.8592
970	0.8608
961	0.8669
952	0.8869
943	0.8905
934	0.8689
925	0.0991
916	0.8089
907	0.7911
898	0.619
889	0.8158
880	0.86
871	0.8639
862	0.9243
853	0.9707
844	0.9357
835	0.8469
826	0.8024
817	0.8543
808	0.8781
799	0.8814
790	0.8689
781	0.8412
772	0.7356
763	0.1061
754	0.2484
745	0.4687
736	0.2589
727	0
718	0.1116
709	0.5101
700	0.3388
691	0.0285
682	0.3236
673	0.8448
664	0.8775
655	0.9153
646	0.9248
637	0.9201
628	0.7321
619	0.8466
610	0.4392
601	0.909
592	0.9491
583	0.9531
574	0.9547
565	0.951
556	0.9487
547	0.9378
538	0.9131
529	0.668
520	0.5034
511	0.8443
502	0.8758
493	0.9011
484	0.9098
475	0.9118
466	0.9056
457	0.8933
448	0.8746
439	0.8494
430	0.8188
421	0.7516
412	0.4831
403	0.296
394	0.1899
