Infrared Spectrum: 1,3-PROPANEDIOL DIISOBUTYRATE, 2,2-DIMETHYL
Formula: C13 H24 O4
CAS: 63512-34-5
Boiling point: 146.5-150 C AT 29-32 mmHg
Class: COBLENTZ
Instrument: Not specified, most likely a prism, grating, or hybrid spectrometer.
Sampling: TRANSMISSION
Path length: SMEAR
Resolution: 4
Origin: TENNESSEE EASTMAN COMPANY, RESEARCH LABORATORIES
MICROMETERS	TRANSMITTANCE
2.041	0.94
2.08191	0.936
2.12283	0.935
2.16374	0.935
2.20466	0.935
2.24557	0.933
2.28649	0.926
2.3274	0.923
2.36832	0.923
2.40923	0.923
2.45015	0.924
2.49106	0.926
2.53198	0.931
2.57289	0.933
2.61381	0.935
2.65472	0.933
2.69564	0.933
2.73655	0.933
2.77747	0.931
2.81838	0.924
2.8593	0.923
2.90021	0.921
2.94113	0.902
2.98204	0.909
3.02295	0.912
3.06387	0.914
3.10478	0.919
3.1457	0.921
3.18661	0.914
3.22753	0.916
3.26844	0.923
3.30936	0.923
3.35027	0.854
3.39119	0.363
3.4321	0.558
3.47302	0.655
3.51393	0.771
3.55485	0.892
3.59576	0.918
3.63668	0.93
3.67759	0.931
3.71851	0.933
3.75942	0.94
3.80034	0.94
3.84125	0.945
3.88217	0.943
3.92308	0.943
3.964	0.947
4.00491	0.947
4.04582	0.947
4.08674	0.95
4.12765	0.952
4.16857	0.952
4.20948	0.948
4.2504	0.953
4.29131	0.955
4.33223	0.943
4.37314	0.935
4.41406	0.945
4.45497	0.95
4.49589	0.953
4.5368	0.955
4.57772	0.957
4.61863	0.957
4.65955	0.957
4.70046	0.957
4.74138	0.957
4.78229	0.957
4.82321	0.957
4.86412	0.955
4.90504	0.955
4.94595	0.955
4.98686	0.955
5.02778	0.959
5.06869	0.959
5.10961	0.957
5.15052	0.959
5.19144	0.96
5.23235	0.96
5.27327	0.959
5.31418	0.962
5.3551	0.96
5.39601	0.95
5.43693	0.953
5.47784	0.948
5.51876	0.938
5.55967	0.93
5.60059	0.911
5.6415	0.854
5.68242	0.75
5.72333	0.469
5.76425	0.09
5.80516	0.203
5.84608	0.556
5.88699	0.757
5.9279	0.795
5.96882	0.839
6.00973	0.868
6.05065	0.895
6.09156	0.912
6.13248	0.912
6.17339	0.921
6.21431	0.923
6.25522	0.931
6.29614	0.94
6.33705	0.947
6.37797	0.941
6.41888	0.94
6.4598	0.935
6.50071	0.919
6.54163	0.914
6.58254	0.899
6.62346	0.902
6.66437	0.882
6.70529	0.848
6.7462	0.629
6.78712	0.447
6.82803	0.549
6.86894	0.634
6.90986	0.73
6.95077	0.81
6.99169	0.851
7.0326	0.861
7.07352	0.853
7.11443	0.829
7.15535	0.767
7.19626	0.583
7.23718	0.544
7.27809	0.631
7.31901	0.604
7.35992	0.682
7.40084	0.802
7.44175	0.721
7.48267	0.646
7.52358	0.73
7.5645	0.793
7.60541	0.802
7.64633	0.81
7.68724	0.815
7.72816	0.796
7.76907	0.79
7.80999	0.778
7.8509	0.725
7.89181	0.619
7.93273	0.508
7.97364	0.462
8.01456	0.496
8.05547	0.556
8.09639	0.585
8.1373	0.59
8.17822	0.566
8.21913	0.52
8.26005	0.459
8.30096	0.387
8.34188	0.286
8.38279	0.259
8.42371	0.279
8.46462	0.382
8.50554	0.486
8.54645	0.392
8.58737	0.247
8.62828	0.184
8.6692	0.172
8.71011	0.221
8.75103	0.315
8.79194	0.431
8.83285	0.494
8.87377	0.505
8.91468	0.5
8.9556	0.52
8.99651	0.571
9.03743	0.612
9.07834	0.588
9.11926	0.552
9.16017	0.564
9.20109	0.532
9.242	0.45
9.28292	0.411
9.32383	0.462
9.36475	0.575
9.40566	0.687
9.44658	0.749
9.48749	0.788
9.52841	0.803
9.56932	0.815
9.61024	0.834
9.65115	0.837
9.69207	0.832
9.73298	0.779
9.77389	0.728
9.81481	0.759
9.85572	0.805
9.89664	0.813
9.93755	0.773
9.97847	0.725
10.0194	0.622
10.0603	0.602
10.1012	0.633
10.1421	0.674
10.183	0.725
10.224	0.771
10.2649	0.822
10.3058	0.834
10.3467	0.843
10.3876	0.841
10.4285	0.849
10.4694	0.853
10.5104	0.841
10.5513	0.827
10.5922	0.827
10.6331	0.822
10.674	0.8
10.7149	0.79
10.7558	0.784
10.7968	0.795
10.8377	0.817
10.8786	0.831
10.9195	0.831
10.9604	0.824
11.0013	0.825
11.0423	0.844
11.0832	0.861
11.1241	0.87
11.165	0.877
11.2059	0.885
11.2468	0.904
11.2877	0.924
11.3287	0.935
11.3696	0.943
11.4105	0.948
11.4514	0.948
11.4923	0.95
11.5332	0.952
11.5741	0.952
11.6151	0.952
11.656	0.947
11.6969	0.938
11.7378	0.931
11.7787	0.926
11.8196	0.921
11.8605	0.918
11.9015	0.914
11.9424	0.912
11.9833	0.912
12.0242	0.912
12.0651	0.911
12.106	0.909
12.147	0.904
12.1879	0.901
12.2288	0.899
12.2697	0.904
12.3106	0.912
12.3515	0.923
12.3924	0.928
12.4334	0.931
12.4743	0.935
12.5152	0.936
12.5561	0.936
12.597	0.936
12.6379	0.936
12.6788	0.935
12.7198	0.933
12.7607	0.928
12.8016	0.923
12.8425	0.907
12.8834	0.897
12.9243	0.889
12.9652	0.885
13.0062	0.878
13.0471	0.86
13.088	0.851
13.1289	0.846
13.1698	0.841
13.2107	0.841
13.2517	0.836
13.2926	0.834
13.3335	0.834
13.3744	0.843
13.4153	0.853
13.4562	0.863
13.4971	0.877
13.5381	0.883
13.579	0.889
13.6199	0.892
13.6608	0.894
13.7017	0.897
13.7426	0.899
13.7835	0.899
13.8245	0.899
13.8654	0.899
13.9063	0.897
13.9472	0.895
13.9881	0.894
14.029	0.892
14.0699	0.89
14.1109	0.887
14.1518	0.885
14.1927	0.883
14.2336	0.88
14.2745	0.878
14.3154	0.873
14.3564	0.872
14.3973	0.868
14.4382	0.866
14.4791	0.865
14.52	0.86
14.5609	0.858
14.6018	0.854
14.6428	0.851
14.6837	0.848
14.7246	0.843
14.7655	0.839
14.8064	0.832
14.8473	0.831
14.8882	0.824
14.9292	0.82
14.9701	0.812
15.011	0.808
15.0519	0.802
15.0928	0.8
15.1337	0.798
15.1746	0.793
15.2156	0.786
15.2565	0.781
15.2974	0.779
15.3383	0.771
15.3792	0.769
15.4201	0.764
15.4611	0.762
15.502	0.757
15.5429	0.75
15.5838	0.747
15.6247	0.745
15.6656	0.744
15.7065	0.74
15.7475	0.733
15.7884	0.733
15.8293	0.732
15.8702	0.728
15.9111	0.728
15.952	0.721
15.9929	0.723
