Infrared Spectrum: Acetic acid, 2,4,6-trimethylbenzyl ester
Formula: C12 H16 O2
CAS: 63548-92-5
State: SOLUTION (10% CCl4 FOR 3800-1335, 10% CS2 FOR 1335-460 CM^-^1)
Class: COBLENTZ III
Instrument: DOW KBr FOREPRISM-GRATING
Instrument parameters: BLAZED AT 3.5, 12.0, 20.0 MICRON AND CHANGED AT 5.0, 7.5, 14.9 MICRON
Sampling: TRANSMISSION
Path length: 0.011 CM, 0.011 CM
Resolution: 2
Origin: DOW CHEMICAL COMPANY
1/CM	TRANSMITTANCE
3800	0.8616
3791	0.8605
3782	0.8593
3773	0.8581
3764	0.8575
3755	0.8575
3746	0.8575
3737	0.8575
3728	0.8578
3719	0.8587
3710	0.8598
3701	0.86
3692	0.8561
3683	0.851
3674	0.8525
3665	0.8553
3656	0.8571
3647	0.8578
3638	0.8575
3629	0.8565
3620	0.8474
3611	0.8341
3602	0.8408
3593	0.8488
3584	0.8514
3575	0.8496
3566	0.845
3557	0.8401
3548	0.8371
3539	0.8364
3530	0.8337
3521	0.8303
3512	0.8304
3503	0.8305
3494	0.8296
3485	0.8256
3476	0.8193
3467	0.8105
3458	0.8041
3449	0.8071
3440	0.814
3431	0.8204
3422	0.8265
3413	0.8309
3404	0.8348
3395	0.8391
3386	0.8437
3377	0.8477
3368	0.8504
3359	0.8531
3350	0.8558
3341	0.8568
3332	0.8581
3323	0.8584
3314	0.8586
3305	0.8585
3296	0.8581
3287	0.8575
3278	0.8568
3269	0.8561
3260	0.8555
3251	0.8551
3242	0.8547
3233	0.8535
3224	0.8532
3215	0.8528
3206	0.852
3197	0.8508
3188	0.8497
3179	0.8484
3170	0.8471
3161	0.8452
3152	0.8433
3143	0.8399
3134	0.8359
3125	0.8337
3116	0.8309
3107	0.8239
3098	0.8115
3089	0.8025
3080	0.7895
3071	0.7755
3062	0.7588
3053	0.7276
3044	0.6811
3035	0.5994
3026	0.5173
3017	0.465
3008	0.4496
2999	0.4521
2990	0.4105
2981	0.3412
2972	0.3247
2963	0.3342
2954	0.33
2945	0.3918
2936	0.3964
2927	0.2872
2918	0.2784
2909	0.3794
2900	0.4793
2891	0.5562
2882	0.5849
2873	0.5888
2864	0.5362
2855	0.6262
2846	0.7032
2837	0.7487
2828	0.7638
2819	0.7731
2810	0.7994
2801	0.8108
2792	0.8201
2783	0.8271
2774	0.8333
2765	0.8389
2756	0.8418
2747	0.8408
2738	0.8045
2729	0.8017
2720	0.839
2711	0.8468
2702	0.8465
2693	0.8485
2684	0.8508
2675	0.8541
2666	0.8568
2657	0.8607
2648	0.862
2639	0.8628
2630	0.8636
2621	0.8636
2612	0.8633
2603	0.8627
2594	0.8625
2585	0.8625
2576	0.8643
2567	0.8667
2558	0.8697
2549	0.8712
2540	0.8696
2531	0.8677
2522	0.8667
2513	0.8668
2504	0.8675
2495	0.867
2486	0.8642
2477	0.858
2468	0.8531
2459	0.8517
2450	0.8564
2441	0.8585
2432	0.8607
2423	0.8632
2414	0.8653
2405	0.8631
2396	0.8611
2387	0.8649
2378	0.8697
2369	0.874
2360	0.8781
2351	0.8812
2342	0.8845
2333	0.8858
2324	0.885
2315	0.874
2306	0.877
2297	0.8798
2288	0.8784
2279	0.8734
2270	0.8702
2261	0.8677
2252	0.8687
2243	0.8706
2234	0.8721
2225	0.8712
2216	0.869
2207	0.8668
2198	0.8662
2189	0.8661
2180	0.866
2171	0.8604
2162	0.8545
2153	0.854
2144	0.8586
2135	0.8603
2126	0.8618
2117	0.8632
2108	0.864
2099	0.8641
2090	0.8637
2081	0.8623
2072	0.8605
2063	0.8561
2054	0.8533
2045	0.8565
2036	0.8584
2027	0.8602
2018	0.861
2009	0.8614
2000	0.8609
1991	0.8609
1982	0.8601
1973	0.8588
1964	0.8566
1955	0.8507
1946	0.8486
1937	0.8474
1928	0.8471
1919	0.8384
1910	0.8396
1901	0.8425
1892	0.8337
1883	0.8277
1874	0.8271
1865	0.8277
1856	0.8287
1847	0.8266
1838	0.8182
1829	0.8061
1820	0.7908
1811	0.7715
1802	0.7471
1793	0.706
1784	0.6418
1775	0.4167
1766	0.1754
1757	0.0529
1748	0.0002
1739	0.0002
1730	0.049
1721	0.4005
1712	0.5362
1703	0.5967
1694	0.6337
1685	0.6976
1676	0.7391
1667	0.7697
1658	0.7735
1649	0.7841
1640	0.7985
1631	0.7985
1622	0.7169
1613	0.3949
1604	0.6904
1595	0.7411
1586	0.6209
1577	0.6825
1568	0.7584
1559	0.7786
1550	0.7807
1541	0.7739
1532	0.7547
1523	0.7415
1514	0.7201
1505	0.6739
1496	0.581
1487	0.4469
1478	0.4601
1469	0.471
1460	0.4062
1451	0.3718
1442	0.3609
1433	0.4026
1424	0.5204
1415	0.5718
1406	0.5948
1397	0.6029
1388	0.4494
1379	0.1656
1370	0.2188
1361	0.3616
1352	0.6468
1343	0.7605
1334	0.7784
1325	0.7508
1316	0.7275
1307	0.6223
1298	0.6122
1289	0.6411
1280	0.5979
1271	0.4412
1262	0.2896
1253	0.1158
1244	0.0255
1235	0.0079
1226	0.0043
1217	0.0364
1208	0.251
1199	0.4229
1190	0.5622
1181	0.6117
1172	0.626
1163	0.5879
1154	0.5003
1145	0.4199
1136	0.4934
1127	0.4966
1118	0.5241
1109	0.5385
1100	0.5886
1091	0.5718
1082	0.5884
1073	0.5889
1064	0.5354
1055	0.4753
1046	0.3657
1037	0.2382
1028	0.1559
1019	0.075
1010	0.1836
1001	0.2026
992	0.3045
983	0.3766
974	0.3545
965	0.1292
956	0.1069
947	0.2191
938	0.2968
929	0.3134
920	0.4308
911	0.5872
902	0.6888
893	0.7433
884	0.7615
875	0.7678
866	0.7622
857	0.4865
848	0.26
839	0.6612
830	0.7441
821	0.8294
812	0.8514
803	0.8547
794	0.8402
785	0.6022
776	0.8139
767	0.8631
758	0.8765
749	0.8831
740	0.8837
731	0.8702
722	0.7065
713	0.8028
704	0.8677
695	0.8768
686	0.8715
677	0.8721
668	0.8723
659	0.8656
650	0.8335
641	0.8468
632	0.7967
623	0.8018
614	0.8034
605	0.599
596	0.7834
587	0.7984
578	0.7176
569	0.7758
560	0.8156
551	0.8106
542	0.7784
533	0.8087
524	0.8151
515	0.8145
506	0.8011
497	0.7514
488	0.7621
479	0.7988
470	0.8061
461	0.7984
