Infrared Spectrum: ANILINE, 4-CHLORO-2,5-DIMETHOXY-
Formula: C8 H10 Cl N O2
CAS: 6358-64-1
State: SOLID (SPLIT MULL), FLUOROLUBE FOR 3800-1330 CM^-^1, NUJOL FOR 1330-450 CM^-^1
Class: COBLENTZ III
Instrument: DOW KBr FOREPRISM-GRATING
Instrument parameters: BLAZED AT 3.5, 12.0, 20.0 MICRON AND CHANGED AT 5.0, 7.5, 14.9 MICRON
Sampling: TRANSMISSION
Resolution: 2
Origin: DOW CHEMICAL COMPANY
1/CM	TRANSMITTANCE
453	0.7687
462	0.7904
471	0.8154
480	0.8378
489	0.8466
498	0.8478
507	0.8639
516	0.8701
525	0.8727
534	0.8727
543	0.8715
552	0.8718
561	0.8757
570	0.8774
579	0.8741
588	0.8687
597	0.8618
606	0.8528
615	0.7906
624	0.8521
633	0.8643
642	0.8478
651	0.793
660	0.7291
669	0.8389
678	0.7924
687	0.7849
696	0.7732
705	0.76
714	0.7547
723	0.6954
732	0.6694
741	0.6912
750	0.6837
759	0.6775
768	0.6987
777	0.7255
786	0.7568
795	0.7681
804	0.7368
813	0.5051
822	0.7703
831	0.7975
840	0.2251
849	0.7124
858	0.8035
867	0.8295
876	0.8374
885	0.8406
894	0.8441
903	0.8473
912	0.851
921	0.8556
930	0.8592
939	0.8598
948	0.8582
957	0.8559
966	0.8515
975	0.8273
984	0.8496
993	0.8458
1002	0.8318
1011	0.8089
1020	0.7458
1029	0.379
1038	0.6358
1047	0.8142
1056	0.7368
1065	0.4264
1074	0.8151
1083	0.8425
1092	0.846
1101	0.8299
1110	0.823
1119	0.8321
1128	0.8342
1137	0.8201
1146	0.8111
1155	0.7939
1164	0.7961
1173	0.756
1182	0.6458
1191	0.6818
1200	0.3957
1209	0.0701
1218	0.1756
1227	0.5691
1236	0.6976
1245	0.7378
1254	0.7326
1263	0.6095
1272	0.7378
1281	0.7826
1290	0.7528
1299	0.6785
1308	0.4473
1317	0.6968
1326	0.7836
1335	0.7801
1344	0.7746
1353	0.7647
1362	0.8011
1371	0.8011
1380	0.7908
1389	0.7675
1398	0.6882
1407	0.4621
1416	0.7547
1425	0.7749
1434	0.6999
1443	0.6881
1452	0.6141
1461	0.561
1470	0.6064
1479	0.6683
1488	0.6661
1497	0.6433
1506	0.4323
1515	0.0876
1524	0.4288
1533	0.7291
1542	0.8399
1551	0.8599
1560	0.8608
1569	0.851
1578	0.8201
1587	0.7372
1596	0.7005
1605	0.7425
1614	0.7101
1623	0.5896
1632	0.7482
1641	0.8517
1650	0.8647
1659	0.846
1668	0.857
1677	0.8675
1686	0.865
1695	0.8625
1704	0.863
1713	0.8707
1722	0.8703
1731	0.8686
1740	0.8665
1749	0.8647
1758	0.8621
1767	0.8591
1776	0.8568
1785	0.8537
1794	0.8518
1803	0.8506
1812	0.8492
1821	0.848
1830	0.847
1839	0.8464
1848	0.846
1857	0.8453
1866	0.8447
1875	0.8433
1884	0.8418
1893	0.8395
1902	0.8368
1911	0.8342
1920	0.8315
1929	0.8313
1938	0.8323
1947	0.8337
1956	0.8358
1965	0.8359
1974	0.8316
1983	0.8288
1992	0.8213
2001	0.8218
2010	0.8192
2019	0.8165
2028	0.8142
2037	0.8124
2046	0.811
2055	0.8097
2064	0.8086
2073	0.8072
2082	0.8065
2091	0.8046
2100	0.8017
2109	0.7984
2118	0.7955
2127	0.7941
2136	0.7926
2145	0.7911
2154	0.7895
2163	0.7874
2172	0.7835
2181	0.7804
2190	0.7771
2199	0.7751
2208	0.7761
2217	0.7751
2226	0.7714
2235	0.7667
2244	0.7624
2253	0.7582
2262	0.7544
2271	0.7507
2280	0.7475
2289	0.7448
2298	0.7426
2307	0.7405
2316	0.7392
2325	0.7392
2334	0.7411
2343	0.7443
2352	0.7467
2361	0.7482
2370	0.7485
2379	0.7481
2388	0.7476
2397	0.7471
2406	0.7465
2415	0.7465
2424	0.748
2433	0.7495
2442	0.7495
2451	0.7488
2460	0.7474
2469	0.7461
2478	0.745
2487	0.7443
2496	0.7442
2505	0.7441
2514	0.7443
2523	0.7444
2532	0.7445
2541	0.7445
2550	0.7448
2559	0.7449
2568	0.7447
2577	0.7421
2586	0.7401
2595	0.739
2604	0.7375
2613	0.7351
2622	0.733
2631	0.7308
2640	0.7287
2649	0.7261
2658	0.7248
2667	0.7242
2676	0.7218
2685	0.7185
2694	0.7164
2703	0.7146
2712	0.714
2721	0.7139
2730	0.7154
2739	0.7165
2748	0.7164
2757	0.7149
2766	0.7115
2775	0.7074
2784	0.7025
2793	0.6972
2802	0.6921
2811	0.6834
2820	0.6687
2829	0.621
2838	0.6312
2847	0.6668
2856	0.6711
2865	0.6681
2874	0.6699
2883	0.6644
2892	0.6521
2901	0.6397
2910	0.6337
2919	0.6315
2928	0.616
2937	0.5817
2946	0.6258
2955	0.6346
2964	0.6062
2973	0.6419
2982	0.6851
2991	0.6796
3000	0.666
3009	0.6468
3018	0.6377
3027	0.6772
3036	0.675
3045	0.6715
3054	0.6678
3063	0.6639
3072	0.6608
3081	0.6594
3090	0.6587
3099	0.6562
3108	0.6531
3117	0.6497
3126	0.6428
3135	0.6341
3144	0.6245
3153	0.6146
3162	0.6048
3171	0.5945
3180	0.5846
3189	0.5778
3198	0.5842
3207	0.5958
3216	0.5973
3225	0.5943
3234	0.5927
3243	0.5941
3252	0.5918
3261	0.5812
3270	0.566
3279	0.5436
3288	0.5179
3297	0.4953
3306	0.4955
3315	0.5135
3324	0.5618
3333	0.5937
3342	0.6075
3351	0.6159
3360	0.6218
3369	0.6164
3378	0.605
3387	0.5819
3396	0.5444
3405	0.4949
3414	0.5254
3423	0.4844
3432	0.5593
3441	0.6085
3450	0.6229
3459	0.6324
3468	0.6376
3477	0.6392
3486	0.6401
3495	0.6404
3504	0.6393
3513	0.6379
3522	0.6362
3531	0.6344
3540	0.632
3549	0.6291
3558	0.6262
3567	0.6237
3576	0.6212
3585	0.6186
3594	0.6162
3603	0.6138
3612	0.6115
3621	0.6095
3630	0.6076
3639	0.6056
3648	0.6046
3657	0.6041
3666	0.6035
3675	0.6023
3684	0.5996
3693	0.5977
3702	0.598
3711	0.5976
3720	0.5973
3729	0.5952
3738	0.5929
3747	0.5909
3756	0.5891
3765	0.5876
3774	0.5862
3783	0.5849
