Infrared Spectrum: 4-NITROPHENYLHYDRAZINE HYDROCHLORIDE
Formula: C6 H7 N3 O2  * H Cl
CAS: 636-99-7
State: SOLID (MINERAL OIL MULL)
Class: COBLENTZ
Instrument: Not specified, most likely a prism, grating, or hybrid spectrometer.
Sampling: TRANSMISSION
Resolution: 4
Origin: DOW CHEMICAL COMPANY
MICROMETERS	TRANSMITTANCE
2.041	0.723
2.08207	0.728
2.12315	0.736
2.16422	0.741
2.2053	0.743
2.24637	0.743
2.28745	0.747
2.32852	0.752
2.3696	0.757
2.41067	0.762
2.45175	0.769
2.49282	0.772
2.53389	0.772
2.57497	0.779
2.61604	0.793
2.65712	0.789
2.69819	0.798
2.73927	0.788
2.78034	0.779
2.82142	0.772
2.86249	0.762
2.90357	0.753
2.94464	0.716
2.98571	0.541
3.02679	0.721
3.06786	0.748
3.10894	0.743
3.15001	0.724
3.19109	0.687
3.23216	0.652
3.27324	0.627
3.31431	0.552
3.35539	0.365
3.39646	0.092
3.43753	0.153
3.47861	0.208
3.51968	0.495
3.56076	0.581
3.60183	0.564
3.64291	0.55
3.68398	0.533
3.72506	0.523
3.76613	0.603
3.80721	0.685
3.84828	0.729
3.88935	0.76
3.93043	0.788
3.9715	0.803
4.01258	0.81
4.05365	0.801
4.09473	0.82
4.1358	0.827
4.17688	0.825
4.21795	0.837
4.25903	0.847
4.3001	0.854
4.34117	0.856
4.38225	0.856
4.42332	0.854
4.4644	0.856
4.50547	0.858
4.54655	0.856
4.58762	0.858
4.6287	0.858
4.66977	0.859
4.71085	0.858
4.75192	0.858
4.79299	0.859
4.83407	0.858
4.87514	0.859
4.91622	0.859
4.95729	0.858
4.99837	0.861
5.03944	0.854
5.08052	0.849
5.12159	0.841
5.16267	0.847
5.20374	0.849
5.24481	0.852
5.28589	0.849
5.32696	0.851
5.36804	0.852
5.40911	0.847
5.45019	0.851
5.49126	0.852
5.53234	0.852
5.57341	0.849
5.61449	0.852
5.65556	0.856
5.69663	0.849
5.73771	0.851
5.77878	0.854
5.81986	0.849
5.86093	0.846
5.90201	0.839
5.94308	0.834
5.98416	0.827
6.02523	0.818
6.06631	0.813
6.10738	0.794
6.14845	0.736
6.18953	0.514
6.2306	0.328
6.27168	0.605
6.31275	0.647
6.35383	0.567
6.3949	0.531
6.43598	0.492
6.47705	0.485
6.51812	0.446
6.5592	0.43
6.60027	0.57
6.64135	0.569
6.68242	0.528
6.7235	0.485
6.76457	0.56
6.80565	0.502
6.84672	0.497
6.8878	0.62
6.92887	0.712
6.96994	0.772
7.01102	0.791
7.05209	0.81
7.09317	0.81
7.13424	0.8
7.17532	0.755
7.21639	0.659
7.25747	0.639
7.29854	0.699
7.33962	0.69
7.38069	0.521
7.42176	0.264
7.46284	0.15
7.50391	0.446
7.54499	0.581
7.58606	0.652
7.62714	0.738
7.66821	0.758
7.70929	0.77
7.75036	0.784
7.79144	0.789
7.83251	0.758
7.87358	0.69
7.91466	0.611
7.95573	0.666
7.99681	0.786
8.03788	0.808
8.07896	0.8
8.12003	0.791
8.16111	0.813
8.20218	0.823
8.24326	0.823
8.28433	0.801
8.3254	0.782
8.36648	0.77
8.40755	0.81
8.44863	0.823
8.4897	0.818
8.53078	0.81
8.57185	0.8
8.61293	0.781
8.654	0.762
8.69508	0.752
8.73615	0.77
8.77722	0.805
8.8183	0.817
8.85937	0.81
8.90045	0.789
8.94152	0.659
8.9826	0.523
9.02367	0.651
9.06475	0.798
9.10582	0.82
9.1469	0.83
9.18797	0.844
9.22904	0.851
9.27012	0.852
9.31119	0.849
9.35227	0.849
9.39334	0.852
9.43442	0.858
9.47549	0.859
9.51657	0.861
9.55764	0.863
9.59872	0.861
9.63979	0.863
9.68086	0.863
9.72194	0.861
9.76301	0.863
9.80409	0.861
9.84516	0.868
9.88624	0.871
9.92731	0.873
9.96839	0.876
10.0095	0.88
10.0505	0.883
10.0916	0.887
10.1327	0.888
10.1738	0.887
10.2148	0.878
10.2559	0.88
10.297	0.885
10.3381	0.887
10.3791	0.887
10.4202	0.888
10.4613	0.888
10.5024	0.883
10.5434	0.883
10.5845	0.892
10.6256	0.897
10.6667	0.899
10.7077	0.9
10.7488	0.902
10.7899	0.905
10.831	0.907
10.872	0.909
10.9131	0.911
10.9542	0.914
10.9952	0.912
11.0363	0.914
11.0774	0.917
11.1185	0.917
11.1595	0.917
11.2006	0.916
11.2417	0.916
11.2828	0.917
11.3238	0.921
11.3649	0.919
11.406	0.909
11.4471	0.892
11.4881	0.844
11.5292	0.791
11.5703	0.805
11.6114	0.827
11.6524	0.786
11.6935	0.676
11.7346	0.536
11.7757	0.494
11.8167	0.728
11.8578	0.823
11.8989	0.868
11.94	0.878
11.981	0.887
12.0221	0.882
12.0632	0.876
12.1043	0.875
12.1453	0.876
12.1864	0.864
12.2275	0.834
12.2686	0.805
12.3096	0.803
12.3507	0.82
12.3918	0.847
12.4329	0.878
12.4739	0.897
12.515	0.904
12.5561	0.911
12.5972	0.916
12.6382	0.919
12.6793	0.919
12.7204	0.919
12.7615	0.919
12.8025	0.914
12.8436	0.914
12.8847	0.911
12.9258	0.909
12.9668	0.904
13.0079	0.902
13.049	0.899
13.0901	0.894
13.1311	0.887
13.1722	0.878
13.2133	0.863
13.2543	0.839
13.2954	0.769
13.3365	0.647
13.3776	0.589
13.4186	0.7
13.4597	0.82
13.5008	0.842
13.5419	0.849
13.5829	0.854
13.624	0.851
13.6651	0.849
13.7062	0.846
13.7472	0.839
13.7883	0.834
13.8294	0.83
13.8705	0.832
13.9115	0.837
13.9526	0.839
13.9937	0.841
14.0348	0.839
14.0758	0.835
14.1169	0.835
14.158	0.832
14.1991	0.829
14.2401	0.82
14.2812	0.813
14.3223	0.803
14.3634	0.789
14.4044	0.769
14.4455	0.748
14.4866	0.735
14.5277	0.731
14.5687	0.735
14.6098	0.743
14.6509	0.75
14.692	0.752
14.733	0.755
14.7741	0.758
14.8152	0.765
14.8563	0.767
14.8973	0.769
14.9384	0.77
14.9795	0.779
15.0206	0.782
15.0616	0.781
15.1027	0.777
15.1438	0.776
15.1849	0.774
15.2259	0.772
15.267	0.769
15.3081	0.762
15.3492	0.758
15.3902	0.752
15.4313	0.747
15.4724	0.741
15.5134	0.735
15.5545	0.728
15.5956	0.719
15.6367	0.712
15.6777	0.704
15.7188	0.699
15.7599	0.688
15.801	0.682
