Infrared Spectrum: Thiophene-2-methanol
Formula: C 5 H 6 O S
CAS: 636-72-6
State: gas
Origin: EPA-IR VAPOR PHASE LIBRARY
1/CM	ABSORBANCE
549.9	0.0009853
559.547	0.0014213
569.193	0.0009231
578.84	0.0010517
588.486	0.0012298
598.133	0.0012249
607.779	0.0013759
617.426	0.0014027
627.072	0.001355
636.719	0.0013385
646.365	0.0012866
656.012	0.0015365
665.658	0.002511
675.305	0.005271
684.951	0.008551
694.598	0.016351
704.245	0.010361
713.891	0.007371
723.538	0.003461
733.184	0.001881
742.831	0.0014496
752.477	0.0012608
762.124	0.001036
771.77	0.0009423
781.417	0.00103
791.063	0.0010531
800.71	0.001391
810.356	0.002151
820.003	0.003391
829.649	0.003331
839.296	0.003511
848.943	0.003181
858.589	0.002731
868.236	0.001911
877.882	0.0011603
887.529	0.0010254
897.175	0.0009336
906.822	0.0010846
916.468	0.0010971
926.115	0.0012672
935.761	0.0015299
945.408	0.001901
955.054	0.002601
964.701	0.003271
974.347	0.004301
983.994	0.005791
993.64	0.007841
1003.29	0.010271
1012.93	0.012291
1022.58	0.011671
1032.23	0.008791
1041.87	0.005411
1051.52	0.003581
1061.17	0.002511
1070.81	0.001811
1080.46	0.0015241
1090.11	0.0013313
1099.75	0.0012692
1109.4	0.0012466
1119.05	0.0015894
1128.69	0.002091
1138.34	0.002731
1147.99	0.003211
1157.63	0.003431
1167.28	0.003271
1176.92	0.003011
1186.57	0.002851
1196.22	0.002891
1205.86	0.002911
1215.51	0.003041
1225.16	0.003251
1234.8	0.003221
1244.45	0.002861
1254.1	0.002481
1263.74	0.002131
1273.39	0.001961
1283.04	0.001861
1292.68	0.001741
1302.33	0.001761
1311.98	0.001791
1321.62	0.001771
1331.27	0.001751
1340.92	0.001881
1350.56	0.002381
1360.21	0.003461
1369.86	0.004981
1379.5	0.006131
1389.15	0.005781
1398.79	0.004361
1408.44	0.002851
1418.09	0.002081
1427.73	0.001921
1437.38	0.001661
1447.03	0.0014112
1456.67	0.0010368
1466.32	0.000818
1475.97	0.000764
1485.61	0.00064247
1495.26	0.00062378
1504.91	0.00068014
1514.55	0.0008725
1524.2	0.0010356
1533.85	0.0010797
1543.49	0.0009108
1553.14	0.0005671
1562.79	0.0005589
1572.43	0.000619385
1582.08	0.0007198
1591.73	0.00067383
1601.37	0.0005662
1611.02	0.00043
1620.67	0.000417
1630.31	0.000486
1639.96	0.0005737
1649.6	0.0005454
1659.25	0.00060132
1668.9	0.000352
1678.54	0.00036
1688.19	0.000484
1697.84	0.000523
1707.48	0.0007255
1717.13	0.0005882
1726.78	0.000476
1736.42	0.000312
1746.07	0.000397
1755.72	0.000436
1765.36	0.000488
1775.01	0.00065908
1784.66	0.0006507
1794.3	0.0005829
1803.95	0.000464
1813.6	0.000426
1823.24	0.000396
1832.89	0.000332
1842.54	0.000377
1852.18	0.000388
1861.83	0.000347
1871.47	0.000285
1881.12	0.000406
1890.77	0.000411
1900.41	0.000441
1910.06	0.000374
1919.71	0.000356
1929.35	0.000369
1939	0.000328
1948.65	0.000415
1958.29	0.000395
1967.94	0.0004
1977.59	0.000412
1987.23	0.000501
1996.88	0.000511
2006.53	0.000514
2016.17	0.00045
2025.82	0.000472
2035.47	0.000466
2045.11	0.000455
2054.76	0.000463
2064.41	0.000451
2074.05	0.000471
2083.7	0.00044
2093.35	0.000529
2102.99	0.000421
2112.64	0.0005311
2122.28	0.00048
2131.93	0.000466
2141.58	0.000483
2151.22	0.000456
2160.87	0.000458
2170.52	0.0005
2180.16	0.000469
2189.81	0.000449
2199.46	0.000403
2209.1	0.000439
2218.75	0.000443
2228.4	0.000398
2238.04	0.000466
2247.69	0.000413
2257.34	0.000447
2266.98	0.000522
2276.63	0.000458
2286.28	0.000484
2295.92	0.0005194
2305.57	0.000443
2315.22	0.000423
2324.86	0.000453
2334.51	0.000437
2344.16	0.000445
2353.8	0.000446
2363.45	0.000426
2373.09	0.000421
2382.74	0.000488
2392.39	0.00048
2402.03	0.000481
2411.68	0.000516
2421.33	0.000472
2430.97	0.000464
2440.62	0.000471
2450.27	0.0005254
2459.91	0.000467
2469.56	0.000509
2479.21	0.000503
2488.85	0.000467
2498.5	0.000445
2508.15	0.000497
2517.79	0.000497
2527.44	0.00060315
2537.09	0.0005133
2546.73	0.000456
2556.38	0.000555
2566.03	0.0005507
2575.67	0.0005483
2585.32	0.0005323
2594.96	0.0005452
2604.61	0.000495
2614.26	0.0005392
2623.9	0.0005488
2633.55	0.0005882
2643.2	0.00063209
2652.84	0.0005975
2662.49	0.000612018
2672.14	0.0005241
2681.78	0.00054
2691.43	0.0005845
2701.08	0.00069286
2710.72	0.000611608
2720.37	0.0006718
2730.02	0.0005964
2739.66	0.00065465
2749.31	0.00069291
2758.96	0.0007606
2768.6	0.00070299
2778.25	0.0007047
2787.9	0.0008588
2797.54	0.0007942
2807.19	0.0009255
2816.84	0.0010127
2826.48	0.0011981
2836.13	0.0015124
2845.77	0.001841
2855.42	0.002301
2865.07	0.002931
2874.71	0.003571
2884.36	0.003991
2894.01	0.003761
2903.65	0.003551
2913.3	0.003281
2922.95	0.003331
2932.59	0.003601
2942.24	0.003541
2951.89	0.003281
2961.53	0.002741
2971.18	0.001911
2980.83	0.0013579
2990.47	0.0010996
3000.12	0.0009287
3009.77	0.0007421
3019.41	0.00067886
3029.06	0.00066474
3038.71	0.0007956
3048.35	0.0009088
3058	0.0010368
3067.64	0.0014076
3077.29	0.001691
3086.94	0.001851
3096.58	0.0014278
3106.23	0.0011453
3115.88	0.0008744
3125.52	0.00064966
3135.17	0.00065244
3144.82	0.000277
3154.46	0.000485
3164.11	0.000383
3173.76	0.000458
3183.4	0.000417
3193.05	0.000336
3202.7	0.000321
3212.34	0.00022
3221.99	0.000266
3231.64	0.000173
3241.28	0.000101
3250.93	0.000447
3260.58	0.000207
3270.22	0.000325
3279.87	0.000218
3289.52	0.00018
3299.16	0.000222
3308.81	6.3e-05
3318.45	0.000168
3328.1	0.000125
3337.75	0.000162
3347.39	0.000318
3357.04	0.000137
3366.69	2.4e-05
3376.33	0.000296
3385.98	0.000166
3395.63	0.000325
3405.27	0.000182
3414.92	0.000328
3424.57	0.000289
3434.21	0.000105
3443.86	0.000294
3453.51	0.000278
3463.15	0.000266
3472.8	0.000296
3482.45	0.000204
3492.09	0.00044
3501.74	0.000347
3511.39	0.000215
3521.03	0.000245
3530.68	0.000194
3540.33	0.000448
3549.97	0.00026
3559.62	0.000335
3569.26	0.000235
3578.91	0.000318
3588.56	0.000269
3598.2	0.000407
3607.85	0.0005464
3617.5	0.0007732
3627.14	0.0010908
3636.79	0.001751
3646.44	0.002811
3656.08	0.002391
3665.73	0.001921
3675.38	0.0012451
3685.02	0.000867
3694.67	0.0007592
3704.32	0.00068692
3713.96	0.0005764
3723.61	0.000465
3733.26	0.000298
3742.9	4.1e-05
3752.55	0.000341
3762.2	0.000308
3771.84	0.000484
3781.49	0.000363
3791.13	0.000416
3800.78	0.000479
3810.43	0.000484
3820.07	0.000436
3829.72	0.000610973
3839.37	0.0005996
3849.01	0.000508
3858.66	0.0005288
3868.31	0.000372
3877.95	0.000337
3887.6	0.00042
3897.25	0.000467
3906.89	0.000421
3916.54	0.000473
3926.19	0.000592
3935.83	0.000619994
3945.48	0.00064881
3955.13	0.0005838
3964.77	0.000449
3974.42	0.000384
3984.07	0.000408
3993.71	0.000372
