Infrared Spectrum: 1-Iodo-4-nitrobenzene
Formula: C6 H4 I N O2
CAS: 636-98-6
State: SOLID (SPLIT MULL)
Class: COBLENTZ III
Instrument: DOW KBr FOREPRISM-GRATING
Instrument parameters: BLAZED AT 3.5, 12.0, 20.0 MICRON AND CHANGED AT 5.0, 7.5, 14.9 MICRON
Sampling: TRANSMISSION
Resolution: 2
Origin: DOW CHEMICAL COMPANY
1/CM	TRANSMITTANCE
3790	0.3018
3781	0.3021
3772	0.3024
3763	0.3032
3754	0.3045
3745	0.3057
3736	0.3073
3727	0.3095
3718	0.3117
3709	0.3137
3700	0.3156
3691	0.3175
3682	0.3189
3673	0.32
3664	0.3214
3655	0.3224
3646	0.323
3637	0.3236
3628	0.3241
3619	0.3241
3610	0.3241
3601	0.3241
3592	0.3245
3583	0.3247
3574	0.325
3565	0.325
3556	0.3248
3547	0.3246
3538	0.3245
3529	0.3247
3520	0.3252
3511	0.3256
3502	0.3259
3493	0.3264
3484	0.3266
3475	0.3266
3466	0.3268
3457	0.3268
3448	0.3268
3439	0.3268
3430	0.3274
3421	0.3278
3412	0.3284
3403	0.3296
3394	0.3309
3385	0.3321
3376	0.3334
3367	0.3354
3358	0.3384
3349	0.3416
3340	0.3447
3331	0.3476
3322	0.3505
3313	0.3532
3304	0.3562
3295	0.359
3286	0.3618
3277	0.365
3268	0.3689
3259	0.3728
3250	0.3768
3241	0.3807
3232	0.3845
3223	0.3882
3214	0.3927
3205	0.3968
3196	0.4006
3187	0.4032
3178	0.4043
3169	0.406
3160	0.4088
3151	0.4132
3142	0.4181
3133	0.424
3124	0.4309
3115	0.4347
3106	0.4369
3097	0.4098
3088	0.3037
3079	0.3256
3070	0.3682
3061	0.401
3052	0.4084
3043	0.417
3034	0.4291
3025	0.4372
3016	0.4387
3007	0.4368
2998	0.4379
2989	0.4445
2980	0.4488
2971	0.45
2962	0.4549
2953	0.4551
2944	0.4552
2935	0.4552
2926	0.4555
2917	0.4557
2908	0.4562
2899	0.4605
2890	0.4664
2881	0.472
2872	0.4768
2863	0.4784
2854	0.4781
2845	0.4766
2836	0.4762
2827	0.4788
2818	0.4848
2809	0.492
2800	0.4993
2791	0.5049
2782	0.5092
2773	0.511
2764	0.511
2755	0.5121
2746	0.5144
2737	0.5174
2728	0.5212
2719	0.5256
2710	0.5297
2701	0.5336
2692	0.5364
2683	0.5382
2674	0.5398
2665	0.542
2656	0.5452
2647	0.5483
2638	0.5514
2629	0.5548
2620	0.5589
2611	0.5626
2602	0.5643
2593	0.5673
2584	0.5718
2575	0.5747
2566	0.5739
2557	0.5746
2548	0.5772
2539	0.5802
2530	0.5834
2521	0.5859
2512	0.5883
2503	0.5906
2494	0.5929
2485	0.5952
2476	0.5975
2467	0.6007
2458	0.6034
2449	0.6023
2440	0.5962
2431	0.5962
2422	0.5995
2413	0.6042
2404	0.6077
2395	0.6115
2386	0.6145
2377	0.616
2368	0.6239
2359	0.6185
2350	0.6133
2341	0.6191
2332	0.6227
2323	0.6254
2314	0.6282
2305	0.6312
2296	0.6332
2287	0.6296
2278	0.6312
2269	0.6373
2260	0.6424
2251	0.6471
2242	0.6525
2233	0.6561
2224	0.6593
2215	0.6622
2206	0.6637
2197	0.6661
2188	0.6701
2179	0.6743
2170	0.6783
2161	0.6819
2152	0.6856
2143	0.6891
2134	0.6928
2125	0.6965
2116	0.6997
2107	0.7022
2098	0.7067
2089	0.7131
2080	0.7175
2071	0.7208
2062	0.724
2053	0.7269
2044	0.7301
2035	0.7331
2026	0.7355
2017	0.7376
2008	0.7395
1999	0.7415
1990	0.7574
1981	0.7678
1972	0.7721
1963	0.7764
1954	0.7882
1945	0.7771
1936	0.7821
1927	0.77
1918	0.7339
1909	0.769
1900	0.7846
1891	0.7886
1882	0.7924
1873	0.7957
1864	0.7987
1855	0.8021
1846	0.8044
1837	0.8057
1828	0.8075
1819	0.8082
1810	0.7976
1801	0.7925
1792	0.7908
1783	0.7791
1774	0.7949
1765	0.808
1756	0.8154
1747	0.8196
1738	0.8212
1729	0.8213
1720	0.8135
1711	0.8271
1702	0.8309
1693	0.8302
1684	0.8288
1675	0.8258
1666	0.8081
1657	0.8058
1648	0.8075
1639	0.8207
1630	0.8208
1621	0.8342
1612	0.8496
1603	0.8432
1594	0.32
1585	0.7551
1576	0.5378
1567	0.4606
1558	0.624
1549	0.7343
1540	0.783
1531	0.7144
1522	0.2938
1513	0.0415
1504	0.2502
1495	0.4352
1486	0.6542
1477	0.7131
1468	0.5202
1459	0.725
1450	0.7733
1441	0.7851
1432	0.7908
1423	0.8072
1414	0.7945
1405	0.8101
1396	0.8484
1387	0.7939
1378	0.8534
1369	0.8278
1360	0.425
1351	0.104
1342	0.029
1333	0.1926
1324	0.3648
1315	0.4068
1306	0.2211
1297	0.4546
1288	0.5091
1279	0.5062
1270	0.4657
1261	0.5402
1252	0.5957
1243	0.628
1234	0.6465
1225	0.6617
1216	0.6758
1207	0.6895
1198	0.6868
1189	0.6836
1180	0.5253
1171	0.6441
1162	0.6819
1153	0.6949
1144	0.71
1135	0.7272
1126	0.7441
1117	0.7578
1108	0.6724
1099	0.5929
1090	0.6686
1081	0.7081
1072	0.7131
1063	0.7506
1054	0.3434
1045	0.6603
1036	0.7108
1027	0.7388
1018	0.7708
1009	0.1774
1000	0.679
991	0.7205
982	0.7421
973	0.7461
964	0.7494
955	0.7218
946	0.7655
937	0.769
928	0.7695
919	0.7717
910	0.7756
901	0.7837
892	0.7931
883	0.8049
874	0.8172
865	0.8305
856	0.8217
847	0.2853
838	0.2024
829	0.683
820	0.7537
811	0.785
802	0.7867
793	0.8004
784	0.8065
775	0.8093
766	0.8101
757	0.8062
748	0.7965
739	0.719
730	0.5635
721	0.7453
712	0.7996
703	0.828
694	0.8484
685	0.8562
676	0.7048
667	0.8194
658	0.8512
649	0.8583
640	0.8592
631	0.86
622	0.8583
613	0.8471
604	0.8611
595	0.8635
586	0.8635
577	0.8621
568	0.8615
559	0.8621
550	0.8625
541	0.8625
532	0.8623
523	0.828
514	0.7998
505	0.841
496	0.8473
487	0.8508
478	0.8505
469	0.8438
460	0.7708
451	0.7598
442	0.7588
433	0.7575
