Infrared Spectrum: ISOPHTHALIC ACID, DIETHYL ESTER
Formula: C12 H14 O4
CAS: 636-53-3
State: SOLUTION (10% CCl4 FOR 3800-1330, 10% CS2 FOR 1330-400 CM^-^1)
Class: COBLENTZ III
Instrument: BECKMAN IR-9 (GRATING)
Instrument parameters: ORDER CHANGES: 670, 1200, 2000 CM^-^1
Sampling: TRANSMISSION
Path length: 0.011 CM, 0.011 CM
Resolution: 2
Origin: DOW CHEMICAL COMPANY
1/CM	TRANSMITTANCE
400	0.2659
409	0.2368
418	0.3629
427	0.49
436	0.5674
445	0.6316
454	0.6894
463	0.7338
472	0.7601
481	0.7708
490	0.7814
499	0.8024
508	0.8261
517	0.8357
526	0.8355
535	0.8344
544	0.8448
553	0.8547
562	0.8612
571	0.8657
580	0.8686
589	0.8709
598	0.8728
607	0.874
616	0.8737
625	0.8723
634	0.8646
643	0.8416
652	0.6278
661	0.8265
670	0.843
679	0.7935
688	0.8578
697	0.8375
706	0.5253
715	0.4809
724	0.265
733	0.0001
742	0.5531
751	0.753
760	0.8215
769	0.8289
778	0.7905
787	0.7583
796	0.7899
805	0.8178
814	0.8298
823	0.7906
832	0.7794
841	0.7757
850	0.7354
859	0.5954
868	0.5132
877	0.6604
886	0.775
895	0.8245
904	0.7972
913	0.7126
922	0.6684
931	0.7011
940	0.6794
949	0.8119
958	0.8425
967	0.8443
976	0.8377
985	0.8071
994	0.7471
1003	0.5518
1012	0.3755
1021	0.1634
1030	0.1627
1039	0.5381
1048	0.7321
1057	0.7451
1066	0.5627
1075	0.0822
1084	0.2852
1093	0.0533
1102	0.1144
1111	0.3359
1120	0.3299
1129	0.0937
1138	0.1087
1147	0.3553
1156	0.4198
1165	0.1913
1174	0.2943
1183	0.5443
1192	0.5788
1201	0.5644
1210	0.4476
1219	0.2077
1228	0.0142
1237	0.0005
1246	0.0001
1255	0.1055
1264	0.3113
1273	0.3509
1282	0.2281
1291	0.1039
1300	0.0081
1309	0.0006
1318	0.3073
1327	0.4865
1336	0.6007
1345	0.7075
1354	0.7092
1363	0.2845
1372	0.2299
1381	0.6132
1390	0.3582
1399	0.5509
1408	0.6467
1417	0.699
1426	0.681
1435	0.4143
1444	0.3699
1453	0.5239
1462	0.4059
1471	0.4673
1480	0.4029
1489	0.6658
1498	0.716
1507	0.6953
1516	0.6425
1525	0.6202
1534	0.578
1543	0.5044
1552	0.4519
1561	0.4564
1570	0.5284
1579	0.5665
1588	0.5196
1597	0.621
1606	0.5309
1615	0.6099
1624	0.7396
1633	0.7765
1642	0.7775
1651	0.7646
1660	0.7468
1669	0.7136
1678	0.6235
1687	0.569
1696	0.5157
1705	0.2061
1714	0.0107
1723	0.0001
1732	0.0002
1741	0.151
1750	0.3996
1759	0.5939
1768	0.6711
1777	0.6996
1786	0.7288
1795	0.7607
1804	0.7828
1813	0.8054
1822	0.8231
1831	0.8397
1840	0.8553
1849	0.8559
1858	0.8515
1867	0.844
1876	0.8371
1885	0.8353
1894	0.8409
1903	0.8592
1912	0.8711
1921	0.8585
1930	0.8312
1939	0.8438
1948	0.8583
1957	0.8603
1966	0.8565
1975	0.8452
1984	0.8466
1993	0.8599
2002	0.8605
2011	0.8615
2020	0.8645
2029	0.8697
2038	0.8738
2047	0.8773
2056	0.8809
2065	0.8806
2074	0.8775
2083	0.8751
2092	0.8738
2101	0.8739
2110	0.8761
2119	0.8797
2128	0.8828
2137	0.8807
2146	0.8781
2155	0.8786
2164	0.8802
2173	0.8825
2182	0.8854
2191	0.888
2200	0.8895
2209	0.888
2218	0.8859
2227	0.8835
2236	0.8812
2245	0.8793
2254	0.8775
2263	0.8752
2272	0.8747
2281	0.8741
2290	0.8735
2299	0.8727
2308	0.8718
2317	0.8715
2326	0.8713
2335	0.8723
2344	0.8733
2353	0.8748
2362	0.876
2371	0.8763
2380	0.8765
2389	0.8764
2398	0.8765
2407	0.8771
2416	0.8777
2425	0.8833
2434	0.888
2443	0.8891
2452	0.8893
2461	0.8896
2470	0.8901
2479	0.8901
2488	0.8899
2497	0.8895
2506	0.8892
2515	0.888
2524	0.8861
2533	0.8823
2542	0.8808
2551	0.8841
2560	0.8865
2569	0.8868
2578	0.8864
2587	0.8852
2596	0.8824
2605	0.8797
2614	0.8809
2623	0.8866
2632	0.8884
2641	0.889
2650	0.8908
2659	0.8925
2668	0.8938
2677	0.8951
2686	0.8959
2695	0.8959
2704	0.8951
2713	0.89
2722	0.8832
2731	0.8792
2740	0.8764
2749	0.8738
2758	0.8767
2767	0.8727
2776	0.8658
2785	0.8695
2794	0.8723
2803	0.8713
2812	0.8581
2821	0.8514
2830	0.8504
2839	0.8478
2848	0.8417
2857	0.8208
2866	0.7454
2875	0.7035
2884	0.7475
2893	0.6548
2902	0.5627
2911	0.6289
2920	0.6618
2929	0.5499
2938	0.5162
2947	0.5885
2956	0.4914
2965	0.4441
2974	0.2048
2983	0.1896
2992	0.3686
3001	0.5519
3010	0.6533
3019	0.761
3028	0.7906
3037	0.8006
3046	0.8108
3055	0.825
3064	0.8001
3073	0.7508
3082	0.7708
3091	0.8271
3100	0.845
3109	0.8539
3118	0.8595
3127	0.8628
3136	0.8651
3145	0.8666
3154	0.8677
3163	0.8688
3172	0.8697
3181	0.8702
3190	0.8707
3199	0.8715
3208	0.8747
3217	0.8768
3226	0.8793
3235	0.8821
3244	0.884
3253	0.8855
3262	0.8866
3271	0.8874
3280	0.8878
3289	0.8883
3298	0.8884
3307	0.8881
3316	0.8868
3325	0.8853
3334	0.8833
3343	0.8838
3352	0.8863
3361	0.8881
3370	0.8885
3379	0.8882
3388	0.888
3397	0.8866
3406	0.8809
3415	0.8628
3424	0.8455
3433	0.828
3442	0.8324
3451	0.8491
3460	0.869
3469	0.8828
3478	0.8896
3487	0.8937
3496	0.8965
3505	0.8982
3514	0.8981
3523	0.8978
3532	0.8978
3541	0.8975
3550	0.8967
3559	0.8956
3568	0.8934
3577	0.8841
3586	0.8747
3595	0.8937
3604	0.8968
3613	0.8964
3622	0.8975
3631	0.8999
3640	0.9023
3649	0.9048
3658	0.9068
3667	0.9071
3676	0.9056
3685	0.9028
3694	0.8994
3703	0.8973
3712	0.9
3721	0.903
3730	0.9054
3739	0.9066
3748	0.9059
3757	0.9051
3766	0.9045
3775	0.9044
3784	0.9043
3793	0.9041
