Infrared Spectrum: o-Toluidine, hydrochloride
Formula: C7 H10 Cl N
CAS: 636-21-5
State: SOLID (1/300 mg KBr DISC)
Melting point: 215 C
Class: COBLENTZ III
Instrument: PERKIN-ELMER 180 (GRATING)
Instrument parameters: GRATINGS: 2000, 1000, 500, 250 CM^-^1; FILTER CHANGE: 2970, 2000, 1485, 1000, 743, 500, 372, 250, 186 CM^-^1.
Sampling: TRANSMISSION
Resolution: 2
Origin: K. K. DEB-NCI FREDERICK CANCER RESEARCH CENTER
1/CM	TRANSMITTANCE
383	0.8687
392	0.8714
401	0.8693
410	0.8608
419	0.8223
428	0.684
437	0.7916
446	0.6051
455	0.8526
464	0.8884
473	0.8951
482	0.8973
491	0.8979
500	0.8915
509	0.7864
518	0.7352
527	0.8925
536	0.9038
545	0.9077
554	0.9081
563	0.9051
572	0.889
581	0.8625
590	0.8974
599	0.9084
608	0.9094
617	0.909
626	0.9084
635	0.9079
644	0.9081
653	0.9081
662	0.9086
671	0.9103
680	0.9122
689	0.9114
698	0.8887
707	0.9064
716	0.9022
725	0.8969
734	0.8871
743	0.8529
752	0.2163
761	0.7013
770	0.8876
779	0.905
788	0.9056
797	0.9041
806	0.9023
815	0.9004
824	0.8956
833	0.8927
842	0.8995
851	0.8986
860	0.8944
869	0.8848
878	0.8974
887	0.9002
896	0.9016
905	0.9024
914	0.9022
923	0.9012
932	0.8991
941	0.8927
950	0.8701
959	0.8965
968	0.8964
977	0.8938
986	0.8857
995	0.8766
1004	0.886
1013	0.8771
1022	0.8654
1031	0.8339
1040	0.7689
1049	0.8657
1058	0.8689
1067	0.8171
1076	0.7569
1085	0.864
1094	0.8757
1103	0.8747
1112	0.8679
1121	0.819
1130	0.8149
1139	0.8151
1148	0.7458
1157	0.8489
1166	0.853
1175	0.8028
1184	0.8662
1193	0.8762
1202	0.8814
1211	0.8835
1220	0.8827
1229	0.8675
1238	0.8748
1247	0.8888
1256	0.889
1265	0.8889
1274	0.889
1283	0.8869
1292	0.8671
1301	0.8818
1310	0.7974
1319	0.8873
1328	0.8893
1337	0.8868
1346	0.8829
1355	0.8789
1364	0.8722
1373	0.8553
1382	0.86
1391	0.8655
1400	0.8651
1409	0.8577
1418	0.8499
1427	0.8395
1436	0.8331
1445	0.7861
1454	0.6903
1463	0.6185
1472	0.7392
1481	0.7348
1490	0.4055
1499	0.4315
1508	0.6251
1517	0.6684
1526	0.81
1535	0.8336
1544	0.8385
1553	0.8278
1562	0.8036
1571	0.7514
1580	0.6829
1589	0.6944
1598	0.7039
1607	0.7498
1616	0.8063
1625	0.8122
1634	0.8079
1643	0.8479
1652	0.8524
1661	0.8562
1670	0.8654
1679	0.8673
1688	0.8651
1697	0.8639
1706	0.8702
1715	0.87
1724	0.8675
1733	0.8661
1742	0.8701
1751	0.8783
1760	0.8794
1769	0.8786
1778	0.8758
1787	0.8702
1796	0.8625
1805	0.8567
1814	0.8693
1823	0.8765
1832	0.8758
1841	0.8709
1850	0.8671
1859	0.8699
1868	0.8645
1877	0.857
1886	0.8527
1895	0.8506
1904	0.8456
1913	0.8369
1922	0.8223
1931	0.8173
1940	0.8138
1949	0.8119
1958	0.7985
1967	0.7778
1976	0.7701
1985	0.7603
1994	0.7498
2003	0.7369
2012	0.724
2021	0.7193
2030	0.7409
2039	0.7578
2048	0.7941
2057	0.8329
2066	0.8458
2075	0.8454
2084	0.8469
2093	0.8576
2102	0.8573
2111	0.853
2120	0.8556
2129	0.8629
2138	0.8613
2147	0.8578
2156	0.8595
2165	0.8599
2174	0.857
2183	0.8509
2192	0.8458
2201	0.8412
2210	0.843
2219	0.8473
2228	0.8525
2237	0.8488
2246	0.8426
2255	0.8367
2264	0.8322
2273	0.8286
2282	0.8234
2291	0.8218
2300	0.8307
2309	0.8377
2318	0.836
2327	0.8339
2336	0.8318
2345	0.8287
2354	0.8257
2363	0.8219
2372	0.8171
2381	0.8127
2390	0.8092
2399	0.8064
2408	0.8047
2417	0.8021
2426	0.7977
2435	0.7904
2444	0.7793
2453	0.7603
2462	0.7598
2471	0.758
2480	0.7494
2489	0.7384
2498	0.7252
2507	0.7102
2516	0.6894
2525	0.6659
2534	0.6304
2543	0.5527
2552	0.4894
2561	0.5268
2570	0.4764
2579	0.4378
2588	0.466
2597	0.3494
2606	0.2605
2615	0.273
2624	0.3702
2633	0.4758
2642	0.5816
2651	0.623
2660	0.6229
2669	0.6007
2678	0.5829
2687	0.5215
2696	0.4727
2705	0.4548
2714	0.4475
2723	0.4592
2732	0.4726
2741	0.4714
2750	0.4568
2759	0.4254
2768	0.3931
2777	0.3702
2786	0.3297
2795	0.2892
2804	0.2486
2813	0.2105
2822	0.1995
2831	0.1665
2840	0.1458
2849	0.1367
2858	0.1339
2867	0.1332
2876	0.1385
2885	0.1517
2894	0.1727
2903	0.1696
2912	0.1544
2921	0.1815
2930	0.2098
2939	0.2285
2948	0.2702
2957	0.3118
2966	0.3535
2975	0.3951
2984	0.4347
2993	0.4608
3002	0.4782
3011	0.497
3020	0.4999
3029	0.4965
3038	0.5236
3047	0.5588
3056	0.5851
3065	0.6087
3074	0.6325
3083	0.6441
3092	0.6622
3101	0.6936
3110	0.7228
3119	0.7436
3128	0.7542
3137	0.7561
3146	0.7603
3155	0.7679
3164	0.7764
3173	0.7861
3182	0.7957
3191	0.8049
3200	0.8157
3209	0.8275
3218	0.8349
3227	0.8387
3236	0.8411
3245	0.8429
3254	0.8442
3263	0.8452
3272	0.8459
3281	0.8463
3290	0.8464
3299	0.8462
3308	0.8454
3317	0.8445
3326	0.843
3335	0.8405
3344	0.837
3353	0.8334
3362	0.8297
3371	0.8257
3380	0.8218
3389	0.8184
3398	0.8151
3407	0.8118
3416	0.8098
3425	0.8082
3434	0.8075
3443	0.8076
3452	0.8088
3461	0.81
3470	0.8123
3479	0.8145
3488	0.8167
3497	0.8193
3506	0.8219
3515	0.8247
3524	0.828
3533	0.8313
3542	0.8346
3551	0.8376
3560	0.8402
3569	0.8429
3578	0.8458
3587	0.8487
3596	0.8514
3605	0.8539
3614	0.8564
3623	0.8584
3632	0.8598
3641	0.8611
3650	0.8625
3659	0.8624
3668	0.8621
3677	0.8603
3686	0.8614
3695	0.8638
3704	0.865
3713	0.865
3722	0.8648
3731	0.8646
3740	0.8642
3749	0.8635
3758	0.8628
3767	0.8621
3776	0.8613
3785	0.8606
3794	0.8599
