Infrared Spectrum: p-NITROBENZHYDRAZIDE
Formula: C7 H7 N3 O3
CAS: 636-97-5
State: SOLID (MINERAL OIL MULL)
Melting point: 209 C (DECOMPOSE)
Class: COBLENTZ
Instrument: Not specified, most likely a prism, grating, or hybrid spectrometer.
Sampling: TRANSMISSION
Resolution: 4
Origin: WYANDOTTE CHEMICALS CORP., WYANDOTTE, MICHIGAN, USA
MICROMETERS	TRANSMITTANCE
2.019	0.506
2.0561	0.517
2.0932	0.552
2.1303	0.548
2.16741	0.553
2.20451	0.553
2.24161	0.559
2.27871	0.573
2.31581	0.581
2.35291	0.595
2.39001	0.598
2.42712	0.611
2.46422	0.608
2.50132	0.617
2.53842	0.631
2.57552	0.643
2.61262	0.654
2.64972	0.66
2.68683	0.67
2.72393	0.685
2.76103	0.679
2.79813	0.671
2.83523	0.667
2.87233	0.673
2.90944	0.679
2.94654	0.681
2.98364	0.637
3.02074	0.396
3.05784	0.161
3.09494	0.146
3.13204	0.298
3.16915	0.362
3.20625	0.381
3.24335	0.353
3.28045	0.354
3.31755	0.424
3.35465	0.237
3.39175	0.04
3.42886	0.041
3.46596	0.104
3.50306	0.088
3.54016	0.272
3.57726	0.617
3.61436	0.692
3.65146	0.73
3.68857	0.721
3.72567	0.73
3.76277	0.743
3.79987	0.754
3.83697	0.757
3.87407	0.772
3.91117	0.794
3.94828	0.811
3.98538	0.819
4.02248	0.819
4.05958	0.824
4.09668	0.822
4.13378	0.822
4.17088	0.816
4.20799	0.844
4.24509	0.83
4.28219	0.841
4.31929	0.852
4.35639	0.864
4.39349	0.872
4.43059	0.878
4.4677	0.878
4.5048	0.889
4.5419	0.902
4.579	0.902
4.6161	0.906
4.6532	0.919
4.69031	0.922
4.72741	0.92
4.76451	0.933
4.80161	0.891
4.83871	0.934
4.87581	0.937
4.91291	0.939
4.95002	0.931
4.98712	0.948
5.02422	0.942
5.06132	0.959
5.09842	0.953
5.13552	0.945
5.17262	0.898
5.20973	0.92
5.24683	0.951
5.28393	0.973
5.32103	0.97
5.35813	0.97
5.39523	0.978
5.43233	0.97
5.46944	0.975
5.50654	0.964
5.54364	0.94
5.58074	0.951
5.61784	0.975
5.65494	0.962
5.69204	0.961
5.72915	0.951
5.76625	0.906
5.80335	0.895
5.84045	0.849
5.87755	0.785
5.91465	0.779
5.95175	0.662
5.98886	0.516
6.02596	0.27
6.06306	0.169
6.10016	0.219
6.13726	0.071
6.17436	0.079
6.21147	0.046
6.24857	0.08
6.28567	0.227
6.32277	0.374
6.35987	0.419
6.39697	0.337
6.43407	0.22
6.47118	0.16
6.50828	0.066
6.54538	0.068
6.58248	0.041
6.61958	0.122
6.65668	0.233
6.69378	0.247
6.73089	0.36
6.76799	0.328
6.80509	0.236
6.84219	0.273
6.87929	0.342
6.91639	0.438
6.95349	0.539
6.9906	0.608
7.0277	0.645
7.0648	0.64
7.1019	0.645
7.139	0.618
7.1761	0.548
7.2132	0.418
7.25031	0.307
7.28741	0.283
7.32451	0.139
7.36161	0.099
7.39871	0.111
7.43581	0.101
7.47291	0.124
7.51002	0.2
7.54712	0.259
7.58422	0.195
7.62132	0.32
7.65842	0.241
7.69552	0.321
7.73262	0.433
7.76973	0.491
7.80683	0.508
7.84393	0.538
7.88103	0.59
7.91813	0.618
7.95523	0.632
7.99234	0.646
8.02944	0.659
8.06654	0.657
8.10364	0.682
8.14074	0.69
8.17784	0.702
8.21494	0.715
8.25205	0.721
8.28915	0.729
8.32625	0.721
8.36335	0.702
8.40045	0.681
8.43755	0.688
8.47465	0.713
8.51176	0.743
8.54886	0.765
8.58596	0.774
8.62306	0.776
8.66016	0.777
8.69726	0.779
8.73436	0.782
8.77147	0.79
8.80857	0.777
8.84567	0.757
8.88277	0.696
8.91987	0.545
8.95697	0.474
8.99407	0.374
9.03118	0.429
9.06828	0.401
9.10538	0.479
9.14248	0.595
9.17958	0.67
9.21668	0.73
9.25378	0.758
9.29089	0.774
9.32799	0.799
9.36509	0.81
9.40219	0.818
9.43929	0.822
9.47639	0.828
9.5135	0.836
9.5506	0.846
9.5877	0.849
9.6248	0.849
9.6619	0.842
9.699	0.852
9.7361	0.858
9.77321	0.863
9.81031	0.858
9.84741	0.758
9.88451	0.808
9.92161	0.858
9.95871	0.867
9.99581	0.864
10.0329	0.867
10.07	0.861
10.1071	0.852
10.1442	0.83
10.1813	0.79
10.2184	0.752
10.2555	0.765
10.2926	0.757
10.3297	0.729
10.3668	0.734
10.4039	0.732
10.441	0.692
10.4781	0.637
10.5152	0.561
10.5523	0.44
10.5894	0.27
10.6265	0.192
10.6636	0.2
10.7007	0.269
10.7378	0.306
10.7749	0.32
10.812	0.416
10.8491	0.525
10.8862	0.609
10.9234	0.668
10.9605	0.709
10.9976	0.732
11.0347	0.758
11.0718	0.768
11.1089	0.763
11.146	0.754
11.1831	0.729
11.2202	0.664
11.2573	0.618
11.2944	0.659
11.3315	0.696
11.3686	0.701
11.4057	0.639
11.4428	0.569
11.4799	0.447
11.517	0.23
11.5541	0.138
11.5912	0.11
11.6283	0.219
11.6654	0.479
11.7025	0.587
11.7396	0.452
11.7767	0.247
11.8138	0.455
11.8509	0.682
11.888	0.788
11.9251	0.827
11.9622	0.852
11.9993	0.856
12.0364	0.847
12.0735	0.835
12.1106	0.847
12.1477	0.872
12.1848	0.892
12.2219	0.9
12.259	0.898
12.2961	0.908
12.3332	0.906
12.3703	0.911
12.4074	0.911
12.4445	0.914
12.4816	0.917
12.5187	0.916
12.5558	0.919
12.5929	0.911
12.63	0.9
12.6671	0.884
12.7042	0.839
12.7413	0.786
12.7784	0.776
12.8155	0.814
12.8526	0.863
12.8897	0.903
12.9268	0.909
12.9639	0.914
13.001	0.912
13.0381	0.909
13.0752	0.906
13.1123	0.905
13.1494	0.906
13.1865	0.9
13.2236	0.895
13.2607	0.881
13.2978	0.877
13.3349	0.867
13.372	0.849
13.4091	0.828
13.4462	0.805
13.4834	0.769
13.5205	0.709
13.5576	0.628
13.5947	0.514
13.6318	0.39
13.6689	0.307
13.706	0.304
13.7431	0.353
13.7802	0.441
13.8173	0.503
13.8544	0.522
13.8915	0.482
13.9286	0.415
13.9657	0.346
14.0028	0.315
14.0399	0.395
14.077	0.502
14.1141	0.578
14.1512	0.631
14.1883	0.667
14.2254	0.678
14.2625	0.674
14.2996	0.665
14.3367	0.66
14.3738	0.628
14.4109	0.611
14.448	0.576
14.4851	0.542
14.5222	0.496
14.5593	0.446
14.5964	0.395
14.6335	0.34
14.6706	0.297
14.7077	0.306
14.7448	0.348
14.7819	0.438
14.819	0.545
14.8561	0.62
14.8932	0.688
14.9303	0.723
14.9674	0.724
15.0045	0.72
15.0416	0.662
15.0787	0.597
15.1158	0.55
15.1529	0.561
15.19	0.578
15.2271	0.561
15.2642	0.548
15.3013	0.522
15.3384	0.488
15.3755	0.472
15.4126	0.461
15.4497	0.44
15.4868	0.427
15.5239	0.418
15.561	0.429
15.5981	0.427
15.6352	0.458
15.6723	0.458
15.7094	0.468
15.7465	0.485
15.7836	0.491
15.8207	0.489
15.8578	0.505
15.8949	0.5
15.932	0.5
15.9691	0.497
