Infrared Spectrum: NICOTINIC ACID HYDROCHLORIDE
Formula: C6 H6 Cl N O2
CAS: 636-79-3
State: SOLID (MINERAL OIL MULL)
Melting point: 272 C DECOMPOSES
Class: COBLENTZ
Instrument: Not specified, most likely a prism, grating, or hybrid spectrometer.
Sampling: TRANSMISSION
Resolution: 4
Origin: WYANDOTTE CHEMICALS CORP., WYANDOTTE, MICHIGAN, USA
MICROMETERS	TRANSMITTANCE
2.027	0.745
2.06788	0.747
2.10875	0.749
2.14963	0.754
2.1905	0.75
2.23138	0.701
2.27226	0.718
2.31313	0.726
2.35401	0.732
2.39488	0.749
2.43576	0.769
2.47664	0.791
2.51751	0.796
2.55839	0.808
2.59926	0.841
2.64014	0.808
2.68102	0.873
2.72189	0.866
2.76277	0.873
2.80364	0.863
2.84452	0.854
2.8854	0.868
2.92627	0.875
2.96715	0.885
3.00802	0.909
3.0489	0.909
3.08978	0.827
3.13065	0.701
3.17153	0.534
3.2124	0.317
3.25328	0.266
3.29416	0.322
3.33503	0.279
3.37591	0.047
3.41678	0.047
3.45766	0.044
3.49854	0.052
3.53941	0.059
3.58029	0.402
3.62116	0.523
3.66204	0.537
3.70292	0.488
3.74379	0.503
3.78467	0.588
3.82555	0.532
3.86642	0.535
3.9073	0.529
3.94817	0.568
3.98905	0.614
4.02993	0.563
4.0708	0.525
4.11168	0.489
4.15255	0.46
4.19343	0.441
4.23431	0.418
4.27518	0.385
4.31606	0.419
4.35693	0.416
4.39781	0.45
4.43869	0.436
4.47956	0.45
4.52044	0.464
4.56131	0.5
4.60219	0.508
4.64307	0.513
4.68394	0.537
4.72482	0.587
4.76569	0.624
4.80657	0.648
4.84745	0.668
4.88832	0.631
4.9292	0.622
4.97007	0.658
5.01095	0.737
5.05183	0.735
5.0927	0.773
5.13358	0.773
5.17445	0.774
5.21533	0.75
5.25621	0.757
5.29708	0.841
5.33796	0.878
5.37883	0.873
5.41971	0.877
5.46059	0.856
5.50146	0.824
5.54234	0.703
5.58321	0.476
5.62409	0.53
5.66497	0.602
5.70584	0.566
5.74672	0.465
5.78759	0.293
5.82847	0.199
5.86935	0.295
5.91022	0.457
5.9511	0.537
5.99197	0.52
6.03285	0.549
6.07373	0.583
6.1146	0.472
6.15548	0.747
6.19635	0.482
6.23723	0.493
6.27811	0.621
6.31898	0.655
6.35986	0.711
6.40073	0.841
6.44161	0.798
6.48249	0.701
6.52336	0.327
6.56424	0.575
6.60511	0.672
6.64599	0.684
6.68687	0.641
6.72774	0.459
6.76862	0.18
6.80949	0.08
6.85037	0.136
6.89125	0.204
6.93212	0.353
6.973	0.552
7.01387	0.467
7.05475	0.284
7.09563	0.255
7.1365	0.325
7.17738	0.424
7.21825	0.319
7.25913	0.215
7.30001	0.372
7.34088	0.525
7.38176	0.605
7.42264	0.607
7.46351	0.61
7.50439	0.616
7.54526	0.633
7.58614	0.612
7.62702	0.467
7.66789	0.276
7.70877	0.175
7.74964	0.148
7.79052	0.24
7.8314	0.319
7.87227	0.383
7.91315	0.453
7.95402	0.5
7.9949	0.527
8.03578	0.569
8.07665	0.597
8.11753	0.598
8.1584	0.476
8.19928	0.481
8.24016	0.529
8.28103	0.563
8.32191	0.59
8.36278	0.621
8.40366	0.631
8.44454	0.477
8.48541	0.558
8.52629	0.616
8.56716	0.645
8.60804	0.662
8.64892	0.672
8.68979	0.689
8.73067	0.59
8.77154	0.426
8.81242	0.552
8.8533	0.61
8.89417	0.66
8.93505	0.544
8.97592	0.203
9.0168	0.298
9.05768	0.441
9.09855	0.513
9.13943	0.546
9.1803	0.575
9.22118	0.6
9.26206	0.616
9.30293	0.631
9.34381	0.643
9.38468	0.622
9.42556	0.575
9.46644	0.626
9.50731	0.656
9.54819	0.668
9.58906	0.629
9.62994	0.583
9.67082	0.537
9.71169	0.58
9.75257	0.452
9.79344	0.46
9.83432	0.535
9.8752	0.6
9.91607	0.646
9.95695	0.68
9.99782	0.706
10.0387	0.723
10.0796	0.726
10.1205	0.716
10.1613	0.686
10.2022	0.634
10.2431	0.677
10.284	0.701
10.3248	0.711
10.3657	0.713
10.4066	0.725
10.4475	0.732
10.4883	0.733
10.5292	0.733
10.5701	0.73
10.611	0.723
10.6518	0.697
10.6927	0.667
10.7336	0.612
10.7745	0.511
10.8153	0.406
10.8562	0.366
10.8971	0.418
10.938	0.494
10.9788	0.592
11.0197	0.655
11.0606	0.711
11.1015	0.733
11.1424	0.737
11.1832	0.674
11.2241	0.696
11.265	0.762
11.3059	0.786
11.3467	0.803
11.3876	0.817
11.4285	0.825
11.4694	0.834
11.5102	0.846
11.5511	0.858
11.592	0.866
11.6329	0.873
11.6737	0.878
11.7146	0.878
11.7555	0.882
11.7964	0.883
11.8372	0.883
11.8781	0.88
11.919	0.875
11.9599	0.856
12.0007	0.776
12.0416	0.593
12.0825	0.679
12.1234	0.82
12.1643	0.899
12.2051	0.933
12.246	0.945
12.2869	0.95
12.3278	0.957
12.3686	0.947
12.4095	0.902
12.4504	0.793
12.4913	0.718
12.5321	0.749
12.573	0.808
12.6139	0.853
12.6548	0.873
12.6956	0.88
12.7365	0.873
12.7774	0.86
12.8183	0.858
12.8591	0.858
12.9	0.865
12.9409	0.865
12.9818	0.865
13.0227	0.865
13.0635	0.865
13.1044	0.86
13.1453	0.844
13.1862	0.836
13.227	0.817
13.2679	0.798
13.3088	0.759
13.3497	0.711
13.3905	0.605
13.4314	0.435
13.4723	0.298
13.5132	0.284
13.554	0.363
13.5949	0.474
13.6358	0.585
13.6767	0.66
13.7175	0.696
13.7584	0.708
13.7993	0.713
13.8402	0.726
13.881	0.745
13.9219	0.774
13.9628	0.824
14.0037	0.885
14.0446	0.924
14.0854	0.952
14.1263	0.974
14.1672	0.991
14.2081	0.996
14.2489	1.001
14.2898	1.003
14.3307	1.005
14.3716	1.005
14.4124	1.005
14.4533	1.005
14.4942	1.005
14.5351	1.005
14.5759	1.005
14.6168	1.005
14.6577	1.003
14.6986	1.001
14.7394	0.994
14.7803	0.981
14.8212	0.923
14.8621	0.796
14.9029	0.61
14.9438	0.424
14.9847	0.315
15.0256	0.331
15.0665	0.411
15.1073	0.494
15.1482	0.554
15.1891	0.624
15.23	0.667
15.2708	0.696
15.3117	0.706
15.3526	0.721
15.3935	0.721
15.4343	0.726
15.4752	0.715
15.5161	0.711
15.557	0.718
15.5978	0.701
15.6387	0.699
15.6796	0.68
15.7205	0.682
15.7613	0.672
15.8022	0.66
15.8431	0.645
15.884	0.636
15.9248	0.614
15.9657	0.593
16.0066	0.559
