Infrared Spectrum: 3-SULFAMYLBENZOIC ACID
Formula: C7 H7 N O4 S
CAS: 636-76-0
State: SOLID (MINERAL OIL MULL)
Class: COBLENTZ
Instrument: Not specified, most likely a prism, grating, or hybrid spectrometer.
Sampling: TRANSMISSION
Resolution: 4
Origin: DOW CHEMICAL COMPANY
1/CM	TRANSMITTANCE
447.95	0.782
457.414	0.754
466.877	0.732
476.341	0.798
485.805	0.831
495.269	0.829
504.732	0.815
514.196	0.793
523.66	0.745
533.123	0.631
542.587	0.283
552.051	0.4889
561.515	0.538
570.978	0.706
580.442	0.725
589.906	0.459
599.369	0.3799
608.833	0.472
618.297	0.536
627.761	0.58
637.224	0.628
646.688	0.668
656.152	0.3649
665.615	0.564
675.079	0.289
684.543	0.765
694.007	0.8199
703.47	0.8161
712.934	0.76
722.398	0.785
731.862	0.631
741.325	0.7229
750.789	0.2476
760.253	0.7814
769.716	0.739
779.18	0.934
788.644	0.954
798.108	0.954
807.571	0.945
817.035	0.908
826.499	0.891
835.962	0.904
845.426	0.829
854.89	0.785
864.354	0.864
873.817	0.842
883.281	0.7831
892.745	0.6751
902.208	0.379
911.672	0.393
921.136	0.3
930.6	0.4848
940.063	0.7249
949.527	0.8109
958.991	0.902
968.454	0.943
977.918	0.976
987.382	0.989
996.846	0.917
1006.31	0.998
1015.77	0.932
1025.24	0.978
1034.7	0.967
1044.16	0.974
1053.63	0.957
1063.09	0.853
1072.56	0.8421
1082.02	0.708
1091.48	0.324
1100.95	0.736
1110.41	0.783
1119.87	0.782
1129.34	0.4262
1138.8	0.1859
1148.27	0.613
1157.73	0.197
1167.19	0.067
1176.66	0.3599
1186.12	0.7059
1195.58	0.869
1205.05	0.882
1214.51	0.871
1223.97	0.858
1233.44	0.822
1242.9	0.815
1252.37	0.78
1261.83	0.6722
1271.29	0.3273
1280.76	0.36
1290.22	0.377
1299.68	0.197
1309.15	0.141
1318.61	0.045
1328.08	0.029
1337.54	0.15
1347	0.362
1356.47	0.7409
1365.93	0.738
1375.39	0.5981
1384.86	0.767
1394.32	0.849
1403.79	0.615
1413.25	0.4761
1422.71	0.3949
1432.18	0.606
1441.64	0.379
1451.1	0.435
1460.57	0.38
1470.03	0.4539
1479.5	0.813
1488.96	0.899
1498.42	0.957
1507.89	0.976
1517.35	0.956
1526.81	0.935
1536.28	0.89
1545.74	0.7981
1555.2	0.6661
1564.67	0.598
1574.13	0.56
1583.6	0.743
1593.06	0.7761
1602.52	0.6296
1611.99	0.917
1621.45	0.908
1630.91	0.875
1640.38	0.822
1649.84	0.7761
1659.31	0.6391
1668.77	0.421
1678.23	0.115
1687.7	0.043
1697.16	0.047
1706.62	0.076
1716.09	0.413
1725.55	0.725
1735.02	0.849
1744.48	0.917
1753.94	0.934
1763.41	0.93
1772.87	0.95
1782.33	0.946
1791.8	0.937
1801.26	0.917
1810.73	0.908
1820.19	0.935
1829.65	0.946
1839.12	0.954
1848.58	0.954
1858.04	0.954
1867.51	0.954
1876.97	0.946
1886.44	0.945
1895.9	0.946
1905.36	0.948
1914.83	0.952
1924.29	0.948
1933.75	0.934
1943.22	0.948
1952.68	0.963
1962.14	0.97
1971.61	0.967
1981.07	0.954
1990.54	0.959
2000	0.963
2009.46	0.963
2018.93	0.961
2028.39	0.965
2037.85	0.965
2047.32	0.968
2056.78	0.97
2066.25	0.967
2075.71	0.963
2085.17	0.957
2094.64	0.956
2104.1	0.952
2113.56	0.9461
2123.03	0.9371
2132.49	0.934
2141.96	0.93
2151.42	0.9231
2160.88	0.917
2170.35	0.913
2179.81	0.913
2189.27	0.913
2198.74	0.9169
2208.2	0.919
2217.67	0.9151
2227.13	0.913
2236.59	0.9041
2246.06	0.8991
2255.52	0.891
2264.98	0.888
2274.45	0.8791
2283.91	0.8751
2293.37	0.8711
2302.84	0.8642
2312.3	0.8492
2321.77	0.842
2331.23	0.8361
2340.69	0.8331
2350.16	0.8261
2359.62	0.8092
2369.08	0.798
2378.55	0.796
2388.01	0.794
2397.48	0.791
2406.94	0.7741
2416.4	0.7612
2425.87	0.7521
2435.33	0.7413
2444.79	0.7283
2454.26	0.7161
2463.72	0.7033
2473.19	0.6776
2482.65	0.6593
2492.11	0.6444
2501.58	0.6159
2511.04	0.583
2520.5	0.5646
2529.97	0.5372
2539.43	0.5151
2548.9	0.5003
2558.36	0.4816
2567.82	0.4787
2577.29	0.5223
2586.75	0.547
2596.21	0.5344
2605.68	0.525
2615.14	0.5201
2624.6	0.518
2634.07	0.512
2643.53	0.4911
2653	0.4693
2662.46	0.4572
2671.92	0.4625
2681.39	0.4781
2690.85	0.5317
2700.31	0.54
2709.78	0.5395
2719.24	0.5525
2728.71	0.558
2738.17	0.5598
2747.63	0.56
2757.1	0.562
2766.56	0.5565
2776.02	0.5456
2785.49	0.5132
2794.95	0.4728
2804.42	0.4217
2813.88	0.3873
2823.34	0.3459
2832.81	0.2889
2842.27	0.1287
2851.73	0.0203
2861.2	0.0226
2870.66	0.0377
2880.13	0.0524
2889.59	0.0479
2899.05	0.0242
2908.52	0.0098
2917.98	0.0013
2927.44	0
2936.91	0.0067
2946.37	0.01
2955.84	0.012
2965.3	0.0263
2974.76	0.1138
2984.23	0.2379
2993.69	0.3125
3003.15	0.3585
3012.62	0.3844
3022.08	0.4073
3031.54	0.4256
3041.01	0.426
3050.47	0.426
3059.94	0.426
3069.4	0.4214
3078.86	0.4134
3088.33	0.3941
3097.79	0.3896
3107.25	0.4066
3116.72	0.4429
3126.18	0.48
3135.65	0.5066
3145.11	0.5246
3154.57	0.5412
3164.04	0.549
3173.5	0.549
3182.96	0.5434
3192.43	0.5264
3201.89	0.4915
3211.36	0.444
3220.82	0.4059
3230.28	0.3485
3239.75	0.2567
3249.21	0.0706
3258.67	0.0466
3268.14	0.0963
3277.6	0.2439
3287.07	0.3579
3296.53	0.4796
3305.99	0.5556
3315.46	0.5569
3324.92	0.527
3334.38	0.4518
3343.85	0.389
3353.31	0.2799
3362.77	0.1604
3372.24	0.0898
3381.7	0.2918
3391.17	0.5052
3400.63	0.5901
3410.09	0.6379
3419.56	0.7697
3429.02	0.8378
3438.48	0.8708
3447.95	0.885
3457.41	0.8908
3466.88	0.891
3476.34	0.891
3485.8	0.89
3495.27	0.89
3504.73	0.888
3514.19	0.8865
3523.66	0.886
3533.12	0.884
3542.59	0.88
3552.05	0.8735
3561.51	0.871
3570.98	0.8695
3580.44	0.8683
3589.9	0.8645
3599.37	0.858
3608.83	0.855
3618.3	0.851
3627.76	0.8476
3637.22	0.846
3646.69	0.846
3656.15	0.844
3665.61	0.842
3675.08	0.8386
3684.54	0.8353
3694.01	0.8316
3703.47	0.8324
3712.93	0.835
3722.4	0.833
3731.86	0.831
3741.32	0.829
3750.79	0.829
3760.25	0.829
3769.71	0.827
3779.18	0.826
3788.64	0.8226
