Infrared Spectrum: 2,4,5-Trichloroaniline
Formula: C 6 H 4 Cl 3 N
CAS: 636-30-6
State: gas
Origin: EPA-IR VAPOR PHASE LIBRARY
1/CM	ABSORBANCE
549.8	0.026272
559.445	0.024402
569.09	0.019492
578.734	0.018782
588.379	0.017582
598.024	0.017292
607.669	0.016242
617.313	0.015332
626.958	0.017342
636.603	0.022412
646.248	0.032102
655.893	0.047142
665.537	0.072732
675.182	0.115282
684.827	0.073122
694.472	0.039662
704.116	0.044272
713.761	0.053132
723.406	0.070332
733.051	0.075382
742.695	0.038862
752.34	0.024552
761.985	0.022172
771.63	0.018122
781.275	0.017312
790.919	0.017072
800.564	0.015512
810.209	0.013952
819.854	0.014652
829.498	0.019772
839.143	0.030352
848.788	0.028452
858.433	0.029062
868.078	0.052722
877.722	0.051992
887.367	0.023322
897.012	0.011042
906.657	0.009312
916.301	0.010172
925.946	0.015852
935.591	0.020852
945.236	0.016152
954.88	0.010572
964.525	0.009922
974.17	0.009322
983.815	0.008012
993.46	0.006942
1003.1	0.006552
1012.75	0.006062
1022.39	0.005982
1032.04	0.007362
1041.68	0.012692
1051.33	0.032502
1060.97	0.063612
1070.62	0.076102
1080.26	0.063562
1089.91	0.105882
1099.55	0.127242
1109.2	0.055022
1118.84	0.027512
1128.49	0.034632
1138.13	0.056482
1147.78	0.041092
1157.42	0.012652
1167.07	0.007692
1176.71	0.007062
1186.36	0.006662
1196	0.007172
1205.64	0.009242
1215.29	0.020942
1224.93	0.032392
1234.58	0.030082
1244.22	0.034722
1253.87	0.021372
1263.51	0.023232
1273.16	0.024862
1282.8	0.023512
1292.45	0.013672
1302.09	0.007272
1311.74	0.005572
1321.38	0.003742
1331.03	0.004302
1340.67	0.006452
1350.32	0.009202
1359.96	0.016682
1369.61	0.051152
1379.25	0.087852
1388.9	0.059812
1398.54	0.017082
1408.18	0.007672
1417.83	0.007412
1427.47	0.011442
1437.12	0.030502
1446.76	0.099232
1456.41	0.169502
1466.05	0.165812
1475.7	0.224672
1485.34	0.199532
1494.99	0.102792
1504.63	0.031172
1514.28	0.014642
1523.92	0.013592
1533.57	0.016192
1543.21	0.023202
1552.86	0.024602
1562.5	0.017932
1572.15	0.016022
1581.79	0.021022
1591.44	0.033812
1601.08	0.060772
1610.73	0.127242
1620.37	0.176692
1630.01	0.117082
1639.66	0.051682
1649.3	0.033182
1658.95	0.022142
1668.59	0.015002
1678.24	0.010962
1687.88	0.009032
1697.53	0.008662
1707.17	0.008882
1716.82	0.007782
1726.46	0.006172
1736.11	0.005872
1745.75	0.005302
1755.4	0.003722
1765.04	0.002902
1774.69	0.002802
1784.33	0.002572
1793.98	0.002522
1803.62	0.002732
1813.27	0.003052
1822.91	0.003082
1832.55	0.002572
1842.2	0.001982
1851.84	0.001692
1861.49	0.001552
1871.13	0.001502
1880.78	0.001472
1890.42	0.001472
1900.07	0.001662
1909.71	0.001742
1919.36	0.001722
1929	0.001872
1938.65	0.001892
1948.29	0.001922
1957.94	0.001912
1967.58	0.002042
1977.23	0.002162
1986.87	0.002212
1996.52	0.002102
2006.16	0.002152
2015.81	0.002042
2025.45	0.001652
2035.1	0.001512
2044.74	0.001592
2054.38	0.001492
2064.03	0.001362
2073.67	0.001282
2083.32	0.001232
2092.96	0.001322
2102.61	0.001412
2112.25	0.001492
2121.9	0.001362
2131.54	0.001392
2141.19	0.001392
2150.83	0.001482
2160.48	0.001492
2170.12	0.001462
2179.77	0.001442
2189.41	0.001492
2199.06	0.001542
2208.7	0.001352
2218.35	0.0011133
2227.99	0.0010092
2237.64	0.0008439
2247.28	0.0008147
2256.92	0.0008104
2266.57	0.0008813
2276.21	0.0010351
2285.86	0.001132
2295.5	0.001242
2305.15	0.001592
2314.79	0.001872
2324.44	0.001692
2334.08	0.001412
2343.73	0.001382
2353.37	0.001362
2363.02	0.001262
2372.66	0.001252
2382.31	0.0010483
2391.95	0.0009037
2401.6	0.0006918
2411.24	0.0006056
2420.89	0.0006818
2430.53	0.0005464
2440.18	0.0003942
2449.82	0.0004101
2459.47	0.0003683
2469.11	0.0003813
2478.75	0.0004227
2488.4	0.0005035
2498.04	0.0005622
2507.69	0.000664
2517.33	0.0009644
2526.98	0.001222
2536.62	0.001472
2546.27	0.001892
2555.91	0.001902
2565.56	0.001252
2575.2	0.0006681
2584.85	0.0003502
2594.49	0.0003479
2604.14	0.000395
2613.78	0.0005222
2623.43	0.0007487
2633.07	0.0007719
2642.72	0.0010503
2652.36	0.001422
2662.01	0.001292
2671.65	0.000966
2681.29	0.0007248
2690.94	0.0008046
2700.58	0.0008434
2710.23	0.0008971
2719.87	0.0010799
2729.52	0.0009409
2739.16	0.0009485
2748.81	0.0010434
2758.45	0.0009231
2768.1	0.0008539
2777.74	0.0007047
2787.39	0.0006655
2797.03	0.00087
2806.68	0.0011176
2816.32	0.001462
2825.97	0.001672
2835.61	0.001532
2845.26	0.0011206
2854.9	0.0008482
2864.55	0.0006942
2874.19	0.0006642
2883.84	0.0006623
2893.48	0.0007765
2903.12	0.0006833
2912.77	0.000373
2922.41	0.0003478
2932.06	0.00019759
2941.7	0.0002723
2951.35	0.00018349
2960.99	0.0003798
2970.64	0.00022301
2980.28	0.00022114
2989.93	0.0003616
2999.57	0.0004655
3009.22	0.0004934
3018.86	0.0003957
3028.51	0.0007237
3038.15	0.0010422
3047.8	0.001462
3057.44	0.002512
3067.09	0.003562
3076.73	0.002492
3086.38	0.0009326
3096.02	0.0006586
3105.67	0.0006016
3115.31	0.0005858
3124.95	0.0005908
3134.6	0.0006533
3144.24	0.0006221
3153.89	0.0006912
3163.53	0.0011102
3173.18	0.001532
3182.82	0.001772
3192.47	0.002462
3202.11	0.003072
3211.76	0.002432
3221.4	0.001682
3231.05	0.001106
3240.69	0.0009731
3250.34	0.0006441
3259.98	0.0004968
3269.63	0.0005949
3279.27	0.0004872
3288.92	0.000443
3298.56	0.000138172
3308.21	0.0002789
3317.85	0.00016467
3327.49	0.0003869
3337.14	0.0004566
3346.78	0.0006748
3356.43	0.0007131
3366.07	0.001412
3375.72	0.002502
3385.36	0.005252
3395.01	0.012572
3404.65	0.030222
3414.3	0.050862
3423.94	0.045172
3433.59	0.018872
3443.23	0.007742
3452.88	0.004802
3462.52	0.004412
3472.17	0.005302
3481.81	0.008962
3491.46	0.017042
3501.1	0.026672
3510.75	0.031812
3520.39	0.026362
3530.04	0.014382
3539.68	0.007122
3549.32	0.003672
3558.97	0.002192
3568.61	0.001272
3578.26	0.0006868
3587.9	0.0003572
3597.55	0.0004666
3607.19	0.0003175
3616.84	0.00017798
3626.48	0.0003107
3636.13	0.0003233
3645.77	0.0003176
3655.42	0.0002956
3665.06	0.00020652
3674.71	0.0002485
3684.35	0.0003061
3694	0.0006079
3703.64	0.0006653
3713.29	0.0003469
3722.93	0.0004426
3732.58	0.0003841
3742.22	0.0006353
3751.86	0.0006642
3761.51	0.0005806
3771.15	0.0007468
3780.8	0.0008512
3790.44	0.0008439
3800.09	0.0010945
3809.73	0.0009508
3819.38	0.0010639
3829.02	0.001172
3838.67	0.001412
3848.31	0.001552
3857.96	0.001792
3867.6	0.002032
3877.25	0.001402
3886.89	0.000788
3896.54	0.0007687
3906.18	0.0005724
3915.83	0.0005586
3925.47	0.0007261
3935.12	0.000996
3944.76	0.001142
3954.41	0.001352
3964.05	0.001402
3973.69	0.0008395
3983.34	0.0007988
3992.98	0.0005369
