Infrared Spectrum: 5-(2'-HYDROXYBENZYLIDENE)-2-THIOHYDANTOIN
Formula: C10 H8 N2 O2 S
CAS: 636-86-2
State: SOLID (MINERAL OIL MULL)
Melting point: 251-253 C
Class: COBLENTZ
Instrument: Not specified, most likely a prism, grating, or hybrid spectrometer.
Sampling: TRANSMISSION
Resolution: 4
Origin: WYANDOTTE CHEMICALS CORP., WYANDOTTE, MICHIGAN, USA
MICROMETERS	TRANSMITTANCE
2.019	0.346
2.0561	0.352
2.0932	0.357
2.1303	0.367
2.16741	0.372
2.20451	0.381
2.24161	0.378
2.27871	0.38
2.31581	0.389
2.35291	0.398
2.39001	0.4
2.42712	0.397
2.46422	0.398
2.50132	0.394
2.53842	0.398
2.57552	0.414
2.61262	0.412
2.64972	0.426
2.68683	0.438
2.72393	0.438
2.76103	0.438
2.79813	0.443
2.83523	0.44
2.87233	0.44
2.90944	0.443
2.94654	0.443
2.98364	0.437
3.02074	0.358
3.05784	0.304
3.09494	0.275
3.13204	0.245
3.16915	0.199
3.20625	0.187
3.24335	0.19
3.28045	0.194
3.31755	0.191
3.35465	0.129
3.39175	0.054
3.42886	0.03
3.46596	0.04
3.50306	0.047
3.54016	0.105
3.57726	0.236
3.61436	0.292
3.65146	0.319
3.68857	0.327
3.72567	0.319
3.76277	0.336
3.79987	0.347
3.83697	0.357
3.87407	0.37
3.91117	0.38
3.94828	0.389
3.98538	0.395
4.02248	0.398
4.05958	0.397
4.09668	0.408
4.13378	0.414
4.17088	0.428
4.20799	0.434
4.24509	0.437
4.28219	0.414
4.31929	0.437
4.35639	0.459
4.39349	0.483
4.43059	0.488
4.4677	0.482
4.5048	0.489
4.5419	0.496
4.579	0.5
4.6161	0.5
4.6532	0.497
4.69031	0.511
4.72741	0.52
4.76451	0.531
4.80161	0.55
4.83871	0.561
4.87581	0.571
4.91291	0.571
4.95002	0.576
4.98712	0.581
5.02422	0.596
5.06132	0.601
5.09842	0.61
5.13552	0.619
5.17262	0.633
5.20973	0.632
5.24683	0.646
5.28393	0.659
5.32103	0.683
5.35813	0.704
5.39523	0.721
5.43233	0.738
5.46944	0.76
5.50654	0.76
5.54364	0.799
5.58074	0.817
5.61784	0.765
5.65494	0.732
5.69204	0.704
5.72915	0.557
5.76625	0.353
5.80335	0.168
5.84045	0.214
5.87755	0.272
5.91465	0.38
5.95175	0.496
5.98886	0.622
6.02596	0.5
6.06306	0.281
6.10016	0.285
6.13726	0.338
6.17436	0.474
6.21147	0.298
6.24857	0.349
6.28567	0.306
6.32277	0.366
6.35987	0.408
6.39697	0.448
6.43407	0.423
6.47118	0.418
6.50828	0.36
6.54538	0.299
6.58248	0.236
6.61958	0.248
6.65668	0.193
6.69378	0.149
6.73089	0.134
6.76799	0.126
6.80509	0.106
6.84219	0.115
6.87929	0.12
6.91639	0.207
6.95349	0.323
6.9906	0.406
7.0277	0.46
7.0648	0.539
7.1019	0.486
7.139	0.392
7.1761	0.258
7.2132	0.136
7.25031	0.103
7.28741	0.171
7.32451	0.199
7.36161	0.2
7.39871	0.217
7.43581	0.222
7.47291	0.23
7.51002	0.261
7.54712	0.315
7.58422	0.307
7.62132	0.275
7.65842	0.335
7.69552	0.355
7.73262	0.383
7.76973	0.404
7.80683	0.421
7.84393	0.375
7.88103	0.278
7.91813	0.205
7.95523	0.185
7.99234	0.187
8.02944	0.207
8.06654	0.239
8.10364	0.27
8.14074	0.315
8.17784	0.341
8.21494	0.343
8.25205	0.346
8.28915	0.357
8.32625	0.347
8.36335	0.321
8.40045	0.313
8.43755	0.321
8.47465	0.349
8.51176	0.353
8.54886	0.327
8.58596	0.258
8.62306	0.279
8.66016	0.293
8.69726	0.341
8.73436	0.375
8.77147	0.403
8.80857	0.432
8.84567	0.471
8.88277	0.446
8.91987	0.381
8.95697	0.421
8.99407	0.463
9.03118	0.446
9.06828	0.298
9.10538	0.284
9.14248	0.349
9.17958	0.398
9.21668	0.428
9.25378	0.457
9.29089	0.477
9.32799	0.483
9.36509	0.499
9.40219	0.506
9.43929	0.525
9.47639	0.536
9.5135	0.517
9.5506	0.52
9.5877	0.536
9.6248	0.548
9.6619	0.567
9.699	0.581
9.7361	0.585
9.77321	0.596
9.81031	0.602
9.84741	0.618
9.88451	0.63
9.92161	0.633
9.95871	0.633
9.99581	0.63
10.0329	0.638
10.07	0.659
10.1071	0.681
10.1442	0.69
10.1813	0.726
10.2184	0.727
10.2555	0.744
10.2926	0.666
10.3297	0.474
10.3668	0.298
10.4039	0.261
10.441	0.298
10.4781	0.347
10.5152	0.394
10.5523	0.425
10.5894	0.448
10.6265	0.469
10.6636	0.446
10.7007	0.494
10.7378	0.537
10.7749	0.554
10.812	0.576
10.8491	0.598
10.8862	0.608
10.9234	0.618
10.9605	0.65
10.9976	0.667
11.0347	0.681
11.0718	0.709
11.1089	0.718
11.146	0.616
11.1831	0.389
11.2202	0.34
11.2573	0.412
11.2944	0.418
11.3315	0.48
11.3686	0.53
11.4057	0.554
11.4428	0.57
11.4799	0.554
11.517	0.517
11.5541	0.488
11.5912	0.426
11.6283	0.386
11.6654	0.428
11.7025	0.46
11.7396	0.477
11.7767	0.497
11.8138	0.503
11.8509	0.499
11.888	0.477
11.9251	0.44
11.9622	0.459
11.9993	0.468
12.0364	0.454
12.0735	0.438
12.1106	0.428
12.1477	0.409
12.1848	0.391
12.2219	0.372
12.259	0.352
12.2961	0.324
12.3332	0.307
12.3703	0.298
12.4074	0.293
12.4445	0.31
12.4816	0.34
12.5187	0.378
12.5558	0.429
12.5929	0.471
12.63	0.511
12.6671	0.551
12.7042	0.587
12.7413	0.596
12.7784	0.608
12.8155	0.621
12.8526	0.627
12.8897	0.622
12.9268	0.608
12.9639	0.573
13.001	0.479
13.0381	0.44
13.0752	0.44
13.1123	0.392
13.1494	0.299
13.1865	0.262
13.2236	0.318
13.2607	0.5
13.2978	0.622
13.3349	0.65
13.372	0.562
13.4091	0.417
13.4462	0.404
13.4834	0.55
13.5205	0.675
13.5576	0.743
13.5947	0.777
13.6318	0.817
13.6689	0.82
13.706	0.794
13.7431	0.76
13.7802	0.799
13.8173	0.839
13.8544	0.859
13.8915	0.877
13.9286	0.885
13.9657	0.913
14.0028	0.916
14.0399	0.93
14.077	0.933
14.1141	0.928
14.1512	0.931
14.1883	0.931
14.2254	0.933
14.2625	0.938
14.2996	0.939
14.3367	0.942
14.3738	0.942
14.4109	0.941
14.448	0.938
14.4851	0.933
14.5222	0.925
14.5593	0.921
14.5964	0.914
14.6335	0.905
14.6706	0.897
14.7077	0.791
14.7448	0.553
14.7819	0.426
14.819	0.349
14.8561	0.33
14.8932	0.34
14.9303	0.369
14.9674	0.389
15.0045	0.4
15.0416	0.437
15.0787	0.519
15.1158	0.601
15.1529	0.641
15.19	0.667
15.2271	0.658
15.2642	0.649
15.3013	0.622
15.3384	0.588
15.3755	0.542
15.4126	0.494
15.4497	0.438
15.4868	0.398
15.5239	0.383
15.561	0.378
15.5981	0.377
15.6352	0.375
15.6723	0.375
15.7094	0.37
15.7465	0.37
15.7836	0.366
15.8207	0.361
15.8578	0.36
15.8949	0.358
15.932	0.355
15.9691	0.355
