Infrared Spectrum: p-Nitrophenyl p-decyloxybenzoate
Formula: C 23 H 29 N O 5
CAS: 63635-84-7
State: gas
Origin: EPA-IR VAPOR PHASE LIBRARY
1/CM	ABSORBANCE
549.8	0.0005409
559.445	0.0005386
569.09	0.000285384
578.734	0.0004668
588.379	0.00073
598.024	0.0007546
607.669	0.0008204
617.313	0.0009633
626.958	0.0005501
636.603	0.0004503
646.248	0.0005702
655.893	0.0009915
665.537	0.001307
675.182	0.0010969
684.827	0.0011472
694.472	0.0010637
704.116	0.0007268
713.761	0.0007135
723.406	0.0007833
733.051	0.0009505
742.695	0.0010867
752.34	0.0012191
761.985	0.001337
771.63	0.0009102
781.275	0.0008441
790.919	0.0007155
800.564	0.0007167
810.209	0.0007949
819.854	0.0010653
829.498	0.0009608
839.143	0.001537
848.788	0.002047
858.433	0.003247
868.078	0.001947
877.722	0.001307
887.367	0.0011316
897.012	0.0009155
906.657	0.0006999
916.301	0.0006557
925.946	0.0005978
935.591	0.0007049
945.236	0.0009947
954.88	0.0008225
964.525	0.00094
974.17	0.0011257
983.815	0.001437
993.46	0.002067
1003.1	0.004217
1012.75	0.003727
1022.39	0.003167
1032.04	0.004517
1041.68	0.008007
1051.33	0.011597
1060.97	0.005597
1070.62	0.002217
1080.26	0.0011726
1089.91	0.001287
1099.55	0.0007874
1109.2	0.001957
1118.84	0.001141
1128.49	0.0009863
1138.13	0.001497
1147.78	0.002967
1157.42	0.010357
1167.07	0.018737
1176.71	0.005717
1186.36	0.004227
1196	0.008097
1205.64	0.020167
1215.29	0.011757
1224.93	0.008577
1234.58	0.007657
1244.22	0.012487
1253.87	0.014367
1263.51	0.007397
1273.16	0.003967
1282.8	0.003077
1292.45	0.003227
1302.09	0.003477
1311.74	0.002957
1321.38	0.002657
1331.03	0.002497
1340.67	0.003577
1350.32	0.006277
1359.96	0.003967
1369.61	0.002157
1379.25	0.001537
1388.9	0.001417
1398.54	0.001044
1408.18	0.0010326
1417.83	0.001487
1427.47	0.0011719
1437.12	0.0011233
1446.76	0.001407
1456.41	0.001617
1466.05	0.001917
1475.7	0.002467
1485.34	0.003347
1494.99	0.004697
1504.63	0.004747
1514.28	0.004137
1523.92	0.003037
1533.57	0.004307
1543.21	0.004837
1552.86	0.003047
1562.5	0.002077
1572.15	0.002207
1581.79	0.003367
1591.44	0.006007
1601.08	0.007467
1610.73	0.005737
1620.37	0.002477
1630.01	0.001307
1639.66	0.000874
1649.3	0.0008514
1658.95	0.0008029
1668.59	0.0007072
1678.24	0.0007226
1687.88	0.0007608
1697.53	0.0007418
1707.17	0.0007639
1716.82	0.0009365
1726.46	0.0009086
1736.11	0.001337
1745.75	0.002457
1755.4	0.009037
1765.04	0.005477
1774.69	0.001847
1784.33	0.0010081
1793.98	0.0008267
1803.62	0.0006318
1813.27	0.0006975
1822.91	0.0006191
1832.55	0.0005974
1842.2	0.000525
1851.84	0.0005472
1861.49	0.0005815
1871.13	0.000617
1880.78	0.0005096
1890.42	0.0005274
1900.07	0.0006211
1909.71	0.000705
1919.36	0.0006622
1929	0.0006249
1938.65	0.0005316
1948.29	0.0005213
1957.94	0.0005128
1967.58	0.0005604
1977.23	0.0005785
1986.87	0.0005058
1996.52	0.0005121
2006.16	0.0006491
2015.81	0.0006027
2025.45	0.00052
2035.1	0.0005781
2044.74	0.0005717
2054.38	0.0005685
2064.03	0.0005219
2073.67	0.0005731
2083.32	0.000512
2092.96	0.0005246
2102.61	0.0005507
2112.25	0.0004815
2121.9	0.0005142
2131.54	0.0005278
2141.19	0.0004654
2150.83	0.0004458
2160.48	0.0004098
2170.12	0.0004497
2179.77	0.0004782
2189.41	0.0004369
2199.06	0.0004748
2208.7	0.0004623
2218.35	0.0004625
2227.99	0.0004086
2237.64	0.0004344
2247.28	0.0005181
2256.92	0.0004337
2266.57	0.0004439
2276.21	0.0004996
2285.86	0.0004749
2295.5	0.0004958
2305.15	0.0005084
2314.79	0.0005106
2324.44	0.0005046
2334.08	0.0005003
2343.73	0.0005438
2353.37	0.0005291
2363.02	0.0004523
2372.66	0.0005381
2382.31	0.0005094
2391.95	0.0004901
2401.6	0.0006001
2411.24	0.0006288
2420.89	0.0005695
2430.53	0.000468
2440.18	0.0005117
2449.82	0.0005639
2459.47	0.0006404
2469.11	0.0005105
2478.75	0.0004773
2488.4	0.0005353
2498.04	0.0004812
2507.69	0.000564
2517.33	0.0004871
2526.98	0.0005662
2536.62	0.0005617
2546.27	0.0005821
2555.91	0.0005897
2565.56	0.0005083
2575.2	0.0005877
2584.85	0.0004931
2594.49	0.0005657
2604.14	0.0006037
2613.78	0.0005717
2623.43	0.0005602
2633.07	0.0005776
2642.72	0.0005261
2652.36	0.0005528
2662.01	0.0005329
2671.65	0.0004831
2681.29	0.0005177
2690.94	0.0005302
2700.58	0.0005427
2710.23	0.0004863
2719.87	0.0005181
2729.52	0.0004947
2739.16	0.0006035
2748.81	0.0006187
2758.45	0.0005689
2768.1	0.0005978
2777.74	0.0005986
2787.39	0.0003835
2797.03	0.0006304
2806.68	0.0006585
2816.32	0.0007113
2825.97	0.0007503
2835.61	0.000993
2845.26	0.001397
2854.9	0.002287
2864.55	0.003307
2874.19	0.002947
2883.84	0.002577
2893.48	0.002337
2903.12	0.002697
2912.77	0.003697
2922.41	0.005487
2932.06	0.007847
2941.7	0.006947
2951.35	0.004887
2960.99	0.003737
2970.64	0.003257
2980.28	0.001987
2989.93	0.0012017
2999.57	0.0009081
3009.22	0.0007647
3018.86	0.0007666
3028.51	0.0006498
3038.15	0.0005934
3047.8	0.0007444
3057.44	0.0006796
3067.09	0.0007136
3076.73	0.0006768
3086.38	0.0008799
3096.02	0.0006401
3105.67	0.0004916
3115.31	0.0004988
3124.95	0.0004681
3134.6	0.0003893
3144.24	0.0005851
3153.89	0.0004531
3163.53	0.000433
3173.18	0.00037614
3182.82	0.0005118
3192.47	0.0003953
3202.11	0.0004992
3211.76	0.0004809
3221.4	0.0004216
3231.05	0.0004137
3240.69	0.0003793
3250.34	0.0004027
3259.98	0.000436
3269.63	0.0003447
3279.27	0.00034057
3288.92	0.00036312
3298.56	0.00030205
3308.21	0.00029168
3317.85	0.0004122
3327.49	0.0003782
3337.14	0.00045
3346.78	0.0004081
3356.43	0.0004226
3366.07	0.0004885
3375.72	0.00034228
3385.36	0.0003994
3395.01	0.0003907
3404.65	0.0004434
3414.3	0.0003832
3423.94	0.0004689
3433.59	0.0001829
3443.23	0.00033281
3452.88	0.0004078
3462.52	0.0004351
3472.17	0.0004355
3481.81	0.0005293
3491.46	0.0004284
3501.1	0.0004402
3510.75	0.0004143
3520.39	0.00036859
3530.04	0.0003151
3539.68	0.0004494
3549.32	0.0005121
3558.97	0.0004257
3568.61	0.00032506
3578.26	0.000281288
3587.9	0.0004916
3597.55	0.0004684
3607.19	0.0003507
3616.84	0.00037238
3626.48	0.00026968
3636.13	0.00029436
3645.77	0.00037022
3655.42	0.0002315
3665.06	0.000235
3674.71	0.00032993
3684.35	0.00034137
3694	0.0003537
3703.64	0.00035081
3713.29	0.00029789
3722.93	0.00032318
3732.58	0.00037269
3742.22	0.00027002
3751.86	0.0004372
3761.51	0.0005539
3771.15	0.0004502
3780.8	0.000171
3790.44	0.00032962
3800.09	0.00036629
3809.73	0.00046
3819.38	0.00034992
3829.02	0.0005563
3838.67	0.0002454
3848.31	0.0003423
3857.96	0.00036353
3867.6	0.000438
3877.25	0.0004807
3886.89	0.0004175
3896.54	0.0003761
3906.18	0.00035033
3915.83	0.0004479
3925.47	0.0004346
3935.12	0.0004326
3944.76	0.0004269
3954.41	0.00031876
3964.05	0.00034721
3973.69	0.0004673
3983.34	0.00034556
3992.98	0.0004163
