Infrared Spectrum: Hydrazine, p-tolyl-, hydrochloride
Formula: C7 H11 Cl N2
CAS: 637-60-5
State: SOLID (KBr DISC)
Class: COBLENTZ III
Instrument: PERKIN-ELMER 157
Sampling: TRANSMISSION
Resolution: 2
Origin: BRITISH PETROLEUM CO. LTD., ENGLAND
1/CM	TRANSMITTANCE
667	0.722
676	0.6645
685	0.4785
694	0.1775
703	0.599
712	0.1842
721	0.3458
730	0.7397
739	0.8178
748	0.8211
757	0.7891
766	0.692
775	0.5578
784	0.2958
793	0.4321
802	0.222
811	0.0394
820	0.1023
829	0.2295
838	0.4573
847	0.4456
856	0.1753
865	0.0691
874	0.1654
883	0.3216
892	0.4003
901	0.4687
910	0.6104
919	0.6295
928	0.5732
937	0.7298
946	0.7363
955	0.7436
964	0.7829
973	0.7782
982	0.7675
991	0.7655
1000	0.7385
1009	0.6687
1018	0.5828
1027	0.6217
1036	0.4061
1045	0.6145
1054	0.7231
1063	0.7393
1072	0.7385
1081	0.7329
1090	0.7042
1099	0.6509
1108	0.5762
1117	0.4891
1126	0.4861
1135	0.6341
1144	0.5604
1153	0.4086
1162	0.3777
1171	0.4117
1180	0.5039
1189	0.4966
1198	0.4347
1207	0.4493
1216	0.5306
1225	0.546
1234	0.4941
1243	0.4741
1252	0.6823
1261	0.707
1270	0.7073
1279	0.6963
1288	0.6675
1297	0.6348
1306	0.6187
1315	0.6078
1324	0.6292
1333	0.6591
1342	0.659
1351	0.6568
1360	0.638
1369	0.5924
1378	0.4253
1387	0.586
1396	0.5699
1405	0.542
1414	0.442
1423	0.438
1432	0.4288
1441	0.4025
1450	0.3719
1459	0.3111
1468	0.2563
1477	0.1562
1486	0.0515
1495	0.0534
1504	0.0883
1513	0.0926
1522	0.1902
1531	0.2803
1540	0.2474
1549	0.2164
1558	0.2475
1567	0.2247
1576	0.1231
1585	0.0736
1594	0.1739
1603	0.3112
1612	0.3853
1621	0.3899
1630	0.5046
1639	0.5806
1648	0.6221
1657	0.6327
1666	0.644
1675	0.6517
1684	0.651
1693	0.649
1702	0.6451
1711	0.6424
1720	0.6416
1729	0.6393
1738	0.6374
1747	0.6374
1756	0.6383
1765	0.6393
1774	0.6404
1783	0.6411
1792	0.6412
1801	0.64
1810	0.6345
1819	0.6256
1828	0.6165
1837	0.609
1846	0.5969
1855	0.5813
1864	0.5484
1873	0.5398
1882	0.5581
1891	0.5779
1900	0.5821
1909	0.583
1918	0.5831
1927	0.5829
1936	0.5821
1945	0.5817
1954	0.5842
1963	0.5896
1972	0.5917
1981	0.591
1990	0.5912
1999	0.5927
2008	0.5951
2017	0.5974
2026	0.599
2035	0.5998
2044	0.6
2053	0.6002
2062	0.6004
2071	0.6004
2080	0.5999
2089	0.5996
2098	0.5992
2107	0.5988
2116	0.5984
2125	0.5979
2134	0.5963
2143	0.5946
2152	0.5928
2161	0.5902
2170	0.5875
2179	0.5845
2188	0.581
2197	0.5773
2206	0.5727
2215	0.5682
2224	0.5636
2233	0.5589
2242	0.5545
2251	0.5499
2260	0.5445
2269	0.5376
2278	0.5293
2287	0.5188
2296	0.5086
2305	0.4995
2314	0.4921
2323	0.4839
2332	0.4795
2341	0.4771
2350	0.4685
2359	0.4554
2368	0.4491
2377	0.4433
2386	0.4376
2395	0.4311
2404	0.4242
2413	0.4177
2422	0.4121
2431	0.4063
2440	0.4005
2449	0.3938
2458	0.3872
2467	0.3804
2476	0.3731
2485	0.3636
2494	0.3262
2503	0.3193
2512	0.315
2521	0.3125
2530	0.3105
2539	0.2915
2548	0.2842
2557	0.27
2566	0.2511
2575	0.2181
2584	0.1956
2593	0.178
2602	0.1545
2611	0.1393
2620	0.1235
2629	0.1082
2638	0.0953
2647	0.08
2656	0.0742
2665	0.0737
2674	0.0723
2683	0.0768
2692	0.0824
2701	0.0878
2710	0.0924
2719	0.0954
2728	0.0957
2737	0.0932
2746	0.0898
2755	0.083
2764	0.0757
2773	0.0688
2782	0.0615
2791	0.0538
2800	0.048
2809	0.0423
2818	0.0355
2827	0.0288
2836	0.0232
2845	0.0203
2854	0.0195
2863	0.0193
2872	0.019
2881	0.0188
2890	0.0187
2899	0.0186
2908	0.0185
2917	0.0184
2926	0.0183
2935	0.0184
2944	0.0192
2953	0.0202
2962	0.0231
2971	0.0251
2980	0.0257
2989	0.0262
2998	0.0271
3007	0.0279
3016	0.0293
3025	0.031
3034	0.0327
3043	0.0344
3052	0.0363
3061	0.0385
3070	0.0448
3079	0.067
3088	0.0841
3097	0.0888
3106	0.0929
3115	0.0947
3124	0.0957
3133	0.0948
3142	0.0801
3151	0.0696
3160	0.0619
3169	0.0559
3178	0.0528
3187	0.0616
3196	0.104
3205	0.1475
3214	0.1908
3223	0.2338
3232	0.2766
3241	0.3192
3250	0.3604
3259	0.3657
3268	0.3681
3277	0.3691
3286	0.3701
3295	0.3705
3304	0.3706
3313	0.3706
3322	0.3705
3331	0.3703
3340	0.37
3349	0.3689
3358	0.3677
3367	0.367
3376	0.3665
3385	0.3661
3394	0.3662
3403	0.3664
3412	0.3665
3421	0.3668
3430	0.3672
3439	0.3675
3448	0.3678
3457	0.3696
3466	0.3741
3475	0.3789
3484	0.3817
3493	0.383
3502	0.3833
3511	0.3834
3520	0.3844
3529	0.3887
3538	0.3962
3547	0.4027
3556	0.4085
3565	0.4106
3574	0.4124
3583	0.4143
3592	0.416
3601	0.4163
3610	0.4166
3619	0.417
3628	0.4173
3637	0.4176
3646	0.4176
3655	0.4183
3664	0.4174
3673	0.4172
3682	0.4171
3691	0.417
3700	0.4169
3709	0.4168
3718	0.416
3727	0.415
3736	0.414
3745	0.4129
3754	0.4097
3763	0.4062
3772	0.4025
3781	0.3989
3790	0.3954
3799	0.3921
3808	0.3887
3817	0.387
3826	0.3863
3835	0.3858
3844	0.3855
3853	0.3838
3862	0.3796
3871	0.3758
3880	0.3734
3889	0.3723
3898	0.3718
3907	0.3713
3916	0.3709
3925	0.3705
3934	0.3702
3943	0.3699
3952	0.3694
3961	0.369
3970	0.3687
3979	0.3682
3988	0.3678
3997	0.3675
