Infrared Spectrum: BENZENE, 1-PROPENYL-
Formula: C9 H10
CAS: 637-50-3
State: LIQUID (NEAT)
Class: COBLENTZ III
Instrument: PERKIN-ELMER 521 (GRATING)
Instrument parameters: FILTERS AT 3150, 2500, 2000, 1150, 700, 410. GRATING CHANGES: 2000, 630 CM^-^1
Sampling: TRANSMISSION
Path length: 0.0025 CM (NaCl CELL)
Resolution: 4
Origin: STANDARD OIL OF OHIO
1/CM	TRANSMITTANCE
645.374	0.635
654.625	0.62
663.876	0.619
673.127	0.561
682.379	0.2294
691.63	0.0648
700.881	0.3459
710.132	0.506
719.383	0.4262
728.634	0.1121
737.885	0.027
747.137	0.4255
756.388	0.622
765.639	0.587
774.89	0.7169
784.141	0.751
793.392	0.715
802.643	0.5521
811.895	0.6786
821.146	0.719
830.397	0.721
839.648	0.729
848.899	0.779
858.15	0.793
867.401	0.784
876.653	0.75
885.904	0.702
895.155	0.69
904.406	0.6181
913.657	0.641
922.908	0.654
932.159	0.5181
941.411	0.2901
950.662	0.213
959.913	0.022
969.164	0.0979
978.415	0.322
987.666	0.5868
996.917	0.661
1006.17	0.692
1015.42	0.677
1024.67	0.631
1033.92	0.695
1043.17	0.724
1052.42	0.728
1061.68	0.6431
1070.93	0.603
1080.18	0.727
1089.43	0.709
1098.68	0.667
1107.93	0.698
1117.18	0.74
1126.43	0.745
1135.68	0.749
1144.94	0.733
1154.19	0.683
1163.44	0.661
1172.69	0.5981
1181.94	0.715
1191.19	0.727
1200.44	0.703
1209.69	0.685
1218.94	0.727
1228.2	0.728
1237.45	0.751
1246.7	0.77
1255.95	0.771
1265.2	0.753
1274.45	0.687
1283.7	0.749
1292.95	0.713
1302.21	0.6809
1311.46	0.75
1320.71	0.732
1329.96	0.72
1339.21	0.782
1348.46	0.769
1357.71	0.7231
1366.96	0.5901
1376.21	0.523
1385.47	0.708
1394.72	0.719
1403.97	0.681
1413.22	0.6529
1422.47	0.5022
1431.72	0.366
1440.97	0.198
1450.22	0.1999
1459.47	0.5718
1468.73	0.662
1477.98	0.604
1487.23	0.616
1496.48	0.333
1505.73	0.821
1514.98	0.842
1524.23	0.842
1533.48	0.847
1542.73	0.858
1551.99	0.858
1561.24	0.839
1570.49	0.818
1579.74	0.656
1588.99	0.753
1598.24	0.6079
1607.49	0.6229
1616.74	0.808
1626	0.816
1635.25	0.797
1644.5	0.715
1653.75	0.7
1663	0.6659
1672.25	0.7687
1681.5	0.842
1690.75	0.828
1700	0.796
1709.26	0.766
1718.51	0.812
1727.76	0.832
1737.01	0.833
1746.26	0.811
1755.51	0.822
1764.76	0.809
1774.01	0.784
1783.26	0.835
1792.52	0.824
1801.77	0.786
1811.02	0.824
1820.27	0.85
1829.52	0.879
1838.77	0.872
1848.02	0.859
1857.27	0.87
1866.52	0.834
1875.78	0.78
1885.03	0.821
1894.28	0.851
1903.53	0.888
1912.78	0.892
1922.03	0.876
1931.28	0.859
1940.53	0.7949
1949.78	0.771
1959.04	0.828
1968.29	0.851
1977.54	0.888
1986.79	0.887
1996.04	0.872
2005.29	0.885
2014.54	0.902
2023.79	0.91
2033.05	0.912
2042.3	0.91
2051.55	0.912
2060.8	0.91
2070.05	0.909
2079.3	0.91
2088.55	0.91
2097.8	0.91
2107.05	0.91
2116.31	0.91
2125.56	0.909
2134.81	0.9062
2144.06	0.9078
2153.31	0.905
2162.56	0.906
2171.81	0.906
2181.06	0.905
2190.31	0.905
2199.57	0.904
2208.82	0.904
2218.07	0.902
2227.32	0.902
2236.57	0.901
2245.82	0.8933
2255.07	0.8947
2264.32	0.897
2273.57	0.8922
2282.83	0.8958
2292.08	0.9008
2301.33	0.9
2310.58	0.892
2319.83	0.8966
2329.08	0.901
2338.33	0.901
2347.58	0.901
2356.84	0.9
2366.09	0.8978
2375.34	0.897
2384.59	0.8923
2393.84	0.893
2403.09	0.896
2412.34	0.898
2421.59	0.9007
2430.84	0.901
2440.1	0.902
2449.35	0.901
2458.6	0.8973
2467.85	0.895
2477.1	0.893
2486.35	0.896
2495.6	0.898
2504.85	0.9
2514.1	0.898
2523.36	0.8987
2532.61	0.898
2541.86	0.896
2551.11	0.896
2560.36	0.8964
2569.61	0.891
2578.86	0.887
2588.11	0.884
2597.36	0.8862
2606.62	0.889
2615.87	0.889
2625.12	0.891
2634.37	0.892
2643.62	0.893
2652.87	0.893
2662.12	0.892
2671.37	0.891
2680.63	0.8899
2689.88	0.889
2699.13	0.8845
2708.38	0.8765
2717.63	0.8619
2726.88	0.8188
2736.13	0.7776
2745.38	0.865
2754.63	0.87
2763.89	0.864
2773.14	0.8625
2782.39	0.8535
2791.64	0.8406
2800.89	0.8226
2810.14	0.8005
2819.39	0.7732
2828.64	0.7585
2837.89	0.7325
2847.15	0.5581
2856.4	0.3683
2865.65	0.4514
2874.9	0.4216
2884.15	0.4412
2893.4	0.4588
2902.65	0.4258
2911.9	0.3019
2921.15	0.2106
2930.41	0.2484
2939.66	0.2286
2948.91	0.3395
2958.16	0.3077
2967.41	0.2085
2976.66	0.2807
2985.91	0.4449
2995.16	0.504
3004.42	0.4703
3013.67	0.4068
3022.92	0.1694
3032.17	0.0704
3041.42	0.2602
3050.67	0.425
3059.92	0.3384
3069.17	0.3266
3078.42	0.4811
3087.68	0.3209
3096.93	0.6545
3106.18	0.6713
3115.43	0.7552
3124.68	0.8128
3133.93	0.8355
3143.18	0.843
3152.43	0.8462
3161.68	0.8597
3170.94	0.872
3180.19	0.8774
3189.44	0.883
3198.69	0.8842
3207.94	0.888
3217.19	0.8882
3226.44	0.8912
3235.69	0.895
3244.94	0.897
3254.2	0.898
3263.45	0.898
3272.7	0.897
3281.95	0.897
3291.2	0.897
3300.45	0.898
3309.7	0.898
3318.95	0.898
3328.21	0.898
3337.46	0.9
3346.71	0.9
3355.96	0.898
3365.21	0.8998
3374.46	0.895
3383.71	0.8979
3392.96	0.897
3402.21	0.893
3411.47	0.892
3420.72	0.891
3429.97	0.891
3439.22	0.889
3448.47	0.892
3457.72	0.891
3466.97	0.891
3476.22	0.891
3485.47	0.891
3494.73	0.888
3503.98	0.892
3513.23	0.893
3522.48	0.893
3531.73	0.895
3540.98	0.896
3550.23	0.895
3559.48	0.892
3568.73	0.889
3577.99	0.889
3587.24	0.891
3596.49	0.8969
3605.74	0.898
3614.99	0.9
3624.24	0.9
3633.49	0.9
3642.74	0.9009
3652	0.901
3661.25	0.9038
3670.5	0.905
3679.75	0.906
3689	0.906
3698.25	0.908
3707.5	0.908
3716.75	0.908
3726	0.909
3735.26	0.91
3744.51	0.909
3753.76	0.908
3763.01	0.906
3772.26	0.906
3781.51	0.904
3790.76	0.904
3800.01	0.904
3809.26	0.902
3818.52	0.9
3827.77	0.9
3837.02	0.9
3846.27	0.9
3855.52	0.898
3864.77	0.898
3874.02	0.898
3883.27	0.898
3892.52	0.898
3901.78	0.898
3911.03	0.8995
3920.28	0.9
3929.53	0.9
3938.78	0.9
3948.03	0.9
3957.28	0.9
3966.53	0.9
3975.78	0.901
3985.04	0.901
3994.29	0.9017
4003.54	0.902
