Infrared Spectrum: 4-Vinylanisole
Formula: C 9 H 10 O
CAS: 637-69-4
State: gas
Instrument: HP-GC/MS/IRD
Origin: NIST Mass Spectrometry Data Center
1/CM	ABSORBANCE
550	0.001298
562	0.0011176
574	0.000616
586	0.0004356
598	0.0001892
610	0.0001496
622	0.0001232
634	0.00033
646	0.000264
658	0.0001056
670	1.76e-05
682	0.000264
694	0.0007392
706	0.0015752
718	0.0010648
730	0.0001936
742	0.0001672
754	0.0001716
766	0.0002728
778	0.0003828
790	0.0008712
802	0.002024
814	0.0043032
826	0.0085712
838	0.0106964
850	0.0060016
862	0.0022968
874	0.0016808
886	0.002992
898	0.0051436
910	0.0050908
922	0.0028468
934	0.0013068
946	0.0011572
958	0.0016412
970	0.00264
982	0.0036828
994	0.0037796
1006	0.0037664
1018	0.0061996
1030	0.0094248
1042	0.0097636
1054	0.006534
1066	0.0026356
1078	0.0014212
1090	0.0012672
1102	0.0017996
1114	0.0019932
1126	0.0014388
1138	0.0012408
1150	0.0019668
1162	0.0070224
1174	0.0134112
1186	0.0064108
1198	0.0032164
1210	0.0039468
1222	0.0075856
1234	0.019954
1246	0.0419892
1258	0.0339328
1270	0.0138732
1282	0.012584
1294	0.01111
1306	0.0067056
1318	0.003608
1330	0.002244
1342	0.0012936
1354	0.000924
1366	0.0007568
1378	0.0007744
1390	0.0010824
1402	0.0019844
1414	0.0026224
1426	0.0023628
1438	0.0031724
1450	0.0042196
1462	0.005126
1474	0.005236
1486	0.0051084
1498	0.0162448
1510	0.0354596
1522	0.0159896
1534	0.0026884
1546	0.0015708
1558	0.0018348
1570	0.003036
1582	0.0043912
1594	0.0080608
1606	0.0129448
1618	0.0110528
1630	0.0077396
1642	0.0038456
1654	0.0014432
1666	0.000792
1678	0.0005192
1690	0.0003872
1702	0.000352
1714	0.0003608
1726	0.0003564
1738	0.0004312
1750	0.0005324
1762	0.0004268
1774	0.0003036
1786	0.0003872
1798	0.000726
1810	0.0012232
1822	0.0010032
1834	0.0004796
1846	0.0004048
1858	0.0004576
1870	0.0006776
1882	0.0007392
1894	0.000506
1906	0.000308
1918	0.0002112
1930	0.0002376
1942	0.0004356
1954	0.00055
1966	0.000528
1978	0.000418
1990	0.0003872
2002	0.0003828
2014	0.0003432
2026	0.0003344
2038	0.0004444
2050	0.0005984
2062	0.000726
2074	0.000726
2086	0.000572
2098	0.000352
2110	0.0001848
2122	0.00011
2134	5.28e-05
2146	4.4e-05
2158	8.8e-06
2170	1.76e-05
2182	1.76e-05
2194	3.96e-05
2206	0.0001232
2218	0.0001628
2230	0.0001056
2242	4.84e-05
2254	6.6e-05
2266	9.68e-05
2278	0.0001936
2290	0.0002332
2302	0.0002112
2314	0.000198
2326	0.000176
2338	0.0001496
2350	0.00011
2362	4.4e-05
2374	3.08e-05
2386	4.4e-05
2398	9.68e-05
2410	0.0001804
2422	0.0002068
2434	0.0001936
2446	0.0001408
2458	9.68e-05
2470	0.0001628
2482	0.0001804
2494	0.000242
2506	0.0002596
2518	0.0003124
2530	0.0003564
2542	0.0004092
2554	0.0003828
2566	0.0002112
2578	0.0001188
2590	9.68e-05
2602	0.00011
2614	0.0001056
2626	6.16e-05
2638	7.04e-05
2650	8.36e-05
2662	3.96e-05
2674	3.52e-05
2686	3.52e-05
2698	8.8e-05
2710	6.6e-05
2722	8.36e-05
2734	0.0001012
2746	0.000132
2758	0.0002156
2770	0.000264
2782	0.0003476
2794	0.0005104
2806	0.0007436
2818	0.0011924
2830	0.0022968
2842	0.0045408
2854	0.0037048
2866	0.0019668
2878	0.0016456
2890	0.0019668
2902	0.0028512
2914	0.0041448
2926	0.0046552
2938	0.0059796
2950	0.0068332
2962	0.005962
2974	0.0046244
2986	0.004444
2998	0.0064724
3010	0.0091916
3022	0.0062436
3034	0.004818
3046	0.004686
3058	0.0035816
3070	0.003454
3082	0.0042636
3094	0.005522
3106	0.0033528
3118	0.0014476
3130	0.0008228
3142	0.0005192
3154	0.0003344
3166	0.0002464
3178	0.0001628
3190	0.0002024
3202	0.0001628
3214	0.0002112
3226	0.0001716
3238	0.0001144
3250	0.0001056
3262	0.0001012
3274	7.04e-05
3286	5.28e-05
3298	4.4e-05
3310	7.04e-05
3322	4.84e-05
3334	7.92e-05
3346	5.72e-05
3358	0.0001188
3370	2.64e-05
3382	9.68e-05
3394	2.2e-05
3406	4.84e-05
3418	3.08e-05
3430	3.52e-05
3442	6.6e-05
3454	3.08e-05
3466	9.68e-05
3478	3.08e-05
3490	4.84e-05
3502	7.04e-05
3514	2.2e-05
3526	3.96e-05
3538	7.48e-05
3550	4.84e-05
3562	2.2e-05
3574	0.00011
3586	0.0001012
3598	8.8e-05
3610	6.6e-05
3622	4.84e-05
3634	3.52e-05
3646	0.0001276
3658	0.0001364
3670	0.0001848
3682	0.0001496
3694	9.24e-05
3706	0.0001144
3718	0.0001628
3730	0.0001716
3742	0.0001012
3754	0.0001188
3766	0.0001056
3778	0.0001408
3790	0.0001056
3802	9.68e-05
3814	2.64e-05
3826	9.24e-05
3838	0.0001936
