Infrared Spectrum: 1-Chloro-4-iodobenzene
Formula: C6 H4 Cl I
CAS: 637-87-6
State: SOLUTION (10% CCl4 FOR 3800-1330, 10% CS2 FOR 1330-400 CM^-^1)
Boiling point: 113 C AT 29 mmHg
Class: COBLENTZ III
Instrument: BECKMAN IR-9 (GRATING)
Instrument parameters: ORDER CHANGES: 670, 1200, 2000 CM^-^1
Sampling: TRANSMISSION
Path length: 0.011 CM, 0.011 CM
Resolution: 2
Origin: DOW CHEMICAL COMPANY
1/CM	TRANSMITTANCE
3800	0.9018
3791	0.9031
3782	0.9013
3773	0.9029
3764	0.9029
3755	0.9021
3746	0.9013
3737	0.9009
3728	0.8992
3719	0.8955
3710	0.8975
3701	0.901
3692	0.9022
3683	0.9025
3674	0.9027
3665	0.9029
3656	0.9031
3647	0.9034
3638	0.9037
3629	0.9035
3620	0.9041
3611	0.9032
3602	0.9012
3593	0.9006
3584	0.8992
3575	0.8966
3566	0.8948
3557	0.8934
3548	0.8938
3539	0.8919
3530	0.8911
3521	0.8883
3512	0.8872
3503	0.887
3494	0.8868
3485	0.8864
3476	0.8863
3467	0.886
3458	0.8858
3449	0.8855
3440	0.8853
3431	0.8854
3422	0.886
3413	0.8864
3404	0.8869
3395	0.8873
3386	0.8879
3377	0.8884
3368	0.8894
3359	0.8902
3350	0.8912
3341	0.8922
3332	0.8929
3323	0.8939
3314	0.8949
3305	0.8974
3296	0.897
3287	0.8979
3278	0.8998
3269	0.9009
3260	0.9016
3251	0.9021
3242	0.9024
3233	0.902
3224	0.9018
3215	0.9015
3206	0.8996
3197	0.9
3188	0.8998
3179	0.8975
3170	0.8966
3161	0.8964
3152	0.8955
3143	0.8926
3134	0.8922
3125	0.8901
3116	0.888
3107	0.8864
3098	0.8862
3089	0.8849
3080	0.8801
3071	0.8814
3062	0.8853
3053	0.8936
3044	0.9012
3035	0.9043
3026	0.8993
3017	0.9029
3008	0.904
2999	0.906
2990	0.9085
2981	0.9088
2972	0.91
2963	0.9098
2954	0.9081
2945	0.9062
2936	0.9072
2927	0.9064
2918	0.9058
2909	0.9071
2900	0.9081
2891	0.9082
2882	0.9081
2873	0.9075
2864	0.9056
2855	0.9051
2846	0.9077
2837	0.9084
2828	0.9053
2819	0.8944
2810	0.8961
2801	0.906
2792	0.9104
2783	0.9107
2774	0.9107
2765	0.9026
2756	0.9019
2747	0.9093
2738	0.9129
2729	0.9137
2720	0.9135
2711	0.9135
2702	0.9138
2693	0.914
2684	0.9143
2675	0.9144
2666	0.9134
2657	0.9119
2648	0.9103
2639	0.9117
2630	0.9141
2621	0.9147
2612	0.9178
2603	0.9181
2594	0.9173
2585	0.916
2576	0.9143
2567	0.91
2558	0.9123
2549	0.9162
2540	0.9187
2531	0.9169
2522	0.9191
2513	0.9202
2504	0.9207
2495	0.921
2486	0.9213
2477	0.9228
2468	0.9228
2459	0.922
2450	0.9204
2441	0.9218
2432	0.922
2423	0.922
2414	0.921
2405	0.9185
2396	0.9168
2387	0.9206
2378	0.9283
2369	0.9304
2360	0.9262
2351	0.9277
2342	0.926
2333	0.924
2324	0.9264
2315	0.9239
2306	0.9205
2297	0.9167
2288	0.9027
2279	0.8886
2270	0.9005
2261	0.9091
2252	0.9127
2243	0.9142
2234	0.916
2225	0.918
2216	0.9172
2207	0.9181
2198	0.9189
2189	0.9178
2180	0.9179
2171	0.9195
2162	0.9181
2153	0.918
2144	0.9179
2135	0.9178
2126	0.918
2117	0.9176
2108	0.9201
2099	0.9211
2090	0.9211
2081	0.9203
2072	0.9161
2063	0.9115
2054	0.9156
2045	0.9135
2036	0.9127
2027	0.9128
2018	0.9125
2009	0.9162
2000	0.9228
1991	0.9232
1982	0.9233
1973	0.9239
1964	0.925
1955	0.9243
1946	0.9174
1937	0.9222
1928	0.9195
1919	0.9155
1910	0.9114
1901	0.9036
1892	0.8508
1883	0.8634
1874	0.9117
1865	0.915
1856	0.9165
1847	0.9164
1838	0.9173
1829	0.9174
1820	0.9126
1811	0.9138
1802	0.9179
1793	0.9212
1784	0.9195
1775	0.8917
1766	0.8942
1757	0.9195
1748	0.9086
1739	0.9085
1730	0.9088
1721	0.911
1712	0.914
1703	0.9139
1694	0.9133
1685	0.9128
1676	0.9121
1667	0.9119
1658	0.9071
1649	0.9011
1640	0.8823
1631	0.836
1622	0.8797
1613	0.8916
1604	0.8845
1595	0.8664
1586	0.8644
1577	0.8243
1568	0.787
1559	0.7822
1550	0.8256
1541	0.8375
1532	0.8081
1523	0.8315
1514	0.8746
1505	0.8878
1496	0.8899
1487	0.8673
1478	0.7691
1469	0.0096
1460	0.7622
1451	0.8966
1442	0.9027
1433	0.8964
1424	0.8998
1415	0.8362
1406	0.8559
1397	0.872
1388	0.6363
1379	0.6534
1370	0.8817
1361	0.889
1352	0.8932
1343	0.8566
1334	0.8957
1325	0.8974
1316	0.9066
1307	0.9045
1298	0.8896
1289	0.8996
1280	0.9119
1271	0.9236
1262	0.909
1253	0.8939
1244	0.9183
1235	0.9208
1226	0.9124
1217	0.8752
1208	0.9038
1199	0.8935
1190	0.9106
1181	0.8988
1172	0.8909
1163	0.9108
1154	0.9267
1145	0.9286
1136	0.9402
1127	0.9303
1118	0.9236
1109	0.9005
1100	0.7384
1091	0.0185
1082	0.5261
1073	0.7967
1064	0.8839
1055	0.4759
1046	0.9066
1037	0.9131
1028	0.9055
1019	0.8878
1010	0.7004
1001	0.29
992	0.8775
983	0.9047
974	0.9118
965	0.9081
956	0.8986
947	0.894
938	0.8918
929	0.9066
920	0.915
911	0.9161
902	0.9146
893	0.9041
884	0.9044
875	0.897
866	0.8846
857	0.8705
848	0.8678
839	0.8814
830	0.8631
821	0.6992
812	0.1248
803	0.4236
794	0.8677
785	0.8835
776	0.8945
767	0.8991
758	0.8973
749	0.8684
740	0.8806
731	0.8884
722	0.8533
713	0.8811
704	0.8778
695	0.8714
686	0.8619
677	0.8911
668	0.9245
659	0.9034
650	0.9114
641	0.9039
632	0.8969
623	0.8956
614	0.8968
605	0.8934
596	0.8917
587	0.8899
578	0.8915
569	0.8933
560	0.8911
551	0.886
542	0.8818
533	0.879
524	0.874
515	0.8628
506	0.8455
497	0.8247
488	0.7766
479	0.3149
470	0.3797
461	0.7497
452	0.7352
443	0.6987
434	0.6611
425	0.6108
416	0.4146
407	0.1017
