Infrared Spectrum: Phenylpropiolic acid
Formula: C 9 H 6 O 2
CAS: 637-44-5
State: gas
Origin: EPA-IR VAPOR PHASE LIBRARY
1/CM	ABSORBANCE
549.8	0.011049
559.445	0.014459
569.09	0.013679
578.734	0.008419
588.379	0.009929
598.024	0.013489
607.669	0.018539
617.313	0.034019
626.958	0.026459
636.603	0.027129
646.248	0.040689
655.893	0.025489
665.537	0.031669
675.182	0.024089
684.827	0.029779
694.472	0.027109
704.116	0.021369
713.761	0.013079
723.406	0.009719
733.051	0.014919
742.695	0.025819
752.34	0.044449
761.985	0.029199
771.63	0.019079
781.275	0.007459
790.919	0.002749
800.564	0.001219
810.209	0.0011301
819.854	0.0011355
829.498	0.0011142
839.143	0.0007065
848.788	0.0008249
858.433	0.0011715
868.078	0.001889
877.722	0.002559
887.367	0.003149
897.012	0.003449
906.657	0.003139
916.301	0.003409
925.946	0.002409
935.591	0.001639
945.236	0.0011121
954.88	0.0008491
964.525	0.0006514
974.17	0.0007261
983.815	0.0006583
993.46	0.0011191
1003.1	0.001299
1012.75	0.002479
1022.39	0.003539
1032.04	0.003219
1041.68	0.001939
1051.33	0.002759
1060.97	0.004009
1070.62	0.004439
1080.26	0.004379
1089.91	0.005949
1099.55	0.008249
1109.2	0.015479
1118.84	0.030449
1128.49	0.061489
1138.13	0.067479
1147.78	0.027149
1157.42	0.012479
1167.07	0.006999
1176.71	0.005189
1186.36	0.005029
1196	0.005399
1205.64	0.007849
1215.29	0.015729
1224.93	0.016409
1234.58	0.012359
1244.22	0.007249
1253.87	0.006759
1263.51	0.007639
1273.16	0.009209
1282.8	0.011469
1292.45	0.016579
1302.09	0.020779
1311.74	0.018889
1321.38	0.010759
1331.03	0.005499
1340.67	0.004699
1350.32	0.006239
1359.96	0.018509
1369.61	0.018979
1379.25	0.003629
1388.9	0.001689
1398.54	0.0011896
1408.18	0.0008745
1417.83	0.001329
1427.47	0.002449
1437.12	0.003779
1446.76	0.003289
1456.41	0.002709
1466.05	0.002269
1475.7	0.007259
1485.34	0.014769
1494.99	0.015049
1504.63	0.005839
1514.28	0.002459
1523.92	0.001549
1533.57	0.0009618
1543.21	0.0007835
1552.86	0.0008256
1562.5	0.0010847
1572.15	0.001839
1581.79	0.003279
1591.44	0.004439
1601.08	0.004339
1610.73	0.002859
1620.37	0.001309
1630.01	0.000901
1639.66	0.0006907
1649.3	0.0010815
1658.95	0.001709
1668.59	0.002069
1678.24	0.002069
1687.88	0.002419
1697.53	0.002959
1707.17	0.004659
1716.82	0.007869
1726.46	0.013399
1736.11	0.024879
1745.75	0.060299
1755.4	0.064509
1765.04	0.024609
1774.69	0.017319
1784.33	0.014079
1793.98	0.009899
1803.62	0.006189
1813.27	0.003679
1822.91	0.002129
1832.55	0.001619
1842.2	0.001239
1851.84	0.0011317
1861.49	0.001339
1871.13	0.001639
1880.78	0.001969
1890.42	0.001959
1900.07	0.001619
1909.71	0.0009984
1919.36	0.001197
1929	0.001509
1938.65	0.001889
1948.29	0.002089
1957.94	0.002119
1967.58	0.001559
1977.23	0.0007897
1986.87	0.0004016
1996.52	0.0005674
2006.16	0.0006077
2015.81	0.0005265
2025.45	0.000641
2035.1	0.0005481
2044.74	0.0003867
2054.38	0.0003991
2064.03	0.0005308
2073.67	0.000646
2083.32	0.0009301
2092.96	0.001539
2102.61	0.002329
2112.25	0.002499
2121.9	0.002049
2131.54	0.0011855
2141.19	0.0009003
2150.83	0.0011655
2160.48	0.001639
2170.12	0.002919
2179.77	0.004839
2189.41	0.007319
2199.06	0.010449
2208.7	0.015499
2218.35	0.023079
2227.99	0.024479
2237.64	0.013539
2247.28	0.007519
2256.92	0.009879
2266.57	0.011309
2276.21	0.013949
2285.86	0.024889
2295.5	0.045399
2305.15	0.070439
2314.79	0.088329
2324.44	0.098889
2334.08	0.090339
2343.73	0.098059
2353.37	0.109179
2363.02	0.124649
2372.66	0.098259
2382.31	0.045599
2391.95	0.005559
2401.6	0.001359
2411.24	0.0009281
2420.89	0.0008265
2430.53	0.0008277
2440.18	0.0007288
2449.82	0.0006151
2459.47	0.0006763
2469.11	0.0006168
2478.75	0.0006614
2488.4	0.0007144
2498.04	0.000772
2507.69	0.0006993
2517.33	0.0008258
2526.98	0.0007564
2536.62	0.000632
2546.27	0.0006236
2555.91	0.000534
2565.56	0.0005784
2575.2	0.0005566
2584.85	0.0004775
2594.49	0.0004528
2604.14	0.0006001
2613.78	0.0003584
2623.43	0.0003157
2633.07	0.0005035
2642.72	0.0004188
2652.36	0.0003493
2662.01	0.0003761
2671.65	0.000467
2681.29	0.0005002
2690.94	0.0004043
2700.58	0.0005341
2710.23	0.0004019
2719.87	0.0005312
2729.52	0.0003639
2739.16	0.0003568
2748.81	0.00022285
2758.45	0.0003052
2768.1	0.0003523
2777.74	0.0004766
2787.39	0.0003961
2797.03	0.00029265
2806.68	0.00028183
2816.32	0.00028751
2825.97	0.00022886
2835.61	0.00026822
2845.26	0.0004762
2854.9	0.0003203
2864.55	0.0005866
2874.19	0.0006386
2883.84	0.0005802
2893.48	0.0005185
2903.12	0.0004982
2912.77	0.0006052
2922.41	0.0006021
2932.06	0.0007083
2941.7	0.000602
2951.35	0.0004926
2960.99	0.0005232
2970.64	0.0004776
2980.28	0.0005671
2989.93	0.00088
2999.57	0.001399
3009.22	0.002179
3018.86	0.003739
3028.51	0.005539
3038.15	0.007299
3047.8	0.008419
3057.44	0.010579
3067.09	0.015529
3076.73	0.016899
3086.38	0.013289
3096.02	0.011879
3105.67	0.007449
3115.31	0.003849
3124.95	0.001489
3134.6	0.0011236
3144.24	0.0006723
3153.89	0.0008163
3163.53	0.000642
3173.18	0.0003896
3182.82	0.0004666
3192.47	0.0003686
3202.11	0.0005284
3211.76	0.0005046
3221.4	0.00019623
3231.05	0.000548
3240.69	0.0006242
3250.34	0.0006309
3259.98	0.001059
3269.63	0.001929
3279.27	0.003459
3288.92	0.006269
3298.56	0.009979
3308.21	0.014859
3317.85	0.022509
3327.49	0.028389
3337.14	0.021989
3346.78	0.009579
3356.43	0.002419
3366.07	0.0011415
3375.72	0.000669
3385.36	0.0003559
3395.01	0.0004018
3404.65	0.0004473
3414.3	0.0003966
3423.94	0.0003738
3433.59	0.0005609
3443.23	0.0001782
3452.88	0.0007034
3462.52	0.0007553
3472.17	0.0010239
3481.81	0.0009447
3491.46	0.0010075
3501.1	0.000632
3510.75	0.0011933
3520.39	0.0010116
3530.04	0.0006412
3539.68	0.000849
3549.32	0.001469
3558.97	0.004359
3568.61	0.023099
3578.26	0.021969
3587.9	0.004279
3597.55	0.003369
3607.19	0.002419
3616.84	0.001799
3626.48	0.002589
3636.13	0.002589
3645.77	0.001469
3655.42	0.0009338
3665.06	0.0010384
3674.71	0.001459
3684.35	0.002219
3694	0.002789
3703.64	0.003139
3713.29	0.001889
3722.93	0.002879
3732.58	0.004039
3742.22	0.003209
3751.86	0.001439
3761.51	0.0003372
3771.15	0.0004421
3780.8	0.0001479
3790.44	0.0001048
3800.09	0.0003521
3809.73	0.00027023
3819.38	0.0004219
3829.02	0.0008596
3838.67	0.0001637
3848.31	0.0003391
3857.96	0.0001033
3867.6	0.0003431
3877.25	0.00025149
3886.89	0.0005951
3896.54	0.0001362
3906.18	0.00027328
3915.83	0.0004091
3925.47	0.0007768
3935.12	0.0006481
3944.76	0.0006526
3954.41	0.0005542
3964.05	0.0001046
3973.69	0.00022664
3983.34	0.0004113
3992.98	0.0005206
