Infrared Spectrum: Thioacetanilide
Formula: C 8 H 9 N S
CAS: 637-53-6
State: gas
Origin: EPA-IR VAPOR PHASE LIBRARY
1/CM	ABSORBANCE
549.8	0.005667
559.445	0.006437
569.09	0.007327
578.734	0.007167
588.379	0.008577
598.024	0.009687
607.669	0.014917
617.313	0.013817
626.958	0.008677
636.603	0.007207
646.248	0.006107
655.893	0.006477
665.537	0.009277
675.182	0.014037
684.827	0.021267
694.472	0.024047
704.116	0.022447
713.761	0.025817
723.406	0.032757
733.051	0.030397
742.695	0.020087
752.34	0.014187
761.985	0.012697
771.63	0.010117
781.275	0.008017
790.919	0.005847
800.564	0.004697
810.209	0.005007
819.854	0.005417
829.498	0.007267
839.143	0.009877
848.788	0.008107
858.433	0.005197
868.078	0.004257
877.722	0.004137
887.367	0.005267
897.012	0.005427
906.657	0.005707
916.301	0.005987
925.946	0.005807
935.591	0.006637
945.236	0.008337
954.88	0.010847
964.525	0.014457
974.17	0.020227
983.815	0.023757
993.46	0.021587
1003.1	0.016017
1012.75	0.011337
1022.39	0.013747
1032.04	0.014167
1041.68	0.010697
1051.33	0.009187
1060.97	0.009947
1070.62	0.009817
1080.26	0.008457
1089.91	0.006917
1099.55	0.006717
1109.2	0.007357
1118.84	0.008227
1128.49	0.010727
1138.13	0.014027
1147.78	0.016627
1157.42	0.017947
1167.07	0.026017
1176.71	0.047537
1186.36	0.049797
1196	0.026397
1205.64	0.015327
1215.29	0.013427
1224.93	0.013537
1234.58	0.013277
1244.22	0.011827
1253.87	0.011657
1263.51	0.013187
1273.16	0.016077
1282.8	0.020517
1292.45	0.027607
1302.09	0.041307
1311.74	0.066287
1321.38	0.103687
1331.03	0.136097
1340.67	0.136597
1350.32	0.118927
1359.96	0.100817
1369.61	0.087597
1379.25	0.066447
1388.9	0.038127
1398.54	0.025477
1408.18	0.022767
1417.83	0.026707
1427.47	0.031187
1437.12	0.034327
1446.76	0.038667
1456.41	0.047837
1466.05	0.062007
1475.7	0.066957
1485.34	0.078817
1494.99	0.120877
1504.63	0.118677
1514.28	0.073827
1523.92	0.044417
1533.57	0.029127
1543.21	0.020057
1552.86	0.014797
1562.5	0.012587
1572.15	0.012617
1581.79	0.018647
1591.44	0.032957
1601.08	0.033057
1610.73	0.015727
1620.37	0.009167
1630.01	0.007537
1639.66	0.007717
1649.3	0.009137
1658.95	0.007907
1668.59	0.004807
1678.24	0.003287
1687.88	0.002757
1697.53	0.002577
1707.17	0.002637
1716.82	0.002637
1726.46	0.002847
1736.11	0.002637
1745.75	0.002667
1755.4	0.002597
1765.04	0.002977
1774.69	0.003337
1784.33	0.003107
1793.98	0.002997
1803.62	0.002617
1813.27	0.002317
1822.91	0.002207
1832.55	0.002077
1842.2	0.002057
1851.84	0.002387
1861.49	0.002507
1871.13	0.002667
1880.78	0.002647
1890.42	0.002187
1900.07	0.002117
1909.71	0.002257
1919.36	0.002387
1929	0.002667
1938.65	0.003037
1948.29	0.003137
1957.94	0.002727
1967.58	0.001867
1977.23	0.0015093
1986.87	0.0015068
1996.52	0.0015092
2006.16	0.0014885
2015.81	0.0015135
2025.45	0.0014149
2035.1	0.0015112
2044.74	0.001597
2054.38	0.001717
2064.03	0.001807
2073.67	0.001627
2083.32	0.0014708
2092.96	0.00144
2102.61	0.0014285
2112.25	0.001363
2121.9	0.0012097
2131.54	0.0011878
2141.19	0.0011907
2150.83	0.0013231
2160.48	0.0012478
2170.12	0.00127
2179.77	0.001294
2189.41	0.0011501
2199.06	0.0011464
2208.7	0.0011514
2218.35	0.0010619
2227.99	0.0011537
2237.64	0.0011256
2247.28	0.0011646
2256.92	0.0011316
2266.57	0.0011636
2276.21	0.0011871
2285.86	0.0012329
2295.5	0.0013171
2305.15	0.0013119
2314.79	0.001647
2324.44	0.001737
2334.08	0.001727
2343.73	0.001687
2353.37	0.0015314
2363.02	0.0014556
2372.66	0.0013914
2382.31	0.0012893
2391.95	0.0011015
2401.6	0.0010429
2411.24	0.0012279
2420.89	0.001205
2430.53	0.0013862
2440.18	0.0014108
2449.82	0.0014576
2459.47	0.0013351
2469.11	0.0014426
2478.75	0.0014593
2488.4	0.001597
2498.04	0.001597
2507.69	0.0015685
2517.33	0.001579
2526.98	0.0013425
2536.62	0.0013234
2546.27	0.0012324
2555.91	0.0013297
2565.56	0.001456
2575.2	0.0014608
2584.85	0.0011921
2594.49	0.0012594
2604.14	0.0011658
2613.78	0.0011131
2623.43	0.0010648
2633.07	0.0011941
2642.72	0.0013139
2652.36	0.0012991
2662.01	0.0013398
2671.65	0.0012814
2681.29	0.0011542
2690.94	0.0010975
2700.58	0.0011548
2710.23	0.0011988
2719.87	0.0011139
2729.52	0.0011744
2739.16	0.0011659
2748.81	0.0012895
2758.45	0.0012347
2768.1	0.0011932
2777.74	0.0012025
2787.39	0.0014588
2797.03	0.001637
2806.68	0.001627
2816.32	0.001607
2825.97	0.001717
2835.61	0.001907
2845.26	0.002177
2854.9	0.002487
2864.55	0.002837
2874.19	0.003387
2883.84	0.003987
2893.48	0.004787
2903.12	0.005587
2912.77	0.006367
2922.41	0.006967
2932.06	0.007097
2941.7	0.005667
2951.35	0.004247
2960.99	0.003607
2970.64	0.003007
2980.28	0.002617
2989.93	0.002657
2999.57	0.003327
3009.22	0.004727
3018.86	0.007537
3028.51	0.010597
3038.15	0.012767
3047.8	0.012947
3057.44	0.013797
3067.09	0.017937
3076.73	0.019347
3086.38	0.014757
3096.02	0.010607
3105.67	0.007347
3115.31	0.004447
3124.95	0.002427
3134.6	0.0014925
3144.24	0.0011894
3153.89	0.0010375
3163.53	0.0010498
3173.18	0.0007887
3182.82	0.0007726
3192.47	0.0007332
3202.11	0.0008227
3211.76	0.0005156
3221.4	0.00060322
3231.05	0.00060954
3240.69	0.0005395
3250.34	0.0007017
3259.98	0.00063031
3269.63	0.0009172
3279.27	0.0007073
3288.92	0.0005421
3298.56	0.00066735
3308.21	0.0005295
3317.85	0.0005767
3327.49	0.0006911
3337.14	0.000439
3346.78	0.0011679
3356.43	0.001637
3366.07	0.002957
3375.72	0.005207
3385.36	0.007707
3395.01	0.008127
3404.65	0.007887
3414.3	0.010377
3423.94	0.012127
3433.59	0.009937
3443.23	0.004787
3452.88	0.002117
3462.52	0.0012112
3472.17	0.0008178
3481.81	0.0007971
3491.46	0.000586354
3501.1	0.00065759
3510.75	0.0007468
3520.39	0.00058479
3530.04	0.00067532
3539.68	0.0007374
3549.32	0.0005065
3558.97	0.000401
3568.61	0.00064131
3578.26	0.000328
3587.9	0.000433
3597.55	0.00067141
3607.19	0.00044
3616.84	0.00063739
3626.48	0.00068172
3636.13	0.00062932
3645.77	0.000444
3655.42	0.00066003
3665.06	0.0005037
3674.71	0.0006109
3684.35	0.0005528
3694	0.0005424
3703.64	0.0005422
3713.29	0.0008636
3722.93	0.0007174
3732.58	0.000138
3742.22	0.000371
3751.86	0.000266
3761.51	0.000372
3771.15	0.000358
3780.8	0.0005482
3790.44	0.0005245
3800.09	0.0005235
3809.73	0.0005351
3819.38	0.000404
3829.02	0.000403
3838.67	0.000447
3848.31	0.000318
3857.96	0.000593195
3867.6	0.000483
3877.25	0.0007515
3886.89	0.00043
3896.54	0.0007368
3906.18	0.00047
3915.83	0.0005159
3925.47	0.000554
3935.12	0.00061504
3944.76	0.0005404
3954.41	0.00068607
3964.05	0.0008279
3973.69	0.0004921
3983.34	0.000476
3992.98	0.000397
