Infrared Spectrum: t-Butyl ethyl ether
Formula: C 6 H 14 O
CAS: 637-92-3
State: gas
Instrument: HP-GC/MS/IRD
Origin: NIST Mass Spectrometry Data Center
1/CM	ABSORBANCE
550	0.0001824
562	0.0001344
574	0.0001296
586	0.0001344
598	7.68e-05
610	7.2e-05
622	8.64e-05
634	8.64e-05
646	0.00012
658	0.0001536
670	4.32e-05
682	0.0001296
694	0.0001344
706	0.0003744
718	0.0006432
730	0.0010128
742	0.0009264
754	0.0005856
766	0.0003504
778	0.0002208
790	0.00036
802	0.0005328
814	0.000696
826	0.0014304
838	0.002328
850	0.002328
862	0.0011568
874	0.0005184
886	0.0004032
898	0.0005808
910	0.0008736
922	0.0012528
934	0.0023328
946	0.0038304
958	0.0038736
970	0.0023856
982	0.0010992
994	0.000888
1006	0.0014496
1018	0.0020832
1030	0.0029808
1042	0.0053952
1054	0.0114144
1066	0.0186288
1078	0.0190224
1090	0.013368
1102	0.013728
1114	0.0160464
1126	0.0113184
1138	0.0056256
1150	0.0045072
1162	0.0051984
1174	0.0079872
1186	0.0154608
1198	0.0232176
1210	0.0213456
1222	0.0123168
1234	0.010608
1246	0.00852
1258	0.0052896
1270	0.00288
1282	0.001752
1294	0.0013392
1306	0.0011376
1318	0.0010752
1330	0.0013728
1342	0.0030816
1354	0.0075504
1366	0.0117936
1378	0.0106512
1390	0.0092928
1402	0.0070416
1414	0.0029376
1426	0.0020592
1438	0.002304
1450	0.0029328
1462	0.0032832
1474	0.0032592
1486	0.0027264
1498	0.001824
1510	0.000888
1522	0.0005328
1534	0.0004224
1546	0.0004032
1558	0.0003456
1570	0.000288
1582	0.0002976
1594	0.0002592
1606	0.0002592
1618	0.00024
1630	0.0002304
1642	0.000288
1654	0.0002832
1666	0.0002352
1678	0.0002832
1690	0.000288
1702	0.0002304
1714	0.0002112
1726	0.0001392
1738	0.0001632
1750	0.0001872
1762	0.0002256
1774	0.000312
1786	0.00036
1798	0.0004128
1810	0.0003888
1822	0.0002496
1834	0.0001968
1846	0.0001872
1858	0.000216
1870	0.0002256
1882	0.0002496
1894	0.0003408
1906	0.0004368
1918	0.0004512
1930	0.00036
1942	0.000288
1954	0.0002064
1966	0.0001824
1978	0.0001248
1990	0.0001248
2002	0.0001056
2014	0.0001104
2026	8.64e-05
2038	0.0001152
2050	0.0001344
2062	9.6e-05
2074	0.0001104
2086	0.0001248
2098	0.0001296
2110	0.0001488
2122	0.0001152
2134	0.0001488
2146	0.00012
2158	0.0001392
2170	0.0001728
2182	0.0002112
2194	0.0001728
2206	0.0001488
2218	8.64e-05
2230	0.00012
2242	8.64e-05
2254	0.00012
2266	9.12e-05
2278	0.0001536
2290	0.0001152
2302	6.72e-05
2314	0.0001056
2326	0.0001104
2338	0.0001056
2350	8.16e-05
2362	0.0001248
2374	9.12e-05
2386	9.6e-05
2398	6.72e-05
2410	6.24e-05
2422	0.0001056
2434	5.28e-05
2446	0.0001104
2458	6.72e-05
2470	1.44e-05
2482	5.76e-05
2494	4.32e-05
2506	2.4e-05
2518	4.8e-05
2530	6.24e-05
2542	7.2e-05
2554	6.24e-05
2566	0.0001008
2578	0.00012
2590	0.000192
2602	0.0002544
2614	0.0002976
2626	0.0004032
2638	0.0003024
2650	0.0003072
2662	0.000288
2674	0.0003024
2686	0.0002976
2698	0.0004416
2710	0.0006672
2722	0.0009024
2734	0.0009936
2746	0.000984
2758	0.0010608
2770	0.0011664
2782	0.0012048
2794	0.0013392
2806	0.0016656
2818	0.0020976
2830	0.0026832
2842	0.0037056
2854	0.0053712
2866	0.0087744
2878	0.0130128
2890	0.0154368
2902	0.016152
2914	0.0156192
2926	0.016968
2938	0.0189024
2950	0.0193296
2962	0.026496
2974	0.0442368
2986	0.0447888
2998	0.0216624
3010	0.0072432
3022	0.0034512
3034	0.002208
3046	0.0015168
3058	0.0011712
3070	0.0009792
3082	0.0008688
3094	0.00084
3106	0.000744
3118	0.0006528
3130	0.0006576
3142	0.0005808
3154	0.0006096
3166	0.0006336
3178	0.0005904
3190	0.0006288
3202	0.0005136
3214	0.00048
3226	0.000528
3238	0.00048
3250	0.0002736
3262	0.0002448
3274	0.0001536
3286	0.000216
3298	0.0001776
3310	0.0001776
3322	0.0002736
3334	0.0001872
3346	0.00012
3358	4.8e-05
3370	0.0001872
3382	9.6e-05
3394	0.0001056
3406	7.2e-05
3418	0.000216
3430	8.64e-05
3442	0.0001824
3454	0.0002112
3466	0.0001584
3478	9.12e-05
3490	0.0001536
3502	0.0001296
3514	0.0001152
3526	5.28e-05
3538	5.28e-05
3550	0.0001104
3562	0.00012
3574	6.72e-05
3586	6.72e-05
3598	2.4e-05
3610	2.4e-05
3622	0.0001728
3634	0.0001104
3646	0.0001584
3658	5.76e-05
3670	0.0001104
3682	9.12e-05
3694	9.6e-05
3706	0.0001776
3718	6.24e-05
3730	0.000216
3742	0.0001152
3754	0.0001968
3766	0.0002256
3778	0.0002352
3790	0.0001488
3802	0.0002832
3814	0.0002304
3826	0.0002256
3838	6.72e-05
