Infrared Spectrum: Morpholine, 4-(3-(p-n-butoxyphenoxy)-propyl)-, hydrochloride
Formula: C17 H28 Cl N O3
CAS: 637-58-1
State: SOLUTION (7% CHCl3 FOR 2.5-12.5 MICRON) VS SOLVENT
Class: COBLENTZ
Instrument: PERKIN-ELMER 21 (GRATING)
Instrument parameters: FILTER AT ABOUT 10 MICRONS
Path length: 0.01 CM
Resolution: 2
Origin: ABBOTT LABORATORIES
1/CM	TRANSMITTANCE
731	0.9508
740	0.9493
749	0.9499
758	0.9688
767	0.9708
776	0.9823
785	0.9946
794	0.9756
803	0.9162
812	0.7892
821	0.5156
830	0.6541
839	0.7918
848	0.8565
857	0.8189
866	0.7721
875	0.8041
884	0.8277
893	0.7405
902	0.8467
911	0.8678
920	0.9073
929	0.8636
938	0.7569
947	0.7633
956	0.7704
965	0.6859
974	0.6965
983	0.6058
992	0.748
1001	0.6535
1010	0.6751
1019	0.6313
1028	0.6131
1037	0.5502
1046	0.4817
1055	0.5014
1064	0.5096
1073	0.5467
1082	0.5795
1091	0.5063
1100	0.3286
1109	0.6445
1118	0.7279
1127	0.7106
1136	0.7142
1145	0.8096
1154	0.8179
1163	0.8149
1172	0.7741
1181	0.6275
1190	0.4091
1199	0.3264
1208	0.245
1217	0.1719
1226	0.2334
1235	0.3095
1244	0.4853
1253	0.5509
1262	0.6834
1271	0.6681
1280	0.6925
1289	0.691
1298	0.6996
1307	0.7672
1316	0.7849
1325	0.8124
1334	0.8061
1343	0.7942
1352	0.7496
1361	0.7112
1370	0.6353
1379	0.5773
1388	0.6638
1397	0.7234
1406	0.7647
1415	0.7345
1424	0.6408
1433	0.5497
1442	0.5409
1451	0.4605
1460	0.3742
1469	0.5891
1478	0.6838
1487	0.4372
1496	0.1308
1505	0.5652
1514	0.7862
1523	0.8492
1532	0.8775
1541	0.8862
1550	0.8873
1559	0.8795
1568	0.8582
1577	0.8569
1586	0.8875
1595	0.8808
1604	0.8785
1613	0.8873
1622	0.8943
1631	0.8949
1640	0.8952
1649	0.8989
1658	0.902
1667	0.901
1676	0.9046
1685	0.9113
1694	0.915
1703	0.9146
1712	0.9137
1721	0.9175
1730	0.9242
1739	0.9299
1748	0.931
1757	0.9305
1766	0.928
1775	0.9243
1784	0.9216
1793	0.9184
1802	0.9139
1811	0.909
1820	0.9045
1829	0.9012
1838	0.8991
1847	0.8982
1856	0.8975
1865	0.8965
1874	0.8951
1883	0.8907
1892	0.8847
1901	0.8796
1910	0.8733
1919	0.8655
1928	0.8563
1937	0.8475
1946	0.8395
1955	0.8318
1964	0.8231
1973	0.8122
1982	0.8013
1991	0.7906
2000	0.7791
2009	0.7675
2018	0.7546
2027	0.7398
2036	0.7216
2045	0.7068
2054	0.693
2063	0.6816
2072	0.6759
2081	0.6716
2090	0.6543
2099	0.6266
2108	0.6039
2117	0.5881
2126	0.5723
2135	0.5558
2144	0.5387
2153	0.52
2162	0.5028
2171	0.483
2180	0.468
2189	0.4583
2198	0.4454
2207	0.4438
2216	0.4436
2225	0.4418
2234	0.434
2243	0.4341
2252	0.4362
2261	0.4393
2270	0.4441
2279	0.4523
2288	0.4639
2297	0.4772
2306	0.4862
2315	0.4918
2324	0.5003
2333	0.5001
2342	0.5015
2351	0.5081
2360	0.5256
2369	0.5352
2378	0.5394
2387	0.5491
2396	0.5714
2405	0.5974
2414	0.6173
2423	0.6327
2432	0.6492
2441	0.6654
2450	0.6729
2459	0.6766
2468	0.679
2477	0.681
2486	0.6838
2495	0.6925
2504	0.7091
2513	0.726
2522	0.7436
2531	0.7603
2540	0.7721
2549	0.7837
2558	0.806
2567	0.8213
2576	0.8296
2585	0.8359
2594	0.8415
2603	0.8464
2612	0.8506
2621	0.8525
2630	0.8539
2639	0.8544
2648	0.8549
2657	0.8553
2666	0.8557
2675	0.8553
2684	0.8553
2693	0.8553
2702	0.8552
2711	0.8551
2720	0.8549
2729	0.854
2738	0.8528
2747	0.8482
2756	0.8372
2765	0.8217
2774	0.8034
2783	0.783
2792	0.7315
2801	0.6791
2810	0.6269
2819	0.5751
2828	0.5446
2837	0.5377
2846	0.5162
2855	0.4722
2864	0.4284
2873	0.385
2882	0.3418
2891	0.3187
2900	0.3155
2909	0.3157
2918	0.3206
2927	0.4013
2936	0.4978
2945	0.5936
2954	0.6888
2963	0.7834
2972	0.8775
2981	0.9053
2990	0.9081
2999	0.9091
3008	0.9103
3017	0.9118
3026	0.9149
3035	0.9179
3044	0.9206
3053	0.9215
3062	0.9222
3071	0.9226
3080	0.9227
3089	0.9228
3098	0.9227
3107	0.9226
3116	0.9224
3125	0.9215
3134	0.9203
3143	0.9191
3152	0.9173
3161	0.9154
3170	0.9135
3179	0.9116
3188	0.9097
3197	0.9078
3206	0.906
3215	0.9044
3224	0.903
3233	0.9015
3242	0.9003
3251	0.8999
3260	0.8995
3269	0.8992
3278	0.8989
3287	0.8987
3296	0.899
3305	0.8993
3314	0.8996
3323	0.8999
3332	0.9001
3341	0.9006
3350	0.902
3359	0.9035
3368	0.905
3377	0.9064
3386	0.9088
3395	0.9114
3404	0.9139
3413	0.9165
3422	0.9183
3431	0.9201
3440	0.9218
3449	0.9225
3458	0.9224
3467	0.9224
3476	0.9223
3485	0.9226
3494	0.9231
3503	0.9253
3512	0.9284
3521	0.9309
3530	0.9333
3539	0.9339
3548	0.9344
3557	0.9348
3566	0.9352
3575	0.9351
3584	0.9349
3593	0.9347
3602	0.9345
3611	0.9338
3620	0.9331
3629	0.9324
3638	0.9317
3647	0.931
3656	0.9304
3665	0.9296
3674	0.9289
3683	0.9282
3692	0.9276
3701	0.927
3710	0.9264
3719	0.9258
3728	0.9252
3737	0.9246
3746	0.9241
3755	0.9235
3764	0.9229
3773	0.9223
3782	0.9218
3791	0.9211
3800	0.9206
3809	0.9201
3818	0.9194
3827	0.9187
3836	0.918
3845	0.9173
3854	0.9166
3863	0.916
3872	0.9153
3881	0.9145
3890	0.9138
3899	0.9131
3908	0.9125
3917	0.9121
3926	0.9118
3935	0.9114
3944	0.9111
3953	0.9108
3962	0.9105
3971	0.9102
3980	0.9099
3989	0.9096
3998	0.9093
