Infrared Spectrum: Cyclohexane-1,4-dione
Formula: C 6 H 8 O 2
CAS: 637-88-7
State: gas
Instrument: HP-GC/MS/IRD
Origin: NIST Mass Spectrometry Data Center
1/CM	ABSORBANCE
550	0.000565
562	0.000385
574	0.00033
586	0.00016
598	0.00016
610	4e-05
622	0.000155
634	3e-05
646	1.5e-05
658	4e-05
670	5.5e-05
682	3e-05
694	0.0001
706	0.00017
718	0.00024
730	0.000375
742	0.00028
754	0.000195
766	0.00021
778	0.000425
790	0.000825
802	0.00118
814	0.00089
826	0.000495
838	0.000265
850	0.000175
862	0.000235
874	0.000395
886	0.000465
898	0.00039
910	0.000435
922	0.00055
934	0.00136
946	0.00335
958	0.003685
970	0.002705
982	0.00102
994	0.000435
1006	0.000255
1018	0.000225
1030	0.00035
1042	0.00053
1054	0.00074
1066	0.000995
1078	0.00165
1090	0.002855
1102	0.004515
1114	0.005995
1126	0.00644
1138	0.00517
1150	0.003255
1162	0.001655
1174	0.00093
1186	0.000875
1198	0.00081
1210	0.000845
1222	0.001115
1234	0.002145
1246	0.00357
1258	0.00385
1270	0.00324
1282	0.002825
1294	0.00329
1306	0.003245
1318	0.00221
1330	0.001235
1342	0.00072
1354	0.000535
1366	0.000485
1378	0.00051
1390	0.00066
1402	0.001315
1414	0.00339
1426	0.005305
1438	0.00505
1450	0.00263
1462	0.00111
1474	0.000615
1486	0.00045
1498	0.000325
1510	0.000315
1522	0.000275
1534	0.00025
1546	0.00021
1558	0.000195
1570	0.00021
1582	0.000255
1594	0.00034
1606	0.000435
1618	0.000555
1630	0.00067
1642	0.000815
1654	0.00104
1666	0.00155
1678	0.00233
1690	0.00354
1702	0.005365
1714	0.01011
1726	0.030655
1738	0.05
1750	0.03968
1762	0.010225
1774	0.004895
1786	0.003295
1798	0.001925
1810	0.001195
1822	0.00085
1834	0.00067
1846	0.00057
1858	0.00045
1870	0.000305
1882	0.000195
1894	0.00017
1906	0.000135
1918	0.00019
1930	0.000225
1942	0.00024
1954	0.00021
1966	0.00016
1978	0.00014
1990	0.00012
2002	0.00013
2014	0.000135
2026	0.000155
2038	0.000155
2050	0.00014
2062	0.000115
2074	0.0001
2086	0.000115
2098	9.5e-05
2110	0.000105
2122	9e-05
2134	9e-05
2146	0.000105
2158	0.00012
2170	9.5e-05
2182	6.5e-05
2194	7e-05
2206	7e-05
2218	6.5e-05
2230	0.00011
2242	0.00013
2254	0.000135
2266	0.000135
2278	0.00013
2290	0.000115
2302	0.000145
2314	0.000125
2326	0.000125
2338	0.0001
2350	6.5e-05
2362	0.0001
2374	0.000105
2386	8e-05
2398	3.5e-05
2410	6e-05
2422	5e-05
2434	5.5e-05
2446	5e-05
2458	6.5e-05
2470	3.5e-05
2482	6e-05
2494	5.5e-05
2506	1.5e-05
2518	3.5e-05
2530	3.5e-05
2542	4.5e-05
2554	3.5e-05
2566	2e-05
2578	2.5e-05
2590	4e-05
2602	5.5e-05
2614	6.5e-05
2626	4e-05
2638	2.5e-05
2650	2e-05
2662	2.5e-05
2674	6.5e-05
2686	5.5e-05
2698	6e-05
2710	6.5e-05
2722	8e-05
2734	7.5e-05
2746	9.5e-05
2758	0.0001
2770	9e-05
2782	0.000125
2794	0.000135
2806	0.00018
2818	0.000305
2830	0.000545
2842	0.000695
2854	0.000655
2866	0.00064
2878	0.0007
2890	0.00092
2902	0.00181
2914	0.003045
2926	0.003305
2938	0.00242
2950	0.00222
2962	0.00336
2974	0.00415
2986	0.003315
2998	0.00169
3010	0.000875
3022	0.000515
3034	0.000355
3046	0.00028
3058	0.000245
3070	0.000255
3082	0.00019
3094	0.000155
3106	7.5e-05
3118	8e-05
3130	8.5e-05
3142	8.5e-05
3154	8.5e-05
3166	6.5e-05
3178	2e-05
3190	2.5e-05
3202	1e-05
3214	4e-05
3226	1.5e-05
3238	8e-05
3250	5.5e-05
3262	7.5e-05
3274	5e-05
3286	6.5e-05
3298	8e-05
3310	8.5e-05
3322	9e-05
3334	9.5e-05
3346	8e-05
3358	0.000105
3370	0.00011
3382	0.00011
3394	0.000155
3406	0.000215
3418	0.000275
3430	0.00037
3442	0.00061
3454	0.000925
3466	0.00106
3478	0.00083
3490	0.000455
3502	0.000255
3514	0.000235
3526	0.00017
3538	0.00015
3550	0.000105
3562	0.000105
3574	0.00011
3586	4.5e-05
3598	0.00012
3610	0.00015
3622	0.00015
3634	0.000135
3646	0.00017
3658	0.0002
3670	0.00014
3682	0.00014
3694	0.00015
3706	0.00015
3718	0.00011
3730	0.000145
3742	0.000115
3754	0.000145
3766	0.00011
3778	0.00015
3790	0.00016
3802	0.00011
3814	9.5e-05
3826	0.00013
3838	8e-05
