Infrared Spectrum: p-Hydroxythiophenol
Formula: C 6 H 6 O S
CAS: 637-89-8
State: gas
Instrument: HP-GC/MS/IRD
Origin: NIST Mass Spectrometry Data Center
1/CM	ABSORBANCE
550	8.2e-05
562	2.5e-05
574	7.4e-05
586	0.000158
598	8.7e-05
610	1e-05
622	0.000359
634	0.000768
646	0.000493
658	1.4e-05
670	7e-06
682	4.2e-05
694	8.1e-05
706	8.4e-05
718	9e-05
730	7.2e-05
742	6.4e-05
754	9.9e-05
766	0.000208
778	0.000388
790	0.00095
802	0.0019
814	0.002523
826	0.002176
838	0.00116
850	0.000353
862	0.000196
874	9.7e-05
886	0.00012
898	7.9e-05
910	0.00014
922	0.000166
934	0.000141
946	0.000116
958	0.00012
970	0.000123
982	0.000131
994	0.000193
1006	0.000343
1018	0.000239
1030	0.000166
1042	0.000202
1054	0.000242
1066	0.000212
1078	0.000448
1090	0.000846
1102	0.001119
1114	0.000799
1126	0.000698
1138	0.000695
1150	0.001238
1162	0.006372
1174	0.01
1186	0.004988
1198	0.001835
1210	0.001246
1222	0.00124
1234	0.001717
1246	0.004492
1258	0.006049
1270	0.00247
1282	0.000834
1294	0.00044
1306	0.000676
1318	0.001226
1330	0.001083
1342	0.000519
1354	0.000293
1366	0.000205
1378	0.000139
1390	0.000163
1402	0.000443
1414	0.001158
1426	0.001142
1438	0.000427
1450	0.000293
1462	0.000462
1474	0.001308
1486	0.005159
1498	0.006246
1510	0.002109
1522	0.000678
1534	0.000386
1546	0.000274
1558	0.000425
1570	0.000814
1582	0.001602
1594	0.002222
1606	0.001734
1618	0.000675
1630	0.000247
1642	0.000229
1654	0.000268
1666	0.000162
1678	0.000127
1690	9.6e-05
1702	0.000129
1714	0.000138
1726	0.000145
1738	0.000173
1750	0.000159
1762	0.000124
1774	8.1e-05
1786	6.7e-05
1798	3.3e-05
1810	5.6e-05
1822	0.00011
1834	0.000108
1846	0.000153
1858	0.000175
1870	0.000201
1882	0.000196
1894	0.000123
1906	8.5e-05
1918	4e-05
1930	5e-05
1942	3.3e-05
1954	3.7e-05
1966	3.9e-05
1978	5.6e-05
1990	6.9e-05
2002	6.5e-05
2014	4.4e-05
2026	3.9e-05
2038	3.6e-05
2050	1.9e-05
2062	8e-05
2074	7.4e-05
2086	8.2e-05
2098	8.4e-05
2110	5.5e-05
2122	1.7e-05
2134	1e-05
2146	3.5e-05
2158	3.7e-05
2170	2.3e-05
2182	3.3e-05
2194	2.2e-05
2206	2.9e-05
2218	5.1e-05
2230	6.5e-05
2242	5.6e-05
2254	6.4e-05
2266	5e-05
2278	9.4e-05
2290	8e-05
2302	7.4e-05
2314	8.3e-05
2326	0.000117
2338	0.000135
2350	6.7e-05
2362	7.4e-05
2374	7.1e-05
2386	6.8e-05
2398	8.2e-05
2410	0.000149
2422	0.000175
2434	0.000149
2446	0.000105
2458	8.2e-05
2470	6.9e-05
2482	7.4e-05
2494	0.000104
2506	8.8e-05
2518	7.9e-05
2530	6.2e-05
2542	5.1e-05
2554	8.2e-05
2566	7.3e-05
2578	0.000138
2590	0.0001
2602	8.7e-05
2614	3.8e-05
2626	7.1e-05
2638	7.7e-05
2650	4.7e-05
2662	8.2e-05
2674	0.00011
2686	5.3e-05
2698	5.5e-05
2710	7.4e-05
2722	3.3e-05
2734	0.000111
2746	6.1e-05
2758	4e-05
2770	2.8e-05
2782	6.5e-05
2794	4.5e-05
2806	8.3e-05
2818	3.8e-05
2830	8e-05
2842	5.6e-05
2854	9.2e-05
2866	7.8e-05
2878	4.7e-05
2890	9.1e-05
2902	6.3e-05
2914	6.5e-05
2926	3.2e-05
2938	9.4e-05
2950	5e-05
2962	0.000101
2974	0.000113
2986	0.000137
2998	0.000234
3010	0.000337
3022	0.000542
3034	0.000841
3046	0.000608
3058	0.00045
3070	0.000499
3082	0.00045
3094	0.0004
3106	0.000274
3118	0.000136
3130	8.1e-05
3142	6e-06
3154	7.5e-05
3166	9e-05
3178	7.7e-05
3190	6.9e-05
3202	7.4e-05
3214	6.4e-05
3226	7.4e-05
3238	8.5e-05
3250	2.7e-05
3262	6.6e-05
3274	4.2e-05
3286	1.8e-05
3298	2.4e-05
3310	6.4e-05
3322	1.4e-05
3334	8.7e-05
3346	9.5e-05
3358	0.000104
3370	9.8e-05
3382	0.000102
3394	0.000137
3406	0.000111
3418	9.7e-05
3430	0.000158
3442	8.8e-05
3454	5.6e-05
3466	0.00012
3478	7.8e-05
3490	7.4e-05
3502	7.3e-05
3514	5.6e-05
3526	5.3e-05
3538	0.000101
3550	3.5e-05
3562	0.000109
3574	0.000113
3586	0.000117
3598	0.000152
3610	0.000247
3622	0.000364
3634	0.001182
3646	0.003655
3658	0.003352
3670	0.000895
3682	0.000283
3694	0.000186
3706	0.000185
3718	0.000177
3730	5.8e-05
3742	8.3e-05
3754	0.000126
3766	7.2e-05
3778	9.4e-05
3790	8.3e-05
3802	0.000186
3814	0.000119
3826	0.000126
3838	8.5e-05
