Infrared Spectrum: (3-Bromopropyl)benzene
Formula: C 9 H 11 Br
CAS: 637-59-2
State: gas
Instrument: HP-GC/MS/IRD
Origin: NIST Mass Spectrometry Data Center
1/CM	ABSORBANCE
550	0.0010899
562	0.0014139
574	0.0011682
586	0.0008982
598	0.0003393
610	0.0001665
622	0.0001449
634	0.0005049
646	0.0010125
658	0.001665
670	0.0017379
682	0.0032706
694	0.0080658
706	0.007236
718	0.0041643
730	0.0053613
742	0.0075717
754	0.0042012
766	0.0020259
778	0.0009999
790	0.0006606
802	0.0006723
814	0.000612
826	0.0003276
838	0.0003564
850	0.0006831
862	0.0005274
874	0.0002403
886	0.0002565
898	0.0004545
910	0.0006336
922	0.0002763
934	0.0002925
946	0.0004014
958	0.0009162
970	0.0008865
982	0.0003402
994	0.0001413
1006	0.0002511
1018	0.0005247
1030	0.001404
1042	0.0003915
1054	0.0003582
1066	0.0007722
1078	0.0008325
1090	0.000423
1102	0.0001575
1114	0.0001152
1126	4.95e-05
1138	4.05e-05
1150	6.21e-05
1162	0.000189
1174	0.0003861
1186	0.0006696
1198	0.0010206
1210	0.0012213
1222	0.0015408
1234	0.0034713
1246	0.0048519
1258	0.0033714
1270	0.0036909
1282	0.0034038
1294	0.002034
1306	0.0011349
1318	0.0007488
1330	0.0007398
1342	0.0010125
1354	0.0010395
1366	0.0004608
1378	0.0003087
1390	0.0002313
1402	0.0002547
1414	0.0004815
1426	0.0012969
1438	0.003222
1450	0.0039843
1462	0.0025695
1474	0.0012879
1486	0.0018684
1498	0.004212
1510	0.0009864
1522	0.0003258
1534	0.0002808
1546	0.0002448
1558	0.0002529
1570	0.0003573
1582	0.0007776
1594	0.0015975
1606	0.0020241
1618	0.0005706
1630	0.0002133
1642	0.0001755
1654	0.0001062
1666	6.57e-05
1678	6.21e-05
1690	3.15e-05
1702	1.98e-05
1714	8.55e-05
1726	0.0001278
1738	0.0001611
1750	0.0001539
1762	9.81e-05
1774	0.0001224
1786	0.0003672
1798	0.0005508
1810	0.0002781
1822	0.0001674
1834	8.64e-05
1846	0.0001278
1858	0.0002826
1870	0.0003636
1882	0.0003294
1894	9.99e-05
1906	0.0001116
1918	0.0001791
1930	0.0004122
1942	0.0005049
1954	0.0004743
1966	0.0001485
1978	3.78e-05
1990	4.59e-05
2002	2.43e-05
2014	2.61e-05
2026	2.34e-05
2038	1.8e-05
2050	3.6e-06
2062	9.9e-06
2074	3.24e-05
2086	2.79e-05
2098	2.61e-05
2110	6.3e-06
2122	3.42e-05
2134	2.61e-05
2146	1.98e-05
2158	1.53e-05
2170	3.15e-05
2182	6.93e-05
2194	5.22e-05
2206	6.3e-05
2218	4.41e-05
2230	4.14e-05
2242	7.74e-05
2254	4.68e-05
2266	4.23e-05
2278	4.05e-05
2290	8.19e-05
2302	7.83e-05
2314	0.0001161
2326	8.37e-05
2338	7.83e-05
2350	8.28e-05
2362	4.95e-05
2374	9.45e-05
2386	8.82e-05
2398	0.0001071
2410	0.0001116
2422	9.63e-05
2434	0.0001107
2446	8.73e-05
2458	5.4e-05
2470	8.91e-05
2482	9.63e-05
2494	0.0001107
2506	0.0001161
2518	8.73e-05
2530	8.55e-05
2542	9.81e-05
2554	0.0001026
2566	0.0001017
2578	0.0001314
2590	0.0001449
2602	0.000153
2614	0.0001809
2626	0.0001989
2638	0.0002106
2650	0.0002196
2662	0.0002061
2674	0.0002385
2686	0.0002376
2698	0.0002268
2710	0.0001998
2722	0.0002106
2734	0.0002583
2746	0.0002295
2758	0.0002358
2770	0.0002889
2782	0.0003321
2794	0.0003996
2806	0.0004248
2818	0.0005184
2830	0.0007344
2842	0.0013302
2854	0.0022104
2866	0.0027657
2878	0.0024696
2890	0.0022167
2902	0.00297
2914	0.0039978
2926	0.005049
2938	0.0066195
2950	0.0074151
2962	0.0057555
2974	0.0045207
2986	0.0027135
2998	0.0022005
3010	0.003609
3022	0.0057645
3034	0.0077904
3046	0.0047169
3058	0.0041634
3070	0.0069804
3082	0.0049563
3094	0.0032922
3106	0.0020349
3118	0.0011304
3130	0.00054
3142	0.0003366
3154	0.0003321
3166	0.0002583
3178	0.0002592
3190	0.0001881
3202	0.0001791
3214	0.0001692
3226	0.000171
3238	0.0002322
3250	0.000162
3262	0.0001413
3274	0.0001458
3286	0.000144
3298	0.0001944
3310	0.0001827
3322	0.0001179
3334	0.0001341
3346	0.0001053
3358	7.2e-05
3370	9.72e-05
3382	0.0001143
3394	0.0001161
3406	8.37e-05
3418	0.0001359
3430	9.45e-05
3442	0.0001197
3454	9.9e-05
3466	0.0001062
3478	9.27e-05
3490	7.92e-05
3502	9.54e-05
3514	0.000108
3526	9.81e-05
3538	9.72e-05
3550	2.97e-05
3562	3.33e-05
3574	0.000117
3586	0.0001305
3598	8.82e-05
3610	0.0001512
3622	0.0001323
3634	0.0001287
3646	0.0001674
3658	0.0001971
3670	0.0001107
3682	0.0001125
3694	0.0001287
3706	0.0001161
3718	0.0001476
3730	0.0001305
3742	0.0001305
3754	9e-05
3766	0.0001269
3778	0.0001161
3790	0.0001638
3802	0.0001044
3814	0.0001017
3826	0.0001593
3838	0.0001143
