Infrared Spectrum: TRIETHANOLAMINE HYDROCHLORIDE
Formula: C6 H16 Cl N O3
CAS: 637-39-8
State: SOLID (SPLIT MULL)
Class: COBLENTZ III
Instrument: PERKIN-ELMER 521 (GRATING)
Instrument parameters: FILTERS AT 3150, 2500, 2000, 1150, 700, 410. GRATING CHANGES: 2000, 630
Resolution: 2
Origin: DOW CORNING CORP.
1/CM	TRANSMITTANCE
248	0.8982
257	0.9165
266	0.9431
275	0.9615
284	0.9778
293	0.983
302	0.9919
311	1.0019
320	1.0035
329	1.0059
338	1.0052
347	1.0027
356	1.0002
365	0.9968
374	0.9881
383	0.9761
392	0.9136
401	0.8732
410	0.971
419	0.9698
428	0.9648
437	0.956
446	0.9403
455	0.923
464	0.9124
473	0.9104
482	0.9006
491	0.8868
500	0.8739
509	0.8719
518	0.8402
527	0.7374
536	0.7405
545	0.779
554	0.7987
563	0.8553
572	0.8316
581	0.7894
590	0.7062
599	0.5175
608	0.4179
617	0.6143
626	0.5383
635	0.6931
644	0.7944
653	0.833
662	0.8512
671	0.8748
680	0.8716
689	0.8754
698	0.8663
707	0.864
716	0.8514
725	0.8153
734	0.843
743	0.8645
752	0.8713
761	0.8655
770	0.8779
779	0.8812
788	0.8802
797	0.873
806	0.8709
815	0.8819
824	0.8953
833	0.8975
842	0.8841
851	0.8755
860	0.8773
869	0.8745
878	0.8648
887	0.8546
896	0.8133
905	0.7805
914	0.6374
923	0.6301
932	0.8225
941	0.8279
950	0.8273
959	0.8219
968	0.8131
977	0.8069
986	0.7986
995	0.7513
1004	0.4961
1013	0.5976
1022	0.6035
1031	0.3186
1040	0.4906
1049	0.6119
1058	0.6235
1067	0.4968
1076	0.4838
1085	0.4348
1094	0.4158
1103	0.536
1112	0.5848
1121	0.5791
1130	0.5658
1139	0.5713
1148	0.583
1157	0.6108
1166	0.6481
1175	0.6868
1184	0.7043
1193	0.642
1202	0.6591
1211	0.71
1220	0.7295
1229	0.6956
1238	0.7188
1247	0.6329
1256	0.6218
1265	0.7174
1274	0.7544
1283	0.7502
1292	0.713
1301	0.5548
1310	0.6474
1319	0.5662
1328	0.438
1337	0.718
1346	0.7598
1355	0.7506
1364	0.694
1373	0.7119
1382	0.6963
1391	0.5717
1400	0.2641
1409	0.3294
1418	0.7161
1427	0.7685
1436	0.7011
1445	0.7856
1454	0.6684
1463	0.644
1472	0.8288
1481	0.7902
1490	0.4744
1499	0.8733
1508	0.8876
1517	0.8913
1526	0.8878
1535	0.8861
1544	0.885
1553	0.883
1562	0.8815
1571	0.8805
1580	0.878
1589	0.8768
1598	0.8767
1607	0.8843
1616	0.8761
1625	0.8841
1634	0.8822
1643	0.8761
1652	0.8622
1661	0.8726
1670	0.872
1679	0.8716
1688	0.8537
1697	0.8374
1706	0.8678
1715	0.8826
1724	0.8892
1733	0.8893
1742	0.8889
1751	0.8887
1760	0.8909
1769	0.8897
1778	0.889
1787	0.888
1796	0.8867
1805	0.8852
1814	0.8837
1823	0.882
1832	0.8802
1841	0.88
1850	0.8797
1859	0.8795
1868	0.8831
1877	0.8821
1886	0.8823
1895	0.882
1904	0.8786
1913	0.8754
1922	0.8714
1931	0.8752
1940	0.8777
1949	0.8746
1958	0.8728
1967	0.8726
1976	0.8721
1985	0.8728
1994	0.874
2003	0.8613
2012	0.8531
2021	0.8542
2030	0.8512
2039	0.8484
2048	0.8466
2057	0.8453
2066	0.8426
2075	0.8401
2084	0.8382
2093	0.8372
2102	0.8328
2111	0.8286
2120	0.8246
2129	0.8206
2138	0.8186
2147	0.817
2156	0.8155
2165	0.8127
2174	0.8094
2183	0.8051
2192	0.8036
2201	0.8032
2210	0.8008
2219	0.8001
2228	0.8006
2237	0.7968
2246	0.7927
2255	0.7874
2264	0.7834
2273	0.7815
2282	0.7764
2291	0.7739
2300	0.7734
2309	0.7734
2318	0.7735
2327	0.7735
2336	0.7734
2345	0.7734
2354	0.7732
2363	0.7728
2372	0.7724
2381	0.772
2390	0.7717
2399	0.7697
2408	0.7658
2417	0.7659
2426	0.7649
2435	0.7607
2444	0.7566
2453	0.7547
2462	0.7513
2471	0.7494
2480	0.7526
2489	0.7459
2498	0.7398
2507	0.737
2516	0.7402
2525	0.7433
2534	0.7459
2543	0.7443
2552	0.7395
2561	0.7328
2570	0.7281
2579	0.7286
2588	0.7221
2597	0.7141
2606	0.7052
2615	0.697
2624	0.6987
2633	0.7018
2642	0.7068
2651	0.7153
2660	0.715
2669	0.7123
2678	0.7076
2687	0.6952
2696	0.6955
2705	0.6965
2714	0.6807
2723	0.6597
2732	0.656
2741	0.6667
2750	0.6768
2759	0.6836
2768	0.68
2777	0.6762
2786	0.6634
2795	0.6352
2804	0.6448
2813	0.6464
2822	0.6364
2831	0.6112
2840	0.5825
2849	0.5596
2858	0.6058
2867	0.6283
2876	0.6266
2885	0.6052
2894	0.5683
2903	0.5167
2912	0.5334
2921	0.595
2930	0.5908
2939	0.4842
2948	0.3999
2957	0.5977
2966	0.6244
2975	0.6052
2984	0.6334
2993	0.6478
3002	0.6344
3011	0.6072
3020	0.6185
3029	0.6145
3038	0.6072
3047	0.5966
3056	0.5835
3065	0.5709
3074	0.5599
3083	0.5495
3092	0.5391
3101	0.5279
3110	0.5133
3119	0.4941
3128	0.4633
3137	0.4377
3146	0.4105
3155	0.3465
3164	0.1893
3173	0.2906
3182	0.4603
3191	0.4438
3200	0.4144
3209	0.3825
3218	0.3576
3227	0.3365
3236	0.3148
3245	0.2911
3254	0.2689
3263	0.2432
3272	0.2086
3281	0.1713
3290	0.1338
3299	0.0705
3308	0.0437
3317	0.0347
3326	0.0437
3335	0.0755
3344	0.0907
3353	0.1174
3362	0.1579
3371	0.203
3380	0.2544
3389	0.3311
3398	0.3977
3407	0.4582
3416	0.5122
3425	0.5242
3434	0.5606
3443	0.5941
3452	0.6308
3461	0.6707
3470	0.6931
3479	0.7055
3488	0.716
3497	0.7249
3506	0.7313
3515	0.7398
3524	0.7555
3533	0.7631
3542	0.7693
3551	0.7734
3560	0.7742
3569	0.7738
3578	0.7733
3587	0.773
3596	0.7729
3605	0.7726
3614	0.7665
3623	0.7629
3632	0.7593
3641	0.7582
3650	0.7559
3659	0.7523
3668	0.7528
3677	0.7387
3686	0.7413
3695	0.7453
3704	0.7433
3713	0.7346
3722	0.7299
3731	0.7304
3740	0.7236
3749	0.7208
3758	0.7194
3767	0.7205
3776	0.7208
3785	0.7202
3794	0.7169
3803	0.7108
