Infrared Spectrum: STEARIC ACID, ALUMINUM SALT
Formula: C54 H105 Al O6
CAS: 637-12-7
State: SOLID (OIL MULL)
Class: COBLENTZ III
Instrument: BAIRD (PRISM)
Instrument parameters: NaCl PRISM
Sampling: TRANSMISSION
Resolution: 2
Origin: WYANDOTTE CHEMICALS CORP.
MICROMETERS	TRANSMITTANCE
1.966	0.939
2.00431	0.942
2.04261	0.943
2.08092	0.939
2.11923	0.943
2.15753	0.921
2.19584	0.843
2.23415	0.685
2.27245	0.669
2.31076	0.679
2.34907	0.692
2.38737	0.702
2.42568	0.726
2.46399	0.783
2.5023	0.835
2.5406	0.842
2.57891	0.843
2.61722	0.87
2.65552	0.87
2.69383	0.843
2.73214	0.735
2.77044	0.812
2.80875	0.848
2.84706	0.841
2.88536	0.837
2.92367	0.818
2.96198	0.807
3.00028	0.806
3.03859	0.805
3.0769	0.803
3.1152	0.792
3.15351	0.758
3.19182	0.708
3.23012	0.684
3.26843	0.631
3.30674	0.5
3.34504	0.309
3.38335	0.081
3.42166	0.009
3.45997	0.007
3.49827	0.008
3.53658	0.01
3.57489	0.018
3.61319	0.07
3.6515	0.409
3.68981	0.5
3.72811	0.505
3.76642	0.539
3.80473	0.54
3.84303	0.583
3.88134	0.612
3.91965	0.672
3.95795	0.757
3.99626	0.805
4.03457	0.853
4.07287	0.899
4.11118	0.912
4.14949	0.921
4.18779	0.931
4.2261	0.919
4.26441	0.929
4.30271	0.896
4.34102	0.891
4.37933	0.907
4.41764	0.941
4.45594	0.974
4.49425	0.985
4.53256	0.991
4.57086	0.993
4.60917	0.996
4.64748	0.997
4.68578	0.998
4.72409	1
4.7624	1.001
4.8007	1.002
4.83901	1.003
4.87732	1.002
4.91562	1.001
4.95393	1.002
4.99224	1.002
5.03054	1.002
5.06885	1.002
5.10716	1.002
5.14546	1.002
5.18377	1.001
5.22208	1.001
5.26038	1.001
5.29869	1.001
5.337	1.001
5.37531	1.001
5.41361	1.001
5.45192	1
5.49023	1
5.52853	1
5.56684	1
5.60515	0.998
5.64345	0.997
5.68176	0.997
5.72007	0.981
5.75837	0.929
5.79668	0.87
5.83499	0.809
5.87329	0.791
5.9116	0.807
5.94991	0.84
5.98821	0.839
6.02652	0.817
6.06483	0.756
6.10313	0.689
6.14144	0.602
6.17975	0.405
6.21805	0.126
6.25636	0.02
6.29467	0.01
6.33298	0.086
6.37128	0.298
6.40959	0.459
6.4479	0.613
6.4862	0.666
6.52451	0.701
6.56282	0.699
6.60112	0.675
6.63943	0.572
6.67774	0.432
6.71604	0.16
6.75435	0.05
6.79266	0.021
6.83096	0.018
6.86927	0.025
6.90758	0.018
6.94588	0.019
6.98419	0.081
7.0225	0.231
7.0608	0.296
7.09911	0.382
7.13742	0.528
7.17572	0.518
7.21403	0.321
7.25234	0.064
7.29065	0.037
7.32895	0.102
7.36726	0.21
7.40557	0.289
7.44387	0.336
7.48218	0.36
7.52049	0.378
7.55879	0.396
7.5971	0.422
7.63541	0.444
7.67371	0.445
7.71202	0.451
7.75033	0.49
7.78863	0.513
7.82694	0.533
7.86525	0.56
7.90355	0.566
7.94186	0.578
7.98017	0.594
8.01847	0.602
8.05678	0.608
8.09509	0.607
8.13339	0.608
8.1717	0.609
8.21001	0.603
8.24831	0.596
8.28662	0.587
8.32493	0.578
8.36324	0.581
8.40154	0.582
8.43985	0.569
8.47816	0.546
8.51646	0.518
8.55477	0.492
8.59308	0.49
8.63138	0.496
8.66969	0.493
8.708	0.501
8.7463	0.517
8.78461	0.541
8.82292	0.577
8.86122	0.587
8.89953	0.582
8.93784	0.584
8.97614	0.611
9.01445	0.663
9.05276	0.677
9.09106	0.679
9.12937	0.698
9.16768	0.703
9.20598	0.703
9.24429	0.692
9.2826	0.679
9.32091	0.671
9.35921	0.666
9.39752	0.663
9.43583	0.673
9.47413	0.686
9.51244	0.698
9.55075	0.696
9.58905	0.701
9.62736	0.695
9.66567	0.699
9.70397	0.687
9.74228	0.681
9.78059	0.665
9.81889	0.65
9.8572	0.619
9.89551	0.569
9.93381	0.521
9.97212	0.448
10.0104	0.344
10.0487	0.24
10.087	0.129
10.1253	0.067
10.1637	0.027
10.202	0.022
10.2403	0.056
10.2786	0.144
10.3169	0.249
10.3552	0.375
10.3935	0.463
10.4318	0.523
10.4701	0.569
10.5084	0.599
10.5467	0.62
10.585	0.631
10.6233	0.649
10.6616	0.665
10.7	0.684
10.7383	0.696
10.7766	0.703
10.8149	0.716
10.8532	0.746
10.8915	0.751
10.9298	0.761
10.9681	0.77
11.0064	0.798
11.0447	0.819
11.083	0.839
11.1213	0.843
11.1596	0.841
11.1979	0.834
11.2362	0.815
11.2746	0.806
11.3129	0.819
11.3512	0.83
11.3895	0.845
11.4278	0.846
11.4661	0.848
11.5044	0.855
11.5427	0.864
11.581	0.875
11.6193	0.875
11.6576	0.878
11.6959	0.889
11.7342	0.887
11.7725	0.882
11.8108	0.878
11.8492	0.878
11.8875	0.881
11.9258	0.885
11.9641	0.891
12.0024	0.894
12.0407	0.895
12.079	0.895
12.1173	0.889
12.1556	0.889
12.1939	0.895
12.2322	0.893
12.2705	0.901
12.3088	0.903
12.3471	0.902
12.3854	0.896
12.4238	0.894
12.4621	0.9
12.5004	0.903
12.5387	0.903
12.577	0.902
12.6153	0.894
12.6536	0.888
12.6919	0.885
12.7302	0.881
12.7685	0.87
12.8068	0.852
12.8451	0.843
12.8834	0.83
12.9217	0.809
12.9601	0.781
12.9984	0.764
13.0367	0.75
13.075	0.75
13.1133	0.746
13.1516	0.741
13.1899	0.731
13.2282	0.732
13.2665	0.713
13.3048	0.693
13.3431	0.665
13.3814	0.638
13.4197	0.613
13.458	0.578
13.4963	0.547
13.5347	0.511
13.573	0.475
13.6113	0.45
13.6496	0.435
13.6879	0.411
13.7262	0.372
13.7645	0.339
13.8028	0.292
13.8411	0.26
13.8794	0.238
13.9177	0.229
13.956	0.253
13.9943	0.301
14.0326	0.39
14.0709	0.426
14.1093	0.463
14.1476	0.489
14.1859	0.522
14.2242	0.535
14.2625	0.547
14.3008	0.547
14.3391	0.541
14.3774	0.545
14.4157	0.54
14.454	0.534
14.4923	0.535
14.5306	0.53
14.5689	0.534
14.6072	0.534
14.6456	0.529
14.6839	0.524
14.7222	0.517
14.7605	0.513
14.7988	0.515
14.8371	0.519
14.8754	0.527
14.9137	0.524
14.952	0.521
14.9903	0.528
15.0286	0.548
15.0669	0.557
15.1052	0.559
15.1435	0.555
15.1818	0.551
15.2202	0.548
15.2585	0.56
15.2968	0.572
15.3351	0.594
15.3734	0.608
15.4117	0.618
15.45	0.63
15.4883	0.65
15.5266	0.659
15.5649	0.673
15.6032	0.681
15.6415	0.689
15.6798	0.696
15.7181	0.703
15.7564	0.71
15.7948	0.715
15.8331	0.719
15.8714	0.726
15.9097	0.734
15.948	0.747
