Infrared Spectrum: 1H-Indazole hydrochloride
Formula: C7 H7 Cl N2
CAS: 63725-55-3
State: SOLID (KBr DISC, 0.9% WT.)
Class: COBLENTZ
Instrument: PERKIN-ELMER 157
Sampling: TRANSMISSION
Resolution: 2
Origin: BRITISH PETROLEUM CO. LTD., ENGLAND
1/CM	TRANSMITTANCE
668	0.305
677	0.3746
686	0.4469
695	0.5097
704	0.5238
713	0.5173
722	0.4987
731	0.4374
740	0.1259
749	0.0497
758	0.0979
767	0.3596
776	0.3447
785	0.5239
794	0.6136
803	0.6142
812	0.6046
821	0.5778
830	0.4948
839	0.3382
848	0.3913
857	0.3842
866	0.3042
875	0.3747
884	0.485
893	0.5436
902	0.5206
911	0.6696
920	0.6745
929	0.6507
938	0.6407
947	0.4638
956	0.3428
965	0.1153
974	0.4881
983	0.5495
992	0.5416
1001	0.2802
1010	0.4527
1019	0.5536
1028	0.5604
1037	0.5549
1046	0.5446
1055	0.525
1064	0.488
1073	0.3938
1082	0.1966
1091	0.1352
1100	0.2585
1109	0.4679
1118	0.5129
1127	0.3868
1136	0.5314
1145	0.4141
1154	0.3617
1163	0.5528
1172	0.5078
1181	0.4915
1190	0.5082
1199	0.5164
1208	0.5066
1217	0.4657
1226	0.4516
1235	0.3478
1244	0.1749
1253	0.386
1262	0.5068
1271	0.5116
1280	0.5431
1289	0.5726
1298	0.549
1307	0.5326
1316	0.5327
1325	0.4804
1334	0.5093
1343	0.5115
1352	0.3198
1361	0.2476
1370	0.2972
1379	0.2249
1388	0.295
1397	0.4498
1406	0.5274
1415	0.5552
1424	0.5504
1433	0.5199
1442	0.5271
1451	0.5271
1460	0.5207
1469	0.5055
1478	0.2809
1487	0.3163
1496	0.4553
1505	0.3382
1514	0.239
1523	0.4147
1532	0.5118
1541	0.5548
1550	0.5558
1559	0.5552
1568	0.5459
1577	0.5074
1586	0.4122
1595	0.4472
1604	0.4377
1613	0.4066
1622	0.248
1631	0.1248
1640	0.241
1649	0.4783
1658	0.5444
1667	0.5578
1676	0.5591
1685	0.5594
1694	0.5592
1703	0.56
1712	0.5655
1721	0.5676
1730	0.573
1739	0.5741
1748	0.5737
1757	0.573
1766	0.571
1775	0.5559
1784	0.5503
1793	0.5448
1802	0.5403
1811	0.5395
1820	0.5392
1829	0.5394
1838	0.5458
1847	0.5466
1856	0.5466
1865	0.5455
1874	0.5402
1883	0.5334
1892	0.5268
1901	0.5189
1910	0.5169
1919	0.5169
1928	0.5159
1937	0.5154
1946	0.5151
1955	0.5153
1964	0.5184
1973	0.5232
1982	0.5295
1991	0.5353
2000	0.5402
2009	0.5445
2018	0.548
2027	0.549
2036	0.5497
2045	0.5502
2054	0.5501
2063	0.5497
2072	0.5494
2081	0.5487
2090	0.5479
2099	0.547
2108	0.5433
2117	0.5383
2126	0.5348
2135	0.5312
2144	0.5282
2153	0.5246
2162	0.5204
2171	0.5154
2180	0.5105
2189	0.5056
2198	0.5005
2207	0.4946
2216	0.4889
2225	0.4826
2234	0.4749
2243	0.4672
2252	0.461
2261	0.455
2270	0.4492
2279	0.4434
2288	0.4374
2297	0.4307
2306	0.422
2315	0.4151
2324	0.4132
2333	0.4106
2342	0.3996
2351	0.3816
2360	0.3742
2369	0.3693
2378	0.3668
2387	0.3664
2396	0.3649
2405	0.3635
2414	0.3608
2423	0.3568
2432	0.3525
2441	0.3483
2450	0.3439
2459	0.3397
2468	0.3346
2477	0.3293
2486	0.3235
2495	0.3164
2504	0.3097
2513	0.3066
2522	0.3034
2531	0.2996
2540	0.2951
2549	0.2908
2558	0.2864
2567	0.2806
2576	0.2753
2585	0.2715
2594	0.2684
2603	0.2624
2612	0.2598
2621	0.2574
2630	0.2504
2639	0.2439
2648	0.2383
2657	0.234
2666	0.23
2675	0.2259
2684	0.2218
2693	0.2179
2702	0.214
2711	0.2108
2720	0.2077
2729	0.2049
2738	0.2025
2747	0.2005
2756	0.1972
2765	0.1942
2774	0.191
2783	0.1871
2792	0.1827
2801	0.1775
2810	0.1727
2819	0.1683
2828	0.1638
2837	0.159
2846	0.1543
2855	0.1497
2864	0.1458
2873	0.1422
2882	0.139
2891	0.1359
2900	0.1332
2909	0.1309
2918	0.1289
2927	0.1271
2936	0.1253
2945	0.1238
2954	0.1223
2963	0.12
2972	0.1171
2981	0.1142
2990	0.1095
2999	0.1045
3008	0.0997
3017	0.0947
3026	0.089
3035	0.084
3044	0.0791
3053	0.0742
3062	0.0673
3071	0.0606
3080	0.0563
3089	0.0544
3098	0.0543
3107	0.0542
3116	0.0544
3125	0.0547
3134	0.055
3143	0.0548
3152	0.0544
3161	0.0537
3170	0.0529
3179	0.0521
3188	0.0516
3197	0.0512
3206	0.051
3215	0.0509
3224	0.0508
3233	0.051
3242	0.0512
3251	0.0516
3260	0.052
3269	0.0526
3278	0.0532
3287	0.0545
3296	0.0565
3305	0.0592
3314	0.0622
3323	0.0672
3332	0.0724
3341	0.0778
3350	0.0853
3359	0.0926
3368	0.1037
3377	0.1184
3386	0.1324
3395	0.1464
3404	0.1575
3413	0.1638
3422	0.1726
3431	0.1763
3440	0.1791
3449	0.1815
3458	0.1875
3467	0.1947
3476	0.1961
3485	0.1971
3494	0.1983
3503	0.201
3512	0.2044
3521	0.2087
3530	0.2176
3539	0.2288
3548	0.2366
3557	0.2467
3566	0.2612
3575	0.2819
3584	0.306
3593	0.3351
3602	0.3518
3611	0.3655
3620	0.3741
3629	0.3807
3638	0.3893
3647	0.404
3656	0.4204
3665	0.4243
3674	0.4256
3683	0.4262
3692	0.4263
3701	0.4258
3710	0.4248
3719	0.4228
3728	0.4202
3737	0.4165
3746	0.4149
3755	0.4142
3764	0.4141
3773	0.4143
3782	0.4143
3791	0.4145
3800	0.4146
3809	0.4146
3818	0.4148
3827	0.4148
3836	0.4142
3845	0.4127
3854	0.4111
3863	0.4091
3872	0.407
3881	0.4047
3890	0.4025
3899	0.4006
3908	0.3987
3917	0.3969
3926	0.3952
3935	0.3937
3944	0.3933
3953	0.3932
3962	0.3931
3971	0.3931
3980	0.393
3989	0.3929
3998	0.3929
