Infrared Spectrum: n-Butyl diphenyl phosphine
Formula: C 16 H 19 P
CAS: 6372-41-4
State: gas
Origin: EPA-IR VAPOR PHASE LIBRARY
1/CM	ABSORBANCE
549.9	0.002191
559.547	0.001681
569.193	0.0012137
578.84	0.0012923
588.486	0.0011539
598.133	0.0011443
607.779	0.0015102
617.426	0.0018706
627.072	0.002251
636.719	0.003631
646.365	0.006011
656.012	0.006901
665.658	0.009761
675.305	0.016201
684.951	0.032031
694.598	0.060251
704.245	0.045561
713.891	0.032041
723.538	0.032901
733.184	0.044311
742.831	0.037231
752.477	0.018471
762.124	0.008791
771.77	0.005941
781.417	0.005131
791.063	0.003851
800.71	0.002401
810.356	0.0016711
820.003	0.0013578
829.649	0.0012363
839.296	0.0014089
848.943	0.0014558
858.589	0.002061
868.236	0.002631
877.882	0.003081
887.529	0.004521
897.175	0.005531
906.822	0.003921
916.468	0.002441
926.115	0.001825
935.761	0.0016673
945.408	0.0017737
955.054	0.002121
964.701	0.003031
974.347	0.002441
983.994	0.002431
993.64	0.004561
1003.29	0.005401
1012.93	0.003081
1022.58	0.009321
1032.23	0.007901
1041.87	0.003701
1051.52	0.004081
1061.17	0.005191
1070.81	0.006291
1080.46	0.009841
1090.11	0.014691
1099.75	0.011991
1109.4	0.006531
1119.05	0.003751
1128.69	0.002221
1138.34	0.0015864
1147.99	0.0015358
1157.63	0.0017598
1167.28	0.002511
1176.92	0.005121
1186.57	0.006861
1196.22	0.004281
1205.86	0.003361
1215.51	0.002871
1225.16	0.002631
1234.8	0.002151
1244.45	0.002121
1254.1	0.002821
1263.74	0.003931
1273.39	0.004091
1283.04	0.003861
1292.68	0.005161
1302.33	0.005851
1311.98	0.004741
1321.62	0.004441
1331.27	0.004521
1340.92	0.005061
1350.56	0.004161
1360.21	0.003401
1369.86	0.003831
1379.5	0.005621
1389.15	0.005121
1398.79	0.004181
1408.44	0.006351
1418.09	0.011161
1427.73	0.017571
1437.38	0.019501
1447.03	0.011201
1456.67	0.010561
1466.32	0.012801
1475.97	0.016271
1485.61	0.015671
1495.26	0.006211
1504.91	0.002831
1514.55	0.002161
1524.2	0.002101
1533.85	0.002211
1543.49	0.002021
1553.14	0.0019142
1562.79	0.002691
1572.43	0.004731
1582.08	0.008521
1591.73	0.006371
1601.37	0.002531
1611.02	0.0017011
1620.67	0.0013974
1630.31	0.0014599
1639.96	0.002071
1649.6	0.002581
1659.25	0.0019294
1668.9	0.0013035
1678.54	0.00096914
1688.19	0.0008697
1697.84	0.0008311
1707.48	0.0009424
1717.13	0.00099755
1726.78	0.0010736
1736.42	0.0012669
1746.07	0.0014891
1755.72	0.0014504
1765.36	0.0013141
1775.01	0.001753
1784.66	0.0017133
1794.3	0.003391
1803.95	0.004331
1813.6	0.002911
1823.24	0.0019281
1832.89	0.0013452
1842.54	0.0011518
1852.18	0.001435
1861.83	0.002111
1871.47	0.003021
1881.12	0.003861
1890.77	0.003051
1900.41	0.0016238
1910.06	0.0012191
1919.71	0.0014106
1929.35	0.002041
1939	0.003211
1948.65	0.003971
1958.29	0.003741
1967.94	0.001908
1977.59	0.00098808
1987.23	0.000683
1996.88	0.000677
2006.53	0.000663
2016.17	0.000537
2025.82	0.00063
2035.47	0.00055
2045.11	0.000545
2054.76	0.000576
2064.41	0.000487
2074.05	0.000537
2083.7	0.000508
2093.35	0.000489
2102.99	0.000471
2112.64	0.000498
2122.28	0.00051
2131.93	0.000513
2141.58	0.00052
2151.22	0.000479
2160.87	0.000548
2170.52	0.000611
2180.16	0.000586
2189.81	0.000548
2199.46	0.000542
2209.1	0.000527
2218.75	0.000555
2228.4	0.00054
2238.04	0.000519
2247.69	0.000593
2257.34	0.000558
2266.98	0.000592
2276.63	0.000614
2286.28	0.000628
2295.92	0.000643
2305.57	0.000823
2315.22	0.0012784
2324.86	0.0008427
2334.51	0.0008711
2344.16	0.00103018
2353.8	0.000889
2363.45	0.000827
2373.09	0.000785
2382.74	0.00075
2392.39	0.00067
2402.03	0.000652
2411.68	0.000685
2421.33	0.000684
2430.97	0.000655
2440.62	0.000484
2450.27	0.000537
2459.91	0.000544
2469.56	0.00046
2479.21	0.000511
2488.85	0.000524
2498.5	0.000634
2508.15	0.000642
2517.79	0.000672
2527.44	0.000624
2537.09	0.000643
2546.73	0.000606
2556.38	0.000722
2566.03	0.000774
2575.67	0.0008911
2585.32	0.00102493
2594.96	0.00101502
2604.61	0.0011443
2614.26	0.0011748
2623.9	0.001035
2633.55	0.00102955
2643.2	0.00100254
2652.84	0.0011344
2662.49	0.0011116
2672.14	0.001448
2681.78	0.0013038
2691.43	0.0010805
2701.08	0.00094375
2710.72	0.0009938
2720.37	0.0010635
2730.02	0.0013165
2739.66	0.001599
2749.31	0.0016147
2758.96	0.0014744
2768.6	0.001531
2778.25	0.0017696
2787.9	0.002121
2797.54	0.002621
2807.19	0.003431
2816.84	0.004431
2826.48	0.004941
2836.13	0.005531
2845.77	0.007191
2855.42	0.012721
2865.07	0.022531
2874.71	0.026101
2884.36	0.027001
2894.01	0.022381
2903.65	0.025881
2913.3	0.031761
2922.95	0.041651
2932.59	0.061611
2942.24	0.063301
2951.89	0.039171
2961.53	0.049951
2971.18	0.056291
2980.83	0.024561
2990.47	0.015371
3000.12	0.015331
3009.77	0.017381
3019.41	0.019841
3029.06	0.016281
3038.71	0.014461
3048.35	0.021531
3058	0.054061
3067.64	0.062821
3077.29	0.045371
3086.94	0.028731
3096.58	0.012771
3106.23	0.005571
3115.88	0.003801
3125.52	0.003461
3135.17	0.003691
3144.82	0.003391
3154.46	0.002041
3164.11	0.0015576
3173.76	0.0016481
3183.4	0.00101032
3193.05	0.0008684
3202.7	0.000743
3212.34	0.000666
3221.99	0.000553
3231.64	0.000347
3241.28	0.000535
3250.93	0.000641
3260.58	0.00028
3270.22	0.000378
3279.87	0.000247
3289.52	0.000182
3299.16	0.000203
3308.81	0.000257
3318.45	0.000464
3328.1	0.00043
3337.75	0
3347.39	0.00052
3357.04	0.000465
3366.69	0.000263
3376.33	0.000255
3385.98	0.000468
3395.63	0.000194
3405.27	0.000269
3414.92	0.00023
3424.57	0.000204
3434.21	0.000328
3443.86	0.000468
3453.51	0.00044
3463.15	0.000163
3472.8	0.000119
3482.45	0.000324
3492.09	0.000215
3501.74	0.000223
3511.39	0.000175
3521.03	0.000302
3530.68	0.000319
3540.33	0.00023
3549.97	0.00027
3559.62	0.000411
3569.26	0.000392
3578.91	0.000228
3588.56	0.000374
3598.2	0.000394
3607.85	0.000215
3617.5	0.000368
3627.14	0.000355
3636.79	0.000443
3646.44	0.000397
3656.08	0.000563
3665.73	0.000347
3675.38	0.000679
3685.02	0.000624
3694.67	0.000802
3704.32	0.00075
3713.96	0.000658
3723.61	0.00052
3733.26	0.00052
3742.9	0.000679
3752.55	0.000741
3762.2	0.000676
3771.84	0.000622
3781.49	0.000429
3791.13	0.00046
3800.78	0.000595
3810.43	0.0006
3820.07	0.000437
3829.72	0.000502
3839.37	0.000497
3849.01	0.000365
3858.66	0.000346
3868.31	0.000485
3877.95	0.000401
3887.6	0.000463
3897.25	0.000506
3906.89	0.000478
3916.54	0.000435
3926.19	0.000549
3935.83	0.000577
3945.48	0.000559
3955.13	0.000587
3964.77	0.000545
3974.42	0.000554
3984.07	0.000611
3993.71	0.000692
