Infrared Spectrum: 4-Benzloxyaniline
Formula: C 13 H 13 N O
CAS: 6373-46-2
State: gas
Instrument: HP-GC/MS/IRD
Origin: NIST Mass Spectrometry Data Center
1/CM	ABSORBANCE
550	0.007163
562	0.0041743
574	0.0037297
586	0.0047177
598	0.0070148
610	0.0084721
622	0.0091637
634	0.0137085
646	0.0235144
658	0.0247247
670	0.0209209
682	0.0263302
694	0.0349505
706	0.0289484
718	0.0286767
730	0.0331721
742	0.033592
754	0.0226746
766	0.0136097
778	0.0083486
790	0.008398
802	0.0155363
814	0.0293436
826	0.0276393
838	0.0144248
850	0.0080769
862	0.0066196
874	0.0034333
886	0.0022971
898	0.002964
910	0.0027417
922	0.0011362
934	0.0002717
946	0.000247
958	0.0015808
970	0.0048659
982	0.0112879
994	0.0206492
1006	0.0288249
1018	0.0408044
1030	0.0403104
1042	0.0272688
1054	0.0136591
1066	0.009139
1078	0.0090402
1090	0.0063726
1102	0.0050388
1114	0.0055081
1126	0.0047918
1138	0.0017537
1150	0.001482
1162	0.0078546
1174	0.0134862
1186	0.0207727
1198	0.0471276
1210	0.0929955
1222	0.137184
1234	0.135603
1246	0.0789659
1258	0.0629603
1270	0.0381615
1282	0.0200317
1294	0.0169442
1306	0.0132145
1318	0.0099788
1330	0.0070642
1342	0.0041496
1354	0.0042731
1366	0.0114114
1378	0.0176605
1390	0.0060021
1402	0.001976
1414	0.0022477
1426	0.003458
1438	0.0062738
1450	0.0118066
1462	0.0167219
1474	0.016796
1486	0.0219336
1498	0.0884013
1510	0.247
1522	0.0820781
1534	0.0188461
1546	0.0066937
1558	0.0041743
1570	0.0037544
1582	0.0057798
1594	0.0095095
1606	0.0175123
1618	0.0270712
1630	0.0217113
1642	0.0086944
1654	0.0034333
1666	0.0015808
1678	0.0005928
1690	0.0002223
1702	0.0001976
1714	0.0006916
1726	0.0011856
1738	0.0008398
1750	0.0003705
1762	2.47e-05
1774	7.41e-05
1786	0.0005928
1798	0.0017043
1810	0.0011362
1822	0.0010868
1834	0.001482
1846	0.0020995
1858	0.0023218
1870	0.0018278
1882	0.0012103
1894	0.0005187
1906	0.000494
1918	0.0008892
1930	0.0014326
1942	0.0020254
1954	0.0021983
1966	0.0013091
1978	0.0008892
1990	0.0008645
2002	0.0009386
2014	0.0010621
2026	0.0011362
2038	0.0012103
2050	0.001235
2062	0.0011856
2074	0.0010868
2086	0.000988
2098	0.0007657
2110	0.0004446
2122	0.0001729
2134	0
2146	0
2158	2.47e-05
2170	4.94e-05
2182	7.41e-05
2194	4.94e-05
2206	0.0001235
2218	0.0001729
2230	0.0003211
2242	0.0004199
2254	0.0004693
2266	0.0005187
2278	0.0005434
2290	0.0005187
2302	0.0005187
2314	0.0007657
2326	0.0007657
2338	0.0008398
2350	0.0008892
2362	0.000741
2374	0.0006175
2386	0.0005187
2398	0.000494
2410	0.0004693
2422	0.0003705
2434	0.0004693
2446	0.0005434
2458	0.0006916
2470	0.0005928
2482	0.0003952
2494	0.0003705
2506	0.000494
2518	0.0005928
2530	0.0005187
2542	0.0002717
2554	0.0001235
2566	7.41e-05
2578	0.0001729
2590	0.000247
2602	0.0002964
2614	0.0001729
2626	9.88e-05
2638	0.0001235
2650	4.94e-05
2662	0.0001482
2674	0.000247
2686	0.0002717
2698	0.0003705
2710	0.0005928
2722	0.0007163
2734	0.0006916
2746	0.0005928
2758	0.0004693
2770	0.0004199
2782	0.0005434
2794	0.0006916
2806	0.0011362
2818	0.0018031
2830	0.0026429
2842	0.0037544
2854	0.0058292
2866	0.009386
2878	0.0126958
2890	0.0117572
2902	0.0097812
2914	0.0092131
2926	0.0100282
2938	0.0111397
2950	0.0106457
2962	0.0075088
2974	0.004693
2986	0.0039767
2998	0.0070395
3010	0.0149929
3022	0.0215384
3034	0.0351234
3046	0.0324311
3058	0.0204269
3070	0.0275652
3082	0.0193154
3094	0.0131157
3106	0.0092131
3118	0.0055822
3130	0.0024947
3142	0.0011115
3154	0.0006669
3166	0.0005434
3178	0.0003952
3190	0.000247
3202	0.0005434
3214	0.0005681
3226	0.0005681
3238	0.0005681
3250	0.0005928
3262	0.0006422
3274	0.0004693
3286	0.0003211
3298	0.0001729
3310	9.88e-05
3322	0.0001235
3334	7.41e-05
3346	0.0001482
3358	0.0002717
3370	0.0006916
3382	0.001482
3394	0.0036309
3406	0.0052117
3418	0.0020995
3430	0.0011609
3442	0.0012597
3454	0.0016796
3466	0.0026182
3478	0.0036556
3490	0.0034086
3502	0.0019513
3514	0.000988
3526	0.0005928
3538	0.0004199
3550	0.0003705
3562	0.0002964
3574	0.000247
3586	0.0002717
3598	0.0002964
3610	0.0002223
3622	0.0003211
3634	0.0003211
3646	0.0004693
3658	0.0005434
3670	0.0004693
3682	0.0004693
3694	0.0004446
3706	0.0005187
3718	0.0003705
3730	0.0003458
3742	0.0002717
3754	0.0003211
3766	0.0004446
3778	0.0003705
3790	0.0003705
3802	0.0003458
3814	0.0003211
3826	0.0003952
3838	0.0004693
