Infrared Spectrum: ACETANILIDE, 2',4'-DIAMINO
Formula: C8 H11 N3 O
CAS: 6373-15-5
State: SOLID (SPLIT MULL), FLUOROLUBE FOR 3800-1330 CM^-^1, NUJOL FOR 1330-400 CM^-^1
Class: COBLENTZ III
Instrument: BECKMAN IR-9 (GRATING)
Instrument parameters: ORDER CHANGES: 670, 1200, 2000 CM^-^1
Resolution: 2
Origin: DOW CHEMICAL COMPANY
1/CM	TRANSMITTANCE
403.524	0.83
412.335	0.8
421.145	0.79
429.956	0.791
438.766	0.8
447.577	0.816
456.387	0.609
465.198	0.716
474.009	0.889
482.819	0.952
491.63	0.965
500.44	0.819
509.251	0.861
518.061	0.764
526.872	0.943
535.683	0.968
544.493	0.968
553.304	0.946
562.114	0.769
570.925	0.884
579.735	0.956
588.546	0.946
597.357	0.923
606.167	0.849
614.978	0.55
623.788	0.732
632.599	0.901
641.409	0.902
650.22	0.693
659.031	0.583
667.841	0.561
676.652	0.568
685.462	0.589
694.273	0.587
703.083	0.605
711.894	0.746
720.705	0.783
729.515	0.728
738.326	0.763
747.136	0.693
755.947	0.668
764.758	0.764
773.568	0.827
782.379	0.854
791.189	0.864
800	0.41
808.81	0.808
817.621	0.85
826.432	0.835
835.242	0.778
844.053	0.7
852.863	0.293
861.674	0.268
870.484	0.265
879.295	0.372
888.106	0.56
896.916	0.679
905.727	0.778
914.537	0.849
923.348	0.882
932.158	0.917
940.969	0.946
949.78	0.965
958.59	0.963
967.401	0.93
976.211	0.801
985.022	0.935
993.832	0.96
1002.64	0.923
1011.45	0.791
1020.26	0.921
1029.07	0.867
1037.89	0.906
1046.7	0.986
1055.51	1.002
1064.32	1.001
1073.13	0.991
1081.94	0.972
1090.75	0.976
1099.56	0.983
1108.37	0.984
1117.18	0.989
1125.99	0.994
1134.8	0.995
1143.61	0.983
1152.42	0.936
1161.23	0.768
1170.04	0.902
1178.85	0.95
1187.67	0.946
1196.48	0.724
1205.29	0.904
1214.1	0.975
1222.91	0.978
1231.72	0.956
1240.53	0.915
1249.34	0.81
1258.15	0.831
1266.96	0.4909
1275.77	0.616
1284.58	0.869
1293.39	0.853
1302.2	0.621
1311.01	0.475
1319.82	0.741
1328.63	0.723
1337.44	0.502
1346.26	0.604
1355.07	0.626
1363.88	0.42
1372.69	0.515
1381.5	0.682
1390.31	0.708
1399.12	0.712
1407.93	0.7
1416.74	0.676
1425.55	0.646
1434.36	0.621
1443.17	0.587
1451.98	0.528
1460.79	0.469
1469.6	0.631
1478.41	0.652
1487.22	0.632
1496.04	0.579
1504.85	0.476
1513.66	0.297
1522.47	0.179
1531.28	0.238
1540.09	0.136
1548.9	0.238
1557.71	0.528
1566.52	0.693
1575.33	0.697
1584.14	0.59
1592.95	0.397
1601.76	0.401
1610.57	0.295
1619.38	0.098
1628.19	0.226
1637	0.269
1645.81	0.175
1654.63	0.138
1663.44	0.416
1672.25	0.571
1681.06	0.68
1689.87	0.868
1698.68	0.939
1707.49	0.978
1716.3	0.989
1725.11	0.989
1733.92	0.994
1742.73	0.994
1751.54	0.994
1760.35	0.991
1769.16	0.99
1777.97	0.986
1786.78	0.982
1795.59	0.979
1804.41	0.973
1813.22	0.971
1822.03	0.969
1830.84	0.967
1839.65	0.964
1848.46	0.952
1857.27	0.943
1866.08	0.954
1874.89	0.954
1883.7	0.956
1892.51	0.953
1901.32	0.95
1910.13	0.949
1918.94	0.946
1927.75	0.942
1936.56	0.938
1945.37	0.935
1954.18	0.935
1963	0.934
1971.81	0.934
1980.62	0.931
1989.43	0.926
1998.24	0.92
2007.05	0.908
2015.86	0.919
2024.67	0.9189
2033.48	0.916
2042.29	0.915
2051.1	0.912
2059.91	0.9089
2068.72	0.9018
2077.53	0.894
2086.34	0.891
2095.15	0.891
2103.96	0.89
2112.78	0.887
2121.59	0.8854
2130.4	0.883
2139.21	0.8797
2148.02	0.876
2156.83	0.8726
2165.64	0.8686
2174.45	0.8646
2183.26	0.8591
2192.07	0.853
2200.88	0.8525
2209.69	0.851
2218.5	0.8479
2227.31	0.8439
2236.12	0.839
2244.93	0.8344
2253.74	0.8304
2262.55	0.8247
2271.37	0.8203
2280.18	0.817
2288.99	0.813
2297.8	0.809
2306.61	0.8065
2315.42	0.8024
2324.23	0.8
2333.04	0.7942
2341.85	0.791
2350.66	0.791
2359.47	0.791
2368.28	0.791
2377.09	0.791
2385.9	0.794
2394.71	0.794
2403.52	0.794
2412.33	0.794
2421.15	0.794
2429.96	0.793
2438.77	0.791
2447.58	0.791
2456.39	0.791
2465.2	0.7898
2474.01	0.786
2482.82	0.783
2491.63	0.78
2500.44	0.7788
2509.25	0.776
2518.06	0.776
2526.87	0.775
2535.68	0.775
2544.49	0.773
2553.3	0.773
2562.11	0.772
2570.93	0.769
2579.74	0.7661
2588.55	0.764
2597.36	0.761
2606.17	0.759
2614.98	0.756
2623.79	0.753
2632.6	0.75
2641.41	0.7464
2650.22	0.743
2659.03	0.739
2667.84	0.7353
2676.65	0.732
2685.46	0.731
2694.27	0.728
2703.08	0.726
2711.89	0.723
2720.7	0.7202
2729.52	0.7154
2738.33	0.7103
2747.14	0.706
2755.95	0.7022
2764.76	0.6982
2773.57	0.6941
2782.38	0.686
2791.19	0.678
2800	0.669
2808.81	0.664
2817.62	0.66
2826.43	0.661
2835.24	0.658
2844.05	0.645
2852.86	0.641
2861.67	0.6412
2870.48	0.643
2879.3	0.643
2888.11	0.6406
2896.92	0.6348
2905.73	0.6254
2914.54	0.616
2923.35	0.6111
2932.16	0.603
2940.97	0.594
2949.78	0.591
2958.59	0.5866
2967.4	0.5772
2976.21	0.5641
2985.02	0.553
2993.83	0.5436
3002.64	0.525
3011.45	0.4993
3020.26	0.4769
3029.07	0.4443
3037.89	0.4426
3046.7	0.4643
3055.51	0.4962
3064.32	0.5196
3073.13	0.5317
3081.94	0.536
3090.75	0.536
3099.56	0.527
3108.37	0.5069
3117.18	0.4879
3125.99	0.4686
3134.8	0.4505
3143.61	0.4413
3152.42	0.4196
3161.23	0.4002
3170.04	0.3863
3178.85	0.3633
3187.67	0.345
3196.48	0.319
3205.29	0.294
3214.1	0.2667
3222.91	0.2297
3231.72	0.2089
3240.53	0.2062
3249.34	0.2333
3258.15	0.2687
3266.96	0.2908
3275.77	0.3243
3284.58	0.3672
3293.39	0.4391
3302.2	0.4758
3311.01	0.4908
3319.82	0.494
3328.63	0.4794
3337.44	0.4431
3346.26	0.3575
3355.07	0.2607
3363.88	0.2551
3372.69	0.45
3381.5	0.2558
3390.31	0.5913
3399.12	0.6106
3407.93	0.4459
3416.74	0.2931
3425.55	0.4832
3434.36	0.6473
3443.17	0.6876
3451.98	0.691
3460.79	0.6893
3469.6	0.681
3478.41	0.678
3487.22	0.673
3496.04	0.6723
3504.85	0.6695
3513.66	0.6654
3522.47	0.664
3531.28	0.66
3540.09	0.6545
3548.9	0.653
3557.71	0.6502
3566.52	0.65
3575.33	0.65
3584.14	0.649
3592.95	0.649
3601.76	0.646
3610.57	0.643
3619.38	0.6409
3628.19	0.6379
3637	0.634
3645.81	0.6338
3654.63	0.632
3663.44	0.63
3672.25	0.627
3681.06	0.624
3689.87	0.621
3698.68	0.619
3707.49	0.617
3716.3	0.616
3725.11	0.6144
3733.92	0.613
3742.73	0.61
3751.54	0.606
3760.35	0.602
3769.16	0.601
3777.97	0.5991
3786.78	0.5961
3795.59	0.594
