Infrared Spectrum: Acetoacet-2,5-dimethoxyanilide
Formula: C 12 H 15 N O 4
CAS: 6375-27-5
State: gas
Instrument: HP-GC/MS/IRD
Origin: NIST Mass Spectrometry Data Center
1/CM	ABSORBANCE
550	0.0009633
562	0.0006084
574	0.0008073
586	0.0007371
598	0.0007839
610	0.0009711
622	0.0011115
634	0.0011856
646	0.0011427
658	0.0011115
670	0.001131
682	0.0011622
694	0.0015873
706	0.0032292
718	0.0032136
730	0.0018642
742	0.0014508
754	0.001911
766	0.0022659
778	0.0022776
790	0.0021957
802	0.0016614
814	0.001482
826	0.0020592
838	0.0027612
850	0.0021645
862	0.0008268
874	0.0002613
886	0.0001755
898	0.0002301
910	0.0002652
922	0.0003432
934	0.0006786
946	0.0010413
958	0.0007644
970	0.0005655
982	0.0009594
994	0.0015015
1006	0.0024102
1018	0.0039663
1030	0.0066963
1042	0.0101673
1054	0.0084825
1066	0.0039585
1078	0.0023712
1090	0.0020748
1102	0.0015132
1114	0.001092
1126	0.0013767
1138	0.0022581
1150	0.0037557
1162	0.0071058
1174	0.00858
1186	0.0077883
1198	0.0107562
1210	0.0228306
1222	0.039
1234	0.0236262
1246	0.0061854
1258	0.0026286
1270	0.0020124
1282	0.0024843
1294	0.0027807
1306	0.0024921
1318	0.0018876
1330	0.0009555
1342	0.0003003
1354	5.85e-05
1366	0
1378	3.12e-05
1390	0.0001833
1402	0.00039
1414	0.0009945
1426	0.0024219
1438	0.0041184
1450	0.0046878
1462	0.0054834
1474	0.0059787
1486	0.0062088
1498	0.0154674
1510	0.0305019
1522	0.0195585
1534	0.0057642
1546	0.0026091
1558	0.0019071
1570	0.0018564
1582	0.0026715
1594	0.0047151
1606	0.0084084
1618	0.0117663
1630	0.0091767
1642	0.0041067
1654	0.0017784
1666	0.0009477
1678	0.0005772
1690	0.0004017
1702	0.0002496
1714	0.0001638
1726	9.36e-05
1738	6.63e-05
1750	1.95e-05
1762	2.34e-05
1774	5.46e-05
1786	0.0001014
1798	0.0001131
1810	7.02e-05
1822	5.85e-05
1834	6.24e-05
1846	5.85e-05
1858	4.29e-05
1870	0.0001053
1882	0.0001053
1894	9.36e-05
1906	0.0001365
1918	0.0001365
1930	0.0001014
1942	9.75e-05
1954	0.0001326
1966	0.0002262
1978	0.0003432
1990	0.0003822
2002	0.0003081
2014	0.0003003
2026	0.0003198
2038	0.0003237
2050	0.0003705
2062	0.0003627
2074	0.0003393
2086	0.0002769
2098	0.0002106
2110	0.0002067
2122	0.0002028
2134	0.0001755
2146	0.0002145
2158	0.0002379
2170	0.0002223
2182	0.0001833
2194	0.0002067
2206	0.0002418
2218	0.0002574
2230	0.0002691
2242	0.0002886
2254	0.0002496
2266	0.0002457
2278	0.0002418
2290	0.0001872
2302	0.000195
2314	0.0001716
2326	0.000156
2338	0.0001365
2350	0.0001677
2362	0.0001755
2374	0.0001677
2386	0.0001755
2398	0.0001833
2410	0.0001755
2422	0.0002223
2434	0.0002106
2446	0.0001755
2458	0.0002067
2470	0.0002223
2482	0.0002223
2494	0.000273
2506	0.000312
2518	0.0002847
2530	0.0002886
2542	0.0002457
2554	0.0002613
2566	0.000273
2578	0.0002613
2590	0.0002652
2602	0.0002925
2614	0.000273
2626	0.0002886
2638	0.0002925
2650	0.000312
2662	0.0002496
2674	0.000273
2686	0.0002652
2698	0.0002418
2710	0.0002964
2722	0.0003393
2734	0.0003237
2746	0.00039
2758	0.0003822
2770	0.0004368
2782	0.0006006
2794	0.0008346
2806	0.0011934
2818	0.0017394
2830	0.0034047
2842	0.0051753
2854	0.0034905
2866	0.0023517
2878	0.0023244
2890	0.0026754
2902	0.0034359
2914	0.0046683
2926	0.0052143
2938	0.0068445
2950	0.0076206
2962	0.0054483
2974	0.0036543
2986	0.0038805
2998	0.0062478
3010	0.0048126
3022	0.0021801
3034	0.0020397
3046	0.0020943
3058	0.0017706
3070	0.001521
3082	0.0013689
3094	0.0011583
3106	0.0008814
3118	0.0007371
3130	0.0005811
3142	0.0004953
3154	0.0004407
3166	0.0004485
3178	0.0004524
3190	0.0003861
3202	0.0004134
3214	0.0003744
3226	0.0003159
3238	0.0002847
3250	0.0002808
3262	0.0002808
3274	0.0002145
3286	0.0002145
3298	0.0001755
3310	0.0002067
3322	0.0002067
3334	0.000195
3346	0.0002613
3358	0.0002496
3370	0.000312
3382	0.0005265
3394	0.0009984
3406	0.0018408
3418	0.0014742
3430	0.0006396
3442	0.0004212
3454	0.0003393
3466	0.0005031
3478	0.0008034
3490	0.0015678
3502	0.0019227
3514	0.0012441
3526	0.000624
3538	0.0003081
3550	0.0002613
3562	0.0002145
3574	0.0001833
3586	0.0001833
3598	0.0002379
3610	0.0001989
3622	0.0002145
3634	0.0002145
3646	0.0002145
3658	0.0001911
3670	0.0002067
3682	0.0002223
3694	0.000273
3706	0.0002262
3718	0.0002925
3730	0.0002964
3742	0.0003003
3754	0.0003198
3766	0.0002535
3778	0.0003198
3790	0.0002769
3802	0.0002535
3814	0.0003081
3826	0.0002964
3838	0.0003237
