Infrared Spectrum: 2-Amino-4-acetamidoanisole
Formula: C 9 H 12 N 2 O 2
CAS: 6375-47-9
State: gas
Instrument: HP-GC/MS/IRD
Origin: NIST Mass Spectrometry Data Center
1/CM	ABSORBANCE
550	0.0011346
562	0.0011625
574	0.0011129
586	0.0011904
598	0.0012214
610	0.0011842
622	0.0012059
634	0.00124
646	0.0010788
658	0.0010633
670	0.0008804
682	0.000868
694	0.0007378
706	0.000682
718	0.00062
730	0.0006138
742	0.0008308
754	0.0016337
766	0.0019096
778	0.0017887
790	0.0016399
802	0.0013764
814	0.0008711
826	0.0009269
838	0.0009548
850	0.0010974
862	0.0012958
874	0.0007006
886	0.0002542
898	0.000186
910	0.0001457
922	0.0001333
934	0.0001767
946	0.000279
958	0.0004681
970	0.0007781
982	0.0014818
994	0.0023839
1006	0.0025699
1018	0.0033046
1030	0.0041881
1042	0.0036146
1054	0.0021514
1066	0.0013733
1078	0.0011501
1090	0.0011253
1102	0.0008587
1114	0.0005797
1126	0.0006665
1138	0.0014074
1150	0.0016616
1162	0.0022506
1174	0.0031403
1186	0.0030194
1198	0.0051894
1210	0.0142848
1222	0.0284425
1234	0.0228036
1246	0.0088443
1258	0.0043183
1270	0.0044826
1282	0.0065658
1294	0.007006
1306	0.0057257
1318	0.0041881
1330	0.0025203
1342	0.0016802
1354	0.0022072
1366	0.0046004
1378	0.004278
1390	0.0029636
1402	0.0037727
1414	0.0058931
1426	0.0071765
1438	0.0081034
1450	0.005797
1462	0.0049569
1474	0.0061597
1486	0.0085808
1498	0.015903
1510	0.0286285
1522	0.0273544
1534	0.0123721
1546	0.0050778
1558	0.0029078
1570	0.0022847
1582	0.002635
1594	0.0041013
1606	0.0069626
1618	0.0095077
1630	0.0074648
1642	0.0036177
1654	0.0019561
1666	0.0016244
1678	0.0019282
1690	0.0032736
1702	0.0069595
1714	0.0179242
1726	0.0179304
1738	0.0079825
1750	0.0041137
1762	0.0020956
1774	0.0010788
1786	0.0006262
1798	0.0003906
1810	0.0003162
1822	0.0002418
1834	0.0001705
1846	0.0001023
1858	4.65e-05
1870	4.65e-05
1882	4.03e-05
1894	1.24e-05
1906	1.86e-05
1918	0
1930	4.65e-05
1942	6.2e-05
1954	8.99e-05
1966	0.0001209
1978	0.0001674
1990	0.0001457
2002	9.3e-05
2014	0.0001085
2026	0.0001209
2038	0.0001271
2050	0.0001147
2062	0.0001023
2074	0.000124
2086	9.3e-05
2098	6.82e-05
2110	7.44e-05
2122	0.0001023
2134	0.0001023
2146	0.0001085
2158	9.92e-05
2170	0.0001023
2182	0.0001178
2194	0.0001085
2206	9.61e-05
2218	0.0001023
2230	0.0001302
2242	0.0001364
2254	0.0001674
2266	0.0001953
2278	0.0001705
2290	0.0001395
2302	0.0001209
2314	0.0001054
2326	9.61e-05
2338	0.0001581
2350	0.0001364
2362	0.0001705
2374	0.0001612
2386	0.0001364
2398	0.0001364
2410	0.0001395
2422	0.000155
2434	0.0001519
2446	0.0001488
2458	0.0001581
2470	0.000155
2482	0.0001798
2494	0.0001674
2506	0.000186
2518	0.0001581
2530	0.0001395
2542	0.0001767
2554	0.0001674
2566	0.0001736
2578	0.0001736
2590	0.0001612
2602	0.000186
2614	0.000186
2626	0.0001612
2638	0.0001705
2650	0.0001829
2662	0.0001891
2674	0.0002046
2686	0.0002139
2698	0.0002139
2710	0.0002108
2722	0.0001953
2734	0.0002201
2746	0.000186
2758	0.0002356
2770	0.0002356
2782	0.000248
2794	0.0003472
2806	0.0004526
2818	0.0006696
2830	0.0011563
2842	0.0022196
2854	0.0015965
2866	0.0009982
2878	0.0009269
2890	0.0010385
2902	0.0014105
2914	0.0020243
2926	0.0023498
2938	0.0031341
2950	0.0035929
2962	0.0027094
2974	0.0019251
2986	0.001767
2998	0.0026288
3010	0.002728
3022	0.001829
3034	0.001767
3046	0.001519
3058	0.0012524
3070	0.0011749
3082	0.0010943
3094	0.0008525
3106	0.0005797
3118	0.0004929
3130	0.0003844
3142	0.0003224
3154	0.0002945
3166	0.0002759
3178	0.000248
3190	0.000279
3202	0.0002604
3214	0.0002356
3226	0.0001922
3238	0.0001953
3250	0.0001829
3262	0.0001953
3274	0.0001643
3286	0.0001674
3298	0.0001643
3310	0.0001891
3322	0.0001488
3334	0.000155
3346	0.0001612
3358	0.000217
3370	0.0003038
3382	0.0004092
3394	0.0008866
3406	0.0019654
3418	0.0021173
3430	0.0012865
3442	0.000961
3454	0.0010695
3466	0.0014477
3478	0.0012648
3490	0.0013547
3502	0.0017825
3514	0.0012896
3526	0.0005518
3538	0.0003658
3550	0.0002511
3562	0.0001891
3574	0.0001953
3586	0.0001829
3598	0.0001829
3610	0.0001085
3622	0.0001395
3634	0.0001333
3646	0.0001736
3658	0.0001116
3670	0.0001736
3682	0.0001519
3694	0.0001426
3706	0.000186
3718	0.0002108
3730	0.0001798
3742	0.0002015
3754	0.0001674
3766	0.0001705
3778	0.0001736
3790	0.000186
3802	0.0002015
3814	0.0002015
3826	0.000248
3838	0.0002356
