Infrared Spectrum: 3-METHOXY-17Beta-FORMYL-1,3,5(10)-ESTRATRIENE
Formula: C20 H26 O2
CAS: 63779-92-0
State: SOLUTION (7% IN CHCl3 FOR 2.5-12.5 MICRON) VS. SOLVENT
Melting point: 134-136 C
Class: COBLENTZ
Instrument: PERKIN-ELMER 21 (GRATING)
Instrument parameters: FILTER AT ABOUT 10 MICRONS
Sampling: TRANSMISSION
Path length: 0.010 CM
Resolution: 2
Origin: ABBOTT LABORATORIES
MICROMETERS	TRANSMITTANCE
2.498	0.906
2.52667	0.905
2.55535	0.907
2.58402	0.908
2.6127	0.912
2.64137	0.913
2.67004	0.913
2.69872	0.913
2.72739	0.912
2.75607	0.91
2.78474	0.908
2.81341	0.908
2.84209	0.906
2.87076	0.91
2.89943	0.911
2.92811	0.901
2.95678	0.902
2.98546	0.91
3.01413	0.914
3.0428	0.917
3.07148	0.912
3.10015	0.907
3.12883	0.904
3.1575	0.901
3.18617	0.9
3.21485	0.906
3.24352	0.912
3.2722	0.928
3.30087	0.938
3.32954	0.73
3.35822	0.589
3.38689	0.492
3.41556	0.471
3.44424	0.517
3.47291	0.553
3.50159	0.568
3.53026	0.618
3.55893	0.772
3.58761	0.823
3.61628	0.827
3.64496	0.799
3.67363	0.788
3.7023	0.817
3.73098	0.839
3.75965	0.856
3.78833	0.866
3.817	0.875
3.84567	0.88
3.87435	0.882
3.90302	0.882
3.93169	0.878
3.96037	0.882
3.98904	0.884
4.01772	0.884
4.04639	0.884
4.07506	0.884
4.10374	0.888
4.13241	0.901
4.16109	0.912
4.18976	0.904
4.21843	0.904
4.24711	0.902
4.27578	0.898
4.30446	0.895
4.33313	0.894
4.3618	0.893
4.39048	0.89
4.41915	0.89
4.44782	0.89
4.4765	0.888
4.50517	0.887
4.53385	0.883
4.56252	0.883
4.59119	0.883
4.61987	0.884
4.64854	0.884
4.67722	0.884
4.70589	0.884
4.73456	0.882
4.76324	0.88
4.79191	0.877
4.82059	0.876
4.84926	0.881
4.87793	0.882
4.90661	0.878
4.93528	0.877
4.96395	0.876
4.99263	0.876
5.0213	0.876
5.04998	0.876
5.07865	0.876
5.10732	0.876
5.136	0.876
5.16467	0.876
5.19335	0.877
5.22202	0.877
5.25069	0.875
5.27937	0.868
5.30804	0.862
5.33672	0.865
5.36539	0.868
5.39406	0.869
5.42274	0.869
5.45141	0.866
5.48008	0.862
5.50876	0.858
5.53743	0.858
5.56611	0.857
5.59478	0.852
5.62345	0.841
5.65213	0.823
5.6808	0.814
5.70948	0.776
5.73815	0.657
5.76682	0.266
5.7955	0.149
5.82417	0.236
5.85285	0.577
5.88152	0.737
5.91019	0.775
5.93887	0.779
5.96754	0.811
5.99621	0.826
6.02489	0.828
6.05356	0.827
6.08224	0.821
6.11091	0.774
6.13958	0.689
6.16826	0.466
6.19693	0.479
6.22561	0.69
6.25428	0.772
6.28295	0.731
6.31163	0.694
6.3403	0.715
6.36898	0.794
6.39765	0.82
6.42632	0.835
6.455	0.845
6.48367	0.853
6.51234	0.856
6.54102	0.838
6.56969	0.788
6.59837	0.669
6.62704	0.299
6.65571	0.251
6.68439	0.453
6.71306	0.659
6.74174	0.706
6.77041	0.655
6.79908	0.538
6.82776	0.567
6.85643	0.539
6.88511	0.55
6.91378	0.649
6.94245	0.671
6.97113	0.675
6.9998	0.705
7.02847	0.721
7.05715	0.773
7.08582	0.799
7.1145	0.8
7.14317	0.786
7.17184	0.733
7.20052	0.628
7.22919	0.639
7.25787	0.78
7.28654	0.796
7.31521	0.794
7.34389	0.732
7.37256	0.717
7.40124	0.747
7.42991	0.752
7.45858	0.75
7.48726	0.743
7.51593	0.756
7.5446	0.741
7.57328	0.663
7.60195	0.603
7.63063	0.641
7.6593	0.672
7.68797	0.693
7.71665	0.676
7.74532	0.58
7.774	0.486
7.80267	0.458
7.83134	0.57
7.86002	0.615
7.88869	0.627
7.91737	0.509
7.94604	0.345
7.97471	0.323
8.00339	0.446
8.03206	0.465
8.06073	0.408
8.08941	0.39
8.11808	0.407
8.14676	0.44
8.17543	0.472
8.2041	0.504
8.23278	0.537
8.26145	0.569
8.29013	0.601
8.3188	0.634
8.34747	0.748
8.37615	0.821
8.40482	0.83
8.4335	0.823
8.46217	0.784
8.49084	0.652
8.51952	0.659
8.54819	0.7
8.57686	0.705
8.60554	0.651
8.63421	0.637
8.66289	0.588
8.69156	0.617
8.72023	0.697
8.74891	0.713
8.77758	0.714
8.80626	0.683
8.83493	0.636
8.8636	0.675
8.89228	0.724
8.92095	0.744
8.94963	0.754
8.9783	0.768
9.00697	0.781
9.03565	0.782
9.06432	0.748
9.09299	0.739
9.12167	0.733
9.15034	0.693
9.17902	0.678
9.20769	0.736
9.23636	0.743
9.26504	0.751
9.29371	0.761
9.32239	0.766
9.35106	0.766
9.37973	0.764
9.40841	0.747
9.43708	0.712
9.46576	0.647
9.49443	0.594
9.5231	0.585
9.55178	0.581
9.58045	0.526
9.60912	0.423
9.6378	0.42
9.66647	0.527
9.69515	0.611
9.72382	0.676
9.75249	0.718
9.78117	0.743
9.80984	0.763
9.83852	0.776
9.86719	0.798
9.89586	0.815
9.92454	0.818
9.95321	0.821
9.98189	0.823
10.0106	0.826
10.0392	0.828
10.0679	0.83
10.0966	0.83
10.1253	0.826
10.1539	0.817
10.1826	0.814
10.2113	0.812
10.24	0.812
10.2686	0.803
10.2973	0.784
10.326	0.76
10.3546	0.761
10.3833	0.773
10.412	0.793
10.4407	0.8
10.4693	0.82
10.498	0.823
10.5267	0.824
10.5554	0.824
10.584	0.827
10.6127	0.829
10.6414	0.836
10.6701	0.85
10.6987	0.853
10.7274	0.875
10.7561	0.888
10.7848	0.896
10.8134	0.889
10.8421	0.868
10.8708	0.853
10.8994	0.846
10.9281	0.841
10.9568	0.835
10.9855	0.809
11.0141	0.772
11.0428	0.754
11.0715	0.736
11.1002	0.731
11.1288	0.743
11.1575	0.75
11.1862	0.751
11.2149	0.749
11.2435	0.747
11.2722	0.742
11.3009	0.744
11.3296	0.75
11.3582	0.749
11.3869	0.744
11.4156	0.735
11.4443	0.715
11.4729	0.714
11.5016	0.721
11.5303	0.72
11.5589	0.709
11.5876	0.711
11.6163	0.731
11.645	0.774
11.6736	0.779
11.7023	0.796
11.731	0.8
11.7597	0.784
11.7883	0.743
11.817	0.738
11.8457	0.755
11.8744	0.772
11.903	0.796
11.9317	0.816
11.9604	0.826
11.9891	0.83
12.0177	0.829
12.0464	0.82
12.0751	0.811
12.1038	0.791
12.1324	0.768
12.1611	0.736
12.1898	0.717
12.2184	0.711
12.2471	0.709
12.2758	0.714
12.3045	0.727
12.3331	0.762
12.3618	0.803
12.3905	0.844
12.4192	0.886
12.4478	0.914
12.4765	0.94
12.5052	0.961
12.5339	0.968
12.5625	0.976
12.5912	0.979
12.6199	0.982
12.6486	0.984
12.6772	0.986
12.7059	0.988
