Infrared Spectrum: 2,2'-Dinitro-4,4'-biacetanilide
Formula: C16 H14 N4 O6
CAS: 6378-90-1
State: SOLID (SPLIT MULL), FLUOROLUBE FOR 3800-1330 CM^-^1, NUJOL FOR 1330-400 CM^-^1
Class: COBLENTZ III
Instrument: BECKMAN IR-9 (GRATING)
Instrument parameters: ORDER CHANGES: 670, 1200, 2000 CM^-^1
Sampling: TRANSMISSION
Resolution: 2
Origin: DOW CHEMICAL COMPANY
1/CM	TRANSMITTANCE
403	0.6893
412	0.6681
421	0.6605
430	0.6625
439	0.7117
448	0.7781
457	0.8208
466	0.8441
475	0.8637
484	0.8771
493	0.8825
502	0.8802
511	0.8658
520	0.8061
529	0.7004
538	0.5323
547	0.7056
556	0.7331
565	0.7848
574	0.7822
583	0.7321
592	0.6264
601	0.7565
610	0.8338
619	0.8291
628	0.7891
637	0.7511
646	0.7125
655	0.6932
664	0.6593
673	0.5582
682	0.5867
691	0.6474
700	0.556
709	0.764
718	0.7724
727	0.7612
736	0.8031
745	0.8402
754	0.8108
763	0.5935
772	0.8267
781	0.8809
790	0.8965
799	0.9021
808	0.8983
817	0.87
826	0.5487
835	0.4771
844	0.5908
853	0.706
862	0.5278
871	0.8258
880	0.8608
889	0.8165
898	0.7508
907	0.7992
916	0.8145
925	0.7701
934	0.8444
943	0.8521
952	0.8503
961	0.829
970	0.8228
979	0.7932
988	0.7854
997	0.7074
1006	0.5351
1015	0.5903
1024	0.7398
1033	0.7045
1042	0.7019
1051	0.7648
1060	0.7458
1069	0.694
1078	0.6844
1087	0.6049
1096	0.7569
1105	0.7736
1114	0.7697
1123	0.7551
1132	0.7338
1141	0.6961
1150	0.6108
1159	0.401
1168	0.2874
1177	0.5497
1186	0.6356
1195	0.6292
1204	0.5892
1213	0.4282
1222	0.177
1231	0.1432
1240	0.3168
1249	0.3988
1258	0.2235
1267	0.0953
1276	0.088
1285	0.367
1294	0.3944
1303	0.3526
1312	0.3609
1321	0.3243
1330	0.0852
1339	0.0114
1348	0.0238
1357	0.171
1366	0.1205
1375	0.1452
1384	0.3332
1393	0.3662
1402	0.3453
1411	0.2556
1420	0.1806
1429	0.1645
1438	0.1629
1447	0.1463
1456	0.1777
1465	0.3125
1474	0.3598
1483	0.2032
1492	0.03
1501	0.0078
1510	0.0104
1519	0.0318
1528	0.0522
1537	0.2015
1546	0.3206
1555	0.513
1564	0.3343
1573	0.1235
1582	0.1445
1591	0.5177
1600	0.6492
1609	0.6464
1618	0.3766
1627	0.3014
1636	0.6303
1645	0.7274
1654	0.7561
1663	0.7344
1672	0.6728
1681	0.6312
1690	0.4941
1699	0.2434
1708	0.0263
1717	0.0455
1726	0.4445
1735	0.6621
1744	0.8344
1753	0.8614
1762	0.8602
1771	0.8687
1780	0.8775
1789	0.8782
1798	0.8768
1807	0.876
1816	0.8752
1825	0.8755
1834	0.8758
1843	0.876
1852	0.8752
1861	0.8732
1870	0.87
1879	0.866
1888	0.8637
1897	0.8624
1906	0.8593
1915	0.8561
1924	0.8536
1933	0.8497
1942	0.842
1951	0.8327
1960	0.8259
1969	0.824
1978	0.8243
1987	0.8257
1996	0.8208
2005	0.813
2014	0.8072
2023	0.8022
2032	0.7978
2041	0.7936
2050	0.7888
2059	0.7844
2068	0.7805
2077	0.7778
2086	0.7751
2095	0.7722
2104	0.7692
2113	0.7661
2122	0.7621
2131	0.7578
2140	0.7538
2149	0.7496
2158	0.745
2167	0.7368
2176	0.7291
2185	0.7268
2194	0.7257
2203	0.7245
2212	0.7224
2221	0.7195
2230	0.7121
2239	0.7022
2248	0.6958
2257	0.6908
2266	0.6868
2275	0.6832
2284	0.6801
2293	0.6771
2302	0.674
2311	0.671
2320	0.6687
2329	0.6662
2338	0.6639
2347	0.6615
2356	0.6592
2365	0.6565
2374	0.6518
2383	0.6469
2392	0.6408
2401	0.6362
2410	0.6318
2419	0.63
2428	0.6309
2437	0.6356
2446	0.635
2455	0.6328
2464	0.6326
2473	0.6319
2482	0.6302
2491	0.6282
2500	0.626
2509	0.624
2518	0.6218
2527	0.6195
2536	0.617
2545	0.6145
2554	0.6121
2563	0.6096
2572	0.6071
2581	0.605
2590	0.603
2599	0.6009
2608	0.5988
2617	0.5965
2626	0.5944
2635	0.5918
2644	0.5884
2653	0.5849
2662	0.5815
2671	0.5779
2680	0.5742
2689	0.5706
2698	0.567
2707	0.5636
2716	0.5603
2725	0.5568
2734	0.5519
2743	0.5473
2752	0.5434
2761	0.5398
2770	0.5371
2779	0.5344
2788	0.5321
2797	0.5304
2806	0.5272
2815	0.5224
2824	0.5177
2833	0.5138
2842	0.511
2851	0.5026
2860	0.4991
2869	0.4988
2878	0.4984
2887	0.4974
2896	0.4943
2905	0.4862
2914	0.4768
2923	0.4697
2932	0.4643
2941	0.4627
2950	0.4632
2959	0.4635
2968	0.4628
2977	0.4612
2986	0.4587
2995	0.4542
3004	0.4497
3013	0.4445
3022	0.4381
3031	0.4318
3040	0.426
3049	0.415
3058	0.3999
3067	0.384
3076	0.3718
3085	0.4123
3094	0.4183
3103	0.3905
3112	0.3868
3121	0.4191
3130	0.4237
3139	0.4252
3148	0.426
3157	0.4264
3166	0.4258
3175	0.4248
3184	0.4226
3193	0.42
3202	0.4171
3211	0.4137
3220	0.41
3229	0.4054
3238	0.4004
3247	0.3939
3256	0.3874
3265	0.3802
3274	0.3726
3283	0.3632
3292	0.3536
3301	0.3388
3310	0.3159
3319	0.2819
3328	0.2328
3337	0.1729
3346	0.1317
3355	0.1271
3364	0.149
3373	0.1886
3382	0.299
3391	0.3755
3400	0.4047
3409	0.4127
3418	0.4155
3427	0.4162
3436	0.4152
3445	0.4141
3454	0.4119
3463	0.4089
3472	0.4043
3481	0.4003
3490	0.3973
3499	0.395
3508	0.3929
3517	0.3909
3526	0.3889
3535	0.3871
3544	0.385
3553	0.383
3562	0.3812
3571	0.3793
3580	0.3775
3589	0.3757
3598	0.3739
3607	0.3722
3616	0.3706
3625	0.3689
3634	0.3673
3643	0.3657
3652	0.364
3661	0.3624
3670	0.3608
3679	0.3592
3688	0.3576
3697	0.3559
3706	0.3539
3715	0.3518
3724	0.3498
3733	0.3477
3742	0.3456
3751	0.3434
3760	0.3414
3769	0.3397
3778	0.338
3787	0.3362
3796	0.3346
