Infrared Spectrum: PHOSPHINE, PHENYL-,
Formula: C6 H7 P
CAS: 638-21-1
State: LIQUID
Class: COBLENTZ
Instrument: PERKIN-ELMER
Sampling: TRANSMISSION
Path length: 0.0015 CM
Resolution: 4
Origin: STANDARD OIL OF OHIO
MICROMETERS	TRANSMITTANCE
2.027	0.967
2.06077	0.967
2.09453	0.967
2.1283	0.965
2.16207	0.957
2.19583	0.96
2.2296	0.967
2.26337	0.971
2.29713	0.971
2.3309	0.971
2.36466	0.971
2.39843	0.965
2.4322	0.95
2.46596	0.94
2.49973	0.965
2.5335	0.969
2.56726	0.967
2.60103	0.972
2.6348	0.971
2.66856	0.969
2.70233	0.95
2.7361	0.928
2.76986	0.909
2.80363	0.882
2.83739	0.841
2.87116	0.809
2.90493	0.795
2.93869	0.802
2.97246	0.821
3.00623	0.841
3.03999	0.853
3.07376	0.862
3.10753	0.868
3.14129	0.873
3.17506	0.87
3.20883	0.695
3.24259	0.56
3.27636	0.672
3.31012	0.758
3.34389	0.846
3.37766	0.872
3.41142	0.882
3.44519	0.89
3.47896	0.892
3.51272	0.899
3.54649	0.904
3.58026	0.906
3.61402	0.908
3.64779	0.909
3.68156	0.908
3.71532	0.902
3.74909	0.904
3.78285	0.908
3.81662	0.906
3.85039	0.904
3.88415	0.904
3.91792	0.904
3.95169	0.906
3.98545	0.906
4.01922	0.906
4.05299	0.902
4.08675	0.889
4.12052	0.867
4.15429	0.819
4.18805	0.781
4.22182	0.737
4.25558	0.669
4.28935	0.456
4.32312	0.207
4.35688	0.236
4.39065	0.412
4.42442	0.635
4.45818	0.739
4.49195	0.792
4.52572	0.833
4.55948	0.856
4.59325	0.87
4.62702	0.877
4.66078	0.88
4.69455	0.889
4.72831	0.897
4.76208	0.902
4.79585	0.906
4.82961	0.911
4.86338	0.911
4.89715	0.913
4.93091	0.913
4.96468	0.911
4.99845	0.902
5.03221	0.879
5.06598	0.855
5.09975	0.843
5.13351	0.88
5.16728	0.896
5.20104	0.89
5.23481	0.858
5.26858	0.85
5.30234	0.85
5.33611	0.889
5.36988	0.896
5.40364	0.89
5.43741	0.875
5.47118	0.856
5.50494	0.848
5.53871	0.873
5.57248	0.884
5.60624	0.879
5.64001	0.863
5.67377	0.862
5.70754	0.875
5.74131	0.88
5.77507	0.88
5.80884	0.88
5.84261	0.879
5.87637	0.87
5.91014	0.865
5.94391	0.858
5.97767	0.85
6.01144	0.843
6.04521	0.822
6.07897	0.819
6.11274	0.829
6.1465	0.841
6.18027	0.851
6.21404	0.844
6.2478	0.768
6.28157	0.792
6.31534	0.797
6.3491	0.81
6.38287	0.841
6.41664	0.872
6.4504	0.88
6.48417	0.887
6.51794	0.894
6.5517	0.899
6.58547	0.902
6.61923	0.899
6.653	0.88
6.68677	0.698
6.72053	0.449
6.7543	0.764
6.78807	0.836
6.82183	0.838
6.8556	0.829
6.88937	0.735
6.92313	0.354
6.9569	0.49
6.99067	0.752
7.02443	0.827
7.0582	0.862
7.09196	0.879
7.12573	0.885
7.1595	0.887
7.19326	0.87
7.22703	0.855
7.2608	0.867
7.29456	0.884
7.32833	0.889
7.3621	0.894
7.39586	0.897
7.42963	0.897
7.4634	0.875
7.49716	0.8
7.53093	0.821
7.56469	0.848
7.59846	0.843
7.63223	0.819
7.66599	0.8
7.69976	0.773
7.73353	0.812
7.76729	0.855
7.80106	0.86
7.83483	0.86
7.86859	0.855
7.90236	0.844
7.93613	0.838
7.96989	0.838
8.00366	0.827
8.03742	0.81
8.07119	0.797
8.10496	0.785
8.13872	0.771
8.17249	0.749
8.20626	0.689
8.24002	0.621
8.27379	0.58
8.30756	0.586
8.34132	0.589
8.37509	0.58
8.40886	0.575
8.44262	0.58
8.47639	0.597
8.51015	0.613
8.54392	0.63
8.57769	0.642
8.61145	0.647
8.64522	0.662
8.67899	0.701
8.71275	0.72
8.74652	0.73
8.78029	0.722
8.81405	0.679
8.84782	0.647
8.88159	0.642
8.91535	0.664
8.94912	0.683
8.98288	0.626
9.01665	0.55
9.05042	0.63
9.08418	0.662
9.11795	0.669
9.15172	0.666
9.18548	0.647
9.21925	0.599
9.25302	0.505
9.28678	0.403
9.32055	0.361
9.35432	0.413
9.38808	0.536
9.42185	0.64
9.45561	0.717
9.48938	0.754
9.52315	0.776
9.55691	0.783
9.59068	0.787
9.62445	0.771
9.65821	0.729
9.69198	0.662
9.72575	0.48
9.75951	0.57
9.79328	0.623
9.82705	0.683
9.86081	0.706
9.89458	0.718
9.92834	0.703
9.96211	0.642
9.99588	0.613
10.0296	0.637
10.0634	0.688
10.0972	0.695
10.1309	0.686
10.1647	0.667
10.1985	0.659
10.2322	0.645
10.266	0.638
10.2998	0.638
10.3335	0.64
10.3673	0.657
10.4011	0.679
10.4348	0.696
10.4686	0.708
10.5024	0.72
10.5361	0.73
10.5699	0.741
10.6037	0.746
10.6374	0.749
10.6712	0.749
10.705	0.751
10.7387	0.751
10.7725	0.751
10.8063	0.747
10.84	0.749
10.8738	0.749
10.9076	0.751
10.9413	0.751
10.9751	0.751
11.0089	0.751
11.0426	0.752
11.0764	0.758
11.1102	0.758
11.1439	0.758
11.1777	0.752
11.2115	0.744
11.2452	0.734
11.279	0.727
11.3128	0.718
11.3465	0.712
11.3803	0.701
11.4141	0.698
11.4478	0.688
11.4816	0.671
11.5154	0.655
11.5491	0.632
11.5829	0.604
11.6167	0.579
11.6504	0.557
11.6842	0.54
11.718	0.526
11.7517	0.517
11.7855	0.512
11.8193	0.511
11.853	0.514
11.8868	0.516
11.9206	0.517
11.9543	0.504
11.9881	0.473
12.0219	0.422
12.0556	0.369
12.0894	0.332
12.1232	0.31
12.1569	0.304
12.1907	0.328
12.2245	0.388
12.2582	0.441
12.292	0.488
12.3258	0.538
12.3595	0.591
12.3933	0.628
12.4271	0.657
12.4608	0.684
12.4946	0.708
12.5284	0.718
12.5621	0.73
12.5959	0.741
12.6297	0.749
12.6634	0.756
12.6972	0.763
12.731	0.77
12.7647	0.773
12.7985	0.776
12.8323	0.778
12.866	0.78
12.8998	0.78
12.9336	0.778
12.9673	0.771
13.0011	0.768
13.0349	0.761
13.0686	0.749
13.1024	0.732
13.1362	0.722
13.1699	0.71
13.2037	0.698
13.2375	0.669
13.2712	0.647
13.305	0.608
13.3388	0.57
13.3725	0.531
13.4063	0.492
13.4401	0.453
13.4738	0.419
13.5076	0.388
13.5414	0.383
13.5751	0.373
13.6089	0.349
13.6427	0.301
13.6764	0.231
13.7102	0.16
13.744	0.102
13.7777	0.039
13.8115	0.011
13.8453	0.008
13.879	0.005
13.9128	0.003
13.9466	0.001
13.9803	0.02
14.0141	0.064
14.0478	0.119
14.0816	0.172
14.1154	0.228
14.1491	0.258
14.1829	0.298
14.2167	0.315
14.2504	0.33
14.2842	0.328
14.318	0.31
14.3517	0.258
14.3855	0.202
14.4193	0.153
14.453	0.126
14.4868	0.126
14.5206	0.194
14.5543	0.296
14.5881	0.42
14.6219	0.529
14.6556	0.582
14.6894	0.623
14.7232	0.647
14.7569	0.662
14.7907	0.669
14.8245	0.676
14.8582	0.683
14.892	0.686
14.9258	0.696
14.9595	0.71
14.9933	0.729
15.0271	0.735
15.0608	0.742
15.0946	0.749
15.1284	0.752
15.1621	0.759
15.1959	0.759
15.2297	0.763
15.2634	0.763
15.2972	0.766
15.331	0.764
15.3647	0.766
