Infrared Spectrum: Tetradecaneamide
Formula: C 14 H 29 N O
CAS: 638-58-4
State: gas
Origin: EPA-IR VAPOR PHASE LIBRARY
1/CM	ABSORBANCE
549.8	0.001379
559.445	0.001649
569.09	0.001919
578.734	0.002119
588.379	0.002349
598.024	0.002069
607.669	0.002429
617.313	0.002349
626.958	0.001589
636.603	0.001539
646.248	0.0009433
655.893	0.0009903
665.537	0.0010299
675.182	0.0009026
684.827	0.001209
694.472	0.001449
704.116	0.001969
713.761	0.002609
723.406	0.003179
733.051	0.003359
742.695	0.003389
752.34	0.003129
761.985	0.002939
771.63	0.002839
781.275	0.002219
790.919	0.002199
800.564	0.002059
810.209	0.001679
819.854	0.001739
829.498	0.001859
839.143	0.001619
848.788	0.001809
858.433	0.001919
868.078	0.001419
877.722	0.001869
887.367	0.001549
897.012	0.001579
906.657	0.001369
916.301	0.001249
925.946	0.001289
935.591	0.0010696
945.236	0.0011058
954.88	0.001199
964.525	0.001289
974.17	0.0009667
983.815	0.001279
993.46	0.0009178
1003.1	0.0010558
1012.75	0.0010136
1022.39	0.000986
1032.04	0.001058
1041.68	0.001259
1051.33	0.001689
1060.97	0.001619
1070.62	0.001539
1080.26	0.00113
1089.91	0.001349
1099.55	0.001239
1109.2	0.001399
1118.84	0.0009604
1128.49	0.001072
1138.13	0.0010048
1147.78	0.0009856
1157.42	0.001279
1167.07	0.0011295
1176.71	0.001639
1186.36	0.001419
1196	0.001609
1205.64	0.001779
1215.29	0.002429
1224.93	0.002669
1234.58	0.003309
1244.22	0.004049
1253.87	0.004639
1263.51	0.005429
1273.16	0.005749
1282.8	0.005769
1292.45	0.005449
1302.09	0.005439
1311.74	0.005189
1321.38	0.005299
1331.03	0.006049
1340.67	0.007129
1350.32	0.007759
1359.96	0.007969
1369.61	0.008019
1379.25	0.007059
1388.9	0.004949
1398.54	0.003189
1408.18	0.002379
1417.83	0.002169
1427.47	0.002469
1437.12	0.003139
1446.76	0.004259
1456.41	0.005749
1466.05	0.005539
1475.7	0.003339
1485.34	0.001819
1494.99	0.0011723
1504.63	0.0009996
1514.28	0.0008581
1523.92	0.0008045
1533.57	0.001023
1543.21	0.001199
1552.86	0.001769
1562.5	0.002899
1572.15	0.004989
1581.79	0.009139
1591.44	0.009889
1601.08	0.006559
1610.73	0.003929
1620.37	0.002639
1630.01	0.001919
1639.66	0.001469
1649.3	0.001459
1658.95	0.001689
1668.59	0.002229
1678.24	0.003129
1687.88	0.004999
1697.53	0.008309
1707.17	0.012859
1716.82	0.018969
1726.46	0.026409
1736.11	0.027029
1745.75	0.019279
1755.4	0.012129
1765.04	0.006719
1774.69	0.003479
1784.33	0.001959
1793.98	0.001249
1803.62	0.0009988
1813.27	0.000692
1822.91	0.0006587
1832.55	0.0005872
1842.2	0.0005719
1851.84	0.0005183
1861.49	0.0004981
1871.13	0.0004416
1880.78	0.0003847
1890.42	0.0003639
1900.07	0.0003657
1909.71	0.0003418
1919.36	0.0003459
1929	0.000441
1938.65	0.0004229
1948.29	0.0004153
1957.94	0.0003248
1967.58	0.0003918
1977.23	0.0003225
1986.87	0.00020108
1996.52	0.0003557
2006.16	0.0003004
2015.81	0.0004029
2025.45	0.000393
2035.1	0.0003607
2044.74	0.0003912
2054.38	0.0002972
2064.03	0.0003718
2073.67	0.0003115
2083.32	0.0003327
2092.96	0.0002554
2102.61	0.0003273
2112.25	0.0003013
2121.9	0.0003738
2131.54	0.0004002
2141.19	0.0003421
2150.83	0.0003059
2160.48	0.0003444
2170.12	0.0003734
2179.77	0.0003567
2189.41	0.0003826
2199.06	0.0003778
2208.7	0.0003232
2218.35	0.0003392
2227.99	0.0003732
2237.64	0.0003667
2247.28	0.0003565
2256.92	0.0003482
2266.57	0.0003712
2276.21	0.0003016
2285.86	0.000326
2295.5	0.0004135
2305.15	0.0004098
2314.79	0.0003684
2324.44	0.0003569
2334.08	0.0003676
2343.73	0.0003413
2353.37	0.000366
2363.02	0.000398
2372.66	0.000453
2382.31	0.0004067
2391.95	0.0003633
2401.6	0.0003359
2411.24	0.0003436
2420.89	0.0004625
2430.53	0.0003132
2440.18	0.0003156
2449.82	0.00025549
2459.47	0.0003941
2469.11	0.0003842
2478.75	0.0003039
2488.4	0.0003346
2498.04	0.0003697
2507.69	0.0004185
2517.33	0.0004129
2526.98	0.0003443
2536.62	0.0004681
2546.27	0.000538
2555.91	0.0005197
2565.56	0.0004411
2575.2	0.0004667
2584.85	0.0005018
2594.49	0.0005259
2604.14	0.000568
2613.78	0.0005646
2623.43	0.0005493
2633.07	0.0006902
2642.72	0.0006984
2652.36	0.0008244
2662.01	0.0008881
2671.65	0.000973
2681.29	0.0008422
2690.94	0.0008788
2700.58	0.0010585
2710.23	0.0009524
2719.87	0.0008864
2729.52	0.0009364
2739.16	0.0008965
2748.81	0.0010435
2758.45	0.0010394
2768.1	0.0011733
2777.74	0.001399
2787.39	0.001529
2797.03	0.001649
2806.68	0.002199
2816.32	0.002769
2825.97	0.003399
2835.61	0.004929
2845.26	0.008279
2854.9	0.018049
2864.55	0.026069
2874.19	0.019369
2883.84	0.014969
2893.48	0.014149
2903.12	0.018699
2912.77	0.028599
2922.41	0.048159
2932.06	0.069399
2941.7	0.054109
2951.35	0.031749
2960.99	0.022479
2970.64	0.017859
2980.28	0.009749
2989.93	0.005579
2999.57	0.003619
3009.22	0.002669
3018.86	0.002229
3028.51	0.001639
3038.15	0.001329
3047.8	0.001199
3057.44	0.0011399
3067.09	0.0008716
3076.73	0.000586
3086.38	0.0007902
3096.02	0.0008407
3105.67	0.000691
3115.31	0.0005869
3124.95	0.0007527
3134.6	0.0005301
3144.24	0.0006071
3153.89	0.0005239
3163.53	0.0005855
3173.18	0.0004985
3182.82	0.0004147
3192.47	0.0005533
3202.11	0.0004414
3211.76	0.0004177
3221.4	0.0003241
3231.05	0.00025647
3240.69	0.0003965
3250.34	0.000338
3259.98	0.0002512
3269.63	0.0002722
3279.27	0.000369
3288.92	0.0003727
3298.56	0.0003333
3308.21	0.00020373
3317.85	0.00022409
3327.49	0.0002974
3337.14	4e-05
3346.78	0.00024896
3356.43	0.0003671
3366.07	0.0003229
3375.72	0.0005152
3385.36	0.0004861
3395.01	0.0009223
3404.65	0.001289
3414.3	0.001969
3423.94	0.002319
3433.59	0.002749
3443.23	0.002809
3452.88	0.001359
3462.52	0.0011196
3472.17	0.000819
3481.81	0.00074
3491.46	0.0006838
3501.1	0.0011674
3510.75	0.001179
3520.39	0.001529
3530.04	0.001599
3539.68	0.001499
3549.32	0.002059
3558.97	0.002829
3568.61	0.002019
3578.26	0.0010876
3587.9	0.0006806
3597.55	0.0003013
3607.19	0.000422
3616.84	0.0002038
3626.48	0.000184566
3636.13	0.0001582
3645.77	0.000418
3655.42	0.0004313
3665.06	0.0003868
3674.71	0.0004132
3684.35	0.0001601
3694	0.0001246
3703.64	0.00023438
3713.29	0.0004472
3722.93	0.0003009
3732.58	0.00021096
3742.22	0.00017051
3751.86	0.0005201
3761.51	0.0003345
3771.15	0.000468
3780.8	2.8e-05
3790.44	0.0003905
3800.09	0.0003351
3809.73	0.00022817
3819.38	0.000293
3829.02	0.0004712
3838.67	0.0003008
3848.31	0.0001621
3857.96	0.00026181
3867.6	0.0003027
3877.25	0.000413
3886.89	0.00027354
3896.54	0.0002809
3906.18	0.0001026
3915.83	0.00022031
3925.47	0.0004449
3935.12	0.0004028
3944.76	0.0003782
3954.41	0.0001516
3964.05	0.0004813
3973.69	0.00023
3983.34	0.0004098
3992.98	0.0006739
