Infrared Spectrum: 1-Iodohexane
Formula: C 6 H 13 I
CAS: 638-45-9
State: gas
Origin: EPA-IR VAPOR PHASE LIBRARY
1/CM	ABSORBANCE
501.5	0.00226
513.074	0.00206
524.648	0.0011
536.222	0.0007034
547.796	0.0004508
559.37	0.0006397
570.944	0.00113
582.518	0.00262
594.092	0.00458
605.666	0.00359
617.24	0.00125
628.814	0.0005244
640.388	0.0003913
651.962	0.0003417
663.536	0.0003956
675.11	0.0004866
686.684	0.0008263
698.258	0.00139
709.832	0.00269
721.406	0.00405
732.98	0.00373
744.554	0.00281
756.128	0.00212
767.702	0.00191
779.276	0.00222
790.85	0.00207
802.423	0.00149
813.997	0.00111
825.571	0.00111
837.145	0.00142
848.719	0.00158
860.293	0.00137
871.867	0.00134
883.441	0.00123
895.015	0.00129
906.589	0.00129
918.163	0.0009634
929.737	0.0007831
941.311	0.00115
952.885	0.00166
964.459	0.00175
976.033	0.0016
987.607	0.00116
999.181	0.0008704
1010.76	0.0007099
1022.33	0.0007644
1033.9	0.0009666
1045.48	0.0009609
1057.05	0.001
1068.63	0.00106
1080.2	0.00128
1091.77	0.00162
1103.35	0.00161
1114.92	0.0014
1126.49	0.0014
1138.07	0.00197
1149.64	0.00388
1161.22	0.00952
1172.79	0.02183
1184.36	0.01723
1195.94	0.00943
1207.51	0.01156
1219.09	0.01832
1230.66	0.0146
1242.23	0.00973
1253.81	0.00806
1265.38	0.00693
1276.96	0.00733
1288.53	0.00649
1300.1	0.00507
1311.68	0.00403
1323.25	0.00325
1334.83	0.0041
1346.4	0.00521
1357.97	0.00474
1369.55	0.00413
1381.12	0.00458
1392.7	0.00396
1404.27	0.00308
1415.84	0.00382
1427.42	0.00686
1438.99	0.00958
1450.57	0.01121
1462.14	0.01237
1473.71	0.0091
1485.29	0.00479
1496.86	0.00254
1508.44	0.00162
1520.01	0.0012
1531.58	0.0009513
1543.16	0.000729
1554.73	0.0005979
1566.31	0.0005157
1577.88	0.0004933
1589.45	0.0004758
1601.03	0.0004351
1612.6	0.0004154
1624.18	0.0003976
1635.75	0.0003711
1647.32	0.0003652
1658.9	0.0003309
1670.47	0.0003241
1682.05	0.0002965
1693.62	0.0003021
1705.19	0.0002887
1716.77	0.0002645
1728.34	0.0002257
1739.92	0.0002173
1751.49	0.0002475
1763.06	0.0002261
1774.64	0.0002084
1786.21	0.0002403
1797.79	0.0002221
1809.36	0.0002156
1820.93	0.0001966
1832.51	0.0001838
1844.08	0.0001887
1855.66	0.0002103
1867.23	0.0002231
1878.8	0.0002072
1890.38	0.0002348
1901.95	0.0002357
1913.53	0.0002394
1925.1	0.0002293
1936.67	0.000233
1948.25	0.0002419
1959.82	0.0002394
1971.4	0.0002126
1982.97	0.0002289
1994.54	0.0002396
2006.12	0.0002673
2017.69	0.0003259
2029.27	0.0003876
2040.84	0.0004051
2052.41	0.0003755
2063.99	0.0003456
2075.56	0.0003308
2087.14	0.0002832
2098.71	0.0002771
2110.28	0.0003088
2121.86	0.0003222
2133.43	0.0003519
2145.01	0.0003759
2156.58	0.0004037
2168.15	0.0003957
2179.73	0.0003934
2191.3	0.0004244
2202.88	0.0004111
2214.45	0.0004257
2226.02	0.0004048
2237.6	0.0004095
2249.17	0.0003908
2260.74	0.000394
2272.32	0.0003805
2283.89	0.0003708
2295.47	0.0003831
2307.04	0.000417
2318.61	0.0004749
2330.19	0.0005197
2341.76	0.0005094
2353.34	0.0005311
2364.91	0.0004946
2376.48	0.0004836
2388.06	0.0004659
2399.63	0.0004938
2411.21	0.0004612
2422.78	0.0004677
2434.35	0.0004201
2445.93	0.000372
2457.5	0.0003497
2469.08	0.000325
2480.65	0.0003087
2492.22	0.0003348
2503.8	0.0003394
2515.37	0.0004258
2526.95	0.0004402
2538.52	0.0004453
2550.09	0.0004706
2561.67	0.0005209
2573.24	0.0005451
2584.82	0.000649
2596.39	0.0007932
2607.96	0.0008979
2619.54	0.0009328
2631.11	0.0008912
2642.69	0.0009666
2654.26	0.00106
2665.83	0.00116
2677.41	0.00128
2688.98	0.0013
2700.56	0.0012
2712.13	0.00116
2723.7	0.00132
2735.28	0.00155
2746.85	0.00179
2758.43	0.00179
2770	0.00194
2781.57	0.00238
2793.15	0.00301
2804.72	0.00382
2816.3	0.00501
2827.87	0.00753
2839.44	0.0131
2851.02	0.02281
2862.59	0.03419
2874.17	0.03896
2885.74	0.03879
2897.31	0.03447
2908.89	0.04116
2920.46	0.06402
2932.04	0.09392
2943.61	0.09333
2955.18	0.07132
2966.76	0.07374
2978.33	0.05335
2989.91	0.02367
3001.48	0.0136
3013.05	0.01116
3024.63	0.00811
3036.2	0.00506
3047.78	0.00349
3059.35	0.0027
3070.92	0.00228
3082.5	0.00205
3094.07	0.00179
3105.65	0.00165
3117.22	0.0015
3128.79	0.00129
3140.37	0.0012
3151.94	0.00107
3163.52	0.00101
3175.09	0.0008971
3186.66	0.0007946
3198.24	0.0007257
3209.81	0.0006837
3221.39	0.0005195
3232.96	0.0004467
3244.53	0.0003428
3256.11	0.0002906
3267.68	0.0003448
3279.26	0.0002689
3290.83	0.000231
3302.4	0.0002634
3313.98	0.0002865
3325.55	0.0002186
3337.13	0.0002981
3348.7	0.0002496
3360.27	0.000226
3371.85	0.0002221
3383.42	0.000273
3395	0.0002556
3406.57	0.0002361
3418.14	0.0002102
3429.72	0.0001646
3441.29	0.000184
3452.86	0.00016
3464.44	0.0001321
3476.01	0.0001796
3487.59	0.0001825
3499.16	0.0001707
3510.73	9.785e-05
3522.31	0.0001308
3533.88	0.0001203
3545.46	0.0001539
3557.03	0.0001897
3568.6	0.0002123
3580.18	0.0001734
3591.75	0.0001579
3603.33	0.0001857
3614.9	0.0002057
3626.47	0.0003116
3638.05	0.0002407
3649.62	0.0002107
3661.2	0.0003232
3672.77	0.0002206
3684.34	0.0003096
3695.92	0.0002638
3707.49	0.0002936
3719.07	0.0002872
3730.64	0.0002631
3742.21	0.0002481
3753.79	0.0002311
3765.36	0.0002525
3776.94	0.0002524
3788.51	0.0002777
3800.08	0.000275
3811.66	0.000293
3823.23	0.0002735
3834.81	0.0002914
3846.38	0.0003301
3857.95	0.0003423
3869.53	0.0002913
3881.1	0.0002373
3892.68	0.0003452
3904.25	0.0003154
3915.82	0.0003095
3927.4	0.000339
3938.97	0.0002658
3950.55	0.0002477
3962.12	0.0004609
3973.69	0.0004054
3985.27	0.0004319
3996.84	0.0004729
