Infrared Spectrum: Triacontane
Formula: C 30 H 62
CAS: 638-68-6
State: solid
Instrument: Bruker Tensor 37 FTIR
Resolution: 0.96450126
Origin: Pacific Northwest National Laboratory Under IARPA Contract
1/cm	Reflectance
7499	0.694923
7481.64	0.691262
7464.28	0.685351
7446.92	0.684612
7429.56	0.665225
7412.2	0.659005
7394.84	0.63367
7377.48	0.613402
7360.12	0.585224
7342.76	0.53683
7325.4	0.552105
7308.04	0.576865
7290.68	0.547556
7273.32	0.544256
7255.96	0.548448
7238.6	0.555599
7221.24	0.559447
7203.88	0.574824
7186.52	0.589901
7169.16	0.604495
7151.8	0.616213
7134.44	0.63482
7117.08	0.642175
7099.72	0.651452
7082.36	0.657269
7065	0.664163
7047.64	0.662339
7030.28	0.655031
7012.92	0.654726
6995.56	0.642168
6978.2	0.661205
6960.84	0.669253
6943.48	0.682986
6926.12	0.684578
6908.76	0.685727
6891.4	0.684605
6874.04	0.679437
6856.68	0.683259
6839.32	0.678388
6821.96	0.671898
6804.6	0.660258
6787.25	0.661097
6769.89	0.652417
6752.53	0.626969
6735.17	0.604315
6717.81	0.568483
6700.45	0.483367
6683.09	0.445017
6665.73	0.394818
6648.37	0.328054
6631.01	0.307048
6613.65	0.393887
6596.29	0.415162
6578.93	0.36231
6561.57	0.446091
6544.21	0.468746
6526.85	0.447628
6509.49	0.452747
6492.13	0.443649
6474.77	0.454435
6457.41	0.463131
6440.05	0.485145
6422.69	0.506735
6405.33	0.504014
6387.97	0.504135
6370.61	0.504655
6353.25	0.498994
6335.89	0.4996
6318.53	0.503238
6301.17	0.500408
6283.81	0.504105
6266.45	0.506149
6249.09	0.499356
6231.73	0.477966
6214.37	0.496973
6197.01	0.497619
6179.65	0.491454
6162.29	0.505322
6144.93	0.515212
6127.57	0.527842
6110.21	0.538204
6092.85	0.543376
6075.49	0.536288
6058.13	0.530729
6040.77	0.519653
6023.41	0.499074
6006.05	0.479024
5988.69	0.450449
5971.33	0.411895
5953.97	0.339049
5936.61	0.267294
5919.25	0.183647
5901.89	0.234061
5884.54	0.232255
5867.18	0.220574
5849.82	0.189402
5832.46	0.180904
5815.1	0.186201
5797.74	0.178669
5780.38	0.238915
5763.02	0.255931
5745.66	0.31132
5728.3	0.30912
5710.94	0.305247
5693.58	0.296987
5676.22	0.321684
5658.86	0.308465
5641.5	0.336947
5624.14	0.358343
5606.78	0.356444
5589.42	0.345312
5572.06	0.316329
5554.7	0.250817
5537.34	0.390119
5519.98	0.439902
5502.62	0.448923
5485.26	0.437692
5467.9	0.416094
5450.54	0.41546
5433.18	0.383392
5415.82	0.410236
5398.46	0.418134
5381.1	0.413333
5363.74	0.399294
5346.38	0.330819
5329.02	0.335508
5311.66	0.301181
5294.3	0.187493
5276.94	0.154569
5259.58	0.117911
5242.22	0.0851217
5224.86	0.0343819
5207.5	0.0789251
5190.14	0.051636
5172.78	0.069035
5155.42	0.0978744
5138.06	0.144875
5120.7	0.163588
5103.34	0.191117
5085.98	0.200149
5068.62	0.159412
5051.26	0.205851
5033.9	0.260909
5016.54	0.314889
4999.18	0.339901
4981.82	0.385214
4964.47	0.370678
4947.11	0.369015
4929.75	0.309877
4912.39	0.261557
4895.03	0.336575
4877.67	0.360192
4860.31	0.425514
4842.95	0.421821
4825.59	0.383558
4808.23	0.434923
4790.87	0.442982
4773.51	0.402403
4756.15	0.356275
4738.79	0.421412
4721.43	0.396086
4704.07	0.34007
4686.71	0.442707
4669.35	0.480663
4651.99	0.458018
4634.63	0.43976
4617.27	0.402427
4599.91	0.39081
4582.55	0.386999
4565.19	0.332068
4547.83	0.322184
4530.47	0.321105
4513.11	0.278397
4495.75	0.188433
4478.39	0.0943924
4461.03	0.286773
4443.67	0.277867
4426.31	0.296213
4408.95	0.356101
4391.59	0.381034
4374.23	0.390172
4356.87	0.395434
4339.51	0.413889
4322.15	0.422934
4304.79	0.397152
4287.43	0.431081
4270.07	0.408078
4252.71	0.455285
4235.35	0.443612
4217.99	0.476773
4200.63	0.418052
4183.27	0.397981
4165.91	0.350154
4148.55	0.388377
4131.19	0.29991
4113.83	0.0749345
4096.47	0.330531
4079.11	0.436411
4061.76	0.561319
4044.4	0.699983
4027.04	0.700755
4009.68	0.689631
3992.32	0.686164
3974.96	0.661845
3957.6	0.660734
3940.24	0.643692
3922.88	0.615662
3905.52	0.590496
3888.16	0.526377
3870.8	0.58433
3853.44	0.582723
3836.08	0.55686
3818.72	0.565934
3801.36	0.565352
3784	0.571878
3766.64	0.58634
3749.28	0.592869
3731.92	0.604474
3714.56	0.616686
3697.2	0.631356
3679.84	0.649846
3662.48	0.649448
3645.12	0.659807
3627.76	0.664731
3610.4	0.668866
3593.04	0.670496
3575.68	0.663123
3558.32	0.661364
3540.96	0.646404
3523.6	0.672495
3506.24	0.678154
3488.88	0.686924
3471.52	0.689823
3454.16	0.690104
3436.8	0.692903
3419.44	0.68624
3402.08	0.687939
3384.72	0.686223
3367.36	0.677044
3350	0.669913
3332.64	0.667285
3315.28	0.657019
3297.92	0.636143
3280.56	0.607988
3263.2	0.568917
3245.84	0.522561
3228.48	0.459177
3211.12	0.404574
3193.76	0.338819
3176.4	0.376904
3159.04	0.456007
3141.69	0.428881
3124.33	0.438437
3106.97	0.477362
3089.61	0.489292
3072.25	0.475025
3054.89	0.47375
3037.53	0.475268
3020.17	0.481437
3002.81	0.499982
2985.45	0.513087
2968.09	0.533721
2950.73	0.526504
2933.37	0.527601
2916.01	0.524538
2898.65	0.521647
2881.29	0.520716
2863.93	0.524396
2846.57	0.523015
2829.21	0.526493
2811.85	0.525345
2794.49	0.513189
2777.13	0.510333
2759.77	0.520026
2742.41	0.515345
2725.05	0.518285
2707.69	0.530173
2690.33	0.536886
2672.97	0.547742
2655.61	0.561285
2638.25	0.554712
2620.89	0.553649
2603.53	0.547085
2586.17	0.534308
2568.81	0.515511
2551.45	0.493096
2534.09	0.466376
2516.73	0.423294
2499.37	0.340593
2482.01	0.290198
2464.65	0.170591
2447.29	0.274349
2429.93	0.236246
2412.57	0.245463
2395.21	0.20332
2377.85	0.208064
2360.49	0.214692
2343.13	0.227323
2325.77	0.272145
2308.41	0.294143
2291.05	0.319501
2273.69	0.347334
2256.33	0.322163
2238.98	0.327984
2221.62	0.339509
2204.26	0.347194
2186.9	0.379036
2169.54	0.371908
2152.18	0.375102
2134.82	0.368027
2117.46	0.354258
2100.1	0.284357
2082.74	0.430069
2065.38	0.462873
2048.02	0.463874
2030.66	0.451855
2013.3	0.428341
1995.94	0.430893
1978.58	0.416669
1961.22	0.429583
1943.86	0.433946
1926.5	0.421661
1909.14	0.398815
1891.78	0.358023
1874.42	0.349261
1857.06	0.303093
1839.7	0.200445
1822.34	0.161476
1804.98	0.131249
1787.62	0.0753459
1770.26	0.0331985
1752.9	0.0686692
1735.54	0.055942
1718.18	0.0821454
1700.82	0.125286
1683.46	0.17721
1666.1	0.187547
1648.74	0.235297
1631.38	0.195198
1614.02	0.188407
1596.66	0.241437
1579.3	0.289038
1561.94	0.338931
1544.58	0.359477
1527.22	0.406622
1509.86	0.357329
1492.5	0.389345
1475.14	0.275852
1457.78	0.319085
1440.42	0.344143
1423.06	0.405309
1405.7	0.444769
1388.34	0.440825
1370.98	0.407733
1353.62	0.46069
1336.27	0.43786
1318.91	0.403005
1301.55	0.426525
1284.19	0.429043
1266.83	0.4102
1249.47	0.313468
1232.11	0.46077
1214.75	0.460713
1197.39	0.450021
1180.03	0.453066
1162.67	0.287368
1145.31	0.40008
1127.95	0.383972
1110.59	0.343585
1093.23	0.326353
1075.87	0.323355
1058.51	0.279426
1041.15	0.142261
1023.79	0.151914
1006.43	0.302808
989.069	0.219458
971.709	0.329088
954.349	0.35152
936.989	0.37701
919.63	0.398108
902.27	0.394044
884.91	0.425159
867.55	0.388912
850.19	0.409534
832.831	0.393471
815.471	0.414446
798.111	0.36066
780.751	0.38467
763.391	0.457902
746.032	0.272957
728.672	0.457755
711.312	0.431022
693.952	0.364206
676.592	0.345891
659.232	0.0977119
641.873	0.338954
624.513	0.45875
607.153	0.531791
