Infrared Spectrum: 2,5-Dimethylthiophene
Formula: C 6 H 8 S
CAS: 638-02-8
State: gas
Instrument: HP-GC/MS/IRD
Origin: NIST Mass Spectrometry Data Center
1/CM	ABSORBANCE
550	0.0002327
562	0.000169
574	7.02e-05
586	1.95e-05
598	4.42e-05
610	4.16e-05
622	2.21e-05
634	0.0001274
646	0.0003484
658	0.0005655
670	0.0003835
682	0.0004251
694	0.0002951
706	0.0002678
718	0.0002327
730	0.0001703
742	0.0002275
754	0.0006981
766	0.0030355
778	0.0062491
790	0.013
802	0.0063869
814	0.002626
826	0.0005434
838	0.0002327
850	0.0001326
862	0.0001105
874	6.89e-05
886	8.97e-05
898	0.0001222
910	0.000182
922	0.0003263
934	0.0007124
946	0.0009308
958	0.0008983
970	0.000468
982	0.000338
994	0.0002509
1006	0.0002808
1018	0.0004914
1030	0.0009867
1042	0.0012935
1054	0.0010361
1066	0.0005694
1078	0.0002379
1090	0.0002366
1102	0.000312
1114	0.0004888
1126	0.0007826
1138	0.0016328
1150	0.0021372
1162	0.0023946
1174	0.0019747
1186	0.0015535
1198	0.0008476
1210	0.000702
1222	0.0028834
1234	0.0036244
1246	0.0023049
1258	0.000507
1270	0.0003367
1282	0.0003146
1294	0.0003835
1306	0.0005135
1318	0.0007358
1330	0.0008528
1342	0.0008658
1354	0.0007527
1366	0.0007241
1378	0.00078
1390	0.0007345
1402	0.0006539
1414	0.0007423
1426	0.0011297
1438	0.001755
1450	0.0025961
1462	0.0025337
1474	0.002405
1486	0.002002
1498	0.0015743
1510	0.0010517
1522	0.0008775
1534	0.0009503
1546	0.0011128
1558	0.0012714
1570	0.0013494
1582	0.0011063
1594	0.0006617
1606	0.0003757
1618	0.0002769
1630	0.0003029
1642	0.0002834
1654	0.0001742
1666	0.0001209
1678	0.0001222
1690	0.0002925
1702	0.0006812
1714	0.0007189
1726	0.0006136
1738	0.0001911
1750	6.5e-05
1762	1.43e-05
1774	9.1e-06
1786	3.64e-05
1798	5.59e-05
1810	9.49e-05
1822	7.28e-05
1834	6.11e-05
1846	6.11e-05
1858	5.85e-05
1870	6.24e-05
1882	9.23e-05
1894	7.02e-05
1906	3.77e-05
1918	2.73e-05
1930	1.3e-05
1942	3.9e-06
1954	3.9e-06
1966	2.73e-05
1978	2.47e-05
1990	2.86e-05
2002	2.08e-05
2014	3.51e-05
2026	4.81e-05
2038	7.41e-05
2050	5.33e-05
2062	4.03e-05
2074	5.07e-05
2086	6.5e-05
2098	7.02e-05
2110	4.03e-05
2122	1.95e-05
2134	3.64e-05
2146	3.9e-05
2158	3.12e-05
2170	2.08e-05
2182	5.2e-06
2194	1.17e-05
2206	2.73e-05
2218	0
2230	2.47e-05
2242	2.34e-05
2254	2.47e-05
2266	5.33e-05
2278	8.32e-05
2290	5.98e-05
2302	7.41e-05
2314	7.8e-05
2326	0.0001157
2338	0.0001118
2350	6.63e-05
2362	4.94e-05
2374	4.29e-05
2386	5.2e-05
2398	5.98e-05
2410	7.54e-05
2422	7.67e-05
2434	7.54e-05
2446	6.63e-05
2458	7.8e-05
2470	8.06e-05
2482	8.45e-05
2494	7.8e-05
2506	5.33e-05
2518	9.75e-05
2530	0.0001339
2542	0.0001066
2554	8.45e-05
2566	9.75e-05
2578	2.99e-05
2590	3.25e-05
2602	2.34e-05
2614	4.42e-05
2626	2.34e-05
2638	3.12e-05
2650	3.51e-05
2662	2.73e-05
2674	2.34e-05
2686	4.55e-05
2698	7.41e-05
2710	6.63e-05
2722	0.0001365
2734	0.0003419
2746	0.0006188
2758	0.0004849
2770	0.0001859
2782	0.0001794
2794	0.00026
2806	0.0003081
2818	0.0004836
2830	0.0007072
2842	0.001183
2854	0.002314
2866	0.0045643
2878	0.006149
2890	0.0057304
2902	0.004511
2914	0.0056758
2926	0.0108355
2938	0.0114192
2950	0.0071097
2962	0.0052611
2974	0.0047593
2986	0.003848
2998	0.0026351
3010	0.002249
3022	0.0023816
3034	0.002678
3046	0.0029003
3058	0.0037661
3070	0.0045578
3082	0.003874
3094	0.0016458
3106	0.0008203
3118	0.000585
3130	0.0003107
3142	0.0001755
3154	6.63e-05
3166	1.69e-05
3178	4.29e-05
3190	4.42e-05
3202	3.38e-05
3214	4.68e-05
3226	8.84e-05
3238	8.19e-05
3250	0.000104
3262	7.54e-05
3274	4.29e-05
3286	2.6e-05
3298	4.42e-05
3310	9.1e-05
3322	7.54e-05
3334	8.32e-05
3346	4.29e-05
3358	9.1e-06
3370	7.28e-05
3382	5.46e-05
3394	5.33e-05
3406	3.64e-05
3418	4.03e-05
3430	6.37e-05
3442	3.9e-05
3454	0.0001014
3466	6.76e-05
3478	6.76e-05
3490	1.82e-05
3502	5.72e-05
3514	7.54e-05
3526	5.85e-05
3538	4.42e-05
3550	7.15e-05
3562	8.58e-05
3574	9.49e-05
3586	5.2e-05
3598	0.0001053
3610	0.0001066
3622	8.58e-05
3634	6.89e-05
3646	9.62e-05
3658	3.51e-05
3670	0.0001274
3682	9.49e-05
3694	0.0001105
3706	0.0001027
3718	6.89e-05
3730	8.71e-05
3742	8.32e-05
3754	9.62e-05
3766	0.0001365
3778	0.0001365
3790	0.000221
3802	0.0002314
3814	0.0002535
3826	0.0001963
3838	0.0001131
