Infrared Spectrum: 3-Pentanol formate
Formula: C 6 H 12 O 2
CAS: 638-49-3
State: gas
Instrument: HP-GC/MS/IRD
Origin: NIST Mass Spectrometry Data Center
1/CM	ABSORBANCE
550	0.0004774
562	0.0002198
574	0.000392
586	0.0003374
598	0.0002982
610	0.0002492
622	0.0002618
634	0.0001932
646	5.32e-05
658	4.9e-05
670	8.26e-05
682	0.0001204
694	0.0001652
706	6.72e-05
718	9.1e-05
730	0.0001372
742	0.0001876
754	0.000203
766	0.0002212
778	0.0002674
790	0.0004256
802	0.0005712
814	0.0006832
826	0.0005824
838	0.0003948
850	0.000315
862	0.0002702
874	0.0002198
886	0.000224
898	0.0003822
910	0.0007728
922	0.0017206
934	0.0029904
946	0.0033306
958	0.0023478
970	0.0010654
982	0.0006734
994	0.0008078
1006	0.0011228
1018	0.0013216
1030	0.0011956
1042	0.0009254
1054	0.0008386
1066	0.0009198
1078	0.0013916
1090	0.0020622
1102	0.003108
1114	0.0037352
1126	0.0038192
1138	0.003031
1150	0.0031248
1162	0.0033628
1174	0.0029694
1186	0.0020748
1198	0.0011816
1210	0.0007588
1222	0.0006622
1234	0.0006846
1246	0.000728
1258	0.0007644
1270	0.0007126
1282	0.000679
1294	0.0007952
1306	0.0011074
1318	0.0016968
1330	0.002541
1342	0.0035238
1354	0.003738
1366	0.0030898
1378	0.0023674
1390	0.0023184
1402	0.0022162
1414	0.002338
1426	0.0025928
1438	0.0027496
1450	0.0030674
1462	0.003199
1474	0.0027188
1486	0.00168
1498	0.0009884
1510	0.0006902
1522	0.0005152
1534	0.0004214
1546	0.000343
1558	0.0003388
1570	0.0002576
1582	0.0002688
1594	0.0002758
1606	0.0003122
1618	0.0003528
1630	0.0003752
1642	0.0004368
1654	0.0005586
1666	0.0007392
1678	0.0012852
1690	0.0026446
1702	0.005733
1714	0.0106106
1726	0.0138292
1738	0.013265
1750	0.0083272
1762	0.0034118
1774	0.0013384
1786	0.0006426
1798	0.0004186
1810	0.000308
1822	0.0002254
1834	0.000175
1846	0.0001554
1858	0.0001232
1870	0.000133
1882	0.0001386
1894	0.0001148
1906	0.0001344
1918	0.0001134
1930	0.0001344
1942	0.0001358
1954	9.1e-05
1966	0.0001302
1978	9.8e-05
1990	0.0001064
2002	9.24e-05
2014	8.26e-05
2026	7.7e-05
2038	9.94e-05
2050	7e-05
2062	7.84e-05
2074	6.58e-05
2086	7.7e-05
2098	7.56e-05
2110	9.94e-05
2122	5.6e-05
2134	9.52e-05
2146	8.26e-05
2158	5.32e-05
2170	8.26e-05
2182	4.2e-05
2194	6.86e-05
2206	7.42e-05
2218	4.48e-05
2230	5.04e-05
2242	4.62e-05
2254	3.08e-05
2266	7.42e-05
2278	5.32e-05
2290	6.02e-05
2302	7.84e-05
2314	7.84e-05
2326	0.0001176
2338	0.0001134
2350	0.0001134
2362	0.0001008
2374	7e-05
2386	9.1e-05
2398	8.82e-05
2410	6.16e-05
2422	7e-05
2434	4.9e-05
2446	9.94e-05
2458	8.68e-05
2470	7.7e-05
2482	7.98e-05
2494	7e-05
2506	5.6e-05
2518	8.4e-06
2530	1.82e-05
2542	4.34e-05
2554	4.9e-05
2566	3.5e-05
2578	5.32e-05
2590	2.52e-05
2602	4.2e-05
2614	6.3e-05
2626	3.64e-05
2638	4.06e-05
2650	3.5e-05
2662	7.56e-05
2674	7.98e-05
2686	0.0001106
2698	0.0001288
2710	0.0001176
2722	0.0001498
2734	0.0001988
2746	0.0002366
2758	0.0002828
2770	0.0002674
2782	0.0003248
2794	0.0004396
2806	0.0005992
2818	0.0007518
2830	0.000952
2842	0.0010934
2854	0.0013818
2866	0.0019656
2878	0.0032186
2890	0.0047978
2902	0.0061558
2914	0.0065884
2926	0.0067382
2938	0.007707
2950	0.0082096
2962	0.0087892
2974	0.0095536
2986	0.010024
2998	0.0077868
3010	0.0043106
3022	0.0024178
3034	0.0014602
3046	0.0009828
3058	0.000707
3070	0.0005446
3082	0.0004956
3094	0.0004242
3106	0.0003878
3118	0.0003724
3130	0.0002576
3142	0.0002968
3154	0.0002646
3166	0.0002394
3178	0.0002198
3190	0.0002044
3202	0.0001302
3214	0.000119
3226	0.0001288
3238	5.6e-05
3250	6.44e-05
3262	9.1e-05
3274	4.62e-05
3286	4.76e-05
3298	7.14e-05
3310	4.2e-06
3322	8.96e-05
3334	9.1e-05
3346	6.86e-05
3358	5.04e-05
3370	7.42e-05
3382	0.0001078
3394	0.0001106
3406	0.0001932
3418	0.000259
3430	0.0003402
3442	0.000336
3454	0.0002772
3466	0.0002338
3478	0.0001596
3490	0.0001428
3502	3.5e-05
3514	4.48e-05
3526	5.32e-05
3538	5.18e-05
3550	7.84e-05
3562	6.3e-05
3574	8.96e-05
3586	2.8e-05
3598	9.1e-05
3610	9.38e-05
3622	3.5e-05
3634	6.44e-05
3646	8.68e-05
3658	5.04e-05
3670	7.98e-05
3682	9.24e-05
3694	8.12e-05
3706	9.8e-05
3718	5.74e-05
3730	5.88e-05
3742	6.3e-05
3754	2.52e-05
3766	0.0001022
3778	2.1e-05
3790	9.8e-06
3802	0.0001232
3814	0.0001148
3826	8.54e-05
3838	0.0001008
