Infrared Spectrum: Dodecyl-3-mercaptopropionate
Formula: C 15 H 30 O 2 S
CAS: 6380-71-8
State: gas
Origin: EPA-IR VAPOR PHASE LIBRARY
1/CM	ABSORBANCE
549.8	0.0004935
559.445	0.0002685
569.09	0.0004544
578.734	0.0010918
588.379	0.0012318
598.024	0.0011418
607.669	0.0010518
617.313	0.0009465
626.958	0.0010365
636.603	0.0011618
646.248	0.0014818
655.893	0.0016618
665.537	0.0023618
675.182	0.0030718
684.827	0.0021018
694.472	0.0016318
704.116	0.0021918
713.761	0.0031318
723.406	0.0036918
733.051	0.0032618
742.695	0.0025318
752.34	0.0024318
761.985	0.0027518
771.63	0.0026718
781.275	0.0024318
790.919	0.0021718
800.564	0.0020818
810.209	0.0018218
819.854	0.0019618
829.498	0.0020518
839.143	0.0023818
848.788	0.0024418
858.433	0.0028918
868.078	0.0031518
877.722	0.0033218
887.367	0.0036518
897.012	0.0040618
906.657	0.0041918
916.301	0.0042618
925.946	0.0046318
935.591	0.0052818
945.236	0.0060318
954.88	0.0069518
964.525	0.0079018
974.17	0.0085518
983.815	0.0094518
993.46	0.0106518
1003.1	0.0125418
1012.75	0.0134318
1022.39	0.0133018
1032.04	0.0127518
1041.68	0.0138418
1051.33	0.0148318
1060.97	0.0134818
1070.62	0.0105818
1080.26	0.0085818
1089.91	0.0074218
1099.55	0.0074218
1109.2	0.0095218
1118.84	0.0136118
1128.49	0.0212918
1138.13	0.0325718
1147.78	0.0501018
1157.42	0.0651418
1167.07	0.0612818
1176.71	0.0503418
1186.36	0.0468518
1196	0.0496818
1205.64	0.0488118
1215.29	0.0479518
1224.93	0.0498718
1234.58	0.0480718
1244.22	0.0437218
1253.87	0.0374018
1263.51	0.0275118
1273.16	0.0211018
1282.8	0.0185418
1292.45	0.0179718
1302.09	0.0170418
1311.74	0.0141618
1321.38	0.0149318
1331.03	0.0201918
1340.67	0.0262018
1350.32	0.0307618
1359.96	0.0232318
1369.61	0.0140918
1379.25	0.0118118
1388.9	0.0126618
1398.54	0.0093518
1408.18	0.0077218
1417.83	0.0090118
1427.47	0.0116818
1437.12	0.0132418
1446.76	0.0145218
1456.41	0.0179018
1466.05	0.0183918
1475.7	0.0118218
1485.34	0.0061218
1494.99	0.0037418
1504.63	0.0027718
1514.28	0.0022718
1523.92	0.0019418
1533.57	0.0015518
1543.21	0.0014018
1552.86	0.0013318
1562.5	0.0012118
1572.15	0.0011418
1581.79	0.0012018
1591.44	0.0011618
1601.08	0.0011918
1610.73	0.0011418
1620.37	0.0012018
1630.01	0.0011118
1639.66	0.0012018
1649.3	0.0013518
1658.95	0.0015518
1668.59	0.0018218
1678.24	0.0020918
1687.88	0.0027718
1697.53	0.0040118
1707.17	0.0065518
1716.82	0.0104518
1726.46	0.0177418
1736.11	0.0346818
1745.75	0.0714218
1755.4	0.0976218
1765.04	0.0518818
1774.69	0.0226718
1784.33	0.0113618
1793.98	0.0063818
1803.62	0.0040018
1813.27	0.0026918
1822.91	0.0020918
1832.55	0.0016518
1842.2	0.0014318
1851.84	0.0012818
1861.49	0.0011718
1871.13	0.0011318
1880.78	0.0010366
1890.42	0.0009576
1900.07	0.0008697
1909.71	0.0009071
1919.36	0.0008848
1929	0.0008748
1938.65	0.0008617
1948.29	0.0008114
1957.94	0.0008829
1967.58	0.0008173
1977.23	0.0009164
1986.87	0.0009094
1996.52	0.0009173
2006.16	0.0009942
2015.81	0.001009
2025.45	0.0010518
2035.1	0.0010718
2044.74	0.0009666
2054.38	0.0010918
2064.03	0.0009809
2073.67	0.0009239
2083.32	0.0009099
2092.96	0.00087
2102.61	0.0008813
2112.25	0.0007881
2121.9	0.0007147
2131.54	0.000758
2141.19	0.0006334
2150.83	0.0006893
2160.48	0.0006684
2170.12	0.0006619
2179.77	0.0006604
2189.41	0.0006265
2199.06	0.0006613
2208.7	0.0006486
2218.35	0.0006544
2227.99	0.0006084
2237.64	0.0006374
2247.28	0.0006422
2256.92	0.0005521
2266.57	0.0006506
2276.21	0.0006845
2285.86	0.0006291
2295.5	0.0007319
2305.15	0.0007036
2314.79	0.0006112
2324.44	0.0007267
2334.08	0.0006719
2343.73	0.0006801
2353.37	0.0006874
2363.02	0.0006862
2372.66	0.0006194
2382.31	0.0006883
2391.95	0.0006803
2401.6	0.0006482
2411.24	0.0006125
2420.89	0.0007067
2430.53	0.0006395
2440.18	0.0006511
2449.82	0.0006167
2459.47	0.0006427
2469.11	0.0005448
2478.75	0.0006031
2488.4	0.0006267
2498.04	0.0007032
2507.69	0.0006888
2517.33	0.0007753
2526.98	0.0006938
2536.62	0.0007815
2546.27	0.0008573
2555.91	0.0008974
2565.56	0.0009833
2575.2	0.0012218
2584.85	0.0014218
2594.49	0.0017018
2604.14	0.0015018
2613.78	0.0014118
2623.43	0.0014718
2633.07	0.0014518
2642.72	0.0017018
2652.36	0.0017618
2662.01	0.0018818
2671.65	0.0020118
2681.29	0.0021818
2690.94	0.0020618
2700.58	0.0021918
2710.23	0.0020218
2719.87	0.0019618
2729.52	0.0021718
2739.16	0.0023718
2748.81	0.0024318
2758.45	0.0026118
2768.1	0.0028618
2777.74	0.0031318
2787.39	0.0036118
2797.03	0.0043318
2806.68	0.0052618
2816.32	0.0067018
2825.97	0.0089818
2835.61	0.0125118
2845.26	0.0216118
2854.9	0.0466518
2864.55	0.0696718
2874.19	0.0521618
2883.84	0.0408418
2893.48	0.0389418
2903.12	0.0512618
2912.77	0.0772818
2922.41	0.127402
2932.06	0.188302
2941.7	0.154832
2951.35	0.0972018
2960.99	0.0768818
2970.64	0.0650318
2980.28	0.0379018
2989.93	0.0234818
2999.57	0.0144418
3009.22	0.0094918
3018.86	0.0065518
3028.51	0.0050718
3038.15	0.0040718
3047.8	0.0033418
3057.44	0.0028418
3067.09	0.0024418
3076.73	0.0020318
3086.38	0.0018218
3096.02	0.0016718
3105.67	0.0015018
3115.31	0.0012118
3124.95	0.0011918
3134.6	0.0011218
3144.24	0.0010024
3153.89	0.0008687
3163.53	0.0009723
3173.18	0.0006737
3182.82	0.0006411
3192.47	0.0006358
3202.11	0.0007221
3211.76	0.0004359
3221.4	0.0005364
3231.05	0.0005488
3240.69	0.000467
3250.34	0.0003906
3259.98	0.0001777
3269.63	0.0002875
3279.27	0.0003302
3288.92	0.0002523
3298.56	7.651e-05
3308.21	0.000222
3317.85	0.00011951
3327.49	0.0002586
3337.14	0.000311
3346.78	0.0001922
3356.43	0.0002903
3366.07	0.0003758
3375.72	0.0002584
3385.36	0.0004322
3395.01	0.0001968
3404.65	0.0004002
3414.3	0.000219
3423.94	0.0002935
3433.59	0.0002598
3443.23	0.0003932
3452.88	0.0002854
3462.52	0.0003788
3472.17	0.0007031
3481.81	0.0009369
3491.46	0.0008928
3501.1	0.0006505
3510.75	0.0004176
3520.39	0.0003751
3530.04	0.0003513
3539.68	0.00011407
3549.32	0.0001596
3558.97	0.0001295
3568.61	8.952e-05
3578.26	0.0003164
3587.9	0.0001737
3597.55	0.0003574
3607.19	0.0002053
3616.84	0.0004165
3626.48	0.00013493
3636.13	0.0004351
3645.77	0.0002194
3655.42	0.0003122
3665.06	0.0003344
3674.71	0.000382
3684.35	0.0004765
3694	0.0002056
3703.64	0.0001562
3713.29	0.0003354
3722.93	0.0003935
3732.58	8.49e-05
3742.22	0.0002803
3751.86	0.000117
3761.51	0.0003611
3771.15	0.0003304
3780.8	0.0002275
3790.44	0.000288
3800.09	0.0001632
3809.73	0.0001845
3819.38	0.0001952
3829.02	0.0002336
3838.67	0.0003477
3848.31	0.0002885
3857.96	0.0002395
3867.6	0.0003322
3877.25	0.0005061
3886.89	0.0003289
3896.54	0.0002007
3906.18	0.0003671
3915.83	0.0002787
3925.47	0.0004032
3935.12	0.0004367
3944.76	0.0003991
3954.41	0.0004988
3964.05	0.0003572
3973.69	0.0003133
3983.34	0.0004373
3992.98	0.0004664
