Infrared Spectrum: Arsine, diiodophenyl-
Formula: C6 H5 As I2
CAS: 6380-34-3
State: LIQUID (NEAT)
Boiling point: 183 C AT 5 mmHg
Class: COBLENTZ III
Instrument: DOW KBr FOREPRISM-GRATING
Instrument parameters: BLAZED AT 3.5, 12.0, 20.0 MICRON AND CHANGED AT 5.0, 7.5, 14.9 MICRON
Sampling: TRANSMISSION
Path length: CAPILLARY
Resolution: 2
Origin: DOW CHEMICAL COMPANY
1/CM	TRANSMITTANCE
3800	0.7722
3791	0.7783
3782	0.7765
3773	0.7751
3764	0.775
3755	0.7755
3746	0.7792
3737	0.7839
3728	0.7848
3719	0.7828
3710	0.7794
3701	0.7764
3692	0.7741
3683	0.7725
3674	0.7751
3665	0.7787
3656	0.7786
3647	0.7801
3638	0.781
3629	0.7787
3620	0.7792
3611	0.7769
3602	0.7781
3593	0.7793
3584	0.7789
3575	0.7785
3566	0.7769
3557	0.7754
3548	0.7739
3539	0.773
3530	0.7721
3521	0.7712
3512	0.7711
3503	0.7711
3494	0.7712
3485	0.7715
3476	0.7719
3467	0.7725
3458	0.773
3449	0.7734
3440	0.7738
3431	0.7741
3422	0.7745
3413	0.7748
3404	0.7754
3395	0.7758
3386	0.7764
3377	0.7768
3368	0.7774
3359	0.778
3350	0.7786
3341	0.7792
3332	0.7799
3323	0.7805
3314	0.7811
3305	0.7815
3296	0.7819
3287	0.7824
3278	0.7828
3269	0.7832
3260	0.7841
3251	0.7851
3242	0.7862
3233	0.7872
3224	0.7885
3215	0.7895
3206	0.7906
3197	0.7915
3188	0.7922
3179	0.793
3170	0.7918
3161	0.7885
3152	0.7865
3143	0.7861
3134	0.7875
3125	0.7882
3116	0.788
3107	0.7874
3098	0.7861
3089	0.7793
3080	0.7144
3071	0.6412
3062	0.6643
3053	0.6231
3044	0.7085
3035	0.7526
3026	0.756
3017	0.7584
3008	0.7568
2999	0.7554
2990	0.7625
2981	0.7737
2972	0.78
2963	0.7798
2954	0.7792
2945	0.7785
2936	0.778
2927	0.7776
2918	0.7778
2909	0.7801
2900	0.7893
2891	0.7892
2882	0.7882
2873	0.7861
2864	0.7853
2855	0.7875
2846	0.7904
2837	0.793
2828	0.7948
2819	0.7964
2810	0.7978
2801	0.7993
2792	0.8
2783	0.8005
2774	0.8008
2765	0.8011
2756	0.8014
2747	0.8015
2738	0.8021
2729	0.8037
2720	0.8054
2711	0.8071
2702	0.8088
2693	0.8099
2684	0.8111
2675	0.8111
2666	0.8101
2657	0.806
2648	0.8034
2639	0.8025
2630	0.8058
2621	0.8096
2612	0.8103
2603	0.8078
2594	0.8087
2585	0.8158
2576	0.8154
2567	0.8145
2558	0.8155
2549	0.8168
2540	0.8184
2531	0.8206
2522	0.8234
2513	0.8248
2504	0.8261
2495	0.827
2486	0.8277
2477	0.8282
2468	0.8285
2459	0.8285
2450	0.8286
2441	0.8287
2432	0.8289
2423	0.829
2414	0.8295
2405	0.8301
2396	0.8307
2387	0.8318
2378	0.8328
2369	0.8339
2360	0.8351
2351	0.8371
2342	0.8388
2333	0.8396
2324	0.8333
2315	0.8239
2306	0.8278
2297	0.8299
2288	0.8309
2279	0.8314
2270	0.832
2261	0.8325
2252	0.834
2243	0.8358
2234	0.8378
2225	0.8398
2216	0.8414
2207	0.8425
2198	0.8432
2189	0.8439
2180	0.8448
2171	0.8457
2162	0.8456
2153	0.8418
2144	0.8395
2135	0.839
2126	0.8438
2117	0.8459
2108	0.8441
2099	0.8407
2090	0.8394
2081	0.8421
2072	0.8436
2063	0.8439
2054	0.8441
2045	0.8443
2036	0.8448
2027	0.8451
2018	0.845
2009	0.8447
2000	0.8436
1991	0.8381
1982	0.8311
1973	0.8214
1964	0.8158
1955	0.8095
1946	0.8057
1937	0.8246
1928	0.8371
1919	0.8404
1910	0.8388
1901	0.8266
1892	0.8181
1883	0.8237
1874	0.8034
1865	0.8214
1856	0.8387
1847	0.8463
1838	0.8434
1829	0.837
1820	0.8346
1811	0.831
1802	0.8191
1793	0.828
1784	0.8459
1775	0.8433
1766	0.8397
1757	0.8368
1748	0.8342
1739	0.8374
1730	0.8425
1721	0.848
1712	0.8505
1703	0.8517
1694	0.8517
1685	0.8511
1676	0.8507
1667	0.8478
1658	0.8388
1649	0.8309
1640	0.8409
1631	0.8518
1622	0.8559
1613	0.8554
1604	0.8543
1595	0.8525
1586	0.8355
1577	0.7853
1568	0.826
1559	0.8461
1550	0.8544
1541	0.8557
1532	0.8518
1523	0.852
1514	0.8589
1505	0.8617
1496	0.8603
1487	0.8466
1478	0.6199
1469	0.8451
1460	0.8474
1451	0.8431
1442	0.8105
1433	0.5387
1424	0.8126
1415	0.8547
1406	0.8655
1397	0.863
1388	0.8375
1379	0.8308
1370	0.8389
1361	0.8528
1352	0.8648
1343	0.8678
1334	0.7205
1325	0.7691
1316	0.8298
1307	0.7958
1298	0.7815
1289	0.8381
1280	0.8387
1271	0.8286
1262	0.8371
1253	0.8478
1244	0.8559
1235	0.8639
1226	0.8616
1217	0.8581
1208	0.8604
1199	0.8549
1190	0.8224
1181	0.7419
1172	0.8407
1163	0.8258
1154	0.8192
1145	0.843
1136	0.8463
1127	0.85
1118	0.8525
1109	0.8502
1100	0.8339
1091	0.7956
1082	0.8045
1073	0.6508
1064	0.466
1055	0.7778
1046	0.822
1037	0.8347
1028	0.8321
1019	0.8045
1010	0.8393
1001	0.6528
992	0.8189
983	0.8247
974	0.8427
965	0.8286
956	0.8432
947	0.8527
938	0.8533
929	0.8534
920	0.8488
911	0.804
902	0.8398
893	0.8462
884	0.8475
875	0.8486
866	0.8504
857	0.8507
848	0.8368
839	0.8115
830	0.8361
821	0.8407
812	0.8321
803	0.8193
794	0.8058
785	0.781
776	0.7619
767	0.7498
758	0.7254
749	0.6168
740	0.2912
731	0.1743
722	0.6739
713	0.7275
704	0.6524
695	0.4353
686	0.208
677	0.6485
668	0.6882
659	0.7647
650	0.7871
641	0.8001
632	0.8072
623	0.8089
614	0.8005
605	0.8115
596	0.8071
587	0.8
578	0.7935
569	0.7871
560	0.7843
551	0.7838
542	0.7844
533	0.7818
524	0.7799
515	0.7794
506	0.7775
497	0.7737
488	0.7632
479	0.7457
470	0.7218
461	0.5828
