Infrared Spectrum: p-t-Amylphenoxyethanol
Formula: C 13 H 20 O 2
CAS: 6382-07-6
State: gas
Instrument: HP-GC/MS/IRD
Origin: NIST Mass Spectrometry Data Center
1/CM	ABSORBANCE
550	0.0011622
562	0.0022828
574	0.0015184
586	0.0007878
598	0.0003068
610	0.000182
622	0.0001794
634	0.0003198
646	0.000416
658	0.0007228
670	0.000884
682	0.000325
694	0.0001118
706	5.2e-06
718	9.36e-05
730	0.0001898
742	0.0001768
754	0.0003692
766	0.0010218
778	0.0016822
790	0.0012766
802	0.0014222
814	0.0022542
826	0.0050154
838	0.0042822
850	0.001989
862	0.0016172
874	0.0017836
886	0.0022334
898	0.0031616
910	0.003653
922	0.002418
934	0.0013754
946	0.000949
958	0.0007774
970	0.0009724
982	0.0012636
994	0.002184
1006	0.0049218
1018	0.006799
1030	0.0115518
1042	0.0146978
1054	0.0096642
1066	0.006721
1078	0.0062972
1090	0.0051584
1102	0.0036504
1114	0.0027482
1126	0.001989
1138	0.0016484
1150	0.0018408
1162	0.0030108
1174	0.008918
1186	0.013169
1198	0.0055094
1210	0.006773
1222	0.0126204
1234	0.0205218
1246	0.0251498
1258	0.0146588
1270	0.008983
1282	0.009074
1294	0.007722
1306	0.0056342
1318	0.0032058
1330	0.0027742
1342	0.0027456
1354	0.0031954
1366	0.0053144
1378	0.0052234
1390	0.0045786
1402	0.0029822
1414	0.0021866
1426	0.0017342
1438	0.001937
1450	0.0035152
1462	0.006643
1474	0.0056342
1486	0.006019
1498	0.0100984
1510	0.0228878
1522	0.0106496
1534	0.0025948
1546	0.0014638
1558	0.001352
1570	0.0016718
1582	0.0022542
1594	0.0033774
1606	0.0058214
1618	0.0035932
1630	0.0012688
1642	0.000715
1654	0.0005226
1666	0.000364
1678	0.0002678
1690	0.000221
1702	0.0002236
1714	0.0001872
1726	0.0002002
1738	0.0002496
1750	0.0003536
1762	0.00026
1774	0.0001846
1786	0.0001144
1798	0.0001144
1810	0.000143
1822	0.0001326
1834	0.0001638
1846	0.0002158
1858	0.0002834
1870	0.0003666
1882	0.0004394
1894	0.0003432
1906	0.0002392
1918	0.0001742
1930	0.0002002
1942	0.0002262
1954	0.0002366
1966	0.0001924
1978	0.000195
1990	0.0001924
2002	0.000195
2014	0.0002522
2026	0.00026
2038	0.0002808
2050	0.000273
2062	0.0003042
2074	0.0002886
2086	0.0003094
2098	0.0002626
2110	0.0001898
2122	0.000156
2134	0.00013
2146	0.0001118
2158	8.58e-05
2170	6.24e-05
2182	1.56e-05
2194	4.94e-05
2206	5.2e-06
2218	2.86e-05
2230	4.68e-05
2242	4.68e-05
2254	4.68e-05
2266	7.8e-05
2278	8.58e-05
2290	0.0001222
2302	0.000117
2314	0.0001144
2326	7.8e-05
2338	9.1e-05
2350	7.8e-05
2362	9.88e-05
2374	0.0001222
2386	0.000143
2398	0.000182
2410	0.0001612
2422	0.0002002
2434	0.0001872
2446	0.0001768
2458	0.0001612
2470	0.0001534
2482	0.0001742
2494	0.0001664
2506	0.0001716
2518	0.0002132
2530	0.0002054
2542	0.0001716
2554	0.0001638
2566	0.000117
2578	0.0001222
2590	0.000104
2602	9.62e-05
2614	9.88e-05
2626	0.0001326
2638	0.000143
2650	0.0001248
2662	0.0001586
2674	0.0001768
2686	0.0002054
2698	0.0002522
2710	0.000351
2722	0.0004706
2734	0.0005486
2746	0.0004966
2758	0.0004914
2770	0.0005694
2782	0.0005902
2794	0.0006604
2806	0.0007904
2818	0.0010088
2830	0.0013936
2842	0.0019058
2854	0.0031694
2866	0.0063518
2878	0.0090766
2890	0.0101322
2902	0.0092482
2914	0.0111462
2926	0.0140296
2938	0.0150046
2950	0.0157248
2962	0.021567
2974	0.0250484
2986	0.0113854
2998	0.0040768
3010	0.0021814
3022	0.0016744
3034	0.0022646
3046	0.0033202
3058	0.0023166
3070	0.002002
3082	0.0016978
3094	0.0015834
3106	0.001352
3118	0.0008112
3130	0.000546
3142	0.0003822
3154	0.0002444
3166	0.0002184
3178	0.0001664
3190	0.0001118
3202	0.0002236
3214	0.0001612
3226	0.000169
3238	5.72e-05
3250	6.24e-05
3262	5.46e-05
3274	0.0001352
3286	7.02e-05
3298	7.8e-05
3310	0.00013
3322	8.06e-05
3334	4.42e-05
3346	3.12e-05
3358	4.94e-05
3370	5.46e-05
3382	4.16e-05
3394	4.94e-05
3406	4.94e-05
3418	4.42e-05
3430	0.0001222
3442	7.54e-05
3454	0.000143
3466	0.0001066
3478	0.0001066
3490	0.000104
3502	0.000117
3514	0.0001274
3526	8.58e-05
3538	0.0001638
3550	9.88e-05
3562	6.5e-05
3574	0.0002028
3586	0.0002158
3598	0.0002522
3610	0.0004368
3622	0.0007722
3634	0.0017498
3646	0.0018382
3658	0.0012506
3670	0.0012324
3682	0.0008658
3694	0.000481
3706	0.0002652
3718	0.0002236
3730	0.0001976
3742	0.0001846
3754	0.0001378
3766	0.0001378
3778	0.0001586
3790	0.000117
3802	0.000117
3814	0.0001508
3826	9.88e-05
3838	7.54e-05
