Infrared Spectrum: Silicic acid, tetrapentyl ester
Formula: C20 H44 O4 Si
CAS: 6382-12-3
State: SOLUTION (10% CCl4 FOR 3800-1330, 10% CS2 FOR 1330-400 CM^-^1) VS SOLVENT
Class: COBLENTZ III
Instrument: DOW KBr FOREPRISM-GRATING
Instrument parameters: BLAZED AT 3.5, 12.0, 20.0 MICRON AND CHANGED AT 5.0, 7.5, 14.9 MICRON
Sampling: TRANSMISSION
Path length: 0.011 CM, 0.010 CM
Resolution: 2
Origin: DOW CHEMICAL COMPANY
1/CM	TRANSMITTANCE
3806	0.8789
3797	0.8778
3788	0.8768
3779	0.8764
3770	0.876
3761	0.8761
3752	0.8762
3743	0.8761
3734	0.8759
3725	0.8757
3716	0.8756
3707	0.8756
3698	0.8752
3689	0.8747
3680	0.8742
3671	0.8736
3662	0.8693
3653	0.8512
3644	0.8459
3635	0.8514
3626	0.8602
3617	0.8668
3608	0.8721
3599	0.8747
3590	0.8754
3581	0.8724
3572	0.8699
3563	0.868
3554	0.8675
3545	0.8655
3536	0.8614
3527	0.8573
3518	0.855
3509	0.854
3500	0.8533
3491	0.8534
3482	0.8538
3473	0.8544
3464	0.8542
3455	0.8524
3446	0.8511
3437	0.8501
3428	0.8497
3419	0.8493
3410	0.849
3401	0.8486
3392	0.8483
3383	0.848
3374	0.8477
3365	0.8474
3356	0.8471
3347	0.8468
3338	0.8465
3329	0.847
3320	0.8481
3311	0.8491
3302	0.8498
3293	0.8504
3284	0.8507
3275	0.8509
3266	0.8511
3257	0.8509
3248	0.8506
3239	0.8503
3230	0.8501
3221	0.8498
3212	0.8489
3203	0.8478
3194	0.8471
3185	0.8465
3176	0.846
3167	0.8457
3158	0.8455
3149	0.8452
3140	0.8452
3131	0.8453
3122	0.8453
3113	0.8445
3104	0.8434
3095	0.8412
3086	0.8371
3077	0.8317
3068	0.8258
3059	0.8183
3050	0.8096
3041	0.798
3032	0.7834
3023	0.7653
3014	0.7439
3005	0.6738
2996	0.547
2987	0.4729
2978	0.3657
2969	0.1556
2960	0.0258
2951	0.0109
2942	0.0166
2933	0.0161
2924	0.011
2915	0.0102
2906	0.0439
2897	0.0922
2888	0.1274
2879	0.146
2870	0.0375
2861	0.0745
2852	0.0798
2843	0.1871
2834	0.5549
2825	0.6604
2816	0.7128
2807	0.7491
2798	0.7707
2789	0.7833
2780	0.7914
2771	0.7908
2762	0.7728
2753	0.7546
2744	0.7399
2735	0.7347
2726	0.7824
2717	0.8096
2708	0.8225
2699	0.8271
2690	0.829
2681	0.8289
2672	0.8251
2663	0.8275
2654	0.8384
2645	0.8478
2636	0.8516
2627	0.8542
2618	0.856
2609	0.8561
2600	0.8568
2591	0.8594
2582	0.8618
2573	0.8648
2564	0.8693
2555	0.8738
2546	0.8765
2537	0.8785
2528	0.88
2519	0.8804
2510	0.8809
2501	0.8813
2492	0.882
2483	0.8825
2474	0.8831
2465	0.8837
2456	0.8842
2447	0.8847
2438	0.8852
2429	0.8857
2420	0.8863
2411	0.8868
2402	0.8875
2393	0.888
2384	0.8875
2375	0.8868
2366	0.8861
2357	0.8856
2348	0.8851
2339	0.8845
2330	0.8844
2321	0.8847
2312	0.886
2303	0.8899
2294	0.8918
2285	0.8911
2276	0.8905
2267	0.8896
2258	0.8887
2249	0.8881
2240	0.8878
2231	0.8874
2222	0.8871
2213	0.8867
2204	0.8864
2195	0.886
2186	0.8857
2177	0.8857
2168	0.8858
2159	0.8856
2150	0.8855
2141	0.8854
2132	0.8853
2123	0.8851
2114	0.885
2105	0.8849
2096	0.8848
2087	0.8846
2078	0.8845
2069	0.8844
2060	0.8841
2051	0.883
2042	0.8821
2033	0.8818
2024	0.8811
2015	0.8805
2006	0.88
1997	0.8557
1988	0.858
1979	0.8571
1970	0.8502
1961	0.839
1952	0.8396
1943	0.8405
1934	0.8414
1925	0.8424
1916	0.8439
1907	0.8468
1898	0.8493
1889	0.851
1880	0.8525
1871	0.8538
1862	0.8552
1853	0.8566
1844	0.858
1835	0.8592
1826	0.8593
1817	0.8592
1808	0.859
1799	0.8586
1790	0.8544
1781	0.8464
1772	0.8404
1763	0.8395
1754	0.8395
1745	0.8395
1736	0.8396
1727	0.8398
1718	0.84
1709	0.8405
1700	0.8418
1691	0.8431
1682	0.8445
1673	0.8459
1664	0.8473
1655	0.8486
1646	0.8497
1637	0.8492
1628	0.8482
1619	0.8471
1610	0.8461
1601	0.8528
1592	0.8633
1583	0.8625
1574	0.8633
1565	0.8697
1556	0.8752
1547	0.877
1538	0.8731
1529	0.8586
1520	0.8437
1511	0.8282
1502	0.8094
1493	0.7778
1484	0.5351
1475	0.4926
1466	0.359
1457	0.3692
1448	0.5981
1439	0.6384
1430	0.7012
1421	0.754
1412	0.76
1403	0.7078
1394	0.4933
1385	0.4835
1376	0.6475
1367	0.7134
1358	0.7478
1349	0.76
1340	0.7464
1331	0.7354
1322	0.7182
1313	0.7036
1304	0.6619
1295	0.6262
1286	0.5935
1277	0.6433
1268	0.7069
1259	0.6976
1250	0.5293
1241	0.614
1232	0.6379
1223	0.5042
1214	0.5244
1205	0.6246
1196	0.6451
1187	0.6306
1178	0.5481
1169	0.4556
1160	0.3466
1151	0.2484
1142	0.2376
1133	0.1515
1124	0.0566
1115	0.0401
1106	0.0077
1097	0.0001
1088	0
1079	0.0473
1070	0.0585
1061	0.0807
1052	0.1046
1043	0.3359
1034	0.2099
1025	0.3167
1016	0.3386
1007	0.2158
998	0.4129
989	0.6407
980	0.6858
971	0.7105
962	0.7204
953	0.516
944	0.3527
935	0.4748
926	0.6107
917	0.6259
908	0.5441
899	0.5551
890	0.5812
881	0.5922
872	0.5268
863	0.3755
854	0.3466
845	0.3209
836	0.2533
827	0.3702
818	0.6008
809	0.7518
800	0.7618
791	0.7268
782	0.6915
773	0.5108
764	0.7107
755	0.7892
746	0.7247
737	0.6035
728	0.6875
719	0.8406
710	0.8887
701	0.9051
692	0.9075
683	0.9035
674	0.8945
665	0.8117
656	0.8151
647	0.8231
638	0.8286
629	0.8314
620	0.8291
611	0.8258
602	0.8223
593	0.8187
584	0.8151
575	0.8112
566	0.8072
557	0.8
548	0.7561
539	0.6661
530	0.6337
521	0.6278
512	0.6521
503	0.6843
494	0.7088
485	0.7161
476	0.7157
467	0.7036
458	0.6635
449	0.6133
440	0.599
431	0.5923
422	0.5879
413	0.5849
404	0.5837
395	0.5832
386	0.5832
