Infrared Spectrum: PHTHALDEHYDIC ACID OXIME
Formula: C8 H7 N O3
CAS: 6383-59-1
State: SOLID (MINERAL OIL MULL)
Class: COBLENTZ
Instrument: Not specified, most likely a prism, grating, or hybrid spectrometer.
Sampling: TRANSMISSION
Resolution: 4
Origin: DOW CHEMICAL COMPANY
MICROMETERS	TRANSMITTANCE
2.034	0.819
2.07502	0.821
2.11603	0.826
2.15705	0.831
2.19807	0.831
2.23908	0.829
2.2801	0.824
2.32112	0.823
2.36214	0.826
2.40315	0.836
2.44417	0.85
2.48519	0.863
2.5262	0.879
2.56722	0.877
2.60824	0.879
2.64925	0.886
2.69027	0.889
2.73129	0.884
2.77231	0.877
2.81332	0.86
2.85434	0.828
2.89536	0.77
2.93637	0.68
2.97739	0.574
3.01841	0.465
3.05942	0.408
3.10044	0.397
3.14146	0.406
3.18248	0.406
3.22349	0.38
3.26451	0.353
3.30553	0.355
3.34654	0.246
3.38756	0.079
3.42858	0.102
3.46959	0.154
3.51061	0.435
3.55163	0.539
3.59264	0.573
3.63366	0.602
3.67468	0.608
3.7157	0.596
3.75671	0.591
3.79773	0.624
3.83875	0.637
3.87976	0.646
3.92078	0.654
3.9618	0.658
4.00281	0.7
4.04383	0.724
4.08485	0.746
4.12587	0.767
4.16688	0.777
4.2079	0.787
4.24892	0.792
4.28993	0.823
4.33095	0.835
4.37197	0.846
4.41298	0.85
4.454	0.852
4.49502	0.853
4.53604	0.858
4.57705	0.865
4.61807	0.87
4.65909	0.867
4.7001	0.869
4.74112	0.869
4.78214	0.865
4.82315	0.862
4.86417	0.855
4.90519	0.853
4.9462	0.853
4.98722	0.852
5.02824	0.84
5.06926	0.829
5.11027	0.819
5.15129	0.818
5.19231	0.816
5.23332	0.835
5.27434	0.845
5.31536	0.85
5.35637	0.852
5.39739	0.855
5.43841	0.855
5.47943	0.857
5.52044	0.85
5.56146	0.816
5.60248	0.767
5.64349	0.756
5.68451	0.721
5.72553	0.663
5.76654	0.612
5.80756	0.527
5.84858	0.435
5.8896	0.311
5.93061	0.18
5.97163	0.311
6.01265	0.547
6.05366	0.687
6.09468	0.741
6.1357	0.758
6.17671	0.721
6.21773	0.615
6.25875	0.525
6.29976	0.46
6.34078	0.416
6.3818	0.437
6.42282	0.476
6.46383	0.508
6.50485	0.583
6.54587	0.632
6.58688	0.671
6.6279	0.675
6.66892	0.591
6.70993	0.579
6.75095	0.598
6.79197	0.401
6.83299	0.297
6.874	0.304
6.91502	0.408
6.95604	0.501
6.99705	0.518
7.03807	0.425
7.07909	0.45
7.1201	0.498
7.16112	0.448
7.20214	0.394
7.24316	0.379
7.28417	0.508
7.32519	0.59
7.36621	0.647
7.40722	0.671
7.44824	0.647
7.48926	0.552
7.53027	0.435
7.57129	0.326
7.61231	0.348
7.65333	0.442
7.69434	0.437
7.73536	0.358
7.77638	0.231
7.81739	0.178
7.85841	0.297
7.89943	0.372
7.94044	0.477
7.98146	0.579
8.02248	0.664
8.06349	0.702
8.10451	0.727
8.14553	0.744
8.18655	0.75
8.22756	0.698
8.26858	0.642
8.3096	0.736
8.35061	0.784
8.39163	0.804
8.43265	0.811
8.47366	0.818
8.51468	0.816
8.5557	0.806
8.59672	0.787
8.63773	0.729
8.67875	0.676
8.71977	0.709
8.76078	0.787
8.8018	0.814
8.84282	0.831
8.88383	0.836
8.92485	0.845
8.96587	0.848
9.00689	0.85
9.0479	0.855
9.08892	0.853
9.12994	0.843
9.17095	0.799
9.21197	0.77
9.25299	0.746
9.294	0.731
9.33502	0.795
9.37604	0.823
9.41705	0.829
9.45807	0.811
9.49909	0.785
9.54011	0.804
9.58112	0.809
9.62214	0.812
9.66316	0.819
9.70417	0.823
9.74519	0.821
9.78621	0.809
9.82722	0.797
9.86824	0.784
9.90926	0.772
9.95028	0.772
9.99129	0.772
10.0323	0.758
10.0733	0.743
10.1143	0.71
10.1554	0.596
10.1964	0.425
10.2374	0.321
10.2784	0.498
10.3194	0.646
10.3604	0.678
10.4015	0.668
10.4425	0.726
10.4835	0.773
10.5245	0.789
10.5655	0.797
10.6065	0.795
10.6476	0.784
10.6886	0.743
10.7296	0.678
10.7706	0.727
10.8116	0.78
10.8526	0.777
10.8937	0.763
10.9347	0.746
10.9757	0.734
11.0167	0.712
11.0577	0.704
11.0988	0.693
11.1398	0.688
11.1808	0.693
11.2218	0.702
11.2628	0.671
11.3038	0.646
11.3449	0.719
11.3859	0.761
11.4269	0.767
11.4679	0.784
11.5089	0.812
11.5499	0.824
11.591	0.836
11.632	0.833
11.673	0.799
11.714	0.734
11.755	0.741
11.796	0.809
11.8371	0.848
11.8781	0.86
11.9191	0.865
11.9601	0.87
12.0011	0.872
12.0421	0.874
12.0832	0.874
12.1242	0.867
12.1652	0.863
12.2062	0.853
12.2472	0.838
12.2882	0.787
12.3293	0.681
12.3703	0.622
12.4113	0.659
12.4523	0.731
12.4933	0.784
12.5343	0.801
12.5754	0.807
12.6164	0.795
12.6574	0.763
12.6984	0.76
12.7394	0.789
12.7804	0.807
12.8215	0.812
12.8625	0.812
12.9035	0.799
12.9445	0.775
12.9855	0.748
13.0265	0.714
13.0676	0.661
13.1086	0.595
13.1496	0.557
13.1906	0.564
13.2316	0.537
13.2727	0.467
13.3137	0.374
13.3547	0.309
13.3957	0.363
13.4367	0.506
13.4777	0.6
13.5188	0.639
13.5598	0.644
13.6008	0.641
13.6418	0.629
13.6828	0.624
13.7238	0.619
13.7649	0.615
13.8059	0.605
13.8469	0.596
13.8879	0.576
13.9289	0.556
13.9699	0.551
14.011	0.586
14.052	0.632
14.093	0.668
14.134	0.673
14.175	0.654
14.216	0.602
14.2571	0.554
14.2981	0.51
14.3391	0.486
14.3801	0.489
14.4211	0.506
14.4621	0.515
14.5032	0.523
14.5442	0.53
14.5852	0.547
14.6262	0.549
14.6672	0.522
14.7082	0.472
14.7493	0.437
14.7903	0.433
14.8313	0.476
14.8723	0.52
14.9133	0.547
14.9543	0.569
14.9954	0.578
15.0364	0.585
15.0774	0.579
15.1184	0.573
15.1594	0.568
15.2004	0.568
15.2415	0.556
15.2825	0.545
15.3235	0.528
15.3645	0.517
15.4055	0.498
15.4465	0.479
15.4876	0.474
15.5286	0.471
15.5696	0.465
15.6106	0.45
15.6516	0.428
15.6927	0.413
15.7337	0.411
15.7747	0.416
15.8157	0.42
15.8567	0.43
