Infrared Spectrum: 2,6-Diacetoacetamidopyridine
Formula: C13 H15 N3 O4
CAS: 63896-86-6
State: SOLID (SPLIT MULL)
Melting point: 130 C
Class: COBLENTZ III
Instrument: BECKMAN IR-9 (GRATING)
Instrument parameters: ORDER CHANGES: 670, 1200, 2000 CM^-^1
Sampling: TRANSMISSION
Resolution: 2
Origin: DOW CHEMICAL COMPANY
1/CM	TRANSMITTANCE
3800	0.7541
3791	0.7571
3782	0.7597
3773	0.7603
3764	0.7605
3755	0.7607
3746	0.761
3737	0.7614
3728	0.7624
3719	0.7635
3710	0.7653
3701	0.7671
3692	0.7692
3683	0.7708
3674	0.7724
3665	0.7739
3656	0.7755
3647	0.7768
3638	0.7784
3629	0.7797
3620	0.7811
3611	0.7825
3602	0.7839
3593	0.785
3584	0.7861
3575	0.7874
3566	0.7884
3557	0.7888
3548	0.7893
3539	0.7896
3530	0.7901
3521	0.7903
3512	0.7907
3503	0.7908
3494	0.7915
3485	0.7921
3476	0.7928
3467	0.7933
3458	0.7938
3449	0.7943
3440	0.7946
3431	0.7948
3422	0.7946
3413	0.7935
3404	0.7921
3395	0.7904
3386	0.7872
3377	0.7807
3368	0.7414
3359	0.625
3350	0.2926
3341	0.286
3332	0.4704
3323	0.5778
3314	0.6359
3305	0.6846
3296	0.6996
3287	0.6997
3278	0.6955
3269	0.6911
3260	0.6854
3251	0.6688
3242	0.6259
3233	0.5775
3224	0.5706
3215	0.6035
3206	0.6282
3197	0.6503
3188	0.6756
3179	0.6924
3170	0.7014
3161	0.6871
3152	0.6475
3143	0.6155
3134	0.5891
3125	0.5447
3116	0.521
3107	0.5053
3098	0.5317
3089	0.5655
3080	0.5905
3071	0.6139
3062	0.6352
3053	0.6592
3044	0.6687
3035	0.6383
3026	0.5526
3017	0.5603
3008	0.5872
2999	0.6246
2990	0.6512
2981	0.6561
2972	0.6714
2963	0.691
2954	0.6939
2945	0.6724
2936	0.6651
2927	0.6893
2918	0.7096
2909	0.7251
2900	0.7435
2891	0.7632
2882	0.7748
2873	0.7801
2864	0.7858
2855	0.7928
2846	0.8014
2837	0.8117
2828	0.8199
2819	0.8252
2810	0.8259
2801	0.8261
2792	0.8271
2783	0.8287
2774	0.8314
2765	0.8355
2756	0.8424
2747	0.8485
2738	0.8495
2729	0.8507
2720	0.8518
2711	0.853
2702	0.8547
2693	0.8563
2684	0.8585
2675	0.861
2666	0.8635
2657	0.8662
2648	0.8688
2639	0.8715
2630	0.8739
2621	0.8759
2612	0.878
2603	0.88
2594	0.8818
2585	0.883
2576	0.8842
2567	0.8853
2558	0.8861
2549	0.8868
2540	0.8874
2531	0.8875
2522	0.8868
2513	0.8856
2504	0.8846
2495	0.8838
2486	0.8848
2477	0.888
2468	0.8923
2459	0.8941
2450	0.893
2441	0.892
2432	0.8918
2423	0.891
2414	0.8902
2405	0.8911
2396	0.8928
2387	0.8983
2378	0.9037
2369	0.9071
2360	0.904
2351	0.9023
2342	0.9006
2333	0.9
2324	0.8999
2315	0.8997
2306	0.9
2297	0.901
2288	0.9021
2279	0.9033
2270	0.9062
2261	0.9094
2252	0.9132
2243	0.9171
2234	0.9207
2225	0.924
2216	0.9274
2207	0.9306
2198	0.9337
2189	0.9367
2180	0.9396
2171	0.9423
2162	0.9448
2153	0.9471
2144	0.9487
2135	0.95
2126	0.9511
2117	0.952
2108	0.9533
2099	0.9546
2090	0.9557
2081	0.9565
2072	0.9568
2063	0.9574
2054	0.9589
2045	0.96
2036	0.9625
2027	0.9645
2018	0.9651
2009	0.9668
2000	0.979
1991	0.9727
1982	0.965
1973	0.9765
1964	0.9644
1955	0.981
1946	0.9839
1937	0.9851
1928	0.9861
1919	0.9862
1910	0.9857
1901	0.9832
1892	0.9805
1883	0.9781
1874	0.9762
1865	0.9767
1856	0.9763
1847	0.975
1838	0.9735
1829	0.9692
1820	0.9633
1811	0.9534
1802	0.9397
1793	0.9237
1784	0.9175
1775	0.9116
1766	0.8975
1757	0.8543
1748	0.8058
1739	0.6864
1730	0.3642
1721	0.1814
1712	0.1294
1703	0.0509
1694	0.0267
1685	0.146
1676	0.0238
1667	0.0928
1658	0.4289
1649	0.5999
1640	0.6781
1631	0.7038
1622	0.6747
1613	0.3416
1604	0.4912
1595	0.1533
1586	0.2557
1577	0.596
1568	0.6678
1559	0.5864
1550	0.3672
1541	0.3218
1532	0.4741
1523	0.4191
1514	0.3753
1505	0.7211
1496	0.7489
1487	0.7388
1478	0.7161
1469	0.3858
1460	0.0025
1451	0.1087
1442	0.4407
1433	0.4792
1424	0.388
1415	0.1726
1406	0.1124
1397	0.2904
1388	0.5293
1379	0.4099
1370	0.2034
1361	0.2926
1352	0.4818
1343	0.5302
1334	0.3423
1325	0.0638
1316	0.2607
1307	0.3362
1298	0.5916
1289	0.7022
1280	0.6655
1271	0.4382
1262	0.5754
1253	0.4744
1244	0.4125
1235	0.3407
1226	0.7461
1217	0.81
1208	0.7418
1199	0.3191
1190	0.6196
1181	0.6868
1172	0.2842
1163	0.172
1154	0.2554
1145	0.6296
1136	0.8061
1127	0.871
1118	0.9105
1109	0.931
1100	0.932
1091	0.8054
1082	0.9404
1073	0.9478
1064	0.9531
1055	0.9562
1046	0.9593
1037	0.9447
1028	0.8956
1019	0.8878
1010	0.9083
1001	0.8448
992	0.8368
983	0.9261
974	0.9531
965	0.9615
956	0.9591
947	0.9586
938	0.9571
929	0.9696
920	0.9603
911	0.9506
902	0.9278
893	0.8545
884	0.8065
875	0.7999
866	0.69
857	0.6214
848	0.6056
839	0.5599
830	0.6974
821	0.7791
812	0.8149
803	0.5605
794	0.7597
785	0.9318
776	0.9488
767	0.9468
758	0.9171
749	0.8501
740	0.8625
731	0.8146
722	0.7243
713	0.5762
704	0.6296
695	0.8221
686	0.8721
677	0.8099
668	0.7807
659	0.9296
650	0.8213
641	0.965
632	0.914
623	0.9654
614	0.9941
605	0.9934
596	0.9841
587	0.9666
578	0.9018
569	0.5883
560	0.5546
551	0.7328
542	0.7555
533	0.7538
524	0.922
515	0.9754
506	0.9801
497	0.9742
488	0.9598
479	0.9357
470	0.8484
461	0.8628
452	0.8675
443	0.8331
434	0.7738
425	0.6978
416	0.6769
407	0.6768
