Infrared Spectrum: Tin, chlorotriphenyl-,
Formula: C18 H15 Cl Sn
CAS: 639-58-7
State: SOLUTION (10% CCl4 FOR 3800-1300, 11% CS2 FOR 1300-620, AND 10% CCl4 FOR 620-250)
Melting point: 104-106 C
Class: COBLENTZ III
Instrument: PERKIN-ELMER 521 (GRATING)
Instrument parameters: FILTERS AT 3150, 2500, 2000, 1150, 700, 410. GRATING CHANGES: 2000, 630
Path length: 0.012 CM, 0.011 CM, AND 0.011 CM
Resolution: 2
Origin: DOW CORNING CORP.
1/CM	TRANSMITTANCE
248	0.4649
257	0.4357
266	0.3728
275	0.4475
284	0.652
293	0.7102
302	0.7608
311	0.777
320	0.782
329	0.7155
338	0.4604
347	0.3217
356	0.6864
365	0.789
374	0.8486
383	0.8547
392	0.8543
401	0.8607
410	0.8603
419	0.8576
428	0.8398
437	0.6654
446	0.4261
455	0.3076
464	0.7826
473	0.8268
482	0.8227
491	0.8367
500	0.8495
509	0.8564
518	0.8587
527	0.8603
536	0.861
545	0.8617
554	0.8625
563	0.8633
572	0.8633
581	0.8632
590	0.8637
599	0.864
608	0.8617
617	0.8455
626	0.8303
635	0.8347
644	0.8345
653	0.8129
662	0.6253
671	0.7467
680	0.7501
689	0.5284
698	0.026
707	0.4574
716	0.6878
725	0.1616
734	0.4461
743	0.7704
752	0.8391
761	0.8708
770	0.8783
779	0.8871
788	0.8939
797	0.8981
806	0.899
815	0.8996
824	0.8962
833	0.8902
842	0.8707
851	0.857
860	0.8775
869	0.887
878	0.8933
887	0.8967
896	0.8894
905	0.8415
914	0.8731
923	0.8956
932	0.8965
941	0.8973
950	0.8957
959	0.8841
968	0.8779
977	0.8743
986	0.866
995	0.5003
1004	0.8928
1013	0.8972
1022	0.8763
1031	0.9167
1040	0.9143
1049	0.8997
1058	0.8249
1067	0.8339
1076	0.1138
1085	0.9037
1094	0.925
1103	0.9328
1112	0.9335
1121	0.9324
1130	0.9247
1139	0.9092
1148	0.8768
1157	0.8636
1166	0.8704
1175	0.8641
1184	0.7804
1193	0.8711
1202	0.8975
1211	0.903
1220	0.9037
1229	0.8998
1238	0.9006
1247	0.8921
1256	0.8713
1265	0.8918
1274	0.8845
1283	0.8624
1292	0.7917
1301	0.6769
1310	0.8392
1319	0.8505
1328	0.791
1337	0.7483
1346	0.8539
1355	0.8535
1364	0.8408
1373	0.7955
1382	0.8466
1391	0.8529
1400	0.8445
1409	0.8184
1418	0.788
1427	0.5398
1436	0.5969
1445	0.8413
1454	0.8494
1463	0.8517
1472	0.8283
1481	0.497
1490	0.846
1499	0.8546
1508	0.8532
1517	0.8537
1526	0.8512
1535	0.8471
1544	0.8375
1553	0.84
1562	0.8353
1571	0.7997
1580	0.7509
1589	0.8472
1598	0.8541
1607	0.8528
1616	0.8449
1625	0.8555
1634	0.8331
1643	0.8065
1652	0.8574
1661	0.8594
1670	0.8658
1679	0.8653
1688	0.8633
1697	0.8631
1706	0.8618
1715	0.8614
1724	0.8616
1733	0.8632
1742	0.8641
1751	0.854
1760	0.8403
1769	0.8566
1778	0.8508
1787	0.8675
1796	0.8642
1805	0.8522
1814	0.771
1823	0.8136
1832	0.8553
1841	0.8612
1850	0.8691
1859	0.8671
1868	0.8502
1877	0.7776
1886	0.8335
1895	0.8153
1904	0.8529
1913	0.8679
1922	0.8696
1931	0.8706
1940	0.8608
1949	0.829
1958	0.7958
1967	0.8444
1976	0.8301
1985	0.8728
1994	0.8798
2003	0.8835
2012	0.8844
2021	0.8866
2030	0.887
2039	0.887
2048	0.887
2057	0.886
2066	0.8848
2075	0.8832
2084	0.8815
2093	0.8797
2102	0.8793
2111	0.8815
2120	0.8806
2129	0.8775
2138	0.8712
2147	0.8684
2156	0.8788
2165	0.8836
2174	0.8831
2183	0.8824
2192	0.8816
2201	0.8807
2210	0.8797
2219	0.8787
2228	0.8775
2237	0.8762
2246	0.875
2255	0.8736
2264	0.8744
2273	0.8766
2282	0.8772
2291	0.8764
2300	0.8757
2309	0.8746
2318	0.8739
2327	0.8747
2336	0.878
2345	0.8795
2354	0.8799
2363	0.8827
2372	0.8816
2381	0.8783
2390	0.8757
2399	0.8743
2408	0.874
2417	0.875
2426	0.8765
2435	0.878
2444	0.8798
2453	0.8793
2462	0.8784
2471	0.8774
2480	0.8763
2489	0.8744
2498	0.8725
2507	0.8723
2516	0.8713
2525	0.8702
2534	0.8688
2543	0.8673
2552	0.8661
2561	0.8652
2570	0.8666
2579	0.8687
2588	0.8667
2597	0.8588
2606	0.8647
2615	0.8706
2624	0.8702
2633	0.8685
2642	0.863
2651	0.8566
2660	0.863
2669	0.8682
2678	0.869
2687	0.8692
2696	0.8694
2705	0.8703
2714	0.8715
2723	0.8724
2732	0.8723
2741	0.87
2750	0.8694
2759	0.8699
2768	0.8703
2777	0.8694
2786	0.8685
2795	0.8686
2804	0.869
2813	0.8686
2822	0.868
2831	0.8665
2840	0.8666
2849	0.8689
2858	0.8656
2867	0.8649
2876	0.864
2885	0.8631
2894	0.8591
2903	0.8544
2912	0.8452
2921	0.8566
2930	0.8621
2939	0.8632
2948	0.857
2957	0.8465
2966	0.8434
2975	0.8368
2984	0.8192
2993	0.7562
3002	0.6969
3011	0.7477
3020	0.7004
3029	0.6529
3038	0.7363
3047	0.6633
3056	0.5131
3065	0.4475
3074	0.4962
3083	0.4402
3092	0.7223
3101	0.8301
3110	0.854
3119	0.8582
3128	0.8714
3137	0.8588
3146	0.8315
3155	0.8552
3164	0.8777
3173	0.8807
3182	0.882
3191	0.8824
3200	0.8825
3209	0.8828
3218	0.8831
3227	0.8834
3236	0.8836
3245	0.8838
3254	0.8837
3263	0.8836
3272	0.8835
3281	0.8833
3290	0.8832
3299	0.8829
3308	0.8828
3317	0.8825
3326	0.8821
3335	0.8815
3344	0.881
3353	0.8805
3362	0.88
3371	0.8795
3380	0.8792
3389	0.8788
3398	0.8786
3407	0.8782
3416	0.8779
3425	0.8778
3434	0.8778
3443	0.8777
3452	0.8777
3461	0.8776
3470	0.8776
3479	0.8775
3488	0.8779
3497	0.8782
3506	0.8785
3515	0.8788
3524	0.8792
3533	0.8794
3542	0.8795
3551	0.8796
3560	0.8797
3569	0.8798
3578	0.8798
3587	0.8796
3596	0.8795
3605	0.8793
3614	0.8794
3623	0.8796
3632	0.8798
3641	0.88
3650	0.8808
3659	0.8823
3668	0.8847
3677	0.887
3686	0.8859
3695	0.8802
3704	0.8767
3713	0.879
3722	0.8805
3731	0.882
3740	0.8839
3749	0.8865
3758	0.8884
3767	0.8897
3776	0.8901
3785	0.8897
3794	0.8903
3803	0.8911
3812	0.891
