Infrared Spectrum: 2,2'-BIPHENOL, 3,3',5,5'-TETRAKIS(1,1-DIMETHYLETHYL)-
Formula: C28 H42 O2
CAS: 6390-69-8
State: SOLUTION (10% IN CCl4 FOR 3800-1300, 10% IN CS2 FOR 1300-450 CM^-^1) VERSUS SOLVENT
Class: COBLENTZ III
Instrument: Not specified, most likely a prism, grating, or hybrid spectrometer.
Sampling: TRANSMISSION
Path length: 0.010 AND 0.010 CM
Resolution: 4
Origin: DOW CHEMICAL COMPANY
1/CM	TRANSMITTANCE
437.352	0.796
446.808	0.805
456.265	0.857
465.721	0.944
475.177	1.001
484.633	1.033
494.09	1.049
503.546	1.02
513.002	1.0549
522.458	1.088
531.915	1.049
541.371	1.0879
550.827	1.107
560.284	1.09
569.74	1.066
579.196	1.068
588.652	1.099
598.109	1.096
607.565	1.094
617.021	1.083
626.477	1.062
635.934	0.9612
645.39	0.7243
654.846	0.7458
664.303	0.987
673.759	0.902
683.215	0.9638
692.671	1.025
702.128	1.018
711.584	1.005
721.04	0.939
730.496	0.942
739.953	1.012
749.409	1.007
758.865	0.987
768.322	0.752
777.778	0.8994
787.234	0.8423
796.69	0.957
806.147	0.918
815.603	0.548
825.059	0.8169
834.515	0.9368
843.972	0.909
853.428	0.831
862.884	0.852
872.341	0.865
881.797	0.5801
891.253	0.8868
900.709	0.955
910.166	0.961
919.622	0.92
929.078	0.922
938.534	1.007
947.991	1.033
957.447	1.048
966.903	1.055
976.359	1.059
985.816	1.059
995.272	1.057
1004.73	1.051
1014.18	1.024
1023.64	0.914
1033.1	1.029
1042.55	1.04
1052.01	1.04
1061.47	1.035
1070.92	1.022
1080.38	0.987
1089.83	0.6701
1099.29	0.674
1108.75	0.972
1118.2	0.8891
1127.66	0.857
1137.12	0.8479
1146.57	0.767
1156.03	0.4194
1165.48	0.158
1174.94	0.3928
1184.4	0.685
1193.85	0.4799
1203.31	0.2248
1212.77	0.332
1222.22	0.256
1231.68	0.118
1241.14	0.17
1250.59	0.362
1260.05	0.654
1269.5	0.478
1278.96	0.412
1288.42	0.4861
1297.87	0.8779
1307.33	0.885
1316.79	0.807
1326.24	0.454
1335.7	0.325
1345.15	0.7438
1354.61	0.78
1364.07	0.1702
1373.52	0.709
1382.98	0.805
1392.44	0.4126
1401.89	0.5002
1411.35	0.6849
1420.8	0.632
1430.26	0.382
1439.72	0.123
1449.17	0.2919
1458.63	0.249
1468.09	0.236
1477.54	0.168
1487	0.3469
1496.45	0.754
1505.91	0.763
1515.37	0.698
1524.82	0.676
1534.28	0.632
1543.74	0.5061
1553.19	0.534
1562.65	0.602
1572.1	0.672
1581.56	0.682
1591.02	0.698
1600.47	0.765
1609.93	0.87
1619.39	0.933
1628.84	0.953
1638.3	0.968
1647.75	0.974
1657.21	0.966
1666.67	0.959
1676.12	0.959
1685.58	0.961
1695.04	0.964
1704.49	0.964
1713.95	0.959
1723.4	0.961
1732.86	0.959
1742.32	0.959
1751.77	0.957
1761.23	0.95
1770.69	0.927
1780.14	0.879
1789.6	0.894
1799.06	0.926
1808.51	0.937
1817.97	0.948
1827.42	0.951
1836.88	0.955
1846.34	0.953
1855.79	0.957
1865.25	0.959
1874.71	0.963
1884.16	0.963
1893.62	0.961
1903.07	0.959
1912.53	0.959
1921.99	0.957
1931.44	0.957
1940.9	0.957
1950.36	0.961
1959.81	0.964
1969.27	0.977
1978.72	1.003
1988.18	1.009
1997.64	1.003
2007.09	0.998
2016.55	0.9921
2026.01	0.9919
2035.46	1.003
2044.92	0.9982
2054.37	0.994
2063.83	0.9965
2073.29	0.9957
2082.74	0.9943
2092.2	0.992
2101.66	0.9916
2111.11	0.998
2120.57	0.996
2130.02	0.994
2139.48	0.9905
2148.94	0.988
2158.39	0.988
2167.85	0.9873
2177.31	0.985
2186.76	0.9877
2196.22	0.988
2205.67	0.988
2215.13	0.9874
2224.59	0.987
2234.04	0.9838
2243.5	0.977
2252.96	0.9745
2262.41	0.9689
2271.87	0.9624
2281.32	0.954
2290.78	0.953
2300.24	0.957
2309.69	0.961
2319.15	0.9621
2328.61	0.957
2338.06	0.9598
2347.52	0.964
2356.98	0.9648
2366.43	0.9713
2375.89	0.9603
2385.34	0.9616
2394.8	0.966
2404.26	0.966
2413.71	0.968
2423.17	0.9725
2432.63	0.974
2442.08	0.974
2451.54	0.972
2460.99	0.9656
2470.45	0.964
2479.91	0.966
2489.36	0.966
2498.82	0.966
2508.28	0.9662
2517.73	0.968
2527.19	0.9682
2536.64	0.972
2546.1	0.9698
2555.56	0.961
2565.01	0.964
2574.47	0.968
2583.93	0.966
2593.38	0.9659
2602.84	0.9679
2612.29	0.968
2621.75	0.968
2631.21	0.966
2640.66	0.9592
2650.12	0.9507
2659.58	0.948
2669.03	0.9497
2678.49	0.957
2687.94	0.955
2697.4	0.9438
2706.86	0.9235
2716.31	0.9407
2725.77	0.955
2735.23	0.9472
2744.68	0.94
2754.14	0.959
2763.59	0.9557
2773.05	0.9326
2782.51	0.9413
2791.96	0.9338
2801.42	0.9142
2810.88	0.9038
2820.33	0.889
2829.79	0.8687
2839.25	0.8345
2848.7	0.7353
2858.16	0.4749
2867.61	0.2176
2877.07	0.264
2886.53	0.3459
2895.98	0.3068
2905.44	0.164
2914.9	0.1915
2924.35	0.2179
2933.81	0.1676
2943.26	0.0818
2952.72	0.0213
2962.18	0.0186
2971.63	0.0362
2981.09	0.1961
2990.55	0.5112
3000	0.528
3009.46	0.6466
3018.91	0.837
3028.37	0.8832
3037.83	0.9081
3047.28	0.916
3056.74	0.9183
3066.2	0.926
3075.65	0.929
3085.11	0.927
3094.56	0.9393
3104.02	0.9551
3113.48	0.9681
3122.93	0.974
3132.39	0.972
3141.85	0.972
3151.3	0.97
3160.76	0.97
3170.21	0.9641
3179.67	0.961
3189.13	0.957
3198.58	0.9628
3208.04	0.966
3217.5	0.966
3226.95	0.97
3236.41	0.972
3245.86	0.9766
3255.32	0.9806
3264.78	0.981
3274.23	0.981
3283.69	0.983
3293.15	0.983
3302.6	0.9864
3312.06	0.9877
3321.51	0.988
3330.97	0.987
3340.43	0.988
3349.88	0.987
3359.34	0.988
3368.8	0.99
3378.25	0.99
3387.71	0.988
3397.17	0.9875
3406.62	0.9839
3416.08	0.981
3425.53	0.979
3434.99	0.981
3444.45	0.979
3453.9	0.9745
3463.36	0.9627
3472.82	0.9529
3482.27	0.9234
3491.73	0.8859
3501.18	0.8068
3510.64	0.6431
3520.1	0.3362
3529.55	0.0398
3539.01	0.0416
3548.47	0.322
3557.92	0.7598
3567.38	0.9021
3576.83	0.937
3586.29	0.9378
3595.75	0.9704
3605.2	0.966
3614.66	0.972
3624.12	0.975
3633.57	0.97
3643.03	0.975
3652.48	0.979
3661.94	0.983
3671.4	0.979
3680.85	0.9851
3690.31	0.988
3699.77	0.987
3709.22	0.985
3718.68	0.981
3728.13	0.9791
3737.59	0.979
3747.05	0.9829
3756.5	0.985
3765.96	0.987
3775.42	0.9879
