Infrared Spectrum: 2,2-DIPHENYLCYCLOPROPYLMETHYL DIMETHYLAMINE
Formula: C18 H21 N
CAS: 63968-76-3
State: LIQUID
Class: COBLENTZ
Instrument: Not specified, most likely a prism, grating, or hybrid spectrometer.
Sampling: TRANSMISSION
Path length: CAPILLARY
Resolution: 4
MICROMETERS	TRANSMITTANCE
2.007	0.894
2.04285	0.894
2.07871	0.894
2.11456	0.891
2.15041	0.891
2.18626	0.892
2.22212	0.885
2.25797	0.887
2.29382	0.887
2.32968	0.878
2.36553	0.878
2.40138	0.873
2.43724	0.873
2.47309	0.869
2.50894	0.857
2.54479	0.864
2.58065	0.878
2.6165	0.875
2.65235	0.88
2.68821	0.887
2.72406	0.889
2.75991	0.885
2.79577	0.875
2.83162	0.878
2.86747	0.878
2.90332	0.876
2.93918	0.873
2.97503	0.871
3.01088	0.868
3.04674	0.866
3.08259	0.866
3.11844	0.864
3.15429	0.862
3.19015	0.857
3.226	0.84
3.26185	0.731
3.29771	0.486
3.33356	0.463
3.36941	0.518
3.40527	0.428
3.44112	0.367
3.47697	0.523
3.51282	0.541
3.54868	0.521
3.58453	0.349
3.62038	0.384
3.65624	0.272
3.69209	0.474
3.72794	0.618
3.76379	0.773
3.79965	0.81
3.8355	0.838
3.87135	0.847
3.90721	0.859
3.94306	0.862
3.97891	0.869
4.01477	0.871
4.05062	0.871
4.08647	0.868
4.12232	0.873
4.15818	0.873
4.19403	0.875
4.22988	0.878
4.26574	0.885
4.30159	0.891
4.33744	0.889
4.3733	0.884
4.40915	0.875
4.445	0.876
4.48085	0.876
4.51671	0.88
4.55256	0.88
4.58841	0.882
4.62427	0.884
4.66012	0.885
4.69597	0.887
4.73182	0.885
4.76768	0.882
4.80353	0.88
4.83938	0.875
4.87524	0.871
4.91109	0.873
4.94694	0.876
4.9828	0.876
5.01865	0.873
5.0545	0.868
5.09035	0.864
5.12621	0.843
5.16206	0.818
5.19791	0.822
5.23377	0.859
5.26962	0.866
5.30547	0.843
5.34132	0.826
5.37718	0.824
5.41303	0.852
5.44888	0.864
5.48474	0.866
5.52059	0.852
5.55644	0.833
5.5923	0.831
5.62815	0.859
5.664	0.861
5.69985	0.855
5.73571	0.85
5.77156	0.85
5.80741	0.855
5.84327	0.868
5.87912	0.869
5.91497	0.869
5.95083	0.859
5.98668	0.848
6.02253	0.847
6.05838	0.848
6.09424	0.857
6.13009	0.855
6.16594	0.848
6.2018	0.82
6.23765	0.625
6.2735	0.418
6.30935	0.683
6.34521	0.727
6.38106	0.787
6.41691	0.836
6.45277	0.85
6.48862	0.843
6.52447	0.843
6.56033	0.833
6.59618	0.829
6.63203	0.813
6.66788	0.769
6.70374	0.376
6.73959	0.212
6.77544	0.683
6.8113	0.662
6.84715	0.451
6.883	0.318
6.91886	0.261
6.95471	0.224
6.99056	0.402
7.02641	0.622
7.06227	0.746
7.09812	0.778
7.13397	0.753
7.16983	0.724
7.20568	0.627
7.24153	0.687
7.27738	0.748
7.31324	0.792
7.34909	0.815
7.38494	0.822
7.4208	0.803
7.45665	0.745
7.4925	0.724
7.52836	0.72
7.56421	0.725
7.60006	0.759
7.63591	0.759
7.67177	0.752
7.70762	0.766
7.74347	0.768
7.77933	0.708
7.81518	0.623
7.85103	0.622
7.88688	0.629
7.92274	0.608
7.95859	0.551
7.99444	0.578
8.0303	0.674
8.06615	0.746
8.102	0.759
8.13786	0.787
8.17371	0.818
8.20956	0.829
8.24541	0.831
8.28127	0.826
8.31712	0.78
8.35297	0.69
8.38883	0.688
8.42468	0.683
8.46053	0.641
8.49639	0.699
8.53224	0.739
8.56809	0.739
8.60394	0.706
8.6398	0.683
8.67565	0.623
8.7115	0.553
8.74736	0.594
8.78321	0.608
8.81906	0.637
8.85491	0.722
8.89077	0.759
8.92662	0.75
8.96247	0.743
8.99833	0.746
9.03418	0.741
9.07003	0.752
9.10589	0.768
9.14174	0.731
9.17759	0.657
9.21344	0.678
9.2493	0.639
9.28515	0.632
9.321	0.629
9.35686	0.636
9.39271	0.648
9.42856	0.71
9.46442	0.757
9.50027	0.75
9.53612	0.701
9.57197	0.537
9.60783	0.376
9.64368	0.261
9.67953	0.195
9.71539	0.184
9.75124	0.281
9.78709	0.362
9.82294	0.493
9.8588	0.62
9.89465	0.673
9.9305	0.673
9.96636	0.66
10.0022	0.692
10.0381	0.702
10.0739	0.715
10.1098	0.724
10.1456	0.741
10.1815	0.768
10.2173	0.785
10.2532	0.799
10.289	0.806
10.3249	0.797
10.3607	0.787
10.3966	0.78
10.4324	0.787
10.4683	0.801
10.5042	0.822
10.54	0.831
10.5759	0.838
10.6117	0.843
10.6476	0.847
10.6834	0.845
10.7193	0.841
10.7551	0.836
10.791	0.815
10.8268	0.794
10.8627	0.776
10.8985	0.748
10.9344	0.741
10.9702	0.748
11.0061	0.764
11.0419	0.775
11.0778	0.789
11.1137	0.794
11.1495	0.797
11.1854	0.799
11.2212	0.789
11.2571	0.773
11.2929	0.762
11.3288	0.759
11.3646	0.769
11.4005	0.785
11.4363	0.796
11.4722	0.806
11.508	0.813
11.5439	0.815
11.5797	0.813
11.6156	0.79
11.6514	0.743
11.6873	0.681
11.7232	0.615
11.759	0.586
11.7949	0.581
11.8307	0.585
11.8666	0.594
11.9024	0.588
11.9383	0.581
11.9741	0.599
12.01	0.657
12.0458	0.71
12.0817	0.745
12.1175	0.762
12.1534	0.741
12.1892	0.69
12.2251	0.671
12.2609	0.699
12.2968	0.734
12.3327	0.76
12.3685	0.775
12.4044	0.79
12.4402	0.796
12.4761	0.803
12.5119	0.806
12.5478	0.81
12.5836	0.811
12.6195	0.813
12.6553	0.813
12.6912	0.817
12.727	0.817
12.7629	0.811
12.7987	0.808
12.8346	0.797
12.8704	0.775
12.9063	0.706
12.9422	0.606
12.978	0.506
13.0139	0.442
13.0497	0.428
13.0856	0.413
13.1214	0.391
13.1573	0.356
13.1931	0.332
13.229	0.277
13.2648	0.251
13.3007	0.231
13.3365	0.219
13.3724	0.251
13.4082	0.418
13.4441	0.551
13.4799	0.643
13.5158	0.699
13.5517	0.731
13.5875	0.75
13.6234	0.764
13.6592	0.771
13.6951	0.775
13.7309	0.773
13.7668	0.771
13.8026	0.769
13.8385	0.762
13.8743	0.753
13.9102	0.736
13.946	0.704
13.9819	0.681
14.0177	0.618
14.0536	0.5
14.0894	0.355
14.1253	0.189
14.1612	0.108
14.197	0.073
14.2329	0.063
14.2687	0.061
14.3046	0.059
14.3404	0.061
14.3763	0.065
14.4121	0.145
14.448	0.26
14.4838	0.398
14.5197	0.493
14.5555	0.553
14.5914	0.594
14.6272	0.613
14.6631	0.63
14.6989	0.641
14.7348	0.646
14.7707	0.653
14.8065	0.655
14.8424	0.657
14.8782	0.652
14.9141	0.653
14.9499	0.655
14.9858	0.664
15.0216	0.664
15.0575	0.659
15.0933	0.66
15.1292	0.659
15.165	0.66
15.2009	0.664
15.2367	0.666
15.2726	0.66
15.3084	0.655
15.3443	0.655
15.3802	0.653
15.416	0.648
15.4519	0.641
