Infrared Spectrum: 1(H)-[4-AMINOPHENYL]-4-[DIETHYLCARBOXAMIDE]-5-METHYL-1,2,3-TRIAZOLE, HYDROCHLORIDE
Formula: C14 H20 Cl N5 O
CAS: 63979-26-0
State: SOLID (NUJOL MULL)
Class: COBLENTZ III
Instrument: Not specified, most likely a prism spectrometer.
Instrument parameters: NaCl PRISM
Sampling: TRANSMISSION
Resolution: 2
Origin: SMITH KLINE & FRENCH LABS.
MICROMETERS	TRANSMITTANCE
1.996	0.407
2.03028	0.408
2.06457	0.412
2.09885	0.419
2.13314	0.427
2.16742	0.43
2.20171	0.436
2.23599	0.438
2.27027	0.437
2.30456	0.432
2.33884	0.438
2.37313	0.447
2.40741	0.456
2.4417	0.46
2.47598	0.467
2.51026	0.473
2.54455	0.494
2.57883	0.494
2.61312	0.501
2.6474	0.512
2.68169	0.521
2.71597	0.53
2.75025	0.539
2.78454	0.544
2.81882	0.55
2.85311	0.552
2.88739	0.555
2.92168	0.561
2.95596	0.578
2.99025	0.576
3.02453	0.576
3.05881	0.587
3.0931	0.596
3.12738	0.586
3.16167	0.564
3.19595	0.551
3.23024	0.507
3.26452	0.435
3.2988	0.39
3.33309	0.299
3.36737	0.126
3.40166	0.042
3.43594	0.031
3.47023	0.027
3.50451	0.026
3.53879	0.046
3.57308	0.089
3.60736	0.098
3.64165	0.116
3.67593	0.13
3.71022	0.153
3.7445	0.206
3.77878	0.232
3.81307	0.191
3.84735	0.153
3.88164	0.139
3.91592	0.124
3.95021	0.121
3.98449	0.186
4.01877	0.231
4.05306	0.29
4.08734	0.369
4.12163	0.403
4.15591	0.431
4.1902	0.465
4.22448	0.477
4.25876	0.488
4.29305	0.499
4.32733	0.543
4.36162	0.556
4.3959	0.568
4.43019	0.595
4.46447	0.603
4.49876	0.607
4.53304	0.621
4.56732	0.632
4.60161	0.635
4.63589	0.649
4.67018	0.665
4.70446	0.67
4.73875	0.676
4.77303	0.676
4.80731	0.677
4.8416	0.675
4.87588	0.66
4.91017	0.653
4.94445	0.637
4.97874	0.592
5.01302	0.539
5.0473	0.539
5.08159	0.575
5.11587	0.6
5.15016	0.618
5.18444	0.652
5.21873	0.661
5.25301	0.689
5.28729	0.699
5.32158	0.711
5.35586	0.732
5.39015	0.741
5.42443	0.746
5.45872	0.751
5.493	0.752
5.52728	0.752
5.56157	0.762
5.59585	0.761
5.63014	0.763
5.66442	0.764
5.69871	0.769
5.73299	0.774
5.76727	0.77
5.80156	0.77
5.83584	0.77
5.87013	0.77
5.90441	0.769
5.9387	0.755
5.97298	0.747
6.00727	0.707
6.04155	0.704
6.07583	0.654
6.11012	0.558
6.1444	0.4
6.17869	0.254
6.21297	0.117
6.24726	0.066
6.28154	0.08
6.31582	0.206
6.35011	0.219
6.38439	0.212
6.41868	0.312
6.45296	0.441
6.48725	0.473
6.52153	0.432
6.55581	0.386
6.5901	0.155
6.62438	0.176
6.65867	0.261
6.69295	0.242
6.72724	0.174
6.76152	0.186
6.7958	0.166
6.83009	0.069
6.86437	0.075
6.89866	0.099
6.93294	0.13
6.96723	0.242
7.00151	0.334
7.03579	0.438
7.07008	0.463
7.10436	0.489
7.13865	0.522
7.17293	0.499
7.20722	0.375
7.2415	0.246
7.27578	0.224
7.31007	0.322
7.34435	0.438
7.37864	0.404
7.41292	0.397
7.44721	0.421
7.48149	0.529
7.51577	0.609
7.55006	0.606
7.58434	0.509
7.61863	0.511
7.65291	0.57
7.6872	0.616
7.72148	0.647
7.75577	0.633
7.79005	0.55
7.82433	0.373
7.85862	0.22
7.8929	0.322
7.92719	0.518
7.96147	0.608
7.99576	0.637
8.03004	0.659
8.06432	0.665
8.09861	0.676
8.13289	0.695
8.16718	0.608
8.20146	0.562
8.23575	0.573
8.27003	0.427
8.30431	0.57
8.3386	0.653
8.37288	0.672
8.40717	0.681
8.44145	0.69
8.47574	0.693
8.51002	0.681
8.5443	0.681
8.57859	0.673
8.61287	0.696
8.64716	0.699
8.68144	0.693
8.71573	0.658
8.75001	0.63
8.78429	0.63
8.81858	0.67
8.85286	0.689
8.88715	0.689
8.92143	0.667
8.95572	0.579
8.99	0.443
9.02428	0.263
9.05857	0.213
9.09285	0.301
9.12714	0.402
9.16142	0.524
9.19571	0.573
9.22999	0.536
9.26428	0.555
9.29856	0.586
9.33284	0.614
9.36713	0.64
9.40141	0.66
9.4357	0.69
9.46998	0.705
9.50427	0.715
9.53855	0.72
9.57283	0.726
9.60712	0.732
9.6414	0.738
9.67569	0.743
9.70997	0.747
9.74426	0.75
9.77854	0.753
9.81282	0.757
9.84711	0.75
9.88139	0.539
9.91568	0.528
9.94996	0.661
9.98425	0.672
10.0185	0.711
10.0528	0.738
10.0871	0.74
10.1214	0.741
10.1557	0.71
10.19	0.598
10.2242	0.48
10.2585	0.5
10.2928	0.59
10.3271	0.64
10.3614	0.666
10.3957	0.695
10.4299	0.707
10.4642	0.711
10.4985	0.688
10.5328	0.658
10.5671	0.652
10.6014	0.677
10.6356	0.728
10.6699	0.746
10.7042	0.755
10.7385	0.761
10.7728	0.766
10.8071	0.772
10.8414	0.78
10.8756	0.787
10.9099	0.791
10.9442	0.796
10.9785	0.803
11.0128	0.807
11.0471	0.81
11.0813	0.812
11.1156	0.813
11.1499	0.815
11.1842	0.815
11.2185	0.818
11.2528	0.819
11.287	0.821
11.3213	0.824
11.3556	0.824
11.3899	0.824
11.4242	0.815
11.4585	0.797
11.4928	0.726
11.527	0.595
11.5613	0.477
11.5956	0.424
11.6299	0.575
11.6642	0.667
11.6985	0.712
11.7327	0.723
11.767	0.711
11.8013	0.526
11.8356	0.423
11.8699	0.452
11.9042	0.55
11.9385	0.567
11.9727	0.658
12.007	0.698
12.0413	0.712
12.0756	0.715
12.1099	0.71
12.1442	0.686
12.1784	0.659
12.2127	0.647
12.247	0.698
12.2813	0.744
12.3156	0.739
12.3499	0.728
12.3841	0.764
12.4184	0.772
12.4527	0.787
12.487	0.8
12.5213	0.802
12.5556	0.79
12.5899	0.77
12.6241	0.746
12.6584	0.735
12.6927	0.692
12.727	0.689
12.7613	0.712
12.7956	0.741
12.8298	0.75
12.8641	0.75
12.8984	0.724
12.9327	0.567
12.967	0.65
13.0013	0.727
13.0355	0.763
13.0698	0.772
13.1041	0.796
13.1384	0.795
13.1727	0.793
13.207	0.793
13.2413	0.796
13.2755	0.795
13.3098	0.795
13.3441	0.796
13.3784	0.798
13.4127	0.8
13.447	0.792
13.4812	0.79
13.5155	0.789
13.5498	0.784
13.5841	0.776
13.6184	0.763
13.6527	0.75
13.687	0.744
13.7212	0.741
13.7555	0.74
13.7898	0.716
13.8241	0.642
13.8584	0.624
13.8927	0.624
13.9269	0.656
13.9612	0.7
13.9955	0.735
14.0298	0.746
14.0641	0.741
14.0984	0.749
14.1326	0.763
14.1669	0.781
14.2012	0.789
14.2355	0.8
14.2698	0.809
14.3041	0.814
14.3384	0.815
14.3726	0.815
14.4069	0.818
14.4412	0.814
14.4755	0.808
14.5098	0.779
14.5441	0.76
14.5783	0.743
14.6126	0.736
14.6469	0.757
14.6812	0.775
14.7155	0.779
14.7498	0.769
14.7841	0.763
14.8183	0.758
14.8526	0.753
14.8869	0.753
14.9212	0.751
14.9555	0.741
14.9898	0.739
15.024	0.711
15.0583	0.661
15.0926	0.652
