Infrared Spectrum: PIPERAZINE,1-BENZYL-4-(2-PYRIDYL)-
Formula: C16 H19 N3
CAS: 63980-42-7
State: SOLUTION 7% (CS2 FOR 7.5-15 microns, AND CCl4 FOR 2.5-7.5 microns)
Class: COBLENTZ III
Instrument: PERKIN-ELMER 21 (GRATING)
Instrument parameters: FILTER AT ABOUT 10 MICRONS
Path length: 0.01 CM
Resolution: 2
Origin: ABBOTT LABORATORIES
1/CM	TRANSMITTANCE
666	0.9063
675	0.8611
684	0.7963
693	0.2961
702	0.7935
711	0.8622
720	0.7256
729	0.2835
738	0.4018
747	0.715
756	0.7627
765	0.2884
774	0.5133
783	0.7993
792	0.8251
801	0.8257
810	0.7987
819	0.8093
828	0.7949
837	0.7709
846	0.7704
855	0.8125
864	0.825
873	0.8134
882	0.8338
891	0.8761
900	0.8884
909	0.8847
918	0.8285
927	0.633
936	0.5047
945	0.6884
954	0.8652
963	0.8037
972	0.4638
981	0.6937
990	0.6279
999	0.4545
1008	0.7702
1017	0.7759
1026	0.763
1035	0.8263
1044	0.8147
1053	0.8226
1062	0.79
1071	0.8079
1080	0.8261
1089	0.7791
1098	0.7517
1107	0.7645
1116	0.6406
1125	0.5427
1134	0.4982
1143	0.5028
1152	0.4923
1161	0.7527
1170	0.7528
1179	0.7635
1188	0.7971
1197	0.7417
1206	0.7015
1215	0.6022
1224	0.2991
1233	0.2402
1242	0.1986
1251	0.6099
1260	0.5666
1269	0.62
1278	0.6588
1287	0.5917
1296	0.5218
1305	0.2282
1314	0.6467
1323	0.6277
1332	0.6542
1341	0.5504
1350	0.64
1359	0.6126
1368	0.5856
1377	0.5312
1386	0.6701
1395	0.7646
1404	0.78
1413	0.7048
1422	0.4483
1431	0.0956
1440	0.3686
1449	0.426
1458	0.5139
1467	0.3051
1476	0.0832
1485	0.293
1494	0.5627
1503	0.7795
1512	0.8149
1521	0.8194
1530	0.8115
1539	0.7782
1548	0.6803
1557	0.5467
1566	0.6119
1575	0.5809
1584	0.2631
1593	0.0858
1602	0.4504
1611	0.7282
1620	0.7974
1629	0.8227
1638	0.8297
1647	0.8329
1656	0.8344
1665	0.8338
1674	0.8311
1683	0.8371
1692	0.8438
1701	0.8452
1710	0.8433
1719	0.8406
1728	0.8575
1737	0.8638
1746	0.8648
1755	0.8644
1764	0.8641
1773	0.864
1782	0.8627
1791	0.8614
1800	0.8601
1809	0.8618
1818	0.8644
1827	0.8666
1836	0.8672
1845	0.867
1854	0.8663
1863	0.8662
1872	0.8661
1881	0.8647
1890	0.8631
1899	0.8605
1908	0.8581
1917	0.8537
1926	0.8487
1935	0.8461
1944	0.8493
1953	0.8627
1962	0.8703
1971	0.8724
1980	0.8723
1989	0.8721
1998	0.872
2007	0.8719
2016	0.8718
2025	0.8717
2034	0.8717
2043	0.8716
2052	0.8716
2061	0.8715
2070	0.8713
2079	0.8711
2088	0.8709
2097	0.8707
2106	0.8705
2115	0.8705
2124	0.8704
2133	0.8704
2142	0.8703
2151	0.8702
2160	0.8701
2169	0.8701
2178	0.87
2187	0.8704
2196	0.871
2205	0.8716
2214	0.8722
2223	0.8729
2232	0.8736
2241	0.8737
2250	0.8732
2259	0.8726
2268	0.8721
2277	0.8715
2286	0.871
2295	0.8704
2304	0.8699
2313	0.8693
2322	0.8687
2331	0.8682
2340	0.8677
2349	0.8672
2358	0.8668
2367	0.8663
2376	0.8659
2385	0.8654
2394	0.8646
2403	0.8638
2412	0.8628
2421	0.8614
2430	0.8592
2439	0.8565
2448	0.8538
2457	0.8528
2466	0.8523
2475	0.8519
2484	0.8518
2493	0.8516
2502	0.8511
2511	0.8506
2520	0.8501
2529	0.8496
2538	0.8487
2547	0.8472
2556	0.8453
2565	0.843
2574	0.8407
2583	0.8377
2592	0.8341
2601	0.8301
2610	0.8261
2619	0.8215
2628	0.8158
2637	0.8087
2646	0.7999
2655	0.7888
2664	0.7759
2673	0.7665
2682	0.7621
2691	0.7562
2700	0.7479
2709	0.7359
2718	0.7227
2727	0.7033
2736	0.6654
2745	0.6193
2754	0.5862
2763	0.573
2772	0.5467
2781	0.4889
2790	0.4729
2799	0.4641
2808	0.4612
2817	0.4688
2826	0.5034
2835	0.5379
2844	0.5722
2853	0.6037
2862	0.607
2871	0.6063
2880	0.604
2889	0.6012
2898	0.5991
2907	0.5986
2916	0.5999
2925	0.6099
2934	0.6409
2943	0.6717
2952	0.7024
2961	0.7212
2970	0.7233
2979	0.7198
2988	0.7149
2997	0.7131
3006	0.7131
3015	0.7168
3024	0.7278
3033	0.7404
3042	0.7497
3051	0.751
3060	0.7538
3069	0.7972
3078	0.8298
3087	0.8463
3096	0.8564
3105	0.8618
3114	0.8638
3123	0.8647
3132	0.8653
3141	0.8657
3150	0.8661
3159	0.8663
3168	0.8663
3177	0.8663
3186	0.8662
3195	0.8661
3204	0.8661
3213	0.866
3222	0.8659
3231	0.8658
3240	0.8657
3249	0.8656
3258	0.8656
3267	0.8655
3276	0.8654
3285	0.8653
3294	0.8651
3303	0.865
3312	0.8649
3321	0.8647
3330	0.8646
3339	0.8645
3348	0.8643
3357	0.8642
3366	0.864
3375	0.864
3384	0.864
3393	0.8641
3402	0.8642
3411	0.8642
3420	0.8643
3429	0.8644
3438	0.8644
3447	0.8645
3456	0.8646
3465	0.8646
3474	0.8647
3483	0.8648
3492	0.8649
3501	0.865
3510	0.8651
3519	0.8652
3528	0.8653
3537	0.8654
3546	0.8654
3555	0.8655
3564	0.8656
3573	0.8657
3582	0.8658
3591	0.8659
3600	0.866
3609	0.8662
3618	0.8664
3627	0.8665
3636	0.8666
3645	0.8668
3654	0.8669
3663	0.867
3672	0.867
3681	0.867
3690	0.8669
3699	0.8669
3708	0.8668
3717	0.8668
3726	0.8667
3735	0.8664
3744	0.866
3753	0.8656
3762	0.8652
3771	0.8647
3780	0.8641
3789	0.8634
3798	0.8626
3807	0.8618
3816	0.8609
3825	0.8602
3834	0.8596
3843	0.8589
3852	0.8583
3861	0.8577
3870	0.8573
3879	0.8572
3888	0.8572
3897	0.8573
3906	0.8575
3915	0.8577
3924	0.8578
3933	0.8579
3942	0.8578
3951	0.8575
3960	0.8572
3969	0.8569
3978	0.8566
3987	0.8565
3996	0.8562
