Infrared Spectrum: Phenethylamine
Formula: C 8 H 11 N
CAS: 64-04-0
State: gas
Instrument: HP-GC/MS/IRD
Origin: NIST Mass Spectrometry Data Center
1/CM	ABSORBANCE
550	0.0004598
562	0.0006941
574	0.0008679
586	0.0010274
598	0.0009581
610	0.0007986
622	0.000825
634	0.0008712
646	0.0011517
658	0.0016456
670	0.0025938
682	0.004994
694	0.0087472
706	0.0086999
718	0.0076252
730	0.0095513
742	0.011
754	0.0090585
766	0.0079013
778	0.0073227
790	0.006347
802	0.0044
814	0.0027027
826	0.0017952
838	0.0014344
850	0.0011737
862	0.0010219
874	0.0008767
886	0.0007689
898	0.0007271
910	0.0006556
922	0.0005126
934	0.0004037
946	0.0004268
958	0.0004928
970	0.0006215
982	0.0008184
994	0.000913
1006	0.0009482
1018	0.0012738
1030	0.0017182
1042	0.0016753
1054	0.0023738
1066	0.0036619
1078	0.0033418
1090	0.0019107
1102	0.001023
1114	0.0005698
1126	0.0003058
1138	0.0001232
1150	6.49e-05
1162	3.19e-05
1174	0
1186	6.16e-05
1198	0.0001584
1210	8.8e-05
1222	4.62e-05
1234	0.0001287
1246	9.35e-05
1258	8.14e-05
1270	0.0001507
1282	0.0002992
1294	0.0004136
1306	0.0004609
1318	0.0005412
1330	0.0006281
1342	0.0008844
1354	0.0012408
1366	0.0014949
1378	0.0016522
1390	0.0013904
1402	0.0009053
1414	0.0007183
1426	0.0009262
1438	0.0015895
1450	0.0021032
1462	0.0020306
1474	0.0016808
1486	0.0026004
1498	0.0033825
1510	0.0016412
1522	0.0007656
1534	0.0006886
1546	0.0006765
1558	0.0007854
1570	0.0009504
1582	0.0014641
1594	0.0024057
1606	0.0030019
1618	0.0028732
1630	0.0023925
1642	0.0016005
1654	0.0010318
1666	0.0006963
1678	0.0005302
1690	0.0004455
1702	0.0004851
1714	0.0004609
1726	0.0004862
1738	0.000528
1750	0.0005302
1762	0.0005027
1774	0.0005467
1786	0.0007755
1798	0.0008635
1810	0.0006644
1822	0.000583
1834	0.0005423
1846	0.0006039
1858	0.0006875
1870	0.000748
1882	0.0006281
1894	0.0004928
1906	0.0004246
1918	0.0005588
1930	0.0007106
1942	0.0008459
1954	0.0007282
1966	0.0004697
1978	0.0003938
1990	0.0003839
2002	0.0003564
2014	0.0003586
2026	0.0003817
2038	0.0003707
2050	0.0003707
2062	0.0003916
2074	0.000407
2086	0.0004191
2098	0.0004246
2110	0.0004323
2122	0.0004433
2134	0.0004213
2146	0.0003839
2158	0.0004125
2170	0.0004037
2182	0.0004103
2194	0.0003938
2206	0.0003938
2218	0.0004169
2230	0.0004257
2242	0.00044
2254	0.0004631
2266	0.0004785
2278	0.000506
2290	0.0004675
2302	0.0004631
2314	0.0004774
2326	0.0004895
2338	0.0004565
2350	0.0004708
2362	0.0004609
2374	0.0004422
2386	0.0004202
2398	0.0003872
2410	0.0004169
2422	0.000407
2434	0.0004224
2446	0.0004356
2458	0.0004257
2470	0.0004268
2482	0.0004213
2494	0.0003905
2506	0.0004257
2518	0.00044
2530	0.0004488
2542	0.0004653
2554	0.0004334
2566	0.0004697
2578	0.0005192
2590	0.0005302
2602	0.0005324
2614	0.0005676
2626	0.0005588
2638	0.000594
2650	0.0006248
2662	0.0006446
2674	0.0006908
2686	0.0006919
2698	0.0007491
2710	0.0007689
2722	0.0007953
2734	0.0008547
2746	0.0009636
2758	0.0009427
2770	0.000946
2782	0.0010109
2794	0.0011
2806	0.0012166
2818	0.0015477
2830	0.0021879
2842	0.0035871
2854	0.0052811
2866	0.005709
2878	0.0050853
2890	0.0046288
2902	0.0050468
2914	0.0071577
2926	0.0094622
2938	0.0103532
2950	0.0084898
2962	0.0049181
2974	0.0026521
2986	0.0017721
2998	0.0018392
3010	0.0027841
3022	0.0052327
3034	0.0069454
3046	0.0054175
3058	0.0048928
3070	0.0064229
3082	0.0054351
3094	0.0035662
3106	0.0023034
3118	0.0013464
3130	0.0009339
3142	0.0007073
3154	0.0006039
3166	0.0006457
3178	0.0006083
3190	0.0005104
3202	0.0005126
3214	0.0005126
3226	0.0005302
3238	0.0004994
3250	0.000473
3262	0.0004983
3274	0.0005082
3286	0.0005423
3298	0.0004994
3310	0.0005467
3322	0.0005456
3334	0.0006171
3346	0.0006468
3358	0.000627
3370	0.0005236
3382	0.0005819
3394	0.0005313
3406	0.0005753
3418	0.0005709
3430	0.0005533
3442	0.0004554
3454	0.0004389
3466	0.0004246
3478	0.0005071
3490	0.000473
3502	0.0004917
3514	0.0004708
3526	0.0004565
3538	0.0003949
3550	0.0004081
3562	0.0004389
3574	0.0004587
3586	0.0004697
3598	0.000495
3610	0.0004312
3622	0.0004961
3634	0.0004587
3646	0.0005093
3658	0.0005401
3670	0.0005357
3682	0.0005478
3694	0.0005049
3706	0.0004818
3718	0.0004191
3730	0.0004763
3742	0.0005115
3754	0.0004268
3766	0.0004477
3778	0.0004587
3790	0.000506
3802	0.0004422
3814	0.0004873
3826	0.0004884
3838	0.0005104
