Infrared Spectrum: Diethyl sulfate
Formula: C 4 H 10 O 4 S
CAS: 64-67-5
State: gas
Origin: EPA-IR VAPOR PHASE LIBRARY
1/CM	ABSORBANCE
501.5	0.006134
513.074	0.009434
524.648	0.009014
536.222	0.007774
547.796	0.008464
559.37	0.010594
570.944	0.011674
582.518	0.011064
594.092	0.012884
605.666	0.015014
617.24	0.010034
628.814	0.004714
640.388	0.002774
651.962	0.001874
663.536	0.001604
675.11	0.001534
686.684	0.001744
698.258	0.002294
709.832	0.003484
721.406	0.006374
732.98	0.012364
744.554	0.019694
756.128	0.023164
767.702	0.025624
779.276	0.034744
790.85	0.044744
802.423	0.049484
813.997	0.048724
825.571	0.033324
837.145	0.016294
848.719	0.010524
860.293	0.010344
871.867	0.013704
883.441	0.024404
895.015	0.058784
906.589	0.132994
918.163	0.180894
929.737	0.138874
941.311	0.075144
952.885	0.038534
964.459	0.022644
976.033	0.021094
987.607	0.035214
999.181	0.074444
1010.76	0.107084
1022.33	0.091784
1033.9	0.058444
1045.48	0.032464
1057.05	0.018374
1068.63	0.013244
1080.2	0.012204
1091.77	0.013524
1103.35	0.012984
1114.92	0.010044
1126.49	0.008084
1138.07	0.007494
1149.64	0.007914
1161.22	0.008964
1172.79	0.013274
1184.36	0.035064
1195.94	0.088034
1207.51	0.095954
1219.09	0.042524
1230.66	0.011434
1242.23	0.006204
1253.81	0.004944
1265.38	0.004694
1276.96	0.004454
1288.53	0.004434
1300.1	0.004384
1311.68	0.004224
1323.25	0.004114
1334.83	0.004804
1346.4	0.007084
1357.97	0.012224
1369.55	0.021664
1381.12	0.039944
1392.7	0.071774
1404.27	0.095764
1415.84	0.088004
1427.42	0.057804
1438.99	0.025344
1450.57	0.011924
1462.14	0.008084
1473.71	0.006054
1485.29	0.004704
1496.86	0.003514
1508.44	0.002544
1520.01	0.001974
1531.58	0.001624
1543.16	0.001344
1554.73	0.0011419
1566.31	0.0009993
1577.88	0.0009201
1589.45	0.0008852
1601.03	0.0008556
1612.6	0.0009229
1624.18	0.001102
1635.75	0.001364
1647.32	0.001664
1658.9	0.001864
1670.47	0.001864
1682.05	0.001814
1693.62	0.001764
1705.19	0.001784
1716.77	0.001864
1728.34	0.001884
1739.92	0.001924
1751.49	0.001794
1763.06	0.001494
1774.64	0.0011571
1786.21	0.0009535
1797.79	0.000931
1809.36	0.0010405
1820.93	0.0011257
1832.51	0.0011091
1844.08	0.0009627
1855.66	0.0006857
1867.23	0.0004585
1878.8	0.00034586
1890.38	0.00029485
1901.95	0.00031558
1913.53	0.00033244
1925.1	0.00036632
1936.67	0.0003955
1948.25	0.00031653
1959.82	0.0002449
1971.4	0.0002008
1982.97	0.000171
1994.54	0.000151
2006.12	0.000138
2017.69	0.000119
2029.27	0.000126
2040.84	0.000126
2052.41	0.000157
2063.99	0.0002047
2075.56	0.0002065
2087.14	0.0002467
2098.71	0.00028722
2110.28	0.00031733
2121.86	0.00030269
2133.43	0.000277744
2145.01	0.0002495
2156.58	0.0002234
2168.15	0.0002025
2179.73	0.0002133
2191.3	0.000227
2202.88	0.0002053
2214.45	0.0002215
2226.02	0.000172
2237.6	0.000128
2249.17	0.000112
2260.74	0.00014
2272.32	0.000133
2283.89	0.0001859
2295.47	0.0001893
2307.04	0.0001844
2318.61	0.0001756
2330.19	0.000181
2341.76	0.000161
2353.34	0.000118
2364.91	0.000149
2376.48	0.000192
2388.06	0.00035902
2399.63	0.0004552
2411.21	0.0004157
2422.78	0.0002634
2434.35	0.0002145
2445.93	0.0001982
2457.5	0.0002326
2469.08	0.0002178
2480.65	0.000148
2492.22	0.000127
2503.8	9.3e-05
2515.37	7.1e-05
2526.95	7e-05
2538.52	6e-05
2550.09	0.000114
2561.67	0.0002005
2573.24	0.00030826
2584.82	0.0004152
2596.39	0.0005397
2607.96	0.0005263
2619.54	0.0003778
2631.11	0.0001914
2642.69	7.1e-05
2654.26	1.1e-05
2665.83	5.9e-05
2677.41	3.3e-05
2688.98	1.6e-05
2700.56	8.3e-05
2712.13	7.4e-05
2723.7	0.0001921
2735.28	0.00026893
2746.85	0.000281446
2758.43	0.00036806
2770	0.0005401
2781.57	0.0006649
2793.15	0.0006539
2804.72	0.0007007
2816.3	0.000827
2827.87	0.0010313
2839.44	0.0012382
2851.02	0.001504
2862.59	0.002154
2874.17	0.003454
2885.74	0.004814
2897.31	0.005444
2908.89	0.006674
2920.46	0.008504
2932.04	0.011234
2943.61	0.015784
2955.18	0.015074
2966.76	0.013404
2978.33	0.019014
2989.91	0.026464
3001.48	0.025254
3013.05	0.017254
3024.63	0.010384
3036.2	0.006284
3047.78	0.003714
3059.35	0.002314
3070.92	0.001484
3082.5	0.0010643
3094.07	0.0008186
3105.65	0.0006735
3117.22	0.0006003
3128.79	0.0005419
3140.37	0.000556
3151.94	0.0005041
3163.52	0.0005336
3175.09	0.0004905
3186.66	0.0004359
3198.24	0.0003995
3209.81	0.0003952
3221.39	0.00033519
3232.96	0.00032766
3244.53	0.0002392
3256.11	0.0002
3267.68	0.000163
3279.26	0.000171
3290.83	0.000126
3302.4	0.0001861
3313.98	3.3e-05
3325.55	8.2e-05
3337.13	8e-05
3348.7	0.000119
3360.27	9.9e-05
3371.85	8.6e-05
3383.42	8.6e-05
3395	6.8e-05
3406.57	9.4e-05
3418.14	0
3429.72	8.1e-05
3441.29	8.2e-05
3452.86	6.9e-05
3464.44	8.9e-05
3476.01	2e-05
3487.59	8e-05
3499.16	0.000136
3510.73	1e-06
3522.31	0.000145
3533.88	0.000136
3545.46	0.000155
3557.03	5.6e-05
3568.6	5.3e-05
3580.18	5.2e-05
3591.75	8e-05
3603.33	9.4e-05
3614.9	3.7e-05
3626.47	5e-05
3638.05	8.2e-05
3649.62	6.9e-05
3661.2	7.1e-05
3672.77	0.000108
3684.34	8.7e-05
3695.92	6.4e-05
3707.49	8.2e-05
3719.07	7.5e-05
3730.64	7.5e-05
3742.21	5.7e-05
3753.79	0.000111
3765.36	0.000107
3776.94	0.000155
3788.51	0.000172
3800.08	0.0001846
3811.66	0.000168
3823.23	0.0001945
3834.81	0.0001923
3846.38	0.0002218
3857.95	0.000141
3869.53	0.0002281
3881.1	0.000192
3892.68	0.00027244
3904.25	0.00031343
3915.82	0.00026846
3927.4	0.00026557
3938.97	0.0002354
3950.55	0.0002341
3962.12	0.0002467
3973.69	0.000193
3985.27	0.000248
3996.84	0.0002413
