Infrared Spectrum: TETRACYCLINE HYDROCHLORIDE
Formula: C22 H25 Cl N2 O8
CAS: 64-75-5
State: SOLID (NUJOL MULL)
Melting point: 214 C DECOMP.
Class: COBLENTZ III
Instrument: PERKIN-ELMER 21 (GRATING)
Resolution: 2
Origin: THE SQUIBB INSTITUTE FOR MEDICAL RESEARCH
1/CM	TRANSMITTANCE
658	0.783
667	0.6418
676	0.6854
685	0.6166
694	0.4956
703	0.5961
712	0.6773
721	0.7306
730	0.7303
739	0.6208
748	0.6964
757	0.7719
766	0.7552
775	0.7496
784	0.731
793	0.7369
802	0.8496
811	0.878
820	0.7831
829	0.8327
838	0.7123
847	0.7209
856	0.5744
865	0.4008
874	0.768
883	0.8471
892	0.8625
901	0.8823
910	0.8728
919	0.849
928	0.8059
937	0.6733
946	0.5845
955	0.6269
964	0.5153
973	0.7978
982	0.8151
991	0.7934
1000	0.6244
1009	0.7031
1018	0.7441
1027	0.6541
1036	0.3744
1045	0.488
1054	0.6541
1063	0.659
1072	0.735
1081	0.7491
1090	0.746
1099	0.7672
1108	0.6846
1117	0.7146
1126	0.6188
1135	0.4448
1144	0.556
1153	0.6357
1162	0.6748
1171	0.5813
1180	0.6022
1189	0.6683
1198	0.6122
1207	0.5857
1216	0.4334
1225	0.2184
1234	0.3742
1243	0.3498
1252	0.54
1261	0.5206
1270	0.4314
1279	0.4123
1288	0.4301
1297	0.4325
1306	0.3721
1315	0.3461
1324	0.3574
1333	0.3654
1342	0.33
1351	0.2168
1360	0.2417
1369	0.3141
1378	0.3181
1387	0.413
1396	0.4953
1405	0.5092
1414	0.482
1423	0.4609
1432	0.4003
1441	0.298
1450	0.202
1459	0.2221
1468	0.2779
1477	0.4821
1486	0.5064
1495	0.4783
1504	0.3893
1513	0.3272
1522	0.3185
1531	0.3215
1540	0.3254
1549	0.3117
1558	0.2655
1567	0.2222
1576	0.1592
1585	0.1285
1594	0.1847
1603	0.1728
1612	0.1142
1621	0.1233
1630	0.2312
1639	0.2301
1648	0.2155
1657	0.1927
1666	0.1617
1675	0.1698
1684	0.2979
1693	0.5839
1702	0.6683
1711	0.7323
1720	0.7979
1729	0.8455
1738	0.9197
1747	0.947
1756	0.9623
1765	0.9738
1774	0.9803
1783	0.9856
1792	0.9902
1801	0.9933
1810	0.9949
1819	0.9967
1828	0.9985
1837	0.9997
1846	1.0009
1855	1.0016
1864	1.0022
1873	1.0022
1882	1.002
1891	1.0013
1900	0.9998
1909	0.9984
1918	0.9966
1927	0.9945
1936	0.9923
1945	0.9918
1954	0.9928
1963	0.9943
1972	0.9948
1981	0.9944
1990	0.994
1999	0.993
2008	0.9915
2017	0.9899
2026	0.9884
2035	0.9871
2044	0.9857
2053	0.9843
2062	0.983
2071	0.9816
2080	0.9803
2089	0.979
2098	0.977
2107	0.9749
2116	0.9727
2125	0.9706
2134	0.9687
2143	0.9667
2152	0.9648
2161	0.9627
2170	0.9603
2179	0.958
2188	0.9554
2197	0.952
2206	0.9485
2215	0.9451
2224	0.9408
2233	0.9365
2242	0.9322
2251	0.9247
2260	0.9172
2269	0.9096
2278	0.9013
2287	0.8942
2296	0.889
2305	0.8838
2314	0.8798
2323	0.8771
2332	0.8759
2341	0.8753
2350	0.8757
2359	0.8738
2368	0.8703
2377	0.8666
2386	0.8606
2395	0.8532
2404	0.8441
2413	0.8354
2422	0.8269
2431	0.8148
2440	0.8019
2449	0.7918
2458	0.7815
2467	0.7709
2476	0.7607
2485	0.7521
2494	0.7435
2503	0.7344
2512	0.7259
2521	0.7179
2530	0.708
2539	0.6964
2548	0.6838
2557	0.67
2566	0.6552
2575	0.6436
2584	0.6328
2593	0.6168
2602	0.6043
2611	0.5944
2620	0.5869
2629	0.5827
2638	0.5809
2647	0.5799
2656	0.5792
2665	0.5785
2674	0.577
2683	0.5728
2692	0.5659
2701	0.5544
2710	0.5476
2719	0.5438
2728	0.5406
2737	0.5373
2746	0.5338
2755	0.5299
2764	0.5237
2773	0.5148
2782	0.4959
2791	0.4718
2800	0.4188
2809	0.3466
2818	0.3133
2827	0.3125
2836	0.3131
2845	0.3144
2854	0.3157
2863	0.3172
2872	0.319
2881	0.3215
2890	0.3263
2899	0.3369
2908	0.353
2917	0.3758
2926	0.3923
2935	0.4075
2944	0.4226
2953	0.4374
2962	0.4499
2971	0.4647
2980	0.47
2989	0.4714
2998	0.4719
3007	0.4724
3016	0.4731
3025	0.4743
3034	0.4758
3043	0.4779
3052	0.4806
3061	0.4849
3070	0.4898
3079	0.4962
3088	0.5029
3097	0.5076
3106	0.5109
3115	0.5138
3124	0.5145
3133	0.5152
3142	0.5147
3151	0.5133
3160	0.5108
3169	0.5041
3178	0.4918
3187	0.4751
3196	0.4597
3205	0.4444
3214	0.4231
3223	0.3824
3232	0.3549
3241	0.3348
3250	0.3181
3259	0.3122
3268	0.3104
3277	0.312
3286	0.317
3295	0.3314
3304	0.3453
3313	0.3617
3322	0.3719
3331	0.3974
3340	0.4387
3349	0.4797
3358	0.5205
3367	0.5711
3376	0.691
3385	0.7131
3394	0.7239
3403	0.7341
3412	0.7466
3421	0.7712
3430	0.8094
3439	0.8241
3448	0.832
3457	0.8372
3466	0.8413
3475	0.844
3484	0.8467
3493	0.8493
3502	0.8512
3511	0.8529
3520	0.8546
3529	0.8564
3538	0.8581
3547	0.8598
3556	0.8615
3565	0.8633
3574	0.865
3583	0.8668
3592	0.8691
3601	0.8712
3610	0.8729
3619	0.8746
3628	0.8753
3637	0.8756
3646	0.8759
3655	0.8761
3664	0.8759
3673	0.8756
3682	0.8752
3691	0.8748
3700	0.8742
3709	0.8734
3718	0.8727
3727	0.8719
3736	0.8711
3745	0.8704
3754	0.8696
3763	0.8688
3772	0.8679
3781	0.8671
3790	0.8662
3799	0.8654
3808	0.8645
3817	0.8636
3826	0.8628
3835	0.8619
3844	0.8611
3853	0.8602
3862	0.8593
3871	0.8584
3880	0.8575
3889	0.8568
3898	0.8557
3907	0.8547
3916	0.8536
3925	0.8526
3934	0.8516
3943	0.8506
3952	0.8492
3961	0.8477
3970	0.8462
3979	0.8447
3988	0.8432
3997	0.8417
