Infrared Spectrum: N-(n-BUTYL)-N'-p-TOLUENE-SULFONYLUREA
Formula: C12 H18 N2 O3 S
CAS: 64-77-7
State: SOLUTION (7% IN CHCl3)
Class: COBLENTZ
Instrument: PERKIN-ELMER
Sampling: TRANSMISSION
Path length: 0.010 CM
Resolution: 4
Origin: ABBOTT LABORATORIES - WASHBURN
MICROMETERS	TRANSMITTANCE
2.045	0.969
2.07896	0.965
2.11293	0.965
2.14689	0.962
2.18086	0.952
2.21482	0.9539
2.24879	0.957
2.28275	0.9552
2.31672	0.952
2.35068	0.9481
2.38465	0.948
2.41861	0.954
2.45258	0.948
2.48654	0.948
2.52051	0.9482
2.55447	0.9501
2.58844	0.9521
2.6224	0.957
2.65637	0.9521
2.69033	0.9519
2.7243	0.947
2.75826	0.954
2.79223	0.9188
2.82619	0.897
2.86016	0.8839
2.89412	0.8206
2.92809	0.5285
2.96205	0.5861
2.99602	0.72
3.02998	0.758
3.06395	0.7301
3.09791	0.7001
3.13188	0.676
3.16584	0.666
3.19981	0.6601
3.23377	0.6284
3.26774	0.5793
3.3017	0.562
3.33567	0.5513
3.36963	0.4542
3.4036	0.4508
3.43756	0.5571
3.47153	0.546
3.50549	0.6315
3.53945	0.6963
3.57342	0.7242
3.60738	0.7474
3.64135	0.7762
3.67531	0.8002
3.70928	0.8212
3.74324	0.8311
3.77721	0.8512
3.81117	0.872
3.84514	0.873
3.8791	0.877
3.91307	0.887
3.94703	0.889
3.981	0.897
4.01496	0.899
4.04893	0.897
4.08289	0.892
4.11686	0.8939
4.15082	0.8989
4.18479	0.909
4.21875	0.909
4.25272	0.914
4.28668	0.9179
4.32065	0.9133
4.35461	0.909
4.38858	0.909
4.42254	0.909
4.45651	0.9022
4.49047	0.904
4.52444	0.911
4.5584	0.911
4.59237	0.9091
4.62633	0.9111
4.6603	0.9129
4.69426	0.914
4.72823	0.9111
4.76219	0.909
4.79616	0.911
4.83012	0.913
4.86409	0.913
4.89805	0.909
4.93202	0.911
4.96598	0.906
4.99995	0.908
5.03391	0.9078
5.06787	0.9043
5.10184	0.9013
5.1358	0.906
5.16977	0.8985
5.20373	0.8813
5.2377	0.8868
5.27166	0.8966
5.30563	0.8979
5.33959	0.899
5.37356	0.8981
5.40752	0.8967
5.44149	0.892
5.47545	0.8868
5.50942	0.8771
5.54338	0.8671
5.57735	0.868
5.61131	0.8657
5.64528	0.8503
5.67924	0.8294
5.71321	0.7835
5.74717	0.6236
5.78114	0.3343
5.8151	0.1706
5.84907	0.1442
5.88303	0.08
5.917	0.1311
5.95096	0.2539
5.98493	0.4084
6.01889	0.5882
6.05286	0.694
6.08682	0.7229
6.12079	0.7487
6.15475	0.7496
6.18872	0.732
6.22268	0.557
6.25665	0.6049
6.29061	0.663
6.32458	0.6181
6.35854	0.5242
6.39251	0.3939
6.42647	0.2028
6.46044	0.152
6.4944	0.1901
6.52836	0.2753
6.56233	0.3712
6.59629	0.4472
6.63026	0.5516
6.66422	0.5897
6.69819	0.5864
6.73215	0.642
6.76612	0.6071
6.80008	0.5377
6.83405	0.4644
6.86801	0.4518
6.90198	0.4268
6.93594	0.4117
6.96991	0.4152
7.00387	0.438
7.03784	0.4634
7.0718	0.485
7.10577	0.488
7.13973	0.466
7.1737	0.4318
7.20766	0.3633
7.24163	0.3647
7.27559	0.4309
7.30956	0.5013
7.34352	0.5152
7.37749	0.3862
7.41145	0.2489
7.44542	0.2189
7.47938	0.273
7.51335	0.3761
7.54731	0.4542
7.58128	0.5596
7.61524	0.6028
7.64921	0.5601
7.68317	0.648
7.71714	0.628
7.7511	0.5878
7.78507	0.606
7.81903	0.5845
7.853	0.5545
7.88696	0.541
7.92093	0.54
7.95489	0.5415
7.98885	0.5464
8.02282	0.5554
8.05678	0.5601
8.09075	0.56
8.12471	0.553
8.15868	0.5562
8.19264	0.5882
8.22661	0.6073
8.26057	0.629
8.29454	0.664
8.3285	0.7058
8.36247	0.727
8.39643	0.7188
8.4304	0.6013
8.46436	0.6102
8.49833	0.5983
8.53229	0.5197
8.56626	0.3073
8.60022	0.1533
8.63419	0.0412
8.66815	0.0568
8.70212	0.1873
8.73608	0.3837
8.77005	0.5203
8.80401	0.5914
8.83798	0.6135
8.87194	0.6101
8.90591	0.5851
8.93987	0.5701
8.97384	0.6052
9.0078	0.6055
9.04177	0.5857
9.07573	0.568
9.1097	0.5304
9.14366	0.3576
9.17763	0.2237
9.21159	0.3355
9.24556	0.4478
9.27952	0.6225
9.31349	0.6965
9.34745	0.7271
9.38142	0.7345
9.41538	0.7451
9.44935	0.7554
9.48331	0.7436
9.51727	0.7284
9.55124	0.704
9.5852	0.6736
9.61917	0.6952
9.65313	0.7298
9.6871	0.7702
9.72106	0.7996
9.75503	0.7973
9.78899	0.7197
9.82296	0.6108
9.85692	0.6554
9.89089	0.6175
9.92485	0.6003
9.95882	0.5927
9.99278	0.5962
10.0267	0.6115
10.0607	0.6243
10.0947	0.6502
10.1286	0.6722
10.1626	0.6976
10.1966	0.7028
10.2305	0.7128
10.2645	0.7214
10.2985	0.7313
10.3324	0.7516
10.3664	0.7705
10.4004	0.7768
10.4343	0.78
10.4683	0.7684
10.5023	0.745
10.5362	0.7125
10.5702	0.6751
10.6042	0.6493
10.6381	0.621
10.6721	0.6131
10.706	0.6197
10.74	0.6316
10.774	0.6528
10.8079	0.6791
10.8419	0.7128
10.8759	0.7459
10.9098	0.7515
10.9438	0.749
10.9778	0.7238
11.0117	0.7044
11.0457	0.6593
11.0797	0.6446
11.1136	0.6348
11.1476	0.623
11.1816	0.6092
11.2155	0.601
11.2495	0.6025
11.2834	0.604
11.3174	0.6105
11.3514	0.6173
11.3853	0.63
11.4193	0.6416
11.4533	0.6553
11.4872	0.664
11.5212	0.6752
11.5552	0.6864
11.5891	0.6893
11.6231	0.6891
11.6571	0.689
11.691	0.6808
11.725	0.6807
11.759	0.6828
11.7929	0.6996
11.8269	0.7087
11.8609	0.7213
11.8948	0.7296
11.9288	0.739
11.9627	0.7382
11.9967	0.739
12.0307	0.746
12.0646	0.7494
12.0986	0.749
12.1326	0.7459
12.1665	0.7283
12.2005	0.6995
12.2345	0.6184
12.2684	0.5384
12.3024	0.4721
12.3364	0.4666
12.3703	0.4937
12.4043	0.5328
12.4383	0.5863
12.4722	0.6209
12.5062	0.6443
12.5401	0.6625
12.5741	0.6696
12.6081	0.675
12.642	0.6832
12.676	0.6881
12.71	0.693
12.7439	0.6979
12.7779	0.7044
12.8119	0.7128
12.8458	0.7297
12.8798	0.744
12.9138	0.7562
12.9477	0.7789
12.9817	0.7876
13.0157	0.792
13.0496	0.798
13.0836	0.8079
13.1176	0.827
13.1515	0.8264
13.1855	0.833
13.2194	0.833
13.2534	0.8428
13.2874	0.85
13.3213	0.8558
13.3553	0.858
13.3893	0.862
13.4232	0.864
13.4572	0.867
13.4912	0.866
13.5251	0.8652
13.5591	0.8707
13.5931	0.87
13.627	0.879
13.661	0.879
13.695	0.877
13.7289	0.88
13.7629	0.887
13.7969	0.8904
13.8308	0.9075
13.8648	0.9053
13.8987	0.909
13.9327	0.907
13.9667	0.8883
14.0006	0.8655
14.0346	0.8459
14.0686	0.8296
14.1025	0.8115
14.1365	0.7826
14.1705	0.762
14.2044	0.7243
14.2384	0.6383
14.2724	0.63
14.3063	0.6498
14.3403	0.6637
14.3743	0.6736
14.4082	0.6804
14.4422	0.681
14.4761	0.6738
14.5101	0.664
14.5441	0.655
14.578	0.6484
14.612	0.6288
14.646	0.6105
14.6799	0.5865
14.7139	0.5719
14.7479	0.5503
14.7818	0.528
14.8158	0.4944
14.8498	0.478
14.8837	0.483
14.9177	0.4914
14.9517	0.502
14.9856	0.5137
15.0196	0.5229
15.0536	0.5132
15.0875	0.4742
15.1215	0.3984
15.1554	0.3657
15.1894	0.3755
15.2234	0.4093
15.2573	0.4688
15.2913	0.5209
15.3253	0.5996
15.3592	0.6288
15.3932	0.6747
