Infrared Spectrum: 21-HYDROXY PROGESTERONE
Formula: C21 H30 O3
CAS: 64-85-7
State: SOLUTION (0.2M IN CHCl3)
Class: COBLENTZ
Instrument: PERKIN-ELMER
Sampling: TRANSMISSION
Path length: 0.010 CM CELL
Resolution: 4
Origin: ABBOTT LABORATORIES - WASHBURN
MICROMETERS	TRANSMITTANCE
2.553	0.895
2.58634	0.888
2.61967	0.888
2.65301	0.8946
2.68634	0.8932
2.71968	0.886
2.75301	0.896
2.78635	0.8712
2.81968	0.8084
2.85302	0.7114
2.88635	0.7063
2.91969	0.7709
2.95302	0.811
2.98636	0.8359
3.01969	0.8548
3.05303	0.8629
3.08636	0.8812
3.1197	0.875
3.15303	0.878
3.18637	0.866
3.2197	0.8432
3.25304	0.8164
3.28637	0.7385
3.31971	0.5561
3.35304	0.3339
3.38638	0.279
3.41971	0.3454
3.45305	0.4241
3.48638	0.4717
3.51972	0.5994
3.55305	0.7981
3.58639	0.846
3.61972	0.8648
3.65306	0.8778
3.68639	0.88
3.71973	0.886
3.75306	0.885
3.7864	0.883
3.81973	0.886
3.85307	0.8899
3.8864	0.886
3.91974	0.893
3.95307	0.895
3.98641	0.891
4.01974	0.8861
4.05308	0.8731
4.08641	0.8651
4.11975	0.8712
4.15308	0.881
4.18642	0.9
4.21975	0.9
4.25309	0.891
4.28642	0.9
4.31976	0.906
4.35309	0.905
4.38643	0.91
4.41976	0.9149
4.4531	0.913
4.48643	0.9112
4.51977	0.91
4.5531	0.913
4.58644	0.911
4.61977	0.916
4.65311	0.916
4.68644	0.9062
4.71978	0.913
4.75311	0.918
4.78645	0.918
4.81978	0.9149
4.85312	0.9181
4.88645	0.9178
4.91979	0.916
4.95312	0.918
4.98646	0.913
5.01979	0.9129
5.05313	0.916
5.08646	0.916
5.1198	0.918
5.15313	0.918
5.18647	0.916
5.2198	0.918
5.25314	0.913
5.28647	0.9153
5.31981	0.911
5.35314	0.915
5.38648	0.913
5.41981	0.908
5.45315	0.9071
5.48648	0.9021
5.51982	0.9
5.55315	0.8922
5.58649	0.8906
5.61982	0.8793
5.65316	0.8684
5.68649	0.8529
5.71983	0.8146
5.75316	0.7508
5.7865	0.6577
5.81983	0.4116
5.85317	0.189
5.8865	0.3927
5.91984	0.363
5.95317	0.158
5.98651	0.0798
6.01984	0.0724
6.05318	0.2504
6.08651	0.403
6.11985	0.6008
6.15318	0.5284
6.18652	0.5135
6.21985	0.7276
6.25319	0.8089
6.28652	0.8343
6.31986	0.8507
6.35319	0.8623
6.38653	0.8611
6.41986	0.8669
6.4532	0.8806
6.48653	0.8818
6.51987	0.8792
6.5532	0.87
6.58654	0.8673
6.61987	0.8574
6.65321	0.8507
6.68654	0.8452
6.71988	0.8234
6.75321	0.7762
6.78655	0.6863
6.81988	0.6845
6.85322	0.6219
6.88655	0.4954
6.91989	0.5876
6.95322	0.5777
6.98656	0.5382
7.01989	0.6419
7.05323	0.6021
7.08656	0.5967
7.1199	0.6228
7.15323	0.6361
7.18657	0.5431
7.2199	0.5505
7.25324	0.5899
7.28657	0.6132
7.31991	0.6017
7.35324	0.5237
7.38658	0.5341
7.41991	0.5728
7.45325	0.6489
7.48658	0.5981
7.51992	0.5715
7.55325	0.7173
7.58659	0.7569
7.61992	0.7667
7.65326	0.7438
7.68659	0.6951
7.71993	0.6344
7.75327	0.5989
7.7866	0.5568
7.81994	0.4673
7.85327	0.3997
7.88661	0.4188
7.91994	0.5374
7.95328	0.56
7.98661	0.55
8.01995	0.5051
8.05328	0.4623
8.08662	0.4405
8.11995	0.3869
8.15329	0.3882
8.18662	0.4109
8.21996	0.4459
8.25329	0.4716
8.28663	0.4811
8.31996	0.5066
8.3533	0.5853
8.38663	0.6111
8.41997	0.608
8.4533	0.6356
8.48664	0.7299
8.51997	0.7662
8.55331	0.8019
8.58664	0.8192
8.61998	0.823
8.65331	0.8223
8.68665	0.83
8.71998	0.8244
8.75332	0.811
8.78665	0.7859
8.81999	0.7794
8.85332	0.7463
8.88666	0.6768
8.91999	0.673
8.95333	0.6969
8.98666	0.6822
9.02	0.6798
9.05333	0.7167
9.08667	0.7076
9.12	0.646
9.15334	0.5648
9.18667	0.5869
9.22001	0.5718
9.25334	0.4647
9.28668	0.326
9.32001	0.2563
9.35335	0.3537
9.38668	0.4525
9.42002	0.4564
9.45335	0.4828
9.48669	0.5732
9.52002	0.6775
9.55336	0.7232
9.58669	0.7269
9.62003	0.7037
9.65336	0.7457
9.6867	0.7656
9.72003	0.782
9.75337	0.7765
9.7867	0.7555
9.82004	0.7244
9.85337	0.7062
9.88671	0.6979
9.92004	0.7377
9.95338	0.7584
9.98671	0.7704
10.02	0.7851
10.0534	0.792
10.0867	0.7875
10.1201	0.7787
10.1534	0.787
10.1867	0.7994
10.2201	0.813
10.2534	0.82
10.2867	0.8109
10.3201	0.7982
10.3534	0.7817
10.3867	0.7757
10.4201	0.7688
10.4534	0.7432
10.4867	0.7206
10.5201	0.7023
10.5534	0.692
10.5867	0.6785
10.6201	0.6759
10.6534	0.7288
10.6867	0.7703
10.7201	0.792
10.7534	0.795
10.7868	0.797
10.8201	0.795
10.8534	0.793
10.8868	0.7886
10.9201	0.7516
10.9534	0.7277
10.9868	0.6844
11.0201	0.633
11.0534	0.663
11.0868	0.6899
11.1201	0.6979
11.1534	0.7476
11.1868	0.782
11.2201	0.7997
11.2534	0.813
11.2868	0.818
11.3201	0.82
11.3534	0.8168
11.3868	0.805
11.4201	0.7752
11.4535	0.732
11.4868	0.6652
11.5201	0.6074
11.5535	0.5873
11.5868	0.6244
11.6201	0.7
11.6535	0.7635
11.6868	0.813
11.7201	0.8337
11.7535	0.8416
11.7868	0.843
11.8201	0.8398
11.8535	0.8198
11.8868	0.8097
11.9201	0.808
11.9535	0.8181
11.9868	0.828
12.0201	0.833
12.0535	0.836
12.0868	0.838
12.1202	0.843
12.1535	0.843
12.1868	0.8427
12.2202	0.845
12.2535	0.853
12.2868	0.856
12.3202	0.8558
12.3535	0.858
12.3868	0.8554
12.4202	0.856
12.4535	0.858
12.4868	0.862
12.5202	0.863
12.5535	0.8689
12.5868	0.871
12.6202	0.8718
12.6535	0.873
12.6868	0.8693
12.7202	0.863
12.7535	0.863
12.7869	0.8575
12.8202	0.856
12.8535	0.858
12.8869	0.858
12.9202	0.85
12.9535	0.8513
12.9869	0.856
13.0202	0.8531
13.0535	0.853
13.0869	0.8509
13.1202	0.8648
13.1535	0.866
13.1869	0.871
13.2202	0.87
13.2535	0.868
13.2869	0.865
13.3202	0.863
13.3536	0.8566
13.3869	0.852
13.4202	0.8556
13.4536	0.85
13.4869	0.8506
13.5202	0.855
13.5536	0.8555
13.5869	0.8569
13.6202	0.856
13.6536	0.855
13.6869	0.856
13.7202	0.855
13.7536	0.855
13.7869	0.853
13.8202	0.855
13.8536	0.853
13.8869	0.8508
13.9202	0.8378
13.9536	0.8309
13.9869	0.826
14.0203	0.823
14.0536	0.82
14.0869	0.816
14.1203	0.811
14.1536	0.82
14.1869	0.821
14.2203	0.8185
14.2536	0.821
14.2869	0.821
14.3203	0.8293
14.3536	0.8433
14.3869	0.84
14.4203	0.8368
14.4536	0.8354
14.4869	0.8289
14.5203	0.8114
14.5536	0.8045
14.5869	0.7936
14.6203	0.7751
14.6536	0.7709
14.687	0.7738
14.7203	0.7831
14.7536	0.7939
14.787	0.8064
14.8203	0.8163
14.8536	0.83
14.887	0.8301
14.9203	0.831
14.9536	0.83
