Infrared Spectrum: LACTOSE MONOHYDRATE
Formula: C12 H22 O11  * H2 O
CAS: 64044-51-5
State: SOLID (SPLIT MULL, FLUOROLUBE FOR 3800-1333 AND NUJOL FOR 1333-460 CM ^-^1)
Class: COBLENTZ III
Instrument: DOW KBr FOREPRISM-GRATING
Instrument parameters: BLAZED AT 3.5, 12.0, 20.0 MICRON, CHANGED AT 5.0, 7.5, 14.9 MICRON
Sampling: TRANSMISSION
Resolution: 4
Origin: DOW CHEMICAL COMPANY
1/CM	TRANSMITTANCE
457.993	0.797
466.744	0.786
475.496	0.806
484.247	0.858
492.999	0.884
501.75	0.878
510.502	0.861
519.253	0.835
528.005	0.81
536.756	0.778
545.508	0.693
554.259	0.48
563.011	0.635
571.762	0.591
580.513	0.621
589.265	0.631
598.016	0.564
606.768	0.427
615.519	0.479
624.271	0.567
633.022	0.428
641.774	0.576
650.525	0.606
659.277	0.642
668.028	0.609
676.779	0.564
685.531	0.617
694.282	0.682
703.034	0.632
711.785	0.516
720.537	0.435
729.288	0.404
738.04	0.401
746.791	0.38
755.543	0.353
764.294	0.332
773.046	0.308
781.797	0.254
790.548	0.557
799.3	0.709
808.051	0.794
816.803	0.852
825.554	0.894
834.306	0.928
843.057	0.943
851.809	0.949
860.56	0.945
869.312	0.887
878.063	0.491
886.814	0.886
895.566	0.804
904.317	0.763
913.069	0.854
921.82	0.891
930.572	0.932
939.323	0.919
948.075	0.894
956.826	0.868
965.578	0.832
974.329	0.76
983.081	0.576
991.832	0.401
1000.58	0.506
1009.33	0.404
1018.09	0.2239
1026.84	0.183
1035.59	0.061
1044.34	0.158
1053.09	0.289
1061.84	0.157
1070.6	0.094
1079.35	0.16
1088.1	0.136
1096.85	0.065
1105.6	0.282
1114.35	0.143
1123.1	0.226
1131.86	0.343
1140.61	0.18
1149.36	0.2641
1158.11	0.536
1166.86	0.287
1175.61	0.457
1184.36	0.715
1193.12	0.742
1201.87	0.527
1210.62	0.726
1219.37	0.724
1228.12	0.845
1236.87	0.854
1245.62	0.732
1254.38	0.631
1263.13	0.512
1271.88	0.691
1280.63	0.726
1289.38	0.743
1298.13	0.612
1306.88	0.66
1315.64	0.689
1324.39	0.536
1333.14	0.5
1341.89	0.354
1350.64	0.469
1359.39	0.438
1368.14	0.472
1376.9	0.536
1385.65	0.478
1394.4	0.491
1403.15	0.631
1411.9	0.55
1420.65	0.467
1429.4	0.456
1438.16	0.469
1446.91	0.575
1455.66	0.573
1464.41	0.719
1473.16	0.713
1481.91	0.835
1490.67	0.867
1499.42	0.884
1508.17	0.897
1516.92	0.906
1525.67	0.915
1534.42	0.92
1543.17	0.926
1551.93	0.932
1560.68	0.936
1569.43	0.941
1578.18	0.943
1586.93	0.941
1595.68	0.936
1604.43	0.931
1613.19	0.924
1621.94	0.912
1630.69	0.9
1639.44	0.878
1648.19	0.857
1656.94	0.832
1665.69	0.85
1674.45	0.887
1683.2	0.919
1691.95	0.934
1700.7	0.947
1709.45	0.958
1718.2	0.964
1726.95	0.965
1735.71	0.965
1744.46	0.967
1753.21	0.968
1761.96	0.971
1770.71	0.969
1779.46	0.968
1788.21	0.971
1796.97	0.969
1805.72	0.972
1814.47	0.972
1823.22	0.973
1831.97	0.976
1840.72	0.972
1849.47	0.971
1858.23	0.971
1866.98	0.969
1875.73	0.969
1884.48	0.967
1893.23	0.968
1901.98	0.969
1910.74	0.968
1919.49	0.971
1928.24	0.969
1936.99	0.969
1945.74	0.968
1954.49	0.967
1963.24	0.967
1972	0.967
1980.75	0.967
1989.5	0.967
1998.25	0.964
2007	0.968
2015.75	0.965
2024.5	0.96
2033.26	0.958
2042.01	0.954
2050.76	0.952
2059.51	0.949
2068.26	0.943
2077.01	0.939
2085.76	0.938
2094.52	0.936
2103.27	0.936
2112.02	0.932
2120.77	0.931
2129.52	0.93
2138.27	0.93
2147.02	0.9259
2155.78	0.923
2164.53	0.923
2173.28	0.921
2182.03	0.92
2190.78	0.92
2199.53	0.92
2208.28	0.9171
2217.04	0.92
2225.79	0.917
2234.54	0.9089
2243.29	0.906
2252.04	0.9038
2260.79	0.9009
2269.54	0.8979
2278.3	0.893
2287.05	0.891
2295.8	0.8888
2304.55	0.886
2313.3	0.88
2322.05	0.8791
2330.81	0.882
2339.56	0.878
2348.31	0.8799
2357.06	0.879
2365.81	0.876
2374.56	0.8759
2383.31	0.8748
2392.07	0.872
2400.82	0.868
2409.57	0.8639
2418.32	0.8639
2427.07	0.864
2435.82	0.8597
2444.57	0.8539
2453.33	0.85
2462.08	0.8468
2470.83	0.8447
2479.58	0.8388
2488.33	0.834
2497.08	0.8308
2505.83	0.826
2514.59	0.8198
2523.34	0.8158
2532.09	0.813
2540.84	0.813
2549.59	0.813
2558.34	0.815
2567.09	0.812
2575.85	0.8088
2584.6	0.804
2593.35	0.8008
2602.1	0.7948
2610.85	0.7892
2619.6	0.7788
2628.35	0.7672
2637.11	0.7516
2645.86	0.7356
2654.61	0.726
2663.36	0.7128
2672.11	0.7134
2680.86	0.721
2689.62	0.7198
2698.37	0.715
2707.12	0.709
2715.87	0.7015
2724.62	0.6908
2733.37	0.6745
2742.12	0.6678
2750.88	0.6648
2759.63	0.661
2768.38	0.6595
2777.13	0.6562
2785.88	0.6485
2794.63	0.638
2803.38	0.6295
2812.14	0.621
2820.89	0.6134
2829.64	0.5969
2838.39	0.5811
2847.14	0.5613
2855.89	0.5459
2864.64	0.5336
2873.4	0.4859
2882.15	0.465
2890.9	0.441
2899.65	0.3541
2908.4	0.4257
2917.15	0.456
2925.9	0.4588
2934.66	0.39
2943.41	0.4826
2952.16	0.5661
2960.91	0.593
2969.66	0.5867
2978.41	0.521
2987.16	0.5453
2995.92	0.5623
3004.67	0.5467
3013.42	0.5267
3022.17	0.503
3030.92	0.4856
3039.67	0.4676
3048.42	0.4456
3057.18	0.4253
3065.93	0.3976
3074.68	0.3779
3083.43	0.3556
3092.18	0.3286
3100.93	0.3058
3109.69	0.2844
3118.44	0.2654
3127.19	0.2445
3135.94	0.2189
3144.69	0.1992
3153.44	0.1726
3162.19	0.1558
3170.95	0.1393
3179.7	0.124
3188.45	0.1068
3197.2	0.1
3205.95	0.094
3214.7	0.0906
3223.45	0.087
3232.21	0.084
3240.96	0.0826
3249.71	0.079
3258.46	0.0772
3267.21	0.0716
3275.96	0.0702
3284.71	0.072
3293.47	0.075
3302.22	0.076
3310.97	0.0703
3319.72	0.0636
3328.47	0.0496
3337.22	0.043
3345.97	0.0464
3354.73	0.0613
3363.48	0.064
3372.23	0.0592
3380.98	0.057
3389.73	0.0687
3398.48	0.1159
3407.23	0.1595
3415.99	0.2192
3424.74	0.2769
3433.49	0.3393
3442.24	0.3853
3450.99	0.4437
3459.74	0.4943
3468.49	0.5563
3477.25	0.5844
3486	0.603
3494.75	0.593
3503.5	0.55
3512.25	0.442
3521	0.3725
3529.76	0.4387
3538.51	0.6107
3547.26	0.7198
3556.01	0.8146
3564.76	0.8731
3573.51	0.9085
3582.26	0.9413
3591.02	0.9651
3599.77	0.9785
3608.52	0.9856
3617.27	0.9905
3626.02	1.0005
3634.77	1.0015
3643.52	1.002
3652.28	1.0005
3661.03	0.997
3669.78	0.9934
3678.53	0.99
3687.28	0.984
3696.03	0.984
3704.78	0.982
3713.54	0.979
3722.29	0.978
3731.04	0.9743
3739.79	0.9714
3748.54	0.9674
3757.29	0.964
3766.04	0.9588
3774.8	0.9574
3783.55	0.954
3792.3	0.9524
