Infrared Spectrum: 4-BROMO-2,6-DI-SEC-BUTYL PHENOL
Formula: C14 H21 Br O
CAS: 64080-14-4
State: SOLUTION (10% CCl4 FOR 5000-1330, 10% CS2 FOR 1330-625 CM^-^1)
Class: COBLENTZ
Instrument: Not specified, most likely a prism, grating, or hybrid spectrometer.
Sampling: TRANSMISSION
Path length: 0.0112 CM, 0.0112 CM
Resolution: 4
Origin: DOW CHEMICAL COMPANY
MICROMETERS	TRANSMITTANCE
2.062	0.9
2.10312	0.903
2.14423	0.903
2.18535	0.902
2.22647	0.888
2.26758	0.883
2.3087	0.891
2.34982	0.896
2.39093	0.896
2.43205	0.898
2.47317	0.898
2.51428	0.898
2.5554	0.895
2.59651	0.9
2.63763	0.908
2.67875	0.896
2.71986	0.826
2.76098	0.625
2.8021	0.871
2.84321	0.878
2.88433	0.891
2.92545	0.898
2.96656	0.898
3.00768	0.905
3.0488	0.905
3.08991	0.908
3.13103	0.891
3.17215	0.893
3.21326	0.888
3.25438	0.872
3.2955	0.826
3.33661	0.553
3.37773	0.178
3.41884	0.4
3.45996	0.45
3.50108	0.78
3.54219	0.86
3.58331	0.888
3.62443	0.888
3.66554	0.898
3.70666	0.907
3.74778	0.908
3.78889	0.908
3.83001	0.912
3.87113	0.912
3.91224	0.919
3.95336	0.924
3.99448	0.92
4.03559	0.92
4.07671	0.919
4.11783	0.919
4.15894	0.922
4.20006	0.92
4.24118	0.917
4.28229	0.91
4.32341	0.91
4.36452	0.917
4.40564	0.929
4.44676	0.938
4.48787	0.941
4.52899	0.945
4.57011	0.943
4.61122	0.946
4.65234	0.946
4.69346	0.946
4.73457	0.95
4.77569	0.946
4.81681	0.946
4.85792	0.946
4.89904	0.946
4.94016	0.943
4.98127	0.931
5.02239	0.945
5.06351	0.946
5.10462	0.946
5.14574	0.945
5.18685	0.948
5.22797	0.946
5.26909	0.945
5.3102	0.948
5.35132	0.941
5.39244	0.948
5.43355	0.943
5.47467	0.948
5.51579	0.95
5.5569	0.951
5.59802	0.948
5.63914	0.931
5.68025	0.902
5.72137	0.888
5.76249	0.917
5.8036	0.938
5.84472	0.938
5.88584	0.936
5.92695	0.939
5.96807	0.939
6.00918	0.943
6.0503	0.932
6.09142	0.915
6.13253	0.89
6.17365	0.833
6.21477	0.733
6.25588	0.668
6.297	0.62
6.33812	0.604
6.37923	0.554
6.42035	0.501
6.46147	0.546
6.50258	0.635
6.5437	0.683
6.58482	0.725
6.62593	0.768
6.66705	0.774
6.70817	0.738
6.74928	0.546
6.7904	0.271
6.83152	0.13
6.87263	0.233
6.91375	0.39
6.95486	0.527
6.99598	0.567
7.0371	0.768
7.07821	0.829
7.11933	0.838
7.16045	0.785
7.20156	0.582
7.24268	0.625
7.2838	0.738
7.32491	0.697
7.36603	0.64
7.40715	0.735
7.44826	0.752
7.48938	0.752
7.5305	0.706
7.57161	0.601
7.61273	0.496
7.65385	0.536
7.69496	0.609
7.73608	0.597
7.77719	0.701
7.81831	0.701
7.85943	0.697
7.90054	0.646
7.94166	0.584
7.98278	0.651
8.02389	0.704
8.06501	0.695
8.10613	0.731
8.14724	0.75
8.18836	0.709
8.22948	0.609
8.27059	0.45
8.31171	0.231
8.35283	0.132
8.39394	0.151
8.43506	0.417
8.47618	0.627
8.51729	0.707
8.55841	0.689
8.59953	0.604
8.64064	0.436
8.68176	0.319
8.72287	0.445
8.76399	0.63
8.80511	0.733
8.84622	0.766
8.88734	0.78
8.92846	0.792
8.96957	0.8
9.01069	0.802
9.05181	0.804
9.09292	0.819
9.13404	0.84
9.17516	0.855
9.21627	0.857
9.25739	0.835
9.29851	0.809
9.33962	0.807
9.38074	0.865
9.42186	0.9
9.46297	0.912
9.50409	0.92
9.5452	0.926
9.58632	0.924
9.62744	0.917
9.66855	0.89
9.70967	0.847
9.75079	0.819
9.7919	0.829
9.83302	0.869
9.87414	0.852
9.91525	0.817
9.95637	0.843
9.99749	0.895
10.0386	0.907
10.0797	0.91
10.1208	0.914
10.162	0.915
10.2031	0.912
10.2442	0.905
10.2853	0.888
10.3264	0.859
10.3675	0.84
10.4087	0.883
10.4498	0.917
10.4909	0.941
10.532	0.948
10.5731	0.951
10.6142	0.948
10.6554	0.948
10.6965	0.943
10.7376	0.943
10.7787	0.941
10.8198	0.929
10.8609	0.912
10.902	0.898
10.9432	0.876
10.9843	0.871
11.0254	0.864
11.0665	0.864
11.1076	0.869
11.1487	0.871
11.1899	0.864
11.231	0.843
11.2721	0.81
11.3132	0.762
11.3543	0.725
11.3954	0.668
11.4366	0.568
11.4777	0.402
11.5188	0.273
11.5599	0.331
11.601	0.494
11.6421	0.615
11.6833	0.692
11.7244	0.737
11.7655	0.778
11.8066	0.812
11.8477	0.841
11.8888	0.857
11.93	0.862
11.9711	0.857
12.0122	0.853
12.0533	0.862
12.0944	0.871
12.1355	0.869
12.1767	0.859
12.2178	0.857
12.2589	0.865
12.3	0.869
12.3411	0.867
12.3822	0.862
12.4234	0.853
12.4645	0.838
12.5056	0.829
12.5467	0.823
12.5878	0.823
12.6289	0.829
12.6701	0.838
12.7112	0.833
12.7523	0.814
12.7934	0.79
12.8345	0.781
12.8756	0.793
12.9168	0.812
12.9579	0.829
12.999	0.833
13.0401	0.802
13.0812	0.749
13.1223	0.702
13.1635	0.718
13.2046	0.771
13.2457	0.8
13.2868	0.804
13.3279	0.793
13.369	0.771
13.4102	0.749
13.4513	0.73
13.4924	0.716
13.5335	0.69
13.5746	0.651
13.6157	0.582
13.6569	0.534
13.698	0.522
13.7391	0.541
13.7802	0.551
13.8213	0.539
13.8624	0.537
13.9036	0.573
13.9447	0.625
13.9858	0.675
14.0269	0.69
14.068	0.699
14.1091	0.702
14.1503	0.709
14.1914	0.721
14.2325	0.73
14.2736	0.733
14.3147	0.733
14.3558	0.728
14.397	0.723
14.4381	0.719
14.4792	0.713
14.5203	0.709
14.5614	0.701
14.6025	0.695
14.6437	0.685
14.6848	0.678
14.7259	0.668
14.767	0.661
14.8081	0.649
14.8492	0.64
14.8904	0.628
14.9315	0.618
14.9726	0.609
15.0137	0.594
15.0548	0.582
15.0959	0.568
15.1371	0.556
15.1782	0.546
15.2193	0.532
15.2604	0.524
15.3015	0.517
15.3426	0.505
15.3837	0.501
15.4249	0.491
15.466	0.484
15.5071	0.477
15.5482	0.47
15.5893	0.465
15.6304	0.458
15.6716	0.451
15.7127	0.446
15.7538	0.439
15.7949	0.431
15.836	0.431
15.8771	0.434
