Infrared Spectrum: PHENOL, 2,3,4,6-TETRANITRO
Formula: C6 H2 N4 O9
CAS: 641-16-7
State: SOLID (KBr PELLET)
Melting point: 142-145 C
Class: COBLENTZ
Instrument: Not specified, most likely a prism, grating, or hybrid spectrometer.
Sampling: TRANSMISSION
Resolution: 4
Origin: TENNESSEE EASTMAN COMPANY, RESEARCH LABORATORIES
MICROMETERS	TRANSMITTANCE
2.307	0.871
2.3479	0.871
2.38879	0.88
2.42969	0.885
2.47058	0.888
2.51148	0.888
2.55238	0.888
2.59327	0.886
2.63417	0.89
2.67507	0.892
2.71596	0.837
2.75686	0.717
2.79775	0.681
2.83865	0.66
2.87955	0.609
2.92044	0.58
2.96134	0.578
3.00223	0.599
3.04313	0.606
3.08403	0.566
3.12492	0.498
3.16582	0.441
3.20672	0.561
3.24761	0.477
3.28851	0.702
3.3294	0.751
3.3703	0.765
3.4112	0.746
3.45209	0.761
3.49299	0.797
3.53389	0.821
3.57478	0.84
3.61568	0.852
3.65657	0.861
3.69747	0.864
3.73837	0.866
3.77926	0.88
3.82016	0.881
3.86105	0.89
3.90195	0.904
3.94285	0.91
3.98374	0.912
4.02464	0.91
4.06554	0.909
4.10643	0.912
4.14733	0.919
4.18822	0.921
4.22912	0.921
4.27002	0.928
4.31091	0.926
4.35181	0.929
4.3927	0.938
4.4336	0.94
4.4745	0.943
4.51539	0.943
4.55629	0.943
4.59719	0.945
4.63808	0.946
4.67898	0.948
4.71987	0.948
4.76077	0.948
4.80167	0.95
4.84256	0.95
4.88346	0.95
4.92435	0.95
4.96525	0.952
5.00615	0.958
5.04704	0.955
5.08794	0.952
5.12884	0.952
5.16973	0.952
5.21063	0.95
5.25152	0.952
5.29242	0.948
5.33332	0.936
5.37421	0.94
5.41511	0.95
5.456	0.946
5.4969	0.95
5.5378	0.955
5.57869	0.95
5.61959	0.945
5.66049	0.95
5.70138	0.929
5.74228	0.921
5.78317	0.909
5.82407	0.89
5.86497	0.863
5.90586	0.859
5.94676	0.828
5.98766	0.76
6.02855	0.559
6.06945	0.368
6.11034	0.155
6.15124	0.08
6.19214	0.224
6.23303	0.351
6.27393	0.142
6.31482	0.061
6.35572	0.102
6.39662	0.104
6.43751	0.061
6.47841	0.138
6.51931	0.313
6.5602	0.539
6.6011	0.532
6.64199	0.642
6.68289	0.703
6.72379	0.71
6.76468	0.571
6.80558	0.613
6.84647	0.601
6.88737	0.465
6.92827	0.417
6.96916	0.467
7.01006	0.65
7.05096	0.72
7.09185	0.738
7.13275	0.729
7.17364	0.7
7.21454	0.58
7.25544	0.416
7.29633	0.268
7.33723	0.222
7.37812	0.083
7.41902	0.07
7.45992	0.058
7.50081	0.066
7.54171	0.142
7.58261	0.179
7.6235	0.232
7.6644	0.273
7.70529	0.405
7.74619	0.472
7.78709	0.517
7.82798	0.589
7.86888	0.659
7.90977	0.693
7.95067	0.703
7.99157	0.618
8.03246	0.688
8.07336	0.739
8.11426	0.768
8.15515	0.78
8.19605	0.775
8.23694	0.755
8.27784	0.731
8.31874	0.782
8.35963	0.835
8.40053	0.84
8.44143	0.76
8.48232	0.58
8.52322	0.44
8.56411	0.604
8.60501	0.756
8.64591	0.809
8.6868	0.794
8.7277	0.708
8.76859	0.52
8.80949	0.378
8.85039	0.386
8.89128	0.577
8.93218	0.696
8.97308	0.77
9.01397	0.827
9.05487	0.854
9.09576	0.875
9.13666	0.9
9.17756	0.917
9.21845	0.922
9.25935	0.924
9.30024	0.926
9.34114	0.929
9.38204	0.934
9.42293	0.933
9.46383	0.931
9.50473	0.933
9.54562	0.933
9.58652	0.928
9.62741	0.926
9.66831	0.917
9.70921	0.898
9.7501	0.856
9.791	0.785
9.83189	0.731
9.87279	0.821
9.91369	0.866
9.95458	0.898
9.99548	0.919
10.0364	0.936
10.0773	0.945
10.1182	0.95
10.1591	0.948
10.2	0.953
10.2409	0.953
10.2818	0.953
10.3226	0.948
10.3635	0.95
10.4044	0.952
10.4453	0.955
10.4862	0.953
10.5271	0.904
10.568	0.876
10.6089	0.919
10.6498	0.859
10.6907	0.705
10.7316	0.621
10.7725	0.523
10.8134	0.542
10.8543	0.722
10.8952	0.828
10.9361	0.868
10.977	0.861
11.0179	0.765
11.0588	0.666
11.0997	0.541
11.1406	0.609
11.1815	0.76
11.2224	0.856
11.2633	0.898
11.3042	0.922
11.3451	0.934
11.3859	0.943
11.4268	0.946
11.4677	0.955
11.5086	0.96
11.5495	0.962
11.5904	0.962
11.6313	0.964
11.6722	0.964
11.7131	0.965
11.754	0.967
11.7949	0.967
11.8358	0.964
11.8767	0.96
11.9176	0.96
11.9585	0.953
11.9994	0.946
12.0403	0.912
12.0812	0.914
12.1221	0.924
12.163	0.905
12.2039	0.799
12.2448	0.566
12.2857	0.491
12.3266	0.784
12.3675	0.893
12.4084	0.928
12.4492	0.934
12.4901	0.941
12.531	0.941
12.5719	0.924
12.6128	0.876
12.6537	0.71
12.6946	0.539
12.7355	0.717
12.7764	0.839
12.8173	0.842
12.8582	0.83
12.8991	0.849
12.94	0.835
12.9809	0.791
13.0218	0.852
13.0627	0.869
13.1036	0.875
13.1445	0.888
13.1854	0.897
13.2263	0.897
13.2672	0.892
13.3081	0.881
13.349	0.852
13.3899	0.803
13.4308	0.676
13.4717	0.602
13.5125	0.655
13.5534	0.746
13.5943	0.797
13.6352	0.811
13.6761	0.811
13.717	0.782
13.7579	0.71
13.7988	0.59
13.8397	0.489
13.8806	0.472
13.9215	0.568
13.9624	0.628
14.0033	0.659
14.0442	0.662
14.0851	0.619
14.126	0.553
14.1669	0.501
14.2078	0.493
14.2487	0.535
14.2896	0.594
14.3305	0.636
14.3714	0.671
14.4123	0.686
14.4532	0.693
14.4941	0.679
14.535	0.66
14.5759	0.647
14.6167	0.647
14.6576	0.669
14.6985	0.681
14.7394	0.688
14.7803	0.695
14.8212	0.702
14.8621	0.707
14.903	0.714
14.9439	0.72
14.9848	0.727
15.0257	0.734
15.0666	0.738
15.1075	0.741
15.1484	0.743
15.1893	0.741
15.2302	0.741
15.2711	0.743
15.312	0.746
15.3529	0.748
15.3938	0.751
15.4347	0.755
15.4756	0.755
15.5165	0.755
15.5574	0.753
15.5983	0.753
15.6392	0.75
15.68	0.748
15.7209	0.748
15.7618	0.748
15.8027	0.743
15.8436	0.739
15.8845	0.736
15.9254	0.734
15.9663	0.731
