Infrared Spectrum: 3-NITROPHTHALIC ANHYDRIDE
Formula: C8 H3 N O5
CAS: 641-70-3
State: SOLID (MINERAL OIL MULL)
Melting point: 162-164 C
Class: COBLENTZ
Instrument: Not specified, most likely a prism, grating, or hybrid spectrometer.
Sampling: TRANSMISSION
Resolution: 4
Origin: WYANDOTTE CHEMICALS CORP., WYANDOTTE, MICHIGAN, USA
MICROMETERS	TRANSMITTANCE
2.014	0.758
2.05488	0.764
2.09575	0.77
2.13663	0.776
2.1775	0.786
2.21838	0.793
2.25926	0.789
2.30013	0.796
2.34101	0.806
2.38188	0.817
2.42276	0.818
2.46364	0.818
2.50451	0.823
2.54539	0.832
2.58627	0.861
2.62714	0.835
2.66802	0.871
2.70889	0.861
2.74977	0.856
2.79065	0.863
2.83152	0.837
2.8724	0.825
2.91327	0.803
2.95415	0.767
2.99503	0.711
3.0359	0.606
3.07678	0.49
3.11765	0.384
3.15853	0.305
3.19941	0.271
3.24028	0.242
3.28116	0.263
3.32204	0.299
3.36291	0.282
3.40379	0.186
3.44466	0.182
3.48554	0.261
3.52642	0.276
3.56729	0.49
3.60817	0.558
3.64904	0.606
3.68992	0.644
3.7308	0.663
3.77167	0.675
3.81255	0.652
3.85342	0.668
3.8943	0.712
3.93518	0.729
3.97605	0.753
4.01693	0.767
4.0578	0.697
4.09868	0.709
4.13956	0.791
4.18043	0.829
4.22131	0.849
4.26219	0.849
4.30306	0.835
4.34394	0.87
4.38481	0.9
4.42569	0.926
4.46657	0.919
4.50744	0.917
4.54832	0.928
4.58919	0.941
4.63007	0.945
4.67095	0.947
4.71182	0.941
4.7527	0.962
4.79357	0.97
4.83445	0.97
4.87533	0.958
4.9162	0.943
4.95708	0.95
4.99796	0.952
5.03883	0.955
5.07971	0.945
5.12058	0.953
5.16146	0.972
5.20234	0.952
5.24321	0.945
5.28409	0.955
5.32496	0.94
5.36584	0.945
5.40672	0.928
5.44759	0.912
5.48847	0.929
5.52934	0.911
5.57022	0.876
5.6111	0.818
5.65197	0.729
5.69285	0.707
5.73372	0.577
5.7746	0.218
5.81548	0.152
5.85635	0.203
5.89723	0.294
5.93811	0.297
5.97898	0.28
6.01986	0.517
6.06073	0.591
6.10161	0.67
6.14249	0.7
6.18336	0.55
6.22424	0.692
6.26511	0.76
6.30599	0.704
6.34687	0.335
6.38774	0.502
6.42862	0.451
6.46949	0.321
6.51037	0.251
6.55125	0.461
6.59212	0.678
6.633	0.741
6.67388	0.76
6.71475	0.69
6.75563	0.425
6.7965	0.288
6.83738	0.37
6.87826	0.487
6.91913	0.574
6.96001	0.644
7.00088	0.7
7.04176	0.627
7.08264	0.386
7.12351	0.232
7.16439	0.295
7.20526	0.319
7.24614	0.367
7.28702	0.415
7.32789	0.437
7.36877	0.191
7.40964	0.164
7.45052	0.335
7.4914	0.49
7.53227	0.55
7.57315	0.572
7.61403	0.603
7.6549	0.635
7.69578	0.641
7.73665	0.664
7.77753	0.663
7.81841	0.625
7.85928	0.541
7.90016	0.406
7.94103	0.213
7.98191	0.131
8.02279	0.114
8.06366	0.16
8.10454	0.264
8.14541	0.358
8.18629	0.446
8.22717	0.471
8.26804	0.47
8.30892	0.56
8.3498	0.618
8.39067	0.654
8.43155	0.683
8.47242	0.714
8.5133	0.74
8.55418	0.752
8.59505	0.699
8.63593	0.553
8.6768	0.396
8.71768	0.432
8.75856	0.535
8.79943	0.658
8.84031	0.729
8.88118	0.724
8.92206	0.564
8.96294	0.695
9.00381	0.765
9.04469	0.801
9.08556	0.811
9.12644	0.834
9.16732	0.834
9.20819	0.842
9.24907	0.847
9.28995	0.82
9.33082	0.62
9.3717	0.567
9.41257	0.748
9.45345	0.791
9.49433	0.815
9.5352	0.834
9.57608	0.834
9.61695	0.849
9.65783	0.847
9.69871	0.849
9.73958	0.854
9.78046	0.858
9.82133	0.859
9.86221	0.861
9.90309	0.866
9.94396	0.864
9.98484	0.847
10.0257	0.825
10.0666	0.803
10.1075	0.841
10.1483	0.861
10.1892	0.863
10.2301	0.859
10.271	0.852
10.3118	0.844
10.3527	0.841
10.3936	0.844
10.4345	0.842
10.4754	0.842
10.5162	0.834
10.5571	0.827
10.598	0.81
10.6389	0.817
10.6797	0.813
10.7206	0.803
10.7615	0.8
10.8024	0.788
10.8432	0.774
10.8841	0.77
10.925	0.729
10.9659	0.543
11.0067	0.367
11.0476	0.425
11.0885	0.601
11.1294	0.664
11.1702	0.688
11.2111	0.699
11.252	0.68
11.2929	0.652
11.3338	0.615
11.3746	0.577
11.4155	0.552
11.4564	0.538
11.4973	0.55
11.5381	0.591
11.579	0.627
11.6199	0.659
11.6608	0.68
11.7016	0.709
11.7425	0.736
11.7834	0.753
11.8243	0.779
11.8651	0.798
11.906	0.801
11.9469	0.793
11.9878	0.704
12.0286	0.529
12.0695	0.541
12.1104	0.618
12.1513	0.649
12.1921	0.654
12.233	0.625
12.2739	0.565
12.3148	0.6
12.3557	0.663
12.3965	0.675
12.4374	0.637
12.4783	0.577
12.5192	0.504
12.56	0.435
12.6009	0.398
12.6418	0.411
12.6827	0.451
12.7235	0.471
12.7644	0.468
12.8053	0.452
12.8462	0.427
12.887	0.415
12.9279	0.463
12.9688	0.555
13.0097	0.634
13.0505	0.641
13.0914	0.617
13.1323	0.576
13.1732	0.512
13.2141	0.435
13.2549	0.376
13.2958	0.328
13.3367	0.316
13.3776	0.326
13.4184	0.348
13.4593	0.389
13.5002	0.456
13.5411	0.533
13.5819	0.605
13.6228	0.666
13.6637	0.709
13.7046	0.748
13.7454	0.774
13.7863	0.796
13.8272	0.803
13.8681	0.798
13.9089	0.781
13.9498	0.753
13.9907	0.719
14.0316	0.68
14.0724	0.634
14.1133	0.61
14.1542	0.577
14.1951	0.547
14.236	0.516
14.2768	0.49
14.3177	0.466
14.3586	0.452
14.3995	0.446
14.4403	0.439
14.4812	0.413
14.5221	0.37
14.563	0.338
14.6038	0.319
14.6447	0.341
14.6856	0.403
14.7265	0.468
14.7673	0.529
14.8082	0.581
14.8491	0.62
14.89	0.649
14.9308	0.666
14.9717	0.676
15.0126	0.682
15.0535	0.671
15.0944	0.629
15.1352	0.598
15.1761	0.591
15.217	0.605
15.2579	0.618
15.2987	0.622
15.3396	0.639
15.3805	0.663
15.4214	0.69
15.4622	0.707
15.5031	0.716
15.544	0.716
15.5849	0.719
15.6257	0.724
15.6666	0.719
15.7075	0.717
15.7484	0.716
15.7892	0.705
15.8301	0.705
15.871	0.7
15.9119	0.699
15.9527	0.69
