Infrared Spectrum: SUCCINIC ACID, DIMETHYL ESTER, 2-ISOPROPYLIDENE-3-(DIMETHOXYMETHYLENE)
Formula: C12 H18 O6
CAS: 6414-72-8
Boiling point: 95-110 C AT LESS THAN 0.5 mmHg
Class: COBLENTZ
Instrument: Not specified, most likely a prism, grating, or hybrid spectrometer.
Sampling: TRANSMISSION
Path length: SMEAR
Resolution: 4
Origin: TENNESSEE EASTMAN COMPANY, RESEARCH LABORATORIES
MICROMETERS	TRANSMITTANCE
2.061	0.957
2.1019	0.962
2.14279	0.964
2.18369	0.962
2.22459	0.947
2.26548	0.945
2.30638	0.952
2.34728	0.952
2.38818	0.952
2.42907	0.955
2.46997	0.959
2.51087	0.96
2.55176	0.965
2.59266	0.967
2.63356	0.969
2.67445	0.97
2.71535	0.969
2.75625	0.967
2.79714	0.965
2.83804	0.964
2.87894	0.962
2.91984	0.94
2.96073	0.941
3.00163	0.947
3.04253	0.95
3.08342	0.952
3.12432	0.953
3.16522	0.95
3.20611	0.938
3.24701	0.921
3.28791	0.817
3.3288	0.6
3.3697	0.401
3.4106	0.648
3.4515	0.767
3.49239	0.733
3.53329	0.919
3.57419	0.95
3.61508	0.962
3.65598	0.959
3.69688	0.957
3.73777	0.965
3.77867	0.965
3.81957	0.965
3.86046	0.96
3.90136	0.96
3.94226	0.965
3.98316	0.964
4.02405	0.959
4.06495	0.959
4.10585	0.962
4.14674	0.964
4.18764	0.967
4.22854	0.972
4.26943	0.976
4.31033	0.974
4.35123	0.97
4.39212	0.977
4.43302	0.979
4.47392	0.977
4.51481	0.977
4.55571	0.97
4.59661	0.962
4.63751	0.962
4.6784	0.964
4.7193	0.959
4.7602	0.952
4.80109	0.957
4.84199	0.964
4.88289	0.967
4.92378	0.967
4.96468	0.959
5.00558	0.959
5.04647	0.952
5.08737	0.955
5.12827	0.959
5.16917	0.96
5.21006	0.962
5.25096	0.959
5.29186	0.959
5.33275	0.959
5.37365	0.959
5.41455	0.959
5.45544	0.955
5.49634	0.95
5.53724	0.933
5.57813	0.918
5.61903	0.889
5.65993	0.81
5.70083	0.682
5.74172	0.479
5.78262	0.095
5.82352	0.018
5.86441	0.032
5.90531	0.165
5.94621	0.325
5.9871	0.476
6.028	0.568
6.0689	0.445
6.10979	0.283
6.15069	0.194
6.19159	0.143
6.23249	0.104
6.27338	0.116
6.31428	0.247
6.35518	0.484
6.39607	0.643
6.43697	0.74
6.47787	0.778
6.51876	0.8
6.55966	0.803
6.60056	0.802
6.64145	0.795
6.68235	0.767
6.72325	0.694
6.76415	0.535
6.80504	0.31
6.84594	0.254
6.88684	0.307
6.92773	0.233
6.96863	0.186
7.00953	0.484
7.05042	0.704
7.09132	0.776
7.13222	0.796
7.17311	0.791
7.21401	0.715
7.25491	0.65
7.29581	0.542
7.3367	0.67
7.3776	0.72
7.4185	0.674
7.45939	0.537
7.50029	0.31
7.54119	0.209
7.58208	0.18
7.62298	0.203
7.66388	0.196
7.70477	0.15
7.74567	0.172
7.78657	0.18
7.82747	0.139
7.86836	0.102
7.90926	0.1
7.95016	0.146
7.99105	0.192
8.03195	0.249
8.07285	0.267
8.11374	0.156
8.15464	0.051
8.19554	0.03
8.23643	0.075
8.27733	0.155
8.31823	0.192
8.35913	0.196
8.40002	0.165
8.44092	0.233
8.48182	0.334
8.52271	0.402
8.56361	0.452
8.60451	0.498
8.6454	0.54
8.6863	0.569
8.7272	0.609
8.76809	0.636
8.80899	0.638
8.84989	0.61
8.89079	0.564
8.93168	0.486
8.97258	0.348
9.01348	0.175
9.05437	0.058
9.09527	0.011
9.13617	0.005
9.17706	0.001
9.21796	0.003
9.25886	0.017
9.29975	0.071
9.34065	0.199
9.38155	0.36
9.42244	0.486
9.46334	0.575
9.50424	0.626
9.54514	0.643
9.58603	0.645
9.62693	0.59
9.66783	0.476
9.70872	0.337
9.74962	0.249
9.79052	0.23
9.83141	0.281
9.87231	0.375
9.91321	0.465
9.9541	0.508
9.995	0.522
10.0359	0.542
10.0768	0.566
10.1177	0.58
10.1586	0.592
10.1995	0.619
10.2404	0.674
10.2813	0.713
10.3222	0.745
10.3631	0.779
10.404	0.812
10.4449	0.831
10.4858	0.846
10.5267	0.853
10.5676	0.863
10.6085	0.87
10.6494	0.875
10.6902	0.875
10.7311	0.863
10.772	0.832
10.8129	0.793
10.8538	0.755
10.8947	0.74
10.9356	0.795
10.9765	0.834
11.0174	0.843
11.0583	0.82
11.0992	0.796
11.1401	0.776
11.181	0.769
11.2219	0.776
11.2628	0.793
11.3037	0.827
11.3446	0.86
11.3855	0.877
11.4264	0.878
11.4673	0.848
11.5082	0.825
11.5491	0.807
11.59	0.798
11.6309	0.798
11.6718	0.798
11.7127	0.802
11.7536	0.807
11.7945	0.819
11.8354	0.832
11.8763	0.851
11.9172	0.866
11.9581	0.882
11.999	0.894
12.0398	0.899
12.0807	0.904
12.1216	0.911
12.1625	0.911
12.2034	0.911
12.2443	0.911
12.2852	0.899
12.3261	0.875
12.367	0.802
12.4079	0.72
12.4488	0.639
12.4897	0.621
12.5306	0.646
12.5715	0.668
12.6124	0.692
12.6533	0.711
12.6942	0.726
12.7351	0.733
12.776	0.733
12.8169	0.733
12.8578	0.723
12.8987	0.723
12.9396	0.725
12.9805	0.74
13.0214	0.759
13.0623	0.754
13.1032	0.72
13.1441	0.697
13.185	0.706
13.2259	0.721
13.2668	0.735
13.3077	0.749
13.3485	0.764
13.3894	0.784
13.4303	0.803
13.4712	0.813
13.5121	0.825
13.553	0.831
13.5939	0.837
13.6348	0.837
13.6757	0.837
13.7166	0.832
13.7575	0.827
13.7984	0.817
13.8393	0.813
13.8802	0.81
13.9211	0.805
13.962	0.805
14.0029	0.807
14.0438	0.81
14.0847	0.812
14.1256	0.817
14.1665	0.82
14.2074	0.825
14.2483	0.829
14.2892	0.832
14.3301	0.832
14.371	0.834
14.4119	0.834
14.4528	0.837
14.4937	0.836
14.5346	0.836
14.5755	0.836
14.6164	0.831
14.6573	0.829
14.6981	0.819
14.739	0.817
14.7799	0.815
14.8208	0.812
14.8617	0.807
14.9026	0.802
14.9435	0.798
14.9844	0.784
15.0253	0.783
15.0662	0.781
15.1071	0.779
15.148	0.776
15.1889	0.769
15.2298	0.762
15.2707	0.754
15.3116	0.749
15.3525	0.745
15.3934	0.737
15.4343	0.733
15.4752	0.726
15.5161	0.718
15.557	0.716
15.5979	0.713
15.6388	0.704
15.6797	0.699
15.7206	0.697
15.7615	0.696
15.8024	0.696
15.8433	0.696
15.8842	0.696
15.9251	0.694
15.966	0.694
