Infrared Spectrum: 3-CHLORO-4-BENZAMIDO-NITROBENZENE
Formula: C13 H9 Cl N2 O3
CAS: 64160-38-9
State: SOLID (1.0% IN KBr PELLET)
Class: COBLENTZ
Instrument: Not specified, most likely a prism, grating, or hybrid spectrometer.
Sampling: TRANSMISSION
Path length: 0.0355 CM THICK
Resolution: 4
Origin: ANDERSON PHYSICAL LABORATORY
1/CM	TRANSMITTANCE
674.658	0.421
683.064	0.373
691.47	0.49
699.876	0.325
708.282	0.493
716.688	0.309
725.094	0.5029
733.5	0.559
741.906	0.306
750.312	0.3641
758.718	0.721
767.124	0.73
775.53	0.739
783.936	0.748
792.342	0.695
800.748	0.5881
809.154	0.708
817.56	0.705
825.966	0.517
834.372	0.665
842.778	0.414
851.184	0.7258
859.59	0.745
867.996	0.729
876.402	0.692
884.808	0.591
893.214	0.39
901.62	0.439
910.026	0.739
918.432	0.804
926.838	0.796
935.244	0.778
943.65	0.772
952.057	0.748
960.463	0.762
968.869	0.748
977.275	0.715
985.681	0.72
994.087	0.704
1002.49	0.683
1010.9	0.663
1019.3	0.669
1027.71	0.618
1036.12	0.538
1044.52	0.615
1052.93	0.5
1061.33	0.615
1069.74	0.579
1078.15	0.499
1086.55	0.4311
1094.96	0.497
1103.36	0.394
1111.77	0.5469
1120.18	0.524
1128.58	0.409
1136.99	0.603
1145.39	0.448
1153.8	0.536
1162.21	0.587
1170.61	0.532
1179.02	0.608
1187.42	0.562
1195.83	0.521
1204.24	0.557
1212.64	0.529
1221.05	0.481
1229.46	0.421
1237.86	0.301
1246.27	0.246
1254.67	0.155
1263.08	0.2222
1271.49	0.482
1279.89	0.3631
1288.3	0.4169
1296.7	0.538
1305.11	0.463
1313.52	0.31
1321.92	0.165
1330.33	0.206
1338.73	0.239
1347.14	0.1209
1355.55	0.0909
1363.95	0.328
1372.36	0.6299
1380.76	0.762
1389.17	0.723
1397.58	0.557
1405.98	0.361
1414.39	0.606
1422.79	0.742
1431.2	0.745
1439.61	0.701
1448.01	0.594
1456.42	0.485
1464.82	0.442
1473.23	0.324
1481.64	0.448
1490.04	0.324
1498.45	0.146
1506.85	0.144
1515.26	0.127
1523.67	0.097
1532.07	0.219
1540.48	0.188
1548.88	0.189
1557.29	0.288
1565.7	0.342
1574.1	0.557
1582.51	0.5208
1590.91	0.243
1599.32	0.3782
1607.73	0.415
1616.13	0.6299
1624.54	0.837
1632.94	0.863
1641.35	0.85
1649.76	0.832
1658.16	0.784
1666.57	0.748
1674.97	0.6889
1683.38	0.5029
1691.79	0.234
1700.19	0.24
1708.6	0.572
1717	0.804
1725.41	0.911
1733.82	0.956
1742.22	0.968
1750.63	0.976
1759.03	0.958
1767.44	0.935
1775.85	0.922
1784.25	0.916
1792.66	0.911
1801.06	0.899
1809.47	0.904
1817.88	0.908
1826.28	0.899
1834.69	0.892
1843.09	0.886
1851.5	0.88
1859.91	0.871
1868.31	0.871
1876.72	0.866
1885.12	0.859
1893.53	0.849
1901.94	0.841
1910.34	0.832
1918.75	0.822
1927.15	0.81
1935.56	0.793
1943.97	0.792
1952.37	0.804
1960.78	0.807
1969.18	0.799
1977.59	0.802
1986	0.787
1994.4	0.784
2002.81	0.789
2011.21	0.789
2019.62	0.787
2028.03	0.7865
2036.43	0.7845
2044.84	0.781
2053.24	0.7778
2061.65	0.773
2070.06	0.771
2078.46	0.768
2086.87	0.765
2095.27	0.7625
2103.68	0.7568
2112.09	0.7501
2120.49	0.7465
2128.9	0.744
2137.3	0.742
2145.71	0.741
2154.12	0.7346
2162.52	0.7295
2170.93	0.727
2179.33	0.726
2187.74	0.7223
2196.15	0.7161
2204.55	0.7143
2212.96	0.7111
2221.36	0.7078
2229.77	0.7061
2238.18	0.7043
2246.58	0.702
2254.99	0.702
2263.39	0.702
2271.8	0.7013
2280.21	0.6991
2288.61	0.6958
2297.02	0.6941
2305.42	0.6923
2313.83	0.6891
2322.24	0.6856
2330.64	0.678
2339.05	0.6669
2347.46	0.6603
2355.86	0.6586
2364.27	0.656
2372.67	0.6546
2381.08	0.654
2389.49	0.6538
2397.89	0.653
2406.3	0.6517
2414.7	0.6501
2423.11	0.6478
2431.52	0.6437
2439.92	0.6413
2448.33	0.6391
2456.73	0.638
2465.14	0.6356
2473.55	0.6337
2481.95	0.6321
2490.36	0.6317
2498.76	0.63
2507.17	0.63
2515.58	0.63
2523.98	0.6287
2532.39	0.627
2540.79	0.621
2549.2	0.6171
2557.61	0.615
2566.01	0.614
2574.42	0.6101
2582.82	0.6062
2591.23	0.603
2599.64	0.6
2608.04	0.5994
2616.45	0.599
2624.85	0.599
2633.26	0.599
2641.67	0.599
2650.07	0.599
2658.48	0.597
2666.88	0.597
2675.29	0.597
2683.7	0.597
2692.1	0.596
2700.51	0.5936
2708.91	0.591
2717.32	0.591
2725.73	0.5898
2734.13	0.587
2742.54	0.585
2750.94	0.5822
2759.35	0.581
2767.76	0.579
2776.16	0.5784
2784.57	0.5751
2792.97	0.5729
2801.38	0.569
2809.79	0.5642
2818.19	0.5603
2826.6	0.5557
2835	0.55
2843.41	0.5474
2851.82	0.5453
2860.22	0.5438
2868.63	0.542
2877.03	0.541
2885.44	0.5393
2893.85	0.5389
2902.25	0.536
2910.66	0.535
2919.06	0.5333
2927.47	0.5329
2935.88	0.5297
2944.28	0.5278
2952.69	0.5287
2961.09	0.53
2969.5	0.532
2977.91	0.532
2986.31	0.53
2994.72	0.5268
3003.12	0.5177
3011.53	0.5133
3019.94	0.5065
3028.34	0.5029
3036.75	0.4991
3045.15	0.496
3053.56	0.4915
3061.97	0.4818
3070.37	0.4757
3078.78	0.473
3087.18	0.472
3095.59	0.4688
3104	0.4558
3112.4	0.4383
3120.81	0.4368
3129.21	0.4575
3137.62	0.4747
3146.03	0.4952
3154.43	0.5014
3162.84	0.503
3171.24	0.5005
3179.65	0.4965
3188.06	0.496
3196.46	0.496
3204.87	0.494
3213.27	0.4919
3221.68	0.49
3230.09	0.488
3238.49	0.488
3246.9	0.4875
3255.3	0.4854
3263.71	0.482
3272.12	0.4765
3280.52	0.4695
3288.93	0.4674
3297.33	0.467
3305.74	0.4622
3314.15	0.46
3322.55	0.4549
3330.96	0.449
3339.36	0.4475
3347.77	0.4379
3356.18	0.4315
3364.58	0.4259
3372.99	0.4172
3381.39	0.4084
3389.8	0.3997
3398.21	0.3758
3406.61	0.3436
3415.02	0.3275
3423.42	0.3545
3431.83	0.402
3440.24	0.4133
3448.64	0.4235
3457.05	0.424
3465.46	0.426
3473.86	0.426
3482.27	0.426
3490.67	0.426
3499.08	0.426
3507.49	0.426
3515.89	0.426
3524.3	0.426
3532.7	0.427
3541.11	0.4285
3549.52	0.4305
3557.92	0.4325
3566.33	0.434
3574.73	0.4375
3583.14	0.4395
3591.55	0.4415
3599.95	0.442
3608.36	0.443
3616.76	0.445
3625.17	0.4474
3633.58	0.449
3641.98	0.449
3650.39	0.45
3658.79	0.452
3667.2	0.452
3675.61	0.452
3684.01	0.454
3692.42	0.454
3700.82	0.454
3709.23	0.454
3717.64	0.454
3726.04	0.454
3734.45	0.454
3742.85	0.452
3751.26	0.4516
3759.67	0.451
3768.07	0.451
3776.48	0.449
3784.88	0.448
3793.29	0.448
3801.7	0.446
3810.1	0.445
3818.51	0.445
3826.91	0.445
3835.32	0.445
3843.73	0.443
3852.13	0.4439
3860.54	0.445
3868.94	0.445
3877.35	0.445
3885.76	0.445
3894.16	0.445
3902.57	0.445
3910.97	0.445
3919.38	0.4441
3927.79	0.443
3936.19	0.4402
3944.6	0.439
3953	0.437
3961.41	0.436
3969.82	0.436
3978.22	0.4338
