Infrared Spectrum: 2,4-DIAMINO-5-METHYL-2'-METHYL AZO BENZENE HYDROCHLORIDE
Formula: C14 H16 N4  * H Cl
CAS: 6416-59-7
State: SOLID (MINERAL OIL MULL)
Class: COBLENTZ
Instrument: Not specified, most likely a prism, grating, or hybrid spectrometer.
Sampling: TRANSMISSION
Resolution: 4
Origin: WYANDOTTE CHEMICALS CORP., WYANDOTTE, MICHIGAN, USA
MICROMETERS	TRANSMITTANCE
2.019	0.173
2.05618	0.172
2.09337	0.184
2.13055	0.195
2.16774	0.197
2.20492	0.198
2.2421	0.203
2.27929	0.212
2.31647	0.217
2.35366	0.231
2.39084	0.25
2.42802	0.25
2.46521	0.263
2.50239	0.268
2.53958	0.268
2.57676	0.298
2.61394	0.296
2.65113	0.309
2.68831	0.312
2.7255	0.305
2.76268	0.305
2.79986	0.281
2.83705	0.279
2.87423	0.228
2.91142	0.186
2.9486	0.144
2.98578	0.105
3.02297	0.065
3.06015	0.099
3.09734	0.111
3.13452	0.085
3.17171	0.063
3.20889	0.077
3.24607	0.1
3.28326	0.1
3.32044	0.062
3.35763	0.024
3.39481	0.027
3.43199	0.026
3.46918	0.031
3.50636	0.041
3.54355	0.156
3.58073	0.236
3.61791	0.256
3.6551	0.271
3.69228	0.281
3.72947	0.299
3.76665	0.327
3.80383	0.352
3.84102	0.361
3.8782	0.378
3.91539	0.395
3.95257	0.42
3.98975	0.439
4.02694	0.453
4.06412	0.451
4.10131	0.459
4.13849	0.473
4.17567	0.489
4.21286	0.495
4.25004	0.484
4.28723	0.492
4.32441	0.526
4.36159	0.549
4.39878	0.565
4.43596	0.566
4.47315	0.576
4.51033	0.58
4.54751	0.579
4.5847	0.59
4.62188	0.59
4.65907	0.6
4.69625	0.608
4.73343	0.604
4.77062	0.608
4.8078	0.622
4.84499	0.649
4.88217	0.667
4.91935	0.673
4.95654	0.675
4.99372	0.701
5.03091	0.698
5.06809	0.712
5.10527	0.728
5.14246	0.734
5.17964	0.751
5.21683	0.759
5.25401	0.782
5.2912	0.799
5.32838	0.809
5.36556	0.801
5.40275	0.819
5.43993	0.827
5.47712	0.847
5.5143	0.877
5.55148	0.863
5.58867	0.885
5.62585	0.902
5.66304	0.923
5.70022	0.927
5.7374	0.871
5.77459	0.917
5.81177	0.934
5.84896	0.933
5.88614	0.968
5.92332	0.911
5.96051	0.72
5.99769	0.4
6.03488	0.15
6.07206	0.189
6.10924	0.107
6.14643	0.164
6.18361	0.158
6.2208	0.301
6.25798	0.529
6.29516	0.493
6.33235	0.248
6.36953	0.344
6.40672	0.484
6.4439	0.389
6.48108	0.147
6.51827	0.178
6.55545	0.138
6.59264	0.105
6.62982	0.175
6.667	0.26
6.70419	0.315
6.74137	0.242
6.77856	0.072
6.81574	0.062
6.85292	0.041
6.89011	0.046
6.92729	0.076
6.96448	0.133
7.00166	0.11
7.03884	0.06
7.07603	0.072
7.11321	0.077
7.1504	0.099
7.18758	0.094
7.22476	0.06
7.26195	0.096
7.29913	0.136
7.33632	0.183
7.3735	0.17
7.41069	0.107
7.44787	0.124
7.48505	0.175
7.52224	0.222
7.55942	0.27
7.59661	0.296
7.63379	0.33
7.67097	0.35
7.70816	0.381
7.74534	0.399
7.78253	0.399
7.81971	0.304
7.85689	0.13
7.89408	0.088
7.93126	0.088
7.96845	0.102
8.00563	0.141
8.04281	0.173
8.08	0.201
8.11718	0.229
8.15437	0.253
8.19155	0.268
8.22873	0.282
8.26592	0.288
8.3031	0.327
8.34029	0.336
8.37747	0.361
8.41465	0.378
8.45184	0.378
8.48902	0.377
8.52621	0.371
8.56339	0.363
8.60057	0.319
8.63776	0.333
8.67494	0.304
8.71213	0.281
8.74931	0.35
8.78649	0.363
8.82368	0.368
8.86086	0.329
8.89805	0.281
8.93523	0.24
8.97241	0.198
9.0096	0.239
9.04678	0.27
9.08397	0.296
9.12115	0.304
9.15833	0.312
9.19552	0.319
9.2327	0.304
9.26989	0.299
9.30707	0.341
9.34425	0.354
9.38144	0.371
9.41862	0.38
9.45581	0.388
9.49299	0.399
9.53018	0.403
9.56736	0.402
9.60454	0.386
9.64173	0.369
9.67891	0.35
9.7161	0.279
9.75328	0.232
9.79046	0.282
9.82765	0.35
9.86483	0.381
9.90202	0.4
9.9392	0.419
9.97638	0.419
10.0136	0.42
10.0508	0.445
10.0879	0.456
10.1251	0.475
10.1623	0.5
10.1995	0.513
10.2367	0.532
10.2739	0.535
10.311	0.551
10.3482	0.576
10.3854	0.588
10.4226	0.594
10.4598	0.61
10.497	0.621
10.5341	0.641
10.5713	0.641
10.6085	0.649
10.6457	0.652
10.6829	0.655
10.7201	0.652
10.7572	0.652
10.7944	0.663
10.8316	0.659
10.8688	0.653
10.906	0.619
10.9432	0.559
10.9804	0.546
11.0175	0.579
11.0547	0.582
11.0919	0.559
11.1291	0.554
11.1663	0.524
11.2035	0.481
11.2406	0.489
11.2778	0.551
11.315	0.594
11.3522	0.6
11.3894	0.599
11.4266	0.524
11.4637	0.433
11.5009	0.47
11.5381	0.602
11.5753	0.644
11.6125	0.67
11.6497	0.68
11.6868	0.68
11.724	0.663
11.7612	0.645
11.7984	0.6
11.8356	0.599
11.8728	0.554
11.91	0.501
11.9471	0.51
11.9843	0.501
12.0215	0.56
12.0587	0.627
12.0959	0.636
12.1331	0.63
12.1702	0.658
12.2074	0.698
12.2446	0.701
12.2818	0.712
12.319	0.708
12.3562	0.701
12.3933	0.687
12.4305	0.663
12.4677	0.658
12.5049	0.652
12.5421	0.642
12.5793	0.639
12.6165	0.636
12.6536	0.624
12.6908	0.619
12.728	0.619
12.7652	0.618
12.8024	0.618
12.8396	0.616
12.8767	0.63
12.9139	0.631
12.9511	0.645
12.9883	0.642
13.0255	0.655
13.0627	0.621
13.0998	0.565
13.137	0.5
13.1742	0.445
13.2114	0.374
13.2486	0.346
13.2858	0.363
13.3229	0.391
13.3601	0.473
13.3973	0.549
13.4345	0.586
13.4717	0.605
13.5089	0.607
13.5461	0.59
13.5832	0.563
13.6204	0.507
13.6576	0.476
13.6948	0.458
13.732	0.45
13.7692	0.42
13.8063	0.399
13.8435	0.381
13.8807	0.374
13.9179	0.408
13.9551	0.459
13.9923	0.538
14.0294	0.583
14.0666	0.613
14.1038	0.653
14.141	0.669
14.1782	0.672
14.2154	0.678
14.2525	0.692
14.2897	0.684
14.3269	0.694
14.3641	0.686
14.4013	0.677
14.4385	0.669
14.4757	0.633
14.5128	0.599
14.55	0.565
14.5872	0.5
14.6244	0.456
14.6616	0.448
14.6988	0.468
14.7359	0.527
14.7731	0.549
14.8103	0.582
14.8475	0.591
14.8847	0.593
14.9219	0.585
14.959	0.576
14.9962	0.549
15.0334	0.509
15.0706	0.507
15.1078	0.526
15.145	0.526
15.1821	0.535
15.2193	0.527
15.2565	0.52
15.2937	0.503
15.3309	0.49
15.3681	0.472
15.4053	0.472
15.4424	0.451
15.4796	0.444
15.5168	0.422
15.554	0.411
15.5912	0.414
15.6284	0.402
15.6655	0.395
15.7027	0.378
15.7399	0.378
15.7771	0.371
15.8143	0.368
15.8515	0.357
15.8886	0.35
15.9258	0.357
15.963	0.33
