Infrared Spectrum: Purine, 2-hydrazino-
Formula: C5 H6 N6
CAS: 64164-90-5
State: SOLID (0.8 mg / 650 mg KBr DISC)
Class: COBLENTZ III
Instrument: PERKIN-ELMER 21 (GRATING)
Instrument parameters: FILTER CHANGE ABOUT 1075 CM^-^1
Sampling: TRANSMISSION
Resolution: 2
Origin: SOUTHERN RESEARCH INSTITUTE
1/CM	TRANSMITTANCE
624.81	0.6321
633.837	0.9325
642.864	0.9295
651.892	0.9185
660.919	0.9034
669.946	0.8867
678.973	0.8668
688	0.8468
697.028	0.8283
706.055	0.8207
715.082	0.8508
724.109	0.854
733.136	0.8361
742.163	0.8406
751.191	0.8434
760.218	0.8366
769.245	0.7982
778.272	0.7146
787.299	0.4102
796.327	0.6179
805.354	0.8319
814.381	0.8457
823.408	0.8466
832.435	0.8451
841.463	0.8337
850.49	0.7931
859.517	0.7282
868.544	0.6264
877.571	0.6356
886.598	0.6175
895.626	0.7073
904.653	0.7654
913.68	0.7432
922.707	0.5847
931.734	0.3553
940.762	0.7079
949.789	0.6751
958.816	0.6614
967.843	0.6221
976.87	0.6119
985.898	0.724
994.925	0.7957
1003.95	0.6846
1012.98	0.5874
1022.01	0.6756
1031.03	0.789
1040.06	0.8429
1049.09	0.8629
1058.12	0.8651
1067.14	0.8625
1076.17	0.8511
1085.2	0.8294
1094.22	0.807
1103.25	0.7931
1112.28	0.8058
1121.31	0.8135
1130.33	0.7887
1139.36	0.7179
1148.39	0.812
1157.41	0.8624
1166.44	0.8669
1175.47	0.8554
1184.5	0.8101
1193.52	0.829
1202.55	0.847
1211.58	0.8251
1220.6	0.7436
1229.63	0.5172
1238.66	0.4487
1247.69	0.7837
1256.71	0.7676
1265.74	0.7304
1274.77	0.7805
1283.79	0.7689
1292.82	0.6567
1301.85	0.5844
1310.88	0.631
1319.9	0.5371
1328.93	0.2716
1337.96	0.6492
1346.99	0.797
1356.01	0.8067
1365.04	0.7961
1374.07	0.7548
1383.09	0.6819
1392.12	0.6053
1401.15	0.5465
1410.18	0.5717
1419.2	0.5333
1428.23	0.4401
1437.26	0.3976
1446.28	0.7075
1455.31	0.6293
1464.34	0.6297
1473.37	0.7558
1482.39	0.731
1491.42	0.6107
1500.45	0.5283
1509.47	0.5899
1518.5	0.5699
1527.53	0.5264
1536.56	0.4091
1545.58	0.4559
1554.61	0.6275
1563.64	0.5992
1572.66	0.448
1581.69	0.3248
1590.72	0.3658
1599.75	0.5767
1608.77	0.4519
1617.8	0.3155
1626.83	0.2139
1635.86	0.2037
1644.88	0.1747
1653.91	0.191
1662.94	0.4043
1671.96	0.6738
1680.99	0.8101
1690.02	0.8365
1699.05	0.8448
1708.07	0.8431
1717.1	0.8366
1726.13	0.8301
1735.15	0.8331
1744.18	0.8486
1753.21	0.8669
1762.24	0.8862
1771.26	0.9012
1780.29	0.9111
1789.32	0.9187
1798.34	0.9241
1807.37	0.9269
1816.4	0.9297
1825.43	0.9335
1834.45	0.9389
1843.48	0.9452
1852.51	0.947
1861.53	0.9466
1870.56	0.9466
1879.59	0.947
1888.62	0.9484
1897.64	0.9497
1906.67	0.9513
1915.7	0.9535
1924.73	0.958
1933.75	0.9604
1942.78	0.9625
1951.81	0.9621
1960.83	0.9614
1969.86	0.9601
1978.89	0.959
1987.92	0.958
1996.94	0.9568
2005.97	0.9559
2015	0.9555
2024.02	0.955
2033.05	0.9543
2042.08	0.9546
2051.11	0.9565
2060.13	0.9583
2069.16	0.9591
2078.19	0.9593
2087.21	0.9581
2096.24	0.9564
2105.27	0.955
2114.3	0.9537
2123.32	0.9524
2132.35	0.9508
2141.38	0.9492
2150.41	0.9476
2159.43	0.9463
2168.46	0.9451
2177.49	0.9439
2186.51	0.942
2195.54	0.9406
2204.57	0.9387
2213.6	0.9372
2222.62	0.9363
2231.65	0.9351
2240.68	0.9315
2249.7	0.9288
2258.73	0.9251
2267.76	0.9206
2276.79	0.9155
2285.81	0.9092
2294.84	0.9022
2303.87	0.8949
2312.89	0.8868
2321.92	0.8799
2330.95	0.8772
2339.98	0.8764
2349	0.8758
2358.03	0.875
2367.06	0.8736
2376.08	0.8693
2385.11	0.863
2394.14	0.8558
2403.17	0.8483
2412.19	0.8404
2421.22	0.8323
2430.25	0.8242
2439.28	0.8161
2448.3	0.8071
2457.33	0.7979
2466.36	0.7881
2475.38	0.7792
2484.41	0.7747
2493.44	0.7741
2502.47	0.7714
2511.49	0.7649
2520.52	0.7582
2529.55	0.7499
2538.57	0.7417
2547.6	0.7335
2556.63	0.7244
2565.66	0.7142
2574.68	0.7018
2583.71	0.6895
2592.74	0.6772
2601.76	0.6634
2610.79	0.6489
2619.82	0.6349
2628.85	0.6196
2637.87	0.6032
2646.9	0.5859
2655.93	0.5702
2664.95	0.5507
2673.98	0.534
2683.01	0.526
2692.04	0.5191
2701.06	0.5071
2710.09	0.4917
2719.12	0.4747
2728.15	0.4591
2737.17	0.4446
2746.2	0.436
2755.23	0.437
2764.25	0.446
2773.28	0.4621
2782.31	0.4554
2791.34	0.441
2800.36	0.4223
2809.39	0.4021
2818.42	0.3846
2827.44	0.3696
2836.47	0.357
2845.5	0.344
2854.53	0.3297
2863.55	0.3153
2872.58	0.3015
2881.61	0.2869
2890.63	0.274
2899.66	0.2632
2908.69	0.2539
2917.72	0.2485
2926.74	0.2517
2935.77	0.258
2944.8	0.2659
2953.82	0.2738
2962.85	0.2812
2971.88	0.2885
2980.91	0.2953
2989.93	0.302
2998.96	0.31
3007.99	0.3216
3017.02	0.333
3026.04	0.3439
3035.07	0.3549
3044.1	0.3664
3053.12	0.3793
3062.15	0.3953
3071.18	0.4139
3080.21	0.4319
3089.23	0.4464
3098.26	0.4534
3107.29	0.4534
3116.31	0.4516
3125.34	0.4459
3134.37	0.4231
3143.4	0.3807
3152.42	0.3548
3161.45	0.3583
3170.48	0.3804
3179.5	0.4098
3188.53	0.4362
3197.56	0.4468
3206.59	0.4542
3215.61	0.4612
3224.64	0.4703
3233.67	0.4684
3242.69	0.4541
3251.72	0.4413
3260.75	0.4435
3269.78	0.4515
3278.8	0.4772
3287.83	0.5343
3296.86	0.5721
3305.89	0.5894
3314.91	0.5948
3323.94	0.5908
3332.97	0.5841
3341.99	0.5762
3351.02	0.5669
3360.05	0.5574
3369.08	0.5493
3378.1	0.545
3387.13	0.5447
3396.16	0.5473
3405.18	0.5522
3414.21	0.5591
3423.24	0.5685
3432.27	0.5798
3441.29	0.5934
3450.32	0.6082
3459.35	0.6242
3468.37	0.6404
3477.4	0.6572
3486.43	0.6759
3495.46	0.6969
3504.48	0.7236
3513.51	0.741
3522.54	0.7531
3531.57	0.7681
3540.59	0.7873
3549.62	0.8066
3558.65	0.8248
3567.67	0.841
3576.7	0.855
3585.73	0.8684
3594.76	0.8819
3603.78	0.8898
3612.81	0.8968
3621.84	0.9017
3630.86	0.9044
3639.89	0.9065
3648.92	0.908
3657.95	0.9093
3666.97	0.9105
3676	0.9117
3685.03	0.9127
3694.05	0.9136
3703.08	0.9142
3712.11	0.9135
3721.14	0.9128
3730.16	0.9123
3739.19	0.9119
3748.22	0.9115
3757.24	0.9107
3766.27	0.9098
3775.3	0.9089
3784.33	0.9081
3793.35	0.9074
3802.38	0.9067
3811.41	0.9065
3820.44	0.9066
3829.46	0.9071
3838.49	0.9074
3847.52	0.9078
3856.54	0.9077
3865.57	0.9073
3874.6	0.9068
3883.63	0.9063
3892.65	0.9057
3901.68	0.9051
3910.71	0.9046
3919.73	0.9043
3928.76	0.904
3937.79	0.903
3946.82	0.9017
3955.84	0.9005
3964.87	0.8993
3973.9	0.8979
3982.92	0.8964
3991.95	0.9018
4000.98	0.9031
