Infrared Spectrum: INDANE, 1-METHYL-3-PHENYL-
Formula: C16 H16
CAS: 6416-39-3
State: SOLUTION (10% CCl4 FOR 3800-1330, 10% CS2 FOR 1330-400 CM^-^1))
Class: COBLENTZ III
Instrument: BECKMAN IR-9 (GRATING)
Instrument parameters: ORDER CHANGES: 670, 1200, 2000 CM^-^1
Sampling: TRANSMISSION
Path length: 0.011 CM, 0.011 CM
Resolution: 2
Origin: DOW CHEMICAL COMPANY
1/CM	TRANSMITTANCE
404	0.3796
413	0.3908
422	0.4559
431	0.5416
440	0.6981
449	0.7741
458	0.8431
467	0.8967
476	0.9311
485	0.9468
494	0.9175
503	0.9373
512	0.9478
521	0.9408
530	0.8003
539	0.8051
548	0.7697
557	0.9353
566	0.9495
575	0.9224
584	0.8525
593	0.9615
602	0.9913
611	0.9449
620	0.9174
629	0.9465
638	0.9889
647	0.9562
656	0.9297
665	0.9591
674	0.9535
683	0.9415
692	0.5417
701	0.1665
710	0.8627
719	0.9009
728	0.7983
737	0.6689
746	0.1984
755	0.1744
764	0.465
773	0.8562
782	0.904
791	0.922
800	0.9394
809	0.9821
818	0.995
827	0.9752
836	0.8821
845	0.8937
854	0.8465
863	0.8343
872	0.8613
881	0.8973
890	0.934
899	0.9543
908	0.9196
917	0.9638
926	0.9592
935	0.9461
944	0.967
953	0.989
962	0.9531
971	0.9478
980	0.9507
989	0.9705
998	0.9608
1007	0.9096
1016	0.869
1025	0.7933
1034	0.8583
1043	0.9607
1052	0.9509
1061	0.9025
1070	0.8559
1079	0.8639
1088	0.9298
1097	0.9005
1106	0.9175
1115	0.9496
1124	0.9737
1133	0.9813
1142	0.9609
1151	0.8814
1160	0.8992
1169	0.93
1178	0.9381
1187	0.9388
1196	0.9357
1205	0.9241
1214	0.9638
1223	0.9889
1232	0.9875
1241	0.9809
1250	0.9766
1259	0.9685
1268	0.938
1277	0.9501
1286	0.9282
1295	0.8939
1304	0.8836
1313	0.872
1322	0.8605
1331	0.8408
1340	0.9114
1349	0.8937
1358	0.9434
1367	0.9162
1376	0.8607
1385	0.9068
1394	0.9621
1403	0.9631
1412	0.9552
1421	0.9471
1430	0.9385
1439	0.8686
1448	0.4548
1457	0.396
1466	0.6878
1475	0.4988
1484	0.6992
1493	0.3466
1502	0.6296
1511	0.7269
1520	0.718
1529	0.6775
1538	0.5944
1547	0.5157
1556	0.5212
1565	0.6104
1574	0.6638
1583	0.6377
1592	0.6647
1601	0.5403
1610	0.8325
1619	0.8947
1628	0.9316
1637	0.9512
1646	0.959
1655	0.9609
1664	0.9615
1673	0.965
1682	0.97
1691	0.974
1700	0.9793
1709	0.9846
1718	0.9848
1727	0.9814
1736	0.9761
1745	0.9693
1754	0.9718
1763	0.9818
1772	0.983
1781	0.9808
1790	0.9665
1799	0.9309
1808	0.9098
1817	0.9562
1826	0.9707
1835	0.9733
1844	0.9647
1853	0.976
1862	0.9606
1871	0.9402
1880	0.9459
1889	0.9554
1898	0.9559
1907	0.9439
1916	0.9524
1925	0.9775
1934	0.9511
1943	0.8921
1952	0.9145
1961	0.9501
1970	0.9753
1979	0.9871
1988	0.9864
1997	0.9832
2006	0.9965
2015	0.9978
2024	0.9981
2033	0.9983
2042	0.9985
2051	0.9989
2060	0.9995
2069	0.9999
2078	1.0003
2087	1.0005
2096	1.0007
2105	1.0009
2114	1.0011
2123	1.0012
2132	1.0008
2141	0.9999
2150	0.999
2159	0.9981
2168	0.9973
2177	0.9965
2186	0.9957
2195	0.9948
2204	0.9937
2213	0.9923
2222	0.991
2231	0.989
2240	0.9857
2249	0.9824
2258	0.9784
2267	0.974
2276	0.9695
2285	0.9657
2294	0.9618
2303	0.9581
2312	0.9563
2321	0.9565
2330	0.959
2339	0.9625
2348	0.9661
2357	0.969
2366	0.9718
2375	0.9747
2384	0.9774
2393	0.9801
2402	0.9825
2411	0.9837
2420	0.9848
2429	0.9844
2438	0.9839
2447	0.9832
2456	0.9821
2465	0.981
2474	0.9799
2483	0.9788
2492	0.9778
2501	0.9766
2510	0.9754
2519	0.9742
2528	0.9731
2537	0.9718
2546	0.9709
2555	0.9699
2564	0.9689
2573	0.9678
2582	0.9668
2591	0.9658
2600	0.9647
2609	0.9638
2618	0.9635
2627	0.9632
2636	0.9636
2645	0.9641
2654	0.965
2663	0.9667
2672	0.9683
2681	0.9685
2690	0.9678
2699	0.9655
2708	0.9628
2717	0.9575
2726	0.9536
2735	0.9544
2744	0.956
2753	0.957
2762	0.957
2771	0.9561
2780	0.9548
2789	0.95
2798	0.9444
2807	0.9377
2816	0.926
2825	0.9077
2834	0.8756
2843	0.7619
2852	0.6112
2861	0.4469
2870	0.4566
2879	0.6437
2888	0.6656
2897	0.607
2906	0.5856
2915	0.5168
2924	0.418
2933	0.4812
2942	0.4485
2951	0.2456
2960	0.2151
2969	0.4869
2978	0.7383
2987	0.8074
2996	0.8202
3005	0.7725
3014	0.6235
3023	0.4233
3032	0.4969
3041	0.6581
3050	0.6733
3059	0.5338
3068	0.5331
3077	0.6435
3086	0.6694
3095	0.8176
3104	0.8718
3113	0.8977
3122	0.9215
3131	0.9421
3140	0.9478
3149	0.9497
3158	0.9512
3167	0.9516
3176	0.952
3185	0.9525
3194	0.9535
3203	0.955
3212	0.9565
3221	0.9597
3230	0.963
3239	0.966
3248	0.9688
3257	0.9693
3266	0.9696
3275	0.9694
3284	0.9691
3293	0.9681
3302	0.967
3311	0.966
3320	0.965
3329	0.9639
3338	0.9628
3347	0.9625
3356	0.9628
3365	0.9628
3374	0.963
3383	0.963
3392	0.9628
3401	0.9628
3410	0.9628
3419	0.9627
3428	0.9628
3437	0.9631
3446	0.9633
3455	0.9635
3464	0.9637
3473	0.9641
3482	0.9647
3491	0.9651
3500	0.9656
3509	0.9662
3518	0.9668
3527	0.9675
3536	0.9683
3545	0.969
3554	0.9697
3563	0.9697
3572	0.9675
3581	0.96
3590	0.9651
3599	0.9709
3608	0.967
3617	0.966
3626	0.9723
3635	0.9739
3644	0.9747
3653	0.9754
3662	0.9755
3671	0.975
3680	0.9756
3689	0.9762
3698	0.9768
3707	0.9768
3716	0.9771
3725	0.9771
3734	0.9777
3743	0.9782
3752	0.9788
3761	0.9784
3770	0.9778
3779	0.9771
3788	0.9765
3797	0.9758
