Infrared Spectrum: 2,3-Difluorophenol
Formula: C 6 H 4 F 2 O
CAS: 6418-38-8
State: gas
Origin: EPA-IR VAPOR PHASE LIBRARY
1/CM	ABSORBANCE
549.8	0.002363
559.445	0.004413
569.09	0.005573
578.734	0.003703
588.379	0.002743
598.024	0.002883
607.669	0.002023
617.313	0.001893
626.958	0.002323
636.603	0.003693
646.248	0.004843
655.893	0.003893
665.537	0.004373
675.182	0.011683
684.827	0.040533
694.472	0.046203
704.116	0.077073
713.761	0.024543
723.406	0.010513
733.051	0.003453
742.695	0.005443
752.34	0.017513
761.985	0.035923
771.63	0.078913
781.275	0.035833
790.919	0.019053
800.564	0.009173
810.209	0.010283
819.854	0.012353
829.498	0.013293
839.143	0.010513
848.788	0.006063
858.433	0.003043
868.078	0.0016672
877.722	0.001783
887.367	0.002053
897.012	0.0016931
906.657	0.0015486
916.301	0.002163
925.946	0.001783
935.591	0.003293
945.236	0.003193
954.88	0.003843
964.525	0.003733
974.17	0.004563
983.815	0.007493
993.46	0.015293
1003.1	0.038273
1012.75	0.085173
1022.39	0.116223
1032.04	0.099133
1041.68	0.051033
1051.33	0.034693
1060.97	0.028893
1070.62	0.014923
1080.26	0.008543
1089.91	0.004293
1099.55	0.004713
1109.2	0.007483
1118.84	0.006223
1128.49	0.008873
1138.13	0.017173
1147.78	0.021563
1157.42	0.027363
1167.07	0.080103
1176.71	0.142913
1186.36	0.155283
1196	0.073723
1205.64	0.033353
1215.29	0.034033
1224.93	0.068283
1234.58	0.075773
1244.22	0.058333
1253.87	0.035353
1263.51	0.032833
1273.16	0.032793
1282.8	0.039003
1292.45	0.055013
1302.09	0.061363
1311.74	0.050413
1321.38	0.036273
1331.03	0.029003
1340.67	0.028543
1350.32	0.044113
1359.96	0.042023
1369.61	0.026163
1379.25	0.005863
1388.9	0.003503
1398.54	0.002773
1408.18	0.002323
1417.83	0.003203
1427.47	0.004813
1437.12	0.005733
1446.76	0.007103
1456.41	0.011713
1466.05	0.032273
1475.7	0.081643
1485.34	0.109543
1494.99	0.134283
1504.63	0.165593
1514.28	0.184313
1523.92	0.143773
1533.57	0.081423
1543.21	0.039813
1552.86	0.026333
1562.5	0.023193
1572.15	0.021053
1581.79	0.022633
1591.44	0.030883
1601.08	0.044023
1610.73	0.064063
1620.37	0.085353
1630.01	0.075143
1639.66	0.047673
1649.3	0.021803
1658.95	0.009463
1668.59	0.006083
1678.24	0.003263
1687.88	0.001843
1697.53	0.002093
1707.17	0.002433
1716.82	0.003513
1726.46	0.003413
1736.11	0.002943
1745.75	0.001893
1755.4	0.0015104
1765.04	0.0015448
1774.69	0.0016186
1784.33	0.001823
1793.98	0.002193
1803.62	0.002753
1813.27	0.003093
1822.91	0.002823
1832.55	0.001883
1842.2	0.0016471
1851.84	0.0016039
1861.49	0.0016332
1871.13	0.0015851
1880.78	0.001933
1890.42	0.003033
1900.07	0.003323
1909.71	0.003063
1919.36	0.001863
1929	0.0013681
1938.65	0.001199
1948.29	0.0011399
1957.94	0.0013872
1967.58	0.0013635
1977.23	0.0010786
1986.87	0.0012075
1996.52	0.0016439
2006.16	0.0010839
2015.81	0.0010583
2025.45	0.0009981
2035.1	0.001723
2044.74	0.001983
2054.38	0.002273
2064.03	0.001923
2073.67	0.001431
2083.32	0.0011493
2092.96	0.0008699
2102.61	0.00074873
2112.25	0.0008652
2121.9	0.0009386
2131.54	0.001148
2141.19	0.00078151
2150.83	0.0007312
2160.48	0.00073263
2170.12	0.0011528
2179.77	0.0012939
2189.41	0.0015981
2199.06	0.001823
2208.7	0.001743
2218.35	0.0015625
2227.99	0.0008814
2237.64	0.0012986
2247.28	0.0012365
2256.92	0.0014507
2266.57	0.0015314
2276.21	0.0015866
2285.86	0.0016819
2295.5	0.002163
2305.15	0.002393
2314.79	0.002913
2324.44	0.002903
2334.08	0.002633
2343.73	0.001993
2353.37	0.0014291
2363.02	0.0011531
2372.66	0.0014857
2382.31	0.0012767
2391.95	0.00129
2401.6	0.0012912
2411.24	0.0016342
2420.89	0.0014379
2430.53	0.0016525
2440.18	0.002533
2449.82	0.002503
2459.47	0.002183
2469.11	0.002323
2478.75	0.002053
2488.4	0.001843
2498.04	0.001873
2507.69	0.002583
2517.33	0.002933
2526.98	0.003543
2536.62	0.003613
2546.27	0.002803
2555.91	0.0016324
2565.56	0.0015981
2575.2	0.0010976
2584.85	0.0011404
2594.49	0.0009227
2604.14	0.0006786
2613.78	0.0008237
2623.43	0.0011237
2633.07	0.0012366
2642.72	0.0016804
2652.36	0.001783
2662.01	0.0016151
2671.65	0.0011472
2681.29	0.0013161
2690.94	0.0008614
2700.58	0.0013115
2710.23	0.0008338
2719.87	0.0014382
2729.52	0.0009106
2739.16	0.0011402
2748.81	0.0009628
2758.45	0.0008753
2768.1	0.0012707
2777.74	0.0010946
2787.39	0.00079922
2797.03	0.0009073
2806.68	0.00069321
2816.32	0.00077993
2825.97	0.0006855
2835.61	0.0006185
2845.26	0.000488
2854.9	0.0009261
2864.55	0.000462
2874.19	0.00073127
2883.84	0.00087
2893.48	0.000497
2903.12	0.000209
2912.77	0.000158
2922.41	0.00072088
2932.06	0.000871
2941.7	0.0008374
2951.35	0.0006077
2960.99	0.000439
2970.64	0.0009913
2980.28	0.0009669
2989.93	0.0008134
2999.57	0.00070036
3009.22	0.0009598
3018.86	0.0008224
3028.51	0.0011792
3038.15	0.002293
3047.8	0.004333
3057.44	0.005823
3067.09	0.006593
3076.73	0.007123
3086.38	0.005303
3096.02	0.003513
3105.67	0.001773
3115.31	0.0016001
3124.95	0.0015796
3134.6	0.000576
3144.24	0.000416
3153.89	0.00034
3163.53	0.000453
3173.18	0.000381
3182.82	0.000484
3192.47	0.00077141
3202.11	0
3211.76	0.000321
3221.4	0.000707282
3231.05	0.000512
3240.69	0.0011058
3250.34	0.0013038
3259.98	0.0009905
3269.63	0.0013658
3279.27	0.0013275
3288.92	0.001843
3298.56	0.0010886
3308.21	0.001325
3317.85	0.001803
3327.49	0.0012381
3337.14	0.0013039
3346.78	0.0010459
3356.43	0.0014157
3366.07	0.0010982
3375.72	0.000577
3385.36	0.000163
3395.01	0.0006535
3404.65	0.000911
3414.3	0.0008843
3423.94	0.0008244
3433.59	0.000576
3443.23	0.000449
3452.88	0.000552
3462.52	0.0008755
3472.17	0.000827
3481.81	0.0009529
3491.46	0.000215
3501.1	0.0014849
3510.75	0.0007704
3520.39	0.000358
3530.04	0.000589
3539.68	0.0007327
3549.32	0.0009645
3558.97	0.0012984
3568.61	0.0010185
3578.26	0.0014134
3587.9	0.002153
3597.55	0.004793
3607.19	0.020123
3616.84	0.075023
3626.48	0.096033
3636.13	0.087653
3645.77	0.029723
3655.42	0.013043
3665.06	0.008553
3674.71	0.003323
3684.35	0.002003
3694	0.0009602
3703.64	0.0011239
3713.29	0.0015528
3722.93	0.0008929
3732.58	0.0011122
3742.22	0.0010336
3751.86	0.002033
3761.51	0.0006703
3771.15	0.00069967
3780.8	0.000279
3790.44	0.000582
3800.09	0.00072544
3809.73	0.0011049
3819.38	0.00077373
3829.02	0.0006377
3838.67	0.001299
3848.31	0.000917
3857.96	0.000497
3867.6	0.001803
3877.25	0.0016715
3886.89	0.002073
3896.54	0.0013987
3906.18	0.001863
3915.83	0.0016111
3925.47	0.001983
3935.12	0.001943
3944.76	0.001923
3954.41	0.0010443
3964.05	0.0014973
3973.69	0.00055
3983.34	0.0009159
3992.98	0.0015139
