Infrared Spectrum: 9-Anthraldehyde
Formula: C 15 H 10 O
CAS: 642-31-9
State: gas
Instrument: HP-GC/MS/IRD
Origin: NIST Mass Spectrometry Data Center
1/CM	ABSORBANCE
550	4.68e-05
562	8.46e-05
574	7.02e-05
586	0.0006966
598	0.0011448
610	0.0002646
622	0.0002232
634	0.0002988
646	0.0002736
658	0.0001962
670	0.0001656
682	0.0002322
694	0.0005346
706	0.0017982
718	0.0043326
730	0.009684
742	0.0033192
754	0.0006822
766	0.0004734
778	0.000837
790	0.0007092
802	0.0002196
814	0.000171
826	0.0003852
838	0.0012456
850	0.0012762
862	0.0011898
874	0.0016578
886	0.002106
898	0.0017208
910	0.0003726
922	0.0001908
934	0.000261
946	0.0003006
958	0.0003312
970	0.0001926
982	0.0002286
994	0.0003474
1006	0.0007038
1018	0.0010044
1030	0.001386
1042	0.0028224
1054	0.0014904
1066	0.0004968
1078	0.0002358
1090	0.0001278
1102	0.0001332
1114	0.0001476
1126	0.0001386
1138	0.0004662
1150	0.000882
1162	0.001224
1174	0.000675
1186	0.000666
1198	0.0002754
1210	0.0002826
1222	0.0004662
1234	0.0006588
1246	0.0016596
1258	0.0013194
1270	0.0002988
1282	0.0002106
1294	0.000225
1306	0.0003204
1318	0.0003564
1330	0.0006066
1342	0.0005256
1354	0.0002448
1366	0.0002394
1378	0.0002988
1390	0.000369
1402	0.0005778
1414	0.0005436
1426	0.000522
1438	0.001089
1450	0.0013194
1462	0.0006354
1474	0.0005742
1486	0.0007812
1498	0.000486
1510	0.0007218
1522	0.0012258
1534	0.0006408
1546	0.0009954
1558	0.0012276
1570	0.0006804
1582	0.0005112
1594	0.0004626
1606	0.0004716
1618	0.0007524
1630	0.000837
1642	0.000729
1654	0.0009504
1666	0.0013572
1678	0.0029124
1690	0.0111312
1702	0.017154
1714	0.004167
1726	0.0014418
1738	0.0011556
1750	0.0011898
1762	0.0008118
1774	0.0005616
1786	0.0005436
1798	0.0004806
1810	0.0004842
1822	0.0003546
1834	0.000234
1846	0.000216
1858	0.000189
1870	0.0001314
1882	0.0001242
1894	0.000243
1906	0.0003312
1918	0.0003276
1930	0.0003312
1942	0.0004248
1954	0.0002538
1966	0.0001242
1978	5.58e-05
1990	4.86e-05
2002	5.4e-05
2014	4.86e-05
2026	3.6e-05
2038	6.3e-05
2050	5.04e-05
2062	5.94e-05
2074	6.12e-05
2086	9e-05
2098	4.5e-05
2110	3.6e-05
2122	2.34e-05
2134	1.44e-05
2146	2.34e-05
2158	3.06e-05
2170	5.58e-05
2182	3.96e-05
2194	4.5e-05
2206	4.68e-05
2218	4.14e-05
2230	1.26e-05
2242	1.8e-05
2254	4.32e-05
2266	4.14e-05
2278	7.02e-05
2290	8.28e-05
2302	5.58e-05
2314	7.38e-05
2326	0.0001044
2338	5.76e-05
2350	6.48e-05
2362	7.92e-05
2374	5.94e-05
2386	5.58e-05
2398	5.22e-05
2410	4.86e-05
2422	3.6e-05
2434	6.12e-05
2446	5.4e-05
2458	3.06e-05
2470	3.78e-05
2482	3.78e-05
2494	5.76e-05
2506	3.42e-05
2518	4.68e-05
2530	5.76e-05
2542	3.42e-05
2554	3.06e-05
2566	3.96e-05
2578	6.66e-05
2590	7.92e-05
2602	7.02e-05
2614	8.46e-05
2626	0.0001098
2638	0.0001206
2650	0.0001278
2662	0.0001818
2674	0.0002016
2686	0.0002898
2698	0.0003312
2710	0.0004068
2722	0.0004968
2734	0.0006156
2746	0.000873
2758	0.0014202
2770	0.001683
2782	0.0011646
2794	0.000828
2806	0.0007488
2818	0.000765
2830	0.0007758
2842	0.0009126
2854	0.0010332
2866	0.000972
2878	0.00072
2890	0.000495
2902	0.000396
2914	0.0003384
2926	0.0003186
2938	0.0002862
2950	0.0002304
2962	0.0002196
2974	0.0002142
2986	0.0003564
2998	0.0005688
3010	0.0006786
3022	0.0008784
3034	0.0015462
3046	0.0022824
3058	0.0039546
3070	0.0032742
3082	0.0031212
3094	0.002232
3106	0.0007974
3118	0.0004734
3130	0.0002718
3142	0.0002178
3154	0.0002016
3166	0.0001152
3178	0.000126
3190	0.0001584
3202	0.0001044
3214	0.0001224
3226	8.1e-05
3238	5.76e-05
3250	0.000108
3262	7.02e-05
3274	2.7e-05
3286	6.3e-05
3298	7.2e-05
3310	0.0001098
3322	9.36e-05
3334	8.64e-05
3346	0.0001206
3358	0.0001188
3370	0.0002232
3382	0.0002736
3394	0.00018
3406	0.0001188
3418	6.48e-05
3430	4.5e-05
3442	7.02e-05
3454	9.54e-05
3466	8.82e-05
3478	4.32e-05
3490	5.94e-05
3502	6.48e-05
3514	8.28e-05
3526	4.86e-05
3538	9.54e-05
3550	5.76e-05
3562	6.3e-05
3574	6.48e-05
3586	5.4e-05
3598	5.04e-05
3610	6.84e-05
3622	6.66e-05
3634	8.64e-05
3646	5.94e-05
3658	9.18e-05
3670	9.9e-05
3682	0.0001062
3694	0.0001026
3706	8.82e-05
3718	9.18e-05
3730	6.3e-05
3742	0.0001152
3754	8.46e-05
3766	8.1e-05
3778	7.92e-05
3790	5.22e-05
3802	0.0001134
3814	9.36e-05
3826	0.0001116
3838	8.28e-05
