Infrared Spectrum: 4-MORPHOLINECARBODITHIOIC ACID, 3-MERCAPTOPROPYL ESTER
Formula: C8 H15 N O S3
CAS: 64226-32-0
State: LIQUID (NEAT)
Class: COBLENTZ III
Instrument: PERKIN-ELMER 221 (GRATING)
Instrument parameters: FILTER AT 980 CM^-^1. GRATING 4000-1428 CM^-^1, NaCl PRISM 1428-650 CM^-^1
Sampling: TRANSMISSION
Path length: CAPILLARY
Resolution: 2
Origin: SOUTHERN RESEARCH INSTITUTE
1/CM	TRANSMITTANCE
623.214	0.687
632.503	0.6918
641.792	0.708
651.081	0.7402
660.37	0.7712
669.659	0.7927
678.949	0.8136
688.238	0.8085
697.527	0.812
706.816	0.8174
716.105	0.8204
725.394	0.833
734.683	0.8288
743.972	0.8237
753.261	0.8262
762.55	0.832
771.839	0.838
781.128	0.8447
790.418	0.857
799.707	0.8469
808.996	0.7892
818.285	0.696
827.574	0.5732
836.863	0.7182
846.152	0.7673
855.441	0.7474
864.73	0.6224
874.019	0.4931
883.308	0.6658
892.597	0.7358
901.887	0.7297
911.176	0.583
920.465	0.6942
929.754	0.6841
939.043	0.6897
948.332	0.768
957.621	0.7201
966.91	0.6901
976.199	0.6392
985.488	0.3751
994.777	0.123
1004.07	0.2159
1013.36	0.3008
1022.64	0.1543
1031.93	0.1877
1041.22	0.3693
1050.51	0.4601
1059.8	0.4352
1069.09	0.4198
1078.38	0.5767
1087.67	0.696
1096.96	0.6505
1106.25	0.2115
1115.54	0.1082
1124.82	0.3862
1134.11	0.5878
1143.4	0.7148
1152.69	0.75
1161.98	0.7554
1171.27	0.7137
1180.56	0.6164
1189.85	0.4621
1199.14	0.564
1208.43	0.3549
1217.72	0.1803
1227	0.063
1236.29	0.2781
1245.58	0.4566
1254.87	0.342
1264.16	0.105
1273.45	0.2622
1282.74	0.4891
1292.03	0.551
1301.32	0.3814
1310.61	0.629
1319.9	0.717
1329.18	0.7125
1338.47	0.721
1347.76	0.701
1357.05	0.6228
1366.34	0.6749
1375.63	0.6397
1384.92	0.3953
1394.21	0.339
1403.5	0.2139
1412.79	0.0945
1422.08	0.1203
1431.36	0.1832
1440.65	0.3155
1449.94	0.344
1459.23	0.2106
1468.52	0.2409
1477.81	0.4872
1487.1	0.6235
1496.39	0.6729
1505.68	0.6909
1514.97	0.7795
1524.26	0.8432
1533.54	0.8628
1542.83	0.8816
1552.12	0.8912
1561.41	0.903
1570.7	0.905
1579.99	0.912
1589.28	0.913
1598.57	0.9087
1607.86	0.898
1617.15	0.896
1626.44	0.893
1635.72	0.893
1645.01	0.885
1654.3	0.8898
1663.59	0.8996
1672.88	0.906
1682.17	0.905
1691.46	0.908
1700.75	0.912
1710.04	0.913
1719.33	0.9112
1728.62	0.912
1737.9	0.914
1747.19	0.9115
1756.48	0.9092
1765.77	0.9169
1775.06	0.917
1784.35	0.912
1793.64	0.9158
1802.93	0.917
1812.22	0.918
1821.51	0.918
1830.79	0.92
1840.08	0.92
1849.37	0.917
1858.66	0.916
1867.95	0.917
1877.24	0.914
1886.53	0.9137
1895.82	0.912
1905.11	0.912
1914.4	0.909
1923.69	0.905
1932.97	0.901
1942.26	0.8971
1951.55	0.894
1960.84	0.894
1970.13	0.893
1979.42	0.893
1988.71	0.8924
1998	0.896
2007.29	0.9
2016.58	0.901
2025.87	0.902
2035.15	0.9
2044.44	0.901
2053.73	0.905
2063.02	0.906
2072.31	0.908
2081.6	0.908
2090.89	0.906
2100.18	0.905
2109.47	0.908
2118.76	0.909
2128.05	0.909
2137.33	0.909
2146.62	0.9055
2155.91	0.9055
2165.2	0.912
2174.49	0.912
2183.78	0.911
2193.07	0.91
2202.36	0.909
2211.65	0.907
2220.94	0.905
2230.23	0.902
2239.51	0.902
2248.8	0.9055
2258.09	0.906
2267.38	0.904
2276.67	0.902
2285.96	0.905
2295.25	0.9055
2304.54	0.906
2313.83	0.905
2323.12	0.903
2332.41	0.899
2341.69	0.896
2350.98	0.893
2360.27	0.89
2369.56	0.893
2378.85	0.893
2388.14	0.893
2397.43	0.891
2406.72	0.889
2416.01	0.8855
2425.3	0.884
2434.59	0.884
2443.87	0.8815
2453.16	0.878
2462.45	0.871
2471.74	0.869
2481.03	0.868
2490.32	0.8615
2499.61	0.856
2508.9	0.837
2518.19	0.827
2527.48	0.8135
2536.77	0.805
2546.05	0.802
2555.34	0.807
2564.63	0.819
2573.92	0.847
2583.21	0.866
2592.5	0.874
2601.79	0.873
2611.08	0.8725
2620.37	0.874
2629.66	0.874
2638.95	0.872
2648.23	0.869
2657.52	0.8685
2666.81	0.87
2676.1	0.867
2685.39	0.862
2694.68	0.8565
2703.97	0.8495
2713.26	0.842
2722.55	0.846
2731.84	0.852
2741.13	0.8535
2750.41	0.848
2759.7	0.8285
2768.99	0.826
2778.28	0.83
2787.57	0.829
2796.86	0.814
2806.15	0.7945
2815.44	0.7631
2824.73	0.7145
2834.02	0.6546
2843.31	0.5493
2852.59	0.3792
2861.88	0.3889
2871.17	0.5022
2880.46	0.501
2889.75	0.4701
2899.04	0.4244
2908.33	0.3695
2917.62	0.359
2926.91	0.3709
2936.2	0.4388
2945.49	0.531
2954.77	0.5066
2964.06	0.438
2973.35	0.4749
2982.64	0.5739
2991.93	0.6549
3001.22	0.7488
3010.51	0.813
3019.8	0.848
3029.09	0.86
3038.38	0.8645
3047.67	0.866
3056.95	0.871
3066.24	0.874
3075.53	0.874
3084.82	0.878
3094.11	0.88
3103.4	0.88
3112.69	0.882
3121.98	0.882
3131.27	0.882
3140.56	0.881
3149.84	0.881
3159.13	0.881
3168.42	0.8805
3177.71	0.876
3187	0.873
3196.29	0.8765
3205.58	0.876
3214.87	0.8735
3224.16	0.873
3233.45	0.87
3242.74	0.869
3252.02	0.866
3261.31	0.864
3270.6	0.8615
3279.89	0.86
3289.18	0.858
3298.47	0.8565
3307.76	0.856
3317.05	0.854
3326.34	0.852
3335.63	0.845
3344.92	0.841
3354.2	0.8335
3363.49	0.83
3372.78	0.8235
3382.07	0.8135
3391.36	0.809
3400.65	0.801
3409.94	0.7935
3419.23	0.785
3428.52	0.7765
3437.81	0.77
3447.1	0.758
3456.38	0.745
3465.67	0.7415
3474.96	0.739
3484.25	0.74
3493.54	0.742
3502.83	0.746
3512.12	0.7545
3521.41	0.7655
3530.7	0.773
3539.99	0.777
3549.28	0.791
3558.56	0.798
3567.85	0.813
3577.14	0.819
3586.43	0.829
3595.72	0.837
3605.01	0.8415
3614.3	0.8515
3623.59	0.854
3632.88	0.8585
3642.17	0.862
3651.46	0.8685
3660.74	0.8645
3670.03	0.872
3679.32	0.868
3688.61	0.87
3697.9	0.87
3707.19	0.869
3716.48	0.869
3725.77	0.872
3735.06	0.872
3744.35	0.872
3753.64	0.872
3762.92	0.872
3772.21	0.872
3781.5	0.872
3790.79	0.872
3800.08	0.873
3809.37	0.875
