Infrared Spectrum: MORPHOLINECARBODITHIOIC ACID, 3,3'-DITHIODIPROPYL ESTER
Formula: C16 H28 N2 O2 S6
CAS: 64226-39-7
State: SOLID (0.8 mg / 650 mg KBr DISC)
Class: COBLENTZ III
Instrument: PERKIN-ELMER 221 (GRATING)
Instrument parameters: FILTER AT 2490, 980 CM^-^1. GRATING 4000-1428 CM^-^1, NaCl PRISM 1428-650 CM^-^1
Sampling: TRANSMISSION
Resolution: 2
Origin: SOUTHERN RESEARCH INSTITUTE
1/CM	TRANSMITTANCE
638.926	0.932
648.198	0.9736
657.469	0.976
666.741	0.9577
676.012	0.9404
685.284	0.937
694.555	0.9227
703.827	0.8911
713.098	0.8875
722.37	0.9028
731.641	0.8394
740.913	0.8485
750.184	0.8857
759.456	0.8902
768.727	0.8491
777.999	0.8626
787.27	0.883
796.542	0.88
805.813	0.8644
815.085	0.8021
824.356	0.7472
833.628	0.8332
842.9	0.85
852.171	0.8544
861.443	0.674
870.714	0.5798
879.986	0.8007
889.257	0.871
898.529	0.86
907.8	0.6382
917.072	0.8202
926.343	0.85
935.615	0.847
944.886	0.8342
954.158	0.7997
963.429	0.7682
972.701	0.7291
981.972	0.5421
991.244	0.285
1000.52	0.1504
1009.79	0.4604
1019.06	0.4489
1028.33	0.289
1037.6	0.3952
1046.87	0.6802
1056.14	0.7269
1065.42	0.6215
1074.69	0.7611
1083.96	0.7659
1093.23	0.7148
1102.5	0.4835
1111.77	0.1533
1121.05	0.4197
1130.32	0.771
1139.59	0.845
1148.86	0.8451
1158.13	0.8342
1167.4	0.8144
1176.67	0.7388
1185.95	0.5196
1195.22	0.6286
1204.49	0.543
1213.76	0.2215
1223.03	0.1113
1232.3	0.3578
1241.58	0.6537
1250.85	0.575
1260.12	0.3497
1269.39	0.207
1278.66	0.6603
1287.93	0.77
1297.2	0.6658
1306.48	0.7002
1315.75	0.7878
1325.02	0.7231
1334.29	0.7694
1343.56	0.8021
1352.83	0.7137
1362.1	0.7581
1371.38	0.7777
1380.65	0.6942
1389.92	0.5469
1399.19	0.5483
1408.46	0.374
1417.73	0.1914
1427.01	0.2208
1436.28	0.3546
1445.55	0.5348
1454.82	0.3508
1464.09	0.3531
1473.36	0.673
1482.63	0.7741
1491.91	0.8503
1501.18	0.8851
1510.45	0.9023
1519.72	0.906
1528.99	0.906
1538.26	0.904
1547.54	0.904
1556.81	0.904
1566.08	0.904
1575.35	0.904
1584.62	0.902
1593.89	0.8971
1603.16	0.8867
1612.44	0.8797
1621.71	0.8695
1630.98	0.866
1640.25	0.874
1649.52	0.8829
1658.79	0.888
1668.07	0.8957
1677.34	0.9
1686.61	0.902
1695.88	0.903
1705.15	0.904
1714.42	0.906
1723.69	0.907
1732.97	0.907
1742.24	0.907
1751.51	0.906
1760.78	0.903
1770.05	0.903
1779.32	0.904
1788.6	0.9035
1797.87	0.9066
1807.14	0.9037
1816.41	0.9016
1825.68	0.9
1834.95	0.9
1844.22	0.9
1853.5	0.899
1862.77	0.898
1872.04	0.895
1881.31	0.894
1890.58	0.892
1899.85	0.89
1909.12	0.888
1918.4	0.886
1927.67	0.883
1936.94	0.88
1946.21	0.88
1955.48	0.882
1964.75	0.879
1974.03	0.878
1983.3	0.88
1992.57	0.883
2001.84	0.882
2011.11	0.8796
2020.38	0.8756
2029.65	0.875
2038.93	0.875
2048.2	0.876
2057.47	0.879
2066.74	0.879
2076.01	0.879
2085.28	0.8746
2094.56	0.87
2103.83	0.87
2113.1	0.871
2122.37	0.871
2131.64	0.871
2140.91	0.87
2150.18	0.8704
2159.46	0.871
2168.73	0.871
2178	0.871
2187.27	0.871
2196.54	0.87
2205.81	0.869
2215.09	0.863
2224.36	0.863
2233.63	0.863
2242.9	0.863
2252.17	0.863
2261.44	0.8626
2270.71	0.862
2279.99	0.862
2289.26	0.862
2298.53	0.8586
2307.8	0.855
2317.07	0.853
2326.34	0.851
2335.62	0.85
2344.89	0.85
2354.16	0.85
2363.43	0.85
2372.7	0.8506
2381.97	0.8496
2391.24	0.85
2400.52	0.847
2409.79	0.847
2419.06	0.8426
2428.33	0.842
2437.6	0.842
2446.87	0.8414
2456.14	0.841
2465.42	0.841
2474.69	0.841
2483.96	0.841
2493.23	0.839
2502.5	0.838
2511.77	0.837
2521.05	0.834
2530.32	0.834
2539.59	0.833
2548.86	0.832
2558.13	0.83
2567.4	0.829
2576.67	0.829
2585.95	0.828
2595.22	0.828
2604.49	0.8254
2613.76	0.822
2623.03	0.82
2632.3	0.8176
2641.58	0.8166
2650.85	0.814
2660.12	0.816
2669.39	0.813
2678.66	0.805
2687.93	0.802
2697.2	0.7992
2706.48	0.796
2715.75	0.794
2725.02	0.796
2734.29	0.797
2743.56	0.789
2752.83	0.779
2762.11	0.775
2771.38	0.775
2780.65	0.773
2789.92	0.7686
2799.19	0.7588
2808.46	0.7448
2817.73	0.7332
2827.01	0.7081
2836.28	0.6684
2845.55	0.5769
2854.82	0.449
2864.09	0.5652
2873.36	0.6296
2882.63	0.6039
2891.91	0.5537
2901.18	0.5319
2910.45	0.5436
2919.72	0.5522
2928.99	0.5769
2938.26	0.6378
2947.54	0.6662
2956.81	0.5934
2966.08	0.5698
2975.35	0.6844
2984.62	0.7455
2993.89	0.7806
3003.16	0.7982
3012.44	0.801
3021.71	0.805
3030.98	0.804
3040.25	0.802
3049.52	0.8016
3058.79	0.798
3068.07	0.798
3077.34	0.797
3086.61	0.794
3095.88	0.793
3105.15	0.792
3114.42	0.789
3123.69	0.789
3132.97	0.788
3142.24	0.785
3151.51	0.783
3160.78	0.78
3170.05	0.7766
3179.32	0.7742
3188.6	0.771
3197.87	0.768
3207.14	0.765
3216.41	0.7622
3225.68	0.7596
3234.95	0.7556
3244.22	0.752
3253.5	0.748
3262.77	0.747
3272.04	0.744
3281.31	0.7436
3290.58	0.743
3299.85	0.7372
3309.13	0.731
3318.4	0.7258
3327.67	0.7156
3336.94	0.707
3346.21	0.699
3355.48	0.693
3364.75	0.685
3374.03	0.6786
3383.3	0.6722
3392.57	0.667
3401.84	0.665
3411.11	0.662
3420.38	0.662
3429.65	0.664
3438.93	0.662
3448.2	0.662
3457.47	0.664
3466.74	0.666
3476.01	0.6704
3485.28	0.6704
3494.56	0.674
3503.83	0.679
3513.1	0.683
3522.37	0.6878
3531.64	0.693
3540.91	0.701
3550.18	0.7064
3559.46	0.7114
3568.73	0.718
3578	0.7194
3587.27	0.7331
3596.54	0.742
3605.81	0.743
3615.09	0.744
3624.36	0.746
3633.63	0.748
3642.9	0.7514
3652.17	0.7514
3661.44	0.7492
3670.71	0.747
3679.99	0.748
3689.26	0.75
3698.53	0.751
3707.8	0.753
3717.07	0.753
3726.34	0.753
3735.62	0.7526
3744.89	0.751
3754.16	0.7492
3763.43	0.748
3772.7	0.748
3781.97	0.748
3791.24	0.747
3800.52	0.746
3809.79	0.746
3819.06	0.744
3828.33	0.743
3837.6	0.74
3846.87	0.739
3856.15	0.736
3865.42	0.734
3874.69	0.732
3883.96	0.731
3893.23	0.731
3902.5	0.73
3911.77	0.728
3921.05	0.726
3930.32	0.724
3939.59	0.7226
3948.86	0.72
3958.13	0.72
3967.4	0.719
3976.67	0.718
3985.95	0.718
3995.22	0.718
4004.49	0.7184
4013.76	0.719
