Infrared Spectrum: p-Azidobenzoic acid
Formula: C 7 H 5 N 3 O 2
CAS: 6427-66-3
State: gas
Origin: EPA-IR VAPOR PHASE LIBRARY
1/CM	ABSORBANCE
549.8	0.00832
559.445	0.00808
569.09	0.00847
578.734	0.00821
588.379	0.00863
598.024	0.00933
607.669	0.005789
617.313	0.00531
626.958	0.00533
636.603	0.0051
646.248	0.00534
655.893	0.005722
665.537	0.005945
675.182	0.005878
684.827	0.005738
694.472	0.005556
704.116	0.00658066
713.761	0.0073628
723.406	0.0086
733.051	0.006191
742.695	0.005721
752.34	0.00531
761.985	0.00531
771.63	0.005637
781.275	0.00481
790.919	0.00429
800.564	0.00431
810.209	0.00368
819.854	0.00346
829.498	0.00333
839.143	0.00357
848.788	0.00328
858.433	0.0026
868.078	0.00258
877.722	0.00318
887.367	0.00264
897.012	0.00259
906.657	0.00253
916.301	0.00263
925.946	0.00248
935.591	0.00275
945.236	0.00262
954.88	0.00279
964.525	0.00273
974.17	0.00233
983.815	0.00245
993.46	0.00246
1003.1	0.00264
1012.75	0.00475
1022.39	0.00298
1032.04	0.00278
1041.68	0.00274
1051.33	0.00431
1060.97	0.0066279
1070.62	0.0136
1080.26	0.02021
1089.91	0.01059
1099.55	0.00506
1109.2	0.0038
1118.84	0.00409
1128.49	0.00456
1138.13	0.00414
1147.78	0.00496
1157.42	0.01057
1167.07	0.01574
1176.71	0.01632
1186.36	0.01161
1196	0.00546
1205.64	0.00298
1215.29	0.00184
1224.93	0.00208
1234.58	0.00227
1244.22	0.00276
1253.87	0.00376
1263.51	0.00472
1273.16	0.00652964
1282.8	0.00985
1292.45	0.00998
1302.09	0.006325
1311.74	0.00478
1321.38	0.005758
1331.03	0.0066503
1340.67	0.00486
1350.32	0.00494
1359.96	0.00783
1369.61	0.0067766
1379.25	0.00261
1388.9	0.0017
1398.54	0.00167
1408.18	0.00205
1417.83	0.00258
1427.47	0.0025
1437.12	0.00229
1446.76	0.00171
1456.41	0.00141
1466.05	0.00114
1475.7	0.00095
1485.34	0.00105
1494.99	0.00181
1504.63	0.00283
1514.28	0.00242
1523.92	0.00165
1533.57	0.00081
1543.21	0.00066
1552.86	0.00065
1562.5	0.0008
1572.15	0.0009
1581.79	0.00133
1591.44	0.00333
1601.08	0.00791
1610.73	0.0066591
1620.37	0.005665
1630.01	0.00505
1639.66	0.00231
1649.3	0.00034
1658.95	4e-05
1668.59	5e-05
1678.24	0.00015
1687.88	0.00031
1697.53	0.0007
1707.17	0.00158
1716.82	0.00234
1726.46	0.00323
1736.11	0.0066728
1745.75	0.01634
1755.4	0.03443
1765.04	0.03048
1774.69	0.00892
1784.33	0.00365
1793.98	0.0021
1803.62	0.00166
1813.27	0.00142
1822.91	0.00116
1832.55	0.0009
1842.2	0.00061
1851.84	0.00051
1861.49	0.00043
1871.13	0.00038
1880.78	0.00035
1890.42	0.00036
1900.07	0.00045
1909.71	0.00052
1919.36	0.00054
1929	0.0005
1938.65	0.00053
1948.29	0.00053
1957.94	0.00044
1967.58	0.00042
1977.23	0.00026
1986.87	0.00024
1996.52	0.00023
2006.16	0.00026
2015.81	0.00032
2025.45	0.00042
2035.1	0.00055
2044.74	0.0006
2054.38	0.00073
2064.03	0.00112
2073.67	0.00178
2083.32	0.00344
2092.96	0.006294
2102.61	0.00873
2112.25	0.00821
2121.9	0.0072048
2131.54	0.0074361
2141.19	0.0053
2150.83	0.00214
2160.48	0.00112
2170.12	0.00079
2179.77	0.00062
2189.41	0.0006
2199.06	0.00063
2208.7	0.00062
2218.35	0.00065
2227.99	0.00075
2237.64	0.00092
2247.28	0.0011
2256.92	0.00125
2266.57	0.00158
2276.21	0.00192
2285.86	0.00163
2295.5	0.00142
2305.15	0.00172
2314.79	0.00199
2324.44	0.00221
2334.08	0.00219
2343.73	0.00201
2353.37	0.00225
2363.02	0.00287
2372.66	0.00236
2382.31	0.00123
2391.95	0.00072
2401.6	0.00093
2411.24	0.00097
2420.89	0.00086
2430.53	0.00069
2440.18	0.00058
2449.82	0.00061
2459.47	0.00058
2469.11	0.00051
2478.75	0.00045
2488.4	0.00044
2498.04	0.0004
2507.69	0.00042
2517.33	0.00042
2526.98	0.00043
2536.62	0.00053
2546.27	0.00045
2555.91	0.00052
2565.56	0.00047
2575.2	0.00061
2584.85	0.00063
2594.49	0.00048
2604.14	0.0005
2613.78	0.00054
2623.43	0.00049
2633.07	0.00054
2642.72	0.00051
2652.36	0.00053
2662.01	0.00054
2671.65	0.00051
2681.29	0.00055
2690.94	0.00053
2700.58	0.0005
2710.23	0.00061
2719.87	0.00046
2729.52	0.00068
2739.16	0.00069
2748.81	0.00064
2758.45	0.0007
2768.1	0.0007
2777.74	0.00075
2787.39	0.00072
2797.03	0.0007
2806.68	0.00072
2816.32	0.00067
2825.97	0.00078
2835.61	0.0007
2845.26	0.00072
2854.9	0.00073
2864.55	0.00071
2874.19	0.00071
2883.84	0.0008
2893.48	0.00075
2903.12	0.00079
2912.77	0.00075
2922.41	0.00088
2932.06	0.0009
2941.7	0.00077
2951.35	0.00107
2960.99	0.00082
2970.64	0.00086
2980.28	0.00091
2989.93	0.00091
2999.57	0.00096
3009.22	0.00101
3018.86	0.00108
3028.51	0.00117
3038.15	0.00137
3047.8	0.00142
3057.44	0.00131
3067.09	0.00121
3076.73	0.00119
3086.38	0.00117
3096.02	0.00112
3105.67	0.00117
3115.31	0.00104
3124.95	0.001
3134.6	0.00096
3144.24	0.00104
3153.89	0.00108
3163.53	0.0011
3173.18	0.00104
3182.82	0.00121
3192.47	0.00107
3202.11	0.00134
3211.76	0.00135
3221.4	0.00129
3231.05	0.00118
3240.69	0.00132
3250.34	0.00128
3259.98	0.00134
3269.63	0.00143
3279.27	0.00135
3288.92	0.00143
3298.56	0.00131
3308.21	0.00142
3317.85	0.00139
3327.49	0.00138
3337.14	0.00157
3346.78	0.00149
3356.43	0.00155
3366.07	0.00161
3375.72	0.00167
3385.36	0.00167
3395.01	0.00164
3404.65	0.00199
3414.3	0.00207
3423.94	0.00235
3433.59	0.00222
3443.23	0.00197
3452.88	0.00193
3462.52	0.00186
3472.17	0.00203
3481.81	0.0021
3491.46	0.00215
3501.1	0.0023
3510.75	0.00239
3520.39	0.00216
3530.04	0.00223
3539.68	0.00215
3549.32	0.00201
3558.97	0.00226
3568.61	0.00375
3578.26	0.01191
3587.9	0.01215
3597.55	0.00397
3607.19	0.00237
3616.84	0.00212
3626.48	0.00209
3636.13	0.00193
3645.77	0.002
3655.42	0.00201
3665.06	0.00202
3674.71	0.00209
3684.35	0.00182
3694	0.00193
3703.64	0.00208
3713.29	0.00202
3722.93	0.00193
3732.58	0.00213
3742.22	0.00207
3751.86	0.00198
3761.51	0.00201
3771.15	0.00196
3780.8	0.00193
3790.44	0.00181
3800.09	0.00196
3809.73	0.00202
3819.38	0.00203
3829.02	0.00201
3838.67	0.00201
3848.31	0.00205
3857.96	0.00214
3867.6	0.00201
3877.25	0.00193
3886.89	0.00195
3896.54	0.00207
3906.18	0.00199
3915.83	0.00196
3925.47	0.002
3935.12	0.00214
3944.76	0.00213
3954.41	0.00207
3964.05	0.002
3973.69	0.00203
3983.34	0.00187
3992.98	0.00219
