Infrared Spectrum: M-PHENYLENE DIBENZOATE
Formula: C20 H14 O4
CAS: 643-94-7
State: SOLID (MULL)
Melting point: 116-117 C
Class: COBLENTZ
Instrument: Not specified, most likely a prism, grating, or hybrid spectrometer.
Sampling: TRANSMISSION
Resolution: 4
Origin: WYANDOTTE CHEMICALS CORP., WYANDOTTE, MICHIGAN, USA
MICROMETERS	TRANSMITTANCE
2.029	0.5
2.06889	0.504
2.10879	0.509
2.14868	0.516
2.18858	0.518
2.22847	0.518
2.26837	0.516
2.30826	0.528
2.34815	0.533
2.38805	0.536
2.42794	0.544
2.46784	0.552
2.50773	0.557
2.54763	0.569
2.58752	0.577
2.62741	0.577
2.66731	0.587
2.7072	0.591
2.7471	0.594
2.78699	0.587
2.82689	0.591
2.86678	0.597
2.90667	0.571
2.94657	0.581
2.98646	0.582
3.02636	0.589
3.06625	0.591
3.10615	0.589
3.14604	0.581
3.18593	0.576
3.22583	0.562
3.26572	0.478
3.30562	0.476
3.34551	0.246
3.38541	0.048
3.4253	0.056
3.46519	0.137
3.50509	0.12
3.54498	0.471
3.58488	0.71
3.62477	0.751
3.66467	0.741
3.70456	0.733
3.74445	0.746
3.78435	0.748
3.82424	0.748
3.86414	0.759
3.90403	0.771
3.94393	0.786
3.98382	0.793
4.02371	0.796
4.06361	0.799
4.1035	0.799
4.1434	0.804
4.18329	0.801
4.22319	0.812
4.26308	0.781
4.30297	0.799
4.34287	0.807
4.38276	0.834
4.42266	0.847
4.46255	0.836
4.50245	0.85
4.54234	0.852
4.58223	0.859
4.62213	0.855
4.66202	0.86
4.70192	0.87
4.74181	0.867
4.78171	0.885
4.8216	0.887
4.86149	0.89
4.90139	0.89
4.94128	0.899
4.98118	0.902
5.02107	0.907
5.06097	0.879
5.10086	0.895
5.14075	0.905
5.18065	0.927
5.22054	0.9
5.26044	0.912
5.30033	0.913
5.34023	0.938
5.38012	0.96
5.42001	0.966
5.45991	0.958
5.4998	0.915
5.5397	0.92
5.57959	0.925
5.61949	0.889
5.65938	0.778
5.69927	0.576
5.73917	0.261
5.77906	0.195
5.81896	0.418
5.85885	0.523
5.89875	0.574
5.93864	0.663
5.97853	0.692
6.01843	0.705
6.05832	0.73
6.09822	0.778
6.13811	0.758
6.17801	0.567
6.2179	0.359
6.25779	0.524
6.29769	0.639
6.33758	0.733
6.37748	0.745
6.41737	0.766
6.45727	0.789
6.49716	0.809
6.53705	0.799
6.57695	0.794
6.61684	0.793
6.65674	0.675
6.69663	0.509
6.73653	0.408
6.77642	0.329
6.81631	0.284
6.85621	0.2
6.8961	0.347
6.936	0.584
6.97589	0.687
7.01579	0.781
7.05568	0.802
7.09557	0.802
7.13547	0.798
7.17536	0.751
7.21526	0.562
7.25515	0.448
7.29505	0.612
7.33494	0.723
7.37484	0.753
7.41473	0.746
7.45462	0.738
7.49452	0.74
7.53441	0.72
7.57431	0.582
7.6142	0.538
7.6541	0.579
7.69399	0.531
7.73388	0.473
7.77378	0.299
7.81367	0.177
7.85357	0.135
7.89346	0.236
7.93336	0.153
7.97325	0.119
8.01314	0.12
8.05304	0.139
8.09293	0.117
8.13283	0.211
8.17272	0.352
8.21262	0.443
8.25251	0.551
8.2924	0.625
8.3323	0.677
8.37219	0.715
8.41209	0.708
8.45198	0.543
8.49188	0.397
8.53177	0.567
8.57166	0.619
8.61156	0.556
8.65145	0.443
8.69135	0.554
8.73124	0.46
8.77114	0.264
8.81103	0.117
8.85092	0.231
8.89082	0.408
8.93071	0.544
8.97061	0.627
9.0105	0.687
9.0504	0.725
9.09029	0.758
9.13018	0.748
9.17008	0.577
9.20997	0.327
9.24987	0.289
9.28976	0.37
9.32966	0.486
9.36955	0.223
9.40944	0.139
9.44934	0.317
9.48923	0.466
9.52913	0.566
9.56902	0.635
9.60892	0.675
9.64881	0.71
9.6887	0.701
9.7286	0.564
9.76849	0.357
9.80839	0.554
9.84828	0.653
9.88818	0.721
9.92807	0.721
9.96796	0.493
10.0079	0.609
10.0478	0.71
10.0876	0.728
10.1275	0.733
10.1674	0.726
10.2073	0.71
10.2472	0.725
10.2871	0.69
10.327	0.723
10.3669	0.773
10.4068	0.799
10.4467	0.804
10.4866	0.811
10.5265	0.811
10.5664	0.801
10.6063	0.73
10.6462	0.574
10.6861	0.564
10.726	0.644
10.7658	0.68
10.8057	0.773
10.8456	0.819
10.8855	0.836
10.9254	0.796
10.9653	0.816
11.0052	0.854
11.0451	0.842
11.085	0.733
11.1249	0.407
11.1648	0.544
11.2047	0.697
11.2446	0.778
11.2845	0.814
11.3244	0.837
11.3643	0.855
11.4042	0.862
11.4441	0.875
11.4839	0.875
11.5238	0.879
11.5637	0.89
11.6036	0.89
11.6435	0.897
11.6834	0.877
11.7233	0.869
11.7632	0.874
11.8031	0.887
11.843	0.899
11.8829	0.907
11.9228	0.913
11.9627	0.918
12.0026	0.874
12.0425	0.779
12.0824	0.819
12.1223	0.88
12.1621	0.912
12.202	0.918
12.2419	0.925
12.2818	0.93
12.3217	0.932
12.3616	0.928
12.4015	0.887
12.4414	0.763
12.4813	0.802
12.5212	0.721
12.5611	0.764
12.601	0.879
12.6409	0.908
12.6808	0.917
12.7207	0.889
12.7606	0.735
12.8005	0.488
12.8404	0.45
12.8802	0.673
12.9201	0.794
12.96	0.822
12.9999	0.774
13.0398	0.816
13.0797	0.87
13.1196	0.885
13.1595	0.9
13.1994	0.905
13.2393	0.907
13.2792	0.905
13.3191	0.907
13.359	0.907
13.3989	0.912
13.4388	0.903
13.4787	0.894
13.5186	0.892
13.5585	0.88
13.5983	0.875
13.6382	0.865
13.6781	0.86
13.718	0.852
13.7579	0.836
13.7978	0.814
13.8377	0.774
13.8776	0.733
13.9175	0.663
13.9574	0.584
13.9973	0.473
14.0372	0.284
14.0771	0.193
14.117	0.153
14.1569	0.135
14.1968	0.105
14.2367	0.125
14.2765	0.175
14.3164	0.25
14.3563	0.296
14.3962	0.329
14.4361	0.423
14.476	0.552
14.5159	0.615
14.5558	0.645
14.5957	0.605
14.6356	0.554
14.6755	0.549
14.7154	0.572
14.7553	0.602
14.7952	0.614
14.8351	0.632
14.875	0.652
14.9149	0.665
14.9548	0.617
14.9946	0.576
15.0345	0.539
15.0744	0.615
15.1143	0.705
15.1542	0.735
15.1941	0.748
15.234	0.75
15.2739	0.745
15.3138	0.761
15.3537	0.746
15.3936	0.754
15.4335	0.74
15.4734	0.74
15.5133	0.726
15.5532	0.738
15.5931	0.726
15.633	0.733
15.6728	0.718
15.7127	0.723
15.7526	0.701
15.7925	0.688
15.8324	0.692
15.8723	0.678
15.9122	0.67
15.9521	0.66
15.992	0.65
