Infrared Spectrum: O-AMINO CUMENE
Formula: C9 H13 N
CAS: 643-28-7
State: SOLUTION (10% CCl4 FOR 2.5-7.5, 10% CS2 FOR 7.5-16 MICRON)
Class: COBLENTZ
Instrument: Not specified, most likely a prism, grating, or hybrid spectrometer.
Sampling: TRANSMISSION
Path length: 0.01 CM, 0.01 CM
Resolution: 4
Origin: DOW CHEMICAL COMPANY
MICROMETERS	TRANSMITTANCE
2.033	0.971
2.07247	0.972
2.11195	0.967
2.15142	0.969
2.19089	0.967
2.23037	0.964
2.26984	0.961
2.30931	0.959
2.34879	0.956
2.38826	0.952
2.42773	0.951
2.46721	0.951
2.50668	0.949
2.54615	0.945
2.58563	0.949
2.6251	0.949
2.66457	0.951
2.70405	0.951
2.74352	0.952
2.783	0.939
2.82247	0.81
2.86194	0.729
2.90142	0.736
2.94089	0.746
2.98036	0.891
3.01984	0.915
3.05931	0.912
3.09878	0.91
3.13826	0.915
3.17773	0.902
3.2172	0.756
3.25668	0.665
3.29615	0.65
3.33562	0.548
3.3751	0.282
3.41457	0.481
3.45404	0.538
3.49352	0.871
3.53299	0.915
3.57246	0.942
3.61194	0.949
3.65141	0.951
3.69088	0.952
3.73036	0.952
3.76983	0.954
3.8093	0.954
3.84878	0.952
3.88825	0.957
3.92772	0.964
3.9672	0.967
4.00667	0.967
4.04614	0.967
4.08562	0.969
4.12509	0.971
4.16456	0.967
4.20404	0.967
4.24351	0.967
4.28299	0.974
4.32246	0.974
4.36193	0.974
4.40141	0.974
4.44088	0.974
4.48035	0.974
4.51983	0.976
4.5593	0.976
4.59877	0.976
4.63825	0.974
4.67772	0.974
4.71719	0.974
4.75667	0.972
4.79614	0.972
4.83561	0.972
4.87509	0.972
4.91456	0.972
4.95403	0.971
4.99351	0.972
5.03298	0.972
5.07245	0.971
5.11193	0.971
5.1514	0.954
5.19087	0.929
5.23035	0.935
5.26982	0.91
5.30929	0.93
5.34877	0.942
5.38824	0.947
5.42771	0.954
5.46719	0.954
5.50666	0.945
5.54613	0.944
5.58561	0.934
5.62508	0.927
5.66455	0.939
5.70403	0.942
5.7435	0.947
5.78298	0.923
5.82245	0.912
5.86192	0.907
5.9014	0.905
5.94087	0.888
5.98034	0.853
6.01982	0.812
6.05929	0.68
6.09876	0.486
6.13824	0.199
6.17771	0.155
6.21718	0.484
6.25666	0.586
6.29613	0.55
6.3356	0.783
6.37508	0.82
6.41455	0.861
6.45402	0.863
6.4935	0.853
6.53297	0.826
6.57244	0.797
6.61192	0.548
6.65139	0.292
6.69086	0.275
6.73034	0.648
6.76981	0.597
6.80928	0.478
6.84876	0.278
6.88823	0.452
6.9277	0.709
6.96718	0.815
7.00665	0.858
7.04612	0.869
7.0856	0.873
7.12507	0.866
7.16454	0.756
7.20402	0.751
7.24349	0.819
7.28297	0.677
7.32244	0.719
7.36191	0.788
7.40139	0.878
7.44086	0.9
7.48033	0.902
7.51981	0.851
7.55928	0.766
7.59875	0.672
7.63823	0.538
7.6777	0.336
7.71717	0.233
7.75665	0.603
7.79612	0.731
7.83559	0.672
7.87507	0.508
7.91454	0.422
7.95401	0.633
7.99349	0.788
8.03296	0.859
8.07243	0.886
8.11191	0.9
8.15138	0.9
8.19085	0.903
8.23033	0.91
8.2698	0.903
8.30927	0.902
8.34875	0.907
8.38822	0.908
8.42769	0.912
8.46717	0.905
8.50664	0.881
8.54611	0.807
8.58559	0.655
8.62506	0.581
8.66453	0.756
8.70401	0.829
8.74348	0.861
8.78296	0.856
8.82243	0.812
8.8619	0.782
8.90138	0.809
8.94085	0.851
8.98032	0.846
9.0198	0.804
9.05927	0.733
9.09874	0.733
9.13822	0.788
9.17769	0.82
9.21716	0.834
9.25664	0.819
9.29611	0.827
9.33558	0.868
9.37506	0.886
9.41453	0.891
9.454	0.886
9.49348	0.859
9.53295	0.81
9.57242	0.714
9.6119	0.587
9.65137	0.604
9.69084	0.804
9.73032	0.886
9.76979	0.913
9.80926	0.93
9.84874	0.937
9.88821	0.94
9.92768	0.942
9.96716	0.942
10.0066	0.944
10.0461	0.944
10.0856	0.939
10.1251	0.935
10.1645	0.935
10.204	0.93
10.2435	0.927
10.2829	0.922
10.3224	0.915
10.3619	0.908
10.4014	0.903
10.4408	0.902
10.4803	0.903
10.5198	0.905
10.5593	0.905
10.5987	0.898
10.6382	0.876
10.6777	0.824
10.7172	0.709
10.7566	0.709
10.7961	0.846
10.8356	0.876
10.875	0.891
10.9145	0.903
10.954	0.905
10.9935	0.907
11.0329	0.905
11.0724	0.903
11.1119	0.89
11.1514	0.844
11.1908	0.829
11.2303	0.853
11.2698	0.866
11.3093	0.866
11.3487	0.866
11.3882	0.869
11.4277	0.871
11.4671	0.868
11.5066	0.866
11.5461	0.859
11.5856	0.853
11.625	0.842
11.6645	0.827
11.704	0.804
11.7435	0.782
11.7829	0.788
11.8224	0.841
11.8619	0.863
11.9014	0.864
11.9408	0.849
11.9803	0.8
12.0198	0.756
12.0592	0.751
12.0987	0.763
12.1382	0.78
12.1777	0.785
12.2171	0.793
12.2566	0.797
12.2961	0.798
12.3356	0.798
12.375	0.798
12.4145	0.797
12.454	0.792
12.4935	0.788
12.5329	0.783
12.5724	0.78
12.6119	0.777
12.6514	0.77
12.6908	0.756
12.7303	0.746
12.7698	0.731
12.8092	0.717
12.8487	0.706
12.8882	0.689
12.9277	0.667
12.9671	0.648
13.0066	0.613
13.0461	0.562
13.0856	0.505
13.125	0.451
13.1645	0.383
13.204	0.293
13.2435	0.204
13.2829	0.133
13.3224	0.082
13.3619	0.062
13.4013	0.052
13.4408	0.05
13.4803	0.111
13.5198	0.243
13.5592	0.378
13.5987	0.494
13.6382	0.562
13.6777	0.606
13.7171	0.635
13.7566	0.655
13.7961	0.667
13.8356	0.663
13.875	0.66
13.9145	0.66
13.954	0.668
13.9934	0.68
14.0329	0.687
14.0724	0.692
14.1119	0.694
14.1513	0.694
14.1908	0.69
14.2303	0.689
14.2698	0.685
14.3092	0.682
14.3487	0.679
14.3882	0.675
14.4277	0.672
14.4671	0.667
14.5066	0.662
14.5461	0.658
14.5855	0.658
14.625	0.657
14.6645	0.655
14.704	0.652
14.7434	0.648
14.7829	0.645
14.8224	0.638
14.8619	0.636
14.9013	0.636
14.9408	0.635
14.9803	0.635
15.0198	0.63
15.0592	0.628
15.0987	0.625
15.1382	0.618
15.1776	0.616
15.2171	0.614
15.2566	0.613
15.2961	0.611
15.3355	0.604
15.375	0.599
15.4145	0.597
15.454	0.596
