Infrared Spectrum: 3,4,6-TRICHLORO-o-CRESOL
Formula: C7 H5 Cl3 O
CAS: 643-14-1
State: SOLUTION (10% CCl4 FOR 5000-1300, 10% CS2 FOR 1300-625 CM^-^1)
Class: COBLENTZ
Instrument: Not specified, most likely a prism, grating, or hybrid spectrometer.
Sampling: TRANSMISSION
Path length: 0.01 CM, 0.01 CM
Resolution: 4
Origin: DOW CHEMICAL COMPANY
MICROMETERS	TRANSMITTANCE
2.019	0.874
2.05603	0.871
2.09307	0.88
2.1301	0.883
2.16714	0.881
2.20417	0.88
2.24121	0.88
2.27824	0.88
2.31528	0.883
2.35231	0.881
2.38935	0.886
2.42638	0.883
2.46341	0.88
2.50045	0.877
2.53748	0.875
2.57452	0.881
2.61155	0.884
2.64859	0.883
2.68562	0.883
2.72266	0.88
2.75969	0.84
2.79673	0.665
2.83376	0.44
2.87079	0.852
2.90783	0.888
2.94486	0.888
2.9819	0.881
3.01893	0.881
3.05597	0.881
3.093	0.878
3.13004	0.874
3.16707	0.868
3.20411	0.849
3.24114	0.832
3.27817	0.86
3.31521	0.843
3.35224	0.825
3.38928	0.777
3.42631	0.837
3.46335	0.837
3.50038	0.868
3.53742	0.878
3.57445	0.881
3.61149	0.884
3.64852	0.881
3.68555	0.889
3.72259	0.894
3.75962	0.894
3.79666	0.891
3.83369	0.888
3.87073	0.881
3.90776	0.883
3.9448	0.884
3.98183	0.886
4.01887	0.891
4.0559	0.889
4.09293	0.901
4.12997	0.897
4.167	0.892
4.20404	0.881
4.24107	0.877
4.27811	0.878
4.31514	0.878
4.35218	0.878
4.38921	0.891
4.42625	0.901
4.46328	0.906
4.50031	0.907
4.53735	0.907
4.57438	0.903
4.61142	0.906
4.64845	0.909
4.68549	0.903
4.72252	0.907
4.75956	0.911
4.79659	0.909
4.83363	0.901
4.87066	0.897
4.90769	0.9
4.94473	0.898
4.98176	0.886
5.0188	0.894
5.05583	0.901
5.09287	0.903
5.1299	0.906
5.16694	0.904
5.20397	0.906
5.24101	0.907
5.27804	0.906
5.31507	0.903
5.35211	0.9
5.38914	0.898
5.42618	0.9
5.46321	0.898
5.50025	0.901
5.53728	0.906
5.57432	0.907
5.61135	0.906
5.64839	0.906
5.68542	0.903
5.72245	0.898
5.75949	0.891
5.79652	0.872
5.83356	0.84
5.87059	0.854
5.90763	0.888
5.94466	0.886
5.9817	0.881
6.01873	0.88
6.05577	0.886
6.0928	0.875
6.12983	0.855
6.16687	0.829
6.2039	0.765
6.24094	0.662
6.27797	0.519
6.31501	0.458
6.35204	0.441
6.38908	0.457
6.42611	0.421
6.46315	0.427
6.50018	0.516
6.53721	0.57
6.57425	0.604
6.61128	0.633
6.64832	0.657
6.68535	0.661
6.72239	0.59
6.75942	0.532
6.79646	0.489
6.83349	0.302
6.87053	0.061
6.90756	0.042
6.94459	0.174
6.98163	0.435
7.01866	0.55
7.0557	0.48
7.09273	0.26
7.12977	0.271
7.1668	0.544
7.20384	0.538
7.24087	0.604
7.27791	0.763
7.31494	0.825
7.35197	0.846
7.38901	0.852
7.42604	0.829
7.46308	0.74
7.50011	0.788
7.53715	0.765
7.57418	0.625
7.61122	0.368
7.64825	0.2
7.68529	0.09
7.72232	0.271
7.75935	0.547
7.79639	0.682
7.83342	0.739
7.87046	0.694
7.90749	0.65
7.94453	0.682
7.98156	0.723
8.0186	0.647
8.05563	0.483
8.09267	0.171
8.1297	0.216
8.16673	0.43
8.20377	0.581
8.2408	0.676
8.27784	0.665
8.31487	0.526
8.35191	0.233
8.38894	0.211
8.42598	0.654
8.46301	0.791
8.50005	0.832
8.53708	0.838
8.57411	0.831
8.61115	0.799
8.64818	0.7
8.68522	0.495
8.72225	0.161
8.75929	0.25
8.79632	0.503
8.83336	0.63
8.87039	0.657
8.90743	0.69
8.94446	0.742
8.98149	0.776
9.01853	0.8
9.05556	0.812
9.0926	0.822
9.12963	0.831
9.16667	0.838
9.2037	0.842
9.24074	0.843
9.27777	0.834
9.31481	0.826
9.35184	0.811
9.38887	0.799
9.42591	0.776
9.46294	0.754
9.49998	0.726
9.53701	0.691
9.57405	0.644
9.61108	0.572
9.64812	0.457
9.68515	0.332
9.72219	0.269
9.75922	0.334
9.79625	0.453
9.83329	0.546
9.87032	0.616
9.90736	0.671
9.94439	0.719
9.98143	0.762
10.0185	0.791
10.0555	0.812
10.0925	0.837
10.1296	0.846
10.1666	0.849
10.2036	0.863
10.2407	0.883
10.2777	0.891
10.3147	0.898
10.3518	0.9
10.3888	0.903
10.4258	0.906
10.4629	0.909
10.4999	0.909
10.5369	0.909
10.574	0.907
10.611	0.903
10.648	0.9
10.6851	0.891
10.7221	0.881
10.7592	0.872
10.7962	0.86
10.8332	0.815
10.8703	0.72
10.9073	0.653
10.9443	0.664
10.9814	0.708
11.0184	0.679
11.0554	0.601
11.0925	0.532
11.1295	0.61
11.1665	0.719
11.2036	0.768
11.2406	0.777
11.2776	0.774
11.3147	0.762
11.3517	0.748
11.3887	0.728
11.4258	0.697
11.4628	0.668
11.4998	0.648
11.5369	0.625
11.5739	0.587
11.6109	0.526
11.648	0.365
11.685	0.226
11.7221	0.194
11.7591	0.372
11.7961	0.547
11.8332	0.656
11.8702	0.711
11.9072	0.751
11.9443	0.771
11.9813	0.78
12.0183	0.786
12.0554	0.792
12.0924	0.796
12.1294	0.799
12.1665	0.799
12.2035	0.797
12.2405	0.789
12.2776	0.782
12.3146	0.776
12.3516	0.769
12.3887	0.766
12.4257	0.765
12.4627	0.765
12.4998	0.762
12.5368	0.76
12.5738	0.76
12.6109	0.756
12.6479	0.753
12.6849	0.75
12.722	0.748
12.759	0.75
12.7961	0.748
12.8331	0.743
12.8701	0.742
12.9072	0.745
12.9442	0.748
12.9812	0.75
13.0183	0.751
13.0553	0.748
13.0923	0.737
13.1294	0.726
13.1664	0.7
13.2034	0.677
13.2405	0.644
13.2775	0.587
13.3145	0.515
13.3516	0.415
13.3886	0.265
13.4256	0.136
13.4627	0.05
13.4997	0.033
13.5367	0.116
13.5738	0.265
13.6108	0.397
13.6478	0.484
13.6849	0.521
13.7219	0.542
13.759	0.559
13.796	0.578
13.833	0.596
13.8701	0.61
13.9071	0.613
13.9441	0.585
13.9812	0.529
14.0182	0.483
14.0552	0.513
14.0923	0.588
14.1293	0.642
14.1663	0.657
14.2034	0.665
14.2404	0.665
14.2774	0.662
14.3145	0.657
14.3515	0.656
14.3885	0.653
14.4256	0.648
14.4626	0.645
14.4996	0.641
14.5367	0.634
14.5737	0.628
14.6107	0.622
14.6478	0.615
14.6848	0.607
14.7218	0.598
14.7589	0.59
14.7959	0.582
14.833	0.576
14.87	0.569
14.907	0.559
14.9441	0.553
14.9811	0.547
15.0181	0.539
15.0552	0.53
15.0922	0.521
15.1292	0.509
15.1663	0.501
15.2033	0.49
15.2403	0.48
15.2774	0.47
15.3144	0.461
15.3514	0.453
15.3885	0.446
15.4255	0.438
15.4625	0.432
15.4996	0.423
15.5366	0.415
15.5736	0.407
15.6107	0.394
15.6477	0.38
15.6847	0.366
15.7218	0.349
15.7588	0.326
15.7959	0.306
15.8329	0.276
15.8699	0.266
15.907	0.305
