Infrared Spectrum: 2,4-DINITROPHENYLACETIC ACID
Formula: C8 H6 N2 O6
CAS: 643-43-6
State: SOLID (MULL)
Melting point: 188-190 C
Class: COBLENTZ
Instrument: Not specified, most likely a prism, grating, or hybrid spectrometer.
Sampling: TRANSMISSION
Resolution: 4
Origin: WYANDOTTE CHEMICALS CORP., WYANDOTTE, MICHIGAN, USA
MICROMETERS	TRANSMITTANCE
2.036	0.598
2.07561	0.613
2.11521	0.633
2.15482	0.628
2.19442	0.633
2.23403	0.618
2.27363	0.618
2.31324	0.641
2.35285	0.645
2.39245	0.656
2.43206	0.678
2.47166	0.663
2.51127	0.679
2.55087	0.696
2.59048	0.708
2.63009	0.706
2.66969	0.726
2.7093	0.737
2.7489	0.737
2.78851	0.746
2.82811	0.747
2.86772	0.746
2.90732	0.749
2.94693	0.744
2.98654	0.739
3.02614	0.711
3.06575	0.679
3.10535	0.626
3.14496	0.548
3.18456	0.477
3.22417	0.306
3.26378	0.315
3.30338	0.28
3.34299	0.169
3.38259	0.019
3.4222	0.021
3.4618	0.038
3.50141	0.028
3.54102	0.169
3.58062	0.421
3.62023	0.447
3.65983	0.426
3.69944	0.447
3.73904	0.497
3.77865	0.432
3.81826	0.472
3.85786	0.495
3.89747	0.529
3.93707	0.52
3.97668	0.577
4.01628	0.61
4.05589	0.645
4.0955	0.648
4.1351	0.691
4.17471	0.714
4.21431	0.736
4.25392	0.713
4.29352	0.709
4.33313	0.749
4.37273	0.796
4.41234	0.82
4.45195	0.82
4.49155	0.827
4.53116	0.814
4.57076	0.844
4.61037	0.865
4.64997	0.865
4.68958	0.875
4.72919	0.888
4.76879	0.887
4.8084	0.898
4.848	0.905
4.88761	0.918
4.92721	0.927
4.96682	0.927
5.00643	0.92
5.04603	0.927
5.08564	0.927
5.12524	0.935
5.16485	0.907
5.20445	0.941
5.24406	0.932
5.28367	0.948
5.32327	0.93
5.36288	0.928
5.40248	0.945
5.44209	0.907
5.48169	0.875
5.5213	0.875
5.56091	0.84
5.60051	0.847
5.64012	0.802
5.67972	0.733
5.71933	0.671
5.75893	0.588
5.79854	0.412
5.83814	0.24
5.87775	0.101
5.91736	0.104
5.95696	0.374
5.99657	0.595
6.03617	0.708
6.07578	0.769
6.11538	0.812
6.15499	0.565
6.1946	0.242
6.2342	0.582
6.27381	0.713
6.31341	0.709
6.35302	0.658
6.39262	0.494
6.43223	0.28
6.47184	0.069
6.51144	0.036
6.55105	0.097
6.59065	0.16
6.63026	0.339
6.66986	0.417
6.70947	0.419
6.74908	0.339
6.78868	0.19
6.82829	0.152
6.86789	0.145
6.9075	0.114
6.9471	0.195
6.98671	0.416
7.02632	0.441
7.06592	0.399
7.10553	0.407
7.14513	0.308
7.18474	0.419
7.22434	0.3
7.26395	0.18
7.30355	0.182
7.34316	0.048
7.38277	0.026
7.42237	0.044
7.46198	0.097
7.50158	0.152
7.54119	0.275
7.58079	0.401
7.6204	0.494
7.66001	0.562
7.69961	0.573
7.73922	0.573
7.77882	0.439
7.81843	0.217
7.85803	0.33
7.89764	0.626
7.93725	0.655
7.97685	0.474
8.01646	0.147
8.05606	0.046
8.09567	0.149
8.13527	0.262
8.17488	0.398
8.21449	0.495
8.25409	0.555
8.2937	0.525
8.3333	0.351
8.37291	0.427
8.41251	0.525
8.45212	0.631
8.49173	0.655
8.53133	0.679
8.57094	0.699
8.61054	0.723
8.65015	0.696
8.68975	0.543
8.72936	0.62
8.76896	0.729
8.80857	0.711
8.84818	0.63
8.88778	0.635
8.92739	0.751
8.96699	0.796
9.0066	0.82
9.0462	0.822
9.08581	0.82
9.12542	0.814
9.16502	0.799
9.20463	0.791
9.24423	0.782
9.28384	0.767
9.32344	0.673
9.36305	0.467
9.40266	0.592
9.44226	0.734
9.48187	0.771
9.52147	0.796
9.56108	0.805
9.60068	0.82
9.64029	0.815
9.6799	0.824
9.7195	0.825
9.75911	0.839
9.79871	0.842
9.83832	0.847
9.87792	0.852
9.91753	0.85
9.95714	0.854
9.99674	0.857
10.0363	0.857
10.076	0.854
10.1156	0.844
10.1552	0.767
10.1948	0.781
10.2344	0.822
10.274	0.825
10.3136	0.825
10.3532	0.825
10.3928	0.817
10.4324	0.812
10.472	0.799
10.5116	0.764
10.5512	0.628
10.5908	0.543
10.6304	0.729
10.67	0.736
10.7096	0.709
10.7492	0.668
10.7889	0.618
10.8285	0.474
10.8681	0.356
10.9077	0.464
10.9473	0.421
10.9869	0.303
11.0265	0.164
11.0661	0.238
11.1057	0.286
11.1453	0.315
11.1849	0.363
11.2245	0.422
11.2641	0.479
11.3037	0.532
11.3433	0.577
11.3829	0.623
11.4225	0.66
11.4622	0.701
11.5018	0.728
11.5414	0.754
11.581	0.757
11.6206	0.747
11.6602	0.669
11.6998	0.492
11.7394	0.384
11.779	0.548
11.8186	0.704
11.8582	0.759
11.8978	0.787
11.9374	0.708
11.977	0.457
12.0166	0.426
12.0562	0.656
12.0958	0.656
12.1354	0.485
12.1751	0.326
12.2147	0.447
12.2543	0.635
12.2939	0.733
12.3335	0.782
12.3731	0.817
12.4127	0.839
12.4523	0.862
12.4919	0.877
12.5315	0.888
12.5711	0.898
12.6107	0.91
12.6503	0.912
12.6899	0.927
12.7295	0.925
12.7691	0.935
12.8087	0.93
12.8483	0.932
12.888	0.932
12.9276	0.925
12.9672	0.883
13.0068	0.668
13.0464	0.538
13.086	0.747
13.1256	0.84
13.1652	0.878
13.2048	0.892
13.2444	0.893
13.284	0.878
13.3236	0.849
13.3632	0.776
13.4028	0.658
13.4424	0.504
13.482	0.439
13.5216	0.55
13.5613	0.691
13.6009	0.771
13.6405	0.815
13.6801	0.827
13.7197	0.827
13.7593	0.802
13.7989	0.741
13.8385	0.661
13.8781	0.548
13.9177	0.406
13.9573	0.303
13.9969	0.255
14.0365	0.296
14.0761	0.388
14.1157	0.434
14.1553	0.422
14.1949	0.366
14.2345	0.334
14.2742	0.351
14.3138	0.419
14.3534	0.515
14.393	0.613
14.4326	0.688
14.4722	0.731
14.5118	0.764
14.5514	0.792
14.591	0.809
14.6306	0.824
14.6702	0.835
14.7098	0.837
14.7494	0.844
14.789	0.849
14.8286	0.852
14.8682	0.86
14.9078	0.862
14.9475	0.865
14.9871	0.832
15.0267	0.786
15.0663	0.776
15.1059	0.809
15.1455	0.819
15.1851	0.799
15.2247	0.739
15.2643	0.679
15.3039	0.621
15.3435	0.59
15.3831	0.6
15.4227	0.645
15.4623	0.689
15.5019	0.708
15.5415	0.721
15.5811	0.724
15.6207	0.729
15.6604	0.728
15.7	0.721
15.7396	0.713
15.7792	0.698
15.8188	0.683
15.8584	0.679
15.898	0.676
15.9376	0.668
15.9772	0.66
