Infrared Spectrum: Phthalaldehyde
Formula: C 8 H 6 O 2
CAS: 643-79-8
State: gas
Origin: EPA-IR VAPOR PHASE LIBRARY
1/CM	ABSORBANCE
549.8	0.002497
559.445	0.002267
569.09	0.002177
578.734	0.002447
588.379	0.002597
598.024	0.003897
607.669	0.006557
617.313	0.011277
626.958	0.013487
636.603	0.010587
646.248	0.008827
655.893	0.010997
665.537	0.011257
675.182	0.009187
684.827	0.006797
694.472	0.005897
704.116	0.005377
713.761	0.006077
723.406	0.008267
733.051	0.016607
742.695	0.035327
752.34	0.059397
761.985	0.045617
771.63	0.029097
781.275	0.020067
790.919	0.024467
800.564	0.030687
810.209	0.031067
819.854	0.025957
829.498	0.019047
839.143	0.018227
848.788	0.028387
858.433	0.029397
868.078	0.017697
877.722	0.007127
887.367	0.003727
897.012	0.002197
906.657	0.001637
916.301	0.001577
925.946	0.001427
935.591	0.0011626
945.236	0.0012284
954.88	0.001567
964.525	0.0011854
974.17	0.001657
983.815	0.002617
993.46	0.002947
1003.1	0.002107
1012.75	0.0010804
1022.39	0.0011172
1032.04	0.0004934
1041.68	0.0008181
1051.33	0.001417
1060.97	0.001407
1070.62	0.0011983
1080.26	0.001947
1089.91	0.001827
1099.55	0.002777
1109.2	0.003297
1118.84	0.002717
1128.49	0.002327
1138.13	0.003117
1147.78	0.005427
1157.42	0.008747
1167.07	0.019627
1176.71	0.048227
1186.36	0.085347
1196	0.083577
1205.64	0.040277
1215.29	0.014337
1224.93	0.007907
1234.58	0.005737
1244.22	0.005097
1253.87	0.008047
1263.51	0.022817
1273.16	0.027097
1282.8	0.020347
1292.45	0.013797
1302.09	0.010397
1311.74	0.004547
1321.38	0.002337
1331.03	0.002037
1340.67	0.001997
1350.32	0.002037
1359.96	0.002137
1369.61	0.002767
1379.25	0.005197
1388.9	0.008927
1398.54	0.009157
1408.18	0.006557
1417.83	0.004117
1427.47	0.003107
1437.12	0.003227
1446.76	0.004177
1456.41	0.004107
1466.05	0.003467
1475.7	0.004607
1485.34	0.005927
1494.99	0.005517
1504.63	0.003437
1514.28	0.002557
1523.92	0.002267
1533.57	0.002407
1543.21	0.003047
1552.86	0.005357
1562.5	0.013117
1572.15	0.022207
1581.79	0.025667
1591.44	0.024697
1601.08	0.022187
1610.73	0.013397
1620.37	0.008527
1630.01	0.009467
1639.66	0.010537
1649.3	0.010957
1658.95	0.011917
1668.59	0.015907
1678.24	0.023657
1687.88	0.043487
1697.53	0.109617
1707.17	0.231527
1716.82	0.307787
1726.46	0.225307
1736.11	0.102017
1745.75	0.026857
1755.4	0.012567
1765.04	0.009217
1774.69	0.008227
1784.33	0.007517
1793.98	0.006317
1803.62	0.004647
1813.27	0.003517
1822.91	0.003217
1832.55	0.003027
1842.2	0.002707
1851.84	0.002677
1861.49	0.002937
1871.13	0.002757
1880.78	0.002227
1890.42	0.001847
1900.07	0.001897
1909.71	0.002027
1919.36	0.001907
1929	0.002307
1938.65	0.002737
1948.29	0.002777
1957.94	0.002667
1967.58	0.003157
1977.23	0.003217
1986.87	0.002607
1996.52	0.001957
2006.16	0.001537
2015.81	0.001357
2025.45	0.001307
2035.1	0.0012707
2044.74	0.0012819
2054.38	0.0010359
2064.03	0.0009385
2073.67	0.0007827
2083.32	0.0007701
2092.96	0.0006168
2102.61	0.0007277
2112.25	0.0006726
2121.9	0.0006194
2131.54	0.0006095
2141.19	0.0006742
2150.83	0.0005692
2160.48	0.0006132
2170.12	0.0005536
2179.77	0.0005809
2189.41	0.0005324
2199.06	0.0005433
2208.7	0.0007096
2218.35	0.0006758
2227.99	0.0005981
2237.64	0.0006732
2247.28	0.000679
2256.92	0.0007262
2266.57	0.0008532
2276.21	0.0007932
2285.86	0.0009096
2295.5	0.000892
2305.15	0.000871
2314.79	0.0009853
2324.44	0.000972
2334.08	0.0008745
2343.73	0.0008219
2353.37	0.0007346
2363.02	0.0007878
2372.66	0.0009995
2382.31	0.0008355
2391.95	0.0006811
2401.6	0.0005148
2411.24	0.0005858
2420.89	0.0006561
2430.53	0.0005634
2440.18	0.000707
2449.82	0.0007327
2459.47	0.000856
2469.11	0.0008239
2478.75	0.0007428
2488.4	0.0007294
2498.04	0.0006338
2507.69	0.000554
2517.33	0.0004791
2526.98	0.0006455
2536.62	0.0006801
2546.27	0.0008073
2555.91	0.0007853
2565.56	0.0010394
2575.2	0.0011292
2584.85	0.001397
2594.49	0.001397
2604.14	0.001437
2613.78	0.0012332
2623.43	0.001427
2633.07	0.001557
2642.72	0.002247
2652.36	0.003207
2662.01	0.004397
2671.65	0.004947
2681.29	0.004777
2690.94	0.004657
2700.58	0.005657
2710.23	0.009447
2719.87	0.024287
2729.52	0.040647
2739.16	0.040987
2748.81	0.021907
2758.45	0.012467
2768.1	0.008967
2777.74	0.009067
2787.39	0.011567
2797.03	0.016297
2806.68	0.025727
2816.32	0.033287
2825.97	0.032197
2835.61	0.024877
2845.26	0.021467
2854.9	0.019997
2864.55	0.017457
2874.19	0.015667
2883.84	0.015567
2893.48	0.016617
2903.12	0.015087
2912.77	0.010707
2922.41	0.006487
2932.06	0.004647
2941.7	0.004067
2951.35	0.003567
2960.99	0.003027
2970.64	0.002777
2980.28	0.002527
2989.93	0.002427
2999.57	0.002507
3009.22	0.002857
3018.86	0.004307
3028.51	0.005497
3038.15	0.005847
3047.8	0.005747
3057.44	0.008247
3067.09	0.013807
3076.73	0.018017
3086.38	0.014907
3096.02	0.006177
3105.67	0.003317
3115.31	0.002257
3124.95	0.001707
3134.6	0.001597
3144.24	0.001887
3153.89	0.002027
3163.53	0.001457
3173.18	0.0011308
3182.82	0.0009217
3192.47	0.000569
3202.11	0.0005711
3211.76	0.0005555
3221.4	0.00038729
3231.05	0.00036525
3240.69	0.0004217
3250.34	0.00034531
3259.98	0.00037839
3269.63	0.0004315
3279.27	0.0005042
3288.92	0.0004804
3298.56	0.0006219
3308.21	0.0006747
3317.85	0.0009403
3327.49	0.0008427
3337.14	0.0006211
3346.78	0.001011
3356.43	0.0009722
3366.07	0.001307
3375.72	0.001807
3385.36	0.002577
3395.01	0.004047
3404.65	0.005607
3414.3	0.005257
3423.94	0.004347
3433.59	0.002447
3443.23	0.001407
3452.88	0.001247
3462.52	0.0008294
3472.17	0.0006564
3481.81	0.0006874
3491.46	0.0004983
3501.1	0.0004366
3510.75	0.0002172
3520.39	0.00029239
3530.04	0.000300522
3539.68	0.00033202
3549.32	0.000303897
3558.97	0.00030002
3568.61	0.00031819
3578.26	0.0003076
3587.9	0.0003478
3597.55	8.5e-05
3607.19	0.00037375
3616.84	0.000285
3626.48	0.0005165
3636.13	0.00033182
3645.77	0.0002169
3655.42	0.00038651
3665.06	0.0002613
3674.71	0.000297575
3684.35	0.00034135
3694	0.0004732
3703.64	0.000411
3713.29	0.000712
3722.93	0.0003654
3732.58	0.00032173
3742.22	0.00035684
3751.86	0.0003576
3761.51	0.00031675
3771.15	0.0001991
3780.8	0.0002266
3790.44	0.0003235
3800.09	0.0002296
3809.73	0.00038337
3819.38	2.4e-05
3829.02	0.0002153
3838.67	7.6e-05
3848.31	0.0002223
3857.96	0.0004017
3867.6	0.0004595
3877.25	0.0004623
3886.89	0.0005722
3896.54	0.0006486
3906.18	0.0004902
3915.83	0.000697
3925.47	0.0007048
3935.12	0.0005799
3944.76	0.0004897
3954.41	0.00028846
3964.05	0.0002741
3973.69	0.0002208
3983.34	0.000156
3992.98	0.000141
