Infrared Spectrum: 1,2-Difluorostilbene
Formula: C 14 H 10 F 2
CAS: 643-76-5
State: gas
Origin: EPA-IR VAPOR PHASE LIBRARY
1/CM	ABSORBANCE
501.5	0.00143
513.074	0.00223
524.648	0.00782
536.222	0.00983
547.796	0.00352
559.37	0.00209
570.944	0.00191
582.518	0.00235
594.092	0.00434
605.666	0.03221
617.24	0.0172
628.814	0.00407
640.388	0.00354
651.962	0.00443
663.536	0.00908
675.11	0.02082
686.684	0.03987
698.258	0.03179
709.832	0.01611
721.406	0.00991
732.98	0.00812
744.554	0.01718
756.128	0.04009
767.702	0.03152
779.276	0.01155
790.85	0.00523
802.423	0.00385
813.997	0.002
825.571	0.00156
837.145	0.00437
848.719	0.01192
860.293	0.00282
871.867	0.00174
883.441	0.00141
895.015	0.00175
906.589	0.00292
918.163	0.00398
929.737	0.00223
941.311	0.00125
952.885	0.0011
964.459	0.0011
976.033	0.00133
987.607	0.00153
999.181	0.0021
1010.76	0.0025
1022.33	0.00518
1033.9	0.00901
1045.48	0.00405
1057.05	0.00891
1068.63	0.0159
1080.2	0.01404
1091.77	0.01843
1103.35	0.01946
1114.92	0.01651
1126.49	0.03099
1138.07	0.05658
1149.64	0.03618
1161.22	0.01342
1172.79	0.00851
1184.36	0.00833
1195.94	0.00526
1207.51	0.00305
1219.09	0.00391
1230.66	0.00522
1242.23	0.00464
1253.81	0.00853
1265.38	0.02165
1276.96	0.02082
1288.53	0.00721
1300.1	0.00387
1311.68	0.00267
1323.25	0.00187
1334.83	0.00171
1346.4	0.00143
1357.97	0.00148
1369.55	0.00179
1381.12	0.0016
1392.7	0.00119
1404.27	0.0011
1415.84	0.00164
1427.42	0.00334
1438.99	0.00823
1450.57	0.01036
1462.14	0.00447
1473.71	0.00286
1485.29	0.00657
1496.86	0.02
1508.44	0.00784
1520.01	0.00334
1531.58	0.002
1543.16	0.00133
1554.73	0.00115
1566.31	0.00126
1577.88	0.00206
1589.45	0.00468
1601.03	0.00763
1612.6	0.00365
1624.18	0.00151
1635.75	0.00104
1647.32	0.0009576
1658.9	0.00118
1670.47	0.00229
1682.05	0.00271
1693.62	0.00116
1705.19	0.00101
1716.77	0.00117
1728.34	0.00164
1739.92	0.0024
1751.49	0.00217
1763.06	0.00149
1774.64	0.00139
1786.21	0.00189
1797.79	0.00377
1809.36	0.00181
1820.93	0.00145
1832.51	0.00161
1844.08	0.0008832
1855.66	0.0009613
1867.23	0.0016
1878.8	0.00265
1890.38	0.00348
1901.95	0.00241
1913.53	0.001
1925.1	0.00136
1936.67	0.00242
1948.25	0.00323
1959.82	0.00373
1971.4	0.00145
1982.97	0.0004901
1994.54	0.000307
2006.12	0.0003017
2017.69	0.0002768
2029.27	0.0002699
2040.84	0.0002735
2052.41	0.0002934
2063.99	0.0002963
2075.56	0.0002477
2087.14	0.0002148
2098.71	0.0002129
2110.28	0.0001468
2121.86	0.0001113
2133.43	0.0001177
2145.01	0.0001279
2156.58	0.0001802
2168.15	0.0002128
2179.73	0.0002414
2191.3	0.0003356
2202.88	0.0003569
2214.45	0.0002448
2226.02	0.0002178
2237.6	0.0001648
2249.17	0.0001728
2260.74	0.0002224
2272.32	0.0002569
2283.89	0.0002731
2295.47	0.0002865
2307.04	0.0003411
2318.61	0.0008574
2330.19	0.0005041
2341.76	0.0004937
2353.34	0.0005073
2364.91	0.0004053
2376.48	0.0003935
2388.06	0.0003886
2399.63	0.000374
2411.21	0.0003517
2422.78	0.0003247
2434.35	0.0003204
2445.93	0.0002634
2457.5	0.0002307
2469.08	0.0002432
2480.65	0.0001855
2492.22	0.0001559
2503.8	0.0002143
2515.37	0.0002735
2526.95	0.0002501
2538.52	0.0002433
2550.09	0.000217
2561.67	0.0002289
2573.24	0.0002494
2584.82	0.0003307
2596.39	0.0003863
2607.96	0.0002775
2619.54	0.0002733
2631.11	0.0002533
2642.69	0.0001851
2654.26	0.0001157
2665.83	0.0001122
2677.41	0.0001438
2688.98	9.61e-05
2700.56	0.0001113
2712.13	0.0001258
2723.7	8.258e-05
2735.28	0.0001461
2746.85	0.000174
2758.43	0.0002117
2770	0.0002769
2781.57	0.0002617
2793.15	0.0002613
2804.72	0.0003009
2816.3	0.0003443
2827.87	0.0003243
2839.44	0.0003866
2851.02	0.0004844
2862.59	0.0006226
2874.17	0.0007374
2885.74	0.0007873
2897.31	0.0006999
2908.89	0.0006291
2920.46	0.0007366
2932.04	0.0008336
2943.61	0.0007394
2955.18	0.0005892
2966.76	0.0006405
2978.33	0.0009725
2989.91	0.00127
3001.48	0.00169
3013.05	0.00325
3024.63	0.00643
3036.2	0.01064
3047.78	0.01465
3059.35	0.02139
3070.92	0.03318
3082.5	0.02326
3094.07	0.01372
3105.65	0.01099
3117.22	0.00632
3128.79	0.00252
3140.37	0.00158
3151.94	0.00157
3163.52	0.00101
3175.09	0.0004239
3186.66	0.0003254
3198.24	0.0002227
3209.81	0.0002341
3221.39	0.0002017
3232.96	0.0001927
3244.53	0.0001511
3256.11	0.0001516
3267.68	0.0001814
3279.26	0.0002072
3290.83	0.0001307
3302.4	0.0001248
3313.98	9.734e-05
3325.55	0.000198
3337.13	0.0001279
3348.7	0.0001158
3360.27	8.769e-05
3371.85	6.941e-05
3383.42	6.174e-05
3395	0.0001316
3406.57	0.0001009
3418.14	8.118e-05
3429.72	0.0001272
3441.29	9.772e-05
3452.86	8.988e-05
3464.44	0.0001442
3476.01	7.707e-05
3487.59	8.617e-05
3499.16	9.76e-05
3510.73	0.0001299
3522.31	0.0001528
3533.88	0.0001597
3545.46	7.669e-05
3557.03	9.044e-05
3568.6	0.0001258
3580.18	5.404e-05
3591.75	0.0001387
3603.33	0.0001875
3614.9	8.962e-05
3626.47	0.000108
3638.05	0.0002369
3649.62	0.000283
3661.2	0.0002486
3672.77	0.0003457
3684.34	0.0003114
3695.92	0.0003468
3707.49	0.0003317
3719.07	0.0002742
3730.64	0.0003063
3742.21	0.0002895
3753.79	0.00017
3765.36	0.0002348
3776.94	0.0001506
3788.51	0.0001725
3800.08	0.0002321
3811.66	0.0001899
3823.23	0.0001491
3834.81	0.0001132
3846.38	0.0001549
3857.95	0.0002238
3869.53	0.0001643
3881.1	0.0001189
3892.68	0.000206
3904.25	0.0002402
3915.82	0.0003308
3927.4	0.0002326
3938.97	0.0001808
3950.55	9.5e-05
3962.12	7.764e-05
3973.69	0.0001073
3985.27	0.000234
3996.84	0.000301
