Infrared Spectrum: 2-Methylbiphenyl
Formula: C 13 H 12
CAS: 643-58-3
State: gas
Instrument: HP-GC/MS/IRD
Origin: NIST Mass Spectrometry Data Center
1/CM	ABSORBANCE
550	0.0009723
562	0.0015708
574	0.0005838
586	0.0004977
598	0.000189
610	0.0007434
622	0.0021567
634	0.0005292
646	0.0004263
658	0.0009282
670	0.0018354
682	0.0030051
694	0.0116781
706	0.0141939
718	0.0092085
730	0.012222
742	0.0144984
754	0.0196371
766	0.0118377
778	0.0028938
790	0.0006342
802	0.0003801
814	0.0003192
826	0.000315
838	0.0006426
850	0.000777
862	0.0003066
874	0.0001491
886	0.0001071
898	0.0002961
910	0.0007623
922	0.0006237
934	0.000462
946	0.0003465
958	0.0002604
970	0.000294
982	0.0005985
994	0.0009177
1006	0.004368
1018	0.0027132
1030	0.0005271
1042	0.0010899
1054	0.0015876
1066	0.0019005
1078	0.0013965
1090	0.0006384
1102	0.0004494
1114	0.0010164
1126	0.0010206
1138	0.0003633
1150	0.000231
1162	0.0002982
1174	0.0004326
1186	0.000483
1198	0.0003297
1210	0.0002604
1222	0.0002835
1234	0.0003675
1246	0.0003192
1258	0.0004074
1270	0.0006888
1282	0.0005565
1294	0.0004662
1306	0.0003612
1318	0.0003507
1330	0.0004011
1342	0.0004158
1354	0.0004305
1366	0.0006174
1378	0.0012642
1390	0.0015351
1402	0.0012558
1414	0.0014322
1426	0.0019362
1438	0.0036099
1450	0.0046557
1462	0.0052458
1474	0.0100989
1486	0.0088998
1498	0.0030912
1510	0.0016149
1522	0.0010605
1534	0.0008967
1546	0.0008379
1558	0.0008757
1570	0.0012642
1582	0.0020685
1594	0.0036918
1606	0.0030639
1618	0.0012873
1630	0.0005439
1642	0.0003213
1654	0.0004179
1666	0.0005019
1678	0.0006573
1690	0.0006132
1702	0.000483
1714	0.0004074
1726	0.0004431
1738	0.0004578
1750	0.0005481
1762	0.0004032
1774	0.0004935
1786	0.0007854
1798	0.0014511
1810	0.0009093
1822	0.0006825
1834	0.0005838
1846	0.000336
1858	0.0004326
1870	0.0009156
1882	0.0010899
1894	0.0009912
1906	0.0010626
1918	0.0007707
1930	0.000903
1942	0.0014952
1954	0.0010815
1966	0.0004095
1978	0.0001848
1990	0.0001701
2002	0.0001533
2014	0.0001113
2026	9.66e-05
2038	9.66e-05
2050	8.82e-05
2062	8.19e-05
2074	8.4e-05
2086	8.61e-05
2098	8.82e-05
2110	6.51e-05
2122	5.46e-05
2134	4.83e-05
2146	3.57e-05
2158	6.09e-05
2170	5.04e-05
2182	6.3e-05
2194	9.03e-05
2206	9.03e-05
2218	9.24e-05
2230	0.000105
2242	0.0001239
2254	0.0001575
2266	0.0001092
2278	0.0001722
2290	0.0001239
2302	0.000126
2314	0.0002877
2326	0.0003003
2338	0.0002625
2350	0.0001638
2362	0.0002457
2374	0.0001071
2386	8.82e-05
2398	0.0001134
2410	0.0001239
2422	0.0001512
2434	0.0001281
2446	0.0001134
2458	8.82e-05
2470	8.19e-05
2482	0.0001113
2494	7.35e-05
2506	0.0001008
2518	8.82e-05
2530	9.45e-05
2542	0.0001302
2554	0.0001029
2566	0.0001302
2578	0.0001806
2590	0.0001407
2602	0.0001176
2614	0.0001449
2626	0.0001134
2638	6.51e-05
2650	8.19e-05
2662	4.62e-05
2674	6.72e-05
2686	6.51e-05
2698	7.14e-05
2710	0.0001218
2722	0.0001239
2734	0.0002016
2746	0.0003213
2758	0.0002856
2770	0.0001785
2782	0.0002079
2794	0.0002373
2806	0.0002793
2818	0.0003465
2830	0.0004935
2842	0.0007959
2854	0.0013587
2866	0.002121
2878	0.0026376
2890	0.0024948
2902	0.0023016
2914	0.0028959
2926	0.0043911
2938	0.0052206
2950	0.0041559
2962	0.0036834
2974	0.0039417
2986	0.0033495
2998	0.0032361
3010	0.0057162
3022	0.011403
3034	0.0125433
3046	0.0097188
3058	0.0156135
3070	0.0209538
3082	0.0123564
3094	0.0067494
3106	0.0036708
3118	0.0019446
3130	0.0010962
3142	0.0008883
3154	0.0007161
3166	0.0004116
3178	0.0002436
3190	0.0001554
3202	0.0001722
3214	0.0001155
3226	0.0001092
3238	8.61e-05
3250	2.52e-05
3262	0.0001092
3274	0.0001029
3286	4.62e-05
3298	4.83e-05
3310	4.41e-05
3322	9.03e-05
3334	3.57e-05
3346	4.62e-05
3358	6.3e-05
3370	6.51e-05
3382	6.51e-05
3394	6.3e-05
3406	6.09e-05
3418	5.88e-05
3430	0.0001029
3442	9.03e-05
3454	8.4e-05
3466	4.62e-05
3478	8.61e-05
3490	4.2e-05
3502	6.72e-05
3514	9.24e-05
3526	4.83e-05
3538	4.41e-05
3550	7.56e-05
3562	8.4e-05
3574	7.77e-05
3586	6.3e-05
3598	0.0001092
3610	9.45e-05
3622	8.61e-05
3634	9.45e-05
3646	0.0001953
3658	0.0001407
3670	0.0001386
3682	9.87e-05
3694	0.0001638
3706	0.0001449
3718	0.0001323
3730	9.45e-05
3742	0.0001344
3754	0.0001827
3766	0.0001386
3778	0.0002121
3790	0.0002184
3802	0.0002121
3814	0.0001533
3826	0.0001533
3838	0.0001785
