Infrared Spectrum: cis-2-Nonene
Formula: C 9 H 18
CAS: 6434-77-1
State: gas
Instrument: HP-GC/MS/IRD
Origin: NIST Mass Spectrometry Data Center
1/CM	ABSORBANCE
550	0.0003192
562	0.0001558
574	0.0004028
586	0.0007106
598	0.00038
610	0.0002128
622	0.0002736
634	0.0004788
646	0.000893
658	0.0014706
670	0.0021128
682	0.003078
694	0.00361
706	0.0029488
718	0.001995
730	0.0012882
742	0.0008056
754	0.0004826
766	0.000342
778	0.0002014
790	0.0001368
802	4.18e-05
814	4.94e-05
826	3.8e-05
838	7.22e-05
850	0.0001064
862	0.000114
874	0.000171
886	0.0002698
898	0.0002698
910	0.000228
922	0.0002622
934	0.0004066
946	0.0004028
958	0.0003268
970	0.0003192
982	0.0003838
994	0.0004674
1006	0.000532
1018	0.0004484
1030	0.0004332
1042	0.0003914
1054	0.000228
1066	8.74e-05
1078	7.6e-06
1090	5.32e-05
1102	0.0001064
1114	0.0001558
1126	0.0001292
1138	7.22e-05
1150	3.04e-05
1162	1.14e-05
1174	7.6e-05
1186	9.5e-05
1198	0.0001216
1210	0.0001254
1222	0.0001406
1234	0.0001634
1246	0.0001976
1258	0.0003116
1270	0.000437
1282	0.0004636
1294	0.00057
1306	0.0007562
1318	0.0008512
1330	0.0009158
1342	0.0011286
1354	0.0012388
1366	0.001368
1378	0.0016226
1390	0.0016758
1402	0.0019114
1414	0.00171
1426	0.0014326
1438	0.0021014
1450	0.0031122
1462	0.003458
1474	0.0024928
1486	0.0013414
1498	0.00076
1510	0.000551
1522	0.0004902
1534	0.0004332
1546	0.0003686
1558	0.000304
1570	0.0002356
1582	0.0002432
1594	0.0001938
1606	0.0002318
1618	0.0002736
1630	0.000399
1642	0.000608
1654	0.0007942
1666	0.000627
1678	0.0003762
1690	0.0002318
1702	0.0001558
1714	0.000114
1726	0.0001064
1738	9.12e-05
1750	4.56e-05
1762	1.9e-05
1774	1.9e-05
1786	1.14e-05
1798	7.6e-06
1810	1.52e-05
1822	2.66e-05
1834	3.8e-06
1846	3.8e-06
1858	1.52e-05
1870	1.52e-05
1882	7.6e-06
1894	1.9e-05
1906	2.28e-05
1918	2.66e-05
1930	1.52e-05
1942	1.9e-05
1954	3.42e-05
1966	6.46e-05
1978	5.7e-05
1990	9.12e-05
2002	9.5e-05
2014	7.22e-05
2026	7.22e-05
2038	7.98e-05
2050	6.46e-05
2062	5.7e-05
2074	7.22e-05
2086	6.84e-05
2098	4.18e-05
2110	2.66e-05
2122	1.9e-05
2134	1.52e-05
2146	3.8e-05
2158	3.04e-05
2170	2.28e-05
2182	2.28e-05
2194	3.04e-05
2206	1.14e-05
2218	2.28e-05
2230	2.66e-05
2242	4.18e-05
2254	4.94e-05
2266	4.94e-05
2278	3.42e-05
2290	6.46e-05
2302	5.7e-05
2314	6.84e-05
2326	6.08e-05
2338	5.32e-05
2350	7.6e-05
2362	7.22e-05
2374	5.7e-05
2386	3.8e-05
2398	6.46e-05
2410	4.18e-05
2422	5.7e-05
2434	4.94e-05
2446	5.7e-05
2458	4.94e-05
2470	6.46e-05
2482	3.04e-05
2494	6.84e-05
2506	6.46e-05
2518	8.74e-05
2530	0.0001102
2542	9.88e-05
2554	9.88e-05
2566	0.000114
2578	0.0001216
2590	0.0001444
2602	0.0001634
2614	0.0001938
2626	0.0002014
2638	0.0002584
2650	0.0002812
2662	0.0003268
2674	0.0003648
2686	0.000342
2698	0.0003914
2710	0.0004028
2722	0.0004522
2734	0.0005548
2746	0.000608
2758	0.0006384
2770	0.0007106
2782	0.000874
2794	0.001121
2806	0.0014744
2818	0.0019988
2830	0.0030362
2842	0.0054872
2854	0.0108034
2866	0.0151582
2878	0.0149416
2890	0.013262
2902	0.0144894
2914	0.02204
2926	0.0344394
2938	0.0367156
2950	0.0262086
2962	0.0211318
2974	0.0171836
2986	0.0093518
2998	0.006536
3010	0.0075088
3022	0.0094848
3034	0.0069084
3046	0.0038418
3058	0.002356
3070	0.001729
3082	0.001292
3094	0.0009044
3106	0.0007258
3118	0.0005586
3130	0.000456
3142	0.000361
3154	0.000304
3166	0.0002774
3178	0.0002622
3190	0.0002318
3202	0.0002014
3214	0.000133
3226	0.0001102
3238	7.98e-05
3250	6.46e-05
3262	4.18e-05
3274	6.08e-05
3286	6.08e-05
3298	8.36e-05
3310	5.32e-05
3322	4.18e-05
3334	7.22e-05
3346	5.7e-05
3358	1.52e-05
3370	7.6e-05
3382	5.32e-05
3394	3.8e-05
3406	1.9e-05
3418	5.7e-05
3430	3.42e-05
3442	6.08e-05
3454	3.42e-05
3466	4.56e-05
3478	3.42e-05
3490	2.28e-05
3502	3.8e-05
3514	4.18e-05
3526	1.9e-05
3538	4.56e-05
3550	5.7e-05
3562	7.22e-05
3574	4.18e-05
3586	5.32e-05
3598	3.8e-05
3610	8.36e-05
3622	0.000114
3634	7.98e-05
3646	9.88e-05
3658	7.22e-05
3670	0.0001102
3682	7.98e-05
3694	0.0001102
3706	6.08e-05
3718	0.0001102
3730	6.84e-05
3742	0.0001026
3754	0.0001102
3766	0.0001216
3778	5.7e-05
3790	6.08e-05
3802	6.84e-05
3814	6.46e-05
3826	7.98e-05
3838	0.000133
