Infrared Spectrum: trans-2-Nonene
Formula: C 9 H 18
CAS: 6434-78-2
State: gas
Instrument: HP-GC/MS/IRD
Origin: NIST Mass Spectrometry Data Center
1/CM	ABSORBANCE
550	0.0002242
562	4.94e-05
574	7.6e-05
586	4.18e-05
598	0
610	0.0001406
622	0.0001178
634	9.5e-05
646	5.32e-05
658	0.0001216
670	0.0001292
682	0.0001482
694	0.0002242
706	0.0003192
718	0.0005244
730	0.0006156
742	0.000494
754	0.0004104
766	0.0004484
778	0.0003192
790	0.0003268
802	0.0002432
814	0.000304
826	0.0003306
838	0.0002774
850	0.0003914
862	0.0004826
874	0.0005206
886	0.0006346
898	0.0007904
910	0.0009614
922	0.001178
934	0.0016188
946	0.0028234
958	0.0050274
970	0.0048146
982	0.0027132
994	0.001653
1006	0.001216
1018	0.0009196
1030	0.0008132
1042	0.000741
1054	0.0008474
1066	0.0008968
1078	0.0007524
1090	0.000532
1102	0.0004712
1114	0.0003648
1126	0.0003458
1138	0.0002584
1150	0.000266
1162	0.0002546
1174	0.0003154
1186	0.0002926
1198	0.0003382
1210	0.0003572
1222	0.0003914
1234	0.0003838
1246	0.0004066
1258	0.0005206
1270	0.0006232
1282	0.0007144
1294	0.000893
1306	0.0009538
1318	0.0008854
1330	0.0009538
1342	0.0011704
1354	0.001235
1366	0.0012198
1378	0.0014858
1390	0.0014668
1402	0.001102
1414	0.0010792
1426	0.0014364
1438	0.0024206
1450	0.0034238
1462	0.003629
1474	0.0026372
1486	0.0014668
1498	0.000893
1510	0.0006498
1522	0.0005434
1534	0.0004256
1546	0.0003458
1558	0.0002774
1570	0.0002432
1582	0.000247
1594	0.000209
1606	0.0002242
1618	0.0001938
1630	0.000171
1642	0.0001672
1654	0.0001938
1666	0.0002052
1678	0.0002166
1690	0.0002356
1702	0.000266
1714	0.0002736
1726	0.0002622
1738	0.0002014
1750	0.0001786
1762	0.0001406
1774	0.0001368
1786	0.0001368
1798	0.0001368
1810	0.0001216
1822	0.0001216
1834	0.0001064
1846	7.98e-05
1858	7.6e-05
1870	7.98e-05
1882	7.98e-05
1894	4.94e-05
1906	4.56e-05
1918	6.08e-05
1930	4.56e-05
1942	2.66e-05
1954	5.32e-05
1966	4.94e-05
1978	6.08e-05
1990	8.74e-05
2002	9.12e-05
2014	7.98e-05
2026	7.22e-05
2038	5.32e-05
2050	5.7e-05
2062	4.56e-05
2074	6.08e-05
2086	2.28e-05
2098	3.04e-05
2110	2.28e-05
2122	0
2134	4.18e-05
2146	2.28e-05
2158	1.9e-05
2170	1.14e-05
2182	3.04e-05
2194	2.28e-05
2206	3.04e-05
2218	1.52e-05
2230	1.52e-05
2242	2.66e-05
2254	4.56e-05
2266	3.42e-05
2278	3.8e-05
2290	3.8e-05
2302	3.42e-05
2314	6.08e-05
2326	6.08e-05
2338	9.88e-05
2350	9.12e-05
2362	0.0001026
2374	9.88e-05
2386	9.88e-05
2398	9.88e-05
2410	0.0001064
2422	0.0001102
2434	9.12e-05
2446	0.0001026
2458	0.0001292
2470	0.0001064
2482	0.0001064
2494	0.0001064
2506	9.5e-05
2518	0.0001178
2530	0.0001406
2542	0.0001634
2554	0.0001748
2566	0.0001862
2578	0.0001976
2590	0.0001938
2602	0.0002204
2614	0.000228
2626	0.0003002
2638	0.000304
2650	0.0003572
2662	0.00038
2674	0.000437
2686	0.0004522
2698	0.0004598
2710	0.0004218
2722	0.0004978
2734	0.0007068
2746	0.0008132
2758	0.0006954
2770	0.00076
2782	0.0009082
2794	0.00114
2806	0.001425
2818	0.0019646
2830	0.002964
2842	0.005529
2854	0.0105222
2866	0.0147972
2878	0.01406
2890	0.0125172
2902	0.0143564
2914	0.0219184
2926	0.0349562
2938	0.0360962
2950	0.0246886
2962	0.0201058
2974	0.0165642
2986	0.0091656
2998	0.0062624
3010	0.005339
3022	0.0048716
3034	0.0038266
3046	0.002641
3058	0.0018772
3070	0.001482
3082	0.0012084
3094	0.0010184
3106	0.0008512
3118	0.0007144
3130	0.0005852
3142	0.0005054
3154	0.0004294
3166	0.0003762
3178	0.0003572
3190	0.0002964
3202	0.000285
3214	0.0002356
3226	0.0001482
3238	0.0001596
3250	0.0001444
3262	0.0001444
3274	0.000152
3286	0.0001558
3298	0.0001216
3310	0.0001216
3322	7.98e-05
3334	8.74e-05
3346	0.0001178
3358	0.0001064
3370	0.0001368
3382	0.0001254
3394	0.0001064
3406	0.0001026
3418	8.74e-05
3430	6.46e-05
3442	7.22e-05
3454	9.12e-05
3466	9.12e-05
3478	3.8e-05
3490	9.12e-05
3502	5.32e-05
3514	7.6e-06
3526	5.7e-05
3538	7.22e-05
3550	2.66e-05
3562	3.42e-05
3574	4.56e-05
3586	5.7e-05
3598	9.12e-05
3610	0.0001102
3622	7.98e-05
3634	0.0001064
3646	0.0001178
3658	7.22e-05
3670	0.000114
3682	0.0001102
3694	0.0001292
3706	0.0001368
3718	9.88e-05
3730	0.0001292
3742	0.000114
3754	0.000152
3766	8.36e-05
3778	8.74e-05
3790	0.0001102
3802	0.0001254
3814	0.0001444
3826	0.000152
3838	0.0001634
