Infrared Spectrum: 4-Ethylphenethylamine
Formula: C 10 H 15 N
CAS: 64353-29-3
State: gas
Origin: EPA-IR VAPOR PHASE LIBRARY
1/CM	ABSORBANCE
549.8	0.00993
559.445	0.00989
569.09	0.01014
578.734	0.00857
588.379	0.00661
598.024	0.00512
607.669	0.0046
617.313	0.00467
626.958	0.00485
636.603	0.00537
646.248	0.0056
655.893	0.00614
665.537	0.00691
675.182	0.00782
684.827	0.00897
694.472	0.01011
704.116	0.01124
713.761	0.0131
723.406	0.01602
733.051	0.01893
742.695	0.0227
752.34	0.02785
761.985	0.03456
771.63	0.04088
781.275	0.03988
790.919	0.03545
800.564	0.03318
810.209	0.03157
819.854	0.02835
829.498	0.02174
839.143	0.01582
848.788	0.01174
858.433	0.00949
868.078	0.00766
877.722	0.00609
887.367	0.00482
897.012	0.00459
906.657	0.00392
916.301	0.00339
925.946	0.00339
935.591	0.00344
945.236	0.00347
954.88	0.00422
964.525	0.00541
974.17	0.00559
983.815	0.00569
993.46	0.00569
1003.1	0.00513
1012.75	0.00805
1022.39	0.00974
1032.04	0.00692
1041.68	0.00777
1051.33	0.01236
1060.97	0.01776
1070.62	0.01774
1080.26	0.01116
1089.91	0.00704
1099.55	0.00569
1109.2	0.00666
1118.84	0.00689
1128.49	0.00536
1138.13	0.00344
1147.78	0.00205
1157.42	0.00147
1167.07	0.0018
1176.71	0.00187
1186.36	0.00214
1196	0.00197
1205.64	0.00356
1215.29	0.00346
1224.93	0.00251
1234.58	0.00326
1244.22	0.00241
1253.87	0.00252
1263.51	0.00233
1273.16	0.00278
1282.8	0.0033
1292.45	0.00403
1302.09	0.00446
1311.74	0.00578
1321.38	0.00764
1331.03	0.00772
1340.67	0.00681
1350.32	0.0073
1359.96	0.00808
1369.61	0.00868
1379.25	0.00977
1388.9	0.00913
1398.54	0.00734
1408.18	0.00722
1417.83	0.00801
1427.47	0.00852
1437.12	0.00927
1446.76	0.01039
1456.41	0.01096
1466.05	0.01133
1475.7	0.00966
1485.34	0.00808
1494.99	0.01019
1504.63	0.02006
1514.28	0.02741
1523.92	0.01456
1533.57	0.00515
1543.21	0.00333
1552.86	0.00288
1562.5	0.00274
1572.15	0.00299
1581.79	0.00336
1591.44	0.00439
1601.08	0.00585
1610.73	0.00845
1620.37	0.01104
1630.01	0.01027
1639.66	0.00754
1649.3	0.00524
1658.95	0.00361
1668.59	0.00267
1678.24	0.00217
1687.88	0.00179
1697.53	0.00147
1707.17	0.00135
1716.82	0.00126
1726.46	0.00125
1736.11	0.00131
1745.75	0.00136
1755.4	0.00147
1765.04	0.00166
1774.69	0.00232
1784.33	0.00278
1793.98	0.00188
1803.62	0.00138
1813.27	0.00122
1822.91	0.00109
1832.55	0.00119
1842.2	0.00117
1851.84	0.00119
1861.49	0.00122
1871.13	0.00174
1880.78	0.00265
1890.42	0.00329
1900.07	0.00282
1909.71	0.00167
1919.36	0.0009954
1929	0.0007149
1938.65	0.0006177
1948.29	0.0005114
1957.94	0.0004707
1967.58	0.000407
1977.23	0.0003792
1986.87	0.0003275
1996.52	0.0003967
2006.16	0.0003942
2015.81	0.0005419
2025.45	0.0005006
2035.1	0.0005163
2044.74	0.0004647
2054.38	0.0004995
2064.03	0.000439
2073.67	0.0004372
2083.32	0.0004442
2092.96	0.0004648
2102.61	0.0004655
2112.25	0.0004111
2121.9	0.00047
2131.54	0.0004467
2141.19	0.0004532
2150.83	0.0003737
2160.48	0.0003292
2170.12	0.0004159
2179.77	0.0004371
2189.41	0.0004998
2199.06	0.0003318
2208.7	0.0004959
2218.35	0.0005462
2227.99	0.0004387
2237.64	0.0003897
2247.28	0.0004747
2256.92	0.0005369
2266.57	0.0005428
2276.21	0.0004949
2285.86	0.0005356
2295.5	0.0006537
2305.15	0.0006744
2314.79	0.0006593
2324.44	0.0006381
2334.08	0.0006118
2343.73	0.0005891
2353.37	0.0006047
2363.02	0.0004792
2372.66	0.0004552
2382.31	0.0004518
2391.95	0.000446
2401.6	0.0004234
2411.24	0.0004059
2420.89	0.0004936
2430.53	0.0005242
2440.18	0.0006336
2449.82	0.0004405
2459.47	0.0004056
2469.11	0.000415
2478.75	0.0004705
2488.4	0.0004313
2498.04	0.0005675
2507.69	0.0004202
2517.33	0.000601
2526.98	0.0007004
2536.62	0.0005828
2546.27	0.0007172
2555.91	0.0006339
2565.56	0.0008493
2575.2	0.0009372
2584.85	0.0008629
2594.49	0.000885
2604.14	0.00108
2613.78	0.0012
2623.43	0.00135
2633.07	0.00146
2642.72	0.00159
2652.36	0.00152
2662.01	0.00159
2671.65	0.00155
2681.29	0.0016
2690.94	0.00184
2700.58	0.00202
2710.23	0.00203
2719.87	0.00236
2729.52	0.0028
2739.16	0.00335
2748.81	0.00338
2758.45	0.00339
2768.1	0.00343
2777.74	0.00357
2787.39	0.00378
2797.03	0.00424
2806.68	0.00512
2816.32	0.00647
2825.97	0.00886
2835.61	0.01378
2845.26	0.0219
2854.9	0.0316
2864.55	0.03714
2874.19	0.03851
2883.84	0.03934
2893.48	0.03623
2903.12	0.03814
2912.77	0.0492
2922.41	0.06175
2932.06	0.07298
2941.7	0.0801
2951.35	0.06373
2960.99	0.05239
2970.64	0.07035
2980.28	0.05419
2989.93	0.02855
2999.57	0.02377
3009.22	0.02571
3018.86	0.03454
3028.51	0.03328
3038.15	0.02042
3047.8	0.01821
3057.44	0.01665
3067.09	0.01311
3076.73	0.0101
3086.38	0.00883
3096.02	0.00691
3105.67	0.00474
3115.31	0.00345
3124.95	0.00304
3134.6	0.00271
3144.24	0.00216
3153.89	0.00171
3163.53	0.00154
3173.18	0.00141
3182.82	0.00126
3192.47	0.0009869
3202.11	0.001
3211.76	0.000778
3221.4	0.0006168
3231.05	0.0006766
3240.69	0.0006804
3250.34	0.00056
3259.98	0.0007123
3269.63	0.0004454
3279.27	0.0006204
3288.92	0.0005101
3298.56	0.0007378
3308.21	0.0006452
3317.85	0.0005344
3327.49	0.0007844
3337.14	0.00118
3346.78	0.00116
3356.43	0.0009546
3366.07	0.0006589
3375.72	0.0004859
3385.36	0.0006038
3395.01	0.0006592
3404.65	0.000693
3414.3	0.0009688
3423.94	0.0006724
3433.59	0.0004581
3443.23	0.0004392
3452.88	0.000528
3462.52	0.000408
3472.17	0.0002996
3481.81	0.0004623
3491.46	0.0003207
3501.1	0.0003943
3510.75	0.0002445
3520.39	0.0002124
3530.04	0.0002449
3539.68	0.0002207
3549.32	5.923e-05
3558.97	1.09e-05
3568.61	0.0003942
3578.26	0.0002647
3587.9	0.0003359
3597.55	0.0002206
3607.19	0.0003715
3616.84	0.0003381
3626.48	0.0002865
3636.13	0.000436
3645.77	0.0004383
3655.42	0.0005715
3665.06	0.0005292
3674.71	0.0003711
3684.35	0.0006912
3694	0.000503
3703.64	0.0003883
3713.29	0.0002003
3722.93	0.0003592
3732.58	0.0003825
3742.22	0.0003169
3751.86	0.0003361
3761.51	0.0005065
3771.15	0.0003633
3780.8	0.0003327
3790.44	0.0002345
3800.09	0.0002774
3809.73	0.0003872
3819.38	0.0002669
3829.02	0.0004188
3838.67	0.0005207
3848.31	0.0004925
3857.96	0.0003447
3867.6	0.00038
3877.25	0.0004005
3886.89	0.0004951
3896.54	0.0003918
3906.18	0.0003698
3915.83	0.0003995
3925.47	0.0006217
3935.12	0.0006473
3944.76	0.0005707
3954.41	0.0006328
3964.05	0.0005481
3973.69	0.0006722
3983.34	0.0005576
3992.98	0.0006806
