Infrared Spectrum: ETHYL N-BENZYLGLYCINATE
Formula: C11 H15 N O2
CAS: 6436-90-4
State: LIQUID
Class: COBLENTZ
Instrument: PERKIN-ELMER
Sampling: TRANSMISSION
Path length: CAPILLARY
Resolution: 4
Origin: ABBOTT LABORATORIES - WASHBURN
MICROMETERS	TRANSMITTANCE
2.04	0.879
2.08	0.886
2.12	0.886
2.16001	0.8889
2.20001	0.891
2.24001	0.892
2.28001	0.899
2.32001	0.8961
2.36002	0.8919
2.40002	0.8891
2.44002	0.899
2.48002	0.892
2.52002	0.8821
2.56003	0.8918
2.60003	0.906
2.64003	0.899
2.68003	0.901
2.72003	0.908
2.76004	0.9011
2.80004	0.8867
2.84004	0.869
2.88004	0.869
2.92004	0.8561
2.96005	0.8341
3.00005	0.7943
3.04005	0.722
3.08005	0.787
3.12005	0.8268
3.16006	0.8539
3.20006	0.8671
3.24006	0.8719
3.28006	0.8011
3.32006	0.724
3.36007	0.662
3.40007	0.521
3.44007	0.5909
3.48007	0.558
3.52007	0.6164
3.56008	0.637
3.60008	0.6473
3.64008	0.7592
3.68008	0.837
3.72008	0.869
3.76009	0.8839
3.80009	0.908
3.84009	0.906
3.88009	0.909
3.92009	0.906
3.9601	0.9041
4.0001	0.9039
4.0401	0.897
4.0801	0.892
4.1201	0.8959
4.16011	0.887
4.20011	0.8769
4.24011	0.8759
4.28011	0.876
4.32011	0.8671
4.36012	0.866
4.40012	0.867
4.44012	0.857
4.48012	0.854
4.52012	0.852
4.56013	0.851
4.60013	0.851
4.64013	0.847
4.68013	0.844
4.72013	0.842
4.76014	0.841
4.80014	0.8359
4.84014	0.831
4.88014	0.827
4.92014	0.826
4.96015	0.832
5.00015	0.832
5.04015	0.8222
5.08015	0.8166
5.12015	0.8026
5.16016	0.795
5.20016	0.8115
5.24016	0.8165
5.28016	0.8052
5.32016	0.792
5.36017	0.782
5.40017	0.797
5.44017	0.8011
5.48017	0.7877
5.52017	0.7607
5.56018	0.754
5.60018	0.7467
5.64018	0.7075
5.68018	0.6065
5.72018	0.2884
5.76019	0.0925
5.80019	0.0899
5.84019	0.3539
5.88019	0.5969
5.92019	0.6693
5.9602	0.7226
6.0002	0.7431
6.0402	0.752
6.0802	0.7579
6.1202	0.7609
6.16021	0.7622
6.20021	0.7591
6.24021	0.7048
6.28021	0.7436
6.32021	0.7465
6.36022	0.775
6.40022	0.783
6.44022	0.781
6.48022	0.78
6.52022	0.782
6.56022	0.779
6.60023	0.7701
6.64023	0.7504
6.68023	0.6666
6.72023	0.5188
6.76023	0.5912
6.80024	0.4961
6.84024	0.4193
6.88024	0.3805
6.92024	0.3351
6.96024	0.4535
7.00025	0.5559
7.04025	0.598
7.08025	0.5634
7.12025	0.5805
7.16025	0.5891
7.20026	0.5243
7.24026	0.5043
7.28026	0.4283
7.32026	0.3867
7.36026	0.4945
7.40027	0.5652
7.44027	0.5458
7.48027	0.4786
7.52027	0.5356
7.56027	0.6067
7.60028	0.6239
7.64028	0.6194
7.68028	0.5894
7.72028	0.5403
7.76028	0.5465
7.80029	0.555
7.84029	0.5216
7.88029	0.4614
7.92029	0.4191
7.96029	0.3979
8.0003	0.394
8.0403	0.3884
8.0803	0.361
8.1203	0.3227
8.1603	0.2493
8.20031	0.1904
8.24031	0.1504
8.28031	0.142
8.32031	0.1338
8.36031	0.126
8.40032	0.1034
8.44032	0.095
8.48032	0.0959
8.52032	0.1505
8.56032	0.2455
8.60033	0.2915
8.64033	0.3337
8.68033	0.3263
8.72033	0.2928
8.76033	0.2432
8.80034	0.2245
8.84034	0.2497
8.88034	0.3121
8.92034	0.408
8.96034	0.4692
9.00035	0.5023
9.04035	0.529
9.08035	0.562
9.12035	0.5663
9.16035	0.5342
9.20036	0.5626
9.24036	0.6031
9.28036	0.615
9.32036	0.6183
9.36036	0.632
9.40037	0.6429
9.44037	0.6505
9.48037	0.6367
9.52037	0.6159
9.56037	0.607
9.60038	0.5979
9.64038	0.5534
9.68038	0.4484
9.72038	0.312
9.76038	0.254
9.80039	0.3038
9.84039	0.4157
9.88039	0.5268
9.92039	0.617
9.96039	0.6527
10.0004	0.6689
10.0404	0.6885
10.0804	0.7092
10.1204	0.715
10.1604	0.719
10.2004	0.717
10.2404	0.7091
10.2804	0.701
10.3204	0.6895
10.3604	0.6775
10.4004	0.6724
10.4404	0.682
10.4804	0.683
10.5204	0.6879
10.5604	0.6778
10.6004	0.6671
10.6404	0.652
10.6804	0.645
10.7204	0.6562
10.7604	0.6675
10.8004	0.6737
10.8404	0.672
10.8804	0.665
10.9204	0.653
10.9604	0.6449
11.0004	0.643
11.0404	0.6516
11.0804	0.6714
11.1205	0.703
11.1605	0.7307
11.2005	0.7457
11.2405	0.7581
11.2805	0.764
11.3205	0.765
11.3605	0.76
11.4005	0.7602
11.4405	0.75
11.4805	0.7313
11.5205	0.7043
11.5605	0.6728
11.6005	0.6411
11.6405	0.635
11.6805	0.6422
11.7205	0.6602
11.7605	0.672
11.8005	0.6779
11.8405	0.682
11.8805	0.6807
11.9205	0.673
11.9605	0.6609
12.0005	0.6428
12.0405	0.6184
12.0805	0.5936
12.1205	0.573
12.1605	0.5761
12.2005	0.5747
12.2405	0.5807
12.2805	0.583
12.3205	0.585
12.3605	0.5846
12.4005	0.5868
12.4405	0.588
12.4805	0.5897
12.5205	0.5983
12.5605	0.6179
12.6005	0.6291
12.6405	0.627
12.6805	0.627
12.7205	0.6124
12.7605	0.597
12.8005	0.5849
12.8405	0.5707
12.8805	0.5609
12.9205	0.5498
12.9605	0.5412
13.0005	0.5263
13.0405	0.5163
13.0805	0.4966
13.1206	0.4856
13.1606	0.4606
13.2006	0.4235
13.2406	0.3983
13.2806	0.3652
13.3206	0.317
13.3606	0.2869
13.4006	0.2557
13.4406	0.2326
13.4806	0.2177
13.5206	0.2067
13.5606	0.2
13.6006	0.205
13.6406	0.2153
13.6806	0.2454
13.7206	0.2888
13.7606	0.332
13.8006	0.3733
13.8406	0.4142
13.8806	0.438
13.9206	0.4646
13.9606	0.4768
14.0006	0.481
14.0406	0.478
14.0806	0.4658
14.1206	0.4389
14.1606	0.3972
14.2006	0.3356
14.2406	0.2618
14.2806	0.2083
14.3206	0.171
14.3606	0.1769
14.4006	0.2503
14.4406	0.3376
14.4806	0.4002
14.5206	0.4484
14.5606	0.4806
14.6006	0.4957
14.6406	0.508
14.6806	0.516
14.7206	0.523
14.7606	0.528
14.8006	0.533
14.8406	0.535
14.8806	0.54
14.9206	0.5362
14.9606	0.5449
15.0006	0.5542
15.0406	0.5553
15.0806	0.555
15.1207	0.5512
15.1607	0.554
15.2007	0.556
15.2407	0.5525
15.2807	0.5533
15.3207	0.553
15.3607	0.5555
15.4007	0.548
