Infrared Spectrum: 2-Fluorobenzyl isothiocyanate
Formula: C 8 H 6 F N S
CAS: 64382-80-5
State: gas
Origin: EPA-IR VAPOR PHASE LIBRARY
1/CM	ABSORBANCE
549.8	0.0101078
559.445	0.0092755
569.09	0.008898
578.734	0.008945
588.379	0.0092782
598.024	0.0081
607.669	0.008681
617.313	0.008423
626.958	0.00629
636.603	0.00465
646.248	0.00409
655.893	0.00396
665.537	0.00671
675.182	0.0113
684.827	0.01809
694.472	0.01816
704.116	0.01362
713.761	0.0108
723.406	0.01287
733.051	0.0262
742.695	0.05619
752.34	0.08592
761.985	0.05535
771.63	0.02258
781.275	0.0096032
790.919	0.00572
800.564	0.00407
810.209	0.00391
819.854	0.00589
829.498	0.0123
839.143	0.02027
848.788	0.01964
858.433	0.01185
868.078	0.00855
877.722	0.00633
887.367	0.0047
897.012	0.00448
906.657	0.00421
916.301	0.00522
925.946	0.00549
935.591	0.00646
945.236	0.00591
954.88	0.00447
964.525	0.00386
974.17	0.00333
983.815	0.0033
993.46	0.00378
1003.1	0.00397
1012.75	0.00459
1022.39	0.00712
1032.04	0.00899
1041.68	0.0068
1051.33	0.00436
1060.97	0.00484
1070.62	0.00483
1080.26	0.00711
1089.91	0.008468
1099.55	0.01107
1109.2	0.01441
1118.84	0.01476
1128.49	0.00908
1138.13	0.00673
1147.78	0.00677
1157.42	0.00833
1167.07	0.01218
1176.71	0.01954
1186.36	0.01944
1196	0.01423
1205.64	0.01162
1215.29	0.01575
1224.93	0.03299
1234.58	0.06175
1244.22	0.06868
1253.87	0.04073
1263.51	0.02135
1273.16	0.01811
1282.8	0.01937
1292.45	0.01922
1302.09	0.0186
1311.74	0.02017
1321.38	0.0244
1331.03	0.03498
1340.67	0.06886
1350.32	0.08218
1359.96	0.04281
1369.61	0.01956
1379.25	0.01352
1388.9	0.0094729
1398.54	0.00727
1408.18	0.00638
1417.83	0.00684
1427.47	0.0097508
1437.12	0.017
1446.76	0.03796
1456.41	0.05201
1466.05	0.03815
1475.7	0.03179
1485.34	0.04957
1494.99	0.06008
1504.63	0.04301
1514.28	0.02062
1523.92	0.00886
1533.57	0.00543
1543.21	0.00485
1552.86	0.00516
1562.5	0.00738
1572.15	0.01232
1581.79	0.02153
1591.44	0.02764
1601.08	0.02224
1610.73	0.01628
1620.37	0.01193
1630.01	0.00602
1639.66	0.00374
1649.3	0.00322
1658.95	0.00285
1668.59	0.00322
1678.24	0.00385
1687.88	0.00413
1697.53	0.00354
1707.17	0.00341
1716.82	0.00298
1726.46	0.00291
1736.11	0.00292
1745.75	0.00273
1755.4	0.00303
1765.04	0.00342
1774.69	0.00432
1784.33	0.00479
1793.98	0.00449
1803.62	0.00417
1813.27	0.00409
1822.91	0.00426
1832.55	0.00391
1842.2	0.00389
1851.84	0.00417
1861.49	0.00507
1871.13	0.00611
1880.78	0.00724
1890.42	0.008872
1900.07	0.01153
1909.71	0.01345
1919.36	0.01519
1929	0.0186
1938.65	0.024
1948.29	0.03021
1957.94	0.03757
1967.58	0.04952
1977.23	0.06625
1986.87	0.0909
1996.52	0.12638
2006.16	0.1752
2015.81	0.23911
2025.45	0.31052
2035.1	0.37663
2044.74	0.4229
2054.38	0.41999
2064.03	0.3721
2073.67	0.2999
2083.32	0.22202
2092.96	0.16247
2102.61	0.11816
2112.25	0.08768
2121.9	0.0682
2131.54	0.05632
2141.19	0.05099
2150.83	0.051
2160.48	0.05519
2170.12	0.0613
2179.77	0.06414
2189.41	0.05942
2199.06	0.04985
2208.7	0.03931
2218.35	0.02971
2227.99	0.02356
2237.64	0.01981
2247.28	0.01654
2256.92	0.01336
2266.57	0.01109
2276.21	0.0094863
2285.86	0.00836
2295.5	0.00732
2305.15	0.00657
2314.79	0.00597
2324.44	0.00513
2334.08	0.00464
2343.73	0.00408
2353.37	0.00365
2363.02	0.00327
2372.66	0.00334
2382.31	0.00306
2391.95	0.0027
2401.6	0.00271
2411.24	0.00252
2420.89	0.00241
2430.53	0.00248
2440.18	0.00233
2449.82	0.00233
2459.47	0.00267
2469.11	0.00277
2478.75	0.0029
2488.4	0.00275
2498.04	0.0026
2507.69	0.00249
2517.33	0.00254
2526.98	0.00259
2536.62	0.00261
2546.27	0.00302
2555.91	0.00284
2565.56	0.00307
2575.2	0.0033
2584.85	0.00338
2594.49	0.00311
2604.14	0.0029
2613.78	0.00253
2623.43	0.00242
2633.07	0.0021
2642.72	0.00222
2652.36	0.00233
2662.01	0.0025
2671.65	0.00246
2681.29	0.00229
2690.94	0.00295
2700.58	0.00332
2710.23	0.00367
2719.87	0.00409
2729.52	0.00453
2739.16	0.00462
2748.81	0.00433
2758.45	0.00457
2768.1	0.00447
2777.74	0.00501
2787.39	0.00489
2797.03	0.00517
2806.68	0.00499
2816.32	0.00408
2825.97	0.00344
2835.61	0.00322
2845.26	0.00311
2854.9	0.00314
2864.55	0.00455
2874.19	0.00601
2883.84	0.00693
2893.48	0.0067
2903.12	0.00586
2912.77	0.00542
2922.41	0.00668
2932.06	0.0095215
2941.7	0.01203
2951.35	0.01192
2960.99	0.0096256
2970.64	0.00726
2980.28	0.00485
2989.93	0.00325
2999.57	0.0022
3009.22	0.00231
3018.86	0.00282
3028.51	0.0042
3038.15	0.00655
3047.8	0.009001
3057.44	0.0097329
3067.09	0.0101758
3076.73	0.0125
3086.38	0.01224
3096.02	0.008699
3105.67	0.00511
3115.31	0.00257
3124.95	0.00173
3134.6	0.00132
3144.24	0.00107
3153.89	0.00079
3163.53	0.00069
3173.18	0.00088
3182.82	0.00104
3192.47	0.00072
3202.11	0.00061
3211.76	0.00061
3221.4	0.00049
3231.05	0.00098
3240.69	0.00057
3250.34	0.00063
3259.98	0.00072
3269.63	0.00053
3279.27	0.00074
3288.92	0.00033
3298.56	0.00039
3308.21	0.00052
3317.85	8e-05
3327.49	0.00014
3337.14	0.00094
3346.78	0.00047
3356.43	0.00042
3366.07	0.00053
3375.72	0.00048
3385.36	0.00061
3395.01	0.0002
3404.65	0.00048
3414.3	0.00087
3423.94	0.00041
3433.59	0.00072
3443.23	0.00037
3452.88	0.00103
3462.52	0.00056
3472.17	0.00054
3481.81	0.00084
3491.46	0.00069
3501.1	0.0005
3510.75	0.00055
3520.39	0.00037
3530.04	0.00048
3539.68	0.00046
3549.32	0.00027
3558.97	0.0004
3568.61	0.00043
3578.26	0.00059
3587.9	0.00069
3597.55	0.00069
3607.19	0.00065
3616.84	0.00068
3626.48	0.00095
3636.13	0.00086
3645.77	0.00065
3655.42	0.00079
3665.06	0.00074
3674.71	0.00065
3684.35	0.00082
3694	0.00067
3703.64	0.00036
3713.29	0.00073
3722.93	0.00043
3732.58	0.00088
3742.22	0.00058
3751.86	0.00046
3761.51	0.00038
3771.15	0.00084
3780.8	0.00041
3790.44	0.00043
3800.09	0.00088
3809.73	0.0009
3819.38	0.00086
3829.02	0.0009
3838.67	0.00063
3848.31	0.00103
3857.96	0.00045
3867.6	0.00095
3877.25	0.00056
3886.89	0.00107
3896.54	0.00134
3906.18	0.00114
3915.83	0.0012
3925.47	0.00138
3935.12	0.00134
3944.76	0.00139
3954.41	0.00142
3964.05	0.00136
3973.69	0.00143
3983.34	0.00157
3992.98	0.00195
