Infrared Spectrum: 2-BENZAMIDO-5-NITROTHIAZOLE
Formula: C10 H7 N3 O3 S
CAS: 64398-84-1
State: SOLID (SPLIT MULL)
Melting point: 258 C
Class: COBLENTZ III
Instrument: DOW KBr FOREPRISM-GRATING
Instrument parameters: BLAZED AT 3.5, 12.0, 20.0 MICRON AND CHANGED AT 5.0, 7.5, 14.9 MICRON
Sampling: TRANSMISSION
Resolution: 2
Origin: DOW CHEMICAL COMPANY
1/CM	TRANSMITTANCE
454.439	0.941
463.201	0.943
471.962	0.946
480.724	0.946
489.486	0.94
498.247	0.892
507.009	0.643
515.771	0.798
524.532	0.975
533.294	0.981
542.056	0.984
550.818	0.987
559.579	0.994
568.341	0.995
577.103	1.002
585.864	1.005
594.626	1.005
603.388	1.014
612.149	1.007
620.911	1.008
629.673	0.994
638.434	1.007
647.196	0.994
655.958	1.008
664.719	0.998
673.481	0.951
682.243	0.357
691.004	0.93
699.766	0.531
708.528	0.853
717.289	0.539
726.051	0.184
734.813	0.641
743.575	0.835
752.336	0.904
761.098	0.872
769.86	0.814
778.621	0.832
787.383	0.897
796.145	0.695
804.906	0.452
813.668	0.6819
822.43	0.825
831.191	0.937
839.953	0.937
848.715	0.965
857.476	0.964
866.238	0.953
875	0.92
883.761	0.737
892.523	0.558
901.285	0.774
910.046	0.963
918.808	0.971
927.57	0.98
936.332	0.968
945.093	0.809
953.855	0.971
962.617	0.971
971.378	0.967
980.14	0.964
988.902	0.951
997.663	0.953
1006.42	0.906
1015.19	0.943
1023.95	0.91
1032.71	0.706
1041.47	0.936
1050.23	0.929
1059	0.889
1067.76	0.761
1076.52	0.602
1085.28	0.845
1094.04	0.6629
1102.8	0.503
1111.57	0.817
1120.33	0.89
1129.09	0.77
1137.85	0.887
1146.61	0.883
1155.37	0.858
1164.14	0.592
1172.9	0.069
1181.66	0.721
1190.42	0.846
1199.18	0.809
1207.94	0.751
1216.71	0.685
1225.47	0.463
1234.23	0.046
1242.99	0.234
1251.75	0.658
1260.51	0.52
1269.28	0.314
1278.04	0.628
1286.8	0.499
1295.56	0.07
1304.32	0.167
1313.08	0.085
1321.85	0.27
1330.61	0.567
1339.37	0.567
1348.13	0.2069
1356.89	0.017
1365.65	0.4781
1374.42	0.74
1383.18	0.798
1391.94	0.807
1400.7	0.795
1409.46	0.751
1418.22	0.635
1426.99	0.398
1435.75	0.502
1444.51	0.551
1453.27	0.3531
1462.03	0.455
1470.79	0.324
1479.56	0.0479
1488.32	0.009
1497.08	0.087
1505.84	0.297
1514.6	0.502
1523.36	0.243
1532.13	0.253
1540.89	0.068
1549.65	0.035
1558.41	0.259
1567.17	0.6
1575.93	0.601
1584.7	0.683
1593.46	0.757
1602.22	0.4991
1610.98	0.88
1619.74	0.903
1628.5	0.887
1637.27	0.841
1646.03	0.859
1654.79	0.822
1663.55	0.6089
1672.31	0.086
1681.07	0.2511
1689.84	0.859
1698.6	0.964
1707.36	0.975
1716.12	0.984
1724.88	0.987
1733.64	0.977
1742.41	0.964
1751.17	0.943
1759.93	0.954
1768.69	0.956
1777.45	0.947
1786.21	0.882
1794.98	0.948
1803.74	0.933
1812.5	0.946
1821.26	0.954
1830.02	0.944
1838.78	0.934
1847.55	0.923
1856.31	0.926
1865.07	0.923
1873.83	0.92
1882.59	0.92
1891.35	0.921
1900.12	0.919
1908.88	0.912
1917.64	0.899
1926.4	0.868
1935.16	0.896
1943.93	0.887
1952.69	0.893
1961.45	0.892
1970.21	0.882
1978.97	0.876
1987.73	0.856
1996.5	0.852
2005.26	0.9
2014.02	0.896
2022.78	0.889
2031.54	0.902
2040.3	0.902
2049.07	0.899
2057.83	0.89
2066.59	0.886
2075.35	0.883
2084.11	0.879
2092.87	0.875
2101.64	0.87
2110.4	0.868
2119.16	0.863
2127.92	0.86
2136.68	0.856
2145.44	0.851
2154.21	0.846
2162.97	0.839
2171.73	0.831
2180.49	0.824
2189.25	0.818
2198.01	0.817
2206.78	0.814
2215.54	0.809
2224.3	0.804
2233.06	0.798
2241.82	0.791
2250.58	0.785
2259.35	0.78
2268.11	0.777
2276.87	0.775
2285.63	0.77
2294.39	0.764
2303.15	0.757
2311.92	0.75
2320.68	0.744
2329.44	0.737
2338.2	0.733
2346.96	0.73
2355.72	0.729
2364.49	0.727
2373.25	0.73
2382.01	0.733
2390.77	0.729
2399.53	0.723
2408.29	0.717
2417.06	0.72
2425.82	0.712
2434.58	0.709
2443.34	0.706
2452.1	0.6972
2460.86	0.692
2469.63	0.672
2478.39	0.67
2487.15	0.687
2495.91	0.689
2504.67	0.685
2513.43	0.676
2522.2	0.669
2530.96	0.665
2539.72	0.66
2548.48	0.656
2557.24	0.648
2566	0.642
2574.77	0.6341
2583.53	0.6181
2592.29	0.611
2601.05	0.608
2609.81	0.6001
2618.57	0.597
2627.34	0.598
2636.1	0.5951
2644.86	0.5742
2653.62	0.567
2662.38	0.56
2671.14	0.553
2679.91	0.546
2688.67	0.54
2697.43	0.5212
2706.19	0.5042
2714.95	0.4804
2723.71	0.469
2732.48	0.48
2741.24	0.482
2750	0.4701
2758.76	0.4601
2767.52	0.4413
2776.28	0.4261
2785.05	0.429
2793.81	0.428
2802.57	0.4052
2811.33	0.4
2820.09	0.394
2828.85	0.3811
2837.62	0.37
2846.38	0.3651
2855.14	0.364
2863.9	0.364
2872.66	0.3561
2881.43	0.3372
2890.19	0.3162
2898.95	0.2873
2907.71	0.2801
2916.47	0.2631
2925.23	0.2491
2934	0.241
2942.76	0.2449
2951.52	0.2549
2960.28	0.2718
2969.04	0.3228
2977.8	0.326
2986.57	0.3041
2995.33	0.3117
3004.09	0.3259
3012.85	0.3438
3021.61	0.3908
3030.37	0.3871
3039.14	0.3751
3047.9	0.3641
3056.66	0.3511
3065.42	0.3441
3074.18	0.3102
3082.94	0.3156
3091.71	0.3511
3100.47	0.3065
3109.23	0.2461
3117.99	0.2049
3126.75	0.252
3135.51	0.2341
3144.28	0.2693
3153.04	0.2966
3161.8	0.3354
3170.56	0.3606
3179.32	0.3848
3188.08	0.4067
3196.85	0.4307
3205.61	0.4519
3214.37	0.4393
3223.13	0.429
3231.89	0.4505
3240.65	0.4818
3249.42	0.4959
3258.18	0.5059
3266.94	0.5139
3275.7	0.5199
3284.46	0.524
3293.22	0.526
3301.99	0.523
3310.75	0.52
3319.51	0.516
3328.27	0.513
3337.03	0.51
3345.79	0.507
3354.56	0.504
3363.32	0.502
3372.08	0.4971
3380.84	0.4951
3389.6	0.492
3398.36	0.489
3407.13	0.486
3415.89	0.483
3424.65	0.479
3433.41	0.476
3442.17	0.473
3450.93	0.47
3459.7	0.4661
3468.46	0.4631
3477.22	0.46
3485.98	0.458
3494.74	0.4531
3503.5	0.452
3512.27	0.449
3521.03	0.4461
3529.79	0.445
3538.55	0.442
3547.31	0.439
3556.07	0.4361
3564.84	0.435
3573.6	0.432
3582.36	0.4311
3591.12	0.431
3599.88	0.4261
3608.64	0.421
3617.41	0.419
3626.17	0.4171
3634.93	0.415
3643.69	0.414
3652.45	0.411
3661.21	0.4081
3669.98	0.407
3678.74	0.4041
3687.5	0.4011
3696.26	0.4
3705.02	0.398
3713.78	0.395
3722.55	0.394
3731.31	0.391
3740.07	0.3881
3748.83	0.387
3757.59	0.3841
3766.35	0.382
3775.12	0.38
3783.88	0.378
3792.64	0.375
