Infrared Spectrum: Octanoic acid, 2-amino-, D,L-,
Formula: C8 H17 N O2
CAS: 644-90-6
State: SOLID (OIL MULL)
Class: COBLENTZ III
Instrument: BAIRD (GRATING)
Instrument parameters: NaCl PRISM
Path length: CAPILLARY
Resolution: 2
Origin: WYANDOTTE CHEMICALS CORP.
1/CM	TRANSMITTANCE
624	0.6951
633	0.7159
642	0.7359
651	0.7516
660	0.7596
669	0.7757
678	0.7666
687	0.7242
696	0.5354
705	0.6507
714	0.7087
723	0.6346
732	0.7743
741	0.8142
750	0.8324
759	0.8364
768	0.8038
777	0.816
786	0.8193
795	0.8042
804	0.8478
813	0.8548
822	0.8545
831	0.8458
840	0.8362
849	0.8226
858	0.7674
867	0.8359
876	0.8354
885	0.7881
894	0.7502
903	0.6982
912	0.7825
921	0.8344
930	0.8077
939	0.7496
948	0.8269
957	0.8249
966	0.8233
975	0.8241
984	0.8219
993	0.8188
1002	0.8184
1011	0.805
1020	0.7921
1029	0.7896
1038	0.7905
1047	0.7929
1056	0.7936
1065	0.786
1074	0.7185
1083	0.5286
1092	0.5559
1101	0.8328
1110	0.8567
1119	0.8177
1128	0.7524
1137	0.7887
1146	0.7832
1155	0.7278
1164	0.6598
1173	0.7673
1182	0.7684
1191	0.7657
1200	0.7859
1209	0.7732
1218	0.7309
1227	0.6807
1236	0.7426
1245	0.7327
1254	0.7051
1263	0.5847
1272	0.6636
1281	0.6759
1290	0.6572
1299	0.4793
1308	0.4978
1317	0.5792
1326	0.5664
1335	0.4488
1344	0.2343
1353	0.2712
1362	0.2544
1371	0.3496
1380	0.3197
1389	0.3221
1398	0.3351
1407	0.257
1416	0.1405
1425	0.1416
1434	0.1878
1443	0.3237
1452	0.2906
1461	0.2267
1470	0.201
1479	0.2194
1488	0.4039
1497	0.5736
1506	0.5619
1515	0.4885
1524	0.4069
1533	0.4646
1542	0.5085
1551	0.5049
1560	0.4637
1569	0.3908
1578	0.2518
1587	0.1151
1596	0.0615
1605	0.1083
1614	0.1733
1623	0.1815
1632	0.2036
1641	0.2849
1650	0.3132
1659	0.3059
1668	0.3068
1677	0.4747
1686	0.6451
1695	0.7075
1704	0.734
1713	0.7434
1722	0.7483
1731	0.7528
1740	0.7574
1749	0.7621
1758	0.7672
1767	0.774
1776	0.7858
1785	0.8004
1794	0.8135
1803	0.827
1812	0.8406
1821	0.8471
1830	0.8498
1839	0.8505
1848	0.8511
1857	0.8502
1866	0.8492
1875	0.8482
1884	0.8472
1893	0.8453
1902	0.8404
1911	0.8364
1920	0.8352
1929	0.835
1938	0.8347
1947	0.8311
1956	0.8225
1965	0.8133
1974	0.8075
1983	0.802
1992	0.7965
2001	0.7896
2010	0.781
2019	0.7725
2028	0.765
2037	0.7617
2046	0.7609
2055	0.7568
2064	0.748
2073	0.7426
2082	0.7409
2091	0.7411
2100	0.7491
2109	0.7617
2118	0.7751
2127	0.7859
2136	0.789
2145	0.79
2154	0.7901
2163	0.7896
2172	0.7888
2181	0.7876
2190	0.7864
2199	0.7847
2208	0.7824
2217	0.7801
2226	0.7777
2235	0.7736
2244	0.7693
2253	0.7657
2262	0.7616
2271	0.7556
2280	0.7496
2289	0.7416
2298	0.7355
2307	0.7312
2316	0.7274
2325	0.7255
2334	0.7237
2343	0.7217
2352	0.7189
2361	0.7161
2370	0.7132
2379	0.7103
2388	0.7069
2397	0.7001
2406	0.6923
2415	0.6827
2424	0.6756
2433	0.6687
2442	0.6617
2451	0.6547
2460	0.6478
2469	0.6387
2478	0.6293
2487	0.615
2496	0.5891
2505	0.5713
2514	0.5611
2523	0.5528
2532	0.5443
2541	0.5343
2550	0.523
2559	0.5092
2568	0.4918
2577	0.4606
2586	0.4418
2595	0.4273
2604	0.4148
2613	0.4108
2622	0.408
2631	0.4073
2640	0.3916
2649	0.3766
2658	0.3586
2667	0.322
2676	0.3108
2685	0.3087
2694	0.3071
2703	0.3054
2712	0.3016
2721	0.2971
2730	0.2918
2739	0.2844
2748	0.2763
2757	0.2663
2766	0.2562
2775	0.2405
2784	0.2252
2793	0.2103
2802	0.1957
2811	0.1798
2820	0.1622
2829	0.1387
2838	0.1111
2847	0.0805
2856	0.0338
2865	0.0196
2874	0.0179
2883	0.0167
2892	0.0156
2901	0.0149
2910	0.0146
2919	0.0146
2928	0.0149
2937	0.0151
2946	0.0154
2955	0.0155
2964	0.0159
2973	0.0169
2982	0.0187
2991	0.0238
3000	0.0325
3009	0.0639
3018	0.0825
3027	0.1007
3036	0.1123
3045	0.1296
3054	0.1497
3063	0.1697
3072	0.1897
3081	0.2095
3090	0.2273
3099	0.2375
3108	0.2397
3117	0.241
3126	0.2421
3135	0.2437
3144	0.246
3153	0.2495
3162	0.2568
3171	0.2719
3180	0.2905
3189	0.305
3198	0.321
3207	0.3513
3216	0.3743
3225	0.4004
3234	0.4483
3243	0.4735
3252	0.5025
3261	0.5388
3270	0.5739
3279	0.5984
3288	0.6203
3297	0.653
3306	0.6759
3315	0.6954
3324	0.7115
3333	0.7265
3342	0.74
3351	0.7522
3360	0.7629
3369	0.7712
3378	0.775
3387	0.7786
3396	0.7815
3405	0.7843
3414	0.787
3423	0.7891
3432	0.7911
3441	0.793
3450	0.7945
3459	0.7956
3468	0.7968
3477	0.7979
3486	0.7988
3495	0.7991
3504	0.7993
3513	0.7996
3522	0.7994
3531	0.7992
3540	0.799
3549	0.7987
3558	0.7985
3567	0.7982
3576	0.7981
3585	0.7976
3594	0.7972
3603	0.7968
3612	0.7964
3621	0.796
3630	0.7956
3639	0.7953
3648	0.7947
3657	0.7939
3666	0.793
3675	0.7922
3684	0.7914
3693	0.7905
3702	0.7897
3711	0.7889
3720	0.7881
3729	0.7871
3738	0.7861
3747	0.7852
3756	0.7842
3765	0.7833
3774	0.7823
3783	0.7813
3792	0.7802
3801	0.7789
3810	0.7775
3819	0.7761
3828	0.7748
3837	0.7734
3846	0.7722
3855	0.7708
3864	0.7692
3873	0.7677
3882	0.7661
3891	0.7645
3900	0.763
3909	0.7614
3918	0.7598
3927	0.7583
3936	0.7567
3945	0.7552
3954	0.7536
3963	0.7521
3972	0.7506
3981	0.749
3990	0.7476
3999	0.7462
