Infrared Spectrum: 2-Naphthylphenyl ketone
Formula: C 17 H 12 O
CAS: 644-13-3
State: gas
Origin: EPA-IR VAPOR PHASE LIBRARY
1/CM	ABSORBANCE
549.8	0.003331
559.445	0.003881
569.09	0.003971
578.734	0.003951
588.379	0.004591
598.024	0.004331
607.669	0.004491
617.313	0.004301
626.958	0.004161
636.603	0.003481
646.248	0.002821
655.893	0.002211
665.537	0.001841
675.182	0.001771
684.827	0.001611
694.472	0.001631
704.116	0.001641
713.761	0.001761
723.406	0.001711
733.051	0.001581
742.695	0.001551
752.34	0.001441
761.985	0.001261
771.63	0.0010992
781.275	0.0007156
790.919	0.0007974
800.564	0.0009602
810.209	0.0009071
819.854	0.0007971
829.498	0.0007459
839.143	0.0008895
848.788	0.0009409
858.433	0.000894
868.078	0.0009537
877.722	0.0008314
887.367	0.0008552
897.012	0.0008501
906.657	0.0007909
916.301	0.00083
925.946	0.0007615
935.591	0.0009022
945.236	0.0009406
954.88	0.0010439
964.525	0.000877
974.17	0.0009933
983.815	0.0011937
993.46	0.0011472
1003.1	0.001331
1012.75	0.001691
1022.39	0.002031
1032.04	0.002441
1041.68	0.002701
1051.33	0.003151
1060.97	0.004101
1070.62	0.005661
1080.26	0.007701
1089.91	0.008901
1099.55	0.009371
1109.2	0.010681
1118.84	0.012491
1128.49	0.012531
1138.13	0.010711
1147.78	0.008781
1157.42	0.007231
1167.07	0.006181
1176.71	0.005281
1186.36	0.004591
1196	0.004031
1205.64	0.003821
1215.29	0.003151
1224.93	0.002671
1234.58	0.002411
1244.22	0.002571
1253.87	0.002461
1263.51	0.002571
1273.16	0.002371
1282.8	0.002281
1292.45	0.002171
1302.09	0.002051
1311.74	0.001921
1321.38	0.001901
1331.03	0.002141
1340.67	0.002521
1350.32	0.002991
1359.96	0.003361
1369.61	0.003661
1379.25	0.003781
1388.9	0.003281
1398.54	0.002361
1408.18	0.001791
1417.83	0.001601
1427.47	0.001801
1437.12	0.001841
1446.76	0.001871
1456.41	0.002281
1466.05	0.002061
1475.7	0.001271
1485.34	0.0007524
1494.99	0.0005752
1504.63	0.0005461
1514.28	0.0005141
1523.92	0.0004037
1533.57	0.0003847
1543.21	0.0004145
1552.86	0.0004058
1562.5	0.0004766
1572.15	0.0005289
1581.79	0.0005163
1591.44	0.0004293
1601.08	0.0004835
1610.73	0.0004062
1620.37	0.0004204
1630.01	0.000415
1639.66	0.0003943
1649.3	0.0004701
1658.95	0.0004967
1668.59	0.0005784
1678.24	0.0006429
1687.88	0.0007979
1697.53	0.0009107
1707.17	0.001281
1716.82	0.001891
1726.46	0.003031
1736.11	0.005031
1745.75	0.007861
1755.4	0.011761
1765.04	0.017621
1774.69	0.024301
1784.33	0.020881
1793.98	0.013151
1803.62	0.008021
1813.27	0.004361
1822.91	0.002301
1832.55	0.001391
1842.2	0.0010075
1851.84	0.0008086
1861.49	0.0006252
1871.13	0.0004968
1880.78	0.000485
1890.42	0.0004803
1900.07	0.0003991
1909.71	0.0004474
1919.36	0.0004283
1929	0.0003939
1938.65	0.0003987
1948.29	0.0004008
1957.94	0.0003759
1967.58	0.0003793
1977.23	0.0003653
1986.87	0.0003706
1996.52	0.0003697
2006.16	0.0003669
2015.81	0.0003683
2025.45	0.0003774
2035.1	0.000333
2044.74	0.0003316
2054.38	0.00031272
2064.03	0.00025318
2073.67	0.0003295
2083.32	0.0003366
2092.96	0.0003479
2102.61	0.000345
2112.25	0.000356
2121.9	0.0003676
2131.54	0.0003377
2141.19	0.00030811
2150.83	0.0003558
2160.48	0.0003685
2170.12	0.00030615
2179.77	0.0003894
2189.41	0.0003652
2199.06	0.0003232
2208.7	0.0003451
2218.35	0.0003663
2227.99	0.0003703
2237.64	0.0003762
2247.28	0.0003401
2256.92	0.0003423
2266.57	0.00031741
2276.21	0.0003403
2285.86	0.0003507
2295.5	0.00031552
2305.15	0.0003414
2314.79	0.00030541
2324.44	0.00029459
2334.08	0.00027796
2343.73	0.00025562
2353.37	0.00031136
2363.02	0.00026822
2372.66	0.0002841
2382.31	0.00024114
2391.95	0.0003591
2401.6	0.0003276
2411.24	0.0003302
2420.89	0.00026861
2430.53	0.0003493
2440.18	0.00027451
2449.82	0.00029589
2459.47	0.00026802
2469.11	0.0002756
2478.75	0.00029443
2488.4	0.0002405
2498.04	0.00026869
2507.69	0.00026735
2517.33	0.00031359
2526.98	0.00027691
2536.62	0.00031584
2546.27	0.00029242
2555.91	0.00031859
2565.56	0.000224401
2575.2	0.00028765
2584.85	0.00024527
2594.49	0.00028138
2604.14	0.0003564
2613.78	0.00026128
2623.43	0.00029239
2633.07	0.00027623
2642.72	0.0003283
2652.36	0.0003289
2662.01	0.00029709
2671.65	0.0003774
2681.29	0.00031913
2690.94	0.0003292
2700.58	0.0003723
2710.23	0.00028848
2719.87	0.0003794
2729.52	0.0003416
2739.16	0.000381
2748.81	0.00031086
2758.45	0.0004489
2768.1	0.0003228
2777.74	0.0003818
2787.39	0.0004808
2797.03	0.0005092
2806.68	0.0005302
2816.32	0.0005312
2825.97	0.0008283
2835.61	0.0010812
2845.26	0.001761
2854.9	0.003371
2864.55	0.005631
2874.19	0.004791
2883.84	0.003281
2893.48	0.002911
2903.12	0.003701
2912.77	0.005681
2922.41	0.009341
2932.06	0.013401
2941.7	0.013491
2951.35	0.009921
2960.99	0.006121
2970.64	0.003641
2980.28	0.002511
2989.93	0.001691
2999.57	0.0010623
3009.22	0.0008856
3018.86	0.0006845
3028.51	0.0004041
3038.15	0.0004737
3047.8	0.0003303
3057.44	0.0003829
3067.09	0.00029332
3076.73	0.0003885
3086.38	0.00030549
3096.02	0.00029992
3105.67	0.0003427
3115.31	0.0002086
3124.95	0.00024591
3134.6	0.000223802
3144.24	0.0001995
3153.89	0.00027494
3163.53	0.00031277
3173.18	0.0003664
3182.82	0.000206
3192.47	0.0002063
3202.11	0.000399
3211.76	0.00026363
3221.4	0.0002118
3231.05	0.0001728
3240.69	0.0001878
3250.34	0.00021534
3259.98	0.0001392
3269.63	0.00023811
3279.27	0.00025599
3288.92	0.0002044
3298.56	0.0002046
3308.21	0.0002432
3317.85	0.00024603
3327.49	0.0001755
3337.14	0.000103
3346.78	0.0003221
3356.43	0.000117
3366.07	0.0001937
3375.72	0.00031609
3385.36	0.00026032
3395.01	0.00032045
3404.65	0.00028825
3414.3	0.0001918
3423.94	0.000338
3433.59	0.000229668
3443.23	0.0003507
3452.88	0.00025944
3462.52	0.000358
3472.17	0.00029871
3481.81	0.00031737
3491.46	0.0004154
3501.1	0.00021339
3510.75	0.0006679
3520.39	0.0004885
3530.04	0.0006551
3539.68	0.0007959
3549.32	0.001231
3558.97	0.002451
3568.61	0.006501
3578.26	0.009571
3587.9	0.002871
3597.55	0.0012177
3607.19	0.0005112
3616.84	0.0005964
3626.48	0.00030103
3636.13	0.0004757
3645.77	0.000229815
3655.42	0.0001444
3665.06	0.00032066
3674.71	0.0002452
3684.35	0.0001634
3694	0.00024327
3703.64	0.000108
3713.29	0.0001956
3722.93	0.0002054
3732.58	0.0001801
3742.22	0.00024956
3751.86	0.0001729
3761.51	0.0001755
3771.15	0.000107
3780.8	0.0001452
3790.44	0.0002103
3800.09	0.0003581
3809.73	0.0002061
3819.38	0.00021348
3829.02	0.00031829
3838.67	0.00025572
3848.31	0.0001277
3857.96	0.000119
3867.6	0.00021332
3877.25	0.0001794
3886.89	8.8e-05
3896.54	0.00025529
3906.18	0.000133
3915.83	0.00031512
3925.47	0.0001645
3935.12	0.0001923
3944.76	9.9e-05
3954.41	0.0001295
3964.05	0.0001267
3973.69	0.00021475
3983.34	0.0001309
3992.98	1.3e-05
