Infrared Spectrum: 2-Isopropylpyridine
Formula: C 8 H 11 N
CAS: 644-98-4
State: gas
Instrument: HP-GC/MS/IRD
Origin: NIST Mass Spectrometry Data Center
1/CM	ABSORBANCE
550	0.0014237
562	0.0008004
574	0.0005244
586	0.0003174
598	0.0003703
610	0.0005635
622	0.0006877
634	0.0004209
646	0.0002576
658	4.14e-05
670	7.82e-05
682	0.0001495
694	0.0002645
706	0.0005382
718	0.0012144
730	0.0036248
742	0.0072335
754	0.0061479
766	0.0045448
778	0.0046667
790	0.0039698
802	0.0018538
814	0.0007383
826	0.0004209
838	0.0002116
850	0.0001978
862	0.0001909
874	0.0002783
886	0.0004186
898	0.0004922
910	0.0004554
922	0.0003887
934	0.0003082
946	0.0002438
958	0.000253
970	0.0003933
982	0.0008257
994	0.0009867
1006	0.0006946
1018	0.0006808
1030	0.0016491
1042	0.0031441
1054	0.0029992
1066	0.0018285
1078	0.0012972
1090	0.0013938
1102	0.0018722
1114	0.0014812
1126	0.0012466
1138	0.0023759
1150	0.0025852
1162	0.0014076
1174	0.00046
1186	0.0002392
1198	0.0003611
1210	0.0007222
1222	0.0007176
1234	0.0004163
1246	0.0004048
1258	0.0004071
1270	0.000644
1282	0.0013869
1294	0.0014651
1306	0.0007958
1318	0.0008349
1330	0.0011063
1342	0.001288
1354	0.0015847
1366	0.0021252
1378	0.0022816
1390	0.0021873
1402	0.0017296
1414	0.0025047
1426	0.0064147
1438	0.0073669
1450	0.0043907
1462	0.0066976
1474	0.0096945
1486	0.0064952
1498	0.0017572
1510	0.0008947
1522	0.0007567
1534	0.0008855
1546	0.0016169
1558	0.0036616
1570	0.0079511
1582	0.0142209
1594	0.0119876
1606	0.0045126
1618	0.0015272
1630	0.0007199
1642	0.0004554
1654	0.0003749
1666	0.0003818
1678	0.0003036
1690	0.0002875
1702	0.000253
1714	0.0002254
1726	0.0002185
1738	0.0002576
1750	0.0003151
1762	0.0002898
1774	0.0001886
1786	0.0001288
1798	0.0001081
1810	0.0001495
1822	0.0002346
1834	0.0002783
1846	0.0003197
1858	0.0003818
1870	0.0002921
1882	0.0001679
1894	0.0002415
1906	0.0003565
1918	0.0003864
1930	0.0003657
1942	0.0003749
1954	0.0003657
1966	0.0003358
1978	0.0001978
1990	7.13e-05
2002	4.14e-05
2014	5.06e-05
2026	4.14e-05
2038	2.99e-05
2050	3.45e-05
2062	0
2074	0
2086	1.84e-05
2098	5.06e-05
2110	0
2122	3.45e-05
2134	0
2146	1.38e-05
2158	9.2e-06
2170	3.22e-05
2182	6.9e-05
2194	9.2e-05
2206	8.97e-05
2218	8.28e-05
2230	4.83e-05
2242	8.28e-05
2254	0.0001127
2266	0.0001035
2278	0.0001219
2290	0.0001403
2302	0.0001656
2314	0.0001081
2326	0.0001265
2338	0.0001081
2350	0.0001035
2362	4.83e-05
2374	0.0001012
2386	6.21e-05
2398	0.0001035
2410	0.0001058
2422	0.0001035
2434	0.0001012
2446	0.0001311
2458	0.0001104
2470	0.0001633
2482	0.0001518
2494	0.0001403
2506	0.0001449
2518	0.0001472
2530	0.0001518
2542	0.0001633
2554	0.0001955
2566	0.000207
2578	0.0002415
2590	0.0002576
2602	0.0002852
2614	0.0002507
2626	0.0002185
2638	0.0002001
2650	0.0002001
2662	0.0001978
2674	0.0002116
2686	0.0002346
2698	0.0002599
2710	0.0002921
2722	0.0003841
2734	0.0003864
2746	0.0003933
2758	0.0004669
2770	0.0004577
2782	0.00046
2794	0.0005198
2806	0.0006233
2818	0.0007268
2830	0.0008556
2842	0.0011615
2854	0.0019228
2866	0.0036754
2878	0.0061548
2890	0.0069621
2902	0.0070541
2914	0.0076659
2926	0.0086687
2938	0.0102258
2950	0.0119347
2962	0.0193476
2974	0.0226251
2986	0.0130456
2998	0.0067183
3010	0.0062744
3022	0.0051014
3034	0.0030613
3046	0.0034017
3058	0.0053498
3070	0.0078246
3082	0.0071392
3094	0.0036363
3106	0.0016491
3118	0.0010051
3130	0.0008855
3142	0.0008556
3154	0.0006808
3166	0.0005704
3178	0.0005635
3190	0.0005428
3202	0.0004232
3214	0.0003726
3226	0.0003151
3238	0.0002622
3250	0.0002277
3262	0.000207
3274	0.0001633
3286	0.000184
3298	0.000161
3310	0.0001518
3322	0.0001334
3334	0.0001104
3346	0.000115
3358	0.0001357
3370	9.66e-05
3382	8.05e-05
3394	0.0001035
3406	0.0001311
3418	0.0001104
3430	0.0001357
3442	7.36e-05
3454	0.0001564
3466	0.000115
3478	0.0001104
3490	0.0001472
3502	0.0001495
3514	0.0001012
3526	0.0001288
3538	0.0001127
3550	0.000138
3562	4.6e-05
3574	0.0001173
3586	8.51e-05
3598	7.13e-05
3610	9.2e-05
3622	0.000161
3634	6.67e-05
3646	8.51e-05
3658	0.0001242
3670	0.0001909
3682	0.0001909
3694	0.0001426
3706	0.0001679
3718	0.0001794
3730	0.0001886
3742	0.0001656
3754	0.0001334
3766	0.0002254
3778	0.0001725
3790	0.0001932
3802	0.0001633
3814	0.0002622
3826	0.0002553
3838	0.0002714
