Infrared Spectrum: Dichlorophenylphosphine
Formula: C 6 H 5 Cl 2 P
CAS: 644-97-3
State: gas
Origin: EPA-IR VAPOR PHASE LIBRARY
1/CM	ABSORBANCE
501.5	0.140842
513.074	0.109192
524.648	0.017422
536.222	0.005452
547.796	0.003012
559.37	0.002182
570.944	0.001642
582.518	0.001262
594.092	0.0010256
605.666	0.00094
617.24	0.001202
628.814	0.001262
640.388	0.001652
651.962	0.003122
663.536	0.006572
675.11	0.013682
686.684	0.025842
698.258	0.024682
709.832	0.011982
721.406	0.009742
732.98	0.016722
744.554	0.021462
756.128	0.010402
767.702	0.004452
779.276	0.001882
790.85	0.001202
802.423	0.0008916
813.997	0.0007789
825.571	0.0009735
837.145	0.0006982
848.719	0.0004885
860.293	0.0005232
871.867	0.0006047
883.441	0.0005234
895.015	0.0005168
906.589	0.0006202
918.163	0.0007119
929.737	0.0006551
941.311	0.000664
952.885	0.0008358
964.459	0.0010586
976.033	0.001622
987.607	0.002402
999.181	0.003682
1010.76	0.001972
1022.33	0.001992
1033.9	0.001452
1045.48	0.001502
1057.05	0.002692
1068.63	0.005202
1080.2	0.014132
1091.77	0.020832
1103.35	0.011742
1114.92	0.006462
1126.49	0.004302
1138.07	0.002152
1149.64	0.001452
1161.22	0.001212
1172.79	0.001332
1184.36	0.002382
1195.94	0.001692
1207.51	0.0007386
1219.09	0.0007535
1230.66	0.0006003
1242.23	0.0006276
1253.81	0.0007652
1265.38	0.0010374
1276.96	0.0011005
1288.53	0.001472
1300.1	0.002172
1311.68	0.002102
1323.25	0.002532
1334.83	0.002332
1346.4	0.001302
1357.97	0.000962
1369.55	0.0010072
1381.12	0.0009157
1392.7	0.0007959
1404.27	0.001272
1415.84	0.002922
1427.42	0.006792
1438.99	0.008942
1450.57	0.004842
1462.14	0.001822
1473.71	0.002042
1485.29	0.002442
1496.86	0.0010338
1508.44	0.0006172
1520.01	0.0006206
1531.58	0.0006129
1543.16	0.0005269
1554.73	0.0005943
1566.31	0.0009391
1577.88	0.001412
1589.45	0.001402
1601.03	0.0009211
1612.6	0.0007188
1624.18	0.0006287
1635.75	0.0006676
1647.32	0.001292
1658.9	0.001702
1670.47	0.0009465
1682.05	0.0006901
1693.62	0.0006166
1705.19	0.0006425
1716.77	0.0006767
1728.34	0.0007747
1739.92	0.0009206
1751.49	0.0010731
1763.06	0.0011022
1774.64	0.001192
1786.21	0.001452
1797.79	0.002322
1809.36	0.001992
1820.93	0.0010346
1832.51	0.000894
1844.08	0.0007073
1855.66	0.0007904
1867.23	0.0010727
1878.8	0.001482
1890.38	0.001752
1901.95	0.001532
1913.53	0.0007997
1925.1	0.0007509
1936.67	0.0010058
1948.25	0.001492
1959.82	0.001752
1971.4	0.001542
1982.97	0.0007797
1994.54	0.0004889
2006.12	0.0004753
2017.69	0.0004354
2029.27	0.0003844
2040.84	0.0003348
2052.41	0.0003818
2063.99	0.0003858
2075.56	0.0003545
2087.14	0.0003922
2098.71	0.0004143
2110.28	0.0004209
2121.86	0.0004148
2133.43	0.0003859
2145.01	0.0003669
2156.58	0.0004269
2168.15	0.0004971
2179.73	0.0005559
2191.3	0.0005095
2202.88	0.000438
2214.45	0.0004249
2226.02	0.0004078
2237.6	0.0004006
2249.17	0.000451
2260.74	0.0004487
2272.32	0.0004978
2283.89	0.0005292
2295.47	0.0004128
2307.04	0.0004679
2318.61	0.0006814
2330.19	0.0006265
2341.76	0.0005387
2353.34	0.0005484
2364.91	0.0004501
2376.48	0.0003873
2388.06	0.0003979
2399.63	0.0003661
2411.21	0.0003263
2422.78	0.0003176
2434.35	0.0003156
2445.93	0.0003198
2457.5	0.000377
2469.08	0.0003197
2480.65	0.0003492
2492.22	0.0003334
2503.8	0.0003604
2515.37	0.0003822
2526.95	0.0003849
2538.52	0.0004065
2550.09	0.0004467
2561.67	0.0005019
2573.24	0.0005637
2584.82	0.000589
2596.39	0.0005269
2607.96	0.0005375
2619.54	0.0004849
2631.11	0.0004231
2642.69	0.0004143
2654.26	0.0004869
2665.83	0.0006413
2677.41	0.0006801
2688.98	0.000509
2700.56	0.000504
2712.13	0.0003517
2723.7	0.0003566
2735.28	0.0003006
2746.85	0.0003192
2758.43	0.0003116
2770	0.0003093
2781.57	0.0003448
2793.15	0.0003334
2804.72	0.000317
2816.3	0.0003896
2827.87	0.0004107
2839.44	0.0004941
2851.02	0.0004071
2862.59	0.0005029
2874.17	0.0004501
2885.74	0.0004192
2897.31	0.0004243
2908.89	0.0005403
2920.46	0.0004872
2932.04	0.0004616
2943.61	0.0005713
2955.18	0.0004876
2966.76	0.0005434
2978.33	0.0007885
2989.91	0.0011252
3001.48	0.001962
3013.05	0.003182
3024.63	0.003332
3036.2	0.002752
3047.78	0.004022
3059.35	0.011472
3070.92	0.018562
3082.5	0.013432
3094.07	0.007972
3105.65	0.003012
3117.22	0.001212
3128.79	0.0009367
3140.37	0.001131
3151.94	0.0009872
3163.52	0.000511
3175.09	0.0003283
3186.66	0.0003294
3198.24	0.00032
3209.81	0.0003106
3221.39	0.00021655
3232.96	0.00022451
3244.53	0.00016498
3256.11	0.0002528
3267.68	0.0002583
3279.26	0.0002454
3290.83	0.00019767
3302.4	0.00019866
3313.98	0.0002578
3325.55	0.0002443
3337.13	0.00020069
3348.7	0.00016738
3360.27	0.00018723
3371.85	0.0001706
3383.42	7.49e-05
3395	0.00016212
3406.57	8.25e-05
3418.14	0.0001023
3429.72	0.000144251
3441.29	0.000145934
3452.86	0.0001209
3464.44	0.00019692
3476.01	0.000101
3487.59	0.000118
3499.16	0.00019755
3510.73	0.0001537
3522.31	9.91e-05
3533.88	8.93e-05
3545.46	9.6e-05
3557.03	9.21e-05
3568.6	0.0001122
3580.18	0.00018942
3591.75	0.0001201
3603.33	0.00014207
3614.9	0.0001164
3626.47	0.00015939
3638.05	0.00017885
3649.62	0.00011
3661.2	0.00014052
3672.77	0.0001025
3684.34	0.0002454
3695.92	0.0003121
3707.49	0.00021939
3719.07	0.00017795
3730.64	5.25e-05
3742.21	0.0001242
3753.79	0.0002849
3765.36	0.00021086
3776.94	0.00015646
3788.51	0.00013876
3800.08	0.000142765
3811.66	6.6e-05
3823.23	2.6e-05
3834.81	0.000145478
3846.38	6.25e-05
3857.95	0.000113
3869.53	2.7e-05
3881.1	0.0001033
3892.68	9.43e-05
3904.25	0.0001035
3915.82	0.00017353
3927.4	8.37e-05
3938.97	0
3950.55	9.82e-05
3962.12	7.79e-05
3973.69	2.1e-05
3985.27	0.0001243
3996.84	0.00018319
