Infrared Spectrum: o-Tolylacetic acid
Formula: C 9 H 10 O 2
CAS: 644-36-0
State: gas
Origin: EPA-IR VAPOR PHASE LIBRARY
1/CM	ABSORBANCE
549.8	0.013897
559.445	0.010077
569.09	0.009027
578.734	0.012127
588.379	0.026987
598.024	0.048297
607.669	0.041947
617.313	0.026447
626.958	0.020477
636.603	0.016927
646.248	0.013617
655.893	0.010807
665.537	0.009197
675.182	0.009247
684.827	0.010257
694.472	0.010457
704.116	0.009967
713.761	0.010867
723.406	0.014887
733.051	0.027297
742.695	0.035787
752.34	0.017437
761.985	0.005917
771.63	0.003577
781.275	0.003057
790.919	0.002807
800.564	0.002617
810.209	0.002427
819.854	0.002307
829.498	0.002827
839.143	0.003467
848.788	0.003537
858.433	0.004037
868.078	0.004127
877.722	0.003837
887.367	0.003637
897.012	0.003387
906.657	0.003097
916.301	0.003207
925.946	0.003597
935.591	0.003747
945.236	0.003457
954.88	0.002847
964.525	0.002387
974.17	0.002167
983.815	0.002177
993.46	0.002297
1003.1	0.002367
1012.75	0.002687
1022.39	0.003457
1032.04	0.004177
1041.68	0.005587
1051.33	0.007757
1060.97	0.010697
1070.62	0.016397
1080.26	0.026557
1089.91	0.039377
1099.55	0.060997
1109.2	0.087187
1118.84	0.086067
1128.49	0.063317
1138.13	0.048597
1147.78	0.033177
1157.42	0.022897
1167.07	0.017667
1176.71	0.015877
1186.36	0.015247
1196	0.015937
1205.64	0.017087
1215.29	0.016017
1224.93	0.013897
1234.58	0.011517
1244.22	0.009497
1253.87	0.008577
1263.51	0.008527
1273.16	0.009007
1282.8	0.010537
1292.45	0.012067
1302.09	0.011807
1311.74	0.010207
1321.38	0.009437
1331.03	0.010877
1340.67	0.014737
1350.32	0.019117
1359.96	0.019617
1369.61	0.015177
1379.25	0.010597
1388.9	0.008217
1398.54	0.006437
1408.18	0.005987
1417.83	0.006857
1427.47	0.007857
1437.12	0.008747
1446.76	0.009527
1456.41	0.010217
1466.05	0.010007
1475.7	0.009497
1485.34	0.010527
1494.99	0.012707
1504.63	0.009787
1514.28	0.004607
1523.92	0.002847
1533.57	0.001937
1543.21	0.001737
1552.86	0.001617
1562.5	0.001667
1572.15	0.002027
1581.79	0.002717
1591.44	0.003407
1601.08	0.003517
1610.73	0.002937
1620.37	0.002027
1630.01	0.001617
1639.66	0.001457
1649.3	0.001457
1658.95	0.001617
1668.59	0.002157
1678.24	0.002857
1687.88	0.003417
1697.53	0.004307
1707.17	0.005937
1716.82	0.008437
1726.46	0.012357
1736.11	0.019447
1745.75	0.032037
1755.4	0.052697
1765.04	0.082427
1774.69	0.109227
1784.33	0.108247
1793.98	0.074567
1803.62	0.043437
1813.27	0.022357
1822.91	0.011987
1832.55	0.007007
1842.2	0.004457
1851.84	0.003057
1861.49	0.002387
1871.13	0.002237
1880.78	0.002137
1890.42	0.002017
1900.07	0.002237
1909.71	0.002327
1919.36	0.001867
1929	0.001737
1938.65	0.002097
1948.29	0.001907
1957.94	0.0013351
1967.58	0.0012674
1977.23	0.0011821
1986.87	0.0011856
1996.52	0.0010475
2006.16	0.0009971
2015.81	0.0008659
2025.45	0.0007814
2035.1	0.0007615
2044.74	0.0007009
2054.38	0.0006494
2064.03	0.0006383
2073.67	0.0005932
2083.32	0.0005375
2092.96	0.0005737
2102.61	0.0005058
2112.25	0.0004868
2121.9	0.00046565
2131.54	0.0005238
2141.19	0.0006433
2150.83	0.0006211
2160.48	0.0006934
2170.12	0.0006872
2179.77	0.0006759
2189.41	0.0007574
2199.06	0.0008331
2208.7	0.0009119
2218.35	0.0009731
2227.99	0.0008779
2237.64	0.0007624
2247.28	0.0007296
2256.92	0.0007186
2266.57	0.000696
2276.21	0.0007017
2285.86	0.0006237
2295.5	0.0006605
2305.15	0.0006643
2314.79	0.0007512
2324.44	0.000829
2334.08	0.0008181
2343.73	0.0007228
2353.37	0.000703
2363.02	0.0007339
2372.66	0.000699
2382.31	0.0006423
2391.95	0.0006289
2401.6	0.0006539
2411.24	0.0006305
2420.89	0.0007006
2430.53	0.0006894
2440.18	0.0007519
2449.82	0.000718
2459.47	0.000746
2469.11	0.0006705
2478.75	0.0006066
2488.4	0.0005536
2498.04	0.0005189
2507.69	0.0004696
2517.33	0.0004763
2526.98	0.0004782
2536.62	0.00045088
2546.27	0.000493
2555.91	0.0004946
2565.56	0.00044499
2575.2	0.0005234
2584.85	0.0005059
2594.49	0.000548
2604.14	0.0005037
2613.78	0.00041837
2623.43	0.0004797
2633.07	0.00045867
2642.72	0.0004742
2652.36	0.000468
2662.01	0.00040841
2671.65	0.0005358
2681.29	0.0005339
2690.94	0.00045526
2700.58	0.0005261
2710.23	0.0005767
2719.87	0.000644
2729.52	0.0007378
2739.16	0.0008088
2748.81	0.0008518
2758.45	0.000789
2768.1	0.0006398
2777.74	0.0006205
2787.39	0.0005915
2797.03	0.0006219
2806.68	0.0007106
2816.32	0.0009468
2825.97	0.0011979
2835.61	0.001597
2845.26	0.002057
2854.9	0.002867
2864.55	0.004167
2874.19	0.005437
2883.84	0.006227
2893.48	0.006137
2903.12	0.006067
2912.77	0.006977
2922.41	0.009687
2932.06	0.012827
2941.7	0.013647
2951.35	0.012127
2960.99	0.010467
2970.64	0.009787
2980.28	0.009227
2989.93	0.008147
2999.57	0.006847
3009.22	0.008127
3018.86	0.013447
3028.51	0.016687
3038.15	0.013687
3047.8	0.010717
3057.44	0.012597
3067.09	0.016447
3076.73	0.016277
3086.38	0.010537
3096.02	0.005547
3105.67	0.003717
3115.31	0.002747
3124.95	0.001707
3134.6	0.0012165
3144.24	0.000987
3153.89	0.0008726
3163.53	0.000775
3173.18	0.0005332
3182.82	0.00046286
3192.47	0.00039819
3202.11	0.00039271
3211.76	0.0003098
3221.4	0.0003196
3231.05	0.000236
3240.69	0.0003056
3250.34	0.000263
3259.98	0.000191
3269.63	0.000223
3279.27	0.000216
3288.92	0.000305
3298.56	0.0002905
3308.21	0.000209
3317.85	0.00027
3327.49	0.000108
3337.14	0.000233
3346.78	0.000117
3356.43	0.0002889
3366.07	0.000201
3375.72	0.000107
3385.36	0.000131
3395.01	0.000228
3404.65	0.0002732
3414.3	0.000233
3423.94	0.000248
3433.59	0.0003156
3443.23	0.0003353
3452.88	0.0003028
3462.52	0.0003045
3472.17	0.0006037
3481.81	0.0005956
3491.46	0.0007914
3501.1	0.0010022
3510.75	0.001248
3520.39	0.001697
3530.04	0.002177
3539.68	0.002927
3549.32	0.005457
3558.97	0.013727
3568.61	0.041857
3578.26	0.045437
3587.9	0.015737
3597.55	0.004297
3607.19	0.002047
3616.84	0.001397
3626.48	0.0011067
3636.13	0.000686
3645.77	0.0006559
3655.42	0.0005325
3665.06	0.00039761
3674.71	0.00042463
3684.35	0.00045733
3694	0.0003077
3703.64	0.0002
3713.29	0.0003096
3722.93	0.000264
3732.58	0.000221
3742.22	0.0002852
3751.86	0.0002799
3761.51	0.000129
3771.15	4.8e-05
3780.8	0.00025
3790.44	0.000253
3800.09	0.00041014
3809.73	0.0003118
3819.38	0.000201
3829.02	0.000156
3838.67	0.000252
3848.31	0.000263
3857.96	0.0003542
3867.6	0.000367494
3877.25	0.0003462
3886.89	0.000264
3896.54	0.0003456
3906.18	0.00038128
3915.83	0.0003335
3925.47	0.0003205
3935.12	0.000336
3944.76	0.000228
3954.41	0.000221
3964.05	0.000255
3973.69	0.000242
3983.34	0.000161
3992.98	0.000166
