Infrared Spectrum: N',N''-ETHYLENE BIS BENZAMIDE
Formula: C16 H16 N2 O2
CAS: 644-33-7
State: SOLID (MULL)
Melting point: 25-25.2 C
Class: COBLENTZ
Instrument: Not specified, most likely a prism, grating, or hybrid spectrometer.
Sampling: TRANSMISSION
Resolution: 4
Origin: WYANDOTTE CHEMICALS CORP., WYANDOTTE, MICHIGAN, USA
MICROMETERS	TRANSMITTANCE
2.009	0.341
2.04786	0.351
2.08672	0.353
2.12558	0.367
2.16444	0.374
2.2033	0.372
2.24216	0.377
2.28102	0.387
2.31988	0.398
2.35874	0.403
2.3976	0.411
2.43646	0.425
2.47533	0.44
2.51419	0.451
2.55305	0.467
2.59191	0.48
2.63077	0.496
2.66963	0.503
2.70849	0.509
2.74735	0.524
2.78621	0.548
2.82507	0.562
2.86393	0.577
2.90279	0.593
2.94165	0.611
2.98051	0.59
3.01937	0.241
3.05823	0.103
3.09709	0.169
3.13595	0.23
3.17481	0.277
3.21367	0.309
3.25253	0.219
3.29139	0.24
3.33025	0.158
3.36911	0.032
3.40798	0.032
3.44684	0.037
3.4857	0.045
3.52456	0.14
3.56342	0.498
3.60228	0.533
3.64114	0.585
3.68	0.577
3.71886	0.587
3.75772	0.596
3.79658	0.611
3.83544	0.627
3.8743	0.64
3.91316	0.65
3.95202	0.667
3.99088	0.677
4.02974	0.688
4.0686	0.69
4.10746	0.695
4.14632	0.703
4.18518	0.712
4.22404	0.714
4.2629	0.696
4.30177	0.719
4.34063	0.74
4.37949	0.762
4.41835	0.766
4.45721	0.762
4.49607	0.775
4.53493	0.79
4.57379	0.8
4.61265	0.801
4.65151	0.803
4.69037	0.809
4.72923	0.827
4.76809	0.835
4.80695	0.851
4.84581	0.853
4.88467	0.859
4.92353	0.862
4.96239	0.867
5.00125	0.883
5.04011	0.883
5.07897	0.877
5.11783	0.858
5.15669	0.867
5.19555	0.911
5.23442	0.883
5.27328	0.853
5.31214	0.916
5.351	0.932
5.38986	0.95
5.42872	0.953
5.46758	0.951
5.50644	0.925
5.5453	0.958
5.58416	0.958
5.62302	0.924
5.66188	0.958
5.70074	0.959
5.7396	0.935
5.77846	0.938
5.81732	0.927
5.85618	0.877
5.89504	0.825
5.9339	0.714
5.97276	0.603
6.01162	0.359
6.05048	0.229
6.08934	0.103
6.12821	0.117
6.16707	0.18
6.20593	0.206
6.24479	0.522
6.28365	0.262
6.32251	0.112
6.36137	0.038
6.40023	0.038
6.43909	0.043
6.47795	0.133
6.51681	0.214
6.55567	0.333
6.59453	0.388
6.63339	0.303
6.67225	0.17
6.71111	0.3
6.74997	0.246
6.78883	0.14
6.82769	0.145
6.86655	0.182
6.90541	0.151
6.94427	0.269
6.98313	0.419
7.02199	0.462
7.06086	0.511
7.09972	0.522
7.13858	0.503
7.17744	0.453
7.2163	0.309
7.25516	0.235
7.29402	0.329
7.33288	0.369
7.37174	0.338
7.4106	0.235
7.44946	0.201
7.48832	0.08
7.52718	0.19
7.56604	0.187
7.6049	0.409
7.64376	0.383
7.68262	0.162
7.72148	0.069
7.76034	0.161
7.7992	0.311
7.83806	0.429
7.87692	0.501
7.91578	0.551
7.95465	0.598
7.99351	0.641
8.03237	0.583
8.07123	0.198
8.11009	0.183
8.14895	0.4
8.18781	0.496
8.22667	0.559
8.26553	0.59
8.30439	0.614
8.34325	0.606
8.38211	0.448
8.42097	0.55
8.45983	0.643
8.49869	0.662
8.53755	0.674
8.57641	0.669
8.61527	0.564
8.65413	0.6
8.69299	0.683
8.73185	0.732
8.77071	0.751
8.80957	0.762
8.84844	0.772
8.8873	0.78
8.92616	0.78
8.96502	0.758
9.00388	0.751
9.04274	0.766
9.0816	0.777
9.12046	0.751
9.15932	0.68
9.19818	0.629
9.23704	0.629
9.2759	0.629
9.31476	0.669
9.35362	0.73
9.39248	0.77
9.43134	0.791
9.4702	0.8
9.50906	0.8
9.54792	0.798
9.58678	0.751
9.62564	0.648
9.6645	0.675
9.70336	0.767
9.74222	0.777
9.78109	0.714
9.81995	0.756
9.85881	0.8
9.89767	0.809
9.93653	0.809
9.97539	0.77
10.0142	0.793
10.0531	0.82
10.092	0.83
10.1308	0.833
10.1697	0.809
10.2085	0.772
10.2474	0.701
10.2863	0.764
10.3251	0.812
10.364	0.824
10.4029	0.829
10.4417	0.83
10.4806	0.84
10.5194	0.841
10.5583	0.853
10.5972	0.853
10.636	0.843
10.6749	0.801
10.7137	0.632
10.7526	0.361
10.7915	0.611
10.8303	0.758
10.8692	0.803
10.908	0.829
10.9469	0.846
10.9858	0.861
11.0246	0.869
11.0635	0.87
11.1023	0.864
11.1412	0.833
11.1801	0.766
11.2189	0.63
11.2578	0.372
11.2966	0.229
11.3355	0.443
11.3744	0.569
11.4132	0.593
11.4521	0.679
11.4909	0.77
11.5298	0.804
11.5687	0.827
11.6075	0.837
11.6464	0.837
11.6852	0.832
11.7241	0.829
11.763	0.825
11.8018	0.785
11.8407	0.693
11.8795	0.748
11.9184	0.819
11.9573	0.85
11.9961	0.864
12.035	0.87
12.0739	0.877
12.1127	0.88
12.1516	0.885
12.1904	0.89
12.2293	0.89
12.2682	0.891
12.307	0.888
12.3459	0.879
12.3847	0.853
12.4236	0.735
12.4625	0.583
12.5013	0.688
12.5402	0.819
12.579	0.854
12.6179	0.866
12.6568	0.882
12.6956	0.888
12.7345	0.891
12.7733	0.891
12.8122	0.891
12.8511	0.887
12.8899	0.883
12.9288	0.882
12.9676	0.874
13.0065	0.87
13.0454	0.872
13.0842	0.875
13.1231	0.875
13.1619	0.872
13.2008	0.866
13.2397	0.859
13.2785	0.851
13.3174	0.841
13.3562	0.832
13.3951	0.837
13.434	0.845
13.4728	0.84
13.5117	0.837
13.5505	0.83
13.5894	0.814
13.6283	0.798
13.6671	0.774
13.706	0.741
13.7448	0.698
13.7837	0.638
13.8226	0.575
13.8614	0.538
13.9003	0.514
13.9392	0.491
13.978	0.454
14.0169	0.401
14.0557	0.362
14.0946	0.329
14.1335	0.285
14.1723	0.222
14.2112	0.162
14.25	0.117
14.2889	0.091
14.3278	0.085
14.3666	0.087
14.4055	0.09
14.4443	0.116
14.4832	0.172
14.5221	0.274
14.5609	0.393
14.5998	0.485
14.6386	0.516
14.6775	0.519
14.7164	0.482
14.7552	0.433
14.7941	0.382
14.8329	0.338
14.8718	0.308
14.9107	0.296
14.9495	0.291
14.9884	0.303
15.0272	0.319
15.0661	0.345
15.105	0.369
15.1438	0.387
15.1827	0.404
15.2215	0.441
15.2604	0.469
15.2993	0.5
15.3381	0.525
15.377	0.538
15.4158	0.556
15.4547	0.564
15.4936	0.57
15.5324	0.58
15.5713	0.585
15.6101	0.588
15.649	0.59
15.6879	0.587
15.7267	0.585
15.7656	0.579
15.8045	0.577
15.8433	0.567
15.8822	0.562
15.921	0.556
15.9599	0.548
