Infrared Spectrum: 3,4,5-Trimethoxytoluene
Formula: C 10 H 14 O 3
CAS: 6443-69-2
State: gas
Origin: EPA-IR VAPOR PHASE LIBRARY
1/CM	ABSORBANCE
549.8	0.003306
559.445	0.004196
569.09	0.004256
578.734	0.005166
588.379	0.008186
598.024	0.007046
607.669	0.003046
617.313	0.001806
626.958	0.001606
636.603	0.001436
646.248	0.001636
655.893	0.001866
665.537	0.001546
675.182	0.0011538
684.827	0.0010903
694.472	0.0007415
704.116	0.0009329
713.761	0.0008066
723.406	0.0011775
733.051	0.002176
742.695	0.004246
752.34	0.004506
761.985	0.005276
771.63	0.011196
781.275	0.012216
790.919	0.005916
800.564	0.005336
810.209	0.010926
819.854	0.016776
829.498	0.014696
839.143	0.011156
848.788	0.008156
858.433	0.005166
868.078	0.003266
877.722	0.002676
887.367	0.002836
897.012	0.003186
906.657	0.004466
916.301	0.007886
925.946	0.010756
935.591	0.010926
945.236	0.011806
954.88	0.013406
964.525	0.012616
974.17	0.011226
983.815	0.012426
993.46	0.018416
1003.1	0.033136
1012.75	0.056876
1022.39	0.059096
1032.04	0.040016
1041.68	0.041486
1051.33	0.034936
1060.97	0.027066
1070.62	0.031626
1080.26	0.046096
1089.91	0.072926
1099.55	0.105296
1109.2	0.133976
1118.84	0.145896
1128.49	0.132616
1138.13	0.106616
1147.78	0.067656
1157.42	0.035126
1167.07	0.024696
1176.71	0.028866
1186.36	0.032926
1196	0.029856
1205.64	0.034456
1215.29	0.065166
1224.93	0.114726
1234.58	0.126136
1244.22	0.094176
1253.87	0.058066
1263.51	0.032856
1273.16	0.022386
1282.8	0.016916
1292.45	0.015186
1302.09	0.018636
1311.74	0.033196
1321.38	0.068876
1331.03	0.089696
1340.67	0.054886
1350.32	0.021916
1359.96	0.013016
1369.61	0.011106
1379.25	0.012236
1388.9	0.018556
1398.54	0.036666
1408.18	0.064916
1417.83	0.074836
1427.47	0.061736
1437.12	0.047296
1446.76	0.042296
1456.41	0.053616
1466.05	0.060306
1475.7	0.063366
1485.34	0.082706
1494.99	0.115136
1504.63	0.101246
1514.28	0.055736
1523.92	0.032296
1533.57	0.025596
1543.21	0.024916
1552.86	0.027746
1562.5	0.038126
1572.15	0.061026
1581.79	0.080946
1591.44	0.066476
1601.08	0.043616
1610.73	0.029896
1620.37	0.015806
1630.01	0.009326
1639.66	0.007266
1649.3	0.006386
1658.95	0.005666
1668.59	0.005256
1678.24	0.004716
1687.88	0.004426
1697.53	0.004306
1707.17	0.004116
1716.82	0.003666
1726.46	0.003126
1736.11	0.002706
1745.75	0.002396
1755.4	0.002236
1765.04	0.002076
1774.69	0.002036
1784.33	0.002086
1793.98	0.002046
1803.62	0.001806
1813.27	0.001666
1822.91	0.001556
1832.55	0.001496
1842.2	0.001486
1851.84	0.001486
1861.49	0.001436
1871.13	0.001556
1880.78	0.001726
1890.42	0.001586
1900.07	0.001426
1909.71	0.001416
1919.36	0.001446
1929	0.001556
1938.65	0.001776
1948.29	0.002406
1957.94	0.003256
1967.58	0.003806
1977.23	0.003606
1986.87	0.003356
1996.52	0.003446
2006.16	0.003796
2015.81	0.004296
2025.45	0.004336
2035.1	0.003496
2044.74	0.002756
2054.38	0.002646
2064.03	0.002926
2073.67	0.002756
2083.32	0.002156
2092.96	0.001926
2102.61	0.001776
2112.25	0.001676
2121.9	0.001616
2131.54	0.001706
2141.19	0.002006
2150.83	0.002256
2160.48	0.002316
2170.12	0.002246
2179.77	0.002056
2189.41	0.001906
2199.06	0.001616
2208.7	0.001446
2218.35	0.001496
2227.99	0.001846
2237.64	0.002226
2247.28	0.002726
2256.92	0.002476
2266.57	0.001926
2276.21	0.001456
2285.86	0.0011559
2295.5	0.000902
2305.15	0.0007606
2314.79	0.0007001
2324.44	0.0007357
2334.08	0.0008926
2343.73	0.0009078
2353.37	0.0010727
2363.02	0.0011599
2372.66	0.0012989
2382.31	0.0013109
2391.95	0.0012288
2401.6	0.0013239
2411.24	0.001466
2420.89	0.001716
2430.53	0.001676
2440.18	0.001536
2449.82	0.001786
2459.47	0.001736
2469.11	0.001746
2478.75	0.001646
2488.4	0.001436
2498.04	0.0013202
2507.69	0.0013133
2517.33	0.001546
2526.98	0.001406
2536.62	0.001606
2546.27	0.001746
2555.91	0.001906
2565.56	0.001866
2575.2	0.001696
2584.85	0.001666
2594.49	0.001756
2604.14	0.001726
2613.78	0.001556
2623.43	0.001606
2633.07	0.001696
2642.72	0.001806
2652.36	0.001766
2662.01	0.001616
2671.65	0.001476
2681.29	0.0012697
2690.94	0.001476
2700.58	0.001586
2710.23	0.001796
2719.87	0.002056
2729.52	0.002586
2739.16	0.003176
2748.81	0.003276
2758.45	0.002966
2768.1	0.003016
2777.74	0.003516
2787.39	0.004396
2797.03	0.005796
2806.68	0.008326
2816.32	0.013296
2825.97	0.024976
2835.61	0.043096
2845.26	0.044306
2854.9	0.033656
2864.55	0.032406
2874.19	0.035336
2883.84	0.035146
2893.48	0.036256
2903.12	0.039236
2912.77	0.046296
2922.41	0.060336
2932.06	0.081486
2941.7	0.101036
2951.35	0.089416
2960.99	0.063406
2970.64	0.048636
2980.28	0.043746
2989.93	0.050546
2999.57	0.060356
3009.22	0.049556
3018.86	0.029526
3028.51	0.021636
3038.15	0.019026
3047.8	0.018816
3057.44	0.018836
3067.09	0.016536
3076.73	0.012566
3086.38	0.009246
3096.02	0.006766
3105.67	0.005226
3115.31	0.004266
3124.95	0.003326
3134.6	0.002636
3144.24	0.002316
3153.89	0.001896
3163.53	0.001396
3173.18	0.0012433
3182.82	0.0011777
3192.47	0.0009544
3202.11	0.0009241
3211.76	0.000821
3221.4	0.0007311
3231.05	0.000649
3240.69	0.0006259
3250.34	0.0004846
3259.98	0.0004864
3269.63	0.000517
3279.27	0.0005079
3288.92	0.00045858
3298.56	0.00040358
3308.21	0.00046646
3317.85	0.00037201
3327.49	0.0003402
3337.14	0.00044922
3346.78	0.00042331
3356.43	0.00038845
3366.07	0.0005126
3375.72	0.00038782
3385.36	0.0003354
3395.01	0.0004825
3404.65	0.00042095
3414.3	0.000204
3423.94	0.00045012
3433.59	0.0003465
3443.23	0.000224
3452.88	0.000376722
3462.52	0.0002782
3472.17	0.000142
3481.81	0.0003566
3491.46	0.0003417
3501.1	0.000127
3510.75	0.0003886
3520.39	0.0004868
3530.04	0.000382836
3539.68	0.0003178
3549.32	0.0002954
3558.97	0.00041507
3568.61	9.4e-05
3578.26	0.000185
3587.9	0.000126
3597.55	6.4e-05
3607.19	0.000172
3616.84	0.000134
3626.48	0.00044851
3636.13	0.000159
3645.77	0.0003508
3655.42	0.000252
3665.06	0.000141
3674.71	0.000275
3684.35	0.000137
3694	7.1e-05
3703.64	0.0002967
3713.29	0.00043451
3722.93	0.0003612
3732.58	0.0003275
3742.22	0.0002898
3751.86	0.0003275
3761.51	0.000226
3771.15	0.000203
3780.8	0.0003547
3790.44	0.0002862
3800.09	0.000383582
3809.73	0.0005805
3819.38	0.0003643
3829.02	0.0003246
3838.67	0.0006871
3848.31	0.0005095
3857.96	0.000545
3867.6	0.0005382
3877.25	0.0006579
3886.89	0.0007901
3896.54	0.0007182
3906.18	0.0007055
3915.83	0.0007583
3925.47	0.0006312
3935.12	0.0007518
3944.76	0.0008784
3954.41	0.0007202
3964.05	0.0010213
3973.69	0.0009941
3983.34	0.0008873
3992.98	0.0009526
