Infrared Spectrum: 6,7-Benzmorphan, 5,7-dimethyl-2'-hydroxy-, hydrochloride
Formula: C14 H20 Cl N O
CAS: 64470-96-8
State: SOLID (OIL MULL)
Class: COBLENTZ III
Instrument: PERKIN-ELMER 21 (GRATING)
Instrument parameters: NaCl PRISM
Sampling: TRANSMISSION
Resolution: 2
Origin: SMITH, KLINE & FRENCH LABS.
1/CM	TRANSMITTANCE
654	0.4253
663	0.4704
672	0.6411
681	0.7089
690	0.7415
699	0.751
708	0.7877
717	0.7695
726	0.5995
735	0.7865
744	0.8225
753	0.8357
762	0.8429
771	0.806
780	0.8358
789	0.8022
798	0.848
807	0.7963
816	0.6721
825	0.7465
834	0.6634
843	0.826
852	0.8433
861	0.8248
870	0.7603
879	0.3914
888	0.7736
897	0.807
906	0.7827
915	0.7669
924	0.654
933	0.5173
942	0.7546
951	0.7082
960	0.7159
969	0.7858
978	0.7856
987	0.7598
996	0.6526
1005	0.7762
1014	0.7496
1023	0.7701
1032	0.7674
1041	0.7258
1050	0.6087
1059	0.7291
1068	0.6939
1077	0.7196
1086	0.6981
1095	0.6997
1104	0.6819
1113	0.6452
1122	0.5626
1131	0.4299
1140	0.5503
1149	0.5934
1158	0.6126
1167	0.4868
1176	0.6135
1185	0.5871
1194	0.5233
1203	0.3931
1212	0.3715
1221	0.1668
1230	0.2298
1239	0.3501
1248	0.5544
1257	0.3334
1266	0.6971
1275	0.581
1284	0.6364
1293	0.5261
1302	0.4807
1311	0.586
1320	0.7044
1329	0.6521
1338	0.5814
1347	0.5379
1356	0.3304
1365	0.4413
1374	0.238
1383	0.3726
1392	0.6
1401	0.6067
1410	0.5554
1419	0.4836
1428	0.2725
1437	0.2059
1446	0.0953
1455	0.1009
1464	0.1284
1473	0.4381
1482	0.5801
1491	0.6031
1500	0.4645
1509	0.4772
1518	0.7566
1527	0.7897
1536	0.7872
1545	0.7587
1554	0.715
1563	0.7029
1572	0.6555
1581	0.5542
1590	0.4141
1599	0.242
1608	0.3466
1617	0.4379
1626	0.7371
1635	0.7962
1644	0.834
1653	0.8562
1662	0.85
1671	0.8521
1680	0.8425
1689	0.8371
1698	0.8354
1707	0.8258
1716	0.8237
1725	0.8197
1734	0.7995
1743	0.7881
1752	0.7798
1761	0.7753
1770	0.7769
1779	0.7805
1788	0.7775
1797	0.7727
1806	0.7681
1815	0.7631
1824	0.7536
1833	0.7462
1842	0.7413
1851	0.7518
1860	0.7504
1869	0.7431
1878	0.7383
1887	0.7362
1896	0.7345
1905	0.7339
1914	0.7334
1923	0.7333
1932	0.7338
1941	0.7302
1950	0.7165
1959	0.7069
1968	0.7011
1977	0.7019
1986	0.7059
1995	0.7025
2004	0.6959
2013	0.6807
2022	0.6718
2031	0.6707
2040	0.6704
2049	0.6681
2058	0.6561
2067	0.6676
2076	0.6707
2085	0.6655
2094	0.6601
2103	0.6595
2112	0.658
2121	0.6506
2130	0.6524
2139	0.6521
2148	0.6406
2157	0.6247
2166	0.6116
2175	0.6111
2184	0.6247
2193	0.639
2202	0.6312
2211	0.622
2220	0.618
2229	0.6166
2238	0.6143
2247	0.606
2256	0.597
2265	0.5903
2274	0.585
2283	0.5769
2292	0.5665
2301	0.5653
2310	0.5621
2319	0.5512
2328	0.5485
2337	0.5441
2346	0.5284
2355	0.5269
2364	0.5264
2373	0.5262
2382	0.5229
2391	0.5104
2400	0.4943
2409	0.4752
2418	0.4568
2427	0.4383
2436	0.4179
2445	0.3952
2454	0.3702
2463	0.3478
2472	0.2728
2481	0.272
2490	0.4062
2499	0.4566
2508	0.4546
2517	0.4488
2526	0.4468
2535	0.4327
2544	0.4183
2553	0.4058
2562	0.3942
2571	0.3832
2580	0.3726
2589	0.3589
2598	0.3393
2607	0.32
2616	0.2641
2625	0.243
2634	0.2437
2643	0.2456
2652	0.2439
2661	0.2414
2670	0.2374
2679	0.2257
2688	0.2099
2697	0.2068
2706	0.2126
2715	0.2159
2724	0.2146
2733	0.1988
2742	0.1657
2751	0.1439
2760	0.1285
2769	0.118
2778	0.1144
2787	0.1119
2796	0.1108
2805	0.1099
2814	0.1011
2823	0.0827
2832	0.0694
2841	0.0601
2850	0.0565
2859	0.0566
2868	0.0568
2877	0.0568
2886	0.0567
2895	0.0567
2904	0.0563
2913	0.0548
2922	0.0517
2931	0.0524
2940	0.0584
2949	0.0708
2958	0.0795
2967	0.1213
2976	0.1868
2985	0.2519
2994	0.3166
3003	0.381
3012	0.4449
3021	0.5072
3030	0.5235
3039	0.527
3048	0.5254
3057	0.5208
3066	0.5114
3075	0.5017
3084	0.4925
3093	0.4837
3102	0.4743
3111	0.4639
3120	0.4499
3129	0.4327
3138	0.4161
3147	0.399
3156	0.3782
3165	0.3591
3174	0.3458
3183	0.3377
3192	0.3115
3201	0.281
3210	0.2635
3219	0.2494
3228	0.2366
3237	0.2168
3246	0.2086
3255	0.2094
3264	0.212
3273	0.2341
3282	0.2835
3291	0.3327
3300	0.3817
3309	0.4303
3318	0.4787
3327	0.5269
3336	0.5773
3345	0.6007
3354	0.6054
3363	0.6047
3372	0.6038
3381	0.6036
3390	0.6037
3399	0.6042
3408	0.6058
3417	0.6073
3426	0.6092
3435	0.6112
3444	0.613
3453	0.6138
3462	0.6147
3471	0.6134
3480	0.6116
3489	0.6096
3498	0.6064
3507	0.6022
3516	0.5981
3525	0.5948
3534	0.5915
3543	0.5886
3552	0.5858
3561	0.5831
3570	0.5804
3579	0.5776
3588	0.5747
3597	0.5719
3606	0.569
3615	0.5662
3624	0.5633
3633	0.5605
3642	0.5576
3651	0.5542
3660	0.5507
3669	0.5471
3678	0.5431
3687	0.5377
3696	0.5324
3705	0.5292
3714	0.5277
3723	0.527
3732	0.5263
3741	0.5254
3750	0.524
3759	0.5226
3768	0.5198
3777	0.517
3786	0.5141
3795	0.5108
3804	0.5075
3813	0.5042
3822	0.5008
3831	0.4971
3840	0.4934
3849	0.4896
3858	0.4867
3867	0.4844
3876	0.4822
3885	0.48
3894	0.4783
3903	0.4772
3912	0.4762
3921	0.4751
3930	0.4733
3939	0.47
3948	0.4654
3957	0.4585
3966	0.4568
3975	0.4557
3984	0.4545
3993	0.4535
