Infrared Spectrum: PHOSPHONIC ACID, PHENYL-, DI-ISOBUTYL ESTER
Formula: C14 H23 O3 P
CAS: 64470-42-4
State: LIQUID
Class: COBLENTZ
Instrument: PERKIN-ELMER
Sampling: TRANSMISSION
Path length: 0.0015 CM
Resolution: 4
Origin: STANDARD OIL OF OHIO
MICROMETERS	TRANSMITTANCE
1.993	0.976
2.02679	0.974
2.06057	0.974
2.09436	0.972
2.12814	0.974
2.16193	0.967
2.19571	0.967
2.2295	0.969
2.26328	0.945
2.29707	0.932
2.33085	0.928
2.36464	0.939
2.39843	0.939
2.43221	0.935
2.466	0.923
2.49978	0.947
2.53357	0.954
2.56735	0.954
2.60114	0.959
2.63492	0.961
2.66871	0.962
2.70249	0.964
2.73628	0.959
2.77006	0.942
2.80385	0.898
2.83764	0.864
2.87142	0.861
2.90521	0.868
2.93899	0.9
2.97278	0.927
3.00656	0.942
3.04035	0.949
3.07413	0.949
3.10792	0.932
3.1417	0.917
3.17549	0.913
3.20928	0.883
3.24306	0.746
3.27685	0.732
3.31063	0.705
3.34442	0.148
3.3782	0.074
3.41199	0.165
3.44577	0.186
3.47956	0.296
3.51334	0.605
3.54713	0.84
3.58092	0.879
3.6147	0.898
3.64849	0.898
3.68227	0.905
3.71606	0.939
3.74984	0.947
3.78363	0.949
3.81741	0.949
3.8512	0.952
3.88498	0.952
3.91877	0.957
3.95255	0.962
3.98634	0.961
4.02013	0.961
4.05391	0.961
4.0877	0.966
4.12148	0.964
4.15527	0.962
4.18905	0.957
4.22284	0.956
4.25662	0.954
4.29041	0.956
4.32419	0.956
4.35798	0.956
4.39177	0.952
4.42555	0.952
4.45934	0.959
4.49312	0.962
4.52691	0.962
4.56069	0.962
4.59448	0.962
4.62826	0.964
4.66205	0.962
4.69583	0.961
4.72962	0.961
4.7634	0.961
4.79719	0.959
4.83098	0.961
4.86476	0.962
4.89855	0.961
4.93233	0.954
4.96612	0.942
4.9999	0.93
5.03369	0.918
5.06747	0.917
5.10126	0.928
5.13504	0.937
5.16883	0.925
5.20262	0.891
5.2364	0.871
5.27019	0.873
5.30397	0.891
5.33776	0.891
5.37154	0.883
5.40533	0.876
5.43911	0.871
5.4729	0.871
5.50668	0.891
5.54047	0.917
5.57426	0.918
5.60804	0.91
5.64183	0.912
5.67561	0.917
5.7094	0.913
5.74318	0.903
5.77697	0.908
5.81075	0.908
5.84454	0.917
5.87832	0.922
5.91211	0.918
5.94589	0.91
5.97968	0.91
6.01347	0.912
6.04725	0.913
6.08104	0.913
6.11482	0.91
6.14861	0.903
6.18239	0.9
6.21618	0.879
6.24996	0.702
6.28375	0.79
6.31753	0.895
6.35132	0.912
6.38511	0.917
6.41889	0.917
6.45268	0.913
6.48646	0.913
6.52025	0.917
6.55403	0.91
6.58782	0.901
6.6216	0.888
6.65539	0.849
6.68917	0.751
6.72296	0.549
6.75675	0.331
6.79053	0.148
6.82432	0.27
6.8581	0.395
6.89189	0.467
6.92567	0.203
6.95946	0.423
6.99324	0.722
7.02703	0.776
7.06081	0.786
7.0946	0.752
7.12838	0.571
7.16217	0.379
7.19596	0.578
7.22974	0.614
7.26353	0.448
7.29731	0.375
7.3311	0.583
7.36488	0.771
7.39867	0.803
7.43245	0.8
7.46624	0.802
7.50002	0.798
7.53381	0.808
7.5676	0.812
7.60138	0.768
7.63517	0.698
7.66895	0.661
7.70274	0.644
7.73652	0.61
7.77031	0.394
7.80409	0.211
7.83788	0.152
7.87166	0.091
7.90545	0.032
7.93923	0.01
7.97302	0.005
8.00681	0.005
8.04059	0.045
8.07438	0.186
8.10816	0.329
8.14195	0.483
8.17573	0.62
8.20952	0.676
8.2433	0.72
8.27709	0.752
8.31087	0.764
8.34466	0.769
8.37845	0.758
8.41223	0.712
8.44602	0.619
8.4798	0.497
8.51359	0.529
8.54737	0.522
8.58116	0.489
8.61494	0.485
8.64873	0.5
8.68251	0.512
8.7163	0.499
8.75009	0.36
8.78387	0.148
8.81766	0.018
8.85144	0.015
8.88523	0.204
8.91901	0.397
8.9528	0.521
8.98658	0.548
9.02037	0.514
9.05415	0.438
9.08794	0.428
9.12172	0.48
9.15551	0.497
9.1893	0.485
9.22308	0.445
9.25687	0.389
9.29065	0.291
9.32444	0.179
9.35822	0.126
9.39201	0.082
9.42579	0.025
9.45958	0.01
9.49336	0.005
9.52715	0.003
9.56094	0.003
9.59472	0.003
9.62851	0.003
9.66229	0.003
9.69608	0.003
9.72986	0.003
9.76365	0.003
9.79743	0.003
9.83122	0.003
9.865	0.003
9.89879	0.003
9.93258	0.003
9.96636	0.003
10.0001	0.003
10.0339	0.005
10.0677	0.015
10.1015	0.052
10.1353	0.142
10.1691	0.208
10.2029	0.274
10.2366	0.314
10.2704	0.309
10.3042	0.241
10.338	0.152
10.3718	0.113
10.4056	0.125
10.4394	0.143
10.4731	0.167
10.5069	0.204
10.5407	0.269
10.5745	0.338
10.6083	0.414
10.6421	0.495
10.6759	0.56
10.7096	0.575
10.7434	0.573
10.7772	0.551
10.811	0.543
10.8448	0.538
10.8786	0.489
10.9124	0.426
10.9461	0.404
10.9799	0.433
11.0137	0.536
11.0475	0.627
11.0813	0.68
11.1151	0.712
11.1489	0.732
11.1826	0.737
11.2164	0.729
11.2502	0.714
11.284	0.673
11.3178	0.612
11.3516	0.519
11.3853	0.412
11.4191	0.291
11.4529	0.184
11.4867	0.14
11.5205	0.113
11.5543	0.103
11.5881	0.098
11.6218	0.101
11.6556	0.123
11.6894	0.142
11.7232	0.165
11.757	0.197
11.7908	0.218
11.8246	0.228
11.8583	0.231
11.8921	0.223
11.9259	0.216
11.9597	0.211
11.9935	0.209
12.0273	0.209
12.0611	0.206
12.0948	0.201
12.1286	0.186
12.1624	0.17
12.1962	0.169
12.23	0.182
12.2638	0.206
12.2976	0.221
12.3313	0.241
12.3651	0.263
12.3989	0.299
12.4327	0.328
12.4665	0.362
12.5003	0.397
12.5341	0.423
12.5678	0.446
12.6016	0.477
12.6354	0.514
12.6692	0.56
12.703	0.607
12.7368	0.648
12.7706	0.68
12.8043	0.703
12.8381	0.72
12.8719	0.737
12.9057	0.746
12.9395	0.747
12.9733	0.739
13.007	0.712
13.0408	0.668
13.0746	0.598
13.1084	0.5
13.1422	0.407
13.176	0.313
13.2098	0.208
13.2435	0.152
13.2773	0.123
13.3111	0.115
13.3449	0.121
13.3787	0.174
13.4125	0.307
13.4463	0.482
13.48	0.626
13.5138	0.7
13.5476	0.739
13.5814	0.763
13.6152	0.776
13.649	0.783
13.6828	0.786
13.7165	0.781
13.7503	0.766
13.7841	0.727
13.8179	0.656
13.8517	0.578
13.8855	0.45
13.9193	0.318
13.953	0.248
13.9868	0.241
14.0206	0.267
14.0544	0.299
14.0882	0.35
14.122	0.399
14.1558	0.423
14.1895	0.407
14.2233	0.351
14.2571	0.258
14.2909	0.169
14.3247	0.099
14.3585	0.067
14.3923	0.067
14.426	0.138
14.4598	0.279
14.4936	0.397
14.5274	0.56
14.5612	0.642
14.595	0.697
14.6287	0.724
14.6625	0.744
14.6963	0.754
14.7301	0.761
14.7639	0.766
14.7977	0.763
14.8315	0.759
14.8652	0.758
14.899	0.756
14.9328	0.756
14.9666	0.758
15.0004	0.773
15.0342	0.785
15.068	0.793
15.1017	0.798
15.1355	0.803
15.1693	0.805
15.2031	0.807
15.2369	0.807
15.2707	0.807
15.3045	0.808
15.3382	0.807
15.372	0.803
