Infrared Spectrum: 6,8-Dichlorochromone-3-carboxaldehyde
Formula: C 10 H 4 Cl 2 O 3
CAS: 64481-11-4
State: gas
Origin: EPA-IR VAPOR PHASE LIBRARY
1/CM	ABSORBANCE
549.8	0.017658
559.445	0.011248
569.09	0.011288
578.734	0.005748
588.379	0.002538
598.024	0.001828
607.669	0.0012057
617.313	0.001888
626.958	0.001898
636.603	0.002818
646.248	0.004718
655.893	0.010008
665.537	0.055618
675.182	0.120698
684.827	0.035918
694.472	0.018408
704.116	0.011558
713.761	0.006728
723.406	0.005118
733.051	0.008588
742.695	0.013428
752.34	0.024268
761.985	0.077208
771.63	0.185008
781.275	0.119688
790.919	0.042078
800.564	0.015538
810.209	0.013448
819.854	0.017238
829.498	0.024358
839.143	0.050488
848.788	0.110258
858.433	0.042548
868.078	0.021068
877.722	0.051278
887.367	0.037018
897.012	0.020498
906.657	0.017358
916.301	0.009298
925.946	0.014468
935.591	0.015518
945.236	0.007258
954.88	0.017388
964.525	0.055368
974.17	0.037688
983.815	0.013308
993.46	0.007178
1003.1	0.004958
1012.75	0.003988
1022.39	0.004138
1032.04	0.002818
1041.68	0.003868
1051.33	0.004198
1060.97	0.004328
1070.62	0.004818
1080.26	0.008138
1089.91	0.005368
1099.55	0.004718
1109.2	0.004098
1118.84	0.004418
1128.49	0.005738
1138.13	0.009218
1147.78	0.019188
1157.42	0.043878
1167.07	0.051748
1176.71	0.088618
1186.36	0.064278
1196	0.038218
1205.64	0.023788
1215.29	0.015338
1224.93	0.013388
1234.58	0.012918
1244.22	0.014318
1253.87	0.015788
1263.51	0.025368
1273.16	0.051048
1282.8	0.160438
1292.45	0.406208
1302.09	0.316558
1311.74	0.287938
1321.38	0.094488
1331.03	0.034188
1340.67	0.038028
1350.32	0.059068
1359.96	0.025208
1369.61	0.020198
1379.25	0.032888
1388.9	0.059838
1398.54	0.040758
1408.18	0.029428
1417.83	0.047968
1427.47	0.112338
1437.12	0.330528
1446.76	0.355498
1456.41	0.314948
1466.05	0.141848
1475.7	0.058268
1485.34	0.033628
1494.99	0.016338
1504.63	0.013198
1514.28	0.014958
1523.92	0.017478
1533.57	0.018978
1543.21	0.038598
1552.86	0.129618
1562.5	0.230948
1572.15	0.086938
1581.79	0.051428
1591.44	0.120288
1601.08	0.326248
1610.73	0.228928
1620.37	0.049658
1630.01	0.030118
1639.66	0.027838
1649.3	0.029888
1658.95	0.036698
1668.59	0.063248
1678.24	0.215838
1687.88	0.586738
1697.53	0.278758
1707.17	0.196148
1716.82	0.257768
1726.46	0.086708
1736.11	0.069468
1745.75	0.055858
1755.4	0.028838
1765.04	0.016818
1774.69	0.012068
1784.33	0.010228
1793.98	0.007828
1803.62	0.008038
1813.27	0.007178
1822.91	0.005748
1832.55	0.006568
1842.2	0.006598
1851.84	0.007138
1861.49	0.006438
1871.13	0.004998
1880.78	0.003938
1890.42	0.002918
1900.07	0.003158
1909.71	0.003238
1919.36	0.004548
1929	0.006048
1938.65	0.005178
1948.29	0.003158
1957.94	0.002348
1967.58	0.002428
1977.23	0.002878
1986.87	0.002658
1996.52	0.002358
2006.16	0.002038
2015.81	0.001448
2025.45	0.001498
2035.1	0.001788
2044.74	0.002148
2054.38	0.002228
2064.03	0.002438
2073.67	0.002528
2083.32	0.002408
2092.96	0.002178
2102.61	0.002138
2112.25	0.002668
2121.9	0.002838
2131.54	0.002508
2141.19	0.001908
2150.83	0.001838
2160.48	0.002188
2170.12	0.001938
2179.77	0.001568
2189.41	0.001598
2199.06	0.001668
2208.7	0.001498
2218.35	0.0014023
2227.99	0.001528
2237.64	0.001498
2247.28	0.001339
2256.92	0.001438
2266.57	0.001768
2276.21	0.002308
2285.86	0.002368
2295.5	0.002098
2305.15	0.001908
2314.79	0.002118
2324.44	0.002188
2334.08	0.002698
2343.73	0.003438
2353.37	0.004008
2363.02	0.004258
2372.66	0.004338
2382.31	0.004138
2391.95	0.003998
2401.6	0.004198
2411.24	0.003608
2420.89	0.002588
2430.53	0.002268
2440.18	0.002128
2449.82	0.002268
2459.47	0.002708
2469.11	0.002808
2478.75	0.002078
2488.4	0.001678
2498.04	0.001768
2507.69	0.001978
2517.33	0.002018
2526.98	0.001928
2536.62	0.001748
2546.27	0.002018
2555.91	0.002258
2565.56	0.003148
2575.2	0.003208
2584.85	0.002368
2594.49	0.002228
2604.14	0.001918
2613.78	0.001738
2623.43	0.0014131
2633.07	0.0013949
2642.72	0.0013738
2652.36	0.001678
2662.01	0.001618
2671.65	0.001688
2681.29	0.002198
2690.94	0.003238
2700.58	0.004438
2710.23	0.004648
2719.87	0.004418
2729.52	0.004778
2739.16	0.004598
2748.81	0.004668
2758.45	0.004648
2768.1	0.004458
2777.74	0.004118
2787.39	0.004228
2797.03	0.004518
2806.68	0.004248
2816.32	0.004118
2825.97	0.004308
2835.61	0.004608
2845.26	0.005778
2854.9	0.012998
2864.55	0.045398
2874.19	0.054648
2883.84	0.014308
2893.48	0.005748
2903.12	0.003758
2912.77	0.002968
2922.41	0.002228
2932.06	0.001648
2941.7	0.001858
2951.35	0.001818
2960.99	0.001908
2970.64	0.002098
2980.28	0.002728
2989.93	0.003568
2999.57	0.002948
3009.22	0.002298
3018.86	0.001718
3028.51	0.0012657
3038.15	0.001189
3047.8	0.001458
3057.44	0.002328
3067.09	0.003558
3076.73	0.009598
3086.38	0.016548
3096.02	0.004058
3105.67	0.001548
3115.31	0.0011094
3124.95	0.0010858
3134.6	0.001231
3144.24	0.0011686
3153.89	0.0008062
3163.53	0.0007992
3173.18	0.0006095
3182.82	0.0007601
3192.47	0.0011157
3202.11	0.0010225
3211.76	0.0006277
3221.4	0.0008983
3231.05	0.0007814
3240.69	0.0007629
3250.34	0.0011768
3259.98	0.0011056
3269.63	0.0011329
3279.27	0.0012621
3288.92	0.001578
3298.56	0.001608
3308.21	0.001558
3317.85	0.001788
3327.49	0.001918
3337.14	0.002038
3346.78	0.002858
3356.43	0.005178
3366.07	0.006008
3375.72	0.003128
3385.36	0.001948
3395.01	0.002398
3404.65	0.004908
3414.3	0.007078
3423.94	0.003838
3433.59	0.001998
3443.23	0.001798
3452.88	0.0012513
3462.52	0.0010961
3472.17	0.0008577
3481.81	0.0005401
3491.46	0.0007719
3501.1	0.0005819
3510.75	0.0005277
3520.39	0.000423823
3530.04	0.00046343
3539.68	0.0003221
3549.32	0.0007237
3558.97	0.000283
3568.61	0.000188
3578.26	0.00016
3587.9	0.000272
3597.55	0.0005879
3607.19	0.0003544
3616.84	0.00045506
3626.48	0.000316
3636.13	0.00051182
3645.77	0.00046979
3655.42	0.0005239
3665.06	0.0003421
3674.71	0.0003887
3684.35	0.00047015
3694	9.4e-05
3703.64	0.0005495
3713.29	0.0006211
3722.93	0.0005807
3732.58	0.0003493
3742.22	0.000249
3751.86	0.00044297
3761.51	0.00049419
3771.15	0.00041492
3780.8	0.0007283
3790.44	0.00045666
3800.09	0.0003943
3809.73	0.000315
3819.38	1.9e-05
3829.02	0.000194
3838.67	0.0004023
3848.31	0.00049563
3857.96	0.0003415
3867.6	0.0003371
3877.25	0.000523
3886.89	0.00029
3896.54	2.4e-05
3906.18	0.00047127
3915.83	0.000273
3925.47	0.0008921
3935.12	0.0007492
3944.76	0.0006302
3954.41	0.0007494
3964.05	0.0009342
3973.69	0.00048475
3983.34	0.0008252
3992.98	0.00047466
