Infrared Spectrum: Hydrocinnamonitrile
Formula: C 9 H 9 N
CAS: 645-59-0
State: gas
Instrument: HP-GC/MS/IRD
Origin: NIST Mass Spectrometry Data Center
1/CM	ABSORBANCE
550	0.0002506
562	0.0002723
574	0.0006076
586	0.0009464
598	0.0005642
610	0.0001694
622	0.0001589
634	0.0001757
646	0.0002009
658	0.0005551
670	0.0013587
682	0.0035735
694	0.0067011
706	0.0059451
718	0.004109
730	0.0042875
742	0.0052934
754	0.0038759
766	0.0017479
778	0.0007182
790	0.0003563
802	0.0002177
814	0.0001365
826	0.000119
838	9.73e-05
850	3.5e-05
862	5.04e-05
874	0.0001316
886	0.0001645
898	0.0002632
910	0.0001848
922	0.0003255
934	0.0003171
946	0.0001841
958	0.0001253
970	0.0001666
982	0.0002023
994	0.0002275
1006	0.0002471
1018	0.0004025
1030	0.0007434
1042	0.0003192
1054	0.0002842
1066	0.000581
1078	0.0007483
1090	0.0004431
1102	0.0002289
1114	0.0001946
1126	7.7e-05
1138	3.78e-05
1150	6.79e-05
1162	8.61e-05
1174	6.02e-05
1186	0.0001085
1198	0.0001295
1210	0.0001449
1222	0.0002282
1234	0.0001743
1246	0.0001547
1258	0.000175
1270	0.0002359
1282	0.0002009
1294	0.000196
1306	0.0002688
1318	0.0004102
1330	0.0007231
1342	0.0010185
1354	0.0006447
1366	0.0003164
1378	0.000308
1390	0.0002709
1402	0.0003087
1414	0.0006496
1426	0.0015827
1438	0.0025809
1450	0.0027594
1462	0.0021385
1474	0.0011578
1486	0.0016233
1498	0.0026677
1510	0.0013587
1522	0.0004886
1534	0.0003493
1546	0.0002856
1558	0.0002989
1570	0.0003381
1582	0.0005936
1594	0.0010269
1606	0.0010521
1618	0.0005278
1630	0.0002471
1642	0.0002205
1654	0.0002261
1666	0.0001239
1678	0.0001281
1690	0.0001141
1702	0.0001589
1714	0.0001813
1726	0.0002282
1738	0.0002422
1750	0.0002093
1762	0.0001771
1774	0.0002366
1786	0.0004494
1798	0.0005565
1810	0.0003024
1822	0.0001855
1834	0.0001827
1846	0.0002751
1858	0.0003353
1870	0.0004305
1882	0.0002891
1894	0.0001757
1906	0.0001652
1918	0.0002149
1930	0.000364
1942	0.0004739
1954	0.0004921
1966	0.0002849
1978	0.0001148
1990	8.68e-05
2002	7.14e-05
2014	8.12e-05
2026	7.63e-05
2038	9.1e-05
2050	8.47e-05
2062	7.21e-05
2074	4.62e-05
2086	5.39e-05
2098	4.97e-05
2110	2.1e-05
2122	5.39e-05
2134	5.88e-05
2146	7.28e-05
2158	4.76e-05
2170	7.98e-05
2182	6.93e-05
2194	6.65e-05
2206	8.89e-05
2218	7.84e-05
2230	0.0001512
2242	0.0003542
2254	0.0004578
2266	0.0002429
2278	0.0001659
2290	0.0001071
2302	0.000119
2314	0.0001323
2326	0.0001414
2338	0.00014
2350	0.0001498
2362	0.0001421
2374	0.0001057
2386	7.98e-05
2398	8.89e-05
2410	9.94e-05
2422	9.52e-05
2434	8.12e-05
2446	8.4e-05
2458	6.51e-05
2470	5.53e-05
2482	2.45e-05
2494	6.58e-05
2506	7.7e-05
2518	7.84e-05
2530	5.74e-05
2542	6.65e-05
2554	8.4e-05
2566	0.0001022
2578	6.09e-05
2590	0.0001036
2602	0.0001386
2614	0.0001484
2626	9.8e-05
2638	0.0001162
2650	0.0001092
2662	0.0001078
2674	0.0001162
2686	6.3e-05
2698	8.96e-05
2710	3.85e-05
2722	2.66e-05
2734	9.8e-05
2746	0.0001085
2758	0.0001253
2770	0.0001316
2782	0.0001771
2794	0.0002142
2806	0.0001582
2818	0.0001505
2830	0.0002415
2842	0.0003731
2854	0.0006258
2866	0.0008526
2878	0.0011067
2890	0.0008995
2902	0.0007336
2914	0.0010332
2926	0.0019656
2938	0.0033558
2950	0.0038416
2962	0.0035959
2974	0.0024451
2986	0.0012327
2998	0.0010234
3010	0.0015813
3022	0.0031073
3034	0.0049763
3046	0.0041055
3058	0.0030037
3070	0.0045969
3082	0.004221
3094	0.0026131
3106	0.0017094
3118	0.0009247
3130	0.0004361
3142	0.0002352
3154	0.0001904
3166	0.0002177
3178	0.0001519
3190	0.0001176
3202	0.0001372
3214	0.0001631
3226	7.49e-05
3238	0.0001638
3250	0.0001071
3262	8.82e-05
3274	5.39e-05
3286	0.0001022
3298	9.1e-05
3310	8.33e-05
3322	3.71e-05
3334	9.59e-05
3346	8.75e-05
3358	0.0001057
3370	0.0001043
3382	9.45e-05
3394	0.0001036
3406	7.77e-05
3418	0.0001015
3430	9.17e-05
3442	7.07e-05
3454	4.2e-05
3466	6.02e-05
3478	7.7e-05
3490	9.66e-05
3502	3.36e-05
3514	7e-05
3526	9.8e-05
3538	0.0001085
3550	5.81e-05
3562	5.39e-05
3574	7.91e-05
3586	9.73e-05
3598	0.000126
3610	0.0001078
3622	0.0001302
3634	9.1e-05
3646	0.0001302
3658	0.0001659
3670	0.0001323
3682	0.0001071
3694	0.0001267
3706	0.0001323
3718	0.0001379
3730	0.0001197
3742	9.87e-05
3754	0.0001694
3766	0.0001204
3778	0.0001071
3790	0.0001008
3802	0.0001148
3814	0.0001218
3826	0.0001057
3838	0.0001246
