Infrared Spectrum: AMMELINE
Formula: C3 H5 N5 O
CAS: 645-92-1
State: SOLID (MULL)
Melting point: DEC.
Class: COBLENTZ
Instrument: Not specified, most likely a prism, grating, or hybrid spectrometer.
Sampling: TRANSMISSION
Resolution: 4
Origin: WYANDOTTE CHEMICALS CORP., WYANDOTTE, MICHIGAN, USA
MICROMETERS	TRANSMITTANCE
2.017	0.566
2.05687	0.578
2.09673	0.588
2.1366	0.598
2.17646	0.615
2.21633	0.616
2.25619	0.625
2.29606	0.641
2.33593	0.656
2.37579	0.671
2.41566	0.685
2.45552	0.698
2.49539	0.713
2.53526	0.72
2.57512	0.748
2.61499	0.765
2.65485	0.785
2.69472	0.805
2.73458	0.82
2.77445	0.83
2.81432	0.835
2.85418	0.71
2.89405	0.295
2.93391	0.476
2.97378	0.535
3.01364	0.386
3.05351	0.228
3.09338	0.2
3.13324	0.12
3.17311	0.113
3.21297	0.12
3.25284	0.116
3.2927	0.176
3.33257	0.156
3.37244	0.021
3.4123	0.025
3.45217	0.036
3.49203	0.035
3.5319	0.163
3.57177	0.335
3.61163	0.316
3.6515	0.3
3.69136	0.28
3.73123	0.263
3.77109	0.253
3.81096	0.276
3.85083	0.298
3.89069	0.313
3.93056	0.331
3.97042	0.358
4.01029	0.385
4.05015	0.411
4.09002	0.435
4.12989	0.448
4.16975	0.483
4.20962	0.51
4.24948	0.53
4.28935	0.535
4.32922	0.563
4.36908	0.595
4.40895	0.62
4.44881	0.638
4.48868	0.661
4.52854	0.671
4.56841	0.686
4.60828	0.71
4.64814	0.708
4.68801	0.675
4.72787	0.695
4.76774	0.771
4.8076	0.803
4.84747	0.825
4.88734	0.833
4.9272	0.851
4.96707	0.871
5.00693	0.893
5.0468	0.901
5.08667	0.91
5.12653	0.926
5.1664	0.94
5.20626	0.946
5.24613	0.955
5.28599	0.956
5.32586	0.95
5.36573	0.931
5.40559	0.916
5.44546	0.888
5.48532	0.883
5.52519	0.868
5.56505	0.843
5.60492	0.801
5.64479	0.733
5.68465	0.62
5.72452	0.46
5.76438	0.126
5.80425	0.046
5.84411	0.076
5.88398	0.153
5.92385	0.125
5.96371	0.118
6.00358	0.146
6.04344	0.101
6.08331	0.081
6.12318	0.08
6.16304	0.038
6.20291	0.081
6.24277	0.19
6.28264	0.27
6.3225	0.315
6.36237	0.325
6.40224	0.345
6.4421	0.336
6.48197	0.206
6.52183	0.103
6.5617	0.063
6.60156	0.095
6.64143	0.161
6.6813	0.221
6.72116	0.243
6.76103	0.173
6.80089	0.08
6.84076	0.063
6.88063	0.075
6.92049	0.108
6.96036	0.108
7.00022	0.116
7.04009	0.128
7.07995	0.14
7.11982	0.183
7.15969	0.23
7.19955	0.225
7.23942	0.181
7.27928	0.236
7.31915	0.285
7.35901	0.348
7.39888	0.361
7.43875	0.385
7.47861	0.398
7.51848	0.433
7.55834	0.446
7.59821	0.456
7.63807	0.47
7.67794	0.485
7.71781	0.488
7.75767	0.481
7.79754	0.465
7.8374	0.523
7.87727	0.556
7.91714	0.571
7.957	0.583
7.99687	0.595
8.03673	0.603
8.0766	0.606
8.11646	0.615
8.15633	0.618
8.1962	0.616
8.23606	0.605
8.27593	0.598
8.31579	0.573
8.35566	0.546
8.39552	0.55
8.43539	0.553
8.47526	0.518
8.51512	0.446
8.55499	0.381
8.59485	0.413
8.63472	0.481
8.67459	0.555
8.71445	0.61
8.75432	0.643
8.79418	0.666
8.83405	0.683
8.87391	0.693
8.91378	0.698
8.95365	0.708
8.99351	0.72
9.03338	0.725
9.07324	0.726
9.11311	0.715
9.15297	0.703
9.19284	0.706
9.23271	0.71
9.27257	0.713
9.31244	0.716
9.3523	0.718
9.39217	0.726
9.43203	0.723
9.4719	0.713
9.51177	0.683
9.55163	0.618
9.5915	0.528
9.63136	0.535
9.67123	0.59
9.7111	0.628
9.75096	0.658
9.79083	0.683
9.83069	0.7
9.87056	0.705
9.91042	0.69
9.95029	0.638
9.99016	0.565
10.03	0.493
10.0699	0.476
10.1098	0.518
10.1496	0.538
10.1895	0.548
10.2294	0.575
10.2692	0.606
10.3091	0.64
10.3489	0.663
10.3888	0.676
10.4287	0.691
10.4685	0.701
10.5084	0.72
10.5483	0.728
10.5881	0.735
10.628	0.738
10.6679	0.741
10.7077	0.741
10.7476	0.74
10.7875	0.74
10.8273	0.738
10.8672	0.736
10.9071	0.731
10.9469	0.723
10.9868	0.725
11.0267	0.713
11.0665	0.701
11.1064	0.685
11.1463	0.663
11.1861	0.64
11.226	0.62
11.2659	0.596
11.3057	0.57
11.3456	0.541
11.3855	0.515
11.4253	0.495
11.4652	0.478
11.5051	0.473
11.5449	0.475
11.5848	0.49
11.6247	0.516
11.6645	0.548
11.7044	0.573
11.7443	0.6
11.7841	0.626
11.824	0.643
11.8638	0.665
11.9037	0.681
11.9436	0.698
11.9834	0.713
12.0233	0.72
12.0632	0.728
12.103	0.731
12.1429	0.733
12.1828	0.735
12.2226	0.73
12.2625	0.726
12.3024	0.716
12.3422	0.705
12.3821	0.691
12.422	0.666
12.4618	0.626
12.5017	0.563
12.5416	0.491
12.5814	0.371
12.6213	0.278
12.6612	0.228
12.701	0.256
12.7409	0.441
12.7808	0.616
12.8206	0.69
12.8605	0.721
12.9004	0.741
12.9402	0.756
12.9801	0.76
13.02	0.768
13.0598	0.78
13.0997	0.781
13.1396	0.788
13.1794	0.776
13.2193	0.77
13.2591	0.756
13.299	0.741
13.3389	0.723
13.3787	0.698
13.4186	0.671
13.4585	0.648
13.4983	0.631
13.5382	0.618
13.5781	0.615
13.6179	0.623
13.6578	0.641
13.6977	0.658
13.7375	0.658
13.7774	0.66
13.8173	0.66
13.8571	0.665
13.897	0.668
13.9369	0.681
13.9767	0.693
14.0166	0.705
14.0565	0.705
14.0963	0.705
14.1362	0.701
14.1761	0.696
14.2159	0.685
14.2558	0.673
14.2957	0.653
14.3355	0.636
14.3754	0.626
14.4153	0.616
14.4551	0.6
14.495	0.591
14.5349	0.59
14.5747	0.583
14.6146	0.563
14.6545	0.536
14.6943	0.525
14.7342	0.548
14.774	0.585
14.8139	0.613
14.8538	0.628
14.8936	0.633
14.9335	0.633
14.9734	0.63
15.0132	0.605
15.0531	0.583
15.093	0.578
15.1328	0.6
15.1727	0.6
15.2126	0.586
15.2524	0.571
15.2923	0.551
15.3322	0.538
15.372	0.538
15.4119	0.545
15.4518	0.56
15.4916	0.553
15.5315	0.546
15.5714	0.536
15.6112	0.52
15.6511	0.498
15.691	0.473
15.7308	0.448
15.7707	0.426
15.8106	0.415
15.8504	0.418
15.8903	0.431
15.9302	0.438
15.97	0.44
