Infrared Spectrum: TRIISOAMYLAMINE
Formula: C15 H33 N
CAS: 645-41-0
State: LIQUID
Boiling point: 121-123 C AT 15 mmHg
Class: COBLENTZ
Instrument: Not specified, most likely a prism, grating, or hybrid spectrometer.
Sampling: TRANSMISSION
Path length: 0.003 CM
Resolution: 4
Origin: WYANDOTTE CHEMICALS CORP., WYANDOTTE, MICHIGAN, USA
MICROMETERS	TRANSMITTANCE
2.02	0.969
2.06086	0.966
2.10172	0.967
2.14258	0.964
2.18343	0.964
2.22429	0.93
2.26515	0.928
2.30601	0.933
2.34687	0.933
2.38773	0.93
2.42859	0.937
2.46944	0.949
2.5103	0.945
2.55116	0.952
2.59202	0.95
2.63288	0.954
2.67374	0.964
2.71459	0.96
2.75545	0.966
2.79631	0.943
2.83717	0.932
2.87803	0.923
2.91889	0.911
2.95975	0.899
3.0006	0.891
3.04146	0.882
3.08232	0.872
3.12318	0.852
3.16404	0.811
3.2049	0.816
3.24576	0.813
3.28661	0.774
3.32747	0.651
3.36833	0.108
3.40919	0.05
3.45005	0.1
3.49091	0.14
3.53176	0.308
3.57262	0.327
3.61348	0.409
3.65434	0.589
3.6952	0.628
3.73606	0.738
3.77692	0.791
3.81777	0.803
3.85863	0.823
3.89949	0.831
3.94035	0.852
3.98121	0.869
4.02207	0.874
4.06293	0.874
4.10378	0.87
4.14464	0.876
4.1855	0.877
4.22636	0.879
4.26722	0.879
4.30808	0.903
4.34893	0.918
4.38979	0.911
4.43065	0.899
4.47151	0.893
4.51237	0.896
4.55323	0.903
4.59409	0.908
4.63494	0.91
4.6758	0.911
4.71666	0.908
4.75752	0.91
4.79838	0.913
4.83924	0.91
4.8801	0.908
4.92095	0.906
4.96181	0.906
5.00267	0.906
5.04353	0.908
5.08439	0.894
5.12525	0.901
5.16611	0.901
5.20696	0.901
5.24782	0.901
5.28868	0.896
5.32954	0.896
5.3704	0.899
5.41126	0.899
5.45211	0.889
5.49297	0.894
5.53383	0.886
5.57469	0.889
5.61555	0.886
5.65641	0.884
5.69727	0.872
5.73812	0.87
5.77898	0.85
5.81984	0.831
5.8607	0.82
5.90156	0.752
5.94242	0.741
5.98328	0.76
6.02413	0.786
6.06499	0.775
6.10585	0.792
6.14671	0.806
6.18757	0.816
6.22843	0.818
6.26928	0.816
6.31014	0.816
6.351	0.816
6.39186	0.816
6.43272	0.816
6.47358	0.813
6.51444	0.804
6.55529	0.792
6.59615	0.796
6.63701	0.765
6.67787	0.738
6.71873	0.658
6.75959	0.373
6.80045	0.222
6.8413	0.351
6.88216	0.512
6.92302	0.609
6.96388	0.667
7.00474	0.728
7.0456	0.735
7.08645	0.724
7.12731	0.702
7.16817	0.619
7.20903	0.378
7.24989	0.429
7.29075	0.339
7.33161	0.4
7.37246	0.609
7.41332	0.646
7.45418	0.643
7.49504	0.665
7.5359	0.709
7.57676	0.721
7.61762	0.677
7.65847	0.64
7.69933	0.653
7.74019	0.692
7.78105	0.675
7.82191	0.634
7.86277	0.643
7.90363	0.651
7.94448	0.655
7.98534	0.667
8.0262	0.685
8.06706	0.691
8.10792	0.707
8.14878	0.716
8.18963	0.728
8.23049	0.733
8.27135	0.735
8.31221	0.733
8.35307	0.718
8.39393	0.64
8.43479	0.512
8.47564	0.456
8.5165	0.453
8.55736	0.451
8.59822	0.619
8.63908	0.699
8.67994	0.702
8.7208	0.687
8.76165	0.694
8.80251	0.707
8.84337	0.675
8.88423	0.672
8.92509	0.694
8.96595	0.707
9.0068	0.691
9.04766	0.619
9.08852	0.49
9.12938	0.38
9.17024	0.363
9.2111	0.46
9.25196	0.558
9.29281	0.65
9.33367	0.699
9.37453	0.731
9.41539	0.743
9.45625	0.748
9.49711	0.753
9.53797	0.738
9.57882	0.726
9.61968	0.728
9.66054	0.73
9.7014	0.733
9.74226	0.735
9.78312	0.738
9.82398	0.733
9.86483	0.724
9.90569	0.733
9.94655	0.752
9.98741	0.765
10.0283	0.767
10.0691	0.753
10.11	0.74
10.1508	0.723
10.1917	0.707
10.2326	0.689
10.2734	0.675
10.3143	0.672
10.3551	0.696
10.396	0.741
10.4369	0.767
10.4777	0.765
10.5186	0.755
10.5594	0.76
10.6003	0.758
10.6411	0.741
10.682	0.724
10.7229	0.731
10.7637	0.758
10.8046	0.764
10.8454	0.752
10.8863	0.724
10.9272	0.743
10.968	0.769
11.0089	0.77
11.0497	0.769
11.0906	0.765
11.1314	0.765
11.1723	0.77
11.2132	0.78
11.254	0.782
11.2949	0.786
11.3357	0.784
11.3766	0.789
11.4175	0.787
11.4583	0.791
11.4992	0.787
11.54	0.797
11.5809	0.799
11.6217	0.803
11.6626	0.801
11.7035	0.803
11.7443	0.803
11.7852	0.804
11.826	0.803
11.8669	0.797
11.9078	0.789
11.9486	0.782
11.9895	0.777
12.0303	0.772
12.0712	0.772
12.1121	0.775
12.1529	0.78
12.1938	0.78
12.2346	0.782
12.2755	0.782
12.3163	0.777
12.3572	0.775
12.3981	0.765
12.4389	0.748
12.4798	0.706
12.5206	0.628
12.5615	0.519
12.6024	0.471
12.6432	0.533
12.6841	0.641
12.7249	0.691
12.7658	0.689
12.8066	0.677
12.8475	0.679
12.8884	0.682
12.9292	0.682
12.9701	0.697
13.0109	0.687
13.0518	0.694
13.0927	0.692
13.1335	0.692
13.1744	0.701
13.2152	0.711
13.2561	0.724
13.2969	0.735
13.3378	0.745
13.3787	0.752
13.4195	0.762
13.4604	0.772
13.5012	0.78
13.5421	0.784
13.583	0.786
13.6238	0.794
13.6647	0.796
13.7055	0.797
13.7464	0.797
13.7873	0.796
13.8281	0.796
13.869	0.797
13.9098	0.803
13.9507	0.808
13.9915	0.809
14.0324	0.811
14.0733	0.813
14.1141	0.813
14.155	0.814
14.1958	0.813
14.2367	0.813
14.2776	0.813
14.3184	0.814
14.3593	0.811
14.4001	0.808
14.441	0.808
14.4818	0.806
14.5227	0.804
14.5636	0.803
14.6044	0.803
14.6453	0.799
14.6861	0.796
14.727	0.794
14.7679	0.792
14.8087	0.791
14.8496	0.792
14.8904	0.792
14.9313	0.791
14.9721	0.77
15.013	0.755
15.0539	0.747
15.0947	0.767
15.1356	0.772
15.1764	0.77
15.2173	0.767
15.2582	0.764
15.299	0.76
15.3399	0.748
15.3807	0.745
15.4216	0.74
15.4624	0.738
15.5033	0.736
15.5442	0.733
15.585	0.73
15.6259	0.726
15.6667	0.724
15.7076	0.716
15.7485	0.707
15.7893	0.706
15.8302	0.704
15.871	0.699
15.9119	0.685
15.9528	0.685
