Infrared Spectrum: 3-Nitrobenzamide
Formula: C 7 H 6 N 2 O 3
CAS: 645-09-0
State: gas
Origin: EPA-IR VAPOR PHASE LIBRARY
1/CM	ABSORBANCE
549.8	0.004
559.445	0.00338
569.09	0.00293
578.734	0.0023
588.379	0.00221
598.024	0.0037
607.669	0.00938
617.313	0.00989
626.958	0.00484
636.603	0.0032
646.248	0.00324
655.893	0.0056
665.537	0.01117
675.182	0.01152
684.827	0.0076
694.472	0.00844
704.116	0.01533
713.761	0.02736
723.406	0.0236
733.051	0.01267
742.695	0.00714
752.34	0.00669
761.985	0.00909
771.63	0.01397
781.275	0.01244
790.919	0.0069
800.564	0.00712
810.209	0.00842
819.854	0.00684
829.498	0.00449
839.143	0.00411
848.788	0.00397
858.433	0.00398
868.078	0.00464
877.722	0.00802
887.367	0.01131
897.012	0.00822
906.657	0.00648
916.301	0.00524
925.946	0.00473
935.591	0.00418
945.236	0.00374
954.88	0.00299
964.525	0.00259
974.17	0.00248
983.815	0.00285
993.46	0.00245
1003.1	0.00211
1012.75	0.00192
1022.39	0.00229
1032.04	0.00212
1041.68	0.00328
1051.33	0.00519
1060.97	0.00726
1070.62	0.00805
1080.26	0.00734
1089.91	0.00643
1099.55	0.00754
1109.2	0.00538
1118.84	0.00307
1128.49	0.00266
1138.13	0.00404
1147.78	0.00328
1157.42	0.00352
1167.07	0.00386
1176.71	0.00313
1186.36	0.00185
1196	0.00173
1205.64	0.00235
1215.29	0.00239
1224.93	0.0027
1234.58	0.00298
1244.22	0.00343
1253.87	0.00373
1263.51	0.00505
1273.16	0.00895
1282.8	0.01059
1292.45	0.0095
1302.09	0.01261
1311.74	0.01579
1321.38	0.02236
1331.03	0.04684
1340.67	0.10287
1350.32	0.1133
1359.96	0.06229
1369.61	0.02947
1379.25	0.01279
1388.9	0.0073
1398.54	0.00538
1408.18	0.0045
1417.83	0.00396
1427.47	0.00549
1437.12	0.00678
1446.76	0.00416
1456.41	0.00299
1466.05	0.00383
1475.7	0.0061
1485.34	0.00828
1494.99	0.00959
1504.63	0.00981
1514.28	0.00879
1523.92	0.01189
1533.57	0.02906
1543.21	0.07018
1552.86	0.07624
1562.5	0.03629
1572.15	0.0249
1581.79	0.03836
1591.44	0.04524
1601.08	0.03083
1610.73	0.02016
1620.37	0.0166
1630.01	0.01118
1639.66	0.0064
1649.3	0.00493
1658.95	0.00516
1668.59	0.00606
1678.24	0.00918
1687.88	0.01474
1697.53	0.01889
1707.17	0.02517
1716.82	0.06894
1726.46	0.10654
1736.11	0.05963
1745.75	0.02093
1755.4	0.01715
1765.04	0.01284
1774.69	0.00573
1784.33	0.00261
1793.98	0.00186
1803.62	0.00165
1813.27	0.00133
1822.91	0.00137
1832.55	0.00131
1842.2	0.00122
1851.84	0.00142
1861.49	0.00143
1871.13	0.00139
1880.78	0.00115
1890.42	0.0012
1900.07	0.0012
1909.71	0.0011
1919.36	0.00117
1929	0.00103
1938.65	0.00095
1948.29	0.0008955
1957.94	0.00101
1967.58	0.0008962
1977.23	0.0008273
1986.87	0.0006657
1996.52	0.0006085
2006.16	0.0005247
2015.81	0.0004852
2025.45	0.0004519
2035.1	0.0004612
2044.74	0.0004266
2054.38	0.0004587
2064.03	0.0004573
2073.67	0.0003825
2083.32	0.0004472
2092.96	0.00044
2102.61	0.0003812
2112.25	0.0005566
2121.9	0.0005233
2131.54	0.0004669
2141.19	0.0004012
2150.83	0.0003314
2160.48	0.0004416
2170.12	0.0003972
2179.77	0.0003542
2189.41	0.0003895
2199.06	0.0004266
2208.7	0.0004451
2218.35	0.0005238
2227.99	0.0004872
2237.64	0.0005766
2247.28	0.0006003
2256.92	0.0004494
2266.57	0.0004161
2276.21	0.0004397
2285.86	0.0002952
2295.5	0.0003664
2305.15	0.0002838
2314.79	0.0003665
2324.44	0.0003603
2334.08	0.0004129
2343.73	0.0004471
2353.37	0.0004771
2363.02	0.0004728
2372.66	0.0004403
2382.31	0.0004803
2391.95	0.0004507
2401.6	0.0006081
2411.24	0.0006461
2420.89	0.000635
2430.53	0.0006288
2440.18	0.0005757
2449.82	0.0005573
2459.47	0.000544
2469.11	0.0004473
2478.75	0.000552
2488.4	0.0004825
2498.04	0.0005487
2507.69	0.0004725
2517.33	0.0003254
2526.98	0.0002753
2536.62	0.0002084
2546.27	0.000386
2555.91	0.0002574
2565.56	0.0003371
2575.2	0.0004538
2584.85	0.0004442
2594.49	0.0003197
2604.14	0.000409
2613.78	0.000469
2623.43	0.0003891
2633.07	0.0004032
2642.72	0.0005662
2652.36	0.0004951
2662.01	0.0004223
2671.65	0.0005481
2681.29	0.0006353
2690.94	0.0007518
2700.58	0.0005861
2710.23	0.0005472
2719.87	0.0005969
2729.52	0.000607
2739.16	0.0006668
2748.81	0.0006127
2758.45	0.0006491
2768.1	0.000755
2777.74	0.0007765
2787.39	0.0007612
2797.03	0.0007326
2806.68	0.0007351
2816.32	0.0007723
2825.97	0.0007694
2835.61	0.000732
2845.26	0.000713
2854.9	0.0007879
2864.55	0.0008392
2874.19	0.00132
2883.84	0.00155
2893.48	0.00165
2903.12	0.00126
2912.77	0.0008487
2922.41	0.0008582
2932.06	0.0008771
2941.7	0.0009531
2951.35	0.0008371
2960.99	0.0006863
2970.64	0.000664
2980.28	0.0004732
2989.93	0.0004233
2999.57	0.000511
3009.22	0.0005881
3018.86	0.0006345
3028.51	0.0006021
3038.15	0.000818
3047.8	0.0009287
3057.44	0.00107
3067.09	0.00204
3076.73	0.00386
3086.38	0.00476
3096.02	0.00335
3105.67	0.00148
3115.31	0.0008179
3124.95	0.0006047
3134.6	0.0006209
3144.24	0.0005799
3153.89	0.0008612
3163.53	0.0006907
3173.18	0.0006264
3182.82	0.0004906
3192.47	0.0005095
3202.11	0.0004509
3211.76	0.0004531
3221.4	0.0003616
3231.05	0.0004718
3240.69	0.0004914
3250.34	0.000374
3259.98	0.0004462
3269.63	0.0005767
3279.27	0.0005622
3288.92	0.0005001
3298.56	0.0006572
3308.21	0.0007349
3317.85	0.0007548
3327.49	0.0004132
3337.14	0.0004794
3346.78	0.0005573
3356.43	0.0005989
3366.07	0.0008884
3375.72	0.0009646
3385.36	0.00133
3395.01	0.00214
3404.65	0.00318
3414.3	0.00545
3423.94	0.00994
3433.59	0.01305
3443.23	0.01018
3452.88	0.00477
3462.52	0.00252
3472.17	0.00173
3481.81	0.00128
3491.46	0.00144
3501.1	0.00184
3510.75	0.00239
3520.39	0.00331
3530.04	0.00516
3539.68	0.00771
3549.32	0.00924
3558.97	0.00752
3568.61	0.00344
3578.26	0.00168
3587.9	0.00101
3597.55	0.0006098
3607.19	0.0004576
3616.84	0.000262
3626.48	0.0002531
3636.13	0.0001697
3645.77	6.12e-05
3655.42	0.0003292
3665.06	0.0002913
3674.71	0.000379
3684.35	0.0002129
3694	0.0002293
3703.64	0.0002099
3713.29	0.0004712
3722.93	0.0004875
3732.58	0.0005042
3742.22	0.0002956
3751.86	0.0002604
3761.51	0.0001496
3771.15	0.0002748
3780.8	0.0001666
3790.44	0.0004305
3800.09	0.0003338
3809.73	0.0002333
3819.38	0.0001717
3829.02	0.0001791
3838.67	0.0002929
3848.31	0.0003815
3857.96	0.0003976
3867.6	0.0002197
3877.25	0.0002969
3886.89	0.0002363
3896.54	0.0001401
3906.18	0.0001834
3915.83	0.0002286
3925.47	0.0002847
3935.12	0.0001861
3944.76	0.0003216
3954.41	0.0001914
3964.05	0.0004201
3973.69	0.0001941
3983.34	0.0003397
3992.98	0.0001465
