Infrared Spectrum: p-n-Propylphenol
Formula: C 9 H 12 O
CAS: 645-56-7
State: gas
Instrument: HP-GC/MS/IRD
Origin: NIST Mass Spectrometry Data Center
1/CM	ABSORBANCE
550	0.0019992
562	0.001764
574	0.000588
586	0.000147
598	0.0001092
610	6.3e-05
622	2.52e-05
634	8.4e-05
646	9.24e-05
658	0.0001176
670	0.0001092
682	0.0003192
694	0.0010668
706	0.0016884
718	0.0009408
730	0.0004956
742	0.0007392
754	0.00147
766	0.002205
778	0.0023394
790	0.0044016
802	0.0063504
814	0.007392
826	0.00735
838	0.006762
850	0.0047208
862	0.0019026
874	0.0010668
886	0.0007392
898	0.0005418
910	0.0003738
922	0.0002604
934	0.0001848
946	0.0001974
958	0.0001806
970	0.0002478
982	0.0003024
994	0.0003108
1006	0.0006636
1018	0.000861
1030	0.0006888
1042	0.0008232
1054	0.0013188
1066	0.0017304
1078	0.001869
1090	0.002709
1102	0.0037464
1114	0.0039648
1126	0.003234
1138	0.003297
1150	0.0061026
1162	0.0248472
1174	0.042
1186	0.0216132
1198	0.0109284
1210	0.007644
1222	0.0061824
1234	0.0067284
1246	0.0164472
1258	0.0219324
1270	0.0074004
1282	0.0023394
1294	0.001785
1306	0.0022722
1318	0.0042
1330	0.0060816
1342	0.0047124
1354	0.002016
1366	0.0012012
1378	0.0014406
1390	0.0015624
1402	0.0012894
1414	0.001932
1426	0.0039228
1438	0.0046452
1450	0.0033558
1462	0.0034104
1474	0.0031668
1486	0.003654
1498	0.0105
1510	0.0293118
1522	0.0207312
1534	0.0041328
1546	0.0016464
1558	0.0011508
1570	0.0014238
1582	0.0030282
1594	0.005712
1606	0.006951
1618	0.006384
1630	0.0029652
1642	0.0013146
1654	0.0007896
1666	0.0005376
1678	0.0003738
1690	0.0002982
1702	0.0002856
1714	0.0003108
1726	0.0003444
1738	0.0004074
1750	0.0004956
1762	0.0003276
1774	0.0001302
1786	0.0001008
1798	9.24e-05
1810	0.0001008
1822	0.0001386
1834	0.000231
1846	0.0003864
1858	0.0005922
1870	0.0007728
1882	0.0006342
1894	0.0003654
1906	0.000189
1918	0.000105
1930	0.0001092
1942	0.000105
1954	0.0001134
1966	0.0001344
1978	0.0001302
1990	0.0001344
2002	0.0001932
2014	0.0001974
2026	0.000189
2038	0.0001974
2050	0.0001554
2062	0.000168
2074	0.0001848
2086	0.0001848
2098	0.0001638
2110	9.66e-05
2122	5.88e-05
2134	4.2e-05
2146	2.52e-05
2158	2.94e-05
2170	1.68e-05
2182	2.1e-05
2194	5.04e-05
2206	2.94e-05
2218	0
2230	3.78e-05
2242	5.04e-05
2254	4.2e-05
2266	3.78e-05
2278	0.0001008
2290	0.000126
2302	0.000126
2314	0.0001554
2326	0.0001806
2338	0.000252
2350	0.0002394
2362	0.0001554
2374	0.000126
2386	0.0001344
2398	0.0001722
2410	0.000357
2422	0.0005964
2434	0.0004872
2446	0.0002688
2458	0.0001596
2470	0.0001638
2482	0.0001974
2494	0.0002562
2506	0.000273
2518	0.0001638
2530	0.000105
2542	0.0001218
2554	7.98e-05
2566	4.2e-05
2578	0.0001008
2590	0.000168
2602	0.0001974
2614	0.0002142
2626	0.0001428
2638	0.000231
2650	0.000189
2662	0.000252
2674	0.0002688
2686	0.0002394
2698	0.0002058
2710	0.0002394
2722	0.0003234
2734	0.0003276
2746	0.000399
2758	0.0004158
2770	0.0004578
2782	0.0005124
2794	0.0006132
2806	0.0007686
2818	0.000966
2830	0.0013776
2842	0.002352
2854	0.004305
2866	0.0067956
2878	0.0093282
2890	0.0083118
2902	0.0068292
2914	0.0096558
2926	0.0155064
2938	0.0190974
2950	0.0156744
2962	0.0149436
2974	0.0156744
2986	0.0084462
2998	0.0051408
3010	0.0064554
3022	0.0073164
3034	0.0070686
3046	0.0053592
3058	0.0035574
3070	0.0028896
3082	0.0021504
3094	0.0014826
3106	0.0011634
3118	0.000966
3130	0.0006972
3142	0.0004956
3154	0.000336
3166	0.000252
3178	0.0002016
3190	0.0002226
3202	0.0001932
3214	0.0001386
3226	0.0001302
3238	9.24e-05
3250	0
3262	7.98e-05
3274	5.04e-05
3286	4.2e-06
3298	6.72e-05
3310	2.52e-05
3322	5.88e-05
3334	4.2e-05
3346	0.0001554
3358	0.0001932
3370	0.0001848
3382	0.0001932
3394	0.0001974
3406	0.00021
3418	0.000168
3430	0.0001554
3442	9.24e-05
3454	0.0001176
3466	9.66e-05
3478	6.72e-05
3490	9.66e-05
3502	5.46e-05
3514	2.1e-05
3526	2.94e-05
3538	2.52e-05
3550	4.62e-05
3562	7.98e-05
3574	8.82e-05
3586	0.000168
3598	0.0001848
3610	0.000378
3622	0.0009786
3634	0.0032928
3646	0.0130452
3658	0.0142926
3670	0.0030618
3682	0.000651
3694	0.0002646
3706	0.000105
3718	0.0001596
3730	8.4e-05
3742	9.66e-05
3754	7.56e-05
3766	8.82e-05
3778	7.98e-05
3790	0.0001386
3802	0.0001764
3814	0.0001512
3826	0.0001554
3838	0.00021
