Infrared Spectrum: Benzene, 1-iodo-3-nitro-
Formula: C6 H4 I N O2
CAS: 645-00-1
State: SOLUTION (CCl4 FOR 2-11, CS2 FOR 10.8-16 MICRON) VS SOLVENT
Melting point: 37-39 C
Class: COBLENTZ III
Instrument: BAIRD (GRATING)
Instrument parameters: NaCl PRISM
Sampling: TRANSMISSION
Path length: 0.01 CM, AND 0.01 CM , REFERENCES : 0.005 CM
Resolution: 2
Origin: WYANDOTTE CHEMICALS CORP..
1/CM	TRANSMITTANCE
626	0.9213
635	0.8669
644	0.8668
653	0.6788
662	0.632
671	0.9116
680	0.9388
689	0.9091
698	0.7558
707	0.2475
716	0.2555
725	0.0962
734	0.4723
743	0.8756
752	0.9332
761	0.9241
770	0.9059
779	0.8468
788	0.6442
797	0.1463
806	0.7588
815	0.9034
824	0.9203
833	0.9174
842	0.8462
851	0.7216
860	0.1973
869	0.7351
878	0.7361
887	0.3037
896	0.7892
905	0.91
914	0.7999
923	0.7221
932	0.9559
941	0.9915
950	0.9951
959	0.9954
968	0.984
977	0.8993
986	0.7915
995	0.5958
1004	0.45
1013	0.9601
1022	0.996
1031	0.9973
1040	0.9864
1049	0.7725
1058	0.1612
1067	0.7961
1076	0.8059
1085	0.7058
1094	0.4765
1103	0.1267
1112	0.1013
1121	0.0779
1130	0.4573
1139	0.7743
1148	0.733
1157	0.9148
1166	0.869
1175	0.8826
1184	0.9628
1193	0.9355
1202	0.8989
1211	0.9125
1220	0.9264
1229	0.9754
1238	0.9611
1247	0.8683
1256	0.6875
1265	0.3809
1274	0.1369
1283	0.5506
1292	0.36
1301	0.1811
1310	0.4605
1319	0.6286
1328	0.4456
1337	0.141
1346	0.017
1355	0.0175
1364	0.0747
1373	0.2936
1382	0.5248
1391	0.5308
1400	0.3959
1409	0.5134
1418	0.5714
1427	0.4707
1436	0.6986
1445	0.653
1454	0.5604
1463	0.2294
1472	0.0976
1481	0.2628
1490	0.2931
1499	0.3674
1508	0.2966
1517	0.1807
1526	0.1009
1535	0.0998
1544	0.1079
1553	0.1833
1562	0.1848
1571	0.282
1580	0.2892
1589	0.294
1598	0.308
1607	0.2426
1616	0.22
1625	0.4842
1634	0.7526
1643	0.7559
1652	0.7259
1661	0.8203
1670	0.8605
1679	0.9297
1688	0.9483
1697	0.9417
1706	0.9371
1715	0.9188
1724	0.8849
1733	0.8629
1742	0.9402
1751	0.9621
1760	0.9508
1769	0.9232
1778	0.9082
1787	0.9536
1796	0.9526
1805	0.9071
1814	0.9034
1823	0.9769
1832	0.989
1841	0.9898
1850	0.9895
1859	0.9896
1868	0.9925
1877	0.991
1886	0.966
1895	0.9356
1904	0.9553
1913	0.9823
1922	0.9991
1931	0.9963
1940	0.9781
1949	0.9657
1958	0.9716
1967	0.9848
1976	0.994
1985	0.9989
1994	1.0021
2003	1.0036
2012	1.0049
2021	1.006
2030	1.0069
2039	1.0071
2048	1.0052
2057	1.0025
2066	1.0018
2075	1.0039
2084	1.0041
2093	1.0015
2102	1.0008
2111	1.0028
2120	1.0019
2129	1.0026
2138	1.0031
2147	0.9985
2156	0.9969
2165	0.9996
2174	0.9992
2183	0.9969
2192	0.9941
2201	0.994
2210	0.9962
2219	0.9969
2228	0.9966
2237	0.9966
2246	0.9973
2255	0.9978
2264	0.9979
2273	0.998
2282	0.9985
2291	1.0037
2300	1.0085
2309	0.9992
2318	0.9935
2327	0.991
2336	0.9886
2345	0.983
2354	0.9672
2363	0.9499
2372	0.9466
2381	0.9675
2390	0.9803
2399	0.9902
2408	0.9939
2417	0.9929
2426	0.9879
2435	0.9798
2444	0.9712
2453	0.9682
2462	0.971
2471	0.9763
2480	0.9844
2489	0.9908
2498	0.9937
2507	0.9942
2516	0.9978
2525	0.994
2534	0.9937
2543	0.9932
2552	0.9926
2561	0.9918
2570	0.9907
2579	0.9891
2588	0.9864
2597	0.9848
2606	0.9868
2615	0.9882
2624	0.9896
2633	0.9906
2642	0.991
2651	0.9914
2660	0.9916
2669	0.9916
2678	0.9874
2687	0.9706
2696	0.9559
2705	0.9542
2714	0.9609
2723	0.9705
2732	0.9757
2741	0.979
2750	0.9818
2759	0.9833
2768	0.9836
2777	0.9823
2786	0.9832
2795	0.9861
2804	0.9869
2813	0.984
2822	0.976
2831	0.9671
2840	0.9619
2849	0.9604
2858	0.9203
2867	0.8394
2876	0.759
2885	0.679
2894	0.5981
2903	0.6018
2912	0.6985
2921	0.7997
2930	0.9002
2939	0.9116
2948	0.91
2957	0.9087
2966	0.9174
2975	0.9363
2984	0.9564
2993	0.9702
3002	0.9695
3011	0.9651
3020	0.9581
3029	0.9514
3038	0.9444
3047	0.9382
3056	0.9298
3065	0.9016
3074	0.7755
3083	0.6366
3092	0.4986
3101	0.3614
3110	0.2693
3119	0.2695
3128	0.2946
3137	0.4187
3146	0.5478
3155	0.6763
3164	0.804
3173	0.85
3182	0.8637
3191	0.8704
3200	0.878
3209	0.9012
3218	0.9336
3227	0.9504
3236	0.9697
3245	0.9849
3254	0.9878
3263	0.9881
3272	0.9886
3281	0.9894
3290	0.99
3299	0.9904
3308	0.9909
3317	0.9914
3326	0.9919
3335	0.9924
3344	0.9929
3353	0.9933
3362	0.9938
3371	0.9942
3380	0.9945
3389	0.9948
3398	0.9951
3407	0.9955
3416	0.9958
3425	0.996
3434	0.9961
3443	0.9962
3452	0.9958
3461	0.9953
3470	0.9947
3479	0.9939
3488	0.9928
3497	0.9918
3506	0.9908
3515	0.9901
3524	0.9899
3533	0.9898
3542	0.9896
3551	0.9897
3560	0.9903
3569	0.9908
3578	0.9913
3587	0.9914
3596	0.9915
3605	0.9917
3614	0.9916
3623	0.9915
3632	0.9916
3641	0.9918
3650	0.992
3659	0.9922
3668	0.9924
3677	0.9927
3686	0.9929
3695	0.9932
3704	0.9936
3713	0.9941
3722	0.9945
3731	0.9946
3740	0.9945
3749	0.9945
3758	0.9944
3767	0.9939
3776	0.9932
3785	0.9926
3794	0.9919
3803	0.9913
3812	0.9907
3821	0.9902
3830	0.9898
3839	0.9893
3848	0.9898
3857	0.9904
3866	0.991
3875	0.9916
3884	0.9917
3893	0.9918
3902	0.9917
3911	0.9909
3920	0.9899
3929	0.9888
3938	0.9887
3947	0.9887
3956	0.9887
3965	0.9895
3974	0.9912
3983	0.9927
3992	0.9932
