Infrared Spectrum: trans-2-Ethyl-2-hexenal
Formula: C 8 H 14 O
CAS: 645-62-5
State: gas
Instrument: HP-GC/MS/IRD
Origin: NIST Mass Spectrometry Data Center
1/CM	ABSORBANCE
550	0.0002205
562	0.0001395
574	5.4e-05
586	9e-06
598	0.0001665
610	0.00018
622	0.0003195
634	0.000297
646	0.0003465
658	0.0003825
670	0.0002655
682	0.0001845
694	0.0002205
706	0.00018
718	0.0003285
730	0.0005535
742	0.000837
754	0.001161
766	0.001584
778	0.001998
790	0.0024795
802	0.002871
814	0.0018855
826	0.001125
838	0.0008685
850	0.0007155
862	0.0006705
874	0.000873
886	0.0012915
898	0.0014715
910	0.0010665
922	0.00063
934	0.0004995
946	0.0005445
958	0.000774
970	0.0015525
982	0.002043
994	0.001584
1006	0.0011475
1018	0.0009
1030	0.000936
1042	0.00162
1054	0.003393
1066	0.003861
1078	0.0036315
1090	0.0028665
1102	0.0012555
1114	0.000693
1126	0.0004095
1138	0.0002745
1150	0.000306
1162	0.000459
1174	0.001215
1186	0.0027315
1198	0.00324
1210	0.0018945
1222	0.001188
1234	0.0010395
1246	0.0007785
1258	0.000792
1270	0.001161
1282	0.001188
1294	0.0007335
1306	0.000648
1318	0.000729
1330	0.001008
1342	0.001134
1354	0.001395
1366	0.002061
1378	0.0021375
1390	0.001845
1402	0.0014175
1414	0.0009675
1426	0.000999
1438	0.001593
1450	0.0026145
1462	0.0034605
1474	0.0026775
1486	0.0013275
1498	0.0007335
1510	0.000504
1522	0.0004275
1534	0.00045
1546	0.0004185
1558	0.0003915
1570	0.0004365
1582	0.000513
1594	0.000594
1606	0.0007965
1618	0.0015795
1630	0.0031545
1642	0.0040455
1654	0.002565
1666	0.002052
1678	0.0030915
1690	0.0101115
1702	0.0416205
1714	0.034569
1726	0.0054225
1738	0.0020115
1750	0.0011565
1762	0.000873
1774	0.0007605
1786	0.000639
1798	0.0004275
1810	0.000288
1822	0.000207
1834	0.0001575
1846	0.0001665
1858	0.000153
1870	0.0001125
1882	0.0001305
1894	0.000117
1906	8.55e-05
1918	7.2e-05
1930	6.75e-05
1942	7.2e-05
1954	7.2e-05
1966	9.45e-05
1978	0.000126
1990	0.0001215
2002	6.75e-05
2014	4.5e-05
2026	7.2e-05
2038	5.85e-05
2050	4.95e-05
2062	4.95e-05
2074	4.05e-05
2086	4.5e-05
2098	1.8e-05
2110	5.85e-05
2122	5.85e-05
2134	4.05e-05
2146	5.85e-05
2158	5.85e-05
2170	2.7e-05
2182	4.05e-05
2194	3.15e-05
2206	4.95e-05
2218	3.15e-05
2230	2.7e-05
2242	7.2e-05
2254	6.3e-05
2266	5.4e-05
2278	4.05e-05
2290	3.6e-05
2302	2.7e-05
2314	2.25e-05
2326	2.7e-05
2338	6.75e-05
2350	9e-05
2362	9.9e-05
2374	7.2e-05
2386	0.0001125
2398	0.000117
2410	0.000117
2422	0.0001035
2434	9.9e-05
2446	9.9e-05
2458	6.75e-05
2470	8.55e-05
2482	8.55e-05
2494	0.0001215
2506	0.000117
2518	0.0001395
2530	0.000108
2542	0.000153
2554	0.000189
2566	0.0001935
2578	0.0001665
2590	0.0002025
2602	0.0002655
2614	0.000288
2626	0.000351
2638	0.0004005
2650	0.0005265
2662	0.0007605
2674	0.001197
2686	0.002367
2698	0.0048195
2710	0.0058365
2722	0.0042255
2734	0.002808
2746	0.0023175
2758	0.002286
2770	0.0027045
2782	0.00324
2794	0.00405
2806	0.0055755
2818	0.0053595
2830	0.00342
2842	0.002547
2854	0.003096
2866	0.0047925
2878	0.0076275
2890	0.008271
2902	0.006849
2914	0.006723
2926	0.0087525
2938	0.0131535
2950	0.0147825
2962	0.016506
2974	0.020025
2986	0.013095
2998	0.0061785
3010	0.003258
3022	0.002151
3034	0.0016245
3046	0.0013095
3058	0.0010395
3070	0.00081
3082	0.0007065
3094	0.0006075
3106	0.0005265
3118	0.0005085
3130	0.000423
3142	0.000387
3154	0.000441
3166	0.0003825
3178	0.000333
3190	0.000261
3202	0.0002745
3214	0.0001755
3226	0.000171
3238	0.0002025
3250	0.0001845
3262	0.0001575
3274	0.0001035
3286	0.0001215
3298	0.000153
3310	0.000144
3322	0.0001125
3334	0.000162
3346	0.000153
3358	0.000207
3370	0.0002745
3382	0.00063
3394	0.0009225
3406	0.000522
3418	0.0002925
3430	0.0002025
3442	9e-05
3454	6.75e-05
3466	9e-05
3478	9e-06
3490	2.25e-05
3502	1.8e-05
3514	3.15e-05
3526	4.95e-05
3538	3.6e-05
3550	4.95e-05
3562	3.6e-05
3574	4.95e-05
3586	3.6e-05
3598	9e-06
3610	3.6e-05
3622	9.9e-05
3634	9.9e-05
3646	7.2e-05
3658	0.000117
3670	4.95e-05
3682	0.000126
3694	0.0001035
3706	0.000117
3718	0.000144
3730	0.0001755
3742	0.0001935
3754	0.0001575
3766	0.0001485
3778	0.00018
3790	0.000144
3802	0.000162
3814	0.0001575
3826	0.000171
3838	0.0001305
