Infrared Spectrum: (4-Isopropylphenyl)ethanone
Formula: C 11 H 14 O
CAS: 645-13-6
State: gas
Instrument: HP-GC/MS/IRD
Origin: NIST Mass Spectrometry Data Center
1/CM	ABSORBANCE
550	0.001292
562	0.0024888
574	0.003808
586	0.003978
598	0.0038454
610	0.0023698
622	0.0011118
634	0.0011662
646	0.0020264
658	0.001751
670	0.0004352
682	0.0001972
694	3.06e-05
706	6.12e-05
718	9.52e-05
730	0.0001428
742	0.000187
754	0.0001496
766	0.0002992
778	0.0004318
790	0.0004352
802	0.0010302
814	0.0029988
826	0.005729
838	0.0052156
850	0.0025092
862	0.000799
874	0.0004692
886	0.000493
898	0.0004488
910	0.0003944
922	0.0006562
934	0.001717
946	0.0041072
958	0.0045322
970	0.0018462
982	0.0009962
994	0.0010132
1006	0.00238
1018	0.0031382
1030	0.0010574
1042	0.0013158
1054	0.0028084
1066	0.0026486
1078	0.0029342
1090	0.0016524
1102	0.0016728
1114	0.0018292
1126	0.0012342
1138	0.0013668
1150	0.0011118
1162	0.0008262
1174	0.0016592
1186	0.0046988
1198	0.002448
1210	0.0021284
1222	0.0039508
1234	0.0062186
1246	0.011237
1258	0.0304742
1270	0.0212194
1282	0.007344
1294	0.0043724
1306	0.0034238
1318	0.0019176
1330	0.0022576
1342	0.0036992
1354	0.0087618
1366	0.0104788
1378	0.004488
1390	0.003315
1402	0.004301
1414	0.0056746
1426	0.0036312
1438	0.0026656
1450	0.0025364
1462	0.0030022
1474	0.0027574
1486	0.0014994
1498	0.0010744
1510	0.0009044
1522	0.0008806
1534	0.0009044
1546	0.0010812
1558	0.0017136
1570	0.0023426
1582	0.0020026
1594	0.0043384
1606	0.0107406
1618	0.0052224
1630	0.0016388
1642	0.0016286
1654	0.0021522
1666	0.0028152
1678	0.0048654
1690	0.015436
1702	0.034
1714	0.0159426
1726	0.004437
1738	0.0020638
1750	0.001547
1762	0.001139
1774	0.0007038
1786	0.0004658
1798	0.0005066
1810	0.0004998
1822	0.00034
1834	0.0002346
1846	0.0002482
1858	0.0002312
1870	0.000238
1882	0.0003366
1894	0.0004692
1906	0.0005644
1918	0.0005304
1930	0.0003706
1942	0.0002992
1954	0.0002142
1966	0.0001224
1978	0.0001088
1990	0.0001054
2002	8.5e-05
2014	0.0001326
2026	0.0001496
2038	0.0001564
2050	4.42e-05
2062	6.8e-06
2074	0
2086	4.42e-05
2098	1.36e-05
2110	1.36e-05
2122	2.04e-05
2134	3.06e-05
2146	3.06e-05
2158	4.08e-05
2170	1.7e-05
2182	6.8e-06
2194	1.36e-05
2206	4.42e-05
2218	3.74e-05
2230	1.36e-05
2242	1.02e-05
2254	4.76e-05
2266	3.74e-05
2278	5.44e-05
2290	7.82e-05
2302	7.82e-05
2314	0.0001088
2326	8.5e-05
2338	9.18e-05
2350	6.46e-05
2362	4.76e-05
2374	5.44e-05
2386	5.44e-05
2398	2.04e-05
2410	1.36e-05
2422	3.4e-06
2434	2.38e-05
2446	3.06e-05
2458	3.74e-05
2470	3.4e-05
2482	6.46e-05
2494	6.8e-05
2506	7.14e-05
2518	0.000102
2530	8.16e-05
2542	8.84e-05
2554	0.0001224
2566	0.0001088
2578	0.0001598
2590	0.0001564
2602	0.0001428
2614	0.0001326
2626	9.52e-05
2638	6.46e-05
2650	6.12e-05
2662	5.44e-05
2674	7.82e-05
2686	6.8e-05
2698	6.8e-05
2710	0.0001156
2722	0.0001564
2734	0.0001768
2746	0.0001836
2758	0.0001938
2770	0.0002584
2782	0.0002108
2794	0.000255
2806	0.0003706
2818	0.0004794
2830	0.0005168
2842	0.0007514
2854	0.0012886
2866	0.0024684
2878	0.0045832
2890	0.0051442
2902	0.0050048
2914	0.0053346
2926	0.0058514
2938	0.0073202
2950	0.0078064
2962	0.015079
2974	0.02176
2986	0.0079968
2998	0.0037604
3010	0.0034374
3022	0.003213
3034	0.0035156
3046	0.0027744
3058	0.0024208
3070	0.0022848
3082	0.0024344
3094	0.0021284
3106	0.0012852
3118	0.0009214
3130	0.0006596
3142	0.0004284
3154	0.0003842
3166	0.0002924
3178	0.0002652
3190	0.0002584
3202	0.0002312
3214	0.0002108
3226	0.0001666
3238	0.0001054
3250	7.48e-05
3262	5.44e-05
3274	3.4e-05
3286	0
3298	6.8e-06
3310	4.76e-05
3322	4.08e-05
3334	6.8e-05
3346	8.84e-05
3358	0.0001394
3370	0.0002958
3382	0.0005746
3394	0.0005134
3406	0.0001802
3418	0.0001054
3430	6.46e-05
3442	5.78e-05
3454	2.72e-05
3466	4.42e-05
3478	3.06e-05
3490	2.72e-05
3502	5.78e-05
3514	3.4e-05
3526	4.08e-05
3538	4.42e-05
3550	4.08e-05
3562	5.44e-05
3574	5.44e-05
3586	3.74e-05
3598	4.08e-05
3610	5.78e-05
3622	5.44e-05
3634	4.42e-05
3646	7.48e-05
3658	8.5e-05
3670	0.0001088
3682	5.1e-05
3694	6.8e-05
3706	0.0001088
3718	0.0001394
3730	7.82e-05
3742	6.46e-05
3754	6.46e-05
3766	4.08e-05
3778	4.08e-05
3790	9.18e-05
3802	0.0001054
3814	0.000119
3826	0.0001462
3838	6.8e-05
