Infrared Spectrum: 3-Phenylpropionyl chloride
Formula: C 9 H 9 Cl O
CAS: 645-45-4
State: gas
Origin: EPA-IR VAPOR PHASE LIBRARY
1/CM	ABSORBANCE
549.8	0.014984
559.445	0.017134
569.09	0.016334
578.734	0.015914
588.379	0.016384
598.024	0.015894
607.669	0.010224
617.313	0.006464
626.958	0.004534
636.603	0.004434
646.248	0.004964
655.893	0.006154
665.537	0.008864
675.182	0.015414
684.827	0.026564
694.472	0.035084
704.116	0.032614
713.761	0.031064
723.406	0.032194
733.051	0.024474
742.695	0.020254
752.34	0.015504
761.985	0.009884
771.63	0.006574
781.275	0.004564
790.919	0.004034
800.564	0.003454
810.209	0.003534
819.854	0.004594
829.498	0.006784
839.143	0.008974
848.788	0.010034
858.433	0.011914
868.078	0.013454
877.722	0.013644
887.367	0.014084
897.012	0.015944
906.657	0.019524
916.301	0.019504
925.946	0.015174
935.591	0.015274
945.236	0.019674
954.88	0.027164
964.525	0.027364
974.17	0.023844
983.815	0.018274
993.46	0.014264
1003.1	0.015254
1012.75	0.020134
1022.39	0.032324
1032.04	0.036444
1041.68	0.028464
1051.33	0.017804
1060.97	0.011304
1070.62	0.008594
1080.26	0.007414
1089.91	0.005124
1099.55	0.004104
1109.2	0.004264
1118.84	0.003264
1128.49	0.003744
1138.13	0.003984
1147.78	0.004364
1157.42	0.005494
1167.07	0.007374
1176.71	0.008754
1186.36	0.007954
1196	0.006634
1205.64	0.005284
1215.29	0.004364
1224.93	0.004104
1234.58	0.003574
1244.22	0.003164
1253.87	0.002834
1263.51	0.003294
1273.16	0.003234
1282.8	0.002314
1292.45	0.002204
1302.09	0.002414
1311.74	0.003184
1321.38	0.003814
1331.03	0.004694
1340.67	0.005494
1350.32	0.005194
1359.96	0.004114
1369.61	0.003084
1379.25	0.002674
1388.9	0.002694
1398.54	0.003434
1408.18	0.004894
1417.83	0.006134
1427.47	0.006554
1437.12	0.007414
1446.76	0.009504
1456.41	0.009214
1466.05	0.005844
1475.7	0.003594
1485.34	0.004804
1494.99	0.011524
1504.63	0.008674
1514.28	0.002244
1523.92	0.001554
1533.57	0.001474
1543.21	0.001294
1552.86	0.001214
1562.5	0.001334
1572.15	0.001634
1581.79	0.002454
1591.44	0.003894
1601.08	0.005904
1610.73	0.004394
1620.37	0.001604
1630.01	0.0009315
1639.66	0.0008857
1649.3	0.0009312
1658.95	0.000812
1668.59	0.0007978
1678.24	0.0007656
1687.88	0.000787
1697.53	0.0009722
1707.17	0.001354
1716.82	0.001894
1726.46	0.002594
1736.11	0.003624
1745.75	0.005214
1755.4	0.007864
1765.04	0.012294
1774.69	0.020574
1784.33	0.037014
1793.98	0.066464
1803.62	0.097184
1813.27	0.097954
1822.91	0.064404
1832.55	0.032934
1842.2	0.017924
1851.84	0.011814
1861.49	0.008704
1871.13	0.006864
1880.78	0.005534
1890.42	0.004284
1900.07	0.003554
1909.71	0.003104
1919.36	0.002844
1929	0.003034
1938.65	0.003114
1948.29	0.003094
1957.94	0.002714
1967.58	0.001724
1977.23	0.001344
1986.87	0.001264
1996.52	0.001154
2006.16	0.0011039
2015.81	0.0010631
2025.45	0.0010996
2035.1	0.0010736
2044.74	0.001184
2054.38	0.001484
2064.03	0.002044
2073.67	0.002854
2083.32	0.004194
2092.96	0.007204
2102.61	0.013264
2112.25	0.025144
2121.9	0.040764
2131.54	0.040204
2141.19	0.020924
2150.83	0.008394
2160.48	0.004224
2170.12	0.002444
2179.77	0.001794
2189.41	0.001324
2199.06	0.0010448
2208.7	0.0008811
2218.35	0.0008007
2227.99	0.000845
2237.64	0.0008736
2247.28	0.0009581
2256.92	0.0008716
2266.57	0.0007341
2276.21	0.0006281
2285.86	0.0007019
2295.5	0.000722
2305.15	0.0009353
2314.79	0.0009386
2324.44	0.0008374
2334.08	0.0008214
2343.73	0.0007834
2353.37	0.0007938
2363.02	0.0008698
2372.66	0.0007976
2382.31	0.0005727
2391.95	0.0004644
2401.6	0.0004318
2411.24	0.0004092
2420.89	0.0005154
2430.53	0.0003678
2440.18	0.0003759
2449.82	0.0003707
2459.47	0.0003229
2469.11	0.0003619
2478.75	0.0003029
2488.4	0.000399
2498.04	0.0003136
2507.69	0.0002216
2517.33	0.0003761
2526.98	0.0003442
2536.62	0.00020206
2546.27	0.0003264
2555.91	0.000323
2565.56	0.0003417
2575.2	0.0003079
2584.85	0.0004446
2594.49	0.0003254
2604.14	0.0004347
2613.78	0.0003919
2623.43	0.000464
2633.07	0.0004761
2642.72	0.0004559
2652.36	0.0005718
2662.01	0.000445
2671.65	0.0004157
2681.29	0.0002544
2690.94	0.000358
2700.58	0.000735
2710.23	0.0002668
2719.87	0.0004388
2729.52	0.0007
2739.16	0.0005114
2748.81	0.0009142
2758.45	0.0006496
2768.1	0.00064
2777.74	0.0010991
2787.39	0.0010513
2797.03	0.001534
2806.68	0.0008871
2816.32	0.0009472
2825.97	0.0008112
2835.61	0.001154
2845.26	0.001754
2854.9	0.002154
2864.55	0.003384
2874.19	0.003544
2883.84	0.003074
2893.48	0.002824
2903.12	0.003484
2912.77	0.004904
2922.41	0.007914
2932.06	0.009974
2941.7	0.010704
2951.35	0.008464
2960.99	0.007594
2970.64	0.005754
2980.28	0.005744
2989.93	0.003904
2999.57	0.004264
3009.22	0.005624
3018.86	0.009094
3028.51	0.016734
3038.15	0.019004
3047.8	0.012394
3057.44	0.010884
3067.09	0.016844
3076.73	0.018204
3086.38	0.011504
3096.02	0.008534
3105.67	0.005964
3115.31	0.003684
3124.95	0.001854
3134.6	0.0008672
3144.24	0.0006228
3153.89	0.0004926
3163.53	0.0004775
3173.18	0.0005245
3182.82	0.0003923
3192.47	0.0004564
3202.11	0.0003676
3211.76	0.00020702
3221.4	0.0003251
3231.05	0.000331
3240.69	0.000334
3250.34	0.0003576
3259.98	0.0003004
3269.63	0.000117902
3279.27	0.0003083
3288.92	0.0002805
3298.56	0.0003756
3308.21	0.00018158
3317.85	8.9e-05
3327.49	0.0001293
3337.14	0.0002979
3346.78	0.0003008
3356.43	0.0003665
3366.07	0.00011081
3375.72	0.00017325
3385.36	0.0002884
3395.01	0.0002299
3404.65	0.0003734
3414.3	0.00016811
3423.94	0.0004268
3433.59	0.0002431
3443.23	0.0003288
3452.88	0.0002989
3462.52	0.0003133
3472.17	0.0002768
3481.81	0.0003104
3491.46	0.0005249
3501.1	0.0005759
3510.75	0.0005543
3520.39	0.0005194
3530.04	0.0004602
3539.68	0.0006539
3549.32	0.0006003
3558.97	0.0006843
3568.61	0.001134
3578.26	0.001604
3587.9	0.001844
3597.55	0.001894
3607.19	0.001664
3616.84	0.001154
3626.48	0.0009287
3636.13	0.0005463
3645.77	0.000514
3655.42	0.0006568
3665.06	0.000479
3674.71	0.0002886
3684.35	0.0003001
3694	0.0002686
3703.64	0.0003664
3713.29	0.0002677
3722.93	0.0002192
3732.58	0.0002595
3742.22	0.0003375
3751.86	0.0003519
3761.51	0.0003769
3771.15	0.00017822
3780.8	0.0004267
3790.44	0.0002395
3800.09	4.85e-05
3809.73	0.00020511
3819.38	0.0003072
3829.02	0.0003362
3838.67	0.00010471
3848.31	0.0003453
3857.96	0.00016388
3867.6	0.0003639
3877.25	0.0002353
3886.89	0.0003767
3896.54	0.0002263
3906.18	0.0002486
3915.83	0.00015162
3925.47	0.0002593
3935.12	0.0002812
3944.76	0.0004799
3954.41	0.0004252
3964.05	0.0002821
3973.69	0.0002569
3983.34	0.00021071
3992.98	0.00014767
