Infrared Spectrum: AMMELIDE
Formula: C3 H4 N4 O2
CAS: 645-93-2
State: SOLID (MULL)
Melting point: DEC.
Class: COBLENTZ
Instrument: Not specified, most likely a prism, grating, or hybrid spectrometer.
Sampling: TRANSMISSION
Resolution: 4
Origin: WYANDOTTE CHEMICALS CORP., WYANDOTTE, MICHIGAN, USA
MICROMETERS	TRANSMITTANCE
2.055	0.499
2.09492	0.515
2.13484	0.532
2.17476	0.542
2.21469	0.56
2.25461	0.579
2.29453	0.595
2.33445	0.618
2.37437	0.63
2.41429	0.653
2.45422	0.675
2.49414	0.687
2.53406	0.705
2.57398	0.752
2.6139	0.765
2.65382	0.806
2.69375	0.831
2.73367	0.848
2.77359	0.881
2.81351	0.883
2.85343	0.883
2.89335	0.866
2.93328	0.821
2.9732	0.592
3.01312	0.271
3.05304	0.123
3.09296	0.123
3.13288	0.139
3.1728	0.124
3.21273	0.114
3.25265	0.134
3.29257	0.138
3.33249	0.086
3.37241	0.028
3.41233	0.028
3.45226	0.036
3.49218	0.031
3.5321	0.078
3.57202	0.103
3.61194	0.133
3.65186	0.148
3.69179	0.144
3.73171	0.144
3.77163	0.144
3.81155	0.138
3.85147	0.143
3.89139	0.141
3.93132	0.154
3.97124	0.163
4.01116	0.163
4.05108	0.183
4.091	0.199
4.13092	0.224
4.17084	0.244
4.21077	0.279
4.25069	0.297
4.29061	0.309
4.33053	0.361
4.37045	0.399
4.41037	0.442
4.4503	0.482
4.49022	0.517
4.53014	0.542
4.57006	0.56
4.60998	0.61
4.6499	0.63
4.68983	0.665
4.72975	0.65
4.76967	0.688
4.80959	0.728
4.84951	0.753
4.88943	0.792
4.92936	0.831
4.96928	0.855
5.0092	0.885
5.04912	0.905
5.08904	0.92
5.12896	0.93
5.16888	0.933
5.20881	0.951
5.24873	0.955
5.28865	0.956
5.32857	0.938
5.36849	0.875
5.40841	0.865
5.44834	0.753
5.48826	0.642
5.52818	0.472
5.5681	0.397
5.60802	0.379
5.64794	0.319
5.68787	0.169
5.72779	0.059
5.76771	0.033
5.80763	0.053
5.84755	0.073
5.88747	0.053
5.9274	0.046
5.96732	0.038
6.00724	0.043
6.04716	0.036
6.08708	0.043
6.127	0.064
6.16693	0.114
6.20685	0.119
6.24677	0.093
6.28669	0.069
6.32661	0.069
6.36653	0.069
6.40645	0.083
6.44638	0.086
6.4863	0.086
6.52622	0.091
6.56614	0.128
6.60606	0.151
6.64598	0.158
6.68591	0.166
6.72583	0.138
6.76575	0.053
6.80567	0.033
6.84559	0.038
6.88551	0.053
6.92544	0.101
6.96536	0.113
7.00528	0.038
7.0452	0.036
7.08512	0.048
7.12504	0.068
7.16497	0.099
7.20489	0.093
7.24481	0.069
7.28473	0.084
7.32465	0.108
7.36457	0.153
7.40449	0.178
7.44442	0.194
7.48434	0.201
7.52426	0.206
7.56418	0.221
7.6041	0.254
7.64402	0.292
7.68395	0.319
7.72387	0.351
7.76379	0.382
7.80371	0.402
7.84363	0.427
7.88355	0.277
7.92348	0.342
7.9634	0.402
8.00332	0.447
8.04324	0.467
8.08316	0.489
8.12308	0.505
8.16301	0.53
8.20293	0.547
8.24285	0.562
8.28277	0.59
8.32269	0.61
8.36261	0.615
8.40253	0.449
8.44246	0.164
8.48238	0.188
8.5223	0.357
8.56222	0.449
8.60214	0.495
8.64206	0.52
8.68199	0.55
8.72191	0.574
8.76183	0.595
8.80175	0.612
8.84167	0.618
8.88159	0.62
8.92152	0.622
8.96144	0.63
9.00136	0.633
9.04128	0.633
9.0812	0.555
9.12112	0.317
9.16105	0.422
9.20097	0.525
9.24089	0.587
9.28081	0.608
9.32073	0.625
9.36065	0.63
9.40057	0.635
9.4405	0.633
9.48042	0.628
9.52034	0.589
9.56026	0.564
9.60018	0.612
9.6401	0.632
9.68003	0.645
9.71995	0.65
9.75987	0.657
9.79979	0.657
9.83971	0.66
9.87963	0.66
9.91956	0.655
9.95948	0.632
9.9994	0.572
10.0393	0.497
10.0792	0.409
10.1192	0.369
10.1591	0.357
10.199	0.361
10.2389	0.376
10.2789	0.397
10.3188	0.42
10.3587	0.447
10.3986	0.457
10.4385	0.47
10.4785	0.489
10.5184	0.502
10.5583	0.515
10.5982	0.53
10.6381	0.529
10.6781	0.515
10.718	0.494
10.7579	0.464
10.7978	0.422
10.8378	0.347
10.8777	0.286
10.9176	0.247
10.9575	0.237
10.9974	0.257
11.0374	0.297
11.0773	0.344
11.1172	0.399
11.1571	0.444
11.197	0.465
11.237	0.485
11.2769	0.48
11.3168	0.457
11.3567	0.419
11.3967	0.367
11.4366	0.324
11.4765	0.304
11.5164	0.299
11.5563	0.314
11.5963	0.359
11.6362	0.404
11.6761	0.472
11.716	0.522
11.7559	0.564
11.7959	0.607
11.8358	0.635
11.8757	0.663
11.9156	0.688
11.9556	0.705
11.9955	0.727
12.0354	0.737
12.0753	0.747
12.1152	0.753
12.1552	0.762
12.1951	0.765
12.235	0.77
12.2749	0.763
12.3149	0.768
12.3548	0.753
12.3947	0.753
12.4346	0.75
12.4745	0.74
12.5145	0.725
12.5544	0.713
12.5943	0.697
12.6342	0.65
12.6741	0.575
12.7141	0.437
12.754	0.274
12.7939	0.199
12.8338	0.181
12.8738	0.211
12.9137	0.319
12.9536	0.479
12.9935	0.628
13.0334	0.703
13.0734	0.758
13.1133	0.795
13.1532	0.813
13.1931	0.821
13.233	0.818
13.273	0.821
13.3129	0.82
13.3528	0.815
13.3927	0.806
13.4327	0.782
13.4726	0.753
13.5125	0.738
13.5524	0.745
13.5923	0.748
13.6323	0.733
13.6722	0.712
13.7121	0.718
13.752	0.725
13.792	0.715
13.8319	0.703
13.8718	0.693
13.9117	0.68
13.9516	0.672
13.9916	0.67
14.0315	0.655
14.0714	0.637
14.1113	0.613
14.1512	0.587
14.1912	0.569
14.2311	0.532
14.271	0.495
14.3109	0.455
14.3509	0.407
14.3908	0.342
14.4307	0.289
14.4706	0.221
14.5105	0.178
14.5505	0.169
14.5904	0.194
14.6303	0.221
14.6702	0.236
14.7101	0.247
14.7501	0.259
14.79	0.266
14.8299	0.272
14.8698	0.281
14.9098	0.294
14.9497	0.304
14.9896	0.311
15.0295	0.319
15.0694	0.329
15.1094	0.346
15.1493	0.336
15.1892	0.306
15.2291	0.299
15.2691	0.321
15.309	0.369
15.3489	0.402
15.3888	0.437
15.4287	0.462
15.4687	0.475
15.5086	0.49
15.5485	0.494
15.5884	0.49
15.6283	0.499
15.6683	0.502
15.7082	0.504
15.7481	0.5
15.788	0.497
15.828	0.492
15.8679	0.494
15.9078	0.49
15.9477	0.487
15.9876	0.482
