Infrared Spectrum: PHOSPHORIC ACID, BIS(p-NITROPHENYL) ESTER
Formula: C12 H9 N2 O8 P
CAS: 645-15-8
State: SOLID (SPLIT MULL), FLUOROLUBE FOR 3800-1330 CM^-^1, NUJOL FOR 1330-450 CM^-^1
Class: COBLENTZ III
Instrument: DOW KBr FOREPRISM-GRATING
Instrument parameters: BLAZED AT 3.5, 12.0, 20.0 MICRON AND CHANGED AT 5.0, 7.5, 14.9 MICRON
Sampling: TRANSMISSION
Resolution: 2
Origin: DOW CHEMICAL COMPANY
1/CM	TRANSMITTANCE
454.746	0.705
463.576	0.682
472.406	0.59
481.236	0.76
490.066	0.865
498.896	0.921
507.726	0.925
516.556	0.884
525.386	0.662
534.216	0.574
543.046	0.744
551.876	0.628
560.706	0.828
569.536	0.913
578.366	0.932
587.196	0.935
596.026	0.936
604.856	0.884
613.686	0.731
622.516	0.889
631.346	0.866
640.176	0.639
649.006	0.976
657.836	0.988
666.666	0.982
675.496	0.976
684.326	0.664
693.156	0.891
701.986	0.95
710.816	0.939
719.646	0.891
728.476	0.887
737.307	0.833
746.137	0.624
754.967	0.685
763.797	0.848
772.627	0.716
781.457	0.738
790.287	0.899
799.117	0.891
807.947	0.872
816.777	0.79
825.607	0.807
834.437	0.777
843.267	0.735
852.097	0.309
860.927	0.125
869.757	0.693
878.587	0.767
887.417	0.759
896.247	0.755
905.077	0.741
913.907	0.704
922.737	0.634
931.567	0.368
940.397	0.569
949.227	0.572
958.057	0.306
966.887	0.376
975.717	0.18
984.547	0.081
993.377	0.248
1002.21	0.321
1011.04	0.244
1019.87	0.276
1028.7	0.305
1037.53	0.357
1046.36	0.415
1055.19	0.477
1064.02	0.515
1072.85	0.544
1081.68	0.55
1090.51	0.458
1099.34	0.444
1108.17	0.371
1117	0.426
1125.83	0.455
1134.66	0.5
1143.49	0.544
1152.32	0.352
1161.15	0.499
1169.98	0.547
1178.81	0.561
1187.64	0.321
1196.47	0.078
1205.3	0.184
1214.13	0.104
1222.96	0.134
1231.79	0.16
1240.62	0.253
1249.45	0.441
1258.28	0.66
1267.11	0.751
1275.94	0.793
1284.77	0.774
1293.6	0.85
1302.43	0.85
1311.26	0.817
1320.09	0.702
1328.92	0.861
1337.75	0.738
1346.58	0.231
1355.41	0.048
1364.24	0.759
1373.07	0.702
1381.9	0.869
1390.73	0.965
1399.56	0.973
1408.39	0.942
1417.22	0.916
1426.05	0.962
1434.88	0.929
1443.71	0.949
1452.54	0.938
1461.37	0.916
1470.2	0.847
1479.03	0.592
1487.86	0.24
1496.69	0.682
1505.52	0.869
1514.35	0.839
1523.18	0.767
1532.01	0.658
1540.84	0.337
1549.67	0.116
1558.5	0.654
1567.33	0.76
1576.16	0.723
1584.99	0.478
1593.82	0.524
1602.65	0.752
1611.48	0.719
1620.31	0.233
1629.14	0.83
1637.97	0.872
1646.8	0.903
1655.63	0.924
1664.46	0.929
1673.29	0.925
1682.12	0.942
1690.95	0.96
1699.78	0.971
1708.61	0.962
1717.44	0.962
1726.27	0.971
1735.1	0.973
1743.93	0.918
1752.76	0.896
1761.59	0.921
1770.42	0.972
1779.25	0.976
1788.08	0.976
1796.91	0.99
1805.74	0.993
1814.57	0.99
1823.4	0.987
1832.23	0.982
1841.06	0.976
1849.89	0.968
1858.72	0.961
1867.55	0.951
1876.38	0.942
1885.21	0.933
1894.04	0.922
1902.87	0.913
1911.7	0.895
1920.53	0.869
1929.36	0.869
1938.19	0.874
1947.02	0.877
1955.85	0.877
1964.68	0.872
1973.51	0.869
1982.34	0.866
1991.17	0.855
2000	0.869
2008.83	0.876
2017.66	0.877
2026.49	0.88
2035.32	0.8811
2044.15	0.884
2052.98	0.887
2061.81	0.887
2070.64	0.884
2079.47	0.885
2088.3	0.887
2097.13	0.888
2105.96	0.8911
2114.79	0.894
2123.62	0.8951
2132.45	0.8991
2141.28	0.9033
2150.11	0.907
2158.94	0.9091
2167.77	0.91
2176.6	0.91
2185.43	0.91
2194.26	0.911
2203.09	0.913
2211.92	0.914
2220.75	0.914
2229.58	0.9172
2238.41	0.918
2247.24	0.9168
2256.07	0.9126
2264.9	0.9068
2273.73	0.8998
2282.56	0.898
2291.39	0.896
2300.22	0.8935
2309.05	0.892
2317.88	0.8953
2326.71	0.899
2335.54	0.9053
2344.37	0.9116
2353.2	0.914
2362.03	0.9084
2370.86	0.905
2379.69	0.899
2388.52	0.8973
2397.35	0.894
2406.18	0.894
2415.01	0.8967
2423.84	0.9008
2432.67	0.9008
2441.5	0.905
2450.33	0.9008
2459.16	0.891
2467.99	0.9094
2476.82	0.9169
2485.65	0.9204
2494.48	0.9229
2503.31	0.927
2512.14	0.928
2520.97	0.9299
2529.8	0.933
2538.63	0.937
2547.46	0.9385
2556.29	0.938
2565.12	0.938
2573.95	0.942
2582.78	0.942
2591.61	0.939
2600.44	0.935
2609.27	0.935
2618.1	0.939
2626.93	0.935
2635.76	0.936
2644.59	0.939
2653.42	0.9426
2662.25	0.947
2671.08	0.949
2679.91	0.949
2688.74	0.949
2697.57	0.9496
2706.4	0.95
2715.23	0.953
2724.06	0.9546
2732.89	0.9546
2741.72	0.957
2750.55	0.957
2759.38	0.954
2768.21	0.954
2777.04	0.9564
2785.87	0.9607
2794.7	0.9617
2803.53	0.962
2812.36	0.962
2821.19	0.96
2830.02	0.954
2838.85	0.9453
2847.68	0.8979
2856.51	0.8253
2865.34	0.8665
2874.17	0.8944
2883	0.9098
2891.83	0.91
2900.66	0.8912
2909.49	0.8455
2918.32	0.797
2927.15	0.7485
2935.98	0.8025
2944.81	0.8667
2953.64	0.8813
2962.47	0.8836
2971.3	0.9133
2980.13	0.9429
2988.96	0.95
2997.79	0.9539
3006.62	0.9659
3015.45	0.9651
3024.28	0.9556
3033.11	0.96
3041.94	0.957
3050.77	0.914
3059.6	0.9419
3068.43	0.9322
3077.26	0.8371
3086.09	0.896
3094.92	0.8697
3103.75	0.9071
3112.58	0.8541
3121.41	0.786
3130.24	0.9321
3139.07	0.969
3147.9	0.975
3156.73	0.976
3165.56	0.979
3174.39	0.9801
3183.22	0.9821
3192.05	0.983
3200.88	0.984
3209.71	0.9859
3218.54	0.983
3227.37	0.982
3236.2	0.982
3245.03	0.9871
3253.86	0.986
3262.69	0.9829
3271.52	0.982
3280.35	0.982
3289.18	0.982
3298.01	0.98
3306.84	0.979
3315.67	0.977
3324.5	0.977
3333.33	0.976
3342.16	0.976
3350.99	0.975
3359.82	0.973
3368.65	0.971
3377.48	0.969
3386.31	0.968
3395.14	0.9675
3403.97	0.964
3412.8	0.962
3421.63	0.961
3430.46	0.958
3439.29	0.9564
3448.12	0.9537
3456.95	0.95
3465.78	0.9484
3474.61	0.946
3483.44	0.944
3492.27	0.943
3501.1	0.942
3509.93	0.939
3518.76	0.936
3527.59	0.9343
3536.42	0.933
3545.25	0.933
3554.08	0.935
3562.91	0.9372
3571.74	0.939
3580.57	0.9386
3589.4	0.938
3598.23	0.9356
3607.06	0.935
3615.89	0.933
3624.72	0.933
3633.55	0.933
3642.38	0.9339
3651.21	0.936
3660.04	0.938
3668.87	0.939
3677.7	0.9385
3686.53	0.937
3695.36	0.938
3704.19	0.938
3713.02	0.938
3721.85	0.938
3730.68	0.938
3739.51	0.936
3748.34	0.933
3757.17	0.931
3766	0.931
3774.83	0.931
3783.66	0.929
3792.49	0.929
3801.32	0.929
