Infrared Spectrum: 3-Hydroxy-4-methoxybenzoic acid
Formula: C 8 H 8 O 4
CAS: 645-08-9
State: gas
Origin: EPA-IR VAPOR PHASE LIBRARY
1/CM	ABSORBANCE
501.5	0.0009197
513.074	0.001453
524.648	0.002443
536.222	0.002343
547.796	0.001703
559.37	0.0012595
570.944	0.001423
582.518	0.002233
594.092	0.002433
605.666	0.004293
617.24	0.003713
628.814	0.0011761
640.388	0.0007543
651.962	0.0006759
663.536	0.0005149
675.11	0.0005803
686.684	0.00064
698.258	0.0008081
709.832	0.001873
721.406	0.001433
732.98	0.0012308
744.554	0.001893
756.128	0.004383
767.702	0.004653
779.276	0.002153
790.85	0.0009049
802.423	0.0007394
813.997	0.0008154
825.571	0.0007608
837.145	0.0007197
848.719	0.0005122
860.293	0.0005805
871.867	0.0006199
883.441	0.0009253
895.015	0.0012027
906.589	0.0012293
918.163	0.001973
929.737	0.002213
941.311	0.0011579
952.885	0.0006457
964.459	0.0006353
976.033	0.0006583
987.607	0.0008522
999.181	0.0011088
1010.76	0.001763
1022.33	0.003093
1033.9	0.003013
1045.48	0.001833
1057.05	0.001863
1068.63	0.003853
1080.2	0.004563
1091.77	0.002883
1103.35	0.003323
1114.92	0.006783
1126.49	0.008863
1138.07	0.007423
1149.64	0.010293
1161.22	0.011363
1172.79	0.005873
1184.36	0.004113
1195.94	0.004013
1207.51	0.005153
1219.09	0.005543
1230.66	0.006563
1242.23	0.005323
1253.81	0.005283
1265.38	0.010443
1276.96	0.010853
1288.53	0.008433
1300.1	0.005983
1311.68	0.003713
1323.25	0.003533
1334.83	0.004813
1346.4	0.006333
1357.97	0.006483
1369.55	0.004493
1381.12	0.002663
1392.7	0.001393
1404.27	0.0011045
1415.84	0.0012717
1427.42	0.001863
1438.99	0.003203
1450.57	0.003963
1462.14	0.003723
1473.71	0.002603
1485.29	0.002303
1496.86	0.004153
1508.44	0.007013
1520.01	0.005003
1531.58	0.002113
1543.16	0.0011425
1554.73	0.0009045
1566.31	0.0011661
1577.88	0.002043
1589.45	0.002913
1601.03	0.002893
1612.6	0.003033
1624.18	0.002403
1635.75	0.0012535
1647.32	0.0008877
1658.9	0.0007234
1670.47	0.0007088
1682.05	0.0007477
1693.62	0.00097
1705.19	0.0012447
1716.77	0.001413
1728.34	0.001763
1739.92	0.004583
1751.49	0.016293
1763.06	0.017903
1774.64	0.004603
1786.21	0.001733
1797.79	0.0013244
1809.36	0.0012272
1820.93	0.000981
1832.51	0.0007005
1844.08	0.0006197
1855.66	0.0005969
1867.23	0.0006199
1878.8	0.0005748
1890.38	0.0004918
1901.95	0.0004391
1913.53	0.0004501
1925.1	0.0004609
1936.67	0.0005056
1948.25	0.0004514
1959.82	0.00039786
1971.4	0.0004337
1982.97	0.00039383
1994.54	0.0004658
2006.12	0.0004622
2017.69	0.0004982
2029.27	0.0005269
2040.84	0.0004928
2052.41	0.000501
2063.99	0.0004757
2075.56	0.00042237
2087.14	0.00041562
2098.71	0.00039306
2110.28	0.00036127
2121.86	0.00035843
2133.43	0.00036296
2145.01	0.00039042
2156.58	0.00038536
2168.15	0.0003175
2179.73	0.0003337
2191.3	0.00038714
2202.88	0.00039226
2214.45	0.00037251
2226.02	0.00039792
2237.6	0.00038137
2249.17	0.0003937
2260.74	0.00040125
2272.32	0.0003769
2283.89	0.0004531
2295.47	0.00037307
2307.04	0.00038412
2318.61	0.00035172
2330.19	0.000293
2341.76	0.0003159
2353.34	0.00033709
2364.91	0.0003116
2376.48	0.00039337
2388.06	0.0003751
2399.63	0.00040964
2411.21	0.00036042
2422.78	0.000348838
2434.35	0.00036989
2445.93	0.000348816
2457.5	0.00036664
2469.08	0.00039041
2480.65	0.0003629
2492.22	0.00033976
2503.8	0.00037691
2515.37	0.00043529
2526.95	0.00041994
2538.52	0.00041113
2550.09	0.0004199
2561.67	0.00042038
2573.24	0.00038353
2584.82	0.00042748
2596.39	0.00035825
2607.96	0.00036587
2619.54	0.00035486
2631.11	0.000318
2642.69	0.000343006
2654.26	0.0003283
2665.83	0.00037619
2677.41	0.00037016
2688.98	0.000343818
2700.56	0.00038152
2712.13	0.00036908
2723.7	0.0003639
2735.28	0.00036231
2746.85	0.00035493
2758.43	0.0003109
2770	0.00036113
2781.57	0.0003765
2793.15	0.00037766
2804.72	0.00037862
2816.3	0.0004661
2827.87	0.0005416
2839.44	0.0007418
2851.02	0.0011785
2862.59	0.0009267
2874.17	0.0006792
2885.74	0.0005751
2897.31	0.0006565
2908.89	0.0007118
2920.46	0.0008811
2932.04	0.0010637
2943.61	0.001423
2955.18	0.001803
2966.76	0.001543
2978.33	0.0011644
2989.91	0.0009098
3001.48	0.0009088
3013.05	0.0012841
3024.63	0.0009629
3036.2	0.000567
3047.78	0.0004519
3059.35	0.0005177
3070.92	0.0005425
3082.5	0.0006975
3094.07	0.000539
3105.65	0.0003945
3117.22	0.0003132
3128.79	0.0002973
3140.37	0.0002494
3151.94	0.0002519
3163.52	0.0002689
3175.09	0.000212
3186.66	0.000227
3198.24	0.000251
3209.81	0.000237
3221.39	0.0003143
3232.96	0.0003104
3244.53	0.0002494
3256.11	0.000257
3267.68	0.000235
3279.26	0.000132
3290.83	0.000192
3302.4	0.000151
3313.98	0.000178
3325.55	0.000165
3337.13	0.000191
3348.7	0.00019
3360.27	0.000175
3371.85	0.000128
3383.42	0.00011
3395	0.000186
3406.57	0.00014
3418.14	0.0002493
3429.72	0.000172
3441.29	9.4e-05
3452.86	0.000196
3464.44	0.000241
3476.01	0.000185
3487.59	0.000218
3499.16	0.00036812
3510.73	0.00039401
3522.31	0.000272
3533.88	0.0003146
3545.46	0.00039041
3557.03	0.0005595
3568.6	0.001533
3580.18	0.008293
3591.75	0.009763
3603.33	0.002593
3614.9	0.0006113
3626.47	0.00037935
3638.05	0.00036727
3649.62	0.0005
3661.2	0.000243
3672.77	0.000158
3684.34	0.000182
3695.92	0.000192
3707.49	0.0002
3719.07	0.00017
3730.64	8.7e-05
3742.21	0.000113
3753.79	0.000192
3765.36	8.8e-05
3776.94	0.000166
3788.51	0.0002498
3800.08	0.000228
3811.66	0.000184
3823.23	5.5e-05
3834.81	0.000168
3846.38	0.000126
3857.95	0.000169
3869.53	0
3881.1	0.000185
3892.68	0.000198
3904.25	0.000172
3915.82	0.000216
3927.4	0.000242
3938.97	0.000191
3950.55	0.000187
3962.12	0.000124
3973.69	0.000108
3985.27	0.000101
3996.84	6.2e-05
