Infrared Spectrum: Ethyl 2-isocyanato-4-methyl valerate
Formula: C 9 H 15 N O 3
CAS: 64505-10-8
State: gas
Origin: EPA-IR VAPOR PHASE LIBRARY
1/CM	ABSORBANCE
549.8	0.00353
559.445	0.00467
569.09	0.0065
578.734	0.00696
588.379	0.00956
598.024	0.01089
607.669	0.01273
617.313	0.01327
626.958	0.01138
636.603	0.00892
646.248	0.00815
655.893	0.00824
665.537	0.00828
675.182	0.00854
684.827	0.00819
694.472	0.00675
704.116	0.00659
713.761	0.00639
723.406	0.00544
733.051	0.00633
742.695	0.00793
752.34	0.00825
761.985	0.00826
771.63	0.0067
781.275	0.00677
790.919	0.00678
800.564	0.00562
810.209	0.00641
819.854	0.00612
829.498	0.00562
839.143	0.00556
848.788	0.00743
858.433	0.00871
868.078	0.00738
877.722	0.00455
887.367	0.00433
897.012	0.00474
906.657	0.00742
916.301	0.01057
925.946	0.0144
935.591	0.01316
945.236	0.01284
954.88	0.01428
964.525	0.01369
974.17	0.0106
983.815	0.00761
993.46	0.00818
1003.1	0.01382
1012.75	0.02615
1022.39	0.04193
1032.04	0.04623
1041.68	0.03909
1051.33	0.02744
1060.97	0.01891
1070.62	0.01275
1080.26	0.01252
1089.91	0.0177
1099.55	0.0219
1109.2	0.02661
1118.84	0.03336
1128.49	0.03891
1138.13	0.03521
1147.78	0.02931
1157.42	0.04115
1167.07	0.06346
1176.71	0.09225
1186.36	0.11225
1196	0.1011
1205.64	0.06963
1215.29	0.05619
1224.93	0.0552
1234.58	0.06126
1244.22	0.05744
1253.87	0.05848
1263.51	0.05446
1273.16	0.04897
1282.8	0.03568
1292.45	0.02748
1302.09	0.02598
1311.74	0.02872
1321.38	0.02949
1331.03	0.0257
1340.67	0.02218
1350.32	0.01882
1359.96	0.01773
1369.61	0.02519
1379.25	0.02459
1388.9	0.01852
1398.54	0.01486
1408.18	0.01131
1417.83	0.01091
1427.47	0.01316
1437.12	0.01704
1446.76	0.01808
1456.41	0.01864
1466.05	0.02159
1475.7	0.02
1485.34	0.01155
1494.99	0.00671
1504.63	0.00516
1514.28	0.00384
1523.92	0.00313
1533.57	0.00299
1543.21	0.00245
1552.86	0.00238
1562.5	0.00272
1572.15	0.00227
1581.79	0.0026
1591.44	0.00266
1601.08	0.00226
1610.73	0.0025
1620.37	0.0026
1630.01	0.00234
1639.66	0.00245
1649.3	0.00254
1658.95	0.0028
1668.59	0.00327
1678.24	0.00345
1687.88	0.00411
1697.53	0.00546
1707.17	0.00747
1716.82	0.01089
1726.46	0.01613
1736.11	0.02869
1745.75	0.06447
1755.4	0.11778
1765.04	0.1091
1774.69	0.05289
1784.33	0.02289
1793.98	0.01285
1803.62	0.00868
1813.27	0.00633
1822.91	0.00455
1832.55	0.00339
1842.2	0.00295
1851.84	0.00251
1861.49	0.00227
1871.13	0.00227
1880.78	0.00251
1890.42	0.00236
1900.07	0.00239
1909.71	0.00212
1919.36	0.0016536
1929	0.0018839
1938.65	0.0015897
1948.29	0.0015202
1957.94	0.0018893
1967.58	0.0016671
1977.23	0.0017224
1986.87	0.0016013
1996.52	0.0021024
2006.16	0.00212
2015.81	0.00221
2025.45	0.0020648
2035.1	0.00247
2044.74	0.00298
2054.38	0.00311
2064.03	0.00328
2073.67	0.00397
2083.32	0.00481
2092.96	0.00587
2102.61	0.00655
2112.25	0.00774
2121.9	0.00789
2131.54	0.00841
2141.19	0.00931
2150.83	0.01106
2160.48	0.01291
2170.12	0.01715
2179.77	0.02354
2189.41	0.03229
2199.06	0.04414
2208.7	0.06004
2218.35	0.08484
2227.99	0.12541
2237.64	0.18068
2247.28	0.257
2256.92	0.36638
2266.57	0.46087
2276.21	0.41783
2285.86	0.25748
2295.5	0.13474
2305.15	0.07771
2314.79	0.04906
2324.44	0.03452
2334.08	0.02858
2343.73	0.02629
2353.37	0.0252
2363.02	0.02211
2372.66	0.01847
2382.31	0.01571
2391.95	0.01297
2401.6	0.01067
2411.24	0.00849
2420.89	0.0068
2430.53	0.00533
2440.18	0.00455
2449.82	0.00375
2459.47	0.00314
2469.11	0.00295
2478.75	0.00245
2488.4	0.00242
2498.04	0.00219
2507.69	0.0017503
2517.33	0.0017028
2526.98	0.001216
2536.62	0.0018004
2546.27	0.0013305
2555.91	0.0014833
2565.56	0.00222
2575.2	0.0020051
2584.85	0.0018765
2594.49	0.0017798
2604.14	0.00222
2613.78	0.0019668
2623.43	0.0017978
2633.07	0.0019345
2642.72	0.0019137
2652.36	0.0014994
2662.01	0.0013311
2671.65	0.0018623
2681.29	0.0020452
2690.94	0.0020571
2700.58	0.0019838
2710.23	0.0020486
2719.87	0.00236
2729.52	0.00248
2739.16	0.00308
2748.81	0.00245
2758.45	0.00229
2768.1	0.00296
2777.74	0.00296
2787.39	0.00269
2797.03	0.00251
2806.68	0.00362
2816.32	0.0041
2825.97	0.00504
2835.61	0.00545
2845.26	0.00689
2854.9	0.00952
2864.55	0.01296
2874.19	0.02237
2883.84	0.03046
2893.48	0.02658
2903.12	0.02698
2912.77	0.03273
2922.41	0.03931
2932.06	0.04775
2941.7	0.05842
2951.35	0.06201
2960.99	0.08591
2970.64	0.10569
2980.28	0.06513
2989.93	0.046
2999.57	0.03
3009.22	0.01943
3018.86	0.01165
3028.51	0.00811
3038.15	0.00714
3047.8	0.00518
3057.44	0.00482
3067.09	0.00402
3076.73	0.00406
3086.38	0.00423
3096.02	0.00384
3105.67	0.00377
3115.31	0.00301
3124.95	0.00263
3134.6	0.00268
3144.24	0.00242
3153.89	0.00226
3163.53	0.00269
3173.18	0.00225
3182.82	0.0027
3192.47	0.00258
3202.11	0.00242
3211.76	0.00299
3221.4	0.00232
3231.05	0.0018452
3240.69	0.00269
3250.34	0.0018683
3259.98	0.0017131
3269.63	0.00097
3279.27	0.0017032
3288.92	0.00120853
3298.56	0.000726
3308.21	0.000969
3317.85	0.000669
3327.49	0.0010286
3337.14	0.0012462
3346.78	0.000995
3356.43	0.0011757
3366.07	0.000679
3375.72	0.00071
3385.36	0.0014013
3395.01	0.0010774
3404.65	0.000884
3414.3	0.00011
3423.94	0.0011111
3433.59	0.0014521
3443.23	0.000846
3452.88	0.000723
3462.52	0.0014113
3472.17	0.000879
3481.81	0.0015925
3491.46	0.0019372
3501.1	0.0017871
3510.75	0.00258
3520.39	0.00255
3530.04	0.0019946
3539.68	0.0016036
3549.32	0.00251
3558.97	0.001446
3568.61	0.001044
3578.26	0.0012754
3587.9	0.0015042
3597.55	0.00226
3607.19	0.0013897
3616.84	0.002107
3626.48	0.00293
3636.13	0.00315
3645.77	0.00303
3655.42	0.00254
3665.06	0.00404
3674.71	0.00328
3684.35	0.00445
3694	0.00393
3703.64	0.00444
3713.29	0.0037
3722.93	0.00264
3732.58	0.00216
3742.22	0.00239
3751.86	0.0019761
3761.51	0.00163
3771.15	0.0013619
3780.8	0.0022
3790.44	0.00120732
3800.09	0.00073
3809.73	0.0010848
3819.38	0.000714
3829.02	0.0010291
3838.67	0.0016363
3848.31	0.000481
3857.96	0.0016844
3867.6	0.0014
3877.25	0.000884
3886.89	0.001002
3896.54	0
3906.18	0.0012329
3915.83	0.00217
3925.47	0.000808
3935.12	0.0013075
3944.76	0.000704
3954.41	0.0010717
3964.05	0.000441
3973.69	0.00031
3983.34	0.000963
3992.98	0.000603
