Infrared Spectrum: Ethyl 2-isocyanato-4-methylthiobutyrate
Formula: C 8 H 13 N O 3 S
CAS: 64505-12-0
State: gas
Origin: EPA-IR VAPOR PHASE LIBRARY
1/CM	ABSORBANCE
549.9	0.00476
559.547	0.00593
569.193	0.00743
578.84	0.0103
588.486	0.01349
598.133	0.01614
607.779	0.01896
617.426	0.01828
627.072	0.01521
636.719	0.01334
646.365	0.01246
656.012	0.01216
665.658	0.01166
675.305	0.01086
684.951	0.00966
694.598	0.00846
704.245	0.00755
713.891	0.00724
723.538	0.00723
733.184	0.00747
742.831	0.00847
752.477	0.01002
762.124	0.01117
771.77	0.01189
781.417	0.01153
791.063	0.01061
800.71	0.00964
810.356	0.009
820.003	0.0089
829.649	0.00916
839.296	0.0104
848.943	0.01228
858.589	0.01335
868.236	0.01149
877.882	0.00867
887.529	0.00723
897.175	0.00712
906.822	0.00741
916.468	0.00864
926.115	0.01243
935.761	0.01826
945.408	0.02192
955.054	0.02334
964.701	0.02018
974.347	0.0161
983.994	0.01474
993.64	0.01626
1003.29	0.02288
1012.93	0.03783
1022.58	0.06128
1032.23	0.07909
1041.87	0.06855
1051.52	0.04485
1061.17	0.03126
1070.81	0.02669
1080.46	0.02499
1090.11	0.02648
1099.75	0.02758
1109.4	0.02209
1119.05	0.01892
1128.69	0.02137
1138.34	0.03176
1147.99	0.0528
1157.63	0.08053
1167.28	0.1052
1176.92	0.11988
1186.57	0.1431
1196.22	0.15777
1205.86	0.1336
1215.51	0.10401
1225.16	0.09147
1234.8	0.08381
1244.45	0.0851
1254.1	0.08588
1263.74	0.07594
1273.39	0.06513
1283.04	0.05613
1292.68	0.05435
1302.33	0.05314
1311.98	0.04106
1321.62	0.03571
1331.27	0.03535
1340.92	0.03239
1350.56	0.02687
1360.21	0.02204
1369.86	0.02728
1379.5	0.02563
1389.15	0.01726
1398.79	0.0158
1408.44	0.01617
1418.09	0.01934
1427.73	0.02819
1437.38	0.03837
1447.03	0.03528
1456.67	0.02347
1466.32	0.01862
1475.97	0.01604
1485.61	0.01083
1495.26	0.00732
1504.91	0.00568
1514.55	0.0048
1524.2	0.0044515
1533.85	0.004222
1543.49	0.0040386
1553.14	0.0039834
1562.79	0.003866
1572.43	0.0037106
1582.08	0.0036035
1591.73	0.0034389
1601.37	0.0033829
1611.02	0.003297
1620.67	0.003289
1630.31	0.003294
1639.96	0.00336
1649.6	0.00353387
1659.25	0.0038086
1668.9	0.0042766
1678.54	0.00491
1688.19	0.006
1697.84	0.00789
1707.48	0.01114
1717.13	0.01599
1726.78	0.02388
1736.42	0.04334
1746.07	0.0938
1755.72	0.16194
1765.36	0.14643
1775.01	0.07228
1784.66	0.03263
1794.3	0.01847
1803.95	0.01248
1813.6	0.00888
1823.24	0.00644
1832.89	0.00494
1842.54	0.0041526
1852.18	0.0037056
1861.83	0.003488
1871.47	0.0033961
1881.12	0.0033992
1890.77	0.003253
1900.41	0.003071
1910.06	0.002836
1919.71	0.002687
1929.35	0.002614
1939	0.002575
1948.65	0.002537
1958.29	0.002534
1967.94	0.00252
1977.59	0.002519
1987.23	0.002602
1996.88	0.002721
2006.53	0.00292
2016.17	0.003139
2025.82	0.0033993
2035.47	0.0036994
2045.11	0.0040479
2054.76	0.00449
2064.41	0.00499
2074.05	0.00578
2083.7	0.0068
2093.35	0.00799
2102.99	0.00931
2112.64	0.01045
2122.28	0.01138
2131.93	0.01229
2141.58	0.01357
2151.22	0.01571
2160.87	0.01916
2170.52	0.02461
2180.16	0.03297
2189.81	0.04516
2199.46	0.06119
2209.1	0.08196
2218.75	0.11185
2228.4	0.16118
2238.04	0.24993
2247.69	0.39885
2257.34	0.5811
2266.98	0.65892
2276.63	0.50874
2286.28	0.31787
2295.92	0.19176
2305.57	0.11405
2315.22	0.07248
2324.86	0.05176
2334.51	0.04175
2344.16	0.03654
2353.8	0.03232
2363.45	0.02802
2373.09	0.02402
2382.74	0.02045
2392.39	0.01705
2402.03	0.01382
2411.68	0.01101
2421.33	0.00871
2430.97	0.00703
2440.62	0.00577
2450.27	0.00488
2459.91	0.0041824
2469.56	0.0037632
2479.21	0.003294
2488.85	0.002909
2498.5	0.00265
2508.15	0.00238
2517.79	0.00215
2527.44	0.00196
2537.09	0.00192
2546.73	0.00181
2556.38	0.00174
2566.03	0.00167
2575.67	0.00165
2585.32	0.00161
2594.96	0.00167
2604.61	0.00167
2614.26	0.00175
2623.9	0.00178
2633.55	0.0017
2643.2	0.00161
2652.84	0.00149
2662.49	0.00139
2672.14	0.00133
2681.78	0.00134
2691.43	0.00136
2701.08	0.00138
2710.72	0.0014
2720.37	0.00146
2730.02	0.00149
2739.66	0.00157
2749.31	0.00164
2758.96	0.00169
2768.6	0.00182
2778.25	0.00203
2787.9	0.00224
2797.54	0.00243
2807.19	0.002867
2816.84	0.0036865
2826.48	0.00514
2836.13	0.00732
2845.77	0.01095
2855.42	0.01265
2865.07	0.01193
2874.71	0.01226
2884.36	0.01409
2894.01	0.01627
2903.65	0.02097
2913.3	0.03175
2922.95	0.0528
2932.59	0.05971
2942.24	0.05022
2951.89	0.04447
2961.53	0.04145
2971.18	0.04748
2980.83	0.05421
2990.47	0.05641
3000.12	0.03752
3009.77	0.02323
3019.41	0.01427
3029.06	0.00881
3038.71	0.00596
3048.35	0.0044305
3058	0.0033897
3067.64	0.002941
3077.29	0.002699
3086.94	0.002498
3096.58	0.00248
3106.23	0.00235
3115.88	0.00211
3125.52	0.00196
3135.17	0.00161
3144.82	0.00142
3154.46	0.00104
3164.11	0.00082
3173.76	0.00077
3183.4	0.00072
3193.05	0.00072
3202.7	0.00069
3212.34	0.00049
3221.99	0.00033
3231.64	0.00032
3241.28	0.00015
3250.93	7e-05
3260.58	0.00018
3270.22	0.00023
3279.87	0.00025
3289.52	0.00044
3299.16	0.00025
3308.81	0.00023
3318.45	0.0001
3328.1	0.00016
3337.75	0.00022
3347.39	0.00021
3357.04	0.00019
3366.69	0.00011
3376.33	0.0004
3385.98	0.00035
3395.63	0.00041
3405.27	0.0005
3414.92	0.00058
3424.57	0.00072
3434.21	0.00085
3443.86	0.00081
3453.51	0.00101
3463.15	0.00117
3472.8	0.0015
3482.45	0.00199
3492.09	0.00238
3501.74	0.002611
3511.39	0.00234
3521.03	0.00206
3530.68	0.00189
3540.33	0.00177
3549.97	0.00186
3559.62	0.00182
3569.26	0.00206
3578.91	0.00215
3588.56	0.002512
3598.2	0.00263
3607.85	0.002802
3617.5	0.003255
3627.14	0.00345754
3636.79	0.0037446
3646.44	0.004211
3656.08	0.00462
3665.73	0.00522
3675.38	0.00559
3685.02	0.00575
3694.67	0.00555
3704.32	0.00519
3713.96	0.00464
3723.61	0.0040988
3733.26	0.00353847
3742.9	0.003218
3752.55	0.002774
3762.2	0.002629
3771.84	0.002474
3781.49	0.00234
3791.13	0.00227
3800.78	0.0021
3810.43	0.00203
3820.07	0.00181
3829.72	0.00176
3839.37	0.0017
3849.01	0.00172
3858.66	0.00163
3868.31	0.00163
3877.95	0.00162
3887.6	0.00168
3897.25	0.00163
3906.89	0.0016
3916.54	0.00154
3926.19	0.00157
3935.83	0.00165
3945.48	0.00168
3955.13	0.00155
3964.77	0.00155
3974.42	0.00159
3984.07	0.00159
3993.71	0.00158
