Infrared Spectrum: DIBUTYLDIPHENYL TIN
Formula: C20 H28 Sn
CAS: 6452-61-5
State: SOLID (BETWEEN SALTS)
Boiling point: 154-157 C AT 1 mmHg
Class: COBLENTZ
Instrument: BECKMAN IR-4 (HYBRID PRISM-GRATING)
Sampling: TRANSMISSION
Resolution: 4
Origin: FLUKA AG, BUCHS, SWITZERLAND
MICROMETERS	TRANSMITTANCE
2.015	0.855
2.04997	0.857
2.08495	0.852
2.11992	0.855
2.15489	0.856
2.18987	0.855
2.22484	0.85
2.25981	0.839
2.29478	0.845
2.32976	0.85
2.36473	0.854
2.3997	0.845
2.43468	0.834
2.46965	0.855
2.50462	0.867
2.5396	0.867
2.57457	0.877
2.60954	0.872
2.64452	0.865
2.67949	0.876
2.71446	0.867
2.74943	0.867
2.78441	0.866
2.81938	0.865
2.85435	0.861
2.88933	0.85
2.9243	0.852
2.95927	0.852
2.99425	0.855
3.02922	0.862
3.06419	0.859
3.09917	0.856
3.13414	0.85
3.16911	0.82
3.20408	0.773
3.23906	0.498
3.27403	0.577
3.309	0.538
3.34398	0.27
3.37895	0.173
3.41392	0.2
3.4489	0.335
3.48387	0.381
3.51884	0.709
3.55382	0.826
3.58879	0.879
3.62376	0.881
3.65874	0.889
3.69371	0.902
3.72868	0.901
3.76365	0.897
3.79863	0.902
3.8336	0.906
3.86857	0.915
3.90355	0.931
3.93852	0.931
3.97349	0.931
4.00847	0.94
4.04344	0.933
4.07841	0.94
4.11339	0.942
4.14836	0.936
4.18333	0.926
4.2183	0.937
4.25328	0.94
4.28825	0.947
4.32322	0.947
4.3582	0.95
4.39317	0.947
4.42814	0.95
4.46312	0.948
4.49809	0.947
4.53306	0.956
4.56804	0.956
4.60301	0.956
4.63798	0.951
4.67295	0.955
4.70793	0.953
4.7429	0.955
4.77787	0.958
4.81285	0.958
4.84782	0.957
4.88279	0.958
4.91777	0.95
4.95274	0.951
4.98771	0.958
5.02269	0.947
5.05766	0.921
5.09263	0.891
5.1276	0.947
5.16258	0.955
5.19755	0.956
5.23252	0.942
5.2675	0.91
5.30247	0.895
5.33744	0.941
5.37242	0.958
5.40739	0.953
5.44236	0.941
5.47734	0.891
5.51231	0.935
5.54728	0.97
5.58225	0.962
5.61723	0.957
5.6522	0.936
5.68717	0.946
5.72215	0.947
5.75712	0.96
5.79209	0.953
5.82707	0.943
5.86204	0.948
5.89701	0.938
5.93199	0.936
5.96696	0.936
6.00193	0.928
6.03691	0.922
6.07188	0.9
6.10685	0.911
6.14182	0.932
6.1768	0.932
6.21177	0.933
6.24674	0.938
6.28172	0.92
6.31669	0.865
6.35166	0.922
6.38664	0.938
6.42161	0.931
6.45658	0.938
6.49156	0.94
6.52653	0.931
6.5615	0.94
6.59647	0.938
6.63145	0.931
6.66642	0.902
6.70139	0.786
6.73637	0.687
6.77134	0.675
6.80631	0.49
6.84129	0.594
6.87626	0.687
6.91123	0.736
6.94621	0.657
6.98118	0.337
7.01615	0.699
7.05112	0.793
7.0861	0.879
7.12107	0.908
7.15604	0.91
7.19102	0.869
7.22599	0.688
7.26096	0.8
7.29594	0.882
7.33091	0.864
7.36588	0.9
7.40086	0.867
7.43583	0.839
7.4708	0.8
7.50577	0.915
7.54075	0.942
7.57572	0.938
7.61069	0.915
7.64567	0.84
7.68064	0.74
7.71561	0.796
7.75059	0.877
7.78556	0.918
7.82053	0.916
7.85551	0.921
7.89048	0.9
7.92545	0.825
7.96042	0.841
7.9954	0.869
8.03037	0.935
8.06534	0.96
8.10032	0.971
8.13529	0.975
8.17026	0.973
8.20524	0.976
8.24021	0.958
8.27518	0.948
8.31016	0.932
8.34513	0.879
8.3801	0.812
8.41507	0.84
8.45005	0.844
8.48502	0.852
8.51999	0.887
8.55497	0.911
8.58994	0.89
8.62491	0.83
8.65989	0.85
8.69486	0.879
8.72983	0.915
8.76481	0.94
8.79978	0.947
8.83475	0.95
8.86973	0.947
8.9047	0.948
8.93967	0.948
8.97464	0.946
9.00962	0.95
9.04459	0.95
9.07956	0.94
9.11454	0.932
9.14951	0.922
9.18448	0.879
9.21946	0.78
9.25443	0.604
9.2894	0.243
9.32438	0.475
9.35935	0.694
9.39432	0.758
9.42929	0.793
9.46427	0.837
9.49924	0.842
9.53421	0.83
9.56919	0.845
9.60416	0.877
9.63913	0.882
9.67411	0.869
9.70908	0.835
9.74405	0.685
9.77903	0.678
9.814	0.785
9.84897	0.811
9.88394	0.819
9.91892	0.815
9.95389	0.798
9.98886	0.672
10.0238	0.633
10.0588	0.822
10.0938	0.86
10.1288	0.857
10.1637	0.877
10.1987	0.897
10.2337	0.9
10.2686	0.892
10.3036	0.876
10.3386	0.852
10.3736	0.801
10.4085	0.78
10.4435	0.837
10.4785	0.895
10.5135	0.915
10.5484	0.932
10.5834	0.933
10.6184	0.937
10.6534	0.941
10.6883	0.943
10.7233	0.948
10.7583	0.948
10.7932	0.947
10.8282	0.946
10.8632	0.946
10.8982	0.941
10.9331	0.932
10.9681	0.92
11.0031	0.913
11.0381	0.916
11.073	0.923
11.108	0.931
11.143	0.928
11.1779	0.922
11.2129	0.912
11.2479	0.894
11.2829	0.859
11.3178	0.811
11.3528	0.788
11.3878	0.756
11.4228	0.726
11.4577	0.749
11.4927	0.764
11.5277	0.746
11.5627	0.736
11.5976	0.76
11.6326	0.801
11.6676	0.836
11.7025	0.86
11.7375	0.865
11.7725	0.876
11.8075	0.879
11.8424	0.869
11.8774	0.869
11.9124	0.891
11.9474	0.91
11.9823	0.927
12.0173	0.943
12.0523	0.948
12.0872	0.952
12.1222	0.956
12.1572	0.958
12.1922	0.961
12.2271	0.96
12.2621	0.958
12.2971	0.962
12.3321	0.961
12.367	0.958
12.402	0.958
12.437	0.958
12.472	0.958
12.5069	0.958
12.5419	0.955
12.5769	0.95
12.6118	0.95
12.6468	0.947
12.6818	0.945
12.7168	0.937
12.7517	0.933
12.7867	0.928
12.8217	0.925
12.8567	0.918
12.8916	0.915
12.9266	0.91
12.9616	0.907
12.9965	0.902
13.0315	0.9
13.0665	0.913
13.1015	0.917
13.1364	0.923
13.1714	0.923
13.2064	0.92
13.2414	0.907
13.2763	0.896
13.3113	0.884
13.3463	0.864
13.3813	0.845
13.4162	0.831
13.4512	0.817
13.4862	0.812
13.5211	0.794
13.5561	0.748
13.5911	0.678
13.6261	0.528
13.661	0.335
13.696	0.165
13.731	0.097
13.766	0.119
13.8009	0.205
13.8359	0.364
13.8709	0.523
13.9058	0.649
13.9408	0.708
13.9758	0.715
14.0108	0.71
14.0457	0.674
14.0807	0.628
14.1157	0.549
14.1507	0.452
14.1856	0.351
14.2206	0.235
14.2556	0.16
14.2906	0.124
14.3255	0.145
14.3605	0.199
14.3955	0.279
14.4304	0.35
14.4654	0.396
14.5004	0.436
14.5354	0.465
14.5703	0.488
14.6053	0.512
14.6403	0.539
14.6753	0.558
14.7102	0.569
14.7452	0.574
14.7802	0.573
14.8151	0.551
14.8501	0.538
14.8851	0.527
14.9201	0.521
14.955	0.509
14.99	0.512
