Infrared Spectrum: 1,7-Diaminoheptane
Formula: C 7 H 18 N 2
CAS: 646-19-5
State: gas
Origin: EPA-IR VAPOR PHASE LIBRARY
1/CM	ABSORBANCE
549.9	0.00036763
559.547	0.0004642
569.193	0.0005601
578.84	0.0006545
588.486	0.0006577
598.133	0.0007044
607.779	0.0007787
617.426	0.0008508
627.072	0.0007405
636.719	0.0008273
646.365	0.0008928
656.012	0.0008974
665.658	0.0010738
675.305	0.0010291
684.951	0.0011933
694.598	0.00132
704.245	0.00153
713.891	0.00176
723.538	0.00216
733.184	0.00262
742.831	0.00314
752.477	0.00372
762.124	0.00414
771.77	0.00431
781.417	0.00395
791.063	0.00312
800.71	0.00233
810.356	0.00188
820.003	0.00156
829.649	0.00135
839.296	0.001223
848.943	0.0012222
858.589	0.0010756
868.236	0.0010245
877.882	0.0009261
887.529	0.0009547
897.175	0.0009565
906.822	0.0008966
916.468	0.0008697
926.115	0.0008818
935.761	0.0008797
945.408	0.0008197
955.054	0.0008872
964.701	0.0009359
974.347	0.0008498
983.994	0.0008812
993.64	0.0008289
1003.29	0.0008198
1012.93	0.0008365
1022.58	0.0008986
1032.23	0.0009653
1041.87	0.0011073
1051.52	0.0012222
1061.17	0.00143
1070.81	0.00153
1080.46	0.00143
1090.11	0.00139
1099.75	0.0011945
1109.4	0.0009633
1119.05	0.0008493
1128.69	0.0008006
1138.34	0.0007075
1147.99	0.0006466
1157.63	0.0006328
1167.28	0.0006036
1176.92	0.0006104
1186.57	0.0005766
1196.22	0.0005489
1205.86	0.0006451
1215.51	0.0006299
1225.16	0.0006665
1234.8	0.0006867
1244.45	0.000694
1254.1	0.0007026
1263.74	0.000681
1273.39	0.0007536
1283.04	0.0006992
1292.68	0.0007832
1302.33	0.0008028
1311.98	0.0008086
1321.62	0.0008425
1331.27	0.0008547
1340.92	0.0009716
1350.56	0.0010936
1360.21	0.0012376
1369.86	0.0012467
1379.5	0.0013
1389.15	0.0012755
1398.79	0.0010655
1408.44	0.0008444
1418.09	0.0008306
1427.73	0.0008784
1437.38	0.0010703
1447.03	0.0012737
1456.67	0.00142
1466.32	0.0014
1475.97	0.0012445
1485.61	0.0010233
1495.26	0.0008619
1504.91	0.0008313
1514.55	0.0008252
1524.2	0.0007678
1533.85	0.0007514
1543.49	0.0007568
1553.14	0.0008176
1562.79	0.0008281
1572.43	0.0008342
1582.08	0.000916
1591.73	0.0009988
1601.37	0.0012449
1611.02	0.00153
1620.67	0.00178
1630.31	0.00166
1639.96	0.00131
1649.6	0.001094
1659.25	0.0009006
1668.9	0.0008262
1678.54	0.0007309
1688.19	0.0006455
1697.84	0.0007002
1707.48	0.0006135
1717.13	0.000613
1726.78	0.000583
1736.42	0.0006039
1746.07	0.0005573
1755.72	0.0005369
1765.36	0.0005484
1775.01	0.0005277
1784.66	0.0005175
1794.3	0.0005165
1803.95	0.000519
1813.6	0.0005435
1823.24	0.0005376
1832.89	0.0005344
1842.54	0.0005476
1852.18	0.0005241
1861.83	0.0005489
1871.47	0.0005407
1881.12	0.0005072
1890.77	0.0005034
1900.41	0.0004775
1910.06	0.0004689
1919.71	0.0005024
1929.35	0.0004767
1939	0.0004862
1948.65	0.000485
1958.29	0.0004868
1967.94	0.0004435
1977.59	0.0005085
1987.23	0.0004609
1996.88	0.0004576
2006.53	0.0005128
2016.17	0.0004648
2025.82	0.0004906
2035.47	0.0004882
2045.11	0.000465
2054.76	0.0004727
2064.41	0.0004797
2074.05	0.0004673
2083.7	0.0004717
2093.35	0.0004524
2102.99	0.0004174
2112.64	0.0004693
2122.28	0.0004742
2131.93	0.0004021
2141.58	0.0004183
2151.22	0.0004344
2160.87	0.0004523
2170.52	0.0004227
2180.16	0.0004204
2189.81	0.000447
2199.46	0.0004438
2209.1	0.0004525
2218.75	0.0004331
2228.4	0.0004256
2238.04	0.0004176
2247.69	0.0004489
2257.34	0.000426
2266.98	0.0004972
2276.63	0.0004561
2286.28	0.0004326
2295.92	0.0004544
2305.57	0.000473
2315.22	0.0004991
2324.86	0.0004394
2334.51	0.0004845
2344.16	0.0004328
2353.8	0.000468
2363.45	0.0004123
2373.09	0.0004458
2382.74	0.0004006
2392.39	0.0004201
2402.03	0.0004089
2411.68	0.0004655
2421.33	0.000445
2430.97	0.0004181
2440.62	0.000457
2450.27	0.0004223
2459.91	0.000402
2469.56	0.00045
2479.21	0.0004319
2488.85	0.0004032
2498.5	0.0004755
2508.15	0.0004093
2517.79	0.000412
2527.44	0.0004337
2537.09	0.0004287
2546.73	0.000404
2556.38	0.000405
2566.03	0.000505
2575.67	0.000393
2585.32	0.0004345
2594.96	0.0004391
2604.61	0.0003845
2614.26	0.0004928
2623.9	0.0004207
2633.55	0.0004497
2643.2	0.0005087
2652.84	0.0005092
2662.49	0.0005331
2672.14	0.000585
2681.78	0.0005677
2691.43	0.000639
2701.08	0.0005467
2710.72	0.0006441
2720.37	0.0005767
2730.02	0.0006388
2739.66	0.0006492
2749.31	0.0006499
2758.96	0.0007357
2768.6	0.0006554
2778.25	0.0006205
2787.9	0.0007105
2797.54	0.0009033
2807.19	0.0010759
2816.84	0.00131
2826.48	0.00167
2836.13	0.00238
2845.77	0.0037
2855.42	0.00539
2865.07	0.00594
2874.71	0.00507
2884.36	0.00401
2894.01	0.00393
2903.65	0.00507
2913.3	0.0076
2922.95	0.01121
2932.59	0.01323
2942.24	0.011
2951.89	0.0067
2961.53	0.00364
2971.18	0.00207
2980.83	0.00134
2990.47	0.0008491
3000.12	0.0005827
3009.77	0.0006073
3019.41	0.0004561
3029.06	0.00032594
3038.71	0.00033082
3048.35	0.000281122
3058	0.000144
3067.64	0.00027717
3077.29	0.000168
3086.94	0.0001955
3096.58	0.0002232
3106.23	0.0001991
3115.88	0.000172
3125.52	0.000164
3135.17	0.000173
3144.82	0.000282705
3154.46	0.0002508
3164.11	4.6e-05
3173.76	0.0002436
3183.4	7.5e-05
3193.05	0.0002577
3202.7	0.000119
3212.34	0.000114
3221.99	7.1e-05
3231.64	9.2e-05
3241.28	0.000148
3250.93	8.3e-05
3260.58	0.0001963
3270.22	0.0002029
3279.87	0.0002205
3289.52	0.0001969
3299.16	0.000146
3308.81	0.000101
3318.45	0.0002606
3328.1	0.000143
3337.75	0.00032797
3347.39	0.000281321
3357.04	0.0002367
3366.69	0.000196
3376.33	0.0001803
3385.98	0.0002399
3395.63	0.0003825
3405.27	0.0002412
3414.92	0.0002695
3424.57	0.0002331
3434.21	0.0002229
3443.86	0.0002062
3453.51	0.00032709
3463.15	0.0002448
3472.8	0.0002072
3482.45	0.0002995
3492.09	0.000238
3501.74	0.0002091
3511.39	0.000263
3521.03	0.000198
3530.68	0.000177
3540.33	0.0003765
3549.97	0.00033931
3559.62	0.000173
3569.26	0.00027494
3578.91	0.0002675
3588.56	0.0001922
3598.2	0.000168
3607.85	0.000144
3617.5	0.0002195
3627.14	0.0002366
3636.79	0.0001898
3646.44	0.000178
3656.08	0.00031087
3665.73	0.000287391
3675.38	0.000155
3685.02	0.00030599
3694.67	0.000179
3704.32	0.0001993
3713.96	0.0001903
3723.61	0.000238
3733.26	0.00032282
3742.9	0.0002134
3752.55	0.00029398
3762.2	0.0002421
3771.84	0.000287891
3781.49	0.0002513
3791.13	0.00033685
3800.78	0.0001802
3810.43	0.000176
3820.07	0.000177
3829.72	0.0003255
3839.37	0.0001907
3849.01	0.0002699
3858.66	0.0001968
3868.31	0.000156
3877.95	0.000146
3887.6	0.0002405
3897.25	0.0002321
3906.89	0.0002542
3916.54	0.000280437
3926.19	0.0002278
3935.83	0.00030349
3945.48	0.0002603
3955.13	0.000265
3964.77	0.0001909
3974.42	0.00033966
3984.07	0.0002656
3993.71	0.00028457
