Infrared Spectrum: trans-2-Pentene
Formula: C 5 H 10
CAS: 646-04-8
State: gas
Instrument: HP-GC/MS/IRD
Origin: NIST Mass Spectrometry Data Center
1/CM	ABSORBANCE
550	0.000144
562	0.000189
574	0.000183
586	8.1e-05
598	7.8e-05
610	9.3e-05
622	0.000132
634	0.000126
646	4.2e-05
658	6.3e-05
670	2.1e-05
682	9.6e-05
694	3.6e-05
706	0.000195
718	0.000159
730	0.000273
742	0.000219
754	0.00018
766	0.000288
778	0.000255
790	0.00039
802	0.000396
814	0.000429
826	0.000381
838	0.00045
850	0.000576
862	0.000657
874	0.000834
886	0.00099
898	0.001155
910	0.001863
922	0.003312
934	0.005832
946	0.008142
958	0.009057
970	0.008454
982	0.006387
994	0.004356
1006	0.002877
1018	0.001917
1030	0.001407
1042	0.00132
1054	0.001326
1066	0.001404
1078	0.00132
1090	0.001038
1102	0.00072
1114	0.000633
1126	0.000471
1138	0.000447
1150	0.000471
1162	0.000456
1174	0.000381
1186	0.000378
1198	0.000462
1210	0.000525
1222	0.000519
1234	0.000597
1246	0.000531
1258	0.000609
1270	0.000885
1282	0.001416
1294	0.001707
1306	0.001677
1318	0.001437
1330	0.001368
1342	0.001359
1354	0.00135
1366	0.001527
1378	0.001932
1390	0.002292
1402	0.002301
1414	0.002424
1426	0.002985
1438	0.00372
1450	0.00438
1462	0.004461
1474	0.003735
1486	0.002745
1498	0.001869
1510	0.001239
1522	0.000909
1534	0.000696
1546	0.000528
1558	0.00057
1570	0.000432
1582	0.000399
1594	0.000384
1606	0.000354
1618	0.000393
1630	0.000363
1642	0.000381
1654	0.000492
1666	0.000453
1678	0.000486
1690	0.000471
1702	0.000558
1714	0.000558
1726	0.000438
1738	0.000405
1750	0.000441
1762	0.000447
1774	0.00042
1786	0.000327
1798	0.000258
1810	0.00021
1822	0.000171
1834	0.00018
1846	0.000219
1858	0.000144
1870	0.000168
1882	0.000117
1894	0.000111
1906	6e-05
1918	4.2e-05
1930	4.8e-05
1942	6.3e-05
1954	6.6e-05
1966	9.9e-05
1978	0.000102
1990	0.000171
2002	0.000174
2014	0.000141
2026	7.8e-05
2038	0.000108
2050	5.7e-05
2062	9e-05
2074	5.7e-05
2086	6e-05
2098	3.6e-05
2110	6e-05
2122	5.1e-05
2134	3.3e-05
2146	3.6e-05
2158	3.9e-05
2170	6e-05
2182	5.7e-05
2194	6e-05
2206	2.7e-05
2218	6e-05
2230	3.6e-05
2242	6.3e-05
2254	6.3e-05
2266	6.6e-05
2278	3.9e-05
2290	5.1e-05
2302	6.6e-05
2314	9.9e-05
2326	0.000159
2338	0.000177
2350	0.000138
2362	0.00021
2374	0.00018
2386	0.00021
2398	0.000177
2410	0.00018
2422	0.000138
2434	0.000117
2446	0.000141
2458	0.000126
2470	0.000135
2482	0.000123
2494	0.000129
2506	0.000123
2518	0.000135
2530	0.000126
2542	0.000156
2554	0.000162
2566	0.000159
2578	0.000147
2590	0.000177
2602	0.000183
2614	0.000228
2626	0.000177
2638	0.000195
2650	0.00018
2662	0.000189
2674	0.000261
2686	0.000285
2698	0.000333
2710	0.000423
2722	0.000624
2734	0.000903
2746	0.001041
2758	0.000987
2770	0.000918
2782	0.001098
2794	0.001233
2806	0.00153
2818	0.002067
2830	0.003108
2842	0.004782
2854	0.007992
2866	0.01179
2878	0.015465
2890	0.01674
2902	0.017706
2914	0.019899
2926	0.023445
2938	0.026217
2950	0.026151
2962	0.029376
2974	0.02862
2986	0.024237
2998	0.015738
3010	0.011808
3022	0.009513
3034	0.007611
3046	0.005925
3058	0.004314
3070	0.003075
3082	0.002307
3094	0.001758
3106	0.001524
3118	0.001392
3130	0.001218
3142	0.001035
3154	0.000957
3166	0.000849
3178	0.000633
3190	0.000459
3202	0.000354
3214	0.000309
3226	0.000273
3238	0.000213
3250	0.000225
3262	0.000213
3274	0.000168
3286	0.000135
3298	0.000114
3310	0.00015
3322	8.7e-05
3334	0.000165
3346	0.00012
3358	0.000114
3370	0.00018
3382	7.2e-05
3394	0.000147
3406	8.7e-05
3418	7.2e-05
3430	0.000144
3442	6.9e-05
3454	0.000117
3466	9.3e-05
3478	0.000129
3490	8.7e-05
3502	9e-05
3514	8.1e-05
3526	9.6e-05
3538	2.4e-05
3550	6e-06
3562	6.9e-05
3574	7.8e-05
3586	7.2e-05
3598	9.9e-05
3610	0.000132
3622	7.5e-05
3634	0.000105
3646	0.000144
3658	0.00012
3670	0.000177
3682	0.000153
3694	0.000147
3706	0.000132
3718	9.9e-05
3730	0.000144
3742	0.000144
3754	0.00015
3766	0.000129
3778	0.000126
3790	0.000144
3802	0.000165
3814	0.000171
3826	0.000153
3838	0.00018
