Infrared Spectrum: 1,5-Dicyanopentane
Formula: C 7 H 10 N 2
CAS: 646-20-8
State: gas
Origin: EPA-IR VAPOR PHASE LIBRARY
1/CM	ABSORBANCE
501.5	0.000119
513.074	0.0002587
524.648	0.0002391
536.222	0.0004221
547.796	0.0003886
559.37	0.00032814
570.944	0.0002599
582.518	0.0002095
594.092	0.00030096
605.666	0.00031249
617.24	0.0002635
628.814	0.000172
640.388	8.2e-05
651.962	0.000391
663.536	0.0003025
675.11	0.00036916
686.684	0.0004804
698.258	0.0005504
709.832	0.0008156
721.406	0.0011121
732.98	0.0011856
744.554	0.0009914
756.128	0.0008156
767.702	0.0006341
779.276	0.0005132
790.85	0.0004253
802.423	0.000454
813.997	0.0004629
825.571	0.0005041
837.145	0.0006335
848.719	0.0006224
860.293	0.0006516
871.867	0.0005545
883.441	0.0005865
895.015	0.0005023
906.589	0.0004655
918.163	0.0005691
929.737	0.0005588
941.311	0.0005724
952.885	0.0004626
964.459	0.0004373
976.033	0.00037971
987.607	0.00034318
999.181	0.00030008
1010.76	0.0002272
1022.33	0.000172
1033.9	0.0004116
1045.48	0.0004324
1057.05	0.000393
1068.63	0.000498
1080.2	0.0004092
1091.77	0.00031344
1103.35	0.0002567
1114.92	0.000177
1126.49	0.0002552
1138.07	0.0003013
1149.64	0.0004339
1161.22	0.0005036
1172.79	0.0005696
1184.36	0.0003976
1195.94	0.0004594
1207.51	0.0005535
1219.09	0.0006897
1230.66	0.0006843
1242.23	0.0007745
1253.81	0.0008065
1265.38	0.0008571
1276.96	0.0008757
1288.53	0.00098
1300.1	0.0010468
1311.68	0.0011229
1323.25	0.001412
1334.83	0.001732
1346.4	0.001822
1357.97	0.001612
1369.55	0.0012298
1381.12	0.0009668
1392.7	0.0008502
1404.27	0.0010234
1415.84	0.001742
1427.42	0.003572
1438.99	0.005302
1450.57	0.004852
1462.14	0.004202
1473.71	0.002732
1485.29	0.001372
1496.86	0.0007736
1508.44	0.0005791
1520.01	0.0004579
1531.58	0.0004206
1543.16	0.0004037
1554.73	0.00037429
1566.31	0.00035572
1577.88	0.0003454
1589.45	0.00031858
1601.03	0.0003402
1612.6	0.0003405
1624.18	0.00032024
1635.75	0.00030449
1647.32	0.00033031
1658.9	0.00031777
1670.47	0.00031618
1682.05	0.00031654
1693.62	0.00032598
1705.19	0.00032643
1716.77	0.00032791
1728.34	0.00032593
1739.92	0.00032912
1751.49	0.00031979
1763.06	0.00030992
1774.64	0.00032454
1786.21	0.00032589
1797.79	0.00031992
1809.36	0.00032196
1820.93	0.00032394
1832.51	0.0002967
1844.08	0.00031532
1855.66	0.00030508
1867.23	0.00032389
1878.8	0.00034359
1890.38	0.00032888
1901.95	0.00032149
1913.53	0.00031845
1925.1	0.00030988
1936.67	0.00032135
1948.25	0.00030018
1959.82	0.00030474
1971.4	0.00032859
1982.97	0.00033846
1994.54	0.0003424
2006.12	0.00036551
2017.69	0.00034911
2029.27	0.00037567
2040.84	0.0003824
2052.41	0.00038183
2063.99	0.00036678
2075.56	0.00036256
2087.14	0.00035368
2098.71	0.00035591
2110.28	0.00036267
2121.86	0.00036286
2133.43	0.00035962
2145.01	0.00037583
2156.58	0.00036841
2168.15	0.0004049
2179.73	0.0003997
2191.3	0.0004015
2202.88	0.0003995
2214.45	0.0004315
2226.02	0.000511
2237.6	0.0008554
2249.17	0.001322
2260.74	0.0011102
2272.32	0.0006904
2283.89	0.0005495
2295.47	0.0004796
2307.04	0.0004329
2318.61	0.0004039
2330.19	0.0003894
2341.76	0.0003921
2353.34	0.0003961
2364.91	0.0004037
2376.48	0.000442
2388.06	0.0004472
2399.63	0.0004359
2411.21	0.0004487
2422.78	0.0004091
2434.35	0.0004081
2445.93	0.00039
2457.5	0.0003967
2469.08	0.0004
2480.65	0.00036792
2492.22	0.000384
2503.8	0.0004075
2515.37	0.0003952
2526.95	0.0004334
2538.52	0.0003974
2550.09	0.0004042
2561.67	0.0003995
2573.24	0.0003995
2584.82	0.0004723
2596.39	0.0004685
2607.96	0.0004944
2619.54	0.0005125
2631.11	0.0004821
2642.69	0.0004905
2654.26	0.0005174
2665.83	0.0005061
2677.41	0.000538
2688.98	0.0005334
2700.56	0.0005428
2712.13	0.0005227
2723.7	0.0005155
2735.28	0.0005074
2746.85	0.0005025
2758.43	0.0005776
2770	0.00057
2781.57	0.0006178
2793.15	0.00063
2804.72	0.0007207
2816.3	0.0008212
2827.87	0.0010255
2839.44	0.001392
2851.02	0.002162
2862.59	0.003602
2874.17	0.005472
2885.74	0.005492
2897.31	0.004132
2908.89	0.003942
2920.46	0.005552
2932.04	0.009322
2943.61	0.014952
2955.18	0.019352
2966.76	0.016112
2978.33	0.007532
2989.91	0.003012
3001.48	0.001552
3013.05	0.0010842
3024.63	0.0008648
3036.2	0.0007423
3047.78	0.0006285
3059.35	0.0005928
3070.92	0.0005462
3082.5	0.0005866
3094.07	0.0005556
3105.65	0.0005158
3117.22	0.000544
3128.79	0.0005644
3140.37	0.0005152
3151.94	0.0004567
3163.52	0.0005186
3175.09	0.0005476
3186.66	0.0005543
3198.24	0.0004899
3209.81	0.0004864
3221.39	0.000461
3232.96	0.0004826
3244.53	0.0004436
3256.11	0.0004154
3267.68	0.0004243
3279.26	0.0004403
3290.83	0.0004461
3302.4	0.0004297
3313.98	0.0004188
3325.55	0.0004914
3337.13	0.0004096
3348.7	0.0003918
3360.27	0.0004261
3371.85	0.0004023
3383.42	0.0004287
3395	0.000416
3406.57	0.00037631
3418.14	0.00037474
3429.72	0.0004051
3441.29	0.00037256
3452.86	0.0004024
3464.44	0.00039
3476.01	0.0004398
3487.59	0.0004279
3499.16	0.0004721
3510.73	0.0004623
3522.31	0.0004591
3533.88	0.0004379
3545.46	0.0004096
3557.03	0.0004462
3568.6	0.0004503
3580.18	0.0003883
3591.75	0.0004363
3603.33	0.0004413
3614.9	0.0003974
3626.47	0.0004493
3638.05	0.0004491
3649.62	0.000446
3661.2	0.0005068
3672.77	0.0004523
3684.34	0.0004306
3695.92	0.0004149
3707.49	0.0003939
3719.07	0.0004492
3730.64	0.0004227
3742.21	0.0004564
3753.79	0.0004485
3765.36	0.0004475
3776.94	0.0004788
3788.51	0.0004721
3800.08	0.0004625
3811.66	0.0004266
3823.23	0.0004759
3834.81	0.0004461
3846.38	0.0004567
3857.95	0.0004902
3869.53	0.0005227
3881.1	0.000523
3892.68	0.0004592
3904.25	0.0005088
3915.82	0.0004897
3927.4	0.0004574
3938.97	0.0004943
3950.55	0.0004874
3962.12	0.0005328
3973.69	0.000468
3985.27	0.0005704
3996.84	0.0004979
