Infrared Spectrum: 1,10-Diaminodecane
Formula: C 10 H 24 N 2
CAS: 646-25-3
State: gas
Origin: EPA-IR VAPOR PHASE LIBRARY
1/CM	ABSORBANCE
501.5	0.0009791
513.074	0.00109
524.648	0.0006966
536.222	0.0009617
547.796	0.0009057
559.37	0.0009894
570.944	0.00112
582.518	0.00113
594.092	0.0012
605.666	0.00141
617.24	0.00136
628.814	0.00168
640.388	0.0018
651.962	0.002
663.536	0.00224
675.11	0.00244
686.684	0.00286
698.258	0.00347
709.832	0.00452
721.406	0.00568
732.98	0.00737
744.554	0.00937
756.128	0.01128
767.702	0.01244
779.276	0.01182
790.85	0.00892
802.423	0.00597
813.997	0.00438
825.571	0.00347
837.145	0.00289
848.719	0.00247
860.293	0.00217
871.867	0.00189
883.441	0.00185
895.015	0.00165
906.589	0.00155
918.163	0.00155
929.737	0.00156
941.311	0.00148
952.885	0.00138
964.459	0.0014
976.033	0.00125
987.607	0.00131
999.181	0.00129
1010.76	0.00127
1022.33	0.00168
1033.9	0.00197
1045.48	0.00246
1057.05	0.00301
1068.63	0.00371
1080.2	0.00361
1091.77	0.00273
1103.35	0.00162
1114.92	0.00123
1126.49	0.0009624
1138.07	0.0007593
1149.64	0.0007574
1161.22	0.0007325
1172.79	0.0006868
1184.36	0.0006779
1195.94	0.0005567
1207.51	0.0005924
1219.09	0.0007077
1230.66	0.0008481
1242.23	0.0006852
1253.81	0.0008451
1265.38	0.0008936
1276.96	0.00107
1288.53	0.00122
1300.1	0.00138
1311.68	0.00149
1323.25	0.00143
1334.83	0.00163
1346.4	0.00234
1357.97	0.00278
1369.55	0.00275
1381.12	0.00267
1392.7	0.00223
1404.27	0.00145
1415.84	0.00117
1427.42	0.00135
1438.99	0.00219
1450.57	0.00329
1462.14	0.00388
1473.71	0.0029
1485.29	0.00159
1496.86	0.0009463
1508.44	0.0007056
1520.01	0.0006189
1531.58	0.0005835
1543.16	0.0005755
1554.73	0.000658
1566.31	0.0008181
1577.88	0.0009842
1589.45	0.00141
1601.03	0.00206
1612.6	0.00315
1624.18	0.00379
1635.75	0.00259
1647.32	0.00152
1658.9	0.00102
1670.47	0.0007582
1682.05	0.0005984
1693.62	0.0004941
1705.19	0.0003965
1716.77	0.0004633
1728.34	0.0004577
1739.92	0.0004733
1751.49	0.0004411
1763.06	0.0004852
1774.64	0.0004758
1786.21	0.0004215
1797.79	0.00045
1809.36	0.0003903
1820.93	0.0003845
1832.51	0.0004101
1844.08	0.0003712
1855.66	0.0002842
1867.23	0.0002551
1878.8	0.000191
1890.38	0.0001974
1901.95	0.000167
1913.53	0.0001538
1925.1	0.0001509
1936.67	0.0001446
1948.25	0.0001593
1959.82	0.0001454
1971.4	0.000164
1982.97	0.0001357
1994.54	0.0001482
2006.12	0.0001304
2017.69	0.0001554
2029.27	0.0001839
2040.84	0.0002197
2052.41	0.0001779
2063.99	0.0002165
2075.56	0.0001645
2087.14	0.0001811
2098.71	0.0001706
2110.28	0.0001465
2121.86	0.0001929
2133.43	0.0001407
2145.01	0.0002208
2156.58	0.000169
2168.15	0.0001426
2179.73	0.0001916
2191.3	0.0001364
2202.88	0.0001688
2214.45	0.0001329
2226.02	0.000185
2237.6	0.0002025
2249.17	0.0002008
2260.74	0.00021
2272.32	0.0001927
2283.89	0.0001871
2295.47	0.0001713
2307.04	0.0002132
2318.61	0.000194
2330.19	0.0002293
2341.76	0.000214
2353.34	0.0002313
2364.91	0.0002473
2376.48	0.000211
2388.06	0.0001435
2399.63	0.0001379
2411.21	0.0001466
2422.78	0.0001312
2434.35	0.0001921
2445.93	0.0002249
2457.5	0.0002011
2469.08	0.0002608
2480.65	0.0002194
2492.22	0.0002174
2503.8	0.0002578
2515.37	0.0002726
2526.95	0.000259
2538.52	0.0002832
2550.09	0.0002984
2561.67	0.0003457
2573.24	0.000389
2584.82	0.0003699
2596.39	0.0004306
2607.96	0.0004802
2619.54	0.0005696
2631.11	0.0006494
2642.69	0.0007052
2654.26	0.0008659
2665.83	0.0009296
2677.41	0.0009637
2688.98	0.00111
2700.56	0.00109
2712.13	0.00115
2723.7	0.00124
2735.28	0.00134
2746.85	0.00151
2758.43	0.00166
2770	0.00165
2781.57	0.00188
2793.15	0.00227
2804.72	0.00282
2816.3	0.00405
2827.87	0.00583
2839.44	0.00934
2851.02	0.01734
2862.59	0.02538
2874.17	0.01992
2885.74	0.01474
2897.31	0.01624
2908.89	0.02482
2920.46	0.04247
2932.04	0.0608
2943.61	0.04377
2955.18	0.02049
2966.76	0.00962
2978.33	0.00513
2989.91	0.00323
3001.48	0.00221
3013.05	0.00158
3024.63	0.00125
3036.2	0.0009912
3047.78	0.000894
3059.35	0.0007597
3070.92	0.0005974
3082.5	0.0004887
3094.07	0.0005518
3105.65	0.0004846
3117.22	0.0003241
3128.79	0.0003291
3140.37	0.0004137
3151.94	0.0004138
3163.52	0.0003404
3175.09	0.000331
3186.66	0.0003342
3198.24	0.0002374
3209.81	0.0002331
3221.39	0.0003714
3232.96	0.0003026
3244.53	0.0002653
3256.11	0.0002958
3267.68	0.0002245
3279.26	9.888e-05
3290.83	0.0001984
3302.4	0.0002764
3313.98	0.0002219
3325.55	0.0002925
3337.13	0.0005165
3348.7	0.0005253
3360.27	0.0004874
3371.85	0.0002645
3383.42	0.0003717
3395	0.0003904
3406.57	0.0003295
3418.14	0.0003584
3429.72	0.0003025
3441.29	0.0003039
3452.86	0.0002527
3464.44	0.0002722
3476.01	0.0002243
3487.59	0.0002162
3499.16	0.0001744
3510.73	0.0002148
3522.31	0.0002513
3533.88	0.0002055
3545.46	0.0002844
3557.03	0.0002721
3568.6	0.0001238
3580.18	0.0001875
3591.75	0.0002009
3603.33	0.000291
3614.9	0.000247
3626.47	0.0004217
3638.05	0.0003508
3649.62	0.0003525
3661.2	0.0001708
3672.77	0.0003338
3684.34	0.0004226
3695.92	0.0002618
3707.49	0.0003945
3719.07	0.0003022
3730.64	0.0001819
3742.21	0.0003146
3753.79	0.0003044
3765.36	0.0002589
3776.94	0.0002391
3788.51	0.0003121
3800.08	0.0002563
3811.66	0.0001466
3823.23	0.0002406
3834.81	0.0002436
3846.38	0.0001547
3857.95	0.0003685
3869.53	0.0003351
3881.1	0.0003419
3892.68	0.0003773
3904.25	0.0002646
3915.82	0.0002854
3927.4	0.0002996
3938.97	0.0003754
3950.55	0.0004624
3962.12	0.0002945
3973.69	0.0004527
3985.27	0.0003043
3996.84	0.0004657
