Infrared Spectrum: Benzonitrile, 4,4'-sulfonyldi
Formula: C14 H8 N2 O2 S
CAS: 6461-99-0
State: SOLID (SPLIT MULL), FLUOROLUBE FOR 3800-1330 CM^-^1, NUJOL FOR 1330-400 CM^-^1
Class: COBLENTZ III
Instrument: BECKMAN IR-9 (GRATING)
Instrument parameters: ORDER CHANGES: 670, 1200, 2000 CM^-^1
Sampling: TRANSMISSION
Resolution: 2
Origin: DOW CHEMICAL COMPANY
1/CM	TRANSMITTANCE
3800	0.5399
3791	0.5406
3782	0.5414
3773	0.5422
3764	0.5431
3755	0.5439
3746	0.5448
3737	0.5464
3728	0.548
3719	0.5496
3710	0.5512
3701	0.5528
3692	0.5535
3683	0.5542
3674	0.5542
3665	0.553
3656	0.5444
3647	0.5299
3638	0.5342
3629	0.5427
3620	0.5467
3611	0.5477
3602	0.5437
3593	0.539
3584	0.5441
3575	0.5482
3566	0.5488
3557	0.5487
3548	0.5482
3539	0.5462
3530	0.5439
3521	0.5432
3512	0.5425
3503	0.5419
3494	0.5412
3485	0.5406
3476	0.5398
3467	0.5389
3458	0.538
3449	0.5373
3440	0.5366
3431	0.5364
3422	0.5372
3413	0.538
3404	0.5388
3395	0.5399
3386	0.5416
3377	0.5438
3368	0.546
3359	0.5485
3350	0.5509
3341	0.5533
3332	0.5557
3323	0.5579
3314	0.56
3305	0.5621
3296	0.5642
3287	0.5662
3278	0.569
3269	0.5717
3260	0.5744
3251	0.5771
3242	0.5803
3233	0.5836
3224	0.587
3215	0.5898
3206	0.5925
3197	0.5947
3188	0.5969
3179	0.5988
3170	0.6002
3161	0.6008
3152	0.601
3143	0.6
3134	0.5948
3125	0.5848
3116	0.5742
3107	0.5133
3098	0.421
3089	0.5732
3080	0.5866
3071	0.5994
3062	0.6035
3053	0.5015
3044	0.5809
3035	0.5989
3026	0.6118
3017	0.6189
3008	0.62
2999	0.6162
2990	0.615
2981	0.6201
2972	0.6258
2963	0.6307
2954	0.6336
2945	0.6357
2936	0.6397
2927	0.6438
2918	0.6482
2909	0.6521
2900	0.656
2891	0.6595
2882	0.6628
2873	0.666
2864	0.6697
2855	0.6736
2846	0.6769
2837	0.68
2828	0.6825
2819	0.6811
2810	0.6684
2801	0.679
2792	0.6856
2783	0.6893
2774	0.6918
2765	0.6948
2756	0.6981
2747	0.7011
2738	0.7041
2729	0.706
2720	0.7071
2711	0.708
2702	0.7087
2693	0.7094
2684	0.7122
2675	0.7161
2666	0.7191
2657	0.7218
2648	0.724
2639	0.7249
2630	0.7257
2621	0.7258
2612	0.7261
2603	0.7275
2594	0.7294
2585	0.7315
2576	0.7338
2567	0.7364
2558	0.7387
2549	0.7408
2540	0.7418
2531	0.7419
2522	0.7401
2513	0.7387
2504	0.7375
2495	0.7368
2486	0.7358
2477	0.7358
2468	0.7371
2459	0.7388
2450	0.7391
2441	0.7389
2432	0.7387
2423	0.7381
2414	0.7371
2405	0.7367
2396	0.7415
2387	0.7458
2378	0.7467
2369	0.7424
2360	0.7378
2351	0.735
2342	0.7328
2333	0.7318
2324	0.7312
2315	0.7317
2306	0.7374
2297	0.7434
2288	0.7471
2279	0.7499
2270	0.7555
2261	0.7584
2252	0.6828
2243	0.3671
2234	0.7056
2225	0.7548
2216	0.7687
2207	0.775
2198	0.7732
2189	0.7498
2180	0.7168
2171	0.771
2162	0.7908
2153	0.7964
2144	0.8015
2135	0.8061
2126	0.8104
2117	0.8144
2108	0.8178
2099	0.8208
2090	0.8238
2081	0.8265
2072	0.8286
2063	0.8306
2054	0.8327
2045	0.8346
2036	0.8364
2027	0.8377
2018	0.8395
2009	0.8404
2000	0.8377
1991	0.8433
1982	0.8424
1973	0.8363
1964	0.8165
1955	0.8158
1946	0.8277
1937	0.8367
1928	0.8411
1919	0.8434
1910	0.8457
1901	0.8478
1892	0.8495
1883	0.85
1874	0.8495
1865	0.8487
1856	0.8518
1847	0.8452
1838	0.8371
1829	0.8347
1820	0.8389
1811	0.8404
1802	0.8482
1793	0.8504
1784	0.8532
1775	0.8557
1766	0.856
1757	0.8512
1748	0.8492
1739	0.8481
1730	0.8467
1721	0.8217
1712	0.7774
1703	0.7908
1694	0.8033
1685	0.8115
1676	0.8158
1667	0.8165
1658	0.8151
1649	0.8111
1640	0.808
1631	0.8096
1622	0.8105
1613	0.7872
1604	0.7661
1595	0.7178
1586	0.7443
1577	0.7775
1568	0.8061
1559	0.8251
1550	0.8291
1541	0.8305
1532	0.8307
1523	0.8303
1514	0.8258
1505	0.8054
1496	0.7625
1487	0.795
1478	0.8225
1469	0.8251
1460	0.8213
1451	0.8119
1442	0.8034
1433	0.7951
1424	0.765
1415	0.6606
1406	0.5182
1397	0.6526
1388	0.7215
1379	0.7243
1370	0.7193
1361	0.7001
1352	0.6555
1343	0.5995
1334	0.3893
1325	0.513
1316	0.2394
1307	0.508
1298	0.3916
1289	0.0988
1280	0.5432
1271	0.708
1262	0.7275
1253	0.7522
1244	0.7772
1235	0.7841
1226	0.7919
1217	0.8057
1208	0.7944
1199	0.611
1190	0.5362
1181	0.6893
1172	0.6012
1163	0.0153
1154	0.2334
1145	0.6412
1136	0.7368
1127	0.7175
1118	0.4879
1109	0.1827
1100	0.5592
1091	0.7191
1082	0.7015
1073	0.6277
1064	0.7762
1055	0.8108
1046	0.8221
1037	0.8143
1028	0.7557
1019	0.7468
1010	0.833
1001	0.8524
992	0.8471
983	0.8395
974	0.8281
965	0.842
956	0.8562
947	0.8668
938	0.8696
929	0.8749
920	0.8746
911	0.8807
902	0.8764
893	0.8724
884	0.8808
875	0.8703
866	0.7611
857	0.4516
848	0.5126
839	0.7557
830	0.8352
821	0.8158
812	0.6445
803	0.7272
794	0.5817
785	0.7745
776	0.8259
767	0.8208
758	0.8092
749	0.8101
740	0.7744
731	0.7195
722	0.4092
713	0.7915
704	0.8436
695	0.8137
686	0.7811
677	0.6589
668	0.3049
659	0.2782
650	0.6434
641	0.7651
632	0.7853
623	0.739
614	0.7067
605	0.3137
596	0.5627
587	0.7705
578	0.7844
569	0.7165
560	0.2251
551	0.5601
542	0.822
533	0.7893
524	0.5939
515	0.4162
506	0.7937
497	0.8292
488	0.8323
479	0.824
470	0.8031
461	0.7576
452	0.7275
443	0.7375
434	0.7121
425	0.6611
416	0.5836
407	0.533
