Infrared Spectrum: 1,2-Dibromo-4,5-difluorobenzene
Formula: C 6 H 2 Br 2 F 2
CAS: 64695-78-9
State: gas
Origin: EPA-IR VAPOR PHASE LIBRARY
1/CM	ABSORBANCE
549.9	0.003297
559.547	0.0030137
569.193	0.0030756
578.84	0.00382
588.486	0.00577
598.133	0.00989
607.779	0.02043
617.426	0.04234
627.072	0.03945
636.719	0.03246
646.365	0.06388
656.012	0.03361
665.658	0.00517
675.305	0.0031168
684.951	0.00423
694.598	0.00515
704.245	0.0028362
713.891	0.002108
723.538	0.00242
733.184	0.0033984
742.831	0.00591
752.477	0.0087
762.124	0.00865
771.77	0.01051
781.417	0.07577
791.063	0.15336
800.71	0.02794
810.356	0.02275
820.003	0.03031
829.649	0.01312
839.296	0.00513
848.943	0.00541
858.589	0.02476
868.236	0.08853
877.882	0.08717
887.529	0.02408
897.175	0.00929
906.822	0.0094
916.468	0.02415
926.115	0.02086
935.761	0.00554
945.408	0.00434
955.054	0.003254
964.701	0.002446
974.347	0.002378
983.994	0.0034132
993.64	0.00412
1003.29	0.0036463
1012.93	0.002361
1022.58	0.002187
1032.23	0.002192
1041.87	0.002342
1051.52	0.002215
1061.17	0.002475
1070.81	0.00382
1080.46	0.02076
1090.11	0.06262
1099.75	0.02349
1109.4	0.01114
1119.05	0.0116
1128.69	0.00668
1138.34	0.00407
1147.99	0.00382
1157.63	0.00631
1167.28	0.02363
1176.92	0.13951
1186.57	0.16851
1196.22	0.03316
1205.86	0.04732
1215.51	0.08656
1225.16	0.05603
1234.8	0.02764
1244.45	0.02343
1254.1	0.03351
1263.74	0.02817
1273.39	0.06566
1283.04	0.19989
1292.68	0.08397
1302.33	0.02763
1311.98	0.01022
1321.62	0.00586
1331.27	0.00539
1340.92	0.01291
1350.56	0.06228
1360.21	0.13353
1369.86	0.06326
1379.5	0.01182
1389.15	0.0084
1398.79	0.01184
1408.44	0.01807
1418.09	0.01543
1427.73	0.01097
1437.38	0.01298
1447.03	0.02516
1456.67	0.0893
1466.32	0.23732
1475.97	0.29818
1485.61	0.60146
1495.26	0.39444
1504.91	0.04736
1514.55	0.03673
1524.2	0.04252
1533.85	0.04717
1543.49	0.04408
1553.14	0.03002
1562.79	0.03002
1572.43	0.03732
1582.08	0.05307
1591.73	0.11181
1601.37	0.08805
1611.02	0.02054
1620.67	0.00707
1630.31	0.0038
1639.96	0.0032744
1649.6	0.00393
1659.25	0.0044
1668.9	0.00383
1678.54	0.00433
1688.19	0.00445
1697.84	0.00455
1707.48	0.00797
1717.13	0.01343
1726.78	0.01035
1736.42	0.00486
1746.07	0.0031582
1755.72	0.00221
1765.36	0.002086
1775.01	0.002278
1784.66	0.0031401
1794.3	0.00473
1803.95	0.0055
1813.6	0.00398
1823.24	0.00278934
1832.89	0.0030168
1842.54	0.0031597
1852.18	0.002403
1861.83	0.002186
1871.47	0.002299
1881.12	0.002316
1890.77	0.00211
1900.41	0.002145
1910.06	0.00208
1919.71	0.00212
1929.35	0.002237
1939	0.001906
1948.65	0.001827
1958.29	0.001992
1967.94	0.002573
1977.59	0.00235
1987.23	0.001818
1996.88	0.001885
2006.53	0.00177
2016.17	0.00168
2025.82	0.00163
2035.47	0.001869
2045.11	0.002078
2054.76	0.002316
2064.41	0.00372
2074.05	0.00469
2083.7	0.002884
2093.35	0.002627
2102.99	0.0028671
2112.64	0.002154
2122.28	0.001774
2131.93	0.001844
2141.58	0.001814
2151.22	0.00177
2160.87	0.00161
2170.52	0.00159
2180.16	0.00159
2189.81	0.00163
2199.46	0.001817
2209.1	0.00191
2218.75	0.001855
2228.4	0.001711
2238.04	0.001747
2247.69	0.002053
2257.34	0.002485
2266.98	0.0031599
2276.63	0.00397
2286.28	0.0031544
2295.92	0.00269296
2305.57	0.0032287
2315.22	0.0028246
2324.86	0.002325
2334.51	0.002029
2344.16	0.002141
2353.8	0.0027665
2363.45	0.00381
2373.09	0.0032617
2382.74	0.0030424
2392.39	0.0029406
2402.03	0.002426
2411.68	0.002056
2421.33	0.00174
2430.97	0.0015
2440.62	0.00155
2450.27	0.0017
2459.91	0.001817
2469.56	0.001922
2479.21	0.00199
2488.85	0.002558
2498.5	0.0030349
2508.15	0.0034945
2517.79	0.00423
2527.44	0.00427
2537.09	0.00458
2546.73	0.003698
2556.38	0.0026584
2566.03	0.0032673
2575.67	0.002592
2585.32	0.00176
2594.96	0.00142
2604.61	0.00131
2614.26	0.00121
2623.9	0.00128
2633.55	0.00144
2643.2	0.00167
2652.84	0.001811
2662.49	0.002019
2672.14	0.00217
2681.78	0.00162
2691.43	0.00152
2701.08	0.00167
2710.72	0.001991
2720.37	0.002366
2730.02	0.002186
2739.66	0.002165
2749.31	0.002125
2758.96	0.001886
2768.6	0.002163
2778.25	0.002071
2787.9	0.00153
2797.54	0.0013
2807.19	0.00157
2816.84	0.001819
2826.48	0.002186
2836.13	0.002522
2845.77	0.002513
2855.42	0.002148
2865.07	0.00155
2874.71	0.00157
2884.36	0.00144
2894.01	0.00089
2903.65	0.00061
2913.3	0.00041
2922.95	0.00028
2932.59	8e-05
2942.24	0.00029
2951.89	0.00036
2961.53	0.00036
2971.18	0.00012
2980.83	9e-05
2990.47	0.00015
3000.12	0.0002
3009.77	0.00036
3019.41	0.00025
3029.06	0.00052
3038.71	0.00072
3048.35	0.001844
3058	0.0028488
3067.64	0.0032528
3077.29	0.00383
3086.94	0.00397
3096.58	0.00401
3106.23	0.00435
3115.88	0.002181
3125.52	0.00066
3135.17	0.00046
3144.82	0.00036
3154.46	0.00025
3164.11	0.00018
3173.76	0.00048
3183.4	0.00035
3193.05	0.00018
3202.7	0.0003
3212.34	0.00012
3221.99	0.00024
3231.64	0.00011
3241.28	0.00045
3250.93	0.0003
3260.58	0.00037
3270.22	0.00023
3279.87	0.00035
3289.52	0.00031
3299.16	0.00047
3308.81	0.00051
3318.45	0.00037
3328.1	0.00042
3337.75	0.00051
3347.39	0.0006
3357.04	0.00072
3366.69	0.00083
3376.33	0.00066
3385.98	0.00068
3395.63	0.00074
3405.27	0.00089
3414.92	0.00074
3424.57	0.00089
3434.21	0.00078
3443.86	0.00083
3453.51	0.00067
3463.15	0.00089
3472.8	0.00107
3482.45	0.00096
3492.09	0.00092
3501.74	0.00097
3511.39	0.00101
3521.03	0.00101
3530.68	0.00124
3540.33	0.00115
3549.97	0.00136
3559.62	0.00101
3569.26	0.00115
3578.91	0.00118
3588.56	0.00129
3598.2	0.00134
3607.85	0.0014
3617.5	0.00136
3627.14	0.00146
3636.79	0.00135
3646.44	0.00142
3656.08	0.00145
3665.73	0.0015
3675.38	0.00152
3685.02	0.00157
3694.67	0.00158
3704.32	0.001867
3713.96	0.00163
3723.61	0.00166
3733.26	0.001738
3742.9	0.001713
3752.55	0.001867
3762.2	0.00168
3771.84	0.0015
3781.49	0.00141
3791.13	0.00144
3800.78	0.00148
3810.43	0.00151
3820.07	0.00161
3829.72	0.00165
3839.37	0.00169
3849.01	0.00156
3858.66	0.001704
3868.31	0.001714
3877.95	0.00154
3887.6	0.001713
3897.25	0.00159
3906.89	0.0016
3916.54	0.0015
3926.19	0.00159
3935.83	0.00161
3945.48	0.00167
3955.13	0.00168
3964.77	0.00161
3974.42	0.00155
3984.07	0.00164
3993.71	0.001766
