Infrared Spectrum: Tris(2-hydroxypropyl)glycerol
Formula: C12 H26 O6
CAS: 6481-06-7
State: LIQUID (NEAT)
Class: COBLENTZ III
Instrument: DOW KBr FOREPRISM-GRATING
Instrument parameters: BLAZED AT 3.5, 12.0, 20.0 MICRON AND CHANGED AT 5.0, 7.5, 14.9 MICRON
Sampling: TRANSMISSION
Path length: CAPILLARY
Resolution: 2
Origin: DOW CHEMICAL COMPANY
1/CM	TRANSMITTANCE
3796	0.8937
3787	0.893
3778	0.8923
3769	0.8918
3760	0.8916
3751	0.8913
3742	0.8911
3733	0.8911
3724	0.891
3715	0.891
3706	0.891
3697	0.8911
3688	0.8907
3679	0.8892
3670	0.8871
3661	0.8825
3652	0.8778
3643	0.8703
3634	0.8621
3625	0.8504
3616	0.8371
3607	0.821
3598	0.7999
3589	0.7739
3580	0.7471
3571	0.7167
3562	0.6776
3553	0.6298
3544	0.5827
3535	0.516
3526	0.4423
3517	0.3945
3508	0.3638
3499	0.3294
3490	0.2932
3481	0.2598
3472	0.2333
3463	0.2111
3454	0.1909
3445	0.1695
3436	0.1538
3427	0.1436
3418	0.136
3409	0.1309
3400	0.127
3391	0.1242
3382	0.1217
3373	0.1209
3364	0.1218
3355	0.124
3346	0.1265
3337	0.1318
3328	0.1382
3319	0.145
3310	0.1549
3301	0.167
3292	0.1827
3283	0.1975
3274	0.2108
3265	0.2261
3256	0.2463
3247	0.2721
3238	0.3003
3229	0.3278
3220	0.3591
3211	0.3912
3202	0.4165
3193	0.4473
3184	0.4779
3175	0.507
3166	0.5347
3157	0.5625
3148	0.5892
3139	0.6144
3130	0.6375
3121	0.6575
3112	0.6771
3103	0.6965
3094	0.7156
3085	0.7347
3076	0.7495
3067	0.7614
3058	0.7689
3049	0.7768
3040	0.7837
3031	0.7871
3022	0.7905
3013	0.7878
3004	0.7765
2995	0.7294
2986	0.4876
2977	0.2261
2968	0.2548
2959	0.3368
2950	0.378
2941	0.2937
2932	0.2139
2923	0.2107
2914	0.204
2905	0.1957
2896	0.1881
2887	0.1817
2878	0.1764
2869	0.1824
2860	0.2074
2851	0.28
2842	0.3986
2833	0.5099
2824	0.5526
2815	0.5843
2806	0.6077
2797	0.6306
2788	0.6554
2779	0.6805
2770	0.6978
2761	0.7143
2752	0.7293
2743	0.7407
2734	0.7485
2725	0.7561
2716	0.764
2707	0.7714
2698	0.7789
2689	0.7865
2680	0.7935
2671	0.7993
2662	0.804
2653	0.8088
2644	0.8151
2635	0.8214
2626	0.8273
2617	0.8317
2608	0.8362
2599	0.8406
2590	0.8439
2581	0.8471
2572	0.8504
2563	0.8532
2554	0.855
2545	0.8568
2536	0.8587
2527	0.8607
2518	0.8636
2509	0.8665
2500	0.8694
2491	0.872
2482	0.8745
2473	0.8768
2464	0.8793
2455	0.8812
2446	0.8828
2437	0.8835
2428	0.8841
2419	0.8842
2410	0.884
2401	0.8839
2392	0.8851
2383	0.8862
2374	0.8875
2365	0.8888
2356	0.8901
2347	0.8917
2338	0.8934
2329	0.8944
2320	0.8936
2311	0.892
2302	0.8913
2293	0.8914
2284	0.8916
2275	0.8916
2266	0.8916
2257	0.8915
2248	0.8913
2239	0.8909
2230	0.8906
2221	0.8907
2212	0.891
2203	0.8913
2194	0.8918
2185	0.8921
2176	0.9002
2167	0.8958
2158	0.8925
2149	0.8912
2140	0.8899
2131	0.8885
2122	0.8871
2113	0.8857
2104	0.8844
2095	0.8835
2086	0.8834
2077	0.8833
2068	0.8843
2059	0.8851
2050	0.8858
2041	0.8847
2032	0.8821
2023	0.8854
2014	0.8885
2005	0.8899
1996	0.8916
1987	0.8925
1978	0.8928
1969	0.8921
1960	0.8912
1951	0.8685
1942	0.8888
1933	0.8895
1924	0.8895
1915	0.8891
1906	0.8887
1897	0.8888
1888	0.8897
1879	0.8906
1870	0.8915
1861	0.8923
1852	0.8931
1843	0.8939
1834	0.8947
1825	0.8948
1816	0.8948
1807	0.8947
1798	0.8948
1789	0.895
1780	0.8952
1771	0.8952
1762	0.8951
1753	0.895
1744	0.8949
1735	0.895
1726	0.8916
1717	0.8868
1708	0.8823
1699	0.8777
1690	0.8734
1681	0.8633
1672	0.8471
1663	0.825
1654	0.8108
1645	0.8033
1636	0.7994
1627	0.8071
1618	0.8244
1609	0.8342
1600	0.8397
1591	0.8433
1582	0.8443
1573	0.8448
1564	0.8451
1555	0.8438
1546	0.8417
1537	0.8383
1528	0.8338
1519	0.8286
1510	0.8168
1501	0.7988
1492	0.7498
1483	0.5575
1474	0.4933
1465	0.4284
1456	0.3942
1447	0.4675
1438	0.5316
1429	0.5296
1420	0.497
1411	0.4875
1402	0.4931
1393	0.4901
1384	0.4129
1375	0.3257
1366	0.4228
1357	0.4897
1348	0.4538
1339	0.4105
1330	0.4027
1321	0.4292
1312	0.4859
1303	0.4649
1294	0.4381
1285	0.4374
1276	0.4412
1267	0.4455
1258	0.4512
1249	0.4655
1240	0.512
1231	0.5662
1222	0.6137
1213	0.6548
1204	0.6928
1195	0.7036
1186	0.6955
1177	0.5758
1168	0.38
1159	0.2184
1150	0.1661
1141	0.1223
1132	0.0905
1123	0.068
1114	0.0585
1105	0.0543
1096	0.0522
1087	0.0548
1078	0.0733
1069	0.1076
1060	0.1576
1051	0.2218
1042	0.2999
1033	0.4119
1024	0.4684
1015	0.4414
1006	0.4274
997	0.4558
988	0.4851
979	0.4904
970	0.484
961	0.49
952	0.4285
943	0.4428
934	0.4675
925	0.5373
916	0.6305
907	0.6781
898	0.7172
889	0.7401
880	0.729
871	0.6828
862	0.631
853	0.5854
844	0.5737
835	0.6292
826	0.6914
817	0.7189
808	0.7497
799	0.7645
790	0.7699
781	0.7678
772	0.7601
763	0.7492
754	0.7351
745	0.7201
736	0.7086
727	0.696
718	0.6808
709	0.6591
700	0.6335
691	0.6097
682	0.5912
673	0.5838
664	0.5814
655	0.5862
646	0.588
637	0.5841
628	0.5734
619	0.5631
610	0.5534
601	0.5446
592	0.5387
583	0.5356
574	0.5343
565	0.5359
556	0.5382
547	0.5402
538	0.5421
529	0.5441
520	0.5462
511	0.5477
502	0.5486
493	0.5499
484	0.5519
475	0.559
466	0.5702
457	0.5787
448	0.5848
439	0.5898
430	0.594
421	0.5975
412	0.6008
403	0.6035
394	0.6069
