Infrared Spectrum: 4-Chloro-2-phenylquinazoline
Formula: C 14 H 9 Cl N 2
CAS: 6484-25-9
State: gas
Origin: EPA-IR VAPOR PHASE LIBRARY
1/CM	ABSORBANCE
549.8	0.002026
559.445	0.007466
569.09	0.005356
578.735	0.002106
588.38	0.0012668
598.025	0.0009884
607.67	0.000739
617.315	0.0012781
626.96	0.002276
636.605	0.001696
646.251	0.002396
655.896	0.014816
665.541	0.015456
675.186	0.005276
684.831	0.010126
694.476	0.014836
704.121	0.034766
713.766	0.019406
723.411	0.008706
733.056	0.009776
742.701	0.005696
752.346	0.016976
761.991	0.041376
771.636	0.025556
781.281	0.006636
790.926	0.002356
800.571	0.002866
810.216	0.003746
819.861	0.005016
829.507	0.006666
839.152	0.012186
848.797	0.030166
858.442	0.022016
868.087	0.010376
877.732	0.003646
887.377	0.001359
897.022	0.0009891
906.667	0.0010152
916.312	0.0013961
925.957	0.001996
935.602	0.001946
945.247	0.0013986
954.892	0.002016
964.537	0.003856
974.182	0.013396
983.827	0.028396
993.472	0.011416
1003.12	0.003386
1012.76	0.002666
1022.41	0.008826
1032.05	0.009036
1041.7	0.001936
1051.34	0.001866
1060.99	0.003526
1070.63	0.007046
1080.28	0.005216
1089.92	0.001776
1099.57	0.001596
1109.21	0.0009891
1118.86	0.0009557
1128.5	0.001436
1138.15	0.002616
1147.79	0.007396
1157.44	0.007336
1167.08	0.004586
1176.73	0.014146
1186.37	0.007056
1196.02	0.002546
1205.66	0.002036
1215.31	0.004446
1224.95	0.008656
1234.6	0.012226
1244.24	0.023326
1253.89	0.013686
1263.53	0.005476
1273.18	0.005806
1282.82	0.009026
1292.47	0.011246
1302.11	0.013446
1311.76	0.041436
1321.4	0.051866
1331.05	0.075466
1340.69	0.057496
1350.34	0.032506
1359.98	0.011226
1369.63	0.014366
1379.27	0.023786
1388.92	0.013426
1398.56	0.006896
1408.21	0.005286
1417.85	0.004576
1427.5	0.006076
1437.14	0.011196
1446.79	0.022546
1456.43	0.020836
1466.08	0.015956
1475.73	0.041636
1485.37	0.033156
1495.02	0.008706
1504.66	0.005786
1514.31	0.007116
1523.95	0.011506
1533.6	0.026926
1543.24	0.060516
1552.89	0.072156
1562.53	0.107616
1572.18	0.086946
1581.82	0.047686
1591.47	0.038056
1601.11	0.016626
1610.76	0.026476
1620.4	0.022646
1630.05	0.007356
1639.69	0.004306
1649.34	0.003036
1658.98	0.002536
1668.63	0.002226
1678.27	0.001856
1687.92	0.001666
1697.56	0.001836
1707.21	0.002116
1716.85	0.002606
1726.5	0.001726
1736.14	0.0013987
1745.79	0.0011634
1755.43	0.001349
1765.08	0.0013616
1774.72	0.001476
1784.37	0.0013292
1794.01	0.0012594
1803.66	0.001686
1813.3	0.002246
1822.95	0.002176
1832.59	0.001546
1842.24	0.001776
1851.88	0.002056
1861.53	0.0010695
1871.17	0.0008847
1880.82	0.0009498
1890.46	0.0011331
1900.11	0.001626
1909.75	0.002406
1919.4	0.001656
1929.04	0.0011447
1938.69	0.001586
1948.33	0.001746
1957.98	0.002566
1967.62	0.002476
1977.27	0.0007951
1986.91	0.0006142
1996.56	0.0005413
2006.2	0.000483
2015.85	0.000395
2025.49	0.0003827
2035.14	0.0004041
2044.78	0.000438576
2054.43	0.00046504
2064.07	0.00046173
2073.72	0.000437433
2083.36	0.00048059
2093.01	0.0004082
2102.65	0.00045905
2112.3	0.00046255
2121.94	0.0004189
2131.59	0.00042645
2141.23	0.0003792
2150.88	0.000279
2160.52	0.0003684
2170.17	0.0004171
2179.81	0.00047051
2189.46	0.0003974
2199.1	0.0003829
2208.75	0.0003372
2218.39	0.0004155
2228.04	0.0004049
2237.68	0.000308
2247.33	0.0003992
2256.97	0.0003465
2266.62	0.000362
2276.26	0.00043323
2285.91	0.0003723
2295.55	0.0005646
2305.2	0.0007724
2314.84	0.0009771
2324.49	0.0006272
2334.13	0.00051305
2343.78	0.0005628
2353.42	0.0005718
2363.07	0.0006318
2372.72	0.00050352
2382.36	0.0005589
2392.01	0.0005754
2401.65	0.0006418
2411.3	0.0005626
2420.94	0.00049456
2430.59	0.00045614
2440.23	0.00046529
2449.88	0.00053193
2459.52	0.00052187
2469.17	0.0005582
2478.81	0.00047966
2488.46	0.000382
2498.1	0.000328
2507.75	0.0004224
2517.39	0.0003925
2527.04	0.0004069
2536.68	0.0004111
2546.33	0.0003995
2555.97	0.00045359
2565.62	0.00043105
2575.26	0.00046599
2584.91	0.00048571
2594.55	0.0006003
2604.2	0.000594
2613.84	0.00050778
2623.49	0.00045826
2633.13	0.00053033
2642.78	0.0003983
2652.42	0.000457
2662.07	0.00043462
2671.71	0.00047207
2681.36	0.00043108
2691	0.00026
2700.65	0.000333
2710.29	0.000442596
2719.94	0.00047089
2729.58	0.0005377
2739.23	0.0003977
2748.87	0.0004014
2758.52	0.00050044
2768.16	0.00045333
2777.81	0.0003429
2787.45	0.000242
2797.1	0.0003728
2806.74	0.000143
2816.39	0.0003361
2826.03	0.000304
2835.68	0.0003705
2845.32	0.0004024
2854.97	0.00033
2864.61	0.0003957
2874.26	0.00049032
2883.9	0.0006155
2893.55	0.0005843
2903.19	0.0007531
2912.84	0.0007642
2922.48	0.0007247
2932.13	0.0006591
2941.77	0.0006294
2951.42	0.00042988
2961.06	0.00044731
2970.71	0.0005939
2980.35	0.0006624
2990	0.000941
2999.64	0.0010891
3009.29	0.001536
3018.93	0.002106
3028.58	0.003366
3038.22	0.005466
3047.87	0.007716
3057.51	0.011106
3067.16	0.018146
3076.8	0.023076
3086.45	0.010026
3096.09	0.006176
3105.74	0.004166
3115.38	0.002816
3125.03	0.001846
3134.67	0.0011234
3144.32	0.0008445
3153.96	0.0009083
3163.61	0.0008102
3173.25	0.0005463
3182.9	0.0004098
3192.54	0.000286
3202.19	0.000291
3211.83	0.000239
3221.48	0.000248
3231.12	0.000284
3240.77	0
3250.41	9.2e-05
3260.06	0.000248
3269.7	0.000107
3279.35	9.5e-05
3289	0.000169
3298.64	0.00014
3308.29	0.000158
3317.93	0.000107
3327.58	0.000129
3337.22	0.000263
3346.87	0.00014
3356.51	0.00023
3366.16	0.000229
3375.8	0.000305
3385.45	0.000193
3395.09	0.000326
3404.74	0.000236
3414.38	0.000135
3424.03	0.000298
3433.67	0.000204
3443.32	0.000328
3452.96	0.000228
3462.61	0.000264
3472.25	0.000291
3481.9	0.000211
3491.54	0.000212
3501.19	0.000126
3510.83	0.000247
3520.48	0.000292
3530.12	0.000253
3539.77	0.000309
3549.41	0.0003396
3559.06	0.000312
3568.7	0.000318
3578.35	0.0003863
3587.99	0.000436381
3597.64	0.000306
3607.28	0.0003823
3616.93	0.00045591
3626.57	0.00049358
3636.22	0.00042771
3645.86	0.0003539
3655.51	0.0004663
3665.15	0.00046842
3674.8	0.0006439
3684.44	0.0003714
3694.09	0.000439222
3703.73	0.000441597
3713.38	0.00047842
3723.02	0.00045109
3732.67	0.00045455
3742.31	0.000297
3751.96	0.000316
3761.6	0.000391
3771.25	0.000335
3780.89	0.0003972
3790.54	0.000312
3800.18	0.0003605
3809.83	0.00053048
3819.47	0.0003544
3829.12	0.0004583
3838.76	0.000392
3848.41	0.0003478
3858.05	0.000335
3867.7	0.000445898
3877.34	0.000435331
3886.99	0.0003946
3896.63	0.000306
3906.28	0.00044807
3915.92	0.0005374
3925.57	0.0004237
3935.21	0.00049085
3944.86	0.0003724
3954.5	0.000332
3964.15	0.0003835
3973.79	0.0003539
3983.44	0.00043226
3993.08	0.0003731
