Infrared Spectrum: AMMONIUM NITRATE
Formula: N H4 N O3
CAS: 6484-52-2
State: SOLID (NUJOL AND FLUOROLUBE MULLS)
Class: COBLENTZ
Instrument: Not specified, most likely a prism, grating, or hybrid spectrometer.
Sampling: TRANSMISSION
Resolution: 4
Origin: MELLON INSTITUTE
MICROMETERS	TRANSMITTANCE
2.036	0.844
2.0759	0.847
2.11581	0.85
2.15571	0.854
2.19561	0.849
2.23551	0.852
2.27542	0.867
2.31532	0.884
2.35522	0.891
2.39513	0.896
2.43503	0.902
2.47493	0.909
2.51484	0.914
2.55474	0.919
2.59464	0.924
2.63454	0.929
2.67445	0.932
2.71435	0.931
2.75425	0.927
2.79416	0.924
2.83406	0.922
2.87396	0.917
2.91387	0.916
2.95377	0.901
2.99367	0.877
3.03357	0.743
3.07348	0.556
3.11338	0.353
3.15328	0.219
3.19319	0.189
3.23309	0.289
3.27299	0.207
3.3129	0.293
3.3528	0.42
3.3927	0.546
3.4326	0.618
3.47251	0.599
3.51241	0.554
3.55231	0.572
3.59222	0.743
3.63212	0.807
3.67202	0.842
3.71193	0.862
3.75183	0.877
3.79173	0.889
3.83163	0.901
3.87154	0.907
3.91144	0.912
3.95134	0.904
3.99125	0.894
4.03115	0.891
4.07105	0.867
4.11096	0.832
4.15086	0.872
4.19076	0.912
4.23066	0.917
4.27057	0.921
4.31047	0.922
4.35037	0.924
4.39028	0.924
4.43018	0.927
4.47008	0.929
4.50999	0.931
4.54989	0.932
4.58979	0.932
4.62969	0.932
4.6696	0.932
4.7095	0.932
4.7494	0.932
4.78931	0.931
4.82921	0.927
4.86911	0.922
4.90902	0.917
4.94892	0.912
4.98882	0.909
5.02872	0.907
5.06863	0.909
5.10853	0.914
5.14843	0.921
5.18834	0.931
5.22824	0.938
5.26814	0.941
5.30805	0.941
5.34795	0.943
5.38785	0.941
5.42775	0.938
5.46766	0.934
5.50756	0.929
5.54746	0.914
5.58737	0.891
5.62727	0.842
5.66717	0.787
5.70708	0.787
5.74698	0.795
5.78688	0.809
5.82678	0.832
5.86669	0.862
5.90659	0.894
5.94649	0.911
5.9864	0.927
6.0263	0.944
6.0662	0.951
6.10611	0.958
6.14601	0.963
6.18591	0.968
6.22581	0.971
6.26572	0.968
6.30562	0.963
6.34552	0.953
6.38543	0.946
6.42533	0.936
6.46523	0.926
6.50514	0.919
6.54504	0.912
6.58494	0.904
6.62484	0.897
6.66475	0.881
6.70465	0.849
6.74455	0.819
6.78446	0.768
6.82436	0.675
6.86426	0.559
6.90417	0.452
6.94407	0.378
6.98397	0.346
7.02387	0.314
7.06378	0.283
7.10368	0.254
7.14358	0.237
7.18349	0.231
7.22339	0.229
7.26329	0.232
7.3032	0.239
7.3431	0.249
7.383	0.252
7.4229	0.249
7.46281	0.249
7.50271	0.256
7.54261	0.271
7.58252	0.299
7.62242	0.331
7.66232	0.39
7.70223	0.438
7.74213	0.474
7.78203	0.51
7.82193	0.559
7.86184	0.584
7.90174	0.608
7.94164	0.641
7.98155	0.661
8.02145	0.686
8.06135	0.705
8.10126	0.72
8.14116	0.73
8.18106	0.738
8.22096	0.748
8.26087	0.757
8.30077	0.768
8.34067	0.775
8.38058	0.782
8.42048	0.79
8.46038	0.795
8.50029	0.802
8.54019	0.802
8.58009	0.804
8.61999	0.805
8.6599	0.805
8.6998	0.805
8.7397	0.807
8.77961	0.817
8.81951	0.82
8.85941	0.822
8.89932	0.822
8.93922	0.824
8.97912	0.825
9.01902	0.827
9.05893	0.829
9.09883	0.827
9.13873	0.827
9.17864	0.829
9.21854	0.832
9.25844	0.835
9.29835	0.837
9.33825	0.839
9.37815	0.839
9.41805	0.839
9.45796	0.837
9.49786	0.835
9.53776	0.835
9.57767	0.834
9.61757	0.835
9.65747	0.839
9.69738	0.845
9.73728	0.85
9.77718	0.855
9.81708	0.862
9.85699	0.867
9.89689	0.876
9.93679	0.881
9.9767	0.884
10.0166	0.891
10.0565	0.894
10.0964	0.896
10.1363	0.901
10.1762	0.901
10.2161	0.904
10.256	0.904
10.2959	0.906
10.3358	0.909
10.3757	0.912
10.4156	0.914
10.4555	0.916
10.4954	0.917
10.5353	0.919
10.5752	0.921
10.6151	0.924
10.655	0.927
10.695	0.929
10.7349	0.931
10.7748	0.932
10.8147	0.934
10.8546	0.936
10.8945	0.938
10.9344	0.939
10.9743	0.941
11.0142	0.941
11.0541	0.943
11.094	0.944
11.1339	0.948
11.1738	0.949
11.2137	0.953
11.2536	0.953
11.2935	0.954
11.3334	0.954
11.3733	0.953
11.4132	0.956
11.4531	0.956
11.493	0.956
11.5329	0.961
11.5728	0.964
11.6127	0.966
11.6526	0.968
11.6925	0.969
11.7324	0.971
11.7723	0.973
11.8122	0.971
11.8521	0.969
11.892	0.966
11.9319	0.943
11.9718	0.921
12.0117	0.912
12.0517	0.909
12.0916	0.911
12.1315	0.917
12.1714	0.929
12.2113	0.944
12.2512	0.956
12.2911	0.963
12.331	0.964
12.3709	0.966
12.4108	0.968
12.4507	0.968
12.4906	0.968
12.5305	0.966
12.5704	0.964
12.6103	0.966
12.6502	0.966
12.6901	0.963
12.73	0.961
12.7699	0.958
12.8098	0.954
12.8497	0.953
12.8896	0.951
12.9295	0.949
12.9694	0.948
13.0093	0.944
13.0492	0.941
13.0891	0.938
13.129	0.936
13.1689	0.931
13.2088	0.927
13.2487	0.926
13.2886	0.921
13.3285	0.919
13.3685	0.916
13.4084	0.911
13.4483	0.907
13.4882	0.904
13.5281	0.902
13.568	0.894
13.6079	0.889
13.6478	0.884
13.6877	0.879
13.7276	0.874
13.7675	0.864
13.8074	0.855
13.8473	0.852
13.8872	0.847
13.9271	0.845
13.967	0.842
14.0069	0.842
14.0468	0.837
14.0867	0.834
14.1266	0.83
14.1665	0.824
14.2064	0.819
14.2463	0.807
14.2862	0.802
14.3261	0.795
14.366	0.788
14.4059	0.782
14.4458	0.777
14.4857	0.77
14.5256	0.765
14.5655	0.76
14.6054	0.752
14.6453	0.747
14.6853	0.738
14.7252	0.73
14.7651	0.725
14.805	0.72
14.8449	0.711
14.8848	0.703
14.9247	0.695
14.9646	0.686
15.0045	0.678
15.0444	0.671
15.0843	0.664
15.1242	0.656
15.1641	0.653
15.204	0.646
15.2439	0.639
15.2838	0.634
15.3237	0.631
15.3636	0.624
15.4035	0.623
15.4434	0.618
15.4833	0.614
15.5232	0.608
15.5631	0.604
15.603	0.601
15.6429	0.596
15.6828	0.594
15.7227	0.591
15.7626	0.586
15.8025	0.582
15.8424	0.582
15.8823	0.579
15.9222	0.576
15.9621	0.574
16.002	0.572
