Infrared Spectrum: 5-Androsten-17-one, 19-hydroxy-3b-methoxy-, methanesulfonate
Formula: C21 H32 O5 S
CAS: 6494-00-4
State: SOLUTION (7% CHCl3 FOR 2.5-12.5 MICRON) VS SOLVENT
Class: COBLENTZ
Instrument: PERKIN-ELMER 21 (GRATING)
Instrument parameters: FILTER AT ABOUT 10 MICRONS
Path length: 0.010 CM
Resolution: 2
Origin: ABBOTT LABORATORIES
1/CM	TRANSMITTANCE
784	0.8282
793	0.823
802	0.7877
811	0.7266
820	0.5961
829	0.5215
838	0.4985
847	0.5991
856	0.6744
865	0.7547
874	0.7529
883	0.7013
892	0.6241
901	0.6846
910	0.6897
919	0.6003
928	0.476
937	0.3921
946	0.3507
955	0.3391
964	0.4018
973	0.3869
982	0.5698
991	0.6038
1000	0.6746
1009	0.6343
1018	0.673
1027	0.691
1036	0.7254
1045	0.7552
1054	0.7161
1063	0.6619
1072	0.706
1081	0.6486
1090	0.4307
1099	0.3362
1108	0.5385
1117	0.5927
1126	0.6727
1135	0.6877
1144	0.699
1153	0.6934
1162	0.626
1171	0.4123
1180	0.2549
1189	0.6216
1198	0.7076
1207	0.7059
1216	0.6929
1225	0.6879
1234	0.6874
1243	0.6952
1252	0.7174
1261	0.7538
1270	0.7518
1279	0.7739
1288	0.7917
1297	0.7931
1306	0.7884
1315	0.7749
1324	0.7415
1333	0.5593
1342	0.4253
1351	0.3962
1360	0.3093
1369	0.3299
1378	0.4992
1387	0.6376
1396	0.7597
1405	0.7788
1414	0.7724
1423	0.8198
1432	0.8215
1441	0.7673
1450	0.7024
1459	0.6968
1468	0.7092
1477	0.6982
1486	0.8007
1495	0.848
1504	0.8809
1513	0.8919
1522	0.8951
1531	0.8941
1540	0.8919
1549	0.8857
1558	0.8761
1567	0.8679
1576	0.8603
1585	0.8559
1594	0.8534
1603	0.8516
1612	0.8512
1621	0.8518
1630	0.8525
1639	0.8524
1648	0.8519
1657	0.851
1666	0.8467
1675	0.8411
1684	0.8338
1693	0.825
1702	0.8128
1711	0.7933
1720	0.7603
1729	0.6256
1738	0.3505
1747	0.2812
1756	0.4561
1765	0.685
1774	0.8
1783	0.8401
1792	0.8611
1801	0.8694
1810	0.8752
1819	0.8797
1828	0.8822
1837	0.884
1846	0.8863
1855	0.8893
1864	0.8915
1873	0.8928
1882	0.8938
1891	0.8948
1900	0.8959
1909	0.8969
1918	0.8978
1927	0.8987
1936	0.9001
1945	0.9014
1954	0.9034
1963	0.9055
1972	0.9075
1981	0.909
1990	0.9082
1999	0.9073
2008	0.906
2017	0.9047
2026	0.9033
2035	0.9015
2044	0.8998
2053	0.9004
2062	0.901
2071	0.9022
2080	0.9037
2089	0.9052
2098	0.9067
2107	0.908
2116	0.9092
2125	0.9099
2134	0.9105
2143	0.9099
2152	0.9093
2161	0.9088
2170	0.9083
2179	0.9074
2188	0.9062
2197	0.9049
2206	0.9039
2215	0.903
2224	0.9022
2233	0.9014
2242	0.9006
2251	0.8998
2260	0.8992
2269	0.8986
2278	0.8986
2287	0.8985
2296	0.8985
2305	0.8989
2314	0.8995
2323	0.9027
2332	0.9063
2341	0.9133
2350	0.9157
2359	0.9167
2368	0.9173
2377	0.9177
2386	0.9175
2395	0.9167
2404	0.915
2413	0.9114
2422	0.9047
2431	0.8974
2440	0.8913
2449	0.8879
2458	0.887
2467	0.8872
2476	0.888
2485	0.8892
2494	0.8906
2503	0.8923
2512	0.8941
2521	0.8955
2530	0.8966
2539	0.8977
2548	0.8981
2557	0.8985
2566	0.8983
2575	0.8979
2584	0.8975
2593	0.8964
2602	0.8954
2611	0.8943
2620	0.8933
2629	0.8922
2638	0.8912
2647	0.8901
2656	0.8885
2665	0.8868
2674	0.885
2683	0.8833
2692	0.8817
2701	0.88
2710	0.8783
2719	0.8767
2728	0.875
2737	0.8732
2746	0.8712
2755	0.8693
2764	0.8674
2773	0.8644
2782	0.8608
2791	0.8569
2800	0.8491
2809	0.8352
2818	0.8102
2827	0.7498
2836	0.702
2845	0.6781
2854	0.6576
2863	0.6423
2872	0.6304
2881	0.6179
2890	0.6079
2899	0.6029
2908	0.5981
2917	0.5672
2926	0.5459
2935	0.5314
2944	0.5166
2953	0.5117
2962	0.5103
2971	0.5142
2980	0.5365
2989	0.5623
2998	0.5936
3007	0.628
3016	0.659
3025	0.6951
3034	0.7154
3043	0.7566
3052	0.8088
3061	0.8323
3070	0.8476
3079	0.8562
3088	0.8646
3097	0.8705
3106	0.8747
3115	0.8774
3124	0.8797
3133	0.8819
3142	0.8835
3151	0.8851
3160	0.8867
3169	0.8882
3178	0.8897
3187	0.8911
3196	0.8926
3205	0.8934
3214	0.8939
3223	0.8943
3232	0.8948
3241	0.8953
3250	0.8955
3259	0.8956
3268	0.8956
3277	0.8946
3286	0.8957
3295	0.8957
3304	0.8957
3313	0.8956
3322	0.8955
3331	0.8955
3340	0.8954
3349	0.8953
3358	0.8952
3367	0.8949
3376	0.8944
3385	0.8938
3394	0.8933
3403	0.8928
3412	0.8923
3421	0.8919
3430	0.8915
3439	0.8911
3448	0.8908
3457	0.8906
3466	0.8911
3475	0.8917
3484	0.8924
3493	0.893
3502	0.8937
3511	0.8954
3520	0.8972
3529	0.8991
3538	0.9009
3547	0.9026
3556	0.9043
3565	0.9059
3574	0.9075
3583	0.9092
3592	0.9105
3601	0.911
3610	0.9116
3619	0.9121
3628	0.9127
3637	0.9132
3646	0.9134
3655	0.9135
3664	0.9136
3673	0.9138
3682	0.9139
3691	0.914
3700	0.9142
3709	0.9142
3718	0.9143
3727	0.9144
3736	0.9144
3745	0.9145
3754	0.9146
3763	0.9147
3772	0.9146
3781	0.9146
3790	0.9146
3799	0.9146
3808	0.9145
3817	0.9145
3826	0.9145
3835	0.9142
3844	0.9138
3853	0.9134
3862	0.9129
3871	0.9125
3880	0.9121
3889	0.9117
3898	0.9111
3907	0.9105
3916	0.9099
3925	0.9093
3934	0.9089
3943	0.9087
3952	0.9085
3961	0.9084
3970	0.9082
3979	0.908
3988	0.9078
3997	0.9077
