Infrared Spectrum: 3-METHOXY-17Alpha-OXA-D-HOMOESTRA-1,3,5(10)-TRIEN-17-ONE
Formula: C19 H24 O3
CAS: 64945-54-6
State: SOLID (KBr DISC)
Class: COBLENTZ III
Instrument: BECKMAN IR-7
Sampling: TRANSMISSION
Resolution: 4
Origin: THE WORCESTER FOUNDATION FOR EXPERIMENTAL BIOLOGY, Neal L. McNiven
1/CM	TRANSMITTANCE
683.73	0.985
692.245	0.838
700.76	0.976
709.275	0.849
717.79	0.7588
726.305	0.925
734.82	0.836
743.335	0.877
751.85	0.88
760.365	0.862
768.88	0.842
777.395	0.793
785.91	0.5811
794.425	0.6917
802.94	0.7001
811.455	0.509
819.97	0.344
828.485	0.673
837	0.5053
845.515	0.5808
854.03	0.663
862.545	0.5359
871.06	0.775
879.574	0.768
888.089	0.734
896.604	0.612
905.119	0.562
913.634	0.502
922.149	0.684
930.664	0.677
939.179	0.543
947.694	0.5339
956.209	0.5731
964.724	0.329
973.239	0.598
981.754	0.532
990.269	0.241
998.784	0.5869
1007.3	0.552
1015.81	0.368
1024.33	0.222
1032.84	0.137
1041.36	0.461
1049.87	0.627
1058.39	0.499
1066.9	0.586
1075.42	0.492
1083.93	0.522
1092.45	0.399
1100.96	0.1851
1109.48	0.233
1117.99	0.389
1126.51	0.642
1135.02	0.608
1143.54	0.56
1152.05	0.491
1160.57	0.327
1169.08	0.301
1177.6	0.224
1186.11	0.533
1194.63	0.356
1203.14	0.343
1211.66	0.318
1220.17	0.211
1228.69	0.1231
1237.2	0.161
1245.72	0.225
1254.23	0.435
1262.75	0.322
1271.26	0.3669
1279.78	0.279
1288.29	0.278
1296.81	0.22
1305.32	0.372
1313.84	0.319
1322.35	0.437
1330.87	0.343
1339.38	0.477
1347.9	0.494
1356.41	0.63
1364.93	0.634
1373.44	0.502
1381.96	0.358
1390.47	0.6229
1398.99	0.667
1407.5	0.648
1416.02	0.527
1424.53	0.614
1433.05	0.472
1441.56	0.4311
1450.08	0.405
1458.59	0.326
1467.11	0.397
1475.62	0.5459
1484.14	0.596
1492.65	0.406
1501.17	0.185
1509.68	0.269
1518.2	0.555
1526.71	0.704
1535.23	0.766
1543.74	0.772
1552.26	0.757
1560.77	0.745
1569.29	0.677
1577.8	0.499
1586.32	0.569
1594.83	0.502
1603.35	0.273
1611.86	0.382
1620.38	0.604
1628.89	0.648
1637.41	0.653
1645.92	0.654
1654.44	0.632
1662.95	0.566
1671.47	0.511
1679.98	0.434
1688.5	0.408
1697.01	0.38
1705.53	0.214
1714.04	0.128
1722.56	0.029
1731.07	0.074
1739.59	0.217
1748.1	0.3661
1756.62	0.522
1765.13	0.613
1773.65	0.673
1782.16	0.722
1790.68	0.75
1799.19	0.761
1807.71	0.791
1816.22	0.833
1824.74	0.843
1833.25	0.844
1841.77	0.855
1850.28	0.859
1858.8	0.86
1867.31	0.853
1875.83	0.819
1884.34	0.819
1892.86	0.851
1901.37	0.852
1909.89	0.848
1918.4	0.85
1926.92	0.847
1935.43	0.841
1943.95	0.835
1952.46	0.829
1960.98	0.831
1969.49	0.841
1978.01	0.842
1986.52	0.84
1995.04	0.835
2003.55	0.833
2012.07	0.8317
2020.58	0.8307
2029.1	0.829
2037.61	0.8277
2046.13	0.826
2054.64	0.825
2063.16	0.824
2071.67	0.824
2080.19	0.8216
2088.7	0.8186
2097.22	0.817
2105.73	0.8146
2114.25	0.813
2122.76	0.812
2131.28	0.811
2139.79	0.81
2148.31	0.81
2156.82	0.8085
2165.34	0.806
2173.85	0.8005
2182.37	0.7955
2190.88	0.792
2199.4	0.7849
2207.91	0.7749
2216.43	0.771
2224.94	0.7694
2233.46	0.769
2241.97	0.7674
2250.49	0.766
2259	0.765
2267.52	0.7614
2276.03	0.7594
2284.55	0.7583
2293.06	0.757
2301.58	0.754
2310.09	0.7513
2318.61	0.75
2327.12	0.7483
2335.64	0.748
2344.15	0.747
2352.67	0.747
2361.18	0.746
2369.7	0.745
2378.21	0.7432
2386.73	0.7402
2395.24	0.7362
2403.76	0.7332
2412.27	0.7312
2420.79	0.73
2429.3	0.73
2437.82	0.73
2446.33	0.7262
2454.85	0.7212
2463.36	0.719
2471.88	0.718
2480.39	0.717
2488.91	0.7161
2497.42	0.716
2505.94	0.716
2514.45	0.711
2522.97	0.711
2531.48	0.71
2540	0.709
2548.51	0.7089
2557.03	0.706
2565.54	0.706
2574.06	0.705
2582.57	0.7049
2591.08	0.7038
2599.6	0.6968
2608.11	0.694
2616.63	0.6929
2625.14	0.692
2633.66	0.691
2642.17	0.69
2650.69	0.69
2659.2	0.689
2667.72	0.689
2676.23	0.6888
2684.75	0.6868
2693.26	0.6848
2701.78	0.6838
2710.29	0.682
2718.81	0.6817
2727.32	0.681
2735.84	0.6797
2744.35	0.6764
2752.87	0.6694
2761.38	0.665
2769.9	0.6627
2778.41	0.6546
2786.93	0.6408
2795.44	0.6227
2803.96	0.6022
2812.47	0.5788
2820.99	0.5246
2829.5	0.4298
2838.02	0.3957
2846.53	0.4215
2855.05	0.3274
2863.56	0.2711
2872.08	0.2813
2880.59	0.3481
2889.11	0.356
2897.62	0.3433
2906.14	0.323
2914.65	0.2875
2923.17	0.2649
2931.68	0.2497
2940.2	0.2079
2948.71	0.1944
2957.23	0.2112
2965.74	0.2664
2974.26	0.3746
2982.77	0.3487
2991.29	0.373
2999.8	0.4378
3008.32	0.5435
3016.83	0.5844
3025.35	0.5814
3033.86	0.5447
3042.38	0.5357
3050.89	0.5737
3059.41	0.5334
3067.92	0.5306
3076.44	0.5955
3084.95	0.6138
3093.47	0.6148
3101.98	0.6196
3110.5	0.6218
3119.01	0.622
3127.53	0.622
3136.04	0.622
3144.56	0.6229
3153.07	0.624
3161.59	0.6249
3170.1	0.625
3178.62	0.6269
3187.13	0.6289
3195.65	0.629
3204.16	0.627
3212.68	0.625
3221.19	0.625
3229.71	0.624
3238.22	0.625
3246.74	0.627
3255.25	0.629
3263.77	0.629
3272.28	0.628
3280.8	0.627
3289.31	0.626
3297.83	0.6249
3306.34	0.6229
3314.86	0.621
3323.37	0.62
3331.89	0.619
3340.4	0.618
3348.92	0.6178
3357.43	0.6166
3365.95	0.6128
3374.46	0.6118
3382.98	0.6098
3391.49	0.6055
3400.01	0.599
3408.52	0.5835
3417.04	0.5721
3425.55	0.5563
3434.07	0.5717
3442.58	0.5859
3451.1	0.596
3459.61	0.6017
3468.13	0.6043
3476.64	0.605
3485.16	0.6064
3493.67	0.6084
3502.19	0.6104
3510.7	0.612
3519.22	0.615
3527.73	0.616
3536.25	0.617
3544.76	0.617
3553.28	0.6175
3561.79	0.619
3570.31	0.62
3578.82	0.6205
3587.34	0.621
3595.85	0.622
3604.37	0.622
3612.88	0.622
3621.4	0.622
3629.91	0.6226
3638.43	0.6266
3646.94	0.627
3655.46	0.627
3663.97	0.626
3672.49	0.6254
3681	0.625
3689.52	0.6233
3698.03	0.622
3706.55	0.6193
3715.06	0.6163
3723.58	0.6143
3732.09	0.613
3740.61	0.6137
3749.12	0.6157
3757.64	0.617
3766.15	0.6087
3774.67	0.6062
3783.18	0.604
3791.7	0.603
3800.21	0.602
3808.73	0.602
3817.24	0.602
3825.76	0.601
3834.27	0.601
3842.79	0.601
3851.3	0.601
3859.82	0.601
3868.33	0.601
3876.85	0.6
3885.36	0.5991
3893.88	0.597
3902.39	0.596
3910.91	0.596
3919.42	0.594
3927.94	0.593
3936.45	0.591
3944.97	0.589
3953.48	0.588
3962	0.586
3970.51	0.585
3979.03	0.584
3987.54	0.5839
3996.06	0.5829
4004.57	0.5829
