Infrared Spectrum: 2-(2',6'-Dimethoxyphenyl)-4,4-dimethyl-2-oxazoline
Formula: C 13 H 17 N O 3
CAS: 64957-86-4
State: gas
Origin: EPA-IR VAPOR PHASE LIBRARY
1/CM	ABSORBANCE
549.8	0.005019
559.445	0.004429
569.09	0.003469
578.734	0.003389
588.379	0.003659
598.024	0.004239
607.669	0.004689
617.313	0.009049
626.958	0.012689
636.603	0.010419
646.248	0.008029
655.893	0.007029
665.537	0.005449
675.182	0.004619
684.827	0.004909
694.472	0.007719
704.116	0.011109
713.761	0.023009
723.406	0.044589
733.051	0.034349
742.695	0.016779
752.34	0.007059
761.985	0.005169
771.63	0.005859
781.275	0.010369
790.919	0.012799
800.564	0.009579
810.209	0.008689
819.854	0.008419
829.498	0.004689
839.143	0.003359
848.788	0.003579
858.433	0.006189
868.078	0.008729
877.722	0.006259
887.367	0.006379
897.012	0.008869
906.657	0.014519
916.301	0.028179
925.946	0.023589
935.591	0.013549
945.236	0.012249
954.88	0.017399
964.525	0.024849
974.17	0.026979
983.815	0.033999
993.46	0.035799
1003.1	0.023189
1012.75	0.027679
1022.39	0.048899
1032.04	0.094699
1041.68	0.157279
1051.33	0.092909
1060.97	0.051039
1070.62	0.056559
1080.26	0.085279
1089.91	0.120449
1099.55	0.150019
1109.2	0.166159
1118.84	0.129419
1128.49	0.071529
1138.13	0.033859
1147.78	0.021189
1157.42	0.017889
1167.07	0.023289
1176.71	0.033049
1186.36	0.035539
1196	0.029529
1205.64	0.031819
1215.29	0.033069
1224.93	0.041899
1234.58	0.085109
1244.22	0.156659
1253.87	0.153349
1263.51	0.090359
1273.16	0.069359
1282.8	0.074919
1292.45	0.090869
1302.09	0.078009
1311.74	0.040169
1321.38	0.024679
1331.03	0.023919
1340.67	0.032689
1350.32	0.030789
1359.96	0.024239
1369.61	0.025369
1379.25	0.015719
1388.9	0.015389
1398.54	0.013299
1408.18	0.015969
1417.83	0.027219
1427.47	0.058269
1437.12	0.074789
1446.76	0.048599
1456.41	0.057599
1466.05	0.129339
1475.7	0.176449
1485.34	0.075809
1494.99	0.029289
1504.63	0.017359
1514.28	0.013129
1523.92	0.011819
1533.57	0.012179
1543.21	0.014889
1552.86	0.021619
1562.5	0.036799
1572.15	0.064289
1581.79	0.098379
1591.44	0.115719
1601.08	0.067179
1610.73	0.030599
1620.37	0.022839
1630.01	0.023749
1639.66	0.030589
1649.3	0.050089
1658.95	0.092119
1668.59	0.144409
1678.24	0.130639
1687.88	0.063719
1697.53	0.025769
1707.17	0.014189
1716.82	0.010519
1726.46	0.009129
1736.11	0.008179
1745.75	0.006179
1755.4	0.004649
1765.04	0.004499
1774.69	0.004409
1784.33	0.004769
1793.98	0.004279
1803.62	0.004059
1813.27	0.004289
1822.91	0.003759
1832.55	0.003799
1842.2	0.003779
1851.84	0.003489
1861.49	0.003169
1871.13	0.003209
1880.78	0.003639
1890.42	0.004889
1900.07	0.005629
1909.71	0.005329
1919.36	0.004099
1929	0.004429
1938.65	0.004799
1948.29	0.004709
1957.94	0.004349
1967.58	0.003959
1977.23	0.003839
1986.87	0.003909
1996.52	0.003479
2006.16	0.003059
2015.81	0.002709
2025.45	0.002619
2035.1	0.002479
2044.74	0.002449
2054.38	0.002349
2064.03	0.002489
2073.67	0.002469
2083.32	0.002249
2092.96	0.002549
2102.61	0.002839
2112.25	0.002899
2121.9	0.003009
2131.54	0.003239
2141.19	0.003409
2150.83	0.003539
2160.48	0.003529
2170.12	0.003839
2179.77	0.004149
2189.41	0.004779
2199.06	0.004639
2208.7	0.004369
2218.35	0.003509
2227.99	0.002639
2237.64	0.002149
2247.28	0.0018428
2256.92	0.001969
2266.57	0.0018344
2276.21	0.0017576
2285.86	0.0015922
2295.5	0.0018337
2305.15	0.002049
2314.79	0.002169
2324.44	0.002429
2334.08	0.002209
2343.73	0.002259
2353.37	0.001959
2363.02	0.002059
2372.66	0.002179
2382.31	0.002739
2391.95	0.002669
2401.6	0.002319
2411.24	0.001765
2420.89	0.001429
2430.53	0.0015238
2440.18	0.0017726
2449.82	0.0018987
2459.47	0.0016427
2469.11	0.0016006
2478.75	0.002039
2488.4	0.0017924
2498.04	0.002439
2507.69	0.003019
2517.33	0.003179
2526.98	0.003389
2536.62	0.003529
2546.27	0.003449
2555.91	0.002999
2565.56	0.002839
2575.2	0.002869
2584.85	0.002379
2594.49	0.002509
2604.14	0.002349
2613.78	0.002489
2623.43	0.002269
2633.07	0.002339
2642.72	0.002479
2652.36	0.002159
2662.01	0.002279
2671.65	0.002159
2681.29	0.002199
2690.94	0.002439
2700.58	0.002849
2710.23	0.002959
2719.87	0.003429
2729.52	0.003379
2739.16	0.003609
2748.81	0.003709
2758.45	0.003429
2768.1	0.004169
2777.74	0.004269
2787.39	0.004989
2797.03	0.005979
2806.68	0.008289
2816.32	0.011029
2825.97	0.016229
2835.61	0.030729
2845.26	0.044419
2854.9	0.031909
2864.55	0.030629
2874.19	0.040039
2883.84	0.047029
2893.48	0.056659
2903.12	0.055819
2912.77	0.053409
2922.41	0.060349
2932.06	0.085029
2941.7	0.102199
2951.35	0.091609
2960.99	0.094699
2970.64	0.122979
2980.28	0.102149
2989.93	0.054979
2999.57	0.046189
3009.22	0.042769
3018.86	0.024739
3028.51	0.016809
3038.15	0.013849
3047.8	0.011759
3057.44	0.012549
3067.09	0.014749
3076.73	0.017229
3086.38	0.017769
3096.02	0.012909
3105.67	0.007659
3115.31	0.005319
3124.95	0.004709
3134.6	0.004349
3144.24	0.004199
3153.89	0.003829
3163.53	0.003509
3173.18	0.003029
3182.82	0.003539
3192.47	0.002829
3202.11	0.002709
3211.76	0.002169
3221.4	0.002109
3231.05	0.002219
3240.69	0.001989
3250.34	0.002159
3259.98	0.0018268
3269.63	0.0018834
3279.27	0.0017442
3288.92	0.0010941
3298.56	0.0014372
3308.21	0.0013905
3317.85	0.001999
3327.49	0.0017503
3337.14	0.002169
3346.78	0.00098058
3356.43	0.0011556
3366.07	0.00094113
3375.72	0.0012389
3385.36	0.00099876
3395.01	0.0010733
3404.65	0.0011346
3414.3	0.0011646
3423.94	0.0008634
3433.59	0.00104559
3443.23	0.000703
3452.88	0.0009154
3462.52	0.000492
3472.17	0.000801
3481.81	0.000441
3491.46	0.000691
3501.1	0.0011319
3510.75	0.001151
3520.39	0.0008606
3530.04	0.000336
3539.68	0.000171
3549.32	0.0011157
3558.97	0.000246
3568.61	0.00075
3578.26	0.0012713
3587.9	0.000544
3597.55	0.000495
3607.19	0.000694
3616.84	0.00079
3626.48	0.000802
3636.13	0
3645.77	0.0011449
3655.42	0.000589
3665.06	0.000643
3674.71	0.000504
3684.35	0.000515
3694	0.000746
3703.64	0.000592
3713.29	0.000536
3722.93	0.000552
3732.58	0.000787
3742.22	0.000499
3751.86	0.00055
3761.51	0.0012591
3771.15	0.0008501
3780.8	0.00099853
3790.44	0.000816
3800.09	0.000527
3809.73	0.0011191
3819.38	0.0013566
3829.02	0.00097078
3838.67	0.000813
3848.31	0.000749
3857.96	0.0012802
3867.6	0.0016472
3877.25	0.0012868
3886.89	0.00096975
3896.54	0.0012906
3906.18	0.0014083
3915.83	0.00099254
3925.47	0.0010371
3935.12	0.00101288
3944.76	0.0012516
3954.41	0.0015684
3964.05	0.0014395
3973.69	0.0011998
3983.34	0.0010167
3992.98	0.0011635
