Infrared Spectrum: 2-(2',5'-Dimethoxyphenyl)-4,4-dimethyl-2-oxazoline
Formula: C 13 H 17 N O 3
CAS: 64957-84-2
State: gas
Origin: EPA-IR VAPOR PHASE LIBRARY
1/CM	ABSORBANCE
549.8	0.00236
559.445	0.0016771
569.09	0.00289
578.734	0.00305
588.379	0.00473
598.024	0.00542
607.669	0.00538
617.313	0.00641
626.958	0.00374
636.603	0.0017587
646.248	0.00201
655.893	0.0016822
665.537	0.00236
675.182	0.00349
684.827	0.00439
694.472	0.00516
704.116	0.00741
713.761	0.00768
723.406	0.00718
733.051	0.00954
742.695	0.0122
752.34	0.01143
761.985	0.00788
771.63	0.00472
781.275	0.00324
790.919	0.00425
800.564	0.00679
810.209	0.01098
819.854	0.01405
829.498	0.01276
839.143	0.00725
848.788	0.00572
858.433	0.00551
868.078	0.00708
877.722	0.00821
887.367	0.01026
897.012	0.01222
906.657	0.0114
916.301	0.00857
925.946	0.01055
935.591	0.00865
945.236	0.00791
954.88	0.00988
964.525	0.0146
974.17	0.0191
983.815	0.02356
993.46	0.03386
1003.1	0.02431
1012.75	0.02228
1022.39	0.03345
1032.04	0.06052
1041.68	0.08864
1051.33	0.07789
1060.97	0.04594
1070.62	0.0225
1080.26	0.01141
1089.91	0.00663
1099.55	0.00603
1109.2	0.00585
1118.84	0.00758
1128.49	0.00821
1138.13	0.00772
1147.78	0.00904
1157.42	0.01319
1167.07	0.02341
1176.71	0.03604
1186.36	0.04122
1196	0.04447
1205.64	0.05009
1215.29	0.07172
1224.93	0.0922
1234.58	0.06545
1244.22	0.04252
1253.87	0.04366
1263.51	0.05449
1273.16	0.05054
1282.8	0.034
1292.45	0.03024
1302.09	0.0361
1311.74	0.03531
1321.38	0.02602
1331.03	0.01863
1340.67	0.02133
1350.32	0.02277
1359.96	0.01379
1369.61	0.01251
1379.25	0.01043
1388.9	0.01038
1398.54	0.01489
1408.18	0.02726
1417.83	0.04311
1427.47	0.03677
1437.12	0.02517
1446.76	0.02264
1456.41	0.02548
1466.05	0.03568
1475.7	0.04024
1485.34	0.05852
1494.99	0.1034
1504.63	0.09159
1514.28	0.0351
1523.92	0.01408
1533.57	0.00929
1543.21	0.00748
1552.86	0.00688
1562.5	0.00832
1572.15	0.012
1581.79	0.01471
1591.44	0.015
1601.08	0.01985
1610.73	0.02183
1620.37	0.02006
1630.01	0.02482
1639.66	0.03475
1649.3	0.04766
1658.95	0.04809
1668.59	0.02962
1678.24	0.01768
1687.88	0.01073
1697.53	0.00741
1707.17	0.00602
1716.82	0.005
1726.46	0.00414
1736.11	0.0035
1745.75	0.00294
1755.4	0.00279
1765.04	0.00278
1774.69	0.00235
1784.33	0.00243
1793.98	0.00218
1803.62	0.00247
1813.27	0.00239
1822.91	0.00217
1832.55	0.00187
1842.2	0.00206
1851.84	0.00239
1861.49	0.00247
1871.13	0.00239
1880.78	0.00237
1890.42	0.00211
1900.07	0.00192
1909.71	0.00188
1919.36	0.00198
1929	0.00194
1938.65	0.00208
1948.29	0.00227
1957.94	0.00216
1967.58	0.00265
1977.23	0.00258
1986.87	0.00279
1996.52	0.00295
2006.16	0.00309
2015.81	0.00282
2025.45	0.00311
2035.1	0.003
2044.74	0.00299
2054.38	0.00295
2064.03	0.00295
2073.67	0.00286
2083.32	0.00255
2092.96	0.00257
2102.61	0.00211
2112.25	0.00187
2121.9	0.00198
2131.54	0.0017606
2141.19	0.0017509
2150.83	0.0012998
2160.48	0.0015
2170.12	0.0013489
2179.77	0.0014951
2189.41	0.0014095
2199.06	0.0015008
2208.7	0.0012208
2218.35	0.0013804
2227.99	0.0017778
2237.64	0.0014216
2247.28	0.0015906
2256.92	0.0016864
2266.57	0.0014359
2276.21	0.0014393
2285.86	0.0015602
2295.5	0.0013523
2305.15	0.001796
2314.79	0.001806
2324.44	0.00185
2334.08	0.0016816
2343.73	0.0013904
2353.37	0.0015133
2363.02	0.0015191
2372.66	0.0016264
2382.31	0.0014557
2391.95	0.0011184
2401.6	0.0014556
2411.24	0.0015735
2420.89	0.00182
2430.53	0.0014748
2440.18	0.0014737
2449.82	0.00191
2459.47	0.0017343
2469.11	0.0015257
2478.75	0.00196
2488.4	0.00186
2498.04	0.0016433
2507.69	0.00197
2517.33	0.0017367
2526.98	0.00192
2536.62	0.0016931
2546.27	0.0014947
2555.91	0.0015378
2565.56	0.0015983
2575.2	0.0015612
2584.85	0.0018334
2594.49	0.0017169
2604.14	0.00192
2613.78	0.00196
2623.43	0.0015317
2633.07	0.0014922
2642.72	0.0016576
2652.36	0.0015266
2662.01	0.00198
2671.65	0.0016254
2681.29	0.0014296
2690.94	0.0015611
2700.58	0.0017327
2710.23	0.0015015
2719.87	0.00199
2729.52	0.00223
2739.16	0.00204
2748.81	0.00215
2758.45	0.00264
2768.1	0.0026
2777.74	0.00271
2787.39	0.00348
2797.03	0.0042
2806.68	0.0053
2816.32	0.00763
2825.97	0.01107
2835.61	0.0194
2845.26	0.02129
2854.9	0.01619
2864.55	0.01609
2874.19	0.02024
2883.84	0.02403
2893.48	0.02938
2903.12	0.02973
2912.77	0.03156
2922.41	0.03469
2932.06	0.04429
2941.7	0.05145
2951.35	0.04547
2960.99	0.04858
2970.64	0.06593
2980.28	0.04763
2989.93	0.03158
2999.57	0.02932
3009.22	0.0249
3018.86	0.01243
3028.51	0.00881
3038.15	0.00788
3047.8	0.00764
3057.44	0.00751
3067.09	0.00775
3076.73	0.0074
3086.38	0.00624
3096.02	0.00403
3105.67	0.0037
3115.31	0.00379
3124.95	0.00276
3134.6	0.002
3144.24	0.00206
3153.89	0.00256
3163.53	0.00292
3173.18	0.00238
3182.82	0.00196
3192.47	0.00195
3202.11	0.00216
3211.76	0.002
3221.4	0.00257
3231.05	0.0015297
3240.69	0.0016483
3250.34	0.00207
3259.98	0.0017332
3269.63	0.00206
3279.27	0.0016842
3288.92	0.0012666
3298.56	0.0013245
3308.21	0.0011447
3317.85	0.0010381
3327.49	0.001654
3337.14	0.000694
3346.78	0.0012252
3356.43	0.0010185
3366.07	0.00086146
3375.72	0.0010921
3385.36	0.00090345
3395.01	0.0016795
3404.65	0.001388
3414.3	0.0007823
3423.94	0.0011945
3433.59	0.0014728
3443.23	0.0011481
3452.88	0.000685
3462.52	0.000383
3472.17	0.0013261
3481.81	0.0007799
3491.46	0.0010172
3501.1	0.001043
3510.75	0.0009608
3520.39	0.000572
3530.04	0.0011967
3539.68	0.0011017
3549.32	0.0009457
3558.97	0.0013112
3568.61	0.0010805
3578.26	0.0013869
3587.9	0.0007544
3597.55	0.00055
3607.19	0.001631
3616.84	0.0010583
3626.48	0.0013023
3636.13	0.00092316
3645.77	0.0009914
3655.42	0.0011067
3665.06	0.000595
3674.71	0.0016381
3684.35	0.0008017
3694	0.0010842
3703.64	0.0012304
3713.29	0.00085963
3722.93	0.0013898
3732.58	0.0011828
3742.22	0.0010527
3751.86	0.00083878
3761.51	0.000465
3771.15	0.0011642
3780.8	0.000245
3790.44	0.0009988
3800.09	0.000727
3809.73	0.000518
3819.38	0.0013069
3829.02	0.0009524
3838.67	0.000339
3848.31	0.0013729
3857.96	0.0017166
3867.6	0.001443
3877.25	0.0007844
3886.89	0.0011837
3896.54	0.00187
3906.18	0.0009779
3915.83	0.0009932
3925.47	0.0012727
3935.12	0.001385
3944.76	0.0017009
3954.41	0.0011727
3964.05	0.0016585
3973.69	0.000669
3983.34	0.0017316
3992.98	0.0011459
