Infrared Spectrum: 2-Pyridinecarbamic acid, 6-(acetonylamino)-4-amino-5-nitro-, ethyl ester, hydrobromide
Formula: C11 H16 Br N5 O5
CAS: 6497-83-2
State: SOLID (1 mg / 500 mg KBr DISC)
Class: COBLENTZ III
Instrument: PERKIN-ELMER 521 (GRATING)
Instrument parameters: FILTERS AT 3150, 2500, 2000, 1150, 700, 410. GRATING CHANGES: 2000, 630
Sampling: TRANSMISSION
Resolution: 2
Origin: SOUTHERN RESEARCH INSTITUTE
1/CM	TRANSMITTANCE
251	0.1355
260	0.1551
269	0.1799
278	0.2201
287	0.2659
296	0.3217
305	0.3562
314	0.3707
323	0.3963
332	0.4315
341	0.4467
350	0.4675
359	0.5119
368	0.506
377	0.5266
386	0.5434
395	0.551
404	0.5777
413	0.5616
422	0.5399
431	0.5857
440	0.5789
449	0.5537
458	0.613
467	0.6177
476	0.6438
485	0.6475
494	0.6471
503	0.6455
512	0.6427
521	0.6257
530	0.6134
539	0.636
548	0.6254
557	0.6116
566	0.5905
575	0.4996
584	0.5224
593	0.39
602	0.403
611	0.5459
620	0.5208
629	0.5408
638	0.5792
647	0.5734
656	0.5606
665	0.5158
674	0.3818
683	0.4055
692	0.4367
701	0.3439
710	0.404
719	0.4838
728	0.559
737	0.5293
746	0.4959
755	0.5411
764	0.4684
773	0.5852
782	0.6354
791	0.6421
800	0.627
809	0.5737
818	0.6093
827	0.5872
836	0.4921
845	0.577
854	0.6406
863	0.6744
872	0.6765
881	0.6691
890	0.6824
899	0.6901
908	0.6903
917	0.6913
926	0.6914
935	0.6878
944	0.6791
953	0.6659
962	0.6644
971	0.6359
980	0.6323
989	0.6212
998	0.6144
1007	0.5421
1016	0.377
1025	0.5604
1034	0.6103
1043	0.5156
1052	0.4417
1061	0.5754
1070	0.5943
1079	0.5728
1088	0.5181
1097	0.5494
1106	0.5973
1115	0.5896
1124	0.5489
1133	0.4903
1142	0.4366
1151	0.2074
1160	0.2576
1169	0.3762
1178	0.3084
1187	0.1995
1196	0.229
1205	0.1669
1214	0.0682
1223	0.0592
1232	0.1617
1241	0.2287
1250	0.293
1259	0.4289
1268	0.4483
1277	0.4425
1286	0.4148
1295	0.4068
1304	0.3282
1313	0.2094
1322	0.2524
1331	0.4384
1340	0.4464
1349	0.3607
1358	0.2982
1367	0.3295
1376	0.4102
1385	0.4563
1394	0.4485
1403	0.4048
1412	0.3754
1421	0.4338
1430	0.4222
1439	0.4345
1448	0.457
1457	0.4632
1466	0.409
1475	0.2399
1484	0.1968
1493	0.4094
1502	0.4125
1511	0.3521
1520	0.4223
1529	0.4169
1538	0.2533
1547	0.1092
1556	0.0836
1565	0.2428
1574	0.4267
1583	0.4263
1592	0.4005
1601	0.2729
1610	0.1207
1619	0.3265
1628	0.2757
1637	0.1252
1646	0.1167
1655	0.0624
1664	0.1244
1673	0.3564
1682	0.4798
1691	0.5193
1700	0.5009
1709	0.3833
1718	0.2396
1727	0.4045
1736	0.3929
1745	0.1093
1754	0.3307
1763	0.577
1772	0.6347
1781	0.656
1790	0.6733
1799	0.6828
1808	0.684
1817	0.6857
1826	0.6878
1835	0.6919
1844	0.697
1853	0.6986
1862	0.699
1871	0.6987
1880	0.6976
1889	0.6967
1898	0.696
1907	0.6955
1916	0.6954
1925	0.6956
1934	0.6958
1943	0.6958
1952	0.6957
1961	0.6958
1970	0.6959
1979	0.6959
1988	0.6952
1997	0.6846
2006	0.6837
2015	0.6827
2024	0.682
2033	0.6813
2042	0.6807
2051	0.6802
2060	0.6797
2069	0.6792
2078	0.6788
2087	0.6785
2096	0.6781
2105	0.6778
2114	0.6774
2123	0.677
2132	0.6758
2141	0.6742
2150	0.6725
2159	0.6709
2168	0.6692
2177	0.6676
2186	0.666
2195	0.6644
2204	0.6632
2213	0.6624
2222	0.6618
2231	0.6613
2240	0.6608
2249	0.6601
2258	0.6594
2267	0.6588
2276	0.6598
2285	0.661
2294	0.661
2303	0.6573
2312	0.6526
2321	0.6464
2330	0.6446
2339	0.642
2348	0.6405
2357	0.6388
2366	0.639
2375	0.6401
2384	0.6418
2393	0.6434
2402	0.6444
2411	0.6433
2420	0.641
2429	0.638
2438	0.6359
2447	0.6361
2456	0.64
2465	0.6325
2474	0.6225
2483	0.6271
2492	0.6255
2501	0.621
2510	0.6172
2519	0.6137
2528	0.6118
2537	0.6102
2546	0.6093
2555	0.6085
2564	0.6077
2573	0.607
2582	0.6062
2591	0.6048
2600	0.6006
2609	0.5953
2618	0.591
2627	0.5844
2636	0.5777
2645	0.5744
2654	0.5694
2663	0.5646
2672	0.5595
2681	0.5539
2690	0.5465
2699	0.5393
2708	0.5329
2717	0.5278
2726	0.5226
2735	0.5166
2744	0.5033
2753	0.49
2762	0.4761
2771	0.468
2780	0.4666
2789	0.4649
2798	0.456
2807	0.4422
2816	0.4271
2825	0.4108
2834	0.3907
2843	0.3726
2852	0.3614
2861	0.3528
2870	0.3446
2879	0.3408
2888	0.3373
2897	0.3309
2906	0.3124
2915	0.298
2924	0.309
2933	0.3125
2942	0.3099
2951	0.3097
2960	0.3149
2969	0.3094
2978	0.2693
2987	0.2442
2996	0.2301
3005	0.2274
3014	0.238
3023	0.2674
3032	0.2788
3041	0.2913
3050	0.3004
3059	0.3197
3068	0.3444
3077	0.3625
3086	0.3684
3095	0.3594
3104	0.3477
3113	0.3268
3122	0.2819
3131	0.2381
3140	0.2278
3149	0.2301
3158	0.2482
3167	0.2784
3176	0.2835
3185	0.3213
3194	0.4103
3203	0.4177
3212	0.4032
3221	0.3724
3230	0.3465
3239	0.3441
3248	0.3573
3257	0.3825
3266	0.408
3275	0.4391
3284	0.462
3293	0.4757
3302	0.4868
3311	0.4958
3320	0.5015
3329	0.5037
3338	0.5037
3347	0.5024
3356	0.4985
3365	0.4925
3374	0.4822
3383	0.4652
3392	0.417
3401	0.2855
3410	0.2617
3419	0.4401
3428	0.4707
3437	0.4916
3446	0.5058
3455	0.5183
3464	0.5229
3473	0.5277
3482	0.5323
3491	0.5408
3500	0.5433
