Infrared Spectrum: Aniline, 2-tert-butyl-6-chloro-
Formula: C10 H14 Cl N
CAS: 64985-31-5
State: LIQUID (NEAT)
Class: COBLENTZ III
Instrument: BECKMAN IR-4 (HYBRID PRISM-GRATING)
Instrument parameters: NaCl PRISM
Sampling: TRANSMISSION
Path length: 0.0013 CM
Resolution: 2
Origin: MONSANTO (J. FREEMAN)
1/CM	TRANSMITTANCE
625.431	0.4976
634.267	0.4972
643.103	0.4926
651.94	0.496
660.776	0.5071
669.612	0.5285
678.448	0.5643
687.284	0.5779
696.12	0.5936
704.957	0.6156
713.793	0.6107
722.629	0.4357
731.465	0.067
740.301	0.2053
749.137	0.3448
757.974	0.5584
766.81	0.441
775.646	0.3412
784.482	0.7039
793.318	0.7452
802.154	0.7566
810.991	0.7468
819.827	0.6638
828.663	0.7146
837.499	0.7625
846.335	0.7303
855.171	0.5342
864.008	0.7994
872.844	0.8326
881.68	0.8401
890.516	0.8372
899.352	0.8277
908.188	0.8482
917.025	0.842
925.861	0.7916
934.697	0.8127
943.533	0.8194
952.369	0.8015
961.205	0.848
970.042	0.8742
978.878	0.8795
987.714	0.8827
996.55	0.8823
1005.39	0.8737
1014.22	0.8317
1023.06	0.8372
1031.89	0.8162
1040.73	0.7455
1049.57	0.5618
1058.4	0.3321
1067.24	0.3106
1076.08	0.3403
1084.91	0.4342
1093.75	0.4458
1102.58	0.6897
1111.42	0.8275
1120.26	0.8568
1129.09	0.8815
1137.93	0.8986
1146.76	0.9016
1155.6	0.8691
1164.44	0.8832
1173.27	0.8973
1182.11	0.8797
1190.95	0.7631
1199.78	0.6924
1208.62	0.8712
1217.45	0.8765
1226.29	0.8654
1235.13	0.8142
1243.96	0.586
1252.8	0.4269
1261.64	0.2151
1270.47	0.4271
1279.31	0.6826
1288.14	0.8109
1296.98	0.7372
1305.82	0.7846
1314.65	0.8337
1323.49	0.8679
1332.32	0.9046
1341.16	0.9139
1350	0.9098
1358.83	0.8706
1367.67	0.534
1376.51	0.6824
1385.34	0.8325
1394.18	0.7127
1403.01	0.6074
1411.85	0.7468
1420.69	0.6003
1429.52	0.2078
1438.36	0.0307
1447.19	0.0588
1456.03	0.3402
1464.87	0.2579
1473.7	0.199
1482.54	0.3951
1491.38	0.5997
1500.21	0.7775
1509.05	0.8146
1517.88	0.8387
1526.72	0.8529
1535.56	0.8658
1544.39	0.8631
1553.23	0.8469
1562.06	0.7853
1570.9	0.6906
1579.74	0.5945
1588.57	0.5619
1597.41	0.422
1606.25	0.0644
1615.08	0.0397
1623.92	0.1888
1632.75	0.4039
1641.59	0.6163
1650.43	0.7059
1659.26	0.8251
1668.1	0.8421
1676.93	0.8499
1685.77	0.8606
1694.61	0.9074
1703.44	0.9177
1712.28	0.9389
1721.12	0.9565
1729.95	0.9456
1738.79	0.9471
1747.62	0.9571
1756.46	0.958
1765.3	0.9544
1774.13	0.9475
1782.97	0.9406
1791.81	0.9144
1800.64	0.9123
1809.48	0.9226
1818.31	0.9291
1827.15	0.9253
1835.99	0.9179
1844.82	0.8942
1853.66	0.8902
1862.49	0.9151
1871.33	0.9219
1880.17	0.9353
1889	0.923
1897.84	0.9031
1906.68	0.8993
1915.51	0.9135
1924.35	0.9328
1933.18	0.9418
1942.02	0.9419
1950.86	0.944
1959.69	0.9475
1968.53	0.9469
1977.36	0.9458
1986.2	0.9445
1995.04	0.9424
2003.87	0.9409
2012.71	0.9408
2021.55	0.9444
2030.38	0.9471
2039.22	0.9459
2048.05	0.9446
2056.89	0.944
2065.73	0.9436
2074.56	0.944
2083.4	0.9445
2092.23	0.9452
2101.07	0.9454
2109.91	0.944
2118.74	0.9418
2127.58	0.9418
2136.42	0.9442
2145.25	0.9465
2154.09	0.9468
2162.92	0.9466
2171.76	0.9463
2180.6	0.9462
2189.43	0.9463
2198.27	0.9464
2207.1	0.9467
2215.94	0.947
2224.78	0.9471
2233.61	0.9469
2242.45	0.9462
2251.29	0.945
2260.12	0.9428
2268.96	0.9433
2277.79	0.9456
2286.63	0.9449
2295.47	0.9395
2304.3	0.9312
2313.14	0.9289
2321.98	0.9289
2330.81	0.9295
2339.65	0.9303
2348.48	0.9318
2357.32	0.9337
2366.16	0.9376
2374.99	0.9485
2383.83	0.9617
2392.66	0.9612
2401.5	0.9575
2410.34	0.9528
2419.17	0.949
2428.01	0.9476
2436.85	0.9481
2445.68	0.9489
2454.52	0.9497
2463.35	0.9507
2472.19	0.9514
2481.03	0.952
2489.86	0.952
2498.7	0.9515
2507.53	0.9497
2516.37	0.9476
2525.21	0.9448
2534.04	0.9419
2542.88	0.9395
2551.72	0.9377
2560.55	0.9358
2569.39	0.934
2578.22	0.9331
2587.06	0.9326
2595.9	0.9324
2604.73	0.9336
2613.57	0.9348
2622.4	0.9379
2631.24	0.9414
2640.08	0.9448
2648.91	0.9453
2657.75	0.9454
2666.59	0.9454
2675.42	0.9453
2684.26	0.9452
2693.09	0.9439
2701.93	0.9422
2710.77	0.9405
2719.6	0.9388
2728.44	0.9372
2737.27	0.9363
2746.11	0.9366
2754.95	0.9375
2763.78	0.9389
2772.62	0.9399
2781.46	0.9384
2790.29	0.9356
2799.13	0.9298
2807.96	0.9238
2816.8	0.9161
2825.64	0.9083
2834.47	0.8987
2843.31	0.8869
2852.15	0.8709
2860.98	0.7779
2869.82	0.6
2878.65	0.5071
2887.49	0.5033
2896.33	0.4984
2905.16	0.4447
2914	0.4243
2922.83	0.4132
2931.67	0.3606
2940.51	0.2277
2949.34	0.1586
2958.18	0.1544
2967.02	0.1644
2975.85	0.269
2984.69	0.3825
2993.52	0.4953
3002.36	0.6075
3011.2	0.7189
3020.03	0.8196
3028.87	0.8456
3037.7	0.8485
3046.54	0.8395
3055.38	0.8279
3064.21	0.8164
3073.05	0.8112
3081.89	0.8244
3090.72	0.8478
3099.56	0.871
3108.39	0.8946
3117.23	0.913
3126.07	0.9226
3134.9	0.9265
3143.74	0.9277
3152.57	0.9276
3161.41	0.9272
3170.25	0.9269
3179.08	0.9265
3187.92	0.9268
3196.76	0.9274
3205.59	0.9287
3214.43	0.9317
3223.26	0.9344
3232.1	0.937
3240.94	0.9393
3249.77	0.9413
3258.61	0.9433
3267.44	0.9441
3276.28	0.944
3285.12	0.9429
3293.95	0.9414
3302.79	0.9396
3311.63	0.9365
3320.46	0.9322
3329.3	0.9115
3338.13	0.843
3346.97	0.7747
3355.81	0.7069
3364.64	0.6394
3373.48	0.5722
3382.32	0.5055
3391.15	0.488
3399.99	0.5048
3408.82	0.5929
3417.66	0.6887
3426.5	0.784
3435.33	0.8463
3444.17	0.847
3453	0.807
3461.84	0.7448
3470.68	0.6828
3479.51	0.6211
3488.35	0.5598
3497.19	0.5144
3506.02	0.5139
3514.86	0.5604
3523.69	0.6219
3532.53	0.6832
3541.37	0.744
3550.2	0.8046
3559.04	0.8809
3567.87	0.895
3576.71	0.903
3585.55	0.9082
3594.38	0.9118
3603.22	0.915
3612.06	0.9181
3620.89	0.9209
3629.73	0.9239
3638.56	0.9279
3647.4	0.9321
3656.24	0.9361
3665.07	0.9397
3673.91	0.9406
3682.74	0.9412
3691.58	0.9416
3700.42	0.9417
3709.25	0.9417
3718.09	0.9418
3726.93	0.9419
3735.76	0.9424
3744.6	0.9433
3753.43	0.9459
3762.27	0.9519
3771.11	0.957
3779.94	0.9566
3788.78	0.9555
3797.61	0.9532
3806.45	0.9504
3815.29	0.9476
3824.12	0.9449
3832.96	0.9423
3841.8	0.9407
3850.63	0.9399
3859.47	0.9397
3868.3	0.9403
3877.14	0.941
3885.98	0.9418
3894.81	0.9426
3903.65	0.9433
3912.49	0.9439
3921.32	0.9444
3930.16	0.9448
