Infrared Spectrum: Thymine
Formula: C5 H6 N2 O2
CAS: 65-71-4
State: SOLID (1.8 mg / 500 mg KBr DISC)
Class: COBLENTZ II
Instrument: PERKIN-ELMER 180 (GRATING)
Instrument parameters: GRATINGS: 2000, 1000, 500, 250 CM^-^1; FILTER CHANGE: 2970, 2000, 1485, 1000, 743, 500, 372, 250, 186 CM^-^1.
Sampling: TRANSMISSION
Resolution: 2
Origin: K. K. DEB-NCI FREDERICK CANCER RESEARCH CENTER
1/CM	TRANSMITTANCE
405	0.6857
414	0.6251
423	0.536
432	0.4578
441	0.7008
450	0.7583
459	0.7173
468	0.4187
477	0.3869
486	0.6962
495	0.8416
504	0.8524
513	0.8479
522	0.8498
531	0.8415
540	0.828
549	0.774
558	0.376
567	0.718
576	0.8663
585	0.8832
594	0.8859
603	0.8822
612	0.8687
621	0.8544
630	0.8769
639	0.8736
648	0.8643
657	0.8503
666	0.8263
675	0.8211
684	0.8303
693	0.8273
702	0.8178
711	0.8024
720	0.7767
729	0.7355
738	0.6048
747	0.6561
756	0.5845
765	0.5486
774	0.7149
783	0.6837
792	0.6262
801	0.5529
810	0.3046
819	0.4817
828	0.4896
837	0.3999
846	0.3757
855	0.4279
864	0.5128
873	0.596
882	0.6777
891	0.727
900	0.7554
909	0.7782
918	0.7817
927	0.7334
936	0.5857
945	0.7295
954	0.7848
963	0.7847
972	0.766
981	0.6787
990	0.7146
999	0.7512
1008	0.7213
1017	0.6748
1026	0.5962
1035	0.6898
1044	0.7141
1053	0.7379
1062	0.7733
1071	0.781
1080	0.7809
1089	0.7792
1098	0.7757
1107	0.7726
1116	0.7696
1125	0.7683
1134	0.7663
1143	0.7532
1152	0.7359
1161	0.7355
1170	0.7184
1179	0.681
1188	0.598
1197	0.4368
1206	0.3461
1215	0.4121
1224	0.7292
1233	0.6733
1242	0.4177
1251	0.5624
1260	0.6543
1269	0.8
1278	0.8335
1287	0.8248
1296	0.8124
1305	0.8154
1314	0.8122
1323	0.8037
1332	0.7936
1341	0.7788
1350	0.7579
1359	0.7222
1368	0.6963
1377	0.671
1386	0.6263
1395	0.7069
1404	0.6385
1413	0.6001
1422	0.4162
1431	0.4362
1440	0.352
1449	0.3835
1458	0.5632
1467	0.6065
1476	0.5202
1485	0.5117
1494	0.5646
1503	0.6613
1512	0.6844
1521	0.6928
1530	0.6743
1539	0.6536
1548	0.6379
1557	0.6172
1566	0.592
1575	0.5646
1584	0.54
1593	0.5055
1602	0.4739
1611	0.4405
1620	0.3967
1629	0.3475
1638	0.2913
1647	0.2152
1656	0.1386
1665	0.0586
1674	0.0428
1683	0.1008
1692	0.1881
1701	0.2445
1710	0.1662
1719	0.0894
1728	0.0641
1737	0.0828
1746	0.1582
1755	0.2324
1764	0.2906
1773	0.3713
1782	0.4882
1791	0.5582
1800	0.566
1809	0.6037
1818	0.6566
1827	0.7102
1836	0.7492
1845	0.7715
1854	0.7737
1863	0.7858
1872	0.8168
1881	0.8307
1890	0.841
1899	0.8531
1908	0.8626
1917	0.8604
1926	0.8613
1935	0.8707
1944	0.8699
1953	0.8768
1962	0.8846
1971	0.8866
1980	0.8868
1989	0.8935
1998	0.9025
2007	0.911
2016	0.9146
2025	0.915
2034	0.911
2043	0.9036
2052	0.8993
2061	0.9073
2070	0.9167
2079	0.9171
2088	0.9159
2097	0.9132
2106	0.9112
2115	0.9106
2124	0.9098
2133	0.9081
2142	0.9065
2151	0.9043
2160	0.9021
2169	0.8997
2178	0.8973
2187	0.8948
2196	0.892
2205	0.8898
2214	0.8886
2223	0.8876
2232	0.8882
2241	0.8922
2250	0.8949
2259	0.893
2268	0.8905
2277	0.888
2286	0.8851
2295	0.8824
2304	0.8806
2313	0.882
2322	0.8821
2331	0.8802
2340	0.8771
2349	0.8734
2358	0.8692
2367	0.8619
2376	0.8515
2385	0.84
2394	0.8338
2403	0.8352
2412	0.8385
2421	0.8373
2430	0.8336
2439	0.8305
2448	0.8336
2457	0.8392
2466	0.8422
2475	0.8419
2484	0.8401
2493	0.8363
2502	0.8323
2511	0.828
2520	0.8265
2529	0.8277
2538	0.8268
2547	0.822
2556	0.8162
2565	0.8094
2574	0.8011
2583	0.7932
2592	0.785
2601	0.7766
2610	0.7707
2619	0.7686
2628	0.7658
2637	0.7606
2646	0.7537
2655	0.7454
2664	0.7362
2673	0.7258
2682	0.7142
2691	0.7027
2700	0.6917
2709	0.681
2718	0.6699
2727	0.6554
2736	0.6522
2745	0.6522
2754	0.6452
2763	0.6245
2772	0.5991
2781	0.5681
2790	0.5417
2799	0.4938
2808	0.4903
2817	0.5091
2826	0.5129
2835	0.5055
2844	0.4875
2853	0.4638
2862	0.4413
2871	0.4187
2880	0.3962
2889	0.3758
2898	0.3736
2907	0.3685
2916	0.3553
2925	0.3357
2934	0.3681
2943	0.3818
2952	0.3636
2961	0.3541
2970	0.36
2979	0.3584
2988	0.3503
2997	0.3393
3006	0.3244
3015	0.3052
3024	0.2937
3033	0.2926
3042	0.2968
3051	0.2902
3060	0.2791
3069	0.3212
3078	0.326
3087	0.3281
3096	0.3321
3105	0.3437
3114	0.3616
3123	0.3675
3132	0.3675
3141	0.3642
3150	0.3558
3159	0.3449
3168	0.3317
3177	0.3237
3186	0.3215
3195	0.3219
3204	0.324
3213	0.3364
3222	0.375
3231	0.4188
3240	0.4451
3249	0.4841
3258	0.5345
3267	0.5726
3276	0.5955
3285	0.6222
3294	0.6492
3303	0.6759
3312	0.6971
3321	0.707
3330	0.7118
3339	0.7161
3348	0.7238
3357	0.736
3366	0.7542
3375	0.7693
3384	0.7818
3393	0.7888
3402	0.7943
3411	0.7971
3420	0.7999
3429	0.802
3438	0.8043
3447	0.8056
3456	0.807
3465	0.8083
3474	0.8098
3483	0.8118
3492	0.8139
3501	0.8162
3510	0.8187
3519	0.8212
3528	0.8239
3537	0.8266
3546	0.8292
3555	0.8314
3564	0.8337
3573	0.8358
3582	0.8377
3591	0.8395
3600	0.8414
3609	0.8431
3618	0.8447
3627	0.8463
3636	0.8477
3645	0.8482
3654	0.8456
3663	0.833
3672	0.8397
3681	0.85
3690	0.852
3699	0.8521
3708	0.852
3717	0.8516
3726	0.8513
3735	0.8503
3744	0.8494
3753	0.8484
3762	0.8469
3771	0.8449
3780	0.8433
