Infrared Spectrum: CHALCONE OXIME
Formula: C15 H13 N O
CAS: 6502-38-1
State: SOLUTION (10% CCl4 FOR 5000-1330, 10% CS2 FOR 1330-625 CM^-^1)
Class: COBLENTZ
Instrument: Not specified, most likely a prism, grating, or hybrid spectrometer.
Sampling: TRANSMISSION
Path length: 0.0124 CM, 0.0123 CM
Resolution: 4
Origin: DOW CHEMICAL COMPANY
MICROMETERS	TRANSMITTANCE
2	0.899
2.04118	0.897
2.08235	0.885
2.12353	0.89
2.1647	0.899
2.20588	0.892
2.24705	0.887
2.28823	0.892
2.3294	0.89
2.37058	0.882
2.41176	0.872
2.45293	0.89
2.49411	0.887
2.53528	0.885
2.57646	0.897
2.61763	0.889
2.65881	0.88
2.69998	0.848
2.74116	0.755
2.78234	0.733
2.82351	0.713
2.86469	0.576
2.90586	0.452
2.94704	0.279
2.98821	0.209
3.02939	0.153
3.07056	0.172
3.11174	0.209
3.15292	0.242
3.19409	0.273
3.23527	0.23
3.27644	0.235
3.31762	0.336
3.35879	0.453
3.39997	0.462
3.44114	0.448
3.48232	0.564
3.5235	0.631
3.56467	0.668
3.60585	0.713
3.64702	0.755
3.6882	0.783
3.72937	0.803
3.77055	0.82
3.81172	0.829
3.8529	0.836
3.89408	0.836
3.93525	0.854
3.97643	0.866
4.0176	0.868
4.05878	0.868
4.09995	0.866
4.14113	0.861
4.1823	0.86
4.22348	0.858
4.26466	0.853
4.30583	0.856
4.34701	0.851
4.38818	0.865
4.42936	0.868
4.47053	0.875
4.51171	0.877
4.55288	0.878
4.59406	0.877
4.63524	0.878
4.67641	0.875
4.71759	0.878
4.75876	0.878
4.79994	0.872
4.84111	0.87
4.88229	0.873
4.92346	0.87
4.96464	0.86
5.00582	0.854
5.04699	0.82
5.08817	0.79
5.12934	0.827
5.17052	0.843
5.21169	0.822
5.25287	0.788
5.29404	0.788
5.33522	0.831
5.3764	0.825
5.41757	0.807
5.45875	0.807
5.49992	0.807
5.5411	0.807
5.58227	0.839
5.62345	0.82
5.66462	0.812
5.7058	0.815
5.74698	0.834
5.78815	0.825
5.82933	0.805
5.8705	0.788
5.91168	0.774
5.95285	0.745
5.99403	0.728
6.0352	0.744
6.07638	0.72
6.11756	0.52
6.15873	0.472
6.19991	0.53
6.24108	0.523
6.28226	0.491
6.32343	0.448
6.36461	0.462
6.40578	0.435
6.44696	0.416
6.48814	0.491
6.52931	0.539
6.57049	0.581
6.61166	0.576
6.65284	0.45
6.69401	0.636
6.73519	0.699
6.77636	0.655
6.81754	0.571
6.85872	0.353
6.89989	0.445
6.94107	0.576
6.98224	0.588
7.02342	0.59
7.06459	0.617
7.10577	0.639
7.14694	0.648
7.18812	0.658
7.2293	0.67
7.27047	0.682
7.31165	0.684
7.35282	0.624
7.394	0.47
7.43517	0.252
7.47635	0.218
7.51752	0.37
7.5587	0.482
7.59988	0.505
7.64105	0.5
7.68223	0.479
7.7234	0.486
7.76458	0.54
7.80575	0.627
7.84693	0.655
7.8881	0.585
7.92928	0.539
7.97046	0.638
8.01163	0.713
8.05281	0.75
8.09398	0.762
8.13516	0.762
8.17633	0.706
8.21751	0.59
8.25868	0.54
8.29986	0.686
8.34104	0.75
8.38221	0.742
8.42339	0.699
8.46456	0.662
8.50574	0.708
8.54691	0.742
8.58809	0.74
8.62926	0.721
8.67044	0.742
8.71162	0.767
8.75279	0.778
8.79397	0.778
8.83514	0.778
8.87632	0.773
8.91749	0.75
8.95867	0.704
8.99984	0.581
9.04102	0.435
9.08219	0.366
9.12337	0.489
9.16455	0.636
9.20572	0.691
9.2469	0.699
9.28807	0.604
9.32925	0.559
9.37042	0.653
9.4116	0.713
9.45277	0.749
9.49395	0.762
9.53513	0.766
9.5763	0.764
9.61748	0.74
9.65865	0.687
9.69983	0.552
9.741	0.58
9.78218	0.663
9.82335	0.67
9.86453	0.667
9.90571	0.679
9.94688	0.639
9.98806	0.578
10.0292	0.593
10.0704	0.544
10.1116	0.424
10.1528	0.223
10.1939	0.17
10.2351	0.16
10.2763	0.087
10.3175	0.141
10.3586	0.179
10.3998	0.192
10.441	0.165
10.4822	0.104
10.5233	0.047
10.5645	0.029
10.6057	0.071
10.6469	0.18
10.688	0.293
10.7292	0.344
10.7704	0.38
10.8116	0.423
10.8527	0.404
10.8939	0.276
10.9351	0.211
10.9763	0.274
11.0174	0.401
11.0586	0.53
11.0998	0.61
11.141	0.658
11.1821	0.679
11.2233	0.684
11.2645	0.682
11.3057	0.677
11.3469	0.662
11.388	0.653
11.4292	0.634
11.4704	0.605
11.5116	0.544
11.5527	0.493
11.5939	0.506
11.6351	0.534
11.6763	0.54
11.7174	0.539
11.7586	0.5
11.7998	0.46
11.841	0.546
11.8821	0.621
11.9233	0.663
11.9645	0.677
12.0057	0.691
12.0468	0.703
12.088	0.708
12.1292	0.711
12.1704	0.709
12.2115	0.699
12.2527	0.689
12.2939	0.672
12.3351	0.648
12.3762	0.621
12.4174	0.58
12.4586	0.53
12.4998	0.488
12.5409	0.476
12.5821	0.496
12.6233	0.527
12.6645	0.542
12.7056	0.552
12.7468	0.547
12.788	0.534
12.8292	0.513
12.8703	0.491
12.9115	0.46
12.9527	0.397
12.9939	0.238
13.035	0.131
13.0762	0.03
13.1174	0.034
13.1586	0.076
13.1998	0.095
13.2409	0.068
13.2821	0.027
13.3233	0.011
13.3645	0.015
13.4056	0.058
13.4468	0.153
13.488	0.273
13.5292	0.354
13.5703	0.412
13.6115	0.453
13.6527	0.47
13.6939	0.488
13.735	0.491
13.7762	0.501
13.8174	0.501
13.8586	0.5
13.8997	0.491
13.9409	0.484
13.9821	0.465
14.0233	0.435
14.0644	0.394
14.1056	0.324
14.1468	0.255
14.188	0.184
14.2291	0.109
14.2703	0.052
14.3115	0.015
14.3527	0.013
14.3938	0.018
14.435	0.017
14.4762	0.02
14.5174	0.052
14.5585	0.121
14.5997	0.213
14.6409	0.276
14.6821	0.315
14.7232	0.325
14.7644	0.319
14.8056	0.298
14.8468	0.269
14.8879	0.242
14.9291	0.209
14.9703	0.199
15.0115	0.199
15.0527	0.225
15.0938	0.25
15.135	0.267
15.1762	0.278
15.2174	0.283
15.2585	0.283
15.2997	0.281
15.3409	0.29
15.3821	0.296
15.4232	0.303
15.4644	0.303
15.5056	0.303
15.5468	0.302
15.5879	0.296
15.6291	0.29
15.6703	0.281
15.7115	0.281
15.7526	0.281
15.7938	0.278
15.835	0.274
15.8762	0.271
15.9173	0.274
15.9585	0.283
