Infrared Spectrum: p-Nitrophenyl dodecyl ether
Formula: C 18 H 29 N O 3
CAS: 65039-18-1
State: gas
Origin: EPA-IR VAPOR PHASE LIBRARY
1/CM	ABSORBANCE
549.8	0.0003406
559.445	0.0005241
569.09	0.0002323
578.734	0.0003795
588.379	0.0006669
598.024	0.0010993
607.669	0.002531
617.313	0.004221
626.958	0.003911
636.603	0.004801
646.248	0.008621
655.893	0.008161
665.537	0.003161
675.182	0.003551
684.827	0.005111
694.472	0.004091
704.116	0.003271
713.761	0.003411
723.406	0.003351
733.051	0.003661
742.695	0.006471
752.34	0.009671
761.985	0.004091
771.63	0.002411
781.275	0.001921
790.919	0.001721
800.564	0.002001
810.209	0.002091
819.854	0.003501
829.498	0.007611
839.143	0.016651
848.788	0.023701
858.433	0.028681
868.078	0.012641
877.722	0.005431
887.367	0.003261
897.012	0.002941
906.657	0.003071
916.301	0.003221
925.946	0.003431
935.591	0.003731
945.236	0.004141
954.88	0.004761
964.525	0.005761
974.17	0.006921
983.815	0.008111
993.46	0.009681
1003.1	0.013061
1012.75	0.017061
1022.39	0.018751
1032.04	0.015841
1041.68	0.013151
1051.33	0.010721
1060.97	0.009281
1070.62	0.007911
1080.26	0.006711
1089.91	0.006841
1099.55	0.010901
1109.2	0.025471
1118.84	0.015761
1128.49	0.005061
1138.13	0.003301
1147.78	0.004031
1157.42	0.009321
1167.07	0.029671
1176.71	0.016671
1186.36	0.008971
1196	0.008391
1205.64	0.010991
1215.29	0.017451
1224.93	0.027781
1234.58	0.047911
1244.22	0.080341
1253.87	0.110361
1263.51	0.069401
1273.16	0.030701
1282.8	0.021511
1292.45	0.030091
1302.09	0.024481
1311.74	0.020721
1321.38	0.028881
1331.03	0.035051
1340.67	0.074081
1350.32	0.108671
1359.96	0.044611
1369.61	0.023241
1379.25	0.015841
1388.9	0.012721
1398.54	0.007741
1408.18	0.005671
1417.83	0.005881
1427.47	0.006861
1437.12	0.009721
1446.76	0.013301
1456.41	0.018491
1466.05	0.025191
1475.7	0.028951
1485.34	0.027331
1494.99	0.063191
1504.63	0.040151
1514.28	0.026641
1523.92	0.043761
1533.57	0.069641
1543.21	0.047201
1552.86	0.023841
1562.5	0.015511
1572.15	0.016301
1581.79	0.032151
1591.44	0.071111
1601.08	0.058951
1610.73	0.034381
1620.37	0.015601
1630.01	0.006701
1639.66	0.004131
1649.3	0.003191
1658.95	0.002431
1668.59	0.001891
1678.24	0.001501
1687.88	0.001371
1697.53	0.001141
1707.17	0.0010388
1716.82	0.0010305
1726.46	0.0009146
1736.11	0.001141
1745.75	0.001331
1755.4	0.001641
1765.04	0.001651
1774.69	0.0010792
1784.33	0.0010157
1793.98	0.001012
1803.62	0.0009269
1813.27	0.0008059
1822.91	0.000694
1832.55	0.0006964
1842.2	0.0006849
1851.84	0.0007463
1861.49	0.0008246
1871.13	0.0010304
1880.78	0.001231
1890.42	0.001551
1900.07	0.001601
1909.71	0.001581
1919.36	0.001261
1929	0.0009331
1938.65	0.0007926
1948.29	0.0008332
1957.94	0.0009147
1967.58	0.0010449
1977.23	0.0010027
1986.87	0.000898
1996.52	0.0010375
2006.16	0.0010913
2015.81	0.001331
2025.45	0.001301
2035.1	0.001311
2044.74	0.001261
2054.38	0.001191
2064.03	0.0010274
2073.67	0.0008975
2083.32	0.0007868
2092.96	0.0008201
2102.61	0.0008295
2112.25	0.0008753
2121.9	0.0008143
2131.54	0.0006699
2141.19	0.0006215
2150.83	0.0005344
2160.48	0.0004778
2170.12	0.0005236
2179.77	0.0005493
2189.41	0.0004657
2199.06	0.0005849
2208.7	0.0006428
2218.35	0.0007422
2227.99	0.0006528
2237.64	0.0005624
2247.28	0.0005426
2256.92	0.000629
2266.57	0.000661
2276.21	0.000658
2285.86	0.0006825
2295.5	0.0006486
2305.15	0.000631
2314.79	0.0005513
2324.44	0.0006574
2334.08	0.000655
2343.73	0.0007121
2353.37	0.0008108
2363.02	0.0008561
2372.66	0.0008191
2382.31	0.0009323
2391.95	0.0009391
2401.6	0.0009214
2411.24	0.0009702
2420.89	0.0008511
2430.53	0.0010283
2440.18	0.001161
2449.82	0.001571
2459.47	0.001701
2469.11	0.001521
2478.75	0.001341
2488.4	0.001321
2498.04	0.001341
2507.69	0.001301
2517.33	0.001231
2526.98	0.001261
2536.62	0.001341
2546.27	0.001621
2555.91	0.001521
2565.56	0.001621
2575.2	0.001711
2584.85	0.001711
2594.49	0.001691
2604.14	0.001751
2613.78	0.001681
2623.43	0.001651
2633.07	0.001721
2642.72	0.001701
2652.36	0.001691
2662.01	0.001731
2671.65	0.001841
2681.29	0.001901
2690.94	0.002051
2700.58	0.002051
2710.23	0.001971
2719.87	0.001971
2729.52	0.002011
2739.16	0.002261
2748.81	0.002421
2758.45	0.002491
2768.1	0.002521
2777.74	0.002721
2787.39	0.003221
2797.03	0.003731
2806.68	0.004321
2816.32	0.005531
2825.97	0.007271
2835.61	0.010151
2845.26	0.017311
2854.9	0.036421
2864.55	0.055091
2874.19	0.043051
2883.84	0.035391
2893.48	0.032791
2903.12	0.040241
2912.77	0.059591
2922.41	0.098231
2932.06	0.145291
2941.7	0.120961
2951.35	0.076141
2960.99	0.054001
2970.64	0.044061
2980.28	0.023881
2989.93	0.012981
2999.57	0.008321
3009.22	0.005901
3018.86	0.004521
3028.51	0.003691
3038.15	0.003091
3047.8	0.002831
3057.44	0.002761
3067.09	0.002761
3076.73	0.003121
3086.38	0.004551
3096.02	0.003721
3105.67	0.001651
3115.31	0.001371
3124.95	0.0010863
3134.6	0.0009921
3144.24	0.0008647
3153.89	0.0008442
3163.53	0.0008347
3173.18	0.0007908
3182.82	0.00085
3192.47	0.0008403
3202.11	0.0008044
3211.76	0.0008733
3221.4	0.0006475
3231.05	0.0005581
3240.69	0.0003306
3250.34	0.0002661
3259.98	0.0003759
3269.63	0.0002314
3279.27	0.0002325
3288.92	0.0002426
3298.56	0.0002377
3308.21	0.0002823
3317.85	0.0003479
3327.49	0.0002831
3337.14	0.0003144
3346.78	0.0004186
3356.43	0.0003549
3366.07	0.0003228
3375.72	0.0002225
3385.36	0.0002288
3395.01	0.0003996
3404.65	0.0003334
3414.3	0.00019224
3423.94	0.00016705
3433.59	0.0003031
3443.23	0.00016391
3452.88	0.00017968
3462.52	0.000163
3472.17	0.00018116
3481.81	0.00018333
3491.46	0.00020079
3501.1	0.0004126
3510.75	0.00015685
3520.39	0.00013224
3530.04	0.000259
3539.68	0.00018109
3549.32	4.09e-05
3558.97	0.0003063
3568.61	3.78e-05
3578.26	0.00010125
3587.9	0.000286
3597.55	0.00018167
3607.19	0.0002796
3616.84	0.0003532
3626.48	0.0003587
3636.13	0.0004275
3645.77	0.0002821
3655.42	0.0004658
3665.06	0.0005296
3674.71	0.0003158
3684.35	0.0003481
3694	0.0003226
3703.64	0.0002832
3713.29	0.0005049
3722.93	0.0004979
3732.58	0.0005974
3742.22	0.000437
3751.86	0.0004799
3761.51	0.0004908
3771.15	0.0003473
3780.8	0.0003806
3790.44	0.0004199
3800.09	0.0003084
3809.73	0.0003721
3819.38	0.0003562
3829.02	0.0004622
3838.67	0.000436
3848.31	0.0005122
3857.96	0.000466
3867.6	0.0002544
3877.25	0.0003483
3886.89	0.0005193
3896.54	0.0005608
3906.18	0.0005676
3915.83	0.000539
3925.47	0.0004606
3935.12	0.0004871
3944.76	0.0004373
3954.41	0.0005408
3964.05	0.0005268
3973.69	0.0005326
3983.34	0.0005973
3992.98	0.0004865
