Infrared Spectrum: 9H-Purine, 6-chloro-9-(methoxymethyl)-
Formula: C7 H7 Cl N4 O
CAS: 6504-64-9
State: SOLID (0.9 mg / 650 mg KBr DISC)
Class: COBLENTZ III
Instrument: PERKIN-ELMER 21 (GRATING)
Instrument parameters: FILTER CHANGE ABOUT 1025 CM^-^1
Sampling: TRANSMISSION
Resolution: 2
Origin: SOUTHERN RESEARCH INSTITUTE
1/CM	TRANSMITTANCE
606	0.4507
615	0.4596
624	0.4778
633	0.4827
642	0.5801
651	0.6375
660	0.6363
669	0.6635
678	0.6833
687	0.7191
696	0.7196
705	0.7103
714	0.6945
723	0.6738
732	0.6452
741	0.5153
750	0.329
759	0.3678
768	0.6808
777	0.7901
786	0.7772
795	0.6564
804	0.782
813	0.7783
822	0.7683
831	0.7543
840	0.7319
849	0.6823
858	0.4852
867	0.7107
876	0.7515
885	0.6968
894	0.5613
903	0.3976
912	0.3768
921	0.5836
930	0.6304
939	0.4034
948	0.7934
957	0.8094
966	0.768
975	0.7831
984	0.7689
993	0.751
1002	0.724
1011	0.6585
1020	0.5677
1029	0.4335
1038	0.7045
1047	0.7279
1056	0.6797
1065	0.6293
1074	0.5616
1083	0.4554
1092	0.2354
1101	0.1481
1110	0.4363
1119	0.6219
1128	0.6276
1137	0.3555
1146	0.2264
1155	0.5307
1164	0.6292
1173	0.5647
1182	0.3298
1191	0.3951
1200	0.6328
1209	0.5933
1218	0.4718
1227	0.5453
1236	0.4039
1245	0.6012
1254	0.6717
1263	0.7235
1272	0.8067
1281	0.7878
1290	0.7174
1299	0.7436
1308	0.7135
1317	0.619
1326	0.4201
1335	0.2882
1344	0.4624
1353	0.5509
1362	0.7674
1371	0.6818
1380	0.4653
1389	0.3376
1398	0.5157
1407	0.5034
1416	0.6215
1425	0.5474
1434	0.4366
1443	0.5855
1452	0.7361
1461	0.582
1470	0.7657
1479	0.7796
1488	0.591
1497	0.5515
1506	0.7485
1515	0.7645
1524	0.7409
1533	0.6051
1542	0.4942
1551	0.3286
1560	0.1927
1569	0.5
1578	0.5714
1587	0.3224
1596	0.386
1605	0.6296
1614	0.7172
1623	0.7995
1632	0.8439
1641	0.862
1650	0.8752
1659	0.887
1668	0.8965
1677	0.902
1686	0.8926
1695	0.8921
1704	0.8911
1713	0.8899
1722	0.8882
1731	0.8863
1740	0.8839
1749	0.8803
1758	0.8748
1767	0.8652
1776	0.8339
1785	0.8122
1794	0.8388
1803	0.8749
1812	0.8764
1821	0.8764
1830	0.8758
1839	0.8744
1848	0.8725
1857	0.8701
1866	0.8669
1875	0.863
1884	0.859
1893	0.8476
1902	0.8217
1911	0.8365
1920	0.8604
1929	0.8623
1938	0.8628
1947	0.861
1956	0.8589
1965	0.8563
1974	0.8527
1983	0.8477
1992	0.8416
2001	0.8341
2010	0.8318
2019	0.8467
2028	0.8445
2037	0.8397
2046	0.8355
2055	0.8331
2064	0.8313
2073	0.8295
2082	0.8282
2091	0.8271
2100	0.8263
2109	0.8255
2118	0.8239
2127	0.8222
2136	0.8205
2145	0.8186
2154	0.8166
2163	0.8147
2172	0.8131
2181	0.8115
2190	0.8103
2199	0.8093
2208	0.8077
2217	0.806
2226	0.8027
2235	0.7979
2244	0.7935
2253	0.7907
2262	0.7878
2271	0.7843
2280	0.7799
2289	0.7758
2298	0.7723
2307	0.7679
2316	0.7648
2325	0.7653
2334	0.7671
2343	0.7684
2352	0.7709
2361	0.7713
2370	0.7678
2379	0.7654
2388	0.7639
2397	0.7635
2406	0.7627
2415	0.7619
2424	0.7604
2433	0.7584
2442	0.7565
2451	0.7548
2460	0.7531
2469	0.752
2478	0.7517
2487	0.7514
2496	0.7514
2505	0.7516
2514	0.7518
2523	0.7521
2532	0.7514
2541	0.7505
2550	0.7496
2559	0.7486
2568	0.7472
2577	0.7458
2586	0.7445
2595	0.7437
2604	0.7429
2613	0.742
2622	0.7408
2631	0.7396
2640	0.7386
2649	0.7376
2658	0.7366
2667	0.7356
2676	0.7338
2685	0.7303
2694	0.728
2703	0.7263
2712	0.7231
2721	0.72
2730	0.7182
2739	0.717
2748	0.716
2757	0.7139
2766	0.7056
2775	0.6902
2784	0.6752
2793	0.6638
2802	0.6564
2811	0.6553
2820	0.6566
2829	0.6617
2838	0.6593
2847	0.6506
2856	0.6424
2865	0.6359
2874	0.6355
2883	0.6335
2892	0.6239
2901	0.6036
2910	0.5862
2919	0.5837
2928	0.5927
2937	0.6073
2946	0.6275
2955	0.6348
2964	0.6365
2973	0.6362
2982	0.6349
2991	0.6327
3000	0.6282
3009	0.6229
3018	0.6168
3027	0.6035
3036	0.5819
3045	0.5628
3054	0.5549
3063	0.5668
3072	0.6024
3081	0.6204
3090	0.6388
3099	0.6986
3108	0.7163
3117	0.7139
3126	0.7115
3135	0.7076
3144	0.7019
3153	0.6955
3162	0.689
3171	0.6855
3180	0.6824
3189	0.6723
3198	0.6694
3207	0.6649
3216	0.6612
3225	0.6576
3234	0.6537
3243	0.6506
3252	0.6474
3261	0.6448
3270	0.6419
3279	0.6355
3288	0.6295
3297	0.6263
3306	0.6215
3315	0.6141
3324	0.601
3333	0.5896
3342	0.5794
3351	0.5694
3360	0.5613
3369	0.5551
3378	0.5496
3387	0.5447
3396	0.5422
3405	0.542
3414	0.5426
3423	0.5431
3432	0.5442
3441	0.5462
3450	0.5482
3459	0.5512
3468	0.5553
3477	0.5605
3486	0.5659
3495	0.5745
3504	0.5815
3513	0.5883
3522	0.5937
3531	0.5973
3540	0.6008
3549	0.6064
3558	0.6128
3567	0.6179
3576	0.6204
3585	0.6245
3594	0.6304
3603	0.6349
3612	0.6385
3621	0.6439
3630	0.6458
3639	0.6469
3648	0.6476
3657	0.648
3666	0.6483
3675	0.6481
3684	0.648
3693	0.6486
3702	0.6493
3711	0.6502
3720	0.6514
3729	0.6527
3738	0.6543
3747	0.6553
3756	0.6559
3765	0.6566
3774	0.6572
3783	0.6574
3792	0.6552
3801	0.6527
3810	0.6501
3819	0.6475
3828	0.6444
3837	0.6417
3846	0.6399
3855	0.6397
3864	0.6396
3873	0.6399
3882	0.6403
3891	0.6411
3900	0.6424
3909	0.643
3918	0.643
3927	0.6423
3936	0.6409
3945	0.6388
3954	0.6374
3963	0.6364
3972	0.6362
3981	0.6362
3990	0.6361
3999	0
