Infrared Spectrum: 6-Amino-2-methylquinoline
Formula: C 10 H 10 N 2
CAS: 65079-19-8
State: gas
Origin: EPA-IR VAPOR PHASE LIBRARY
1/CM	ABSORBANCE
549.8	0.0020847
559.445	0.00321
569.09	0.00402
578.734	0.00519
588.379	0.00575
598.024	0.0066
607.669	0.00386
617.313	0.00275
626.958	0.00446
636.603	0.00482
646.248	0.00835
655.893	0.01079
665.537	0.00802
675.182	0.00745
684.827	0.00809
694.472	0.00595
704.116	0.00501
713.761	0.00435
723.406	0.00349
733.051	0.00442
742.695	0.00392
752.34	0.00389
761.985	0.00406
771.63	0.00344
781.275	0.00338
790.919	0.00533
800.564	0.00587
810.209	0.00903
819.854	0.01171
829.498	0.01181
839.143	0.01028
848.788	0.00933
858.433	0.00728
868.078	0.0043
877.722	0.00351
887.367	0.00322
897.012	0.0017207
906.657	0.00266
916.301	0.00317
925.946	0.00297
935.591	0.00326
945.236	0.00333
954.88	0.00345
964.525	0.00304
974.17	0.00346
983.815	0.00232
993.46	0.00272
1003.1	0.00345
1012.75	0.00278
1022.39	0.00248
1032.04	0.00299
1041.68	0.00331
1051.33	0.0020822
1060.97	0.00304
1070.62	0.00338
1080.26	0.00384
1089.91	0.0035
1099.55	0.0029
1109.2	0.00487
1118.84	0.00813
1128.49	0.00439
1138.13	0.0014287
1147.78	0.00257
1157.42	0.00396
1167.07	0.00454
1176.71	0.00392
1186.36	0.00223
1196	0.0017503
1205.64	0.00281
1215.29	0.00533
1224.93	0.00791
1234.58	0.01043
1244.22	0.00982
1253.87	0.0046
1263.51	0.00341
1273.16	0.00258
1282.8	0.00229
1292.45	0.0019599
1302.09	0.00456
1311.74	0.00826
1321.38	0.00799
1331.03	0.00508
1340.67	0.00492
1350.32	0.00419
1359.96	0.00517
1369.61	0.00765
1379.25	0.00818
1388.9	0.00482
1398.54	0.00343
1408.18	0.00319
1417.83	0.0029
1427.47	0.00311
1437.12	0.00293
1446.76	0.00292
1456.41	0.00325
1466.05	0.00374
1475.7	0.00436
1485.34	0.00825
1494.99	0.0163
1504.63	0.01714
1514.28	0.0099
1523.92	0.00692
1533.57	0.00525
1543.21	0.00534
1552.86	0.00683
1562.5	0.00736
1572.15	0.00643
1581.79	0.00696
1591.44	0.0112
1601.08	0.01419
1610.73	0.01377
1620.37	0.01453
1630.01	0.0218
1639.66	0.02218
1649.3	0.01239
1658.95	0.00623
1668.59	0.00399
1678.24	0.00326
1687.88	0.00256
1697.53	0.00283
1707.17	0.00253
1716.82	0.00242
1726.46	0.00243
1736.11	0.0020036
1745.75	0.00224
1755.4	0.0020566
1765.04	0.0019796
1774.69	0.00226
1784.33	0.0018618
1793.98	0.0016035
1803.62	0.0021212
1813.27	0.001729
1822.91	0.0019341
1832.55	0.0018446
1842.2	0.0018899
1851.84	0.0017326
1861.49	0.0018567
1871.13	0.0019775
1880.78	0.00232
1890.42	0.0020424
1900.07	0.00235
1909.71	0.00238
1919.36	0.00233
1929	0.0020118
1938.65	0.0018426
1948.29	0.0018351
1957.94	0.0015862
1967.58	0.0017423
1977.23	0.0016555
1986.87	0.0018357
1996.52	0.0017674
2006.16	0.0014041
2015.81	0.0014493
2025.45	0.0018694
2035.1	0.0019283
2044.74	0.0019641
2054.38	0.0017741
2064.03	0.0022
2073.67	0.0016275
2083.32	0.0020821
2092.96	0.001847
2102.61	0.0016336
2112.25	0.001689
2121.9	0.0015891
2131.54	0.0017253
2141.19	0.001817
2150.83	0.0014131
2160.48	0.0018362
2170.12	0.0015779
2179.77	0.001635
2189.41	0.0017028
2199.06	0.0017145
2208.7	0.0019733
2218.35	0.0018334
2227.99	0.0016613
2237.64	0.00128197
2247.28	0.00123698
2256.92	0.0015457
2266.57	0.0017565
2276.21	0.0017477
2285.86	0.0020637
2295.5	0.0021204
2305.15	0.0020048
2314.79	0.0016861
2324.44	0.0015468
2334.08	0.0020084
2343.73	0.0015372
2353.37	0.001454
2363.02	0.0017232
2372.66	0.0017091
2382.31	0.0018013
2391.95	0.0016642
2401.6	0.0015393
2411.24	0.0018461
2420.89	0.0014216
2430.53	0.002021
2440.18	0.0018457
2449.82	0.0019113
2459.47	0.0014139
2469.11	0.0013767
2478.75	0.0015176
2488.4	0.0014906
2498.04	0.001716
2507.69	0.0020188
2517.33	0.0015199
2526.98	0.0016028
2536.62	0.0017338
2546.27	0.0015648
2555.91	0.00124152
2565.56	0.0016886
2575.2	0.0014588
2584.85	0.0013911
2594.49	0.0016974
2604.14	0.0018905
2613.78	0.0021073
2623.43	0.0015582
2633.07	0.0016653
2642.72	0.0016843
2652.36	0.001488
2662.01	0.0018825
2671.65	0.0015552
2681.29	0.0018021
2690.94	0.0014457
2700.58	0.0017714
2710.23	0.00120358
2719.87	0.0015366
2729.52	0.0015373
2739.16	0.0018213
2748.81	0.0016232
2758.45	0.00120859
2768.1	0.0019009
2777.74	0.0017369
2787.39	0.0015637
2797.03	0.0018345
2806.68	0.00128771
2816.32	0.0016107
2825.97	0.0017744
2835.61	0.0015193
2845.26	0.0020133
2854.9	0.0020876
2864.55	0.00268
2874.19	0.00292
2883.84	0.0025
2893.48	0.00263
2903.12	0.00281
2912.77	0.003
2922.41	0.00498
2932.06	0.00625
2941.7	0.00512
2951.35	0.00352
2960.99	0.00314
2970.64	0.00301
2980.28	0.00251
2989.93	0.00268
2999.57	0.00408
3009.22	0.0047
3018.86	0.00543
3028.51	0.00772
3038.15	0.00771
3047.8	0.00732
3057.44	0.00766
3067.09	0.0065
3076.73	0.00467
3086.38	0.00244
3096.02	0.0016786
3105.67	0.001693
3115.31	0.0015059
3124.95	0.001029
3134.6	0.001043
3144.24	0.0017768
3153.89	0.0014911
3163.53	0.0016727
3173.18	0.00119036
3182.82	0.0014237
3192.47	0.0011633
3202.11	0.0015924
3211.76	0.0013166
3221.4	0.0016387
3231.05	0.0015152
3240.69	0.0013111
3250.34	0.001512
3259.98	0.0015119
3269.63	0.0018796
3279.27	0.000891
3288.92	0.000917
3298.56	0.0015487
3308.21	0.000747
3317.85	0.0013486
3327.49	0.000549
3337.14	0.000929
3346.78	0.0011511
3356.43	0.00098
3366.07	0.001868
3375.72	0.0018587
3385.36	0.0017382
3395.01	0.0020603
3404.65	0.00357
3414.3	0.00362
3423.94	0.0026
3433.59	0.001049
3443.23	0.0015467
3452.88	0.0011657
3462.52	0.0018222
3472.17	0.0017122
3481.81	0.00269
3491.46	0.00252
3501.1	0.0021395
3510.75	0.00267
3520.39	0.00126125
3530.04	0.000932
3539.68	0.0016719
3549.32	0.0014854
3558.97	0.000663
3568.61	0.000898
3578.26	0.001334
3587.9	0.000944
3597.55	0.0015779
3607.19	0.000974
3616.84	0.001054
3626.48	0.00099
3636.13	0.0011417
3645.77	0.0011377
3655.42	0.000911
3665.06	0.0013891
3674.71	0.0016639
3684.35	0.000974
3694	0.000737
3703.64	0.0011369
3713.29	0.001069
3722.93	5e-05
3732.58	0.0016471
3742.22	0.00121692
3751.86	0.00101
3761.51	0.0019821
3771.15	0.0016586
3780.8	0.0011027
3790.44	0.0011201
3800.09	0.0013451
3809.73	0.0020719
3819.38	0.0011191
3829.02	0.0014413
3838.67	0.000565
3848.31	0.001059
3857.96	0.00167
3867.6	0.0015305
3877.25	0.00089
3886.89	0.000806
3896.54	0.000334
3906.18	0.0015651
3915.83	0.000533
3925.47	0.0013038
3935.12	0.001687
3944.76	0.00114
3954.41	0.001061
3964.05	0.0011116
3973.69	0.00126916
3983.34	0.0018238
3992.98	0.0016641
