Infrared Spectrum: 4-Cyanophenyl ether
Formula: C 14 H 8 N 2 O
CAS: 6508-04-9
State: gas
Origin: EPA-IR VAPOR PHASE LIBRARY
1/CM	ABSORBANCE
549.8	0.009864
559.445	0.007494
569.09	0.005084
578.734	0.002484
588.379	0.0014468
598.024	0.0010805
607.669	0.0010827
617.313	0.0008682
626.958	0.0008171
636.603	0.0009653
646.248	0.0009618
655.893	0.0010133
665.537	0.0014096
675.182	0.001584
684.827	0.001984
694.472	0.001844
704.116	0.0014369
713.761	0.001614
723.406	0.00138
733.051	0.002214
742.695	0.001372
752.34	0.0010409
761.985	0.0011052
771.63	0.0014057
781.275	0.001754
790.919	0.002104
800.564	0.002794
810.209	0.004684
819.854	0.009124
829.498	0.017904
839.143	0.020934
848.788	0.017084
858.433	0.017154
868.078	0.024634
877.722	0.019554
887.367	0.005444
897.012	0.003154
906.657	0.002144
916.301	0.001584
925.946	0.0014729
935.591	0.0012213
945.236	0.0010538
954.88	0.0009584
964.525	0.0009808
974.17	0.0010859
983.815	0.00115
993.46	0.0011356
1003.1	0.0014195
1012.75	0.006134
1022.39	0.002604
1032.04	0.0004361
1041.68	0.0006327
1051.33	0.0007922
1060.97	0.0006937
1070.62	0.0011368
1080.26	0.0011946
1089.91	0.002344
1099.55	0.004224
1109.2	0.003754
1118.84	0.002904
1128.49	0.002814
1138.13	0.003004
1147.78	0.004624
1157.42	0.009174
1167.07	0.033244
1176.71	0.012714
1186.36	0.006704
1196	0.007794
1205.64	0.009714
1215.29	0.017364
1224.93	0.034254
1234.58	0.075684
1244.22	0.169914
1253.87	0.150504
1263.51	0.058444
1273.16	0.035054
1282.8	0.025534
1292.45	0.019074
1302.09	0.012454
1311.74	0.007034
1321.38	0.004224
1331.03	0.002844
1340.67	0.002204
1350.32	0.002054
1359.96	0.002134
1369.61	0.002344
1379.25	0.002224
1388.9	0.002374
1398.54	0.002954
1408.18	0.003694
1417.83	0.003004
1427.47	0.002564
1437.12	0.002214
1446.76	0.002414
1456.41	0.002924
1466.05	0.005144
1475.7	0.014524
1485.34	0.053604
1494.99	0.128104
1504.63	0.084664
1514.28	0.035834
1523.92	0.015394
1533.57	0.008974
1543.21	0.006464
1552.86	0.006224
1562.5	0.007224
1572.15	0.008794
1581.79	0.015154
1591.44	0.049874
1601.08	0.051424
1610.73	0.012064
1620.37	0.005744
1630.01	0.003794
1639.66	0.003144
1649.3	0.003054
1658.95	0.002604
1668.59	0.002124
1678.24	0.001754
1687.88	0.0014484
1697.53	0.0010558
1707.17	0.000867
1716.82	0.0007451
1726.46	0.00081
1736.11	0.0009099
1745.75	0.0010049
1755.4	0.0011599
1765.04	0.001524
1774.69	0.002074
1784.33	0.0013157
1793.98	0.0009854
1803.62	0.0008838
1813.27	0.0008928
1822.91	0.000776
1832.55	0.0007575
1842.2	0.0008098
1851.84	0.0008812
1861.49	0.0009249
1871.13	0.0012294
1880.78	0.001924
1890.42	0.002744
1900.07	0.003434
1909.71	0.002984
1919.36	0.002084
1929	0.0014061
1938.65	0.0011665
1948.29	0.001224
1957.94	0.001135
1967.58	0.0010346
1977.23	0.0010238
1986.87	0.0009474
1996.52	0.0009638
2006.16	0.0008444
2015.81	0.0008395
2025.45	0.0011925
2035.1	0.001894
2044.74	0.001634
2054.38	0.001574
2064.03	0.0014549
2073.67	0.001554
2083.32	0.0011838
2092.96	0.0009625
2102.61	0.0010645
2112.25	0.0010654
2121.9	0.0008186
2131.54	0.0007535
2141.19	0.0006496
2150.83	0.00052688
2160.48	0.00055256
2170.12	0.00059252
2179.77	0.0006949
2189.41	0.0006052
2199.06	0.0007272
2208.7	0.00117
2218.35	0.002674
2227.99	0.009724
2237.64	0.011484
2247.28	0.002794
2256.92	0.0010439
2266.57	0.0008548
2276.21	0.0007252
2285.86	0.0006063
2295.5	0.0006888
2305.15	0.000576
2314.79	0.000714
2324.44	0.0007756
2334.08	0.0008204
2343.73	0.0007037
2353.37	0.0007677
2363.02	0.0009016
2372.66	0.0010978
2382.31	0.0012653
2391.95	0.0012975
2401.6	0.001594
2411.24	0.001964
2420.89	0.001644
2430.53	0.001654
2440.18	0.002084
2449.82	0.002104
2459.47	0.0014847
2469.11	0.0013868
2478.75	0.0013222
2488.4	0.0012859
2498.04	0.0010263
2507.69	0.0010824
2517.33	0.0012351
2526.98	0.0012215
2536.62	0.0013604
2546.27	0.0013327
2555.91	0.0013801
2565.56	0.0009648
2575.2	0.000803
2584.85	0.0006655
2594.49	0.000512883
2604.14	0.0005876
2613.78	0.00049725
2623.43	0.0004877
2633.07	0.000414
2642.72	0.0004468
2652.36	0.000469
2662.01	0.00060192
2671.65	0.00055146
2681.29	0.0006797
2690.94	0.0006107
2700.58	0.00055161
2710.23	0.00054216
2719.87	0.0006003
2729.52	0.00049649
2739.16	0.00052368
2748.81	0.0007138
2758.45	0.0007292
2768.1	0.000675
2777.74	0.0006925
2787.39	0.0006377
2797.03	0.000686
2806.68	0.0006738
2816.32	0.00059884
2825.97	0.0006742
2835.61	0.000837
2845.26	0.0004777
2854.9	0.00053234
2864.55	0.00053789
2874.19	0.000401
2883.84	0.000383
2893.48	0.0004046
2903.12	0.0004324
2912.77	0.000347
2922.41	0.000376
2932.06	0.0004178
2941.7	0.000393
2951.35	0.000238
2960.99	0.000322
2970.64	0.000385
2980.28	0.00059755
2989.93	0.00049893
2999.57	0.000454
3009.22	0.0004429
3018.86	0.000369
3028.51	0.000708
3038.15	0.0011021
3047.8	0.002954
3057.44	0.002914
3067.09	0.0013898
3076.73	0.0012151
3086.38	0.0012918
3096.02	0.0013629
3105.67	0.0013847
3115.31	0.001079
3124.95	0.0008593
3134.6	0.0004477
3144.24	0.00058962
3153.89	0.00056896
3163.53	0.0004543
3173.18	0.00027
3182.82	0.0004324
3192.47	0.000510329
3202.11	0.0004938
3211.76	0.0004146
3221.4	0.0004096
3231.05	0.000297
3240.69	0.000402
3250.34	0.000249
3259.98	0.000328
3269.63	0.000346
3279.27	0.000231
3288.92	0.000374
3298.56	0.000395
3308.21	0.0004104
3317.85	0.000336
3327.49	0.000244
3337.14	0.000259
3346.78	0.000322
3356.43	0.000353
3366.07	0.000357
3375.72	0.000323
3385.36	0.00035
3395.01	0.0004288
3404.65	0.00054036
3414.3	0.0008715
3423.94	0.000808
3433.59	0.0007531
3443.23	0.0006222
3452.88	0.0004182
3462.52	0.000471
3472.17	0.000338
3481.81	0.00059138
3491.46	0.000393
3501.1	0.000385
3510.75	0.000326
3520.39	0.000361
3530.04	0.000299
3539.68	0.0004735
3549.32	0.000392
3558.97	0.000155
3568.61	0.000346
3578.26	8.1e-05
3587.9	0.000208
3597.55	0.000449
3607.19	0.000344
3616.84	0.000227
3626.48	0.000298
3636.13	0.00033
3645.77	0.000181
3655.42	0.000262
3665.06	0.000299
3674.71	0.00029
3684.35	0.000382
3694	0.0004045
3703.64	0.000185
3713.29	0.000287
3722.93	0.000253
3732.58	0.0004393
3742.22	0.0004096
3751.86	0.000312
3761.51	0.00049416
3771.15	0.000365
3780.8	0.0004634
3790.44	0.000353
3800.09	0.000369
3809.73	0.00058649
3819.38	0.0004249
3829.02	0.0006566
3838.67	0.00054557
3848.31	0.000403
3857.96	0.00049459
3867.6	0.0004104
3877.25	0.000371
3886.89	0.0004651
3896.54	0.000382
3906.18	0.000319
3915.83	0.0004859
3925.47	7.4e-05
3935.12	0.00019
3944.76	0.000262
3954.41	0.000312
3964.05	0.000208
3973.69	0.000379
3983.34	0.000241
3992.98	0.000322
