Infrared Spectrum: 2-(Trifluoroacetyl)thiophene
Formula: C 6 H 3 F 3 O S
CAS: 651-70-7
State: gas
Origin: EPA-IR VAPOR PHASE LIBRARY
1/CM	ABSORBANCE
549.8	0.003057
559.445	0.003827
569.09	0.006377
578.734	0.012437
588.379	0.011247
598.024	0.004557
607.669	0.002487
617.313	0.001987
626.958	0.002397
636.603	0.002817
646.248	0.002077
655.893	0.002637
665.537	0.009987
675.182	0.018867
684.827	0.008367
694.472	0.005337
704.116	0.015387
713.761	0.042357
723.406	0.076127
733.051	0.061877
742.695	0.036557
752.34	0.027287
761.985	0.015407
771.63	0.005987
781.275	0.003507
790.919	0.002787
800.564	0.003097
810.209	0.001857
819.854	0.003087
829.498	0.005097
839.143	0.020547
848.788	0.045117
858.433	0.032567
868.078	0.010387
877.722	0.020247
887.367	0.024667
897.012	0.011557
906.657	0.008437
916.301	0.016097
925.946	0.022977
935.591	0.011637
945.236	0.004467
954.88	0.002827
964.525	0.002787
974.17	0.0015463
983.815	0.001937
993.46	0.001977
1003.1	0.002697
1012.75	0.002367
1022.39	0.003507
1032.04	0.006637
1041.68	0.017097
1051.33	0.026547
1060.97	0.034107
1070.62	0.027957
1080.26	0.017157
1089.91	0.013147
1099.55	0.006627
1109.2	0.007277
1118.84	0.010747
1128.49	0.021127
1138.13	0.043157
1147.78	0.100257
1157.42	0.199787
1167.07	0.270857
1176.71	0.204817
1186.36	0.110737
1196	0.106127
1205.64	0.131367
1215.29	0.155777
1224.93	0.126637
1234.58	0.083287
1244.22	0.061107
1253.87	0.029147
1263.51	0.014197
1273.16	0.008967
1282.8	0.009427
1292.45	0.011817
1302.09	0.019487
1311.74	0.027007
1321.38	0.029577
1331.03	0.024917
1340.67	0.011997
1350.32	0.006967
1359.96	0.009407
1369.61	0.010787
1379.25	0.007977
1388.9	0.007947
1398.54	0.019237
1408.18	0.045777
1417.83	0.050747
1427.47	0.019537
1437.12	0.008357
1446.76	0.005327
1456.41	0.002967
1466.05	0.002717
1475.7	0.002967
1485.34	0.003527
1494.99	0.007457
1504.63	0.016467
1514.28	0.020567
1523.92	0.012257
1533.57	0.004217
1543.21	0.002947
1552.86	0.003797
1562.5	0.005467
1572.15	0.005287
1581.79	0.002977
1591.44	0.0017634
1601.08	0.002237
1610.73	0.002227
1620.37	0.002507
1630.01	0.003077
1639.66	0.002867
1649.3	0.002927
1658.95	0.004547
1668.59	0.007007
1678.24	0.010817
1687.88	0.022757
1697.53	0.056387
1707.17	0.116077
1716.82	0.129727
1726.46	0.071257
1736.11	0.031517
1745.75	0.017057
1755.4	0.010037
1765.04	0.007407
1774.69	0.005037
1784.33	0.003287
1793.98	0.002687
1803.62	0.002967
1813.27	0.003057
1822.91	0.003347
1832.55	0.002777
1842.2	0.002287
1851.84	0.0018158
1861.49	0.0014803
1871.13	0.0012428
1880.78	0.001547
1890.42	0.0018274
1900.07	0.0016521
1909.71	0.0013977
1919.36	0.0014379
1929	0.0012453
1938.65	0.0013319
1948.29	0.0011303
1957.94	0.00094256
1967.58	0.0009962
1977.23	0.00091146
1986.87	0.0010572
1996.52	0.0009968
2006.16	0.00089254
2015.81	0.0009611
2025.45	0.0011152
2035.1	0.0009936
2044.74	0.0009849
2054.38	0.0010442
2064.03	0.0011495
2073.67	0.0010874
2083.32	0.0012352
2092.96	0.0013247
2102.61	0.0011934
2112.25	0.0009869
2121.9	0.000825
2131.54	0.00090604
2141.19	0.00090551
2150.83	0.00092298
2160.48	0.0011489
2170.12	0.001487
2179.77	0.0010057
2189.41	0.0013576
2199.06	0.0012139
2208.7	0.0011197
2218.35	0.0014031
2227.99	0.0012195
2237.64	0.0010373
2247.28	0.0010989
2256.92	0.0010052
2266.57	0.0012065
2276.21	0.0011737
2285.86	0.0012246
2295.5	0.0011465
2305.15	0.0013027
2314.79	0.0014022
2324.44	0.001549
2334.08	0.001431
2343.73	0.0012764
2353.37	0.0012935
2363.02	0.0010656
2372.66	0.001378
2382.31	0.0013409
2391.95	0.0011877
2401.6	0.0011427
2411.24	0.00091227
2420.89	0.0012779
2430.53	0.0012992
2440.18	0.001448
2449.82	0.0012783
2459.47	0.0014477
2469.11	0.0013254
2478.75	0.0014209
2488.4	0.0010304
2498.04	0.0015601
2507.69	0.00092968
2517.33	0.0014503
2526.98	0.0016592
2536.62	0.0014718
2546.27	0.0013927
2555.91	0.00124
2565.56	0.0014289
2575.2	0.001502
2584.85	0.0014103
2594.49	0.0011986
2604.14	0.0011522
2613.78	0.0011067
2623.43	0.00087558
2633.07	0.0007998
2642.72	0.000583
2652.36	0.0007619
2662.01	0.001019
2671.65	0.00087735
2681.29	0.0010108
2690.94	0.000998
2700.58	0.00089729
2710.23	0.00092421
2719.87	0.000646
2729.52	0.000663
2739.16	0.00085234
2748.81	0.0008316
2758.45	0.000734
2768.1	0.0011327
2777.74	0.0007786
2787.39	0.000708
2797.03	0.0011499
2806.68	0.00057
2816.32	0.0009918
2825.97	0.0008204
2835.61	0.000667
2845.26	0.000227
2854.9	0.000619
2864.55	0.00088774
2874.19	0.000586
2883.84	0.000393
2893.48	0.000566
2903.12	0.000707
2912.77	0.0003
2922.41	0.000151
2932.06	0.0009308
2941.7	0.000656
2951.35	0.000482
2960.99	0.0007758
2970.64	0.000847674
2980.28	0.0007909
2989.93	0.000469
2999.57	0.000422
3009.22	0.0010125
3018.86	0.000638
3028.51	0.000661
3038.15	0.0009822
3047.8	0.000709
3057.44	0.000662
3067.09	0.0009615
3076.73	0.0012246
3086.38	0.002297
3096.02	0.002387
3105.67	0.001917
3115.31	0.0014695
3124.95	0.0013874
3134.6	0.000673
3144.24	0.000421
3153.89	0.000531
3163.53	0.000456
3173.18	0.000155
3182.82	0.000518
3192.47	0.000523
3202.11	0.000379
3211.76	0.0007586
3221.4	0.000466
3231.05	0.0008289
3240.69	0.000851021
3250.34	0.00059
3259.98	0.000465
3269.63	0.000507
3279.27	0.000389
3288.92	0.00094482
3298.56	0.00094161
3308.21	0.00084199
3317.85	0.0009995
3327.49	0.0011064
3337.14	0.000535
3346.78	0.000599
3356.43	0.0008153
3366.07	0.0013439
3375.72	0.000855949
3385.36	0.001297
3395.01	0.001957
3404.65	0.002587
3414.3	0.0017636
3423.94	0.0014919
3433.59	0.0014885
3443.23	0.000719
3452.88	0.0012932
3462.52	0.0010826
3472.17	0.0010192
3481.81	0.0009475
3491.46	0.0009963
3501.1	0.0010412
3510.75	0.000482
3520.39	0.000619
3530.04	0.00093834
3539.68	0.0012671
3549.32	0.00059
3558.97	0.000745
3568.61	0.000586
3578.26	0.000271
3587.9	0.0007828
3597.55	0.000605
3607.19	0.0011016
3616.84	0.0008242
3626.48	0.00085968
3636.13	0.0007716
3645.77	0.000745
3655.42	0.000654
3665.06	0.0009496
3674.71	0.0011014
3684.35	0.000416
3694	0.0012574
3703.64	0.000854555
3713.29	0.000569
3722.93	0.0010408
3732.58	0.000301
3742.22	0.0011605
3751.86	0.001102
3761.51	0.0008046
3771.15	0.000443
3780.8	0.000722
3790.44	0.000394
3800.09	0.0008325
3809.73	0.0007529
3819.38	0.000377
3829.02	0.000602
3838.67	0.000419
3848.31	0.0016605
3857.96	0.000581
3867.6	0.0014362
3877.25	0.0011583
3886.89	0.000526
3896.54	0.000545
3906.18	0.0007848
3915.83	0.00038
3925.47	0.0008279
3935.12	0.0010759
3944.76	0.0005
3954.41	0.0014301
3964.05	0.0011922
3973.69	0.00087984
3983.34	0.0013018
3992.98	0.000744
