Infrared Spectrum: Nicotinonitrile, 2-hydroxy-6-methyl-5-nitro-4-(trifluoromethyl)-, (keto form)
Formula: C8 H4 F3 N3 O3
CAS: 651-77-4
State: SOLID (1 mg / 650 mg KBr DISC)
Class: COBLENTZ III
Instrument: PERKIN-ELMER 221 (GRATING)
Instrument parameters: FILTER AT 980 CM^-^1. GRATING 4000-1428 CM^-^1, NaCl PRISM 1428-650 CM^-^1
Resolution: 2
Origin: SOUTHERN RESEARCH INSTITUTE
1/CM	TRANSMITTANCE
628.6	0.7998
637.626	0.841
646.651	0.8408
655.677	0.8042
664.703	0.6382
673.728	0.8137
682.754	0.9049
691.78	0.8992
700.805	0.8587
709.831	0.5429
718.857	0.8352
727.882	0.8807
736.908	0.9263
745.934	0.9239
754.959	0.9137
763.985	0.8949
773.011	0.6964
782.036	0.8221
791.062	0.609
800.088	0.9356
809.113	0.937
818.139	0.9307
827.165	0.9226
836.19	0.9109
845.216	0.8974
854.242	0.8843
863.267	0.8722
872.293	0.8582
881.319	0.8119
890.344	0.8435
899.37	0.8339
908.396	0.8164
917.421	0.78
926.447	0.7323
935.473	0.6819
944.498	0.6793
953.524	0.739
962.55	0.782
971.575	0.8054
980.601	0.8175
989.627	0.8184
998.652	0.8114
1007.68	0.7956
1016.7	0.7764
1025.73	0.7218
1034.75	0.6784
1043.78	0.7748
1052.81	0.7797
1061.83	0.7773
1070.86	0.7643
1079.88	0.7299
1088.91	0.6951
1097.93	0.6942
1106.96	0.6652
1115.99	0.6043
1125.01	0.523
1134.04	0.3779
1143.06	0.2371
1152.09	0.3673
1161.11	0.2853
1170.14	0.2272
1179.17	0.2303
1188.19	0.2976
1197.22	0.4893
1206.24	0.6269
1215.27	0.6113
1224.29	0.4167
1233.32	0.3617
1242.35	0.5681
1251.37	0.7473
1260.4	0.7688
1269.42	0.7989
1278.45	0.8099
1287.47	0.8105
1296.5	0.8048
1305.52	0.7276
1314.55	0.5737
1323.58	0.4755
1332.6	0.5653
1341.63	0.4968
1350.65	0.3472
1359.68	0.5294
1368.7	0.6453
1377.73	0.6079
1386.76	0.5849
1395.78	0.4893
1404.81	0.5722
1413.83	0.7248
1422.86	0.7418
1431.88	0.7625
1440.91	0.7701
1449.94	0.7732
1458.96	0.7738
1467.99	0.7495
1477.01	0.6604
1486.04	0.5719
1495.06	0.6882
1504.09	0.7287
1513.12	0.707
1522.14	0.6033
1531.17	0.4122
1540.19	0.2721
1549.22	0.3131
1558.24	0.403
1567.27	0.5216
1576.29	0.5894
1585.32	0.5877
1594.35	0.5256
1603.37	0.3916
1612.4	0.5433
1621.42	0.5967
1630.45	0.5782
1639.47	0.5284
1648.5	0.4569
1657.53	0.3217
1666.55	0.2074
1675.58	0.1057
1684.6	0.2318
1693.63	0.323
1702.65	0.4636
1711.68	0.5566
1720.71	0.6371
1729.73	0.7039
1738.76	0.7403
1747.78	0.7683
1756.81	0.7948
1765.83	0.816
1774.86	0.8334
1783.89	0.8462
1792.91	0.8572
1801.94	0.8658
1810.96	0.8667
1819.99	0.8602
1829.01	0.8544
1838.04	0.851
1847.06	0.8492
1856.09	0.8495
1865.12	0.8519
1874.14	0.8554
1883.17	0.8596
1892.19	0.8641
1901.22	0.8677
1910.24	0.8709
1919.27	0.8744
1928.3	0.8777
1937.32	0.8787
1946.35	0.8793
1955.37	0.8787
1964.4	0.8776
1973.42	0.8774
1982.45	0.8785
1991.48	0.88
2000.5	0.8842
2009.53	0.8898
2018.55	0.8885
2027.58	0.8877
2036.6	0.8866
2045.63	0.8854
2054.66	0.8842
2063.68	0.8832
2072.71	0.8824
2081.73	0.8815
2090.76	0.8804
2099.78	0.8793
2108.81	0.8777
2117.83	0.8764
2126.86	0.8777
2135.89	0.8808
2144.91	0.886
2153.94	0.8866
2162.96	0.8843
2171.99	0.8809
2181.01	0.8758
2190.04	0.8747
2199.07	0.8751
2208.09	0.8699
2217.12	0.8563
2226.14	0.8344
2235.17	0.749
2244.19	0.7921
2253.22	0.8385
2262.25	0.8668
2271.27	0.8657
2280.3	0.8643
2289.32	0.8603
2298.35	0.8546
2307.37	0.8516
2316.4	0.8432
2325.42	0.8316
2334.45	0.8285
2343.48	0.8299
2352.5	0.8294
2361.53	0.8265
2370.55	0.8257
2379.58	0.8272
2388.6	0.8304
2397.63	0.8233
2406.66	0.8146
2415.68	0.8081
2424.71	0.8065
2433.73	0.7982
2442.76	0.7822
2451.78	0.774
2460.81	0.7728
2469.84	0.7729
2478.86	0.7714
2487.89	0.7681
2496.91	0.7637
2505.94	0.7572
2514.96	0.756
2523.99	0.7577
2533.02	0.7436
2542.04	0.7277
2551.07	0.7199
2560.09	0.7121
2569.12	0.7021
2578.14	0.6892
2587.17	0.6787
2596.19	0.6697
2605.22	0.6628
2614.25	0.6597
2623.27	0.654
2632.3	0.6405
2641.32	0.6344
2650.35	0.6306
2659.37	0.6277
2668.4	0.6211
2677.43	0.6115
2686.45	0.6015
2695.48	0.5917
2704.5	0.5824
2713.53	0.5731
2722.55	0.5638
2731.58	0.5535
2740.61	0.5428
2749.63	0.5306
2758.66	0.5267
2767.68	0.5274
2776.71	0.5286
2785.73	0.5317
2794.76	0.5455
2803.79	0.5555
2812.81	0.5607
2821.84	0.5514
2830.86	0.5395
2839.89	0.5308
2848.91	0.53
2857.94	0.5303
2866.96	0.5309
2875.99	0.532
2885.02	0.5332
2894.04	0.534
2903.07	0.5348
2912.09	0.5378
2921.12	0.5432
2930.14	0.5447
2939.17	0.5459
2948.2	0.5573
2957.22	0.5765
2966.25	0.5864
2975.27	0.6019
2984.3	0.6212
2993.32	0.6309
3002.35	0.6301
3011.38	0.6201
3020.4	0.6095
3029.43	0.6099
3038.45	0.6086
3047.48	0.6193
3056.5	0.6408
3065.53	0.6557
3074.56	0.6676
3083.58	0.6763
3092.61	0.6832
3101.63	0.6894
3110.66	0.6938
3119.68	0.7115
3128.71	0.7178
3137.73	0.718
3146.76	0.7162
3155.79	0.7107
3164.81	0.7062
3173.84	0.7085
3182.86	0.7161
3191.89	0.7265
3200.91	0.7288
3209.94	0.729
3218.97	0.7295
3227.99	0.7303
3237.02	0.7299
3246.04	0.727
3255.07	0.7263
3264.09	0.727
3273.12	0.7268
3282.15	0.7226
3291.17	0.7178
3300.2	0.7124
3309.22	0.7042
3318.25	0.6944
3327.27	0.6809
3336.3	0.6679
3345.33	0.6551
3354.35	0.6422
3363.38	0.6305
3372.4	0.6158
3381.43	0.5977
3390.45	0.5824
3399.48	0.5651
3408.5	0.5502
3417.53	0.5385
3426.56	0.5357
3435.58	0.536
3444.61	0.5443
3453.63	0.5516
3462.66	0.5587
3471.68	0.5721
3480.71	0.5842
3489.74	0.587
3498.76	0.5876
3507.79	0.588
3516.81	0.5907
3525.84	0.5906
3534.86	0.5841
3543.89	0.5881
3552.92	0.6092
3561.94	0.6366
3570.97	0.6549
3579.99	0.6913
3589.02	0.7105
3598.04	0.7239
3607.07	0.7362
3616.1	0.7528
3625.12	0.7628
3634.15	0.7826
3643.17	0.7975
3652.2	0.8073
3661.22	0.8096
3670.25	0.8135
3679.27	0.8085
3688.3	0.8155
3697.33	0.8219
3706.35	0.8251
3715.38	0.8251
3724.4	0.8239
3733.43	0.8224
3742.45	0.8206
3751.48	0.8193
3760.51	0.8214
3769.53	0.8285
3778.56	0.8341
3787.58	0.8339
3796.61	0.8329
3805.63	0.8312
3814.66	0.8241
3823.69	0.8282
3832.71	0.8228
3841.74	0.8214
3850.76	0.8233
3859.79	0.8249
3868.81	0.8203
3877.84	0.8226
3886.86	0.8242
3895.89	0.8237
3904.92	0.8227
3913.94	0.8227
3922.97	0.8245
3931.99	0.8254
3941.02	0.826
3950.04	0.8261
3959.07	0.823
3968.1	0.8247
3977.12	0.8221
3986.15	0.8241
3995.17	0.8262
4004.2	0.8234
