Infrared Spectrum: 2,3,4,5,6-Pentafluoroacetophenone
Formula: C 8 H 3 F 5 O
CAS: 652-29-9
State: gas
Origin: EPA-IR VAPOR PHASE LIBRARY
1/CM	ABSORBANCE
549.9	0.01369
559.547	0.02142
569.193	0.03605
578.84	0.0285
588.486	0.03046
598.133	0.06704
607.779	0.03582
617.426	0.00971
627.072	0.0065389
636.719	0.00583612
646.365	0.0064453
656.012	0.00912
665.658	0.01161
675.305	0.00681
684.951	0.00373
694.598	0.00314
704.245	0.00281
713.891	0.00289
723.538	0.0034
733.184	0.005048
742.831	0.004955
752.477	0.00353
762.124	0.00314
771.77	0.00329
781.417	0.00367
791.063	0.00385
800.71	0.00399
810.356	0.00414
820.003	0.005132
829.649	0.00725
839.296	0.0157
848.943	0.0673
858.589	0.11501
868.236	0.04861
877.882	0.01938
887.529	0.01275
897.175	0.01076
906.822	0.00934
916.468	0.00947
926.115	0.01257
935.761	0.02094
945.408	0.04606
955.054	0.09737
964.701	0.14939
974.347	0.17237
983.994	0.17369
993.64	0.14272
1003.29	0.09728
1012.93	0.07176
1022.58	0.07317
1032.23	0.09585
1041.87	0.08927
1051.52	0.05285
1061.17	0.03162
1070.81	0.03768
1080.46	0.1081
1090.11	0.14438
1099.75	0.06392
1109.4	0.0291
1119.05	0.02137
1128.69	0.0209
1138.34	0.02576
1147.99	0.03665
1157.63	0.04141
1167.28	0.05612
1176.92	0.13011
1186.57	0.34403
1196.22	0.3067
1205.86	0.07274
1215.51	0.03712
1225.16	0.0198
1234.8	0.01374
1244.45	0.0127
1254.1	0.01259
1263.74	0.01284
1273.39	0.01309
1283.04	0.01346
1292.68	0.01757
1302.33	0.0511
1311.98	0.19318
1321.62	0.23661
1331.27	0.06395
1340.92	0.02825
1350.56	0.03869
1360.21	0.07232
1369.86	0.06874
1379.5	0.04418
1389.15	0.06761
1398.79	0.0998
1408.44	0.1057
1418.09	0.07213
1427.73	0.04658
1437.38	0.04239
1447.03	0.03852
1456.67	0.04687
1466.32	0.08674
1475.97	0.2343
1485.61	0.57968
1495.26	0.71373
1504.91	0.42557
1514.55	0.38962
1524.2	0.28799
1533.85	0.10096
1543.49	0.04683
1553.14	0.02805
1562.79	0.02129
1572.43	0.02093
1582.08	0.02438
1591.73	0.0288
1601.37	0.02874
1611.02	0.02826
1620.67	0.03571
1630.31	0.06638
1639.96	0.11804
1649.6	0.10365
1659.25	0.04138
1668.9	0.02198
1678.54	0.02204
1688.19	0.03117
1697.84	0.04518
1707.48	0.0606
1717.13	0.10135
1726.78	0.20781
1736.42	0.23533
1746.07	0.12053
1755.72	0.06524
1765.36	0.04287
1775.01	0.02715
1784.66	0.01957
1794.3	0.01536
1803.95	0.01282
1813.6	0.01034
1823.24	0.00733
1832.89	0.0059865
1842.54	0.005321
1852.18	0.005076
1861.83	0.00503
1871.47	0.005099
1881.12	0.00463
1890.77	0.00435
1900.41	0.00436
1910.06	0.004905
1919.71	0.005208
1929.35	0.00469
1939	0.00421
1948.65	0.00411
1958.29	0.00417
1967.94	0.00426
1977.59	0.00457
1987.23	0.004913
1996.88	0.005363
2006.53	0.0057053
2016.17	0.005033
2025.82	0.00439
2035.47	0.00436
2045.11	0.00469
2054.76	0.005307
2064.41	0.005525
2074.05	0.005093
2083.7	0.0047
2093.35	0.00461
2102.99	0.00427
2112.64	0.0042
2122.28	0.00422
2131.93	0.00424
2141.58	0.00419
2151.22	0.0041
2160.87	0.00414
2170.52	0.00424
2180.16	0.0043
2189.81	0.00418
2199.46	0.00416
2209.1	0.00464
2218.75	0.00495
2228.4	0.00468
2238.04	0.00422
2247.69	0.00374
2257.34	0.00359
2266.98	0.00382
2276.63	0.00397
2286.28	0.0037
2295.92	0.00339
2305.57	0.00348
2315.22	0.00362
2324.86	0.00393
2334.51	0.00422
2344.16	0.00455
2353.8	0.004836
2363.45	0.005266
2373.09	0.005857
2382.74	0.0058533
2392.39	0.005609
2402.03	0.005609
2411.68	0.005195
2421.33	0.00452
2430.97	0.00445
2440.62	0.004831
2450.27	0.005596
2459.91	0.0067137
2469.56	0.0066822
2479.21	0.005211
2488.85	0.004792
2498.5	0.004756
2508.15	0.004753
2517.79	0.00448
2527.44	0.0043
2537.09	0.00447
2546.73	0.00458
2556.38	0.00458
2566.03	0.00448
2575.67	0.0047
2585.32	0.005148
2594.96	0.005377
2604.61	0.005359
2614.26	0.0046
2623.9	0.00466
2633.55	0.005174
2643.2	0.005181
2652.84	0.004805
2662.49	0.005007
2672.14	0.0046
2681.78	0.00389
2691.43	0.00359
2701.08	0.00352
2710.72	0.0034
2720.37	0.00298
2730.02	0.00291
2739.66	0.00289
2749.31	0.00269
2758.96	0.00261
2768.6	0.00258
2778.25	0.00232
2787.9	0.00212
2797.54	0.00202
2807.19	0.00196
2816.84	0.00205
2826.48	0.00227
2836.13	0.00239
2845.77	0.0022
2855.42	0.00188
2865.07	0.00183
2874.71	0.0022
2884.36	0.00275
2894.01	0.00329
2903.65	0.00364
2913.3	0.00394
2922.95	0.00421
2932.59	0.00421
2942.24	0.00383
2951.89	0.00301
2961.53	0.00268
2971.18	0.00267
2980.83	0.00309
2990.47	0.00357
3000.12	0.00465
3009.77	0.00703
3019.41	0.00813
3029.06	0.005515
3038.71	0.00363
3048.35	0.00263
3058	0.00205
3067.64	0.00172
3077.29	0.00199
3086.94	0.00182
3096.58	0.00176
3106.23	0.00163
3115.88	0.00172
3125.52	0.00158
3135.17	0.00149
3144.82	0.00094
3154.46	0.00051
3164.11	0.00026
3173.76	0.0002
3183.4	0
3193.05	0.00023
3202.7	0.0002
3212.34	0.00027
3221.99	0.0003
3231.64	0.00029
3241.28	0.00038
3250.93	0.00045
3260.58	0.00042
3270.22	0.00042
3279.87	0.00047
3289.52	0.00061
3299.16	0.00044
3308.81	0.0006
3318.45	0.0006
3328.1	0.00078
3337.75	0.00076
3347.39	0.00093
3357.04	0.0011
3366.69	0.00107
3376.33	0.00125
3385.98	0.0015
3395.63	0.00171
3405.27	0.00216
3414.92	0.00237
3424.57	0.00341
3434.21	0.00479
3443.86	0.0060362
3453.51	0.005542
3463.15	0.00363
3472.8	0.00295
3482.45	0.00265
3492.09	0.00236
3501.74	0.00236
3511.39	0.00235
3521.03	0.00233
3530.68	0.00239
3540.33	0.00226
3549.97	0.0022
3559.62	0.00214
3569.26	0.0023
3578.91	0.00223
3588.56	0.00241
3598.2	0.00232
3607.85	0.00242
3617.5	0.0025
3627.14	0.00245
3636.79	0.00262
3646.44	0.00267
3656.08	0.00257
3665.73	0.00272
3675.38	0.00273
3685.02	0.00292
3694.67	0.00274
3704.32	0.00289
3713.96	0.00287
3723.61	0.00271
3733.26	0.00297
3742.9	0.00295
3752.55	0.00318
3762.2	0.00294
3771.84	0.00302
3781.49	0.00297
3791.13	0.00293
3800.78	0.00305
3810.43	0.00309
3820.07	0.00309
3829.72	0.00312
3839.37	0.00307
3849.01	0.00301
3858.66	0.00307
3868.31	0.00312
3877.95	0.00316
3887.6	0.00318
3897.25	0.0031
3906.89	0.0031
3916.54	0.0033
3926.19	0.00331
3935.83	0.00314
3945.48	0.00309
3955.13	0.00315
3964.77	0.00323
3974.42	0.00324
3984.07	0.00319
3993.71	0.00308
