Infrared Spectrum: p,p'-[p-HYDROXYBENZYLIDENE-BIS(N,N-DIMETHYLANILINE)]
Formula: C23 H26 N2 O
CAS: 652-46-0
State: SOLID (MINERAL OIL MULL)
Melting point: 161-163 C
Class: COBLENTZ
Instrument: Not specified, most likely a prism, grating, or hybrid spectrometer.
Sampling: TRANSMISSION
Resolution: 4
Origin: WYANDOTTE CHEMICALS CORP., WYANDOTTE, MICHIGAN, USA
MICROMETERS	TRANSMITTANCE
2.019	0.437
2.0561	0.437
2.0932	0.431
2.13031	0.44
2.16741	0.442
2.20451	0.434
2.24161	0.426
2.27871	0.425
2.31581	0.428
2.35292	0.431
2.39002	0.429
2.42712	0.437
2.46422	0.454
2.50132	0.454
2.53843	0.463
2.57553	0.479
2.61263	0.485
2.64973	0.499
2.68683	0.505
2.72394	0.5
2.76104	0.502
2.79814	0.502
2.83524	0.502
2.87234	0.502
2.90944	0.503
2.94655	0.503
2.98365	0.5
3.02075	0.491
3.05785	0.482
3.09495	0.471
3.13206	0.459
3.16916	0.442
3.20626	0.292
3.24336	0.236
3.28046	0.205
3.31756	0.148
3.35467	0.071
3.39177	0.043
3.42887	0.04
3.46597	0.037
3.50307	0.037
3.54018	0.083
3.57728	0.179
3.61438	0.267
3.65148	0.355
3.68858	0.361
3.72569	0.372
3.76279	0.386
3.79989	0.415
3.83699	0.446
3.87409	0.454
3.91119	0.452
3.9483	0.496
3.9854	0.533
4.0225	0.533
4.0596	0.545
4.0967	0.567
4.13381	0.567
4.17091	0.582
4.20801	0.599
4.24511	0.613
4.28221	0.608
4.31932	0.655
4.35642	0.695
4.39352	0.71
4.43062	0.698
4.46772	0.683
4.50482	0.692
4.54193	0.7
4.57903	0.707
4.61613	0.72
4.65323	0.729
4.69033	0.734
4.72744	0.749
4.76454	0.766
4.80164	0.765
4.83874	0.763
4.87584	0.766
4.91294	0.775
4.95005	0.777
4.98715	0.786
5.02425	0.795
5.06135	0.803
5.09845	0.82
5.13556	0.825
5.17266	0.825
5.20976	0.826
5.24686	0.833
5.28396	0.836
5.32107	0.766
5.35817	0.746
5.39527	0.803
5.43237	0.845
5.46947	0.87
5.50657	0.873
5.54368	0.882
5.58078	0.882
5.61788	0.888
5.65498	0.87
5.69208	0.901
5.72919	0.882
5.76629	0.928
5.80339	0.916
5.84049	0.941
5.87759	0.931
5.91469	0.941
5.9518	0.939
5.9889	0.955
6.026	0.918
6.0631	0.945
6.1002	0.876
6.13731	0.451
6.17441	0.132
6.21151	0.315
6.24861	0.298
6.28571	0.567
6.32282	0.622
6.35992	0.54
6.39702	0.758
6.43412	0.751
6.47122	0.675
6.50832	0.284
6.54543	0.106
6.58253	0.055
6.61963	0.102
6.65673	0.171
6.69383	0.19
6.73094	0.157
6.76804	0.102
6.80514	0.055
6.84224	0.054
6.87934	0.052
6.91645	0.106
6.95355	0.264
6.99065	0.431
7.02775	0.522
7.06485	0.608
7.10195	0.616
7.13906	0.639
7.17616	0.531
7.21326	0.272
7.25036	0.143
7.28746	0.179
7.32457	0.193
7.36167	0.106
7.39877	0.131
7.43587	0.236
7.47297	0.296
7.51007	0.391
7.54718	0.434
7.58428	0.463
7.62138	0.386
7.65848	0.273
7.69558	0.312
7.73269	0.437
7.76979	0.497
7.80689	0.445
7.84399	0.262
7.88109	0.426
7.9182	0.489
7.9553	0.234
7.9924	0.225
8.0295	0.256
8.0666	0.128
8.1037	0.068
8.14081	0.117
8.17791	0.23
8.21501	0.327
8.25211	0.36
8.28921	0.196
8.32632	0.245
8.36342	0.421
8.40052	0.372
8.43762	0.208
8.47472	0.358
8.51182	0.265
8.54893	0.194
8.58603	0.233
8.62313	0.307
8.66023	0.353
8.69733	0.33
8.73444	0.239
8.77154	0.353
8.80864	0.491
8.84574	0.511
8.88284	0.505
8.91995	0.557
8.95705	0.636
8.99415	0.669
9.03125	0.599
9.06835	0.646
9.10545	0.683
9.14256	0.714
9.17966	0.734
9.21676	0.749
9.25386	0.749
9.29096	0.69
9.32807	0.559
9.36517	0.53
9.40227	0.622
9.43937	0.7
9.47647	0.732
9.51358	0.732
9.55068	0.622
9.58778	0.431
9.62488	0.548
9.66198	0.666
9.69908	0.731
9.73619	0.774
9.77329	0.791
9.81039	0.814
9.84749	0.748
9.88459	0.629
9.9217	0.785
9.9588	0.823
9.9959	0.846
10.033	0.857
10.0701	0.863
10.1072	0.867
10.1443	0.87
10.1814	0.87
10.2185	0.867
10.2556	0.859
10.2927	0.863
10.3298	0.867
10.3669	0.873
10.404	0.845
10.4411	0.775
10.4782	0.754
10.5153	0.744
10.5524	0.627
10.5895	0.483
10.6266	0.503
10.6637	0.616
10.7008	0.615
10.7379	0.469
10.775	0.276
10.8121	0.358
10.8492	0.556
10.8863	0.684
10.9234	0.766
10.9605	0.829
10.9976	0.862
11.0348	0.885
11.0719	0.911
11.109	0.919
11.1461	0.936
11.1832	0.939
11.2203	0.936
11.2574	0.939
11.2945	0.953
11.3316	0.964
11.3687	0.952
11.4058	0.925
11.4429	0.826
11.48	0.573
11.5171	0.576
11.5542	0.746
11.5913	0.82
11.6284	0.817
11.6655	0.644
11.7026	0.361
11.7397	0.358
11.7768	0.593
11.8139	0.686
11.851	0.7
11.8881	0.676
11.9252	0.655
11.9623	0.581
11.9994	0.455
12.0365	0.315
12.0736	0.258
12.1107	0.27
12.1478	0.25
12.1849	0.204
12.222	0.191
12.2591	0.231
12.2962	0.341
12.3333	0.52
12.3704	0.585
12.4075	0.533
12.4446	0.394
12.4817	0.349
12.5188	0.553
12.5559	0.69
12.593	0.749
12.6301	0.769
12.6672	0.701
12.7043	0.489
12.7414	0.341
12.7785	0.375
12.8156	0.451
12.8527	0.489
12.8898	0.503
12.9269	0.513
12.964	0.517
13.0011	0.522
13.0383	0.537
13.0754	0.561
13.1125	0.582
13.1496	0.601
13.1867	0.619
13.2238	0.641
13.2609	0.664
13.298	0.687
13.3351	0.709
13.3722	0.721
13.4093	0.712
13.4464	0.721
13.4835	0.76
13.5206	0.743
13.5577	0.633
13.5948	0.54
13.6319	0.486
13.669	0.537
13.7061	0.596
13.7432	0.639
13.7803	0.646
13.8174	0.604
13.8545	0.612
13.8916	0.666
13.9287	0.712
13.9658	0.744
14.0029	0.737
14.04	0.712
14.0771	0.732
14.1142	0.775
14.1513	0.82
14.1884	0.848
14.2255	0.863
14.2626	0.876
14.2997	0.879
14.3368	0.871
14.3739	0.868
14.411	0.871
14.4481	0.888
14.4852	0.904
14.5223	0.916
14.5594	0.919
14.5965	0.919
14.6336	0.918
14.6707	0.921
14.7078	0.913
14.7449	0.905
14.782	0.902
14.8191	0.894
14.8562	0.882
14.8933	0.882
14.9304	0.879
14.9675	0.873
15.0046	0.839
15.0418	0.766
15.0789	0.698
15.116	0.675
15.1531	0.712
15.1902	0.749
15.2273	0.789
15.2644	0.802
15.3015	0.805
15.3386	0.803
15.3757	0.799
15.4128	0.786
15.4499	0.782
15.487	0.772
15.5241	0.761
15.5612	0.757
15.5983	0.754
15.6354	0.732
15.6725	0.72
15.7096	0.707
15.7467	0.69
15.7838	0.667
15.8209	0.65
15.858	0.642
15.8951	0.63
15.9322	0.627
15.9693	0.619
16.0064	0.602
