Infrared Spectrum: Tetrafluorophthalic acid
Formula: C 8 H 2 F 4 O 4
CAS: 652-03-9
State: gas
Origin: EPA-IR VAPOR PHASE LIBRARY
1/CM	ABSORBANCE
549.8	0.00248
559.445	0.000752
569.09	0.000465
578.735	0.000465
588.38	8.6e-05
598.025	0.000424
607.67	0.000559
617.315	0.0012446
626.96	0.0011891
636.605	0.0018617
646.251	0.0017323
655.896	0.000667
665.541	0.00065
675.186	0.0009648
684.831	0.00282
694.476	0.00714
704.121	0.00467
713.766	0.000944
723.411	0.00085
733.056	0.00475
742.701	0.01545
752.346	0.00906
761.991	0.0016257
771.636	0.0012157
781.281	0.0011987
790.926	0.0017854
800.571	0.00491
810.216	0.00443
819.861	0.0012471
829.507	0.0011658
839.152	0.0014116
848.797	0.0015496
858.442	0.00206
868.087	0.00379
877.732	0.0115
887.377	0.03118
897.022	0.0331
906.667	0.04346
916.312	0.08729
925.957	0.10001
935.602	0.06944
945.247	0.0612
954.892	0.02735
964.537	0.01746
974.182	0.01057
983.827	0.00405
993.472	0.00259
1003.12	0.00273
1012.76	0.00291
1022.41	0.00298
1032.05	0.00364
1041.7	0.00321
1051.34	0.0020068
1060.99	0.0017434
1070.63	0.00233
1080.28	0.00268
1089.92	0.00421
1099.57	0.0141
1109.21	0.02363
1118.86	0.01251
1128.5	0.00417
1138.15	0.00348
1147.79	0.00392
1157.44	0.00422
1167.08	0.00697
1176.73	0.01119
1186.37	0.01469
1196.02	0.0361
1205.66	0.09427
1215.31	0.09731
1224.95	0.03309
1234.6	0.01719
1244.24	0.01447
1253.89	0.00787
1263.53	0.00429
1273.18	0.00356
1282.82	0.00325
1292.47	0.00283
1302.11	0.00304
1311.76	0.00453
1321.4	0.00863
1331.05	0.0091
1340.69	0.00723
1350.34	0.00773
1359.98	0.00776
1369.63	0.00889
1379.27	0.02754
1388.92	0.07739
1398.56	0.06799
1408.21	0.02314
1417.85	0.00703
1427.5	0.00712
1437.14	0.00788
1446.79	0.00634
1456.43	0.00749
1466.08	0.00934
1475.73	0.01533
1485.37	0.04366
1495.02	0.09959
1504.66	0.13806
1514.31	0.15504
1523.95	0.1105
1533.6	0.02272
1543.24	0.0096
1552.89	0.00555
1562.53	0.00422
1572.18	0.00345
1581.82	0.00353
1591.47	0.00428
1601.11	0.00415
1610.76	0.00414
1620.4	0.00456
1630.05	0.00582
1639.69	0.00514
1649.34	0.00285
1658.98	0.00245
1668.63	0.00269
1678.27	0.0022
1687.92	0.0016867
1697.56	0.0015228
1707.21	0.0017929
1716.85	0.00235
1726.5	0.0034
1736.14	0.00349
1745.79	0.00339
1755.43	0.00395
1765.08	0.00617
1774.72	0.01318
1784.37	0.02679
1794.01	0.07925
1803.66	0.19327
1813.3	0.18549
1822.95	0.08617
1832.59	0.05477
1842.24	0.03964
1851.88	0.02075
1861.53	0.02101
1871.17	0.03166
1880.82	0.0474
1890.46	0.03709
1900.11	0.01621
1909.75	0.00848
1919.4	0.0054
1929.04	0.00437
1938.69	0.00324
1948.33	0.00208
1957.98	0.0015807
1967.62	0.0015039
1977.27	0.0015611
1986.91	0.001588
1996.56	0.0017394
2006.2	0.001954
2015.85	0.0022
2025.49	0.00253
2035.14	0.00273
2044.78	0.00286
2054.43	0.00282
2064.07	0.00237
2073.72	0.0017682
2083.36	0.0015789
2093.01	0.0016319
2102.65	0.0015989
2112.3	0.0017019
2121.94	0.0019564
2131.59	0.00209
2141.23	0.0018999
2150.88	0.0018057
2160.52	0.0016521
2170.17	0.0014004
2179.81	0.0012659
2189.46	0.0012799
2199.1	0.0013805
2208.75	0.001746
2218.39	0.0016971
2228.04	0.0014571
2237.68	0.0013164
2247.33	0.0013432
2256.97	0.0012934
2266.62	0.0013363
2276.26	0.0013169
2285.91	0.0012001
2295.55	0.001158
2305.2	0.001293
2314.84	0.0014028
2324.49	0.0012544
2334.13	0.00107766
2343.78	0.00106946
2353.42	0.0009797
2363.07	0.0009825
2372.72	0.0011324
2382.36	0.0013053
2392.01	0.0013219
2401.65	0.0011263
2411.3	0.0012149
2420.94	0.0012988
2430.59	0.0013552
2440.23	0.0014637
2449.88	0.001527
2459.52	0.0016836
2469.17	0.0014383
2478.81	0.0011509
2488.46	0.00103339
2498.1	0.0012122
2507.75	0.0013035
2517.39	0.0012854
2527.04	0.0013288
2536.68	0.0012042
2546.33	0.0011716
2555.97	0.00104465
2565.62	0.0011803
2575.26	0.0012666
2584.91	0.001294
2594.55	0.0015066
2604.2	0.0017327
2613.84	0.0018725
2623.49	0.0019703
2633.13	0.0019134
2642.78	0.0019222
2652.42	0.0017661
2662.07	0.001292
2671.71	0.0009499
2681.36	0.0009504
2691	0.0011019
2700.65	0.0011412
2710.29	0.0013636
2719.94	0.0012591
2729.58	0.001357
2739.23	0.0013484
2748.87	0.0011786
2758.52	0.000939
2768.16	0.000829
2777.81	0.000691
2787.45	0.000655
2797.1	0.000812
2806.74	0.000704
2816.39	0.000765
2826.03	0.000832
2835.68	0.000763
2845.32	0.000793
2854.97	0.000686
2864.61	0.000746
2874.26	0.00065
2883.9	0.000748
2893.55	0.000761
2903.19	0.000715
2912.84	0.000781
2922.48	0.000598
2932.13	0.000769
2941.77	0.00074
2951.42	0.000809
2961.06	0.000785
2970.71	0.000761
2980.35	0.000663
2990	0.000626
2999.64	0.000574
3009.29	0.000631
3018.93	0.00068
3028.58	0.00051
3038.22	0.000547
3047.87	0.000368
3057.51	0.000322
3067.16	0.000413
3076.8	0.000435
3086.45	0.000311
3096.09	0.000455
3105.74	0.000472
3115.38	0.000536
3125.03	0.000336
3134.67	0.000473
3144.32	0.000426
3153.96	0.000381
3163.61	0.00037
3173.25	0.000382
3182.9	0.000191
3192.54	0.000348
3202.19	0.000368
3211.83	0.000253
3221.48	0.000272
3231.12	0.0004
3240.77	0.000337
3250.41	0.000441
3260.06	0.000319
3269.7	0.000393
3279.35	0.000521
3289	0.000167
3298.64	0.000334
3308.29	0.000291
3317.93	0.000395
3327.58	0.000331
3337.22	0.000258
3346.87	0.000417
3356.51	0.000334
3366.16	0.000337
3375.8	0.000387
3385.45	0.000226
3395.09	0.000425
3404.74	0.000241
3414.38	0.000159
3424.03	0.000343
3433.67	0.00037
3443.32	0.00039
3452.96	0.000399
3462.61	0.000204
3472.25	0.000314
3481.9	0.000403
3491.54	0.00033
3501.19	0.000357
3510.83	0.000385
3520.48	0.000413
3530.12	0.00044
3539.77	0.000435
3549.41	0.000594
3559.06	0.000465
3568.7	0.000557
3578.35	0.000669
3587.99	0.000872
3597.64	0.00104313
3607.28	0.0014113
3616.93	0.0014255
3626.57	0.0015687
3636.22	0.0016584
3645.86	0.001912
3655.51	0.0020116
3665.15	0.00236
3674.8	0.00222
3684.44	0.0015605
3694.09	0.0012529
3703.73	0.0009543
3713.38	0.000876
3723.02	0.000865
3732.67	0.000679
3742.31	0.000757
3751.96	0.000724
3761.6	0.000702
3771.25	0.000611
3780.89	0.000594
3790.54	0.000659
3800.18	0.000566
3809.83	0.000558
3819.47	0.0005
3829.12	0.000449
3838.76	0.000542
3848.41	0.000429
3858.05	0.000371
3867.7	0.000448
3877.34	0.000489
3886.99	0.000536
3896.63	0.000562
3906.28	0.000486
3915.92	0.000568
3925.57	0.000649
3935.21	0.00059
3944.86	0.00067
3954.5	0.000404
3964.15	0.000655
3973.79	0.000428
3983.44	0.000644
3993.08	0.000592
