Infrared Spectrum: Terephthalic acid, tetrafluoro-
Formula: C8 H2 F4 O4
CAS: 652-36-8
State: SOLID (SPLIT MULL), FLUOROLUBE FOR 3800-1330 CM^-^1, NUJOL FOR 1330-400 CM^-^1
Class: COBLENTZ III
Instrument: DOW KBr FOREPRISM-GRATING
Instrument parameters: BLAZED AT 3.5, 12.0, 20.0 MICRON AND CHANGED AT 5.0, 7.5, 14.9 MICRON
Sampling: TRANSMISSION
Resolution: 2
Origin: DOW CHEMICAL COMPANY
1/CM	TRANSMITTANCE
385	0.73
394	0.7282
403	0.7287
412	0.7293
421	0.7268
430	0.7187
439	0.7194
448	0.7208
457	0.6761
466	0.7821
475	0.7184
484	0.8623
493	0.8821
502	0.8907
511	0.8963
520	0.8978
529	0.8975
538	0.896
547	0.8932
556	0.8886
565	0.9018
574	0.9104
583	0.908
592	0.9136
601	0.9098
610	0.9039
619	0.8991
628	0.8984
637	0.8968
646	0.8931
655	0.8877
664	0.8802
673	0.8492
682	0.8806
691	0.8681
700	0.8125
709	0.6784
718	0.2381
727	0.6501
736	0.8231
745	0.9031
754	0.9057
763	0.9037
772	0.897
781	0.8778
790	0.8315
799	0.8767
808	0.8747
817	0.8705
826	0.8659
835	0.8571
844	0.8455
853	0.8291
862	0.8061
871	0.7658
880	0.7604
889	0.7047
898	0.6357
907	0.5832
916	0.5902
925	0.6436
934	0.7061
943	0.7308
952	0.7405
961	0.743
970	0.74
979	0.7139
988	0.6348
997	0.3163
1006	0.2485
1015	0.6096
1024	0.7308
1033	0.8144
1042	0.8425
1051	0.8432
1060	0.8396
1069	0.8352
1078	0.8388
1087	0.8427
1096	0.8377
1105	0.8291
1114	0.8084
1123	0.8064
1132	0.8039
1141	0.7925
1150	0.7798
1159	0.7646
1168	0.7494
1177	0.7343
1186	0.7118
1195	0.6789
1204	0.6155
1213	0.4978
1222	0.2685
1231	0.3548
1240	0.6558
1249	0.5721
1258	0.3664
1267	0.5364
1276	0.5281
1285	0.5304
1294	0.3808
1303	0.2052
1312	0.254
1321	0.5707
1330	0.7455
1339	0.7772
1348	0.7704
1357	0.7445
1366	0.7228
1375	0.6985
1384	0.6184
1393	0.5473
1402	0.3048
1411	0.2057
1420	0.5658
1429	0.7451
1438	0.7317
1447	0.5497
1456	0.3612
1465	0.2067
1474	0.1086
1483	0.1248
1492	0.3708
1501	0.6159
1510	0.7251
1519	0.8607
1528	0.8975
1537	0.9005
1546	0.896
1555	0.8809
1564	0.8454
1573	0.8087
1582	0.8424
1591	0.8316
1600	0.8064
1609	0.8021
1618	0.7762
1627	0.7231
1636	0.6738
1645	0.6469
1654	0.6302
1663	0.576
1672	0.5206
1681	0.3384
1690	0.1629
1699	0.0689
1708	0.0745
1717	0.1098
1726	0.2065
1735	0.4864
1744	0.7332
1753	0.7754
1762	0.8325
1771	0.8575
1780	0.866
1789	0.8714
1798	0.8748
1807	0.8781
1816	0.8839
1825	0.887
1834	0.8875
1843	0.8873
1852	0.8866
1861	0.8859
1870	0.8856
1879	0.8853
1888	0.885
1897	0.8902
1906	0.8925
1915	0.8901
1924	0.8874
1933	0.8848
1942	0.8821
1951	0.879
1960	0.881
1969	0.8757
1978	0.8725
1987	0.8736
1996	0.8818
2005	0.8918
2014	0.8885
2023	0.8852
2032	0.8825
2041	0.8802
2050	0.8785
2059	0.8783
2068	0.8759
2077	0.8727
2086	0.8686
2095	0.8636
2104	0.8591
2113	0.8547
2122	0.8504
2131	0.8464
2140	0.8425
2149	0.8391
2158	0.837
2167	0.8421
2176	0.8467
2185	0.8432
2194	0.8389
2203	0.8343
2212	0.8298
2221	0.8254
2230	0.821
2239	0.8165
2248	0.8121
2257	0.8074
2266	0.8025
2275	0.7978
2284	0.7932
2293	0.7885
2302	0.7838
2311	0.7776
2320	0.7701
2329	0.7625
2338	0.7554
2347	0.7508
2356	0.7461
2365	0.7417
2374	0.7365
2383	0.7304
2392	0.7212
2401	0.7154
2410	0.7139
2419	0.7096
2428	0.6978
2437	0.6824
2446	0.6667
2455	0.6511
2464	0.6342
2473	0.6173
2482	0.6021
2491	0.6036
2500	0.6149
2509	0.6272
2518	0.6257
2527	0.6112
2536	0.589
2545	0.5683
2554	0.5439
2563	0.5229
2572	0.5106
2581	0.5228
2590	0.5529
2599	0.5688
2608	0.5665
2617	0.5552
2626	0.5421
2635	0.5385
2644	0.5373
2653	0.537
2662	0.537
2671	0.5372
2680	0.5379
2689	0.5388
2698	0.5398
2707	0.541
2716	0.5409
2725	0.5405
2734	0.5391
2743	0.5376
2752	0.5326
2761	0.5246
2770	0.5142
2779	0.5018
2788	0.488
2797	0.4728
2806	0.4564
2815	0.4416
2824	0.4279
2833	0.4254
2842	0.4258
2851	0.4252
2860	0.42
2869	0.4119
2878	0.4125
2887	0.4149
2896	0.4212
2905	0.4285
2914	0.4365
2923	0.4436
2932	0.445
2941	0.4436
2950	0.439
2959	0.436
2968	0.4353
2977	0.4349
2986	0.4352
2995	0.4358
3004	0.4375
3013	0.4406
3022	0.4455
3031	0.452
3040	0.4609
3049	0.47
3058	0.4794
3067	0.4862
3076	0.4893
3085	0.491
3094	0.4952
3103	0.5071
3112	0.522
3121	0.5364
3130	0.5546
3139	0.57
3148	0.5852
3157	0.602
3166	0.6208
3175	0.6414
3184	0.6631
3193	0.6871
3202	0.7119
3211	0.7324
3220	0.7475
3229	0.7586
3238	0.7687
3247	0.7792
3256	0.7915
3265	0.8045
3274	0.814
3283	0.8205
3292	0.8268
3301	0.8323
3310	0.8373
3319	0.8413
3328	0.8446
3337	0.8474
3346	0.8498
3355	0.8521
3364	0.8544
3373	0.8566
3382	0.8588
3391	0.8605
3400	0.8621
3409	0.8633
3418	0.8635
3427	0.8636
3436	0.8637
3445	0.863
3454	0.8621
3463	0.8612
3472	0.8587
3481	0.8561
3490	0.8535
3499	0.8504
3508	0.8466
3517	0.8461
3526	0.8481
3535	0.8505
3544	0.8527
3553	0.8533
3562	0.8521
3571	0.8489
3580	0.853
3589	0.8542
3598	0.8535
3607	0.8525
3616	0.8515
3625	0.8503
3634	0.8492
3643	0.8482
3652	0.8471
3661	0.8462
3670	0.8452
3679	0.8441
3688	0.843
3697	0.8418
3706	0.8408
3715	0.8396
3724	0.8384
3733	0.8371
3742	0.8362
3751	0.8357
3760	0.8353
3769	0.8348
3778	0.834
3787	0.8325
3796	0.8313
3805	0.83
