Infrared Spectrum: 3-Fluorophthalic anhydride
Formula: C 8 H 3 F O 3
CAS: 652-39-1
State: gas
Origin: EPA-IR VAPOR PHASE LIBRARY
1/CM	ABSORBANCE
549.8	0.008509
559.445	0.007029
569.09	0.0013555
578.734	0.002499
588.379	0.0009442
598.024	0.000243
607.669	0.0009661
617.313	0.002289
626.958	0.006959
636.603	0.009299
646.248	0.006199
655.893	0.003699
665.537	0.005099
675.182	0.003199
684.827	0.002129
694.472	0.002409
704.116	0.0013542
713.761	0.002729
723.406	0.009629
733.051	0.020369
742.695	0.018479
752.34	0.010199
761.985	0.005639
771.63	0.008379
781.275	0.007539
790.919	0.003759
800.564	0.002619
810.209	0.004969
819.854	0.010199
829.498	0.007239
839.143	0.003909
848.788	0.002869
858.433	0.004059
868.078	0.008089
877.722	0.017329
887.367	0.043789
897.012	0.084099
906.657	0.123279
916.301	0.100799
925.946	0.034119
935.591	0.010809
945.236	0.007849
954.88	0.013869
964.525	0.014949
974.17	0.007899
983.815	0.003779
993.46	0.002919
1003.1	0.002049
1012.75	0.0013643
1022.39	0.002239
1032.04	0.002469
1041.68	0.004549
1051.33	0.003929
1060.97	0.001979
1070.62	0.0015546
1080.26	0.0015126
1089.91	0.0017364
1099.55	0.004379
1109.2	0.007939
1118.84	0.013189
1128.49	0.020599
1138.13	0.015109
1147.78	0.005749
1157.42	0.004859
1167.07	0.004429
1176.71	0.005489
1186.36	0.012049
1196	0.024329
1205.64	0.041339
1215.29	0.038259
1224.93	0.017759
1234.58	0.012499
1244.22	0.032199
1253.87	0.061349
1263.51	0.069989
1273.16	0.059739
1282.8	0.039939
1292.45	0.014109
1302.09	0.006049
1311.74	0.006269
1321.38	0.005869
1331.03	0.009299
1340.67	0.015789
1350.32	0.013869
1359.96	0.007769
1369.61	0.006179
1379.25	0.003509
1388.9	0.003079
1398.54	0.003579
1408.18	0.003069
1417.83	0.002369
1427.47	0.002789
1437.12	0.003739
1446.76	0.005929
1456.41	0.008109
1466.05	0.011559
1475.7	0.029869
1485.34	0.048559
1494.99	0.033339
1504.63	0.007179
1514.28	0.005279
1523.92	0.004689
1533.57	0.003429
1543.21	0.003259
1552.86	0.003659
1562.5	0.003509
1572.15	0.002679
1581.79	0.003379
1591.44	0.006019
1601.08	0.014249
1610.73	0.028969
1620.37	0.028279
1630.01	0.008039
1639.66	0.003499
1649.3	0.002439
1658.95	0.002169
1668.59	0.002119
1678.24	0.002579
1687.88	0.002839
1697.53	0.002479
1707.17	0.002619
1716.82	0.002909
1726.46	0.003229
1736.11	0.003909
1745.75	0.005409
1755.4	0.008609
1765.04	0.013679
1774.69	0.023389
1784.33	0.059199
1793.98	0.176529
1803.62	0.257459
1813.27	0.184069
1822.91	0.079459
1832.55	0.040389
1842.2	0.026049
1851.84	0.025039
1861.49	0.046229
1871.13	0.071599
1880.78	0.059109
1890.42	0.027809
1900.07	0.015009
1909.71	0.006939
1919.36	0.004379
1929	0.003369
1938.65	0.002859
1948.29	0.003409
1957.94	0.003179
1967.58	0.002259
1977.23	0.001969
1986.87	0.001989
1996.52	0.001989
2006.16	0.002339
2015.81	0.003269
2025.45	0.003779
2035.1	0.003869
2044.74	0.002909
2054.38	0.001839
2064.03	0.0013707
2073.67	0.0016527
2083.32	0.0016349
2092.96	0.0018041
2102.61	0.001889
2112.25	0.001959
2121.9	0.0016917
2131.54	0.001532
2141.19	0.0014159
2150.83	0.001511
2160.48	0.001477
2170.12	0.0017497
2179.77	0.0013404
2189.41	0.0011378
2199.06	0.0012774
2208.7	0.0010723
2218.35	0.0015234
2227.99	0.0014538
2237.64	0.00151
2247.28	0.001829
2256.92	0.001869
2266.57	0.0011573
2276.21	0.0013372
2285.86	0.0009995
2295.5	0.0011208
2305.15	0.0009252
2314.79	0.0010686
2324.44	0.0010333
2334.08	0.0010704
2343.73	0.0010454
2353.37	0.0012236
2363.02	0.0012662
2372.66	0.0009669
2382.31	0.0009155
2391.95	0.0007318
2401.6	0.0008118
2411.24	0.0010893
2420.89	0.0011648
2430.53	0.0012409
2440.18	0.0016482
2449.82	0.001391
2459.47	0.0009097
2469.11	0.0009354
2478.75	0.0010127
2488.4	0.00086817
2498.04	0.001082
2507.69	0.0011954
2517.33	0.0013263
2526.98	0.00088251
2536.62	0.0014428
2546.27	0.001113
2555.91	0.0011932
2565.56	0.0010489
2575.2	0.0012342
2584.85	0.0013807
2594.49	0.0010396
2604.14	0.0010861
2613.78	0.0008406
2623.43	0.00086444
2633.07	0.0007564
2642.72	0.0009608
2652.36	0.0009322
2662.01	0.0009902
2671.65	0.0011732
2681.29	0.0011645
2690.94	0.0012169
2700.58	0.0010193
2710.23	0.0011147
2719.87	0.00091967
2729.52	0.0010577
2739.16	0.00071
2748.81	0.0013413
2758.45	0.000699
2768.1	0.00089739
2777.74	0.000702
2787.39	0.00072
2797.03	0.000684
2806.68	0.00087881
2816.32	0.0010203
2825.97	0.000838278
2835.61	0.0007515
2845.26	0.0011998
2854.9	0.0010251
2864.55	0.0007434
2874.19	0.0010088
2883.84	0.0010137
2893.48	0.0007705
2903.12	0.000469
2912.77	0.0007908
2922.41	0.000495
2932.06	0.00092385
2941.7	0.00071
2951.35	0.0013919
2960.99	0.0013351
2970.64	0.0014054
2980.28	0.00085936
2989.93	0.00087893
2999.57	0.000989
3009.22	0.000588
3018.86	0.001098
3028.51	0.0009573
3038.15	0.001192
3047.8	0.0017096
3057.44	0.001821
3067.09	0.0015306
3076.73	0.001142
3086.38	0.001408
3096.02	0.0012965
3105.67	0.0013423
3115.31	0.000751
3124.95	0.0011257
3134.6	0.0010668
3144.24	0.0012171
3153.89	0.0009756
3163.53	0.000569
3173.18	0.000514
3182.82	0.0007679
3192.47	0.000593
3202.11	0.000325
3211.76	0.0011226
3221.4	0.00089186
3231.05	0.0011683
3240.69	0.0010881
3250.34	0.000617
3259.98	0.0009413
3269.63	0.0007841
3279.27	0.00082477
3288.92	0.0010102
3298.56	0.000683
3308.21	0.000316
3317.85	0.000706
3327.49	0.00091108
3337.14	0.00092407
3346.78	0.00077
3356.43	0.00090832
3366.07	0.00087767
3375.72	0.00084563
3385.36	0.0012755
3395.01	0.000322
3404.65	9.2e-05
3414.3	0.000399
3423.94	0.00092465
3433.59	0.00091628
3443.23	0.0010033
3452.88	0.001087
3462.52	0.000711
3472.17	0.0009373
3481.81	0.000695
3491.46	0.0007855
3501.1	0.0008773
3510.75	0.0008185
3520.39	0.000149
3530.04	0.0010804
3539.68	0.0012125
3549.32	0.0008162
3558.97	0.001057
3568.61	0.0010077
3578.26	0.0011783
3587.9	0.002119
3597.55	0.002579
3607.19	0.002299
3616.84	0.002469
3626.48	0.002059
3636.13	0.002259
3645.77	0.003229
3655.42	0.003499
3665.06	0.003439
3674.71	0.002439
3684.35	0.002079
3694	0.0017648
3703.64	0.0015246
3713.29	0.0011876
3722.93	0.0010788
3732.58	0.0014998
3742.22	0.0013381
3751.86	0.0012132
3761.51	0.0012408
3771.15	0.0012477
3780.8	0.000492
3790.44	0.00086298
3800.09	0.0008051
3809.73	0.00086303
3819.38	0.0011608
3829.02	0.000377
3838.67	0.0010264
3848.31	0.00084361
3857.96	0.000709
3867.6	0.000377
3877.25	0.000306
3886.89	0.00079
3896.54	0.0008135
3906.18	0.000565
3915.83	0.0012466
3925.47	0.00044
3935.12	0.0007994
3944.76	0.00087991
3954.41	0.0008076
3964.05	0.00085098
3973.69	0.0012323
3983.34	0.000561
3992.98	0.0010964
