Infrared Spectrum: 1-Bromo-2,6-diethylbenzene
Formula: C 10 H 13 Br
CAS: 65232-57-7
State: gas
Origin: EPA-IR VAPOR PHASE LIBRARY
1/CM	ABSORBANCE
549.8	0.001969
559.445	0.002029
569.09	0.002959
578.734	0.001749
588.379	0.001979
598.024	0.002719
607.669	0.002519
617.313	0.002329
626.958	0.001939
636.603	0.001429
646.248	0.001279
655.893	0.001359
665.537	0.001279
675.182	0.0009028
684.827	0.0010517
694.472	0.001789
704.116	0.002959
713.761	0.010119
723.406	0.020619
733.051	0.021229
742.695	0.021559
752.34	0.015819
761.985	0.011949
771.63	0.015989
781.275	0.026849
790.919	0.027589
800.564	0.018629
810.209	0.009699
819.854	0.005039
829.498	0.003269
839.143	0.002389
848.788	0.003449
858.433	0.005489
868.078	0.005429
877.722	0.002989
887.367	0.002059
897.012	0.0011658
906.657	0.001449
916.301	0.001379
925.946	0.0011215
935.591	0.001409
945.236	0.001759
954.88	0.002199
964.525	0.002599
974.17	0.003029
983.815	0.005199
993.46	0.011249
1003.1	0.017149
1012.75	0.032289
1022.39	0.047049
1032.04	0.028279
1041.68	0.016869
1051.33	0.017699
1060.97	0.013499
1070.62	0.010799
1080.26	0.006479
1089.91	0.004179
1099.55	0.003509
1109.2	0.002779
1118.84	0.002339
1128.49	0.002569
1138.13	0.001659
1147.78	0.001619
1157.42	0.000738
1167.07	0.002459
1176.71	0.001409
1186.36	0.0007822
1196	0.001869
1205.64	0.002959
1215.29	0.002109
1224.93	0.001899
1234.58	0.002389
1244.22	0.003519
1253.87	0.003969
1263.51	0.003389
1273.16	0.003409
1282.8	0.003589
1292.45	0.003819
1302.09	0.004689
1311.74	0.006989
1321.38	0.009719
1331.03	0.008579
1340.67	0.005629
1350.32	0.003999
1359.96	0.004339
1369.61	0.007139
1379.25	0.011249
1388.9	0.009319
1398.54	0.007999
1408.18	0.012839
1417.83	0.027119
1427.47	0.032569
1437.12	0.022029
1446.76	0.023209
1456.41	0.035519
1466.05	0.037879
1475.7	0.020769
1485.34	0.008369
1494.99	0.004969
1504.63	0.004119
1514.28	0.003469
1523.92	0.002949
1533.57	0.002529
1543.21	0.002309
1552.86	0.002779
1562.5	0.004809
1572.15	0.007279
1581.79	0.009109
1591.44	0.007489
1601.08	0.003869
1610.73	0.002409
1620.37	0.002079
1630.01	0.002159
1639.66	0.002079
1649.3	0.001879
1658.95	0.001849
1668.59	0.002089
1678.24	0.002429
1687.88	0.002009
1697.53	0.001439
1707.17	0.0011309
1716.82	0.000935
1726.46	0.000702
1736.11	0.0008946
1745.75	0.0007552
1755.4	0.0006751
1765.04	0.0009683
1774.69	0.001379
1784.33	0.001849
1793.98	0.001239
1803.62	0.0006796
1813.27	0.0005734
1822.91	0.0008036
1832.55	0.0009091
1842.2	0.001829
1851.84	0.003279
1861.49	0.002139
1871.13	0.000722
1880.78	0.0005686
1890.42	0.0005073
1900.07	0.0007871
1909.71	0.001449
1919.36	0.003459
1929	0.002989
1938.65	0.0010129
1948.29	0.0006466
1957.94	0.0005632
1967.58	0.0004963
1977.23	0.0003259
1986.87	0.0006181
1996.52	0.000611
2006.16	0.0004797
2015.81	0.0006867
2025.45	0.0007187
2035.1	0.0008011
2044.74	0.0007847
2054.38	0.000622
2064.03	0.0004828
2073.67	0.0004294
2083.32	0.0004514
2092.96	0.0005347
2102.61	0.0005765
2112.25	0.0005787
2121.9	0.0004479
2131.54	0.0005256
2141.19	0.0006551
2150.83	0.0004233
2160.48	0.0005341
2170.12	0.0005506
2179.77	0.0005689
2189.41	0.0005296
2199.06	0.0004879
2208.7	0.000451
2218.35	0.0006253
2227.99	0.0006176
2237.64	0.00071
2247.28	0.0007581
2256.92	0.0004746
2266.57	0.0003
2276.21	0.0004655
2285.86	0.0005893
2295.5	0.000632
2305.15	0.0007029
2314.79	0.0006529
2324.44	0.0008165
2334.08	0.0011885
2343.73	0.0010206
2353.37	0.0007041
2363.02	0.0005136
2372.66	0.0006788
2382.31	0.000553
2391.95	0.0006894
2401.6	0.0007135
2411.24	0.0006385
2420.89	0.0007434
2430.53	0.0009845
2440.18	0.0010066
2449.82	0.0008954
2459.47	0.0008734
2469.11	0.0008306
2478.75	0.0007754
2488.4	0.0005825
2498.04	0.0008027
2507.69	0.0006961
2517.33	0.0008552
2526.98	0.0008987
2536.62	0.0008624
2546.27	0.0011355
2555.91	0.0009159
2565.56	0.0008066
2575.2	0.0008872
2584.85	0.0011086
2594.49	0.001219
2604.14	0.0010557
2613.78	0.001139
2623.43	0.001229
2633.07	0.001409
2642.72	0.001399
2652.36	0.0010823
2662.01	0.0008343
2671.65	0.0009945
2681.29	0.0009278
2690.94	0.0007393
2700.58	0.0010066
2710.23	0.0010485
2719.87	0.001289
2729.52	0.001609
2739.16	0.002219
2748.81	0.002019
2758.45	0.001789
2768.1	0.002169
2777.74	0.002449
2787.39	0.003049
2797.03	0.003369
2806.68	0.003419
2816.32	0.003899
2825.97	0.004479
2835.61	0.005559
2845.26	0.006819
2854.9	0.008679
2864.55	0.015069
2874.19	0.030859
2883.84	0.049389
2893.48	0.044859
2903.12	0.033079
2912.77	0.031579
2922.41	0.035579
2932.06	0.052299
2941.7	0.077209
2951.35	0.066639
2960.99	0.056939
2970.64	0.108319
2980.28	0.122779
2989.93	0.054799
2999.57	0.024579
3009.22	0.018559
3018.86	0.015399
3028.51	0.013319
3038.15	0.015339
3047.8	0.026059
3057.44	0.032609
3067.09	0.027689
3076.73	0.022129
3086.38	0.010959
3096.02	0.004879
3105.67	0.003829
3115.31	0.003489
3124.95	0.003299
3134.6	0.003469
3144.24	0.003539
3153.89	0.003829
3163.53	0.003319
3173.18	0.002409
3182.82	0.001799
3192.47	0.0011618
3202.11	0.001279
3211.76	0.001499
3221.4	0.0007004
3231.05	0.0009471
3240.69	0.0008966
3250.34	0.0009536
3259.98	0.0008982
3269.63	0.0006664
3279.27	0.0006957
3288.92	0.0007787
3298.56	0.000819
3308.21	0.0005823
3317.85	0.0004507
3327.49	0.0005115
3337.14	0.0004825
3346.78	0.0006521
3356.43	0.0006103
3366.07	0.0004224
3375.72	0.000299
3385.36	0.0007858
3395.01	0.0006954
3404.65	0.000446
3414.3	0.0003858
3423.94	0.0004672
3433.59	0.0004333
3443.23	0.0001886
3452.88	0.0005562
3462.52	0.0004164
3472.17	0.0004223
3481.81	0.0004264
3491.46	0.000457
3501.1	0.0003734
3510.75	0.0004495
3520.39	0.0004422
3530.04	0.0006631
3539.68	0.0005935
3549.32	0.0005274
3558.97	7.2e-05
3568.61	0.0003955
3578.26	0.0004218
3587.9	0.00024605
3597.55	0.0005243
3607.19	0.0005079
3616.84	0.0003082
3626.48	0.0003715
3636.13	0.00019211
3645.77	0.0003134
3655.42	0.0002853
3665.06	0.0003982
3674.71	0.0005038
3684.35	0.0003506
3694	0.0003279
3703.64	0.0004062
3713.29	0.0003361
3722.93	0.0002434
3732.58	0.000418
3742.22	0.0006337
3751.86	0.0007864
3761.51	0.0010217
3771.15	0.0003705
3780.8	0.0005393
3790.44	0.000718
3800.09	0.0006925
3809.73	0.0007153
3819.38	0.0007578
3829.02	0.0006064
3838.67	0.0005761
3848.31	0.0004499
3857.96	0.0005032
3867.6	0.0003428
3877.25	0.0003375
3886.89	0.000208731
3896.54	0.0006342
3906.18	0.000528
3915.83	0.0008357
3925.47	0.0006054
3935.12	0.0007881
3944.76	0.0009063
3954.41	0.0009062
3964.05	0.0007144
3973.69	0.0004954
3983.34	0.001259
3992.98	0.0010469
