Infrared Spectrum: O-NITRO CUMENE
Formula: C9 H11 N O2
CAS: 6526-72-3
State: SOLUTION (10% CCl4 FOR 2.5-7.5, 10% CS2 FOR 7.5-16 MICRON)
Class: COBLENTZ
Instrument: Not specified, most likely a prism, grating, or hybrid spectrometer.
Sampling: TRANSMISSION
Path length: 0.01 CM, 0.01 CM
Resolution: 4
Origin: DOW CHEMICAL COMPANY
MICROMETERS	TRANSMITTANCE
2.016	0.85
2.05511	0.85
2.09423	0.85
2.13334	0.849
2.17245	0.852
2.21157	0.849
2.25068	0.845
2.28979	0.847
2.32891	0.85
2.36802	0.849
2.40713	0.853
2.44625	0.863
2.48536	0.866
2.52447	0.87
2.56359	0.875
2.6027	0.875
2.64181	0.876
2.68093	0.883
2.72004	0.883
2.75915	0.886
2.79827	0.891
2.83738	0.892
2.87649	0.889
2.91561	0.875
2.95472	0.881
2.99383	0.889
3.03295	0.891
3.07206	0.884
3.11117	0.87
3.15029	0.871
3.1894	0.829
3.22851	0.759
3.26762	0.769
3.30674	0.678
3.34585	0.258
3.38496	0.457
3.42408	0.577
3.46319	0.665
3.5023	0.845
3.54142	0.873
3.58053	0.891
3.61964	0.892
3.65876	0.894
3.69787	0.897
3.73698	0.897
3.7761	0.902
3.81521	0.9
3.85432	0.9
3.89344	0.909
3.93255	0.918
3.97166	0.917
4.01078	0.917
4.04989	0.918
4.089	0.918
4.12812	0.918
4.16723	0.902
4.20634	0.9
4.24546	0.899
4.28457	0.904
4.32368	0.905
4.3628	0.913
4.40191	0.92
4.44102	0.931
4.48014	0.941
4.51925	0.941
4.55836	0.943
4.59748	0.944
4.63659	0.944
4.6757	0.949
4.71482	0.949
4.75393	0.949
4.79304	0.951
4.83216	0.949
4.87127	0.946
4.91038	0.944
4.9495	0.943
4.98861	0.941
5.02772	0.933
5.06684	0.899
5.10595	0.912
5.14506	0.894
5.18418	0.913
5.22329	0.92
5.2624	0.922
5.30152	0.935
5.34063	0.928
5.37974	0.904
5.41886	0.904
5.45797	0.896
5.49708	0.9
5.53619	0.926
5.57531	0.939
5.61442	0.941
5.65353	0.933
5.69265	0.909
5.73176	0.891
5.77087	0.891
5.80999	0.887
5.8491	0.85
5.88821	0.834
5.92733	0.883
5.96644	0.891
6.00555	0.86
6.04467	0.844
6.08378	0.826
6.12289	0.751
6.16201	0.538
6.20112	0.462
6.24023	0.538
6.27935	0.41
6.31846	0.365
6.35757	0.37
6.39669	0.241
6.4358	0.134
6.47491	0.05
6.51403	0.029
6.55314	0.047
6.59225	0.155
6.63137	0.413
6.67048	0.456
6.70959	0.371
6.74871	0.433
6.78782	0.42
6.82693	0.42
6.86605	0.464
6.90516	0.529
6.94427	0.702
6.98339	0.733
7.0225	0.73
7.06161	0.732
7.10073	0.737
7.13984	0.649
7.17895	0.5
7.21807	0.493
7.25718	0.251
7.29629	0.058
7.33541	0.025
7.37452	0.05
7.41363	0.176
7.45275	0.449
7.49186	0.582
7.53097	0.65
7.57009	0.663
7.6092	0.667
7.64831	0.582
7.68743	0.542
7.72654	0.665
7.76565	0.784
7.80476	0.8
7.84388	0.79
7.88299	0.845
7.9221	0.873
7.96122	0.886
8.00033	0.896
8.03944	0.894
8.07856	0.892
8.11767	0.891
8.15678	0.884
8.1959	0.824
8.23501	0.751
8.27412	0.759
8.31324	0.853
8.35235	0.879
8.39146	0.892
8.43058	0.892
8.46969	0.866
8.5088	0.826
8.54792	0.795
8.58703	0.798
8.62614	0.814
8.66526	0.844
8.70437	0.863
8.74348	0.865
8.7826	0.845
8.82171	0.84
8.86082	0.863
8.89994	0.873
8.93905	0.875
8.97816	0.858
9.01728	0.814
9.05639	0.808
9.0955	0.836
9.13462	0.852
9.17373	0.855
9.21284	0.86
9.25196	0.806
9.29107	0.649
9.33018	0.571
9.3693	0.719
9.40841	0.847
9.44752	0.866
9.48664	0.875
9.52575	0.875
9.56486	0.86
9.60398	0.803
9.64309	0.66
9.6822	0.54
9.72132	0.689
9.76043	0.862
9.79954	0.896
9.83866	0.904
9.87777	0.915
9.91688	0.92
9.956	0.923
9.99511	0.928
10.0342	0.931
10.0733	0.93
10.1124	0.922
10.1516	0.909
10.1907	0.904
10.2298	0.905
10.2689	0.912
10.308	0.909
10.3471	0.902
10.3862	0.896
10.4254	0.884
10.4645	0.84
10.5036	0.784
10.5427	0.782
10.5818	0.852
10.6209	0.886
10.66	0.899
10.6991	0.899
10.7383	0.889
10.7774	0.876
10.8165	0.878
10.8556	0.9
10.8947	0.9
10.9338	0.902
10.9729	0.904
11.0121	0.904
11.0512	0.891
11.0903	0.883
11.1294	0.85
11.1685	0.814
11.2076	0.808
11.2467	0.821
11.2858	0.821
11.325	0.805
11.3641	0.785
11.4032	0.759
11.4423	0.735
11.4814	0.711
11.5205	0.699
11.5596	0.686
11.5988	0.647
11.6379	0.587
11.677	0.448
11.7161	0.212
11.7552	0.17
11.7943	0.464
11.8334	0.685
11.8725	0.777
11.9117	0.806
11.9508	0.837
11.9899	0.852
12.029	0.862
12.0681	0.87
12.1072	0.875
12.1463	0.875
12.1855	0.875
12.2246	0.866
12.2637	0.852
12.3028	0.844
12.3419	0.837
12.381	0.832
12.4201	0.832
12.4592	0.834
12.4984	0.834
12.5375	0.821
12.5766	0.793
12.6157	0.753
12.6548	0.675
12.6939	0.551
12.733	0.368
12.7722	0.228
12.8113	0.243
12.8504	0.358
12.8895	0.511
12.9286	0.613
12.9677	0.663
13.0068	0.688
13.0459	0.686
13.0851	0.662
13.1242	0.616
13.1633	0.548
13.2024	0.428
13.2415	0.318
13.2806	0.181
13.3197	0.082
13.3589	0.053
13.398	0.089
13.4371	0.199
13.4762	0.298
13.5153	0.358
13.5544	0.413
13.5935	0.487
13.6326	0.558
13.6718	0.612
13.7109	0.636
13.75	0.639
13.7891	0.633
13.8282	0.615
13.8673	0.577
13.9064	0.538
13.9455	0.48
13.9847	0.428
14.0238	0.368
14.0629	0.339
14.102	0.345
14.1411	0.379
14.1802	0.426
14.2193	0.472
14.2585	0.512
14.2976	0.55
14.3367	0.577
14.3758	0.597
14.4149	0.6
14.454	0.608
14.4931	0.608
14.5322	0.607
14.5714	0.6
14.6105	0.599
14.6496	0.597
14.6887	0.59
14.7278	0.579
14.7669	0.569
14.806	0.555
14.8452	0.548
14.8843	0.537
14.9234	0.498
14.9625	0.417
15.0016	0.318
15.0407	0.277
15.0798	0.277
15.1189	0.308
15.1581	0.352
15.1972	0.389
15.2363	0.415
15.2754	0.428
15.3145	0.435
15.3536	0.444
15.3927	0.446
15.4319	0.448
15.471	0.449
15.5101	0.449
15.5492	0.446
15.5883	0.441
15.6274	0.441
15.6665	0.443
15.7056	0.438
15.7448	0.431
15.7839	0.426
15.823	0.426
15.8621	0.426
