Infrared Spectrum: 2,6-Difluorophenyl isothiocyanate
Formula: C 7 H 3 F 2 N S
CAS: 65295-69-4
State: gas
Origin: EPA-IR VAPOR PHASE LIBRARY
1/CM	ABSORBANCE
549.8	0.01101
559.445	0.02097
569.09	0.02872
578.734	0.01676
588.379	0.00954
598.024	0.009
607.669	0.00695
617.313	0.00487
626.958	0.0054
636.603	0.00566
646.248	0.00418
655.893	0.00391
665.537	0.00442
675.182	0.00431
684.827	0.00409
694.472	0.01097
704.116	0.02366
713.761	0.01996
723.406	0.00851
733.051	0.00436
742.695	0.00897
752.34	0.01709
761.985	0.0222
771.63	0.03783
781.275	0.0429
790.919	0.01825
800.564	0.00406
810.209	0.0025965
819.854	0.001728
829.498	0.0022128
839.143	0.0019628
848.788	0.0022085
858.433	0.0020154
868.078	0.001947
877.722	0.0020132
887.367	0.0025169
897.012	0.00328
906.657	0.00442
916.301	0.0052
925.946	0.00796
935.591	0.0178
945.236	0.03475
954.88	0.03112
964.525	0.01618
974.17	0.01078
983.815	0.01167
993.46	0.01765
1003.1	0.04631
1012.75	0.10744
1022.39	0.10711
1032.04	0.03361
1041.68	0.00951
1051.33	0.00601
1060.97	0.00486
1070.62	0.0025002
1080.26	0.0036
1089.91	0.00059
1099.55	0.0027263
1109.2	0.003033
1118.84	0.0026917
1128.49	0.0023595
1138.13	0.0025261
1147.78	0.001627
1157.42	0.0026994
1167.07	0.001815
1176.71	0.0021636
1186.36	0.001917
1196	0.001135
1205.64	0.00214864
1215.29	0.0020317
1224.93	0.00459
1234.58	0.01604
1244.22	0.04133
1253.87	0.04159
1263.51	0.01478
1273.16	0.00656
1282.8	0.00857
1292.45	0.01309
1302.09	0.01415
1311.74	0.01171
1321.38	0.00687
1331.03	0.00521
1340.67	0.00466
1350.32	0.00438
1359.96	0.0035
1369.61	0.0023305
1379.25	0.0022462
1388.9	0.0026337
1398.54	0.00311
1408.18	0.0029719
1417.83	0.00328
1427.47	0.00363
1437.12	0.00532
1446.76	0.0083
1456.41	0.01615
1466.05	0.04663
1475.7	0.08885
1485.34	0.08435
1494.99	0.05012
1504.63	0.03279
1514.28	0.01513
1523.92	0.01389
1533.57	0.01298
1543.21	0.01399
1552.86	0.01749
1562.5	0.02073
1572.15	0.02303
1581.79	0.02565
1591.44	0.03189
1601.08	0.03308
1610.73	0.02021
1620.37	0.00938
1630.01	0.00588
1639.66	0.00446
1649.3	0.00442
1658.95	0.00456
1668.59	0.00375
1678.24	0.002845
1687.88	0.0029761
1697.53	0.00308
1707.17	0.0029794
1716.82	0.00333
1726.46	0.00418
1736.11	0.0047
1745.75	0.00531
1755.4	0.00439
1765.04	0.00446
1774.69	0.00508
1784.33	0.00501
1793.98	0.00463
1803.62	0.00459
1813.27	0.00516
1822.91	0.00589
1832.55	0.00611
1842.2	0.00618
1851.84	0.007
1861.49	0.00793
1871.13	0.00963
1880.78	0.01298
1890.42	0.01877
1900.07	0.02412
1909.71	0.02389
1919.36	0.02219
1929	0.02663
1938.65	0.03491
1948.29	0.04513
1957.94	0.05792
1967.58	0.07687
1977.23	0.10946
1986.87	0.15344
1996.52	0.19235
2006.16	0.22393
2015.81	0.2822
2025.45	0.43172
2035.1	0.59695
2044.74	0.49618
2054.38	0.28849
2064.03	0.17103
2073.67	0.13827
2083.32	0.16215
2092.96	0.21587
2102.61	0.24782
2112.25	0.21189
2121.9	0.14385
2131.54	0.08837
2141.19	0.06002
2150.83	0.05075
2160.48	0.04862
2170.12	0.04238
2179.77	0.03369
2189.41	0.02774
2199.06	0.0256
2208.7	0.02565
2218.35	0.02003
2227.99	0.01274
2237.64	0.00945
2247.28	0.00814
2256.92	0.00738
2266.57	0.00626
2276.21	0.00555
2285.86	0.0055
2295.5	0.00554
2305.15	0.00568
2314.79	0.00524
2324.44	0.00524
2334.08	0.00522
2343.73	0.00543
2353.37	0.00576
2363.02	0.00516
2372.66	0.00467
2382.31	0.00421
2391.95	0.00438
2401.6	0.00425
2411.24	0.0044
2420.89	0.00439
2430.53	0.00437
2440.18	0.00446
2449.82	0.00406
2459.47	0.00401
2469.11	0.00432
2478.75	0.0044
2488.4	0.00557
2498.04	0.00622
2507.69	0.00767
2517.33	0.00884
2526.98	0.00962
2536.62	0.0097
2546.27	0.00913
2555.91	0.00708
2565.56	0.00558
2575.2	0.00446
2584.85	0.00447
2594.49	0.00453
2604.14	0.00477
2613.78	0.00418
2623.43	0.00468
2633.07	0.00477
2642.72	0.00463
2652.36	0.00534
2662.01	0.0065
2671.65	0.00852
2681.29	0.00939
2690.94	0.00756
2700.58	0.00511
2710.23	0.00441
2719.87	0.00458
2729.52	0.00461
2739.16	0.00563
2748.81	0.00515
2758.45	0.00506
2768.1	0.00467
2777.74	0.00464
2787.39	0.00491
2797.03	0.00478
2806.68	0.00433
2816.32	0.0035
2825.97	0.0033
2835.61	0.003047
2845.26	0.0028226
2854.9	0.00332
2864.55	0.00335
2874.19	0.0028142
2883.84	0.002963
2893.48	0.0026485
2903.12	0.002942
2912.77	0.0028355
2922.41	0.00308
2932.06	0.0027463
2941.7	0.00317
2951.35	0.0029404
2960.99	0.00406
2970.64	0.00435
2980.28	0.00466
2989.93	0.00428
2999.57	0.00368
3009.22	0.002984
3018.86	0.0030109
3028.51	0.0030526
3038.15	0.00332
3047.8	0.00387
3057.44	0.0041
3067.09	0.00398
3076.73	0.00428
3086.38	0.00492
3096.02	0.00448
3105.67	0.00365
3115.31	0.0026281
3124.95	0.0024136
3134.6	0.0023732
3144.24	0.0020364
3153.89	0.00208855
3163.53	0.001845
3173.18	0.0021876
3182.82	0.001264
3192.47	0.0020319
3202.11	0.0019621
3211.76	0.001724
3221.4	0.0021885
3231.05	0.001763
3240.69	0.001715
3250.34	0.001548
3259.98	0.00212445
3269.63	0.0023167
3279.27	0.0019898
3288.92	0.001863
3298.56	0.001932
3308.21	0.0020345
3317.85	0.0020214
3327.49	0.001569
3337.14	0.001403
3346.78	0.0022861
3356.43	0.001605
3366.07	0.001828
3375.72	0.0024128
3385.36	0.0022511
3395.01	0.001385
3404.65	0.00181
3414.3	0.001842
3423.94	0.001832
3433.59	0.002067
3443.23	0.001727
3452.88	0.001938
3462.52	0.0023065
3472.17	0.001904
3481.81	0.001642
3491.46	0.001757
3501.1	0.001947
3510.75	0.00183
3520.39	0.001628
3530.04	0.001603
3539.68	0.0019802
3549.32	0.001926
3558.97	0.00207216
3568.61	0.001434
3578.26	0.00166
3587.9	0.001844
3597.55	0.001877
3607.19	0.001922
3616.84	0.001861
3626.48	0.0019769
3636.13	0.0020024
3645.77	0.001646
3655.42	0.0020297
3665.06	0.0026398
3674.71	0.0024366
3684.35	0.00205432
3694	0.001723
3703.64	0.001516
3713.29	0.001799
3722.93	0.001749
3732.58	0.00186
3742.22	0.0020471
3751.86	0.0021892
3761.51	0.0024054
3771.15	0.0022051
3780.8	0.001943
3790.44	0.0026231
3800.09	0.00210272
3809.73	0.002411
3819.38	0.001489
3829.02	0.0020378
3838.67	0.00213721
3848.31	0.0025025
3857.96	0.0022503
3867.6	0.0020476
3877.25	0.0022115
3886.89	0.0028187
3896.54	0.0026592
3906.18	0.0023606
3915.83	0.0028144
3925.47	0.001942
3935.12	0.0024799
3944.76	0.0025931
3954.41	0.0027499
3964.05	0.00327
3973.69	0.00356
3983.34	0.00357
3992.98	0.00349
