Infrared Spectrum: 2,3,4,5,6-Pentafluorophenylacetonitrile
Formula: C 8 H 2 F 5 N
CAS: 653-30-5
State: gas
Origin: EPA-IR VAPOR PHASE LIBRARY
1/CM	ABSORBANCE
549.9	0.001629
559.547	0.001773
569.193	0.00274
578.84	0.0023078
588.486	0.001617
598.133	0.0029081
607.779	0.00539
617.426	0.0031
627.072	0.0021742
636.719	0.00206207
646.365	0.002191
656.012	0.00306
665.658	0.00508
675.305	0.00726
684.951	0.00592
694.598	0.0025951
704.245	0.001699
713.891	0.001538
723.538	0.001756
733.184	0.00318
742.831	0.00431
752.477	0.002809
762.124	0.002384
771.77	0.0024027
781.417	0.001842
791.063	0.001369
800.71	0.001229
810.356	0.001237
820.003	0.001393
829.649	0.001435
839.296	0.001445
848.943	0.001665
858.589	0.00186
868.236	0.0022367
877.882	0.00343
887.529	0.00681
897.175	0.0228
906.822	0.03444
916.468	0.02204
926.115	0.01157
935.761	0.00653
945.408	0.00523
955.054	0.00605
964.701	0.01303
974.347	0.04234
983.994	0.04946
993.64	0.03142
1003.29	0.05899
1012.93	0.09715
1022.58	0.09285
1032.23	0.03774
1041.87	0.01326
1051.52	0.00886
1061.17	0.00737
1070.81	0.00594
1080.46	0.00495
1090.11	0.00517
1099.75	0.00655
1109.4	0.01065
1119.05	0.03906
1128.69	0.06991
1138.34	0.02943
1147.99	0.00957
1157.63	0.00449
1167.28	0.0028095
1176.92	0.0026627
1186.57	0.0029324
1196.22	0.00339
1205.86	0.00563
1215.51	0.0083
1225.16	0.00607
1234.8	0.00409
1244.45	0.00415
1254.1	0.005
1263.74	0.00676
1273.39	0.0073
1283.04	0.00607
1292.68	0.00664
1302.33	0.00907
1311.98	0.00851
1321.62	0.01349
1331.27	0.01962
1340.92	0.01066
1350.56	0.00589
1360.21	0.00493
1369.86	0.00446
1379.5	0.00476
1389.15	0.00545
1398.79	0.00569
1408.44	0.00556
1418.09	0.00732
1427.73	0.00887
1437.38	0.01341
1447.03	0.01215
1456.67	0.00681
1466.32	0.00771
1475.97	0.01235
1485.61	0.03382
1495.26	0.11873
1504.91	0.2606
1514.55	0.29195
1524.2	0.20306
1533.85	0.06168
1543.49	0.0195
1553.14	0.01048
1562.79	0.00704
1572.43	0.00635
1582.08	0.00595
1591.73	0.00525
1601.37	0.00418
1611.02	0.00399
1620.67	0.00474
1630.31	0.00584
1639.96	0.00898
1649.6	0.01649
1659.25	0.01315
1668.9	0.004
1678.54	0.002108
1688.19	0.00198
1697.84	0.0021655
1707.48	0.0021518
1717.13	0.0024926
1726.78	0.0027673
1736.42	0.0028964
1746.07	0.002911
1755.72	0.0027886
1765.36	0.0022863
1775.01	0.001859
1784.66	0.001695
1794.3	0.00166
1803.95	0.001598
1813.6	0.001565
1823.24	0.001614
1832.89	0.001672
1842.54	0.001782
1852.18	0.001469
1861.83	0.001373
1871.47	0.001395
1881.12	0.001395
1890.77	0.001451
1900.41	0.001458
1910.06	0.001419
1919.71	0.001419
1929.35	0.001351
1939	0.00132
1948.65	0.001273
1958.29	0.001298
1967.94	0.001211
1977.59	0.001261
1987.23	0.001238
1996.88	0.001352
2006.53	0.001445
2016.17	0.001518
2025.82	0.001472
2035.47	0.001336
2045.11	0.001251
2054.76	0.001324
2064.41	0.001589
2074.05	0.00186
2083.7	0.0020506
2093.35	0.0018853
2102.99	0.001544
2112.64	0.001542
2122.28	0.001633
2131.93	0.001641
2141.58	0.001566
2151.22	0.001627
2160.87	0.001616
2170.52	0.00149
2180.16	0.001392
2189.81	0.001288
2199.46	0.001198
2209.1	0.001279
2218.75	0.001358
2228.4	0.001415
2238.04	0.001448
2247.69	0.001532
2257.34	0.00166
2266.98	0.001457
2276.63	0.001236
2286.28	0.001212
2295.92	0.001214
2305.57	0.00124
2315.22	0.001226
2324.86	0.001359
2334.51	0.001747
2344.16	0.001764
2353.8	0.001633
2363.45	0.001502
2373.09	0.001371
2382.74	0.00139
2392.39	0.001555
2402.03	0.001775
2411.68	0.00201251
2421.33	0.0023557
2430.97	0.002672
2440.62	0.0027224
2450.27	0.0025733
2459.91	0.0021803
2469.56	0.00201512
2479.21	0.0019408
2488.85	0.001794
2498.5	0.001674
2508.15	0.001509
2517.79	0.001374
2527.44	0.001349
2537.09	0.001392
2546.73	0.001278
2556.38	0.00128
2566.03	0.001307
2575.67	0.001277
2585.32	0.001371
2594.96	0.001412
2604.61	0.001378
2614.26	0.001422
2623.9	0.001729
2633.55	0.0023128
2643.2	0.0028414
2652.84	0.0027324
2662.49	0.0024376
2672.14	0.001796
2681.78	0.001246
2691.43	0.001036
2701.08	0.00096
2710.72	0.001023
2720.37	0.001074
2730.02	0.001042
2739.66	0.001157
2749.31	0.001103
2758.96	0.001049
2768.6	0.00095
2778.25	0.001023
2787.9	0.00086
2797.54	0.00082
2807.19	0.0007
2816.84	0.0007
2826.48	0.00078
2836.13	0.0007
2845.77	0.0007
2855.42	0.00072
2865.07	0.00066
2874.71	0.00063
2884.36	0.00069
2894.01	0.00054
2903.65	0.00064
2913.3	0.00076
2922.95	0.00076
2932.59	0.001108
2942.24	0.001517
2951.89	0.001725
2961.53	0.001415
2971.18	0.001158
2980.83	0.0008
2990.47	0.00085
3000.12	0.00066
3009.77	0.00037
3019.41	0.00037
3029.06	0.00044
3038.71	0.00041
3048.35	0.00036
3058	0.00013
3067.64	0.00018
3077.29	0.00014
3086.94	0.00028
3096.58	0.00033
3106.23	0.00015
3115.88	0.00012
3125.52	0.00034
3135.17	0.00033
3144.82	0.0004
3154.46	0.00036
3164.11	0.00042
3173.76	0.00035
3183.4	0.00031
3193.05	0.00018
3202.7	0.00024
3212.34	0.00019
3221.99	0.00016
3231.64	0.00022
3241.28	0.0003
3250.93	0.00034
3260.58	0.00025
3270.22	0.00018
3279.87	0.00019
3289.52	0.00034
3299.16	0.00033
3308.81	0.0002
3318.45	0.00034
3328.1	0.00034
3337.75	0.0004
3347.39	0.00056
3357.04	0.00021
3366.69	0.0003
3376.33	0.00022
3385.98	0.0003
3395.63	0.00042
3405.27	0.00047
3414.92	0.00035
3424.57	0.00044
3434.21	0.00042
3443.86	0.0006
3453.51	0.00051
3463.15	0.00051
3472.8	0.00052
3482.45	0.00044
3492.09	0.00048
3501.74	0.0006
3511.39	0.00079
3521.03	0.00063
3530.68	0.00074
3540.33	0.00069
3549.97	0.00066
3559.62	0.00068
3569.26	0.00083
3578.91	0.0008
3588.56	0.00075
3598.2	0.0007
3607.85	0.00084
3617.5	0.00085
3627.14	0.00094
3636.79	0.00084
3646.44	0.00088
3656.08	0.00089
3665.73	0.00082
3675.38	0.00089
3685.02	0.00102
3694.67	0.00089
3704.32	0.0009
3713.96	0.001046
3723.61	0.001006
3733.26	0.001031
3742.9	0.001025
3752.55	0.001001
3762.2	0.0009
3771.84	0.00098
3781.49	0.00092
3791.13	0.00098
3800.78	0.000994
3810.43	0.001019
3820.07	0.001056
3829.72	0.00095
3839.37	0.001082
3849.01	0.00101
3858.66	0.001031
3868.31	0.001009
3877.95	0.00097
3887.6	0.001037
3897.25	0.00097
3906.89	0.00095
3916.54	0.001053
3926.19	0.001065
3935.83	0.001007
3945.48	0.001068
3955.13	0.001116
3964.77	0.001044
3974.42	0.001047
3984.07	0.00093
3993.71	0.001041
