Infrared Spectrum: Pentafluorophenylacetic acid
Formula: C 8 H 3 F 5 O 2
CAS: 653-21-4
State: gas
Origin: EPA-IR VAPOR PHASE LIBRARY
1/CM	ABSORBANCE
549.8	0.005163
559.445	0.008423
569.09	0.021923
578.734	0.028883
588.379	0.020213
598.024	0.029333
607.669	0.041853
617.313	0.056183
626.958	0.039593
636.603	0.019613
646.248	0.014323
655.893	0.012363
665.537	0.010023
675.182	0.007393
684.827	0.005943
694.472	0.005703
704.116	0.003653
713.761	0.002163
723.406	0.002483
733.051	0.003563
742.695	0.007043
752.34	0.006653
761.985	0.003903
771.63	0.002663
781.275	0.001863
790.919	0.001193
800.564	0.0010352
810.209	0.001363
819.854	0.001333
829.498	0.001543
839.143	0.001803
848.788	0.002603
858.433	0.002903
868.078	0.002923
877.722	0.002983
887.367	0.003693
897.012	0.006993
906.657	0.020663
916.301	0.029553
925.946	0.013743
935.591	0.006143
945.236	0.005773
954.88	0.008533
964.525	0.026693
974.17	0.059923
983.815	0.043903
993.46	0.031233
1003.1	0.058693
1012.75	0.093253
1022.39	0.071773
1032.04	0.037093
1041.68	0.025023
1051.33	0.015513
1060.97	0.012823
1070.62	0.013993
1080.26	0.019293
1089.91	0.026673
1099.55	0.040133
1109.2	0.070753
1118.84	0.154463
1128.49	0.211483
1138.13	0.102573
1147.78	0.053433
1157.42	0.039543
1167.07	0.030723
1176.71	0.020973
1186.36	0.017023
1196	0.015433
1205.64	0.015023
1215.29	0.013633
1224.93	0.010363
1234.58	0.009083
1244.22	0.008943
1253.87	0.009553
1263.51	0.010443
1273.16	0.010953
1282.8	0.011763
1292.45	0.012513
1302.09	0.014403
1311.74	0.023743
1321.38	0.027853
1331.03	0.016713
1340.67	0.014843
1350.32	0.017143
1359.96	0.020343
1369.61	0.026843
1379.25	0.022103
1388.9	0.010743
1398.54	0.009243
1408.18	0.009283
1417.83	0.010133
1427.47	0.010853
1437.12	0.010593
1446.76	0.008573
1456.41	0.006753
1466.05	0.008713
1475.7	0.016163
1485.34	0.044013
1494.99	0.137133
1504.63	0.275083
1514.28	0.285663
1523.92	0.202443
1533.57	0.048383
1543.21	0.015473
1552.86	0.010863
1562.5	0.008063
1572.15	0.006673
1581.79	0.005973
1591.44	0.005533
1601.08	0.004343
1610.73	0.003983
1620.37	0.004233
1630.01	0.004813
1639.66	0.007293
1649.3	0.015013
1658.95	0.013873
1668.59	0.004343
1678.24	0.002513
1687.88	0.002593
1697.53	0.003563
1707.17	0.004783
1716.82	0.006383
1726.46	0.009293
1736.11	0.014333
1745.75	0.021283
1755.4	0.025203
1765.04	0.031483
1774.69	0.061273
1784.33	0.160593
1793.98	0.134833
1803.62	0.041503
1813.27	0.026023
1822.91	0.019003
1832.55	0.012513
1842.2	0.007213
1851.84	0.004543
1861.49	0.003183
1871.13	0.002603
1880.78	0.002153
1890.42	0.001823
1900.07	0.001553
1909.71	0.001253
1919.36	0.001123
1929	0.0010852
1938.65	0.0008416
1948.29	0.0006603
1957.94	0.0006649
1967.58	0.0007355
1977.23	0.0008833
1986.87	0.0009944
1996.52	0.0010301
2006.16	0.0008983
2015.81	0.0007614
2025.45	0.0007675
2035.1	0.0006259
2044.74	0.0007293
2054.38	0.0007229
2064.03	0.0008817
2073.67	0.001153
2083.32	0.001283
2092.96	0.001143
2102.61	0.0008843
2112.25	0.0008068
2121.9	0.0008579
2131.54	0.0009644
2141.19	0.0010392
2150.83	0.0010053
2160.48	0.0008529
2170.12	0.0006806
2179.77	0.0006734
2189.41	0.0005695
2199.06	0.0004924
2208.7	0.0006241
2218.35	0.0008299
2227.99	0.0010647
2237.64	0.0010867
2247.28	0.0010886
2256.92	0.0009212
2266.57	0.0007874
2276.21	0.0006858
2285.86	0.000521
2295.5	0.0005405
2305.15	0.0005241
2314.79	0.0005074
2324.44	0.00065
2334.08	0.0007089
2343.73	0.0009703
2353.37	0.0010866
2363.02	0.0009956
2372.66	0.0008148
2382.31	0.0008035
2391.95	0.0010488
2401.6	0.001243
2411.24	0.001413
2420.89	0.001713
2430.53	0.001833
2440.18	0.002133
2449.82	0.002023
2459.47	0.001873
2469.11	0.001443
2478.75	0.001233
2488.4	0.0010701
2498.04	0.0009646
2507.69	0.000726
2517.33	0.0003908
2526.98	0.0005707
2536.62	0.0004558
2546.27	0.0004198
2555.91	0.0004748
2565.56	0.0005657
2575.2	0.0003745
2584.85	0.000417
2594.49	0.0004847
2604.14	0.0006156
2613.78	0.0007507
2623.43	0.001173
2633.07	0.001753
2642.72	0.002313
2652.36	0.002263
2662.01	0.001563
2671.65	0.0008493
2681.29	0.0004703
2690.94	0.0003585
2700.58	0.0004912
2710.23	0.0003033
2719.87	0.0003723
2729.52	0.0003111
2739.16	0.0002792
2748.81	0.00017567
2758.45	0.0002605
2768.1	0.0002393
2777.74	0.0004312
2787.39	0.0003226
2797.03	0.0003459
2806.68	0.0003405
2816.32	0.00018487
2825.97	0.00021361
2835.61	0.00020991
2845.26	0.0003366
2854.9	0.0002714
2864.55	0.00020125
2874.19	0.000235
2883.84	0.0002564
2893.48	0.0003803
2903.12	0.0006048
2912.77	0.0008164
2922.41	0.0010975
2932.06	0.001523
2941.7	0.002143
2951.35	0.003023
2960.99	0.002973
2970.64	0.001883
2980.28	0.0009702
2989.93	0.0005002
2999.57	0.0005234
3009.22	0.0005848
3018.86	0.0006358
3028.51	0.0005166
3038.15	0.0004155
3047.8	0.0004036
3057.44	0.0003521
3067.09	0.000327
3076.73	0.000388
3086.38	0.0003694
3096.02	0.0002872
3105.67	0.0002853
3115.31	0.00014509
3124.95	0.0002273
3134.6	0.0002487
3144.24	0.0003325
3153.89	0.0003133
3163.53	0.0002404
3173.18	0.0003426
3182.82	0.00015261
3192.47	0.0002352
3202.11	0.000125204
3211.76	0.00016026
3221.4	0.00011713
3231.05	0.00011405
3240.69	0.0002681
3250.34	0.0003159
3259.98	0.0002623
3269.63	7.43e-05
3279.27	0.00017936
3288.92	0.00013994
3298.56	4.74e-05
3308.21	0.000131542
3317.85	0.0003006
3327.49	0.00011526
3337.14	0.00021424
3346.78	0.0002671
3356.43	0.0002463
3366.07	0.0002413
3375.72	0.0003679
3385.36	0.00014507
3395.01	0.0002084
3404.65	0.0003434
3414.3	9.82e-05
3423.94	9.84e-05
3433.59	0.0002937
3443.23	0.00019448
3452.88	0.0002519
3462.52	0.000387
3472.17	0.0004121
3481.81	0.0004909
3491.46	0.0007486
3501.1	0.0008311
3510.75	0.0008828
3520.39	0.001393
3530.04	0.002053
3539.68	0.002973
3549.32	0.004383
3558.97	0.008733
3568.61	0.040723
3578.26	0.069783
3587.9	0.018043
3597.55	0.004703
3607.19	0.003433
3616.84	0.002423
3626.48	0.001693
3636.13	0.001303
3645.77	0.0008252
3655.42	0.0005554
3665.06	0.0004295
3674.71	0.0003833
3684.35	0.0004347
3694	0.000392
3703.64	0.0004595
3713.29	8.8e-05
3722.93	0.0004931
3732.58	0.0002714
3742.22	0.00021664
3751.86	0.0003312
3761.51	0.0003285
3771.15	0.0004092
3780.8	0.0002699
3790.44	0.0004296
3800.09	0.0003772
3809.73	0.0004325
3819.38	0.0003322
3829.02	0.000364
3838.67	0.0004702
3848.31	0.0004063
3857.96	0.00052
3867.6	0.00014306
3877.25	0.00015109
3886.89	0.0002327
3896.54	0.0002712
3906.18	0.0004571
3915.83	0.0004363
3925.47	0.0003383
3935.12	0.0003957
3944.76	0.0004785
3954.41	0.0003093
3964.05	0.0003836
3973.69	0.00019815
3983.34	0.0004767
3992.98	0.0006339
