Infrared Spectrum: Pentafluorobenzyl chloride
Formula: C 7 H 2 Cl F 5
CAS: 653-35-0
State: gas
Origin: EPA-IR VAPOR PHASE LIBRARY
1/CM	ABSORBANCE
549.8	0.004423
559.445	0.010193
569.09	0.005163
578.734	0.0010612
588.379	0.0012621
598.024	0.005313
607.669	0.003223
617.313	0.002023
626.958	0.003183
636.603	0.008723
646.248	0.031193
655.893	0.032093
665.537	0.009403
675.182	0.005973
684.827	0.008063
694.472	0.013753
704.116	0.026073
713.761	0.036053
723.406	0.012273
733.051	0.004643
742.695	0.009563
752.34	0.018713
761.985	0.016313
771.63	0.011223
781.275	0.009573
790.919	0.005473
800.564	0.002543
810.209	0.001653
819.854	0.001933
829.498	0.001793
839.143	0.001383
848.788	0.001403
858.433	0.001843
868.078	0.002103
877.722	0.003613
887.367	0.012553
897.012	0.042843
906.657	0.030213
916.301	0.005483
925.946	0.002883
935.591	0.003393
945.236	0.007053
954.88	0.024973
964.525	0.085183
974.17	0.082753
983.815	0.035173
993.46	0.066813
1003.1	0.215443
1012.75	0.211013
1022.39	0.056483
1032.04	0.033023
1041.68	0.037123
1051.33	0.024043
1060.97	0.009023
1070.62	0.004973
1080.26	0.003813
1089.91	0.003873
1099.55	0.005953
1109.2	0.011993
1118.84	0.042123
1128.49	0.146693
1138.13	0.146533
1147.78	0.035393
1157.42	0.010763
1167.07	0.007433
1176.71	0.014153
1186.36	0.021403
1196	0.013263
1205.64	0.005803
1215.29	0.004683
1224.93	0.005853
1234.58	0.005633
1244.22	0.006433
1253.87	0.010793
1263.51	0.026983
1273.16	0.042853
1282.8	0.017113
1292.45	0.010023
1302.09	0.018053
1311.74	0.055633
1321.38	0.072453
1331.03	0.017943
1340.67	0.007673
1350.32	0.006883
1359.96	0.008163
1369.61	0.008383
1379.25	0.005523
1388.9	0.004263
1398.54	0.006413
1408.18	0.011653
1417.83	0.016923
1427.47	0.028193
1437.12	0.025443
1446.76	0.017413
1456.41	0.020673
1466.05	0.022343
1475.7	0.025093
1485.34	0.058343
1494.99	0.222873
1504.63	0.541133
1514.28	0.585033
1523.92	0.348963
1533.57	0.092643
1543.21	0.026763
1552.86	0.016973
1562.5	0.013153
1572.15	0.012573
1581.79	0.013873
1591.44	0.015533
1601.08	0.010963
1610.73	0.006173
1620.37	0.005953
1630.01	0.008523
1639.66	0.019133
1649.3	0.043003
1658.95	0.031833
1668.59	0.005963
1678.24	0.002173
1687.88	0.001703
1697.53	0.001673
1707.17	0.001973
1716.82	0.002693
1726.46	0.004493
1736.11	0.005683
1745.75	0.004503
1755.4	0.002883
1765.04	0.002293
1774.69	0.002023
1784.33	0.002043
1793.98	0.001753
1803.62	0.0012346
1813.27	0.0007807
1822.91	0.0008294
1832.55	0.0009748
1842.2	0.001283
1851.84	0.001413
1861.49	0.0010132
1871.13	0.0007017
1880.78	0.0008112
1890.42	0.0008543
1900.07	0.0007853
1909.71	0.0009149
1919.36	0.0010827
1929	0.0009056
1938.65	0.0008878
1948.29	0.0006264
1957.94	0.0005689
1967.58	0.0007541
1977.23	0.0008006
1986.87	0.0005948
1996.52	0.0005013
2006.16	0.0004379
2015.81	0.0004079
2025.45	0.0005964
2035.1	0.0006909
2044.74	0.0009622
2054.38	0.001593
2064.03	0.002533
2073.67	0.002743
2083.32	0.002233
2092.96	0.001603
2102.61	0.001383
2112.25	0.0012524
2121.9	0.001
2131.54	0.0011938
2141.19	0.001673
2150.83	0.001633
2160.48	0.0012067
2170.12	0.0009526
2179.77	0.000866
2189.41	0.0007627
2199.06	0.0008199
2208.7	0.0009188
2218.35	0.0008885
2227.99	0.0007752
2237.64	0.0009914
2247.28	0.0012103
2256.92	0.001303
2266.57	0.0011931
2276.21	0.0009491
2285.86	0.0008261
2295.5	0.0005979
2305.15	0.0004152
2314.79	0.0006669
2324.44	0.0009498
2334.08	0.0010524
2343.73	0.001243
2353.37	0.0011074
2363.02	0.000824
2372.66	0.0007938
2382.31	0.0009469
2391.95	0.001343
2401.6	0.001753
2411.24	0.002073
2420.89	0.002593
2430.53	0.003283
2440.18	0.003823
2449.82	0.003863
2459.47	0.003353
2469.11	0.002333
2478.75	0.001983
2488.4	0.001943
2498.04	0.001573
2507.69	0.0012641
2517.33	0.0010974
2526.98	0.0010662
2536.62	0.0011009
2546.27	0.0010365
2555.91	0.0010148
2565.56	0.0009388
2575.2	0.000977
2584.85	0.0010323
2594.49	0.0011441
2604.14	0.0011879
2613.78	0.001353
2623.43	0.001833
2633.07	0.003173
2642.72	0.004613
2652.36	0.004653
2662.01	0.003003
2671.65	0.001753
2681.29	0.001293
2690.94	0.001483
2700.58	0.001353
2710.23	0.0010598
2719.87	0.0011046
2729.52	0.0011443
2739.16	0.0009224
2748.81	0.0008354
2758.45	0.0008361
2768.1	0.0010169
2777.74	0.0010745
2787.39	0.0010012
2797.03	0.0007009
2806.68	0.0006192
2816.32	0.0005006
2825.97	0.0006525
2835.61	0.0007322
2845.26	0.0006895
2854.9	0.0007603
2864.55	0.0007946
2874.19	0.0008791
2883.84	0.0010644
2893.48	0.001221
2903.12	0.0012075
2912.77	0.001383
2922.41	0.001723
2932.06	0.001993
2941.7	0.002143
2951.35	0.002123
2960.99	0.002163
2970.64	0.002703
2980.28	0.004743
2989.93	0.006803
2999.57	0.005613
3009.22	0.002553
3018.86	0.0012536
3028.51	0.0011423
3038.15	0.0010404
3047.8	0.0009941
3057.44	0.0006278
3067.09	0.0004625
3076.73	0.00035668
3086.38	0.0006383
3096.02	0.0004861
3105.67	0.0005389
3115.31	0.0004146
3124.95	0.000399
3134.6	0.0005757
3144.24	0.0008308
3153.89	0.0006728
3163.53	0.0004263
3173.18	0.0005207
3182.82	0.0003988
3192.47	0.00035621
3202.11	0.0004031
3211.76	0.00027822
3221.4	0.0002604
3231.05	0.00036894
3240.69	0.0004108
3250.34	0.0002355
3259.98	0.0003881
3269.63	0.00041
3279.27	0.000383
3288.92	0.00034953
3298.56	0.00030813
3308.21	0.0003031
3317.85	0.00036685
3327.49	0.000193
3337.14	0.0001969
3346.78	0.0003907
3356.43	0.000244
3366.07	0.0004393
3375.72	0.00027
3385.36	0.000223
3395.01	0.0003876
3404.65	0.00032926
3414.3	0.0002658
3423.94	0.0002092
3433.59	0.0002052
3443.23	0.000108
3452.88	0.00027962
3462.52	0.0004282
3472.17	0.000156
3481.81	0.0003763
3491.46	0.00029606
3501.1	0.000154
3510.75	0.000145
3520.39	0.000182
3530.04	0.00032893
3539.68	0.0002629
3549.32	0.0003135
3558.97	0.0002005
3568.61	0.000163
3578.26	0.0005065
3587.9	0.0002171
3597.55	0.00034796
3607.19	0.00030034
3616.84	0.000176
3626.48	0.0004068
3636.13	0.00027466
3645.77	0.0002453
3655.42	0.000171
3665.06	0.000182
3674.71	5.8e-05
3684.35	0.00031278
3694	0.000141
3703.64	0.0002372
3713.29	0.000287939
3722.93	0.0002232
3732.58	0.00036778
3742.22	9.2e-05
3751.86	0.000607
3761.51	0.0004086
3771.15	0.000141
3780.8	0.000128
3790.44	0.00036222
3800.09	0.000215
3809.73	0.0002702
3819.38	0.000155
3829.02	0.0004366
3838.67	0.00030673
3848.31	0.00027315
3857.96	0.000182
3867.6	0.00027948
3877.25	0.00031321
3886.89	0.0001852
3896.54	0.0002078
3906.18	0.0002522
3915.83	0.0002268
3925.47	0.0004443
3935.12	0.000116
3944.76	0.00027451
3954.41	0.000288991
3964.05	0.000292672
3973.69	0.000167
3983.34	4e-06
3992.98	9e-05
