Infrared Spectrum: Pentafluorobenzaldehyde
Formula: C 7 H F 5 O
CAS: 653-37-2
State: gas
Origin: EPA-IR VAPOR PHASE LIBRARY
1/CM	ABSORBANCE
549.8	0.0012857
559.445	0.003342
569.09	0.006502
578.734	0.006422
588.379	0.002292
598.024	0.002112
607.669	0.003582
617.313	0.012842
626.958	0.038242
636.603	0.031862
646.248	0.008262
655.893	0.003372
665.537	0.002742
675.182	0.003012
684.827	0.002372
694.472	0.001732
704.116	0.0013944
713.761	0.0013773
723.406	0.0011352
733.051	0.0011359
742.695	0.0011853
752.34	0.0014467
761.985	0.001652
771.63	0.002232
781.275	0.002992
790.919	0.005072
800.564	0.015652
810.209	0.017962
819.854	0.005972
829.498	0.002232
839.143	0.001512
848.788	0.0012748
858.433	0.0012153
868.078	0.0011937
877.722	0.0012564
887.367	0.0012756
897.012	0.0013896
906.657	0.002132
916.301	0.004592
925.946	0.011042
935.591	0.019172
945.236	0.020392
954.88	0.012612
964.525	0.009042
974.17	0.011872
983.815	0.017952
993.46	0.035172
1003.1	0.060342
1012.75	0.070132
1022.39	0.066372
1032.04	0.052182
1041.68	0.034832
1051.33	0.017482
1060.97	0.007542
1070.62	0.006272
1080.26	0.006452
1089.91	0.006752
1099.55	0.008882
1109.2	0.015782
1118.84	0.047352
1128.49	0.121522
1138.13	0.114312
1147.78	0.039612
1157.42	0.026312
1167.07	0.009742
1176.71	0.003762
1186.36	0.002822
1196	0.002712
1205.64	0.002412
1215.29	0.002472
1224.93	0.002872
1234.58	0.003752
1244.22	0.005652
1253.87	0.008112
1263.51	0.007382
1273.16	0.004632
1282.8	0.004622
1292.45	0.007172
1302.09	0.018392
1311.74	0.042582
1321.38	0.048872
1331.03	0.023332
1340.67	0.007972
1350.32	0.005632
1359.96	0.005792
1369.61	0.008412
1379.25	0.016702
1388.9	0.043022
1398.54	0.073862
1408.18	0.060602
1417.83	0.027992
1427.47	0.009942
1437.12	0.006832
1446.76	0.006582
1456.41	0.008452
1466.05	0.013582
1475.7	0.031972
1485.34	0.114092
1494.99	0.269362
1504.63	0.275972
1514.28	0.179742
1523.92	0.130132
1533.57	0.042572
1543.21	0.019362
1552.86	0.011112
1562.5	0.009782
1572.15	0.009222
1581.79	0.007852
1591.44	0.008252
1601.08	0.010482
1610.73	0.015872
1620.37	0.026922
1630.01	0.035062
1639.66	0.047392
1649.3	0.051422
1658.95	0.022232
1668.59	0.008602
1678.24	0.007002
1687.88	0.007842
1697.53	0.009862
1707.17	0.018612
1716.82	0.070152
1726.46	0.158622
1736.11	0.090582
1745.75	0.014442
1755.4	0.008252
1765.04	0.007512
1774.69	0.007272
1784.33	0.006642
1793.98	0.003572
1803.62	0.002132
1813.27	0.001912
1822.91	0.001942
1832.55	0.002002
1842.2	0.001822
1851.84	0.001642
1861.49	0.001612
1871.13	0.001972
1880.78	0.002282
1890.42	0.002162
1900.07	0.001712
1909.71	0.0013179
1919.36	0.0013364
1929	0.0013386
1938.65	0.0012599
1948.29	0.0012758
1957.94	0.0011721
1967.58	0.0010705
1977.23	0.0009428
1986.87	0.0009103
1996.52	0.0008884
2006.16	0.0009304
2015.81	0.0009756
2025.45	0.0008902
2035.1	0.0008823
2044.74	0.0008003
2054.38	0.0009217
2064.03	0.0012611
2073.67	0.001502
2083.32	0.0014591
2092.96	0.0013929
2102.61	0.0011884
2112.25	0.0008144
2121.9	0.0007402
2131.54	0.0008258
2141.19	0.0008095
2150.83	0.0008864
2160.48	0.0008265
2170.12	0.0007841
2179.77	0.0007084
2189.41	0.0007132
2199.06	0.0007413
2208.7	0.0008501
2218.35	0.0009799
2227.99	0.0009382
2237.64	0.0007958
2247.28	0.0009676
2256.92	0.001152
2266.57	0.0011563
2276.21	0.0008097
2285.86	0.0006464
2295.5	0.0006011
2305.15	0.0006268
2314.79	0.00054692
2324.44	0.0006039
2334.08	0.0006157
2343.73	0.0006126
2353.37	0.0006465
2363.02	0.0006304
2372.66	0.0006451
2382.31	0.0007954
2391.95	0.0010608
2401.6	0.0013026
2411.24	0.0014055
2420.89	0.0014352
2430.53	0.0013625
2440.18	0.0014151
2449.82	0.001672
2459.47	0.001972
2469.11	0.002042
2478.75	0.001582
2488.4	0.0011604
2498.04	0.0010561
2507.69	0.0011872
2517.33	0.0013959
2526.98	0.001532
2536.62	0.001512
2546.27	0.0014601
2555.91	0.0013585
2565.56	0.001274
2575.2	0.0010012
2584.85	0.0009733
2594.49	0.0008928
2604.14	0.0010503
2613.78	0.0012925
2623.43	0.001742
2633.07	0.002352
2642.72	0.002642
2652.36	0.002662
2662.01	0.002352
2671.65	0.001792
2681.29	0.0013663
2690.94	0.0011564
2700.58	0.0012923
2710.23	0.001662
2719.87	0.001872
2729.52	0.002142
2739.16	0.002552
2748.81	0.003642
2758.45	0.005292
2768.1	0.007202
2777.74	0.006802
2787.39	0.003972
2797.03	0.002712
2806.68	0.003082
2816.32	0.003202
2825.97	0.002832
2835.61	0.002802
2845.26	0.003542
2854.9	0.007162
2864.55	0.017972
2874.19	0.021872
2883.84	0.011102
2893.48	0.004432
2903.12	0.003462
2912.77	0.003622
2922.41	0.003322
2932.06	0.002422
2941.7	0.001552
2951.35	0.0011646
2960.99	0.0009527
2970.64	0.0008677
2980.28	0.0008208
2989.93	0.0009068
2999.57	0.0009984
3009.22	0.0008368
3018.86	0.0008484
3028.51	0.0009729
3038.15	0.000804
3047.8	0.0006078
3057.44	0.0004472
3067.09	0.000326
3076.73	0.0004316
3086.38	0.000368
3096.02	0.000362
3105.67	0.0004482
3115.31	0.00050005
3124.95	0.0008066
3134.6	0.0007071
3144.24	0.0005814
3153.89	0.000357
3163.53	0.00022
3173.18	9e-05
3182.82	0.000155
3192.47	0.000161
3202.11	0.000207
3211.76	0.00029
3221.4	0.000343
3231.05	0.000273
3240.69	0.000344
3250.34	0.000355
3259.98	0.000331
3269.63	0.0004075
3279.27	0.00033
3288.92	0.000357
3298.56	0.000269
3308.21	0.0003765
3317.85	0.000306
3327.49	0.000187
3337.14	0.000225
3346.78	0.000168
3356.43	0.0003982
3366.07	0.0004247
3375.72	0.000312
3385.36	0.0004129
3395.01	0.00050879
3404.65	0.00049664
3414.3	0.000807
3423.94	0.002062
3433.59	0.003662
3443.23	0.003002
3452.88	0.0011258
3462.52	0.0006563
3472.17	0.00056917
3481.81	0.00046253
3491.46	0.000474468
3501.1	0.000347
3510.75	0.000275
3520.39	0.000287
3530.04	0.000318
3539.68	0.000105
3549.32	0.000325
3558.97	0.000294
3568.61	0.000223
3578.26	0.000222
3587.9	0.000257
3597.55	0.00034
3607.19	0.00029
3616.84	0.0003837
3626.48	0.000195
3636.13	0.000171
3645.77	5.8e-05
3655.42	0.000322
3665.06	0.000239
3674.71	0.000364
3684.35	0.00027
3694	0.000311
3703.64	0.000107
3713.29	0.000351
3722.93	0.000161
3732.58	0.000176
3742.22	0.000306
3751.86	0.000303
3761.51	0.000289
3771.15	0.000196
3780.8	0.000254
3790.44	0.000273
3800.09	0.000268
3809.73	0.000174
3819.38	0.000245
3829.02	0.000212
3838.67	2.8e-05
3848.31	0.000272
3857.96	0.000269
3867.6	0.000209
3877.25	0.0003925
3886.89	0.000239
3896.54	0.000279
3906.18	0.000216
3915.83	0.000107
3925.47	0.000309
3935.12	0.000143
3944.76	0.000167
3954.41	0.000148
3964.05	0.000289
3973.69	0.000291
3983.34	0.000169
3992.98	0.000182
