Infrared Spectrum: 2-(Pentafluorophenyl)acetamide
Formula: C8 H4 F5 N O
CAS: 653-20-3
State: SOLID (SPLIT MULL), FLUOROLUBE FOR 3800-1330 CM^-^1, NUJOL FOR 1330-470 CM^-^1
Class: COBLENTZ III
Instrument: DOW KBr FOREPRISM-GRATING
Instrument parameters: BLAZED AT 3.5, 12.0, 20.0 MICRON AND CHANGED AT 5.0, 7.5, 14.9 MICRON
Sampling: TRANSMISSION
Resolution: 2
Origin: DOW CHEMICAL COMPANY
1/CM	TRANSMITTANCE
3806	0.8089
3797	0.8081
3788	0.8074
3779	0.8081
3770	0.8099
3761	0.8111
3752	0.8115
3743	0.8121
3734	0.8126
3725	0.8135
3716	0.8142
3707	0.815
3698	0.8158
3689	0.8165
3680	0.8171
3671	0.8172
3662	0.8172
3653	0.8174
3644	0.8174
3635	0.8172
3626	0.8172
3617	0.8171
3608	0.8161
3599	0.8151
3590	0.8142
3581	0.8133
3572	0.8124
3563	0.8115
3554	0.8108
3545	0.81
3536	0.8093
3527	0.8085
3518	0.8078
3509	0.8068
3500	0.8054
3491	0.8039
3482	0.8011
3473	0.798
3464	0.793
3455	0.7858
3446	0.7781
3437	0.7608
3428	0.7349
3419	0.7001
3410	0.5789
3401	0.5319
3392	0.4455
3383	0.3722
3374	0.3599
3365	0.3927
3356	0.4966
3347	0.5492
3338	0.5799
3329	0.6007
3320	0.6183
3311	0.6344
3302	0.6475
3293	0.6631
3284	0.6757
3275	0.6797
3266	0.6782
3257	0.6696
3248	0.6534
3239	0.633
3230	0.6065
3221	0.571
3212	0.5336
3203	0.5117
3194	0.5114
3185	0.5377
3176	0.5702
3167	0.6025
3158	0.6295
3149	0.6551
3140	0.674
3131	0.7021
3122	0.7203
3113	0.7326
3104	0.7396
3095	0.7458
3086	0.7518
3077	0.7565
3068	0.7611
3059	0.7656
3050	0.7696
3041	0.7735
3032	0.7768
3023	0.7796
3014	0.7819
3005	0.7834
2996	0.7837
2987	0.7831
2978	0.7818
2969	0.7804
2960	0.7794
2951	0.7785
2942	0.779
2933	0.7798
2924	0.7821
2915	0.7871
2906	0.7915
2897	0.7954
2888	0.7975
2879	0.7993
2870	0.7965
2861	0.7934
2852	0.7928
2843	0.7943
2834	0.7955
2825	0.7878
2816	0.7819
2807	0.7884
2798	0.7939
2789	0.796
2780	0.7985
2771	0.8011
2762	0.8039
2753	0.8064
2744	0.8089
2735	0.8112
2726	0.8137
2717	0.8153
2708	0.8165
2699	0.8175
2690	0.8185
2681	0.819
2672	0.8193
2663	0.8178
2654	0.8169
2645	0.8168
2636	0.8175
2627	0.8197
2618	0.822
2609	0.8244
2600	0.8249
2591	0.8241
2582	0.8233
2573	0.8228
2564	0.8241
2555	0.8253
2546	0.8266
2537	0.8278
2528	0.8278
2519	0.827
2510	0.8261
2501	0.826
2492	0.8267
2483	0.827
2474	0.8252
2465	0.8234
2456	0.8217
2447	0.8212
2438	0.8218
2429	0.8225
2420	0.8239
2411	0.8252
2402	0.8266
2393	0.828
2384	0.8284
2375	0.8283
2366	0.8283
2357	0.8282
2348	0.8282
2339	0.8285
2330	0.8288
2321	0.8291
2312	0.8294
2303	0.8291
2294	0.8297
2285	0.8304
2276	0.8328
2267	0.836
2258	0.839
2249	0.8418
2240	0.8448
2231	0.8475
2222	0.8505
2213	0.8533
2204	0.8556
2195	0.8575
2186	0.8594
2177	0.8609
2168	0.8624
2159	0.8635
2150	0.8641
2141	0.8646
2132	0.8655
2123	0.8665
2114	0.8675
2105	0.8687
2096	0.8701
2087	0.8715
2078	0.873
2069	0.8746
2060	0.8763
2051	0.8781
2042	0.8801
2033	0.8821
2024	0.8836
2015	0.8799
2006	0.8782
1997	0.8771
1988	0.877
1979	0.879
1970	0.879
1961	0.8783
1952	0.877
1943	0.8758
1934	0.8749
1925	0.8755
1916	0.8757
1907	0.8755
1898	0.8752
1889	0.8749
1880	0.8747
1871	0.8738
1862	0.8728
1853	0.8721
1844	0.8713
1835	0.8705
1826	0.8706
1817	0.8707
1808	0.8698
1799	0.8682
1790	0.8657
1781	0.8628
1772	0.8593
1763	0.8543
1754	0.847
1745	0.8397
1736	0.8352
1727	0.8317
1718	0.7201
1709	0.7738
1700	0.7619
1691	0.674
1682	0.4546
1673	0.2488
1664	0.3454
1655	0.5023
1646	0.5083
1637	0.3512
1628	0.547
1619	0.6807
1610	0.7339
1601	0.7733
1592	0.7939
1583	0.8062
1574	0.8131
1565	0.8174
1556	0.8019
1547	0.7919
1538	0.7435
1529	0.3056
1520	0.6224
1511	0.1557
1502	0.245
1493	0.535
1484	0.6722
1475	0.7567
1466	0.7839
1457	0.7915
1448	0.7875
1439	0.7601
1430	0.631
1421	0.569
1412	0.4989
1403	0.6518
1394	0.7171
1385	0.7604
1376	0.7783
1367	0.7806
1358	0.7671
1349	0.7851
1340	0.7815
1331	0.786
1322	0.6632
1313	0.6762
1304	0.7278
1295	0.7424
1286	0.7351
1277	0.6612
1268	0.7269
1259	0.76
1250	0.7691
1241	0.7776
1232	0.7835
1223	0.7843
1214	0.7571
1205	0.559
1196	0.7689
1187	0.7915
1178	0.8086
1169	0.8106
1160	0.8108
1151	0.8105
1142	0.7858
1133	0.6482
1124	0.6227
1115	0.7925
1106	0.8313
1097	0.8368
1088	0.8397
1079	0.8411
1070	0.8407
1061	0.8394
1052	0.8301
1043	0.8091
1034	0.7571
1025	0.7447
1016	0.5255
1007	0.2676
998	0.6345
989	0.7558
980	0.3732
971	0.7767
962	0.8181
953	0.8294
944	0.8342
935	0.8345
926	0.8295
917	0.3725
908	0.7875
899	0.8309
890	0.8153
881	0.8243
872	0.8428
863	0.8463
854	0.848
845	0.846
836	0.841
827	0.8311
818	0.8144
809	0.8135
800	0.8258
791	0.8382
782	0.8447
773	0.8268
764	0.7871
755	0.8071
746	0.8232
737	0.7799
728	0.7908
719	0.7611
710	0.7265
701	0.7464
692	0.7099
683	0.7499
674	0.7788
665	0.7949
656	0.7961
647	0.7874
638	0.7762
629	0.725
620	0.7139
611	0.6676
602	0.8171
593	0.8363
584	0.843
575	0.8058
566	0.8545
557	0.8647
548	0.8655
539	0.8078
530	0.8575
521	0.8647
512	0.8688
503	0.8707
494	0.871
485	0.8273
476	0.8335
