Infrared Spectrum: 3-(Benzylamino)quinuclidine
Formula: C14 H20 N2
CAS: 6530-11-6
State: LIQUID (NEAT)
Boiling point: 130 C AT 0.3 mmHg
Class: COBLENTZ III
Instrument: DOW KBr FOREPRISM-GRATING
Instrument parameters: BLAZED AT 3.5, 12.0, 20.0 MICRON AND CHANGED AT 5.0, 7.5, 14.9 MICRON
Sampling: TRANSMISSION
Path length: CAPILLARY BETWEEN KBr PLATES
Resolution: 2
Origin: DOW CHEMICAL COMPANY
1/CM	TRANSMITTANCE
3786	0.8628
3777	0.863
3768	0.8636
3759	0.8667
3750	0.87
3741	0.8728
3732	0.8766
3723	0.8925
3714	0.9013
3705	0.8652
3696	0.867
3687	0.8697
3678	0.8654
3669	0.8587
3660	0.8539
3651	0.849
3642	0.8464
3633	0.8463
3624	0.8482
3615	0.8504
3606	0.8518
3597	0.8495
3588	0.8455
3579	0.8407
3570	0.8352
3561	0.8284
3552	0.821
3543	0.8126
3534	0.8051
3525	0.7982
3516	0.7911
3507	0.7838
3498	0.7765
3489	0.7693
3480	0.7625
3471	0.7557
3462	0.749
3453	0.7424
3444	0.7362
3435	0.7303
3426	0.7258
3417	0.7218
3408	0.7171
3399	0.7136
3390	0.7099
3381	0.7076
3372	0.7058
3363	0.7035
3354	0.6978
3345	0.69
3336	0.6815
3327	0.6694
3318	0.6544
3309	0.6449
3300	0.6377
3291	0.6294
3282	0.6214
3273	0.6149
3264	0.6097
3255	0.6057
3246	0.6068
3237	0.6118
3228	0.6196
3219	0.6315
3210	0.6474
3201	0.6618
3192	0.6725
3183	0.6814
3174	0.6899
3165	0.6969
3156	0.7035
3147	0.7099
3138	0.7158
3129	0.7189
3120	0.7221
3111	0.7221
3102	0.7161
3093	0.7046
3084	0.6274
3075	0.6443
3066	0.6551
3057	0.5656
3048	0.6043
3039	0.6337
3030	0.536
3021	0.5289
3012	0.636
3003	0.6561
2994	0.6485
2985	0.6541
2976	0.5905
2967	0.4552
2958	0.2988
2949	0.1207
2940	0.0734
2931	0.068
2922	0.0934
2913	0.1224
2904	0.1684
2895	0.2992
2886	0.3304
2877	0.317
2868	0.1776
2859	0.1383
2850	0.2389
2841	0.4148
2832	0.4539
2823	0.4637
2814	0.4617
2805	0.4607
2796	0.4743
2787	0.53
2778	0.5862
2769	0.6379
2760	0.7058
2751	0.7495
2742	0.7624
2733	0.7651
2724	0.7694
2715	0.7935
2706	0.8047
2697	0.8106
2688	0.8161
2679	0.8212
2670	0.8256
2661	0.8268
2652	0.8256
2643	0.8274
2634	0.8324
2625	0.838
2616	0.8443
2607	0.8502
2598	0.8552
2589	0.8599
2580	0.8644
2571	0.8688
2562	0.8725
2553	0.8727
2544	0.8727
2535	0.8736
2526	0.8754
2517	0.8778
2508	0.8804
2499	0.8818
2490	0.8832
2481	0.8841
2472	0.8848
2463	0.8854
2454	0.886
2445	0.8864
2436	0.8868
2427	0.8871
2418	0.8875
2409	0.8878
2400	0.8886
2391	0.8895
2382	0.892
2373	0.8948
2364	0.8983
2355	0.9014
2346	0.9033
2337	0.905
2328	0.905
2319	0.9016
2310	0.8975
2301	0.8958
2292	0.8942
2283	0.8925
2274	0.8911
2265	0.8902
2256	0.8903
2247	0.8904
2238	0.8905
2229	0.8906
2220	0.8909
2211	0.8911
2202	0.8916
2193	0.8921
2184	0.8931
2175	0.895
2166	0.8968
2157	0.8987
2148	0.8998
2139	0.9007
2130	0.9011
2121	0.9011
2112	0.9008
2103	0.8988
2094	0.8995
2085	0.9013
2076	0.9016
2067	0.9018
2058	0.9028
2049	0.9045
2040	0.9062
2031	0.908
2022	0.9099
2013	0.9115
2004	0.918
1995	0.9142
1986	0.9106
1977	0.9091
1968	0.9025
1959	0.8944
1950	0.8857
1941	0.8867
1932	0.8947
1923	0.907
1914	0.913
1905	0.9144
1896	0.9125
1887	0.9068
1878	0.8978
1869	0.8918
1860	0.8917
1851	0.8992
1842	0.9064
1833	0.905
1824	0.8981
1815	0.8931
1806	0.8896
1797	0.8925
1788	0.9014
1779	0.9117
1770	0.9154
1761	0.9134
1752	0.914
1743	0.9075
1734	0.9091
1725	0.9104
1716	0.9093
1707	0.9002
1698	0.8628
1689	0.8165
1680	0.8181
1671	0.7722
1662	0.7707
1653	0.789
1644	0.7907
1635	0.748
1626	0.8068
1617	0.8051
1608	0.8228
1599	0.7415
1590	0.8348
1581	0.8117
1572	0.8373
1563	0.8603
1554	0.8564
1545	0.8554
1536	0.8632
1527	0.87
1518	0.8704
1509	0.8595
1500	0.7596
1491	0.4795
1482	0.7176
1473	0.6798
1464	0.4595
1455	0.3266
1446	0.3859
1437	0.5521
1428	0.7438
1419	0.8081
1410	0.8221
1401	0.8195
1392	0.8071
1383	0.7682
1374	0.7071
1365	0.6651
1356	0.6335
1347	0.6028
1338	0.6035
1329	0.6045
1320	0.3982
1311	0.5043
1302	0.6258
1293	0.7012
1284	0.7647
1275	0.7921
1266	0.7985
1257	0.8142
1248	0.8069
1239	0.8001
1230	0.8038
1221	0.7719
1212	0.736
1203	0.7226
1194	0.6539
1185	0.7593
1176	0.7345
1167	0.7581
1158	0.7783
1149	0.7224
1140	0.5099
1131	0.4339
1122	0.5822
1113	0.6896
1104	0.6455
1095	0.5929
1086	0.6012
1077	0.6051
1068	0.5337
1059	0.3587
1050	0.4367
1041	0.5875
1032	0.7122
1023	0.5997
1014	0.5908
1005	0.7287
996	0.6535
987	0.5538
978	0.5025
969	0.6089
960	0.6268
951	0.7425
942	0.8071
933	0.8094
924	0.8293
915	0.8465
906	0.8044
897	0.8271
888	0.8441
879	0.83
870	0.83
861	0.8045
852	0.7739
843	0.7308
834	0.7028
825	0.6027
816	0.5574
807	0.5932
798	0.5112
789	0.5172
780	0.545
771	0.5543
762	0.5391
753	0.3408
744	0.2883
735	0.2729
726	0.4193
717	0.5083
708	0.3703
699	0.1646
690	0.6273
681	0.6994
672	0.7221
663	0.7434
654	0.7761
645	0.7901
636	0.7908
627	0.7331
618	0.6454
609	0.6234
600	0.6789
591	0.7243
582	0.7211
573	0.7238
564	0.7828
555	0.8208
546	0.8214
537	0.8115
528	0.8309
519	0.846
510	0.8332
501	0.8001
492	0.7895
483	0.7928
474	0.7928
465	0.7275
456	0.7328
447	0.7438
438	0.7503
429	0.7528
420	0.7493
411	0.743
402	0.7361
393	0.7338
