Infrared Spectrum: 4-Fluoro-3-nitrophenyl isocyanate
Formula: C 7 H 3 F N 2 O 3
CAS: 65303-82-4
State: gas
Origin: EPA-IR VAPOR PHASE LIBRARY
1/CM	ABSORBANCE
549.8	0.0011719
559.445	0.001325
569.09	0.002575
578.734	0.003545
588.379	0.004315
598.024	0.005035
607.669	0.004225
617.313	0.003245
626.958	0.003155
636.603	0.004005
646.248	0.003485
655.893	0.002535
665.537	0.002105
675.182	0.003035
684.827	0.004155
694.472	0.004055
704.116	0.003495
713.761	0.003185
723.406	0.003445
733.051	0.004895
742.695	0.006095
752.34	0.006305
761.985	0.007115
771.63	0.006415
781.275	0.003675
790.919	0.002415
800.564	0.003075
810.209	0.009015
819.854	0.015855
829.498	0.012235
839.143	0.004175
848.788	0.001315
858.433	0.001228
868.078	0.002145
877.722	0.003825
887.367	0.005395
897.012	0.003235
906.657	0.001775
916.301	0.0010858
925.946	0.0005331
935.591	0.0005537
945.236	0.0006081
954.88	0.000321062
964.525	0.000164
974.17	0.00037188
983.815	0.0004456
993.46	0.0005176
1003.1	0.0002946
1012.75	0.000519
1022.39	0.0004552
1032.04	0.000254
1041.68	0.000782
1051.33	0.0006607
1060.97	0.0010345
1070.62	0.0007967
1080.26	0.0004974
1089.91	0.001405
1099.55	0.002935
1109.2	0.005835
1118.84	0.007435
1128.49	0.004995
1138.13	0.003065
1147.78	0.002775
1157.42	0.003545
1167.07	0.004185
1176.71	0.003525
1186.36	0.002305
1196	0.001925
1205.64	0.001465
1215.29	0.001615
1224.93	0.002455
1234.58	0.005175
1244.22	0.006685
1253.87	0.008285
1263.51	0.016815
1273.16	0.015925
1282.8	0.007115
1292.45	0.003295
1302.09	0.003435
1311.74	0.004035
1321.38	0.005375
1331.03	0.009795
1340.67	0.020245
1350.32	0.029815
1359.96	0.022465
1369.61	0.011215
1379.25	0.005325
1388.9	0.002995
1398.54	0.002745
1408.18	0.003915
1417.83	0.003905
1427.47	0.002765
1437.12	0.002855
1446.76	0.003675
1456.41	0.004515
1466.05	0.004985
1475.7	0.005495
1485.34	0.007235
1494.99	0.011655
1504.63	0.019105
1514.28	0.026585
1523.92	0.030905
1533.57	0.033145
1543.21	0.039045
1552.86	0.054825
1562.5	0.068645
1572.15	0.045055
1581.79	0.024155
1591.44	0.016695
1601.08	0.009605
1610.73	0.005155
1620.37	0.003465
1630.01	0.002645
1639.66	0.001945
1649.3	0.001585
1658.95	0.001315
1668.59	0.0009882
1678.24	0.0008716
1687.88	0.0006937
1697.53	0.0006515
1707.17	0.0005866
1716.82	0.0005623
1726.46	0.0004634
1736.11	0.0005387
1745.75	0.0005583
1755.4	0.0008337
1765.04	0.0008781
1774.69	0.0007474
1784.33	0.0006097
1793.98	0.0004924
1803.62	0.0005232
1813.27	0.0004734
1822.91	0.0004734
1832.55	0.0005629
1842.2	0.0005443
1851.84	0.0005055
1861.49	0.0005149
1871.13	0.0006606
1880.78	0.0009479
1890.42	0.0010192
1900.07	0.0007816
1909.71	0.000514
1919.36	0.0004717
1929	0.0005127
1938.65	0.0004874
1948.29	0.0004966
1957.94	0.00039926
1967.58	0.0004808
1977.23	0.0004821
1986.87	0.0005779
1996.52	0.0005364
2006.16	0.0005693
2015.81	0.0005814
2025.45	0.0006498
2035.1	0.00064
2044.74	0.0007065
2054.38	0.0008112
2064.03	0.0009941
2073.67	0.0011176
2083.32	0.001365
2092.96	0.001485
2102.61	0.001545
2112.25	0.001735
2121.9	0.002195
2131.54	0.002725
2141.19	0.003355
2150.83	0.004115
2160.48	0.004895
2170.12	0.006095
2179.77	0.008175
2189.41	0.011815
2199.06	0.016805
2208.7	0.021955
2218.35	0.026905
2227.99	0.032945
2237.64	0.042115
2247.28	0.060695
2256.92	0.099905
2266.57	0.170405
2276.21	0.229375
2285.86	0.179085
2295.5	0.088805
2305.15	0.046425
2314.79	0.030345
2324.44	0.023305
2334.08	0.020985
2343.73	0.019825
2353.37	0.019385
2363.02	0.018605
2372.66	0.012685
2382.31	0.006955
2391.95	0.004415
2401.6	0.003255
2411.24	0.002705
2420.89	0.002475
2430.53	0.002395
2440.18	0.002345
2449.82	0.002045
2459.47	0.001585
2469.11	0.0012964
2478.75	0.0010947
2488.4	0.00102
2498.04	0.0009195
2507.69	0.0007545
2517.33	0.0006803
2526.98	0.0006589
2536.62	0.0007773
2546.27	0.000819
2555.91	0.0006995
2565.56	0.000686
2575.2	0.0006737
2584.85	0.0006206
2594.49	0.0006357
2604.14	0.0005643
2613.78	0.0006441
2623.43	0.0006811
2633.07	0.0006312
2642.72	0.0007757
2652.36	0.000802
2662.01	0.00077
2671.65	0.001013
2681.29	0.0010655
2690.94	0.001209
2700.58	0.0010871
2710.23	0.0009349
2719.87	0.0008059
2729.52	0.0006875
2739.16	0.0006279
2748.81	0.00053
2758.45	0.0005869
2768.1	0.0006048
2777.74	0.0005873
2787.39	0.0005808
2797.03	0.0005505
2806.68	0.0006205
2816.32	0.0006703
2825.97	0.0006858
2835.61	0.0006973
2845.26	0.0009498
2854.9	0.0010661
2864.55	0.0009502
2874.19	0.0010654
2883.84	0.0011021
2893.48	0.0011079
2903.12	0.0011548
2912.77	0.0011426
2922.41	0.0010669
2932.06	0.0009453
2941.7	0.0008853
2951.35	0.0007976
2960.99	0.0009235
2970.64	0.0008227
2980.28	0.0008271
2989.93	0.0008325
2999.57	0.0008256
3009.22	0.0007464
3018.86	0.0008444
3028.51	0.0009655
3038.15	0.0009751
3047.8	0.0011784
3057.44	0.0011627
3067.09	0.0011153
3076.73	0.0010934
3086.38	0.0013091
3096.02	0.0013113
3105.67	0.0010655
3115.31	0.0007482
3124.95	0.0005308
3134.6	0.0005149
3144.24	0.00033674
3153.89	0.00038633
3163.53	0.00040572
3173.18	0.0005517
3182.82	0.0004467
3192.47	0.0006674
3202.11	0.0006151
3211.76	0.0005864
3221.4	0.00040051
3231.05	0.0005232
3240.69	0.00030978
3250.34	0.0004536
3259.98	0.0004296
3269.63	0.0005308
3279.27	0.000315202
3288.92	0.00034447
3298.56	0.000320453
3308.21	0.0004407
3317.85	0.0002905
3327.49	0.0004233
3337.14	0.0004417
3346.78	0.0006617
3356.43	0.0006869
3366.07	0.0006467
3375.72	0.0006687
3385.36	0.0007621
3395.01	0.0011172
3404.65	0.0010455
3414.3	0.0009952
3423.94	0.0011668
3433.59	0.0012339
3443.23	0.001325
3452.88	0.0008996
3462.52	0.0007918
3472.17	0.0006703
3481.81	0.0004446
3491.46	0.0005034
3501.1	0.0004829
3510.75	0.0006876
3520.39	0.0006805
3530.04	0.0004242
3539.68	0.00033044
3549.32	0.0002613
3558.97	0.0002878
3568.61	0.0005838
3578.26	0.00030963
3587.9	0.0004674
3597.55	0.0005749
3607.19	0.0007249
3616.84	0.0005377
3626.48	0.0005081
3636.13	0.0007344
3645.77	0.0007341
3655.42	0.0007943
3665.06	0.0010364
3674.71	0.0010136
3684.35	0.0011477
3694	0.0011298
3703.64	0.001365
3713.29	0.001315
3722.93	0.001315
3732.58	0.0010534
3742.22	0.0009313
3751.86	0.0007359
3761.51	0.0006176
3771.15	0.0006285
3780.8	0.0006789
3790.44	0.0007119
3800.09	0.0007505
3809.73	0.0006171
3819.38	0.0006689
3829.02	0.0005224
3838.67	0.000544
3848.31	0.0004672
3857.96	0.0004195
3867.6	0.0004462
3877.25	0.0005473
3886.89	0.0004463
3896.54	0.00035606
3906.18	0.00041002
3915.83	0.0006434
3925.47	0.0002685
3935.12	0.00040772
3944.76	0.0004722
3954.41	0.0004279
3964.05	0.0004541
3973.69	0.0005846
3983.34	0.00034746
3992.98	0.0005619
