Infrared Spectrum: Quinuclidine, 3-amino-, dihydrochloride, hydrate
Formula: C7 H16 Cl2 N2  * x H2 O
CAS: 6530-09-2
State: SOLID (SPLIT MULL), FLUOROLUBE FOR 3800-1330 CM^-^1, NUJOL FOR 1330-470 CM^-^1
Class: COBLENTZ III
Instrument: DOW KBr FOREPRISM-GRATING
Instrument parameters: BLAZED AT 3.5, 12.0, 20.0 MICRON AND CHANGED AT 5.0, 7.5, 14.9 MICRON
Sampling: TRANSMISSION
Resolution: 2
Origin: DOW CHEMICAL COMPANY
1/CM	TRANSMITTANCE
3802	0.6117
3793	0.6141
3784	0.617
3775	0.6198
3766	0.6227
3757	0.6256
3748	0.6287
3739	0.6317
3730	0.635
3721	0.6381
3712	0.6414
3703	0.6445
3694	0.6468
3685	0.6492
3676	0.6515
3667	0.6535
3658	0.6534
3649	0.6569
3640	0.6568
3631	0.6567
3622	0.6555
3613	0.6542
3604	0.6526
3595	0.648
3586	0.6434
3577	0.6384
3568	0.6335
3559	0.6285
3550	0.6224
3541	0.616
3532	0.6097
3523	0.6031
3514	0.5966
3505	0.5903
3496	0.5845
3487	0.5786
3478	0.5743
3469	0.5702
3460	0.5665
3451	0.5642
3442	0.562
3433	0.5598
3424	0.5586
3415	0.5575
3406	0.5572
3397	0.5569
3388	0.5581
3379	0.56
3370	0.563
3361	0.5677
3352	0.5755
3343	0.5847
3334	0.5937
3325	0.6029
3316	0.613
3307	0.623
3298	0.632
3289	0.6408
3280	0.6498
3271	0.6587
3262	0.6661
3253	0.6736
3244	0.6801
3235	0.6869
3226	0.6871
3217	0.6804
3208	0.6805
3199	0.6857
3190	0.6915
3181	0.6978
3172	0.7033
3163	0.7028
3154	0.6901
3145	0.6617
3136	0.6288
3127	0.6228
3118	0.6188
3109	0.6057
3100	0.5882
3091	0.5636
3082	0.5315
3073	0.4685
3064	0.4339
3055	0.4004
3046	0.3721
3037	0.3512
3028	0.3196
3019	0.2546
3010	0.2324
3001	0.2111
2992	0.1884
2983	0.1689
2974	0.1598
2965	0.1535
2956	0.1401
2947	0.1298
2938	0.1209
2929	0.1131
2920	0.1058
2911	0.0988
2902	0.0926
2893	0.0869
2884	0.0831
2875	0.0804
2866	0.0795
2857	0.0811
2848	0.0851
2839	0.0902
2830	0.0969
2821	0.1037
2812	0.1092
2803	0.1121
2794	0.1101
2785	0.1056
2776	0.1068
2767	0.1173
2758	0.1335
2749	0.1306
2740	0.1203
2731	0.1271
2722	0.1434
2713	0.1334
2704	0.1275
2695	0.1619
2686	0.1665
2677	0.1637
2668	0.1446
2659	0.1332
2650	0.1328
2641	0.1367
2632	0.1486
2623	0.1712
2614	0.207
2605	0.2247
2596	0.1442
2587	0.1524
2578	0.1857
2569	0.2163
2560	0.2291
2551	0.2249
2542	0.2224
2533	0.2393
2524	0.2631
2515	0.2955
2506	0.3297
2497	0.3514
2488	0.3724
2479	0.3926
2470	0.3997
2461	0.411
2452	0.4368
2443	0.4583
2434	0.4779
2425	0.4936
2416	0.5043
2407	0.5129
2398	0.519
2389	0.5244
2380	0.5284
2371	0.5326
2362	0.5379
2353	0.5456
2344	0.5543
2335	0.5651
2326	0.5791
2317	0.5947
2308	0.6035
2299	0.6156
2290	0.6278
2281	0.64
2272	0.6518
2263	0.6621
2254	0.6693
2245	0.6742
2236	0.6771
2227	0.6828
2218	0.6939
2209	0.7034
2200	0.7124
2191	0.7208
2182	0.7294
2173	0.7369
2164	0.7411
2155	0.7458
2146	0.7515
2137	0.7562
2128	0.7585
2119	0.7594
2110	0.758
2101	0.7417
2092	0.7118
2083	0.6994
2074	0.6901
2065	0.6476
2056	0.5946
2047	0.5646
2038	0.5547
2029	0.5677
2020	0.6272
2011	0.6711
2002	0.6882
1993	0.7118
1984	0.7314
1975	0.7449
1966	0.7628
1957	0.7633
1948	0.7594
1939	0.7624
1930	0.7874
1921	0.7971
1912	0.8042
1903	0.8107
1894	0.8162
1885	0.8175
1876	0.8132
1867	0.8049
1858	0.8146
1849	0.825
1840	0.8325
1831	0.8355
1822	0.8412
1813	0.8478
1804	0.8498
1795	0.846
1786	0.8465
1777	0.8497
1768	0.8557
1759	0.863
1750	0.8633
1741	0.8615
1732	0.8633
1723	0.8642
1714	0.8637
1705	0.8697
1696	0.8728
1687	0.873
1678	0.8721
1669	0.8688
1660	0.8593
1651	0.8597
1642	0.8618
1633	0.8606
1624	0.8464
1615	0.6441
1606	0.6268
1597	0.6062
1588	0.7361
1579	0.7949
1570	0.8247
1561	0.8418
1552	0.8584
1543	0.8614
1534	0.6232
1525	0.2995
1516	0.6107
1507	0.7468
1498	0.7167
1489	0.586
1480	0.7755
1471	0.6256
1462	0.6364
1453	0.5101
1444	0.555
1435	0.7301
1426	0.7734
1417	0.7746
1408	0.5549
1399	0.4084
1390	0.536
1381	0.6721
1372	0.7486
1363	0.7708
1354	0.6142
1345	0.6439
1336	0.6618
1327	0.6296
1318	0.7086
1309	0.7589
1300	0.7244
1291	0.5915
1282	0.7441
1273	0.6951
1264	0.6444
1255	0.7489
1246	0.6741
1237	0.6621
1228	0.7806
1219	0.8038
1210	0.7953
1201	0.569
1192	0.4041
1183	0.671
1174	0.7396
1165	0.7075
1156	0.6508
1147	0.6037
1138	0.7732
1129	0.7938
1120	0.6961
1111	0.7844
1102	0.8082
1093	0.81
1084	0.7969
1075	0.62
1066	0.6214
1057	0.7844
1048	0.6511
1039	0.7075
1030	0.5077
1021	0.7795
1012	0.7775
1003	0.8237
994	0.8249
985	0.8121
976	0.8216
967	0.7288
958	0.7154
949	0.7785
940	0.8105
931	0.7941
922	0.8295
913	0.8433
904	0.8498
895	0.8507
886	0.8438
877	0.7505
868	0.576
859	0.8362
850	0.8499
841	0.818
832	0.6589
823	0.7788
814	0.7265
805	0.7985
796	0.7985
787	0.8453
778	0.8248
769	0.7792
760	0.8413
751	0.8507
742	0.8468
733	0.8477
724	0.8384
715	0.8564
706	0.8656
697	0.8691
688	0.8714
679	0.9012
670	0.9028
661	0.9013
652	0.9002
643	0.8981
634	0.8931
625	0.8673
616	0.8548
607	0.878
598	0.8749
589	0.8589
580	0.7438
571	0.8562
562	0.8703
553	0.8753
544	0.8774
535	0.8782
526	0.8596
517	0.8568
508	0.8721
499	0.8744
490	0.8748
481	0.867
472	0.8303
