Infrared Spectrum: N-(2-Furoyl)aminopurine
Formula: C 10 H 7 N 5 O 2
CAS: 65316-39-4
State: gas
Origin: EPA-IR VAPOR PHASE LIBRARY
1/CM	ABSORBANCE
549.8	0.001689
559.445	0.001879
569.09	0.002549
578.735	0.002239
588.38	0.002209
598.025	0.001929
607.67	0.001869
617.315	0.001579
626.96	0.001429
636.605	0.001709
646.251	0.001749
655.896	0.001599
665.541	0.0011996
675.186	0.0011598
684.831	0.0011865
694.476	0.001389
704.121	0.001419
713.766	0.001379
723.411	0.001529
733.056	0.001289
742.701	0.001709
752.346	0.002769
761.991	0.001929
771.636	0.0011088
781.281	0.0010278
790.926	0.0010475
800.571	0.0012632
810.216	0.0011928
819.861	0.0010001
829.507	0.0010575
839.152	0.0011204
848.797	0.001389
858.442	0.0012633
868.087	0.0012011
877.732	0.001349
887.377	0.001729
897.022	0.0009584
906.667	0.0009813
916.312	0.000955
925.957	0.0010682
935.602	0.0012078
945.247	0.0011471
954.892	0.0009724
964.537	0.0008787
974.182	0.0008476
983.827	0.0008581
993.472	0.0009256
1003.12	0.001299
1012.76	0.001999
1022.41	0.0011309
1032.05	0.0009855
1041.7	0.0011406
1051.34	0.0010521
1060.99	0.0009946
1070.63	0.001369
1080.28	0.001429
1089.92	0.001299
1099.57	0.0011021
1109.21	0.0011146
1118.86	0.001359
1128.5	0.002049
1138.15	0.001389
1147.79	0.0011727
1157.44	0.001659
1167.08	0.002619
1176.73	0.001819
1186.37	0.001369
1196.02	0.001289
1205.66	0.001269
1215.31	0.001519
1224.95	0.001629
1234.6	0.001769
1244.24	0.001669
1253.89	0.002019
1263.53	0.002599
1273.18	0.003829
1282.82	0.002759
1292.47	0.001839
1302.11	0.001629
1311.76	0.001279
1321.4	0.001359
1331.05	0.001879
1340.69	0.001909
1350.34	0.001709
1359.98	0.002859
1369.63	0.005199
1379.27	0.004879
1388.92	0.002999
1398.56	0.002239
1408.21	0.001599
1417.85	0.001399
1427.5	0.001279
1437.14	0.001519
1446.79	0.001909
1456.43	0.001739
1466.08	0.001729
1475.73	0.002479
1485.37	0.002919
1495.02	0.003849
1504.66	0.008229
1514.31	0.010449
1523.95	0.004339
1533.6	0.003189
1543.24	0.004529
1552.89	0.005019
1562.53	0.002379
1572.18	0.001769
1581.82	0.002889
1591.47	0.003309
1601.11	0.001659
1610.76	0.001399
1620.4	0.001359
1630.05	0.0012609
1639.69	0.0009574
1649.34	0.0007881
1658.98	0.0008973
1668.63	0.0009239
1678.27	0.0010241
1687.92	0.001899
1697.56	0.004059
1707.21	0.003169
1716.85	0.001489
1726.5	0.0009018
1736.14	0.0008389
1745.79	0.0007745
1755.43	0.000752
1765.08	0.0007751
1774.72	0.0006605
1784.37	0.0005562
1794.01	0.0005784
1803.66	0.0005617
1813.3	0.0005138
1822.95	0.0004662
1832.59	0.000506
1842.24	0.0004642
1851.88	0.0004529
1861.53	0.0004146
1871.17	0.0004687
1880.82	0.0005022
1890.46	0.0005105
1900.11	0.000482
1909.75	0.0004346
1919.4	0.0003778
1929.04	0.0003932
1938.69	0.0003903
1948.33	0.0004256
1957.98	0.0004443
1967.62	0.0004198
1977.27	0.0003762
1986.91	0.00034775
1996.56	0.0004314
2006.2	0.0004124
2015.85	0.0003894
2025.49	0.00035018
2035.14	0.00031478
2044.78	0.00035868
2054.43	0.00030333
2064.07	0.00032987
2073.72	0.00035878
2083.36	0.0003842
2093.01	0.00035456
2102.65	0.00032662
2112.3	0.00032678
2121.94	0.0002942
2131.59	0.00031828
2141.23	0.00031209
2150.88	0.000277012
2160.52	0.000269784
2170.17	0.000270169
2179.81	0.0002401
2189.46	0.000278243
2199.1	0.0002447
2208.75	0.00026523
2218.39	0.00026484
2228.04	0.00028103
2237.68	0.00033915
2247.33	0.00027928
2256.97	0.000254
2266.62	0.0002486
2276.26	0.0002581
2285.91	0.0002578
2295.55	0.000276487
2305.2	0.0002382
2314.84	0.0002244
2324.49	0.00026192
2334.13	0.000229
2343.78	0.0001902
2353.42	0.0001803
2363.07	0.0002361
2372.72	0.00029531
2382.36	0.0002441
2392.01	0.0002416
2401.65	0.0001898
2411.3	0.000163
2420.94	0.0002213
2430.59	0.0002385
2440.23	0.0002313
2449.88	0.0002001
2459.52	0.000156
2469.17	0.00015
2478.81	0.000158
2488.46	0.0002064
2498.1	0.0002192
2507.75	0.000146
2517.39	0.000123
2527.04	0.0002128
2536.68	0.000157
2546.33	0.0001882
2555.97	0.000161
2565.62	0.00013
2575.26	0.000121
2584.91	9.5e-05
2594.55	0.000137
2604.2	8e-05
2613.84	0.00019
2623.49	0.000167
2633.13	0.000168
2642.78	5.7e-05
2652.42	0.0001958
2662.07	5.7e-05
2671.71	8.7e-05
2681.36	0.00011
2691	0.000116
2700.65	0.000149
2710.29	0.000135
2719.94	6.3e-05
2729.58	0.00014
2739.23	4.4e-05
2748.87	9.5e-05
2758.52	0.000128
2768.16	7.2e-05
2777.81	0.000157
2787.45	0.000151
2797.1	0.0001754
2806.74	9.7e-05
2816.39	5.9e-05
2826.03	0.000151
2835.68	0.0001839
2845.32	0.000276813
2854.97	7.9e-05
2864.61	0.0002015
2874.26	0.000111
2883.9	9.7e-05
2893.55	0.000159
2903.19	1.7e-05
2912.84	0.0002432
2922.48	9.5e-05
2932.13	0.0002107
2941.77	0.0002481
2951.42	0.0002339
2961.06	0.0002559
2970.71	0.00036373
2980.35	0.00035988
2990	0.00026082
2999.64	0.0002393
3009.29	0.0002576
3018.93	0.00028151
3028.58	0.0003792
3038.22	0.0004208
3047.87	0.00036711
3057.51	0.000594
3067.16	0.0006542
3076.8	0.0004302
3086.45	0.00033201
3096.09	0.0004665
3105.74	0.00034665
3115.38	0.0005072
3125.03	0.0005412
3134.67	0.0005241
3144.32	0.0005086
3153.96	0.0004063
3163.61	0.0004274
3173.25	0.0005002
3182.9	0.0005157
3192.54	0.0005494
3202.19	0.0005495
3211.83	0.000558
3221.48	0.0006345
3231.12	0.000566
3240.77	0.0005076
3250.41	0.00036877
3260.06	0.0006864
3269.7	0.0007708
3279.35	0.0007168
3289	0.0007003
3298.64	0.0006925
3308.29	0.000726
3317.93	0.0007143
3327.58	0.0007108
3337.22	0.0007329
3346.87	0.0009747
3356.51	0.0009024
3366.16	0.001399
3375.8	0.002669
3385.45	0.003319
3395.09	0.002909
3404.74	0.001999
3414.38	0.001779
3424.03	0.001459
3433.67	0.0009434
3443.32	0.0008881
3452.96	0.0006388
3462.61	0.0008159
3472.25	0.0008494
3481.9	0.0006748
3491.54	0.0007198
3501.19	0.0008354
3510.83	0.0009121
3520.48	0.0007729
3530.12	0.0007926
3539.77	0.0007313
3549.41	0.0007229
3559.06	0.00071
3568.7	0.0007516
3578.35	0.0007141
3587.99	0.0007855
3597.64	0.0006518
3607.28	0.0006907
3616.93	0.0005674
3626.57	0.0008021
3636.22	0.0006328
3645.86	0.0007242
3655.51	0.0006894
3665.15	0.0006961
3674.8	0.0007075
3684.44	0.0006905
3694.09	0.0007675
3703.73	0.0006641
3713.38	0.0007196
3723.02	0.0007006
3732.67	0.0008496
3742.31	0.0007293
3751.96	0.0005848
3761.6	0.0006349
3771.25	0.0006214
3780.89	0.0008392
3790.54	0.0006355
3800.18	0.0007759
3809.83	0.0006421
3819.47	0.0006667
3829.12	0.0005416
3838.76	0.0005623
3848.41	0.0005392
3858.05	0.0004794
3867.7	0.0006672
3877.34	0.0006492
3886.99	0.0006546
3896.63	0.0006434
3906.28	0.0005681
3915.92	0.0007063
3925.57	0.0006255
3935.21	0.0005827
3944.86	0.0006349
3954.5	0.0005237
3964.15	0.0005556
3973.79	0.0004924
3983.44	0.0004738
3993.08	0.000436
