Infrared Spectrum: 1,2,4,4-Tetramethylcyclopentene
Formula: C 9 H 16
CAS: 65378-76-9
State: gas
Instrument: HP-GC/MS/IRD
Origin: NIST Mass Spectrometry Data Center
1/CM	ABSORBANCE
550	0.0002754
562	8.84e-05
574	0.000136
586	0.0002057
598	0.0002312
610	0.0002482
622	0.0001598
634	0.0002312
646	8.33e-05
658	6.12e-05
670	0.0001785
682	0.000187
694	0.0001394
706	0.0001853
718	0.0002176
730	0.0002278
742	0.0002516
754	0.0002516
766	0.0002737
778	0.0002686
790	0.0002142
802	0.0001785
814	0.0002023
826	0.0002057
838	0.0001921
850	0.0002329
862	0.000204
874	0.0002669
886	0.0002771
898	0.0002907
910	0.0003196
922	0.000374
934	0.0003247
946	0.0003553
958	0.0003961
970	0.000374
982	0.0003366
994	0.0002924
1006	0.0002414
1018	0.0002312
1030	0.0002465
1042	0.0002397
1054	0.0002771
1066	0.0002992
1078	0.000357
1090	0.0003655
1102	0.0003502
1114	0.0002329
1126	0.0002873
1138	0.0004029
1150	0.0007786
1162	0.0010523
1174	0.00068
1186	0.0004148
1198	0.0004811
1210	0.0006868
1222	0.0009316
1234	0.0008109
1246	0.0005338
1258	0.0006018
1270	0.0006715
1282	0.0005984
1294	0.0008959
1306	0.0016898
1318	0.0016847
1330	0.0009826
1342	0.000816
1354	0.0012852
1366	0.0022134
1378	0.0022236
1390	0.0017136
1402	0.0008177
1414	0.0006987
1426	0.0010948
1438	0.0018275
1450	0.0023851
1462	0.0021675
1474	0.0014977
1486	0.0008313
1498	0.0004998
1510	0.0003893
1522	0.0003519
1534	0.0003842
1546	0.0004488
1558	0.0004267
1570	0.0004114
1582	0.0003468
1594	0.0003162
1606	0.0002618
1618	0.0002278
1630	0.0001819
1642	0.0002142
1654	0.0001768
1666	0.0001751
1678	0.0001972
1690	0.0002278
1702	0.0001904
1714	0.0001581
1726	0.0001326
1738	0.0001496
1750	0.0001547
1762	0.0001445
1774	0.0001496
1786	0.0001309
1798	0.0001445
1810	0.000119
1822	0.0001275
1834	0.0001071
1846	0.0001105
1858	0.000102
1870	0.0001207
1882	0.0001173
1894	0.000119
1906	0.0001054
1918	0.0001207
1930	7.82e-05
1942	0.0001003
1954	9.18e-05
1966	0.0001105
1978	0.0001054
1990	8.84e-05
2002	9.52e-05
2014	6.46e-05
2026	7.82e-05
2038	6.46e-05
2050	7.82e-05
2062	6.63e-05
2074	4.93e-05
2086	5.44e-05
2098	6.46e-05
2110	4.59e-05
2122	5.27e-05
2134	5.95e-05
2146	4.42e-05
2158	4.59e-05
2170	4.76e-05
2182	2.72e-05
2194	5.78e-05
2206	5.1e-05
2218	3.4e-05
2230	3.91e-05
2242	4.08e-05
2254	4.76e-05
2266	5.61e-05
2278	6.63e-05
2290	4.25e-05
2302	6.97e-05
2314	8.5e-05
2326	6.97e-05
2338	9.18e-05
2350	0.0001054
2362	9.69e-05
2374	0.0001105
2386	0.0001122
2398	0.0001275
2410	0.0001173
2422	0.0001343
2434	9.69e-05
2446	0.000102
2458	0.0001173
2470	0.000119
2482	0.0001241
2494	0.0001309
2506	0.0001394
2518	0.0001479
2530	0.0001632
2542	0.0001751
2554	0.000153
2566	0.0001683
2578	0.0001717
2590	0.0001938
2602	0.0002006
2614	0.0002601
2626	0.0002567
2638	0.0002448
2650	0.0002805
2662	0.0002822
2674	0.000306
2686	0.0003553
2698	0.0003468
2710	0.0004012
2722	0.0005168
2734	0.0006494
2746	0.0007344
2758	0.0006885
2770	0.0006477
2782	0.0007888
2794	0.0010489
2806	0.0015776
2818	0.003179
2830	0.007191
2842	0.0099399
2854	0.0096696
2866	0.0118065
2878	0.0142834
2890	0.0131546
2902	0.0122672
2914	0.0139519
2926	0.0140981
2938	0.0125562
2950	0.0150875
2962	0.0163098
2974	0.0089267
2986	0.0038896
2998	0.0020111
3010	0.0016694
3022	0.0017119
3034	0.0015351
3046	0.0012053
3058	0.0009146
3070	0.0007871
3082	0.0006579
3094	0.0005865
3106	0.0004964
3118	0.000408
3130	0.0003587
3142	0.0003655
3154	0.0003638
3166	0.0003468
3178	0.000357
3190	0.0003842
3202	0.00034
3214	0.0002822
3226	0.0002635
3238	0.0002142
3250	0.0002295
3262	0.0002091
3274	0.0001853
3286	0.0002074
3298	0.0002125
3310	0.0002074
3322	0.0001615
3334	0.0001173
3346	0.0001462
3358	0.0001071
3370	0.0001241
3382	0.0001326
3394	0.0001139
3406	0.0001377
3418	0.0001139
3430	9.69e-05
3442	7.48e-05
3454	0.0001139
3466	0.0001156
3478	0.0001088
3490	9.52e-05
3502	8.33e-05
3514	9.69e-05
3526	4.25e-05
3538	6.97e-05
3550	6.46e-05
3562	9.69e-05
3574	3.4e-05
3586	4.08e-05
3598	8.84e-05
3610	8.67e-05
3622	4.76e-05
3634	9.69e-05
3646	5.61e-05
3658	7.82e-05
3670	8.67e-05
3682	6.8e-05
3694	7.31e-05
3706	0.0001139
3718	9.69e-05
3730	8.33e-05
3742	0.0001241
3754	0.0001139
3766	7.31e-05
3778	8.84e-05
3790	0.0001105
3802	7.82e-05
3814	0.0001326
3826	0.0001037
3838	0.0001003
