Infrared Spectrum: 2,6-Dimethylhydroquinone
Formula: C 8 H 10 O 2
CAS: 654-42-2
State: gas
Origin: EPA-IR VAPOR PHASE LIBRARY
1/CM	ABSORBANCE
549.8	0.00261
559.445	0.00344
569.09	0.00683
578.734	0.00996
588.379	0.01006
598.024	0.00577
607.669	0.00296
617.313	0.00185
626.958	0.00187
636.603	0.00178
646.248	0.0015
655.893	0.00123
665.537	0.00137
675.182	0.00171
684.827	0.00173
694.472	0.00266
704.116	0.00464
713.761	0.0074
723.406	0.00493
733.051	0.00418
742.695	0.00467
752.34	0.01229
761.985	0.03029
771.63	0.03141
781.275	0.0129
790.919	0.00324
800.564	0.00246
810.209	0.0039
819.854	0.00731
829.498	0.01345
839.143	0.0155
848.788	0.01856
858.433	0.02086
868.078	0.01118
877.722	0.00462
887.367	0.00227
897.012	0.0025
906.657	0.00293
916.301	0.00341
925.946	0.00506
935.591	0.00851
945.236	0.00973
954.88	0.00723
964.525	0.00616
974.17	0.00653
983.815	0.00786
993.46	0.01134
1003.1	0.01772
1012.75	0.03095
1022.39	0.03455
1032.04	0.02335
1041.68	0.01036
1051.33	0.00671
1060.97	0.00597
1070.62	0.00573
1080.26	0.00647
1089.91	0.00579
1099.55	0.00625
1109.2	0.00694
1118.84	0.00901
1128.49	0.01819
1138.13	0.03355
1147.78	0.03598
1157.42	0.02732
1167.07	0.05462
1176.71	0.13099
1186.36	0.18154
1196	0.13554
1205.64	0.06552
1215.29	0.04726
1224.93	0.05187
1234.58	0.05201
1244.22	0.04076
1253.87	0.03186
1263.51	0.03879
1273.16	0.03582
1282.8	0.02218
1292.45	0.01691
1302.09	0.01778
1311.74	0.02048
1321.38	0.02595
1331.03	0.02625
1340.67	0.01734
1350.32	0.00935
1359.96	0.00627
1369.61	0.0051
1379.25	0.00591
1388.9	0.00647
1398.54	0.00589
1408.18	0.00813
1417.83	0.01469
1427.47	0.02545
1437.12	0.03501
1446.76	0.0384
1456.41	0.04108
1466.05	0.05257
1475.7	0.07571
1485.34	0.0917
1494.99	0.07031
1504.63	0.03276
1514.28	0.01545
1523.92	0.01252
1533.57	0.01164
1543.21	0.01044
1552.86	0.00935
1562.5	0.0088
1572.15	0.00943
1581.79	0.01168
1591.44	0.0158
1601.08	0.01991
1610.73	0.02164
1620.37	0.01922
1630.01	0.01261
1639.66	0.0074
1649.3	0.00532
1658.95	0.00457
1668.59	0.00412
1678.24	0.00359
1687.88	0.00294
1697.53	0.00331
1707.17	0.00404
1716.82	0.00396
1726.46	0.00293
1736.11	0.00176
1745.75	0.00125
1755.4	0.00104
1765.04	0.0009873
1774.69	0.0009516
1784.33	0.000807
1793.98	0.0007143
1803.62	0.0005797
1813.27	0.000565
1822.91	0.0005876
1832.55	0.0005401
1842.2	0.00058
1851.84	0.0005482
1861.49	0.0005848
1871.13	0.000685
1880.78	0.0007344
1890.42	0.0009437
1900.07	0.00124
1909.71	0.00117
1919.36	0.0008449
1929	0.0005097
1938.65	0.0005934
1948.29	0.0008561
1957.94	0.0008777
1967.58	0.0008062
1977.23	0.0005602
1986.87	0.0004374
1996.52	0.0004979
2006.16	0.0004441
2015.81	0.0003422
2025.45	0.0004232
2035.1	0.0003369
2044.74	0.0005086
2054.38	0.0006035
2064.03	0.0006683
2073.67	0.0006747
2083.32	0.0006894
2092.96	0.0007933
2102.61	0.0006844
2112.25	0.0006711
2121.9	0.0005732
2131.54	0.000578
2141.19	0.0006145
2150.83	0.000751
2160.48	0.0008917
2170.12	0.0008807
2179.77	0.0007017
2189.41	0.0007407
2199.06	0.0007259
2208.7	0.0006724
2218.35	0.000574
2227.99	0.0005802
2237.64	0.0005172
2247.28	0.0005645
2256.92	0.0006137
2266.57	0.0006033
2276.21	0.0006093
2285.86	0.0006962
2295.5	0.0005838
2305.15	0.0007125
2314.79	0.0007629
2324.44	0.00101
2334.08	0.00118
2343.73	0.00127
2353.37	0.00156
2363.02	0.00159
2372.66	0.00146
2382.31	0.00127
2391.95	0.00121
2401.6	0.00109
2411.24	0.00123
2420.89	0.00111
2430.53	0.0011
2440.18	0.00127
2449.82	0.00154
2459.47	0.00169
2469.11	0.00166
2478.75	0.00139
2488.4	0.001
2498.04	0.0009325
2507.69	0.0009419
2517.33	0.0007681
2526.98	0.0007827
2536.62	0.0006209
2546.27	0.0006767
2555.91	0.0007885
2565.56	0.0006984
2575.2	0.0006466
2584.85	0.000672
2594.49	0.0005544
2604.14	0.000671
2613.78	0.0007198
2623.43	0.0008044
2633.07	0.0007358
2642.72	0.00067
2652.36	0.0005527
2662.01	0.0005412
2671.65	0.0005372
2681.29	0.0006009
2690.94	0.0005052
2700.58	0.0008268
2710.23	0.0008887
2719.87	0.0009163
2729.52	0.00125
2739.16	0.00184
2748.81	0.00212
2758.45	0.00169
2768.1	0.0009487
2777.74	0.00109
2787.39	0.00116
2797.03	0.00125
2806.68	0.00157
2816.32	0.00201
2825.97	0.00263
2835.61	0.00343
2845.26	0.00539
2854.9	0.00975
2864.55	0.01485
2874.19	0.01654
2883.84	0.01436
2893.48	0.01324
2903.12	0.01456
2912.77	0.01951
2922.41	0.02754
2932.06	0.0324
2941.7	0.02801
2951.35	0.0194
2960.99	0.01561
2970.64	0.01532
2980.28	0.01664
2989.93	0.01506
2999.57	0.01182
3009.22	0.01253
3018.86	0.01583
3028.51	0.01541
3038.15	0.01208
3047.8	0.0107
3057.44	0.00902
3067.09	0.00643
3076.73	0.0046
3086.38	0.00329
3096.02	0.00258
3105.67	0.00179
3115.31	0.00141
3124.95	0.00112
3134.6	0.001
3144.24	0.0006526
3153.89	0.0005677
3163.53	0.0006831
3173.18	0.0003326
3182.82	0.0003761
3192.47	0.000414
3202.11	0.0004023
3211.76	0.0003296
3221.4	0.0002029
3231.05	0.0002847
3240.69	0.0005157
3250.34	0.0003497
3259.98	0.0003859
3269.63	0.0003622
3279.27	0.000392
3288.92	0.0003703
3298.56	0.0004244
3308.21	0.0005768
3317.85	0.0004423
3327.49	0.0004027
3337.14	0.0003909
3346.78	0.0006106
3356.43	0.000709
3366.07	0.0006241
3375.72	0.0007408
3385.36	0.00127
3395.01	0.00133
3404.65	0.00152
3414.3	0.00159
3423.94	0.00151
3433.59	0.00144
3443.23	0.00159
3452.88	0.00149
3462.52	0.00143
3472.17	0.00108
3481.81	0.0011
3491.46	0.0006786
3501.1	0.0007221
3510.75	0.0008668
3520.39	0.0007899
3530.04	0.0008244
3539.68	0.0005123
3549.32	0.0004872
3558.97	0.0004875
3568.61	0.000444
3578.26	0.0007729
3587.9	0.0008098
3597.55	0.00135
3607.19	0.0021
3616.84	0.00389
3626.48	0.00752
3636.13	0.01974
3645.77	0.05438
3655.42	0.07448
3665.06	0.05279
3674.71	0.0131
3684.35	0.00415
3694	0.002
3703.64	0.00131
3713.29	0.0007888
3722.93	0.0007685
3732.58	0.000538
3742.22	0.0004965
3751.86	0.0006567
3761.51	0.0007021
3771.15	0.0007852
3780.8	0.0008616
3790.44	0.0009909
3800.09	0.0009841
3809.73	0.0009473
3819.38	0.00117
3829.02	0.00126
3838.67	0.00125
3848.31	0.00135
3857.96	0.00133
3867.6	0.00111
3877.25	0.0009289
3886.89	0.00105
3896.54	0.00103
3906.18	0.0009114
3915.83	0.0009513
3925.47	0.0009198
3935.12	0.0008072
3944.76	0.000591
3954.41	0.0006377
3964.05	0.0005187
3973.69	0.0003741
3983.34	0.000616
3992.98	0.0005851
