Infrared Spectrum: Purine, 6-(2,2,2-trifluoroethylthio)-
Formula: C7 H5 F3 N4 S
CAS: 654-18-2
State: SOLID (0.8 mg / 650 mg KBr DISC)
Class: COBLENTZ III
Instrument: PERKIN-ELMER 21 (GRATING)
Instrument parameters: FILTER CHANGE ABOUT 1025 CM^-^1
Sampling: TRANSMISSION
Resolution: 2
Origin: SOUTHERN RESEARCH INSTITUTE
1/CM	TRANSMITTANCE
603	0.5934
612.032	0.6317
621.064	0.6201
630.095	0.5878
639.127	0.4191
648.159	0.3742
657.191	0.7126
666.223	0.7136
675.254	0.6556
684.286	0.7
693.318	0.7818
702.35	0.7865
711.382	0.7898
720.413	0.7926
729.445	0.7954
738.477	0.7979
747.509	0.7983
756.54	0.7951
765.572	0.7832
774.604	0.7222
783.636	0.6852
792.668	0.6811
801.699	0.7588
810.731	0.7623
819.763	0.7078
828.795	0.5682
837.827	0.4156
846.858	0.4232
855.89	0.6522
864.922	0.6199
873.954	0.5701
882.986	0.675
892.017	0.7668
901.049	0.7584
910.081	0.7163
919.113	0.6814
928.145	0.5607
937.176	0.3852
946.208	0.3165
955.24	0.6064
964.272	0.8144
973.304	0.8141
982.335	0.792
991.367	0.6977
1000.4	0.7869
1009.43	0.7891
1018.46	0.7809
1027.49	0.7933
1036.53	0.774
1045.56	0.7132
1054.59	0.6286
1063.62	0.4863
1072.65	0.3415
1081.69	0.2335
1090.72	0.3933
1099.75	0.5963
1108.78	0.6127
1117.81	0.5897
1126.84	0.4718
1135.88	0.2922
1144.91	0.1126
1153.94	0.1515
1162.97	0.2552
1172	0.5826
1181.03	0.6453
1190.07	0.6735
1199.1	0.6583
1208.13	0.5582
1217.16	0.3877
1226.19	0.2172
1235.23	0.1394
1244.26	0.2975
1253.29	0.4081
1262.32	0.3969
1271.35	0.3783
1280.38	0.5221
1289.42	0.6621
1298.45	0.6566
1307.48	0.2725
1316.51	0.2029
1325.54	0.2545
1334.58	0.4513
1343.61	0.658
1352.64	0.7832
1361.67	0.7938
1370.7	0.728
1379.73	0.4556
1388.77	0.2607
1397.8	0.6314
1406.83	0.6707
1415.86	0.6262
1424.89	0.5428
1433.92	0.6384
1442.96	0.7036
1451.99	0.7887
1461.02	0.7961
1470.05	0.731
1479.08	0.6893
1488.12	0.8032
1497.15	0.8153
1506.18	0.8169
1515.21	0.8069
1524.24	0.7911
1533.27	0.7651
1542.31	0.6886
1551.34	0.5999
1560.37	0.3098
1569.4	0.1535
1578.43	0.2893
1587.47	0.492
1596.5	0.5069
1605.53	0.6442
1614.56	0.6872
1623.59	0.7177
1632.62	0.7628
1641.66	0.7903
1650.69	0.8005
1659.72	0.8166
1668.75	0.8277
1677.78	0.8352
1686.82	0.8343
1695.85	0.8253
1704.88	0.8173
1713.91	0.8091
1722.94	0.8004
1731.97	0.7934
1741.01	0.789
1750.04	0.7842
1759.07	0.7766
1768.1	0.7761
1777.13	0.7797
1786.16	0.7845
1795.2	0.789
1804.23	0.7914
1813.26	0.7927
1822.29	0.8024
1831.32	0.8084
1840.36	0.8144
1849.39	0.8214
1858.42	0.8254
1867.45	0.8298
1876.48	0.8267
1885.51	0.8209
1894.55	0.8184
1903.58	0.8324
1912.61	0.8452
1921.64	0.8517
1930.67	0.8571
1939.71	0.8595
1948.74	0.8613
1957.77	0.8609
1966.8	0.8605
1975.83	0.8605
1984.86	0.8604
1993.9	0.8628
2002.93	0.8667
2011.96	0.8678
2020.99	0.8677
2030.02	0.8672
2039.06	0.8663
2048.09	0.8648
2057.12	0.8611
2066.15	0.8572
2075.18	0.8534
2084.21	0.8496
2093.25	0.8457
2102.28	0.8419
2111.31	0.8378
2120.34	0.8332
2129.37	0.8287
2138.4	0.8241
2147.44	0.8188
2156.47	0.8133
2165.5	0.8074
2174.53	0.8012
2183.56	0.795
2192.6	0.7869
2201.63	0.7782
2210.66	0.7695
2219.69	0.7583
2228.72	0.7479
2237.75	0.7387
2246.79	0.727
2255.82	0.7144
2264.85	0.7002
2273.88	0.6905
2282.91	0.6846
2291.95	0.6804
2300.98	0.6767
2310.01	0.6703
2319.04	0.6578
2328.07	0.6369
2337.1	0.6173
2346.14	0.6054
2355.17	0.5995
2364.2	0.5942
2373.23	0.5887
2382.26	0.582
2391.29	0.5732
2400.33	0.5688
2409.36	0.5669
2418.39	0.5656
2427.42	0.5631
2436.45	0.5571
2445.49	0.5491
2454.52	0.5409
2463.55	0.5325
2472.58	0.5211
2481.61	0.5074
2490.64	0.4941
2499.68	0.4809
2508.71	0.465
2517.74	0.4561
2526.77	0.4523
2535.8	0.4507
2544.84	0.4497
2553.87	0.4522
2562.9	0.4547
2571.93	0.46
2580.96	0.4797
2589.99	0.4901
2599.03	0.4868
2608.06	0.478
2617.09	0.4658
2626.12	0.4551
2635.15	0.4484
2644.19	0.443
2653.22	0.4386
2662.25	0.4385
2671.28	0.4429
2680.31	0.4502
2689.34	0.4606
2698.38	0.4784
2707.41	0.4963
2716.44	0.5081
2725.47	0.4946
2734.5	0.4666
2743.53	0.4506
2752.57	0.441
2761.6	0.4376
2770.63	0.4393
2779.66	0.442
2788.69	0.4503
2797.73	0.4704
2806.76	0.5023
2815.79	0.5278
2824.82	0.5447
2833.85	0.5601
2842.88	0.5767
2851.92	0.592
2860.95	0.6022
2869.98	0.6114
2879.01	0.6164
2888.04	0.6173
2897.08	0.6111
2906.11	0.5959
2915.14	0.58
2924.17	0.561
2933.2	0.533
2942.23	0.5137
2951.27	0.5186
2960.3	0.5316
2969.33	0.5492
2978.36	0.5642
2987.39	0.5847
2996.43	0.6109
3005.46	0.6333
3014.49	0.6394
3023.52	0.6316
3032.55	0.6167
3041.58	0.6007
3050.62	0.5877
3059.65	0.5804
3068.68	0.5862
3077.71	0.6083
3086.74	0.6318
3095.77	0.6509
3104.81	0.665
3113.84	0.6819
3122.87	0.6964
3131.9	0.7101
3140.93	0.7197
3149.97	0.7264
3159	0.7315
3168.03	0.7353
3177.06	0.7385
3186.09	0.7449
3195.12	0.7519
3204.16	0.76
3213.19	0.768
3222.22	0.7752
3231.25	0.7802
3240.28	0.7814
3249.32	0.7826
3258.35	0.7831
3267.38	0.7834
3276.41	0.7834
3285.44	0.7825
3294.47	0.7814
3303.51	0.7792
3312.54	0.775
3321.57	0.7647
3330.6	0.7547
3339.63	0.7442
3348.66	0.7423
3357.7	0.7297
3366.73	0.7139
3375.76	0.7018
3384.79	0.6912
3393.82	0.6829
3402.86	0.6771
3411.89	0.6725
3420.92	0.6682
3429.95	0.6668
3438.98	0.6674
3448.01	0.6702
3457.05	0.6739
3466.08	0.6798
3475.11	0.6828
3484.14	0.6893
3493.17	0.6984
3502.21	0.7087
3511.24	0.7189
3520.27	0.7291
3529.3	0.7373
3538.33	0.7448
3547.36	0.7519
3556.4	0.7595
3565.43	0.7692
3574.46	0.7797
3583.49	0.7919
3592.52	0.8028
3601.56	0.8135
3610.59	0.8239
3619.62	0.8334
3628.65	0.8439
3637.68	0.8514
3646.71	0.8528
3655.75	0.8563
3664.78	0.8579
3673.81	0.8586
3682.84	0.8593
3691.87	0.8606
3700.9	0.8625
3709.94	0.8679
3718.97	0.8692
3728	0.8699
3737.03	0.8705
3746.06	0.8711
3755.1	0.8715
3764.13	0.8719
3773.16	0.8727
3782.19	0.8737
3791.22	0.8739
3800.25	0.8724
3809.29	0.8699
3818.32	0.8667
3827.35	0.8629
3836.38	0.8619
3845.41	0.8616
3854.45	0.8619
3863.48	0.8625
3872.51	0.8631
3881.54	0.8635
3890.57	0.8638
3899.6	0.8641
3908.64	0.8643
3917.67	0.8644
3926.7	0.864
3935.73	0.8636
3944.76	0.8623
3953.8	0.8604
3962.83	0.8575
3971.86	0.8565
3980.89	0.8599
3989.92	0.8587
3998.95	0.8597
4007.99	0.8607
