Infrared Spectrum: 5-Amino-2-cyanobenzotrifluoride
Formula: C 8 H 5 F 3 N 2
CAS: 654-70-6
State: gas
Origin: EPA-IR VAPOR PHASE LIBRARY
1/CM	ABSORBANCE
549.8	0.010218
559.445	0.006688
569.09	0.004898
578.734	0.004368
588.379	0.005148
598.024	0.006088
607.669	0.006108
617.313	0.004958
626.958	0.004648
636.603	0.005608
646.248	0.006738
655.893	0.007918
665.537	0.011218
675.182	0.017658
684.827	0.018798
694.472	0.012038
704.116	0.009078
713.761	0.009758
723.406	0.008528
733.051	0.007018
742.695	0.007908
752.34	0.008698
761.985	0.005428
771.63	0.005228
781.275	0.005418
790.919	0.005338
800.564	0.005148
810.209	0.007268
819.854	0.012168
829.498	0.013528
839.143	0.007768
848.788	0.004508
858.433	0.005408
868.078	0.008668
877.722	0.011468
887.367	0.006718
897.012	0.005178
906.657	0.008788
916.301	0.008968
925.946	0.004218
935.591	0.002028
945.236	0.002368
954.88	0.002978
964.525	0.002458
974.17	0.002158
983.815	0.001978
993.46	0.002068
1003.1	0.002078
1012.75	0.001988
1022.39	0.0014616
1032.04	0.004878
1041.68	0.017798
1051.33	0.023588
1060.97	0.009408
1070.62	0.004228
1080.26	0.004348
1089.91	0.002818
1099.55	0.002668
1109.2	0.005118
1118.84	0.007838
1128.49	0.010848
1138.13	0.025298
1147.78	0.055178
1157.42	0.076438
1167.07	0.095048
1176.71	0.101428
1186.36	0.074898
1196	0.043728
1205.64	0.024938
1215.29	0.016948
1224.93	0.010228
1234.58	0.011028
1244.22	0.018608
1253.87	0.040068
1263.51	0.058178
1273.16	0.039058
1282.8	0.013538
1292.45	0.006808
1302.09	0.006618
1311.74	0.008948
1321.38	0.023118
1331.03	0.074228
1340.67	0.087368
1350.32	0.026968
1359.96	0.006578
1369.61	0.005188
1379.25	0.005498
1388.9	0.004298
1398.54	0.002698
1408.18	0.002268
1417.83	0.002548
1427.47	0.003878
1437.12	0.009038
1446.76	0.019788
1456.41	0.020528
1466.05	0.008248
1475.7	0.004498
1485.34	0.006868
1494.99	0.014758
1504.63	0.021368
1514.28	0.014738
1523.92	0.006138
1533.57	0.002928
1543.21	0.002278
1552.86	0.002978
1562.5	0.004808
1572.15	0.006038
1581.79	0.007058
1591.44	0.010288
1601.08	0.015398
1610.73	0.022378
1620.37	0.038668
1630.01	0.058928
1639.66	0.044688
1649.3	0.018048
1658.95	0.008068
1668.59	0.004658
1678.24	0.003358
1687.88	0.003228
1697.53	0.002858
1707.17	0.002558
1716.82	0.002258
1726.46	0.002168
1736.11	0.002458
1745.75	0.002538
1755.4	0.002178
1765.04	0.002188
1774.69	0.001978
1784.33	0.001658
1793.98	0.0013873
1803.62	0.0013609
1813.27	0.0015604
1822.91	0.0014636
1832.55	0.0013147
1842.2	0.0011999
1851.84	0.0011742
1861.49	0.0011818
1871.13	0.0013117
1880.78	0.0012389
1890.42	0.001828
1900.07	0.002058
1909.71	0.001548
1919.36	0.0013881
1929	0.0015083
1938.65	0.0014819
1948.29	0.0012161
1957.94	0.0014428
1967.58	0.0013598
1977.23	0.0010818
1986.87	0.0012246
1996.52	0.0013457
2006.16	0.0013613
2015.81	0.0013093
2025.45	0.001117
2035.1	0.0010663
2044.74	0.001294
2054.38	0.0014447
2064.03	0.0014418
2073.67	0.0013237
2083.32	0.0012571
2092.96	0.0012275
2102.61	0.0008025
2112.25	0.0009761
2121.9	0.0010645
2131.54	0.000971
2141.19	0.0010419
2150.83	0.0009432
2160.48	0.0011382
2170.12	0.0014081
2179.77	0.0012899
2189.41	0.0011553
2199.06	0.0011312
2208.7	0.0013784
2218.35	0.002978
2227.99	0.005848
2237.64	0.005668
2247.28	0.002558
2256.92	0.001708
2266.57	0.0009926
2276.21	0.0010687
2285.86	0.0011079
2295.5	0.0011643
2305.15	0.0009914
2314.79	0.0012615
2324.44	0.0012488
2334.08	0.0011124
2343.73	0.0012641
2353.37	0.0012207
2363.02	0.0013336
2372.66	0.0011494
2382.31	0.0010045
2391.95	0.0012997
2401.6	0.0009746
2411.24	0.0008766
2420.89	0.00064177
2430.53	0.0010911
2440.18	0.0009328
2449.82	0.0007333
2459.47	0.0008493
2469.11	0.0010864
2478.75	0.0008914
2488.4	0.0007434
2498.04	0.00067704
2507.69	0.0010191
2517.33	0.0010222
2526.98	0.0011501
2536.62	0.0011291
2546.27	0.001001
2555.91	0.0010076
2565.56	0.0010794
2575.2	0.0011399
2584.85	0.0012356
2594.49	0.001176
2604.14	0.0009925
2613.78	0.0011881
2623.43	0.0013137
2633.07	0.001648
2642.72	0.0011756
2652.36	0.0011517
2662.01	0.0011101
2671.65	0.0007423
2681.29	0.000911
2690.94	0.0009897
2700.58	0.0009312
2710.23	0.0010687
2719.87	0.0009516
2729.52	0.0008592
2739.16	0.0009125
2748.81	0.00058949
2758.45	0.0007351
2768.1	0.0007101
2777.74	0.0005562
2787.39	0.0005125
2797.03	0.0004962
2806.68	0.0008323
2816.32	0.00064057
2825.97	0.0007249
2835.61	0.0010267
2845.26	0.000772
2854.9	0.0007854
2864.55	0.0007513
2874.19	0.0009059
2883.84	0.0008733
2893.48	0.000841
2903.12	0.0010503
2912.77	0.00063376
2922.41	0.0007314
2932.06	0.0005119
2941.7	0.0009559
2951.35	0.0011355
2960.99	0.0006421
2970.64	0.0010589
2980.28	0.000671
2989.93	0.0007376
2999.57	0.0007852
3009.22	0.001039
3018.86	0.001668
3028.51	0.0011276
3038.15	0.001758
3047.8	0.002828
3057.44	0.003108
3067.09	0.002108
3076.73	0.002308
3086.38	0.002008
3096.02	0.001187
3105.67	0.0011318
3115.31	0.0011157
3124.95	0.0011452
3134.6	0.0008962
3144.24	0.0009438
3153.89	0.0005679
3163.53	0.0010596
3173.18	0.0011485
3182.82	0.0008198
3192.47	0.0012697
3202.11	0.001598
3211.76	0.0013819
3221.4	0.001608
3231.05	0.0014675
3240.69	0.00123
3250.34	0.0010194
3259.98	0.0013454
3269.63	0.00064981
3279.27	0.0011004
3288.92	0.0008034
3298.56	0.000339
3308.21	0.0008681
3317.85	0.00061868
3327.49	0.0009554
3337.14	0.0012112
3346.78	0.00058827
3356.43	0.0015131
3366.07	0.0008933
3375.72	0.0012261
3385.36	0.001304
3395.01	0.002168
3404.65	0.004398
3414.3	0.007768
3423.94	0.010638
3433.59	0.009678
3443.23	0.009218
3452.88	0.005908
3462.52	0.002148
3472.17	0.001698
3481.81	0.002068
3491.46	0.002148
3501.1	0.004048
3510.75	0.004268
3520.39	0.003728
3530.04	0.003598
3539.68	0.003638
3549.32	0.003198
3558.97	0.0010128
3568.61	0.0008486
3578.26	0.0007984
3587.9	0.000411
3597.55	0.000203
3607.19	0.000375
3616.84	0.0005599
3626.48	0.0007001
3636.13	0.00036
3645.77	0.00065453
3655.42	0.000203
3665.06	0.0007719
3674.71	0.00057396
3684.35	0.000341
3694	0.000987
3703.64	0.0007831
3713.29	0.0006318
3722.93	0.00064854
3732.58	0.00066303
3742.22	0.0004929
3751.86	0.0010466
3761.51	0.0011493
3771.15	0.0007292
3780.8	0.0011601
3790.44	0.0007886
3800.09	0.0008625
3809.73	0.0008267
3819.38	0.0008189
3829.02	0.0013204
3838.67	0.0012168
3848.31	0.0008635
3857.96	0.0008887
3867.6	0.0013807
3877.25	0.0012922
3886.89	0.0013023
3896.54	0.0008477
3906.18	0.0007267
3915.83	0.00064714
3925.47	0.0010805
3935.12	0.0010964
3944.76	0.00111
3954.41	0.0007455
3964.05	0.0008569
3973.69	0.0009186
3983.34	0.0010357
3992.98	0.0011436
