Infrared Spectrum: 2-Methoxy-5-nitrobenzotrifluoride
Formula: C 8 H 6 F 3 N O 3
CAS: 654-76-2
State: gas
Origin: EPA-IR VAPOR PHASE LIBRARY
1/CM	ABSORBANCE
549.9	0.00615
559.547	0.00592
569.193	0.00632
578.84	0.00605
588.486	0.00536
598.133	0.00618
607.779	0.00792
617.426	0.00966
627.072	0.02485
636.719	0.03841
646.365	0.01701
656.012	0.01571
665.658	0.04674
675.305	0.08072
684.951	0.03142
694.598	0.01506
704.245	0.00922
713.891	0.01072
723.538	0.01718
733.184	0.02998
742.831	0.02111
752.477	0.01669
762.124	0.01556
771.77	0.00796
781.417	0.0063
791.063	0.01146
800.71	0.02912
810.356	0.01751
820.003	0.022
829.649	0.02912
839.296	0.01545
848.943	0.00775
858.589	0.00616
868.236	0.0063
877.882	0.00851
887.529	0.02382
897.175	0.02914
906.822	0.01394
916.468	0.0267
926.115	0.03451
935.761	0.01363
945.408	0.00631
955.054	0.00642
964.701	0.00787
974.347	0.00964
983.994	0.01129
993.64	0.01535
1003.29	0.0245
1012.93	0.04288
1022.58	0.06524
1032.23	0.06189
1041.87	0.0641
1051.52	0.14429
1061.17	0.13872
1070.81	0.04304
1080.46	0.02224
1090.11	0.02154
1099.75	0.03359
1109.4	0.08578
1119.05	0.18194
1128.69	0.17987
1138.34	0.18946
1147.99	0.21086
1157.63	0.29945
1167.28	0.37995
1176.92	0.17739
1186.57	0.07739
1196.22	0.04595
1205.86	0.03294
1215.51	0.02913
1225.16	0.03129
1234.8	0.03921
1244.45	0.06127
1254.1	0.10504
1263.74	0.17663
1273.39	0.35079
1283.04	0.60332
1292.68	0.3742
1302.33	0.13963
1311.98	0.15472
1321.62	0.23354
1331.27	0.22565
1340.92	0.17922
1350.56	0.25122
1360.21	0.17572
1369.86	0.05747
1379.5	0.02897
1389.15	0.02629
1398.79	0.03191
1408.44	0.04608
1418.09	0.07382
1427.73	0.09036
1437.38	0.07869
1447.03	0.05505
1456.67	0.04541
1466.32	0.06593
1475.97	0.08065
1485.61	0.12511
1495.26	0.22457
1504.91	0.16851
1514.55	0.06053
1524.2	0.04754
1533.85	0.09731
1543.49	0.19391
1553.14	0.14178
1562.79	0.05039
1572.43	0.04305
1582.08	0.07161
1591.73	0.1361
1601.37	0.16752
1611.02	0.14487
1620.67	0.14377
1630.31	0.06581
1639.96	0.02831
1649.6	0.01735
1659.25	0.01258
1668.9	0.01005
1678.54	0.00816
1688.19	0.0071
1697.84	0.00598
1707.48	0.0049015
1717.13	0.0044627
1726.78	0.00406686
1736.42	0.0039582
1746.07	0.0039116
1755.72	0.0039372
1765.36	0.00398969
1775.01	0.0043216
1784.66	0.0042704
1794.3	0.0039358
1803.95	0.003781
1813.6	0.0041037
1823.24	0.0047647
1832.89	0.00572
1842.54	0.00622
1852.18	0.0049597
1861.83	0.003568
1871.47	0.003464
1881.12	0.00404297
1890.77	0.00499
1900.41	0.00648
1910.06	0.00681
1919.71	0.00553
1929.35	0.0043168
1939	0.003684
1948.65	0.003587
1958.29	0.003639
1967.94	0.003714
1977.59	0.003445
1987.23	0.003251
1996.88	0.003374
2006.53	0.003822
2016.17	0.0044374
2025.82	0.00514
2035.47	0.00619
2045.11	0.00677
2054.76	0.00614
2064.41	0.00552
2074.05	0.00541
2083.7	0.00507
2093.35	0.00398074
2102.99	0.003427
2112.64	0.003339
2122.28	0.003065
2131.93	0.00286
2141.58	0.00273
2151.22	0.00287
2160.87	0.003172
2170.52	0.003626
2180.16	0.003533
2189.81	0.003085
2199.46	0.00294
2209.1	0.00293
2218.75	0.003131
2228.4	0.003331
2238.04	0.003509
2247.69	0.003782
2257.34	0.0039233
2266.98	0.003769
2276.63	0.003691
2286.28	0.003741
2295.92	0.003755
2305.57	0.003874
2315.22	0.003772
2324.86	0.003767
2334.51	0.003777
2344.16	0.003736
2353.8	0.003287
2363.45	0.003075
2373.09	0.002984
2382.74	0.003021
2392.39	0.00295
2402.03	0.00279
2411.68	0.00274
2421.33	0.0029
2430.97	0.003307
2440.62	0.003744
2450.27	0.003846
2459.91	0.00402541
2469.56	0.00397926
2479.21	0.003671
2488.85	0.003374
2498.5	0.003206
2508.15	0.00326
2517.79	0.003443
2527.44	0.0038952
2537.09	0.0045209
2546.73	0.00525
2556.38	0.00532
2566.03	0.0045015
2575.67	0.003668
2585.32	0.003201
2594.96	0.003182
2604.61	0.003292
2614.26	0.003365
2623.9	0.00312
2633.55	0.003328
2643.2	0.003433
2652.84	0.003225
2662.49	0.00282
2672.14	0.00248
2681.78	0.00238
2691.43	0.0024
2701.08	0.00267
2710.72	0.00271
2720.37	0.00272
2730.02	0.00255
2739.66	0.00262
2749.31	0.00281
2758.96	0.00283
2768.6	0.00279
2778.25	0.00272
2787.9	0.00272
2797.54	0.00274
2807.19	0.003129
2816.84	0.003717
2826.48	0.0048702
2836.13	0.0073
2845.77	0.0145
2855.42	0.01933
2865.07	0.01372
2874.71	0.01152
2884.36	0.0113
2894.01	0.01134
2903.65	0.01178
2913.3	0.01302
2922.95	0.01298
2932.59	0.01388
2942.24	0.02115
2951.89	0.03318
2961.53	0.02848
2971.18	0.02225
2980.83	0.01967
2990.47	0.01171
3000.12	0.00837
3009.77	0.00972
3019.41	0.01641
3029.06	0.01549
3038.71	0.00646
3048.35	0.0038982
3058	0.00293
3067.64	0.00275
3077.29	0.003538
3086.94	0.00737
3096.58	0.01428
3106.23	0.01305
3115.88	0.00508
3125.52	0.00215
3135.17	0.0014
3144.82	0.00067
3154.46	0.00042
3164.11	0.00036
3173.76	0.00045
3183.4	0.00047
3193.05	0.00057
3202.7	0.00047
3212.34	0.00067
3221.99	0.00093
3231.64	0.00057
3241.28	0.00057
3250.93	0.00039
3260.58	0.00023
3270.22	7e-05
3279.87	0.00019
3289.52	0.00028
3299.16	0.00032
3308.81	0.00039
3318.45	0.00028
3328.1	0.00048
3337.75	0.00054
3347.39	0.00055
3357.04	0.00067
3366.69	0.00057
3376.33	0.00092
3385.98	0.00076
3395.63	0.00081
3405.27	0.0007
3414.92	0.00092
3424.57	0.00099
3434.21	0.00096
3443.86	0.0011
3453.51	0.00101
3463.15	0.00114
3472.8	0.00125
3482.45	0.00113
3492.09	0.00122
3501.74	0.00144
3511.39	0.00151
3521.03	0.0015
3530.68	0.00144
3540.33	0.0015
3549.97	0.00152
3559.62	0.0018
3569.26	0.00161
3578.91	0.00174
3588.56	0.0018
3598.2	0.00165
3607.85	0.00182
3617.5	0.00189
3627.14	0.00192
3636.79	0.00196
3646.44	0.00186
3656.08	0.00198
3665.73	0.00208
3675.38	0.00199
3685.02	0.00209
3694.67	0.00213
3704.32	0.00213
3713.96	0.00219
3723.61	0.00213
3733.26	0.00224
3742.9	0.00231
3752.55	0.00225
3762.2	0.00211
3771.84	0.00215
3781.49	0.00216
3791.13	0.00221
3800.78	0.00216
3810.43	0.00204
3820.07	0.00224
3829.72	0.00226
3839.37	0.00213
3849.01	0.00207
3858.66	0.00217
3868.31	0.00222
3877.95	0.00225
3887.6	0.00238
3897.25	0.00233
3906.89	0.00234
3916.54	0.00221
3926.19	0.00205
3935.83	0.00225
3945.48	0.00219
3955.13	0.0022
3964.77	0.00224
3974.42	0.00241
3984.07	0.00235
3993.71	0.00248
