Infrared Spectrum: 4-Benzyloxyphenylacetic acid
Formula: C 15 H 14 O 3
CAS: 6547-53-1
State: gas
Origin: EPA-IR VAPOR PHASE LIBRARY
1/CM	ABSORBANCE
551.7	0.00495
563.274	0.00502
574.848	0.0042
586.421	0.00475
597.995	0.0065
609.569	0.00782
621.143	0.00578
632.717	0.00465
644.291	0.00383
655.864	0.00337
667.438	0.00341
679.012	0.00412
690.586	0.00543
702.16	0.0052
713.734	0.00433
725.307	0.00467
736.881	0.00477
748.455	0.00361
760.029	0.00287
771.603	0.00293
783.177	0.00344
794.75	0.00359
806.324	0.00398
817.898	0.00431
829.472	0.00352
841.046	0.00298
852.619	0.00299
864.193	0.00295
875.767	0.00248
887.341	0.00237
898.915	0.00253
910.489	0.00249
922.062	0.00242
933.636	0.00235
945.21	0.00236
956.784	0.0023
968.358	0.00261
979.932	0.00325
991.505	0.00416
1003.08	0.00531
1014.65	0.00704
1026.23	0.00754
1037.8	0.00543
1049.37	0.0038
1060.95	0.00354
1072.52	0.00444
1084.1	0.00631
1095.67	0.01003
1107.24	0.01619
1118.82	0.01575
1130.39	0.00949
1141.97	0.0064
1153.54	0.00506
1165.11	0.00603
1176.69	0.01007
1188.26	0.00614
1199.83	0.00742
1211.41	0.01261
1222.98	0.01681
1234.56	0.01695
1246.13	0.01581
1257.7	0.00987
1269.28	0.00687
1280.85	0.0065
1292.42	0.00657
1304	0.00553
1315.57	0.00461
1327.15	0.00405
1338.72	0.00418
1350.29	0.00443
1361.87	0.00467
1373.44	0.00495
1385.02	0.00401
1396.59	0.00261
1408.16	0.00238
1419.74	0.00259
1431.31	0.00285
1442.88	0.00307
1454.46	0.00343
1466.03	0.00373
1477.61	0.00303
1489.18	0.00378
1500.75	0.00993
1512.33	0.02169
1523.9	0.00597
1535.48	0.00291
1547.05	0.00225
1558.62	0.00215
1570.2	0.00234
1581.77	0.00307
1593.34	0.00315
1604.92	0.00477
1616.49	0.00507
1628.07	0.0024
1639.64	0.0017666
1651.21	0.0016024
1662.79	0.0015646
1674.36	0.001604
1685.93	0.0016332
1697.51	0.00184
1709.08	0.00212
1720.66	0.00263
1732.23	0.00367
1743.8	0.00577
1755.38	0.00897
1766.95	0.01267
1778.53	0.0166
1790.1	0.01355
1801.67	0.00893
1813.25	0.00483
1824.82	0.0028
1836.39	0.00202
1847.97	0.0017558
1859.54	0.0017007
1871.12	0.0016825
1882.69	0.0016191
1894.26	0.0014844
1905.84	0.0013806
1917.41	0.0012967
1928.99	0.0013199
1940.56	0.0013817
1952.13	0.0014391
1963.71	0.0013751
1975.28	0.0012242
1986.85	0.0012499
1998.43	0.0012438
2010	0.0012034
2021.58	0.0011915
2033.15	0.0011759
2044.72	0.0011182
2056.3	0.0010503
2067.87	0.0010172
2079.44	0.0009872
2091.02	0.0009363
2102.59	0.0009303
2114.17	0.0009194
2125.74	0.00081546
2137.31	0.0008268
2148.89	0.00081415
2160.46	0.00082238
2172.04	0.000786945
2183.61	0.00082003
2195.18	0.00080548
2206.76	0.00081538
2218.33	0.00082022
2229.9	0.00081214
2241.48	0.00080927
2253.05	0.000781793
2264.63	0.00082037
2276.2	0.00079894
2287.77	0.00085711
2299.35	0.00082592
2310.92	0.00084853
2322.5	0.0008837
2334.07	0.00085636
2345.64	0.00084859
2357.22	0.00085093
2368.79	0.00080831
2380.36	0.00081998
2391.94	0.000780114
2403.51	0.000783731
2415.09	0.00080039
2426.66	0.00077701
2438.23	0.00080619
2449.81	0.00085914
2461.38	0.00084244
2472.96	0.00084421
2484.53	0.00080396
2496.1	0.00077577
2507.68	0.0007344
2519.25	0.0008154
2530.82	0.00077078
2542.4	0.0007223
2553.97	0.0007419
2565.55	0.0007276
2577.12	0.000658
2588.69	0.0006827
2600.27	0.000666
2611.84	0.000638
2623.41	0.000635
2634.99	0.000619
2646.56	0.000652
2658.14	0.000658
2669.71	0.00066
2681.28	0.000659
2692.86	0.000655
2704.43	0.000655
2716.01	0.0007024
2727.58	0.000656
2739.15	0.00071
2750.73	0.000669
2762.3	0.000663
2773.87	0.000629
2785.45	0.0006913
2797.02	0.0007166
2808.6	0.000643
2820.17	0.00085127
2831.74	0.0009358
2843.32	0.0010194
2854.89	0.0011602
2866.47	0.0015164
2878.04	0.00191
2889.61	0.00204
2901.19	0.00188
2912.76	0.00198
2924.33	0.00226
2935.91	0.00248
2947.48	0.00244
2959.06	0.00203
2970.63	0.0015893
2982.2	0.0013444
2993.78	0.0013687
3005.35	0.0015256
3016.92	0.00198
3028.5	0.00317
3040.07	0.00441
3051.65	0.00299
3063.22	0.00299
3074.79	0.00388
3086.37	0.00248
3097.94	0.00195
3109.52	0.0015183
3121.09	0.0010757
3132.66	0.0007599
3144.24	0.000629
3155.81	0.000521
3167.38	0.000514
3178.96	0.000485
3190.53	0.00049
3202.11	0.000528
3213.68	0.000473
3225.25	0.00051
3236.83	0.000452
3248.4	0.000415
3259.98	0.000384
3271.55	0.000323
3283.12	0.000463
3294.7	0.000339
3306.27	0.000394
3317.84	0.000416
3329.42	0.000412
3340.99	0.00037
3352.57	0.000305
3364.14	0.000306
3375.71	0.000324
3387.29	0.000331
3398.86	0.00041
3410.43	0.000348
3422.01	0.000358
3433.58	0.000315
3445.16	0.000376
3456.73	0.000411
3468.3	0.000404
3479.88	0.00047
3491.45	0.000483
3503.03	0.000454
3514.6	0.000481
3526.17	0.000571
3537.75	0.0007394
3549.32	0.0012122
3560.89	0.00248
3572.47	0.00712
3584.04	0.0037
3595.62	0.0013499
3607.19	0.00058
3618.76	0.000486
3630.34	0.000288
3641.91	0.000414
3653.49	0.000289
3665.06	0.000332
3676.63	0.000309
3688.21	0.000169
3699.78	0.000194
3711.35	0.000305
3722.93	0.000193
3734.5	0.000151
3746.08	0.000123
3757.65	0.000146
3769.22	0.000162
3780.8	0.00019
3792.37	0.000115
3803.94	0.000271
3815.52	0.000123
3827.09	0.000126
3838.67	0.000208
3850.24	7.5e-05
3861.81	0.000172
3873.39	0.000177
3884.96	0.000149
3896.54	0.000139
3908.11	0.000182
3919.68	0.00013
3931.26	0.000163
3942.83	0.000122
3954.4	5.6e-05
3965.98	6.7e-05
3977.55	0.000124
3989.13	0.000162
4000.7	0.000122
