Infrared Spectrum: DL-Hydrobenzoin
Formula: C 14 H 14 O 2
CAS: 655-48-1
State: gas
Origin: EPA-IR VAPOR PHASE LIBRARY
1/CM	ABSORBANCE
549.8	0.0066932
559.445	0.0078232
569.09	0.0234732
578.734	0.0316632
588.379	0.0213332
598.024	0.0159532
607.669	0.0081732
617.313	0.0064432
626.958	0.0085932
636.603	0.0108732
646.248	0.0077032
655.893	0.0077932
665.537	0.0107932
675.182	0.0152132
684.827	0.0301632
694.472	0.0861132
704.116	0.110653
713.761	0.0408932
723.406	0.0170532
733.051	0.0173832
742.695	0.0234232
752.34	0.0302232
761.985	0.0277232
771.63	0.0189132
781.275	0.0105732
790.919	0.0104632
800.564	0.0109632
810.209	0.0097832
819.854	0.0070632
829.498	0.0068432
839.143	0.0091432
848.788	0.0090832
858.433	0.0061532
868.078	0.0052132
877.722	0.0047132
887.367	0.0046832
897.012	0.0058132
906.657	0.0089332
916.301	0.0095532
925.946	0.0069532
935.591	0.0075632
945.236	0.0077132
954.88	0.0069732
964.525	0.0070532
974.17	0.0086432
983.815	0.0115832
993.46	0.0150332
1003.1	0.0225032
1012.75	0.0366332
1022.39	0.0583332
1032.04	0.0664232
1041.68	0.0651132
1051.33	0.0540632
1060.97	0.0418532
1070.62	0.0297532
1080.26	0.0305632
1089.91	0.0261532
1099.55	0.0159432
1109.2	0.0127632
1118.84	0.0095632
1128.49	0.0075832
1138.13	0.0078732
1147.78	0.0089432
1157.42	0.0116132
1167.07	0.0164532
1176.71	0.0271832
1186.36	0.0325632
1196	0.0316332
1205.64	0.0268632
1215.29	0.0230632
1224.93	0.0223032
1234.58	0.0220932
1244.22	0.0190232
1253.87	0.0177332
1263.51	0.0176432
1273.16	0.0176232
1282.8	0.0171532
1292.45	0.0176032
1302.09	0.0183332
1311.74	0.0192332
1321.38	0.0196832
1331.03	0.0200532
1340.67	0.0170432
1350.32	0.0155732
1359.96	0.0175732
1369.61	0.0214032
1379.25	0.0224532
1388.9	0.0200132
1398.54	0.0157232
1408.18	0.0110332
1417.83	0.0083132
1427.47	0.0071832
1437.12	0.0084632
1446.76	0.0172432
1456.41	0.0192732
1466.05	0.0085032
1475.7	0.0068432
1485.34	0.0107132
1494.99	0.0189432
1504.63	0.0103432
1514.28	0.0035332
1523.92	0.0028232
1533.57	0.0031032
1543.21	0.0028232
1552.86	0.0023332
1562.5	0.0018632
1572.15	0.0027132
1581.79	0.0037332
1591.44	0.0053332
1601.08	0.0076332
1610.73	0.0050332
1620.37	0.0018732
1630.01	0.0013832
1639.66	0.0015032
1649.3	0.0015932
1658.95	0.0018332
1668.59	0.0018432
1678.24	0.0016432
1687.88	0.0013632
1697.53	0.0013132
1707.17	0.0015132
1716.82	0.0015332
1726.46	0.0018032
1736.11	0.0019832
1745.75	0.0022332
1755.4	0.0021232
1765.04	0.0016432
1774.69	0.0020832
1784.33	0.0021332
1793.98	0.0040632
1803.62	0.0045832
1813.27	0.0027532
1822.91	0.0018632
1832.55	0.0012532
1842.2	0.0010632
1851.84	0.0013832
1861.49	0.0020932
1871.13	0.0030932
1880.78	0.0032732
1890.42	0.0030032
1900.07	0.0019332
1909.71	0.0010832
1919.36	0.0013632
1929	0.0022932
1938.65	0.0041432
1948.29	0.0042132
1957.94	0.0036332
1967.58	0.0018032
1977.23	0.0008089
1986.87	0.0007927
1996.52	0.0005978
2006.16	0.0005879
2015.81	0.0004843
2025.45	0.0004421
2035.1	0.0004364
2044.74	0.000371
2054.38	0.0005063
2064.03	0.0006251
2073.67	0.0003759
2083.32	0.0004775
2092.96	0.0003946
2102.61	0.0003402
2112.25	0.0004338
2121.9	0.0003711
2131.54	0.0003471
2141.19	0.0002192
2150.83	0.0004098
2160.48	0.0002988
2170.12	0.0003643
2179.77	0.0003323
2189.41	0.0004235
2199.06	0.000333
2208.7	0.000354
2218.35	0.0004453
2227.99	0.0003728
2237.64	0.0004805
2247.28	0.0003278
2256.92	0.0002925
2266.57	0.0005566
2276.21	0.0006907
2285.86	0.0003882
2295.5	0.0005748
2305.15	0.0006082
2314.79	0.0009954
2324.44	0.0005541
2334.08	0.0008975
2343.73	0.0008451
2353.37	0.0005325
2363.02	0.0005824
2372.66	0.0005335
2382.31	0.0006482
2391.95	0.0004371
2401.6	0.0005141
2411.24	0.0006014
2420.89	0.0007087
2430.53	0.0005849
2440.18	0.0005955
2449.82	0.0004892
2459.47	0.0005061
2469.11	0.0004877
2478.75	0.0004521
2488.4	0.0004232
2498.04	0.0005447
2507.69	0.0004366
2517.33	0.000462
2526.98	0.0006116
2536.62	0.00048
2546.27	0.0006543
2555.91	0.0008239
2565.56	0.0007902
2575.2	0.0011632
2584.85	0.0008518
2594.49	0.0010832
2604.14	0.0010632
2613.78	0.0009705
2623.43	0.0006392
2633.07	0.0006622
2642.72	0.0005293
2652.36	0.0007603
2662.01	0.0007297
2671.65	0.0007182
2681.29	0.0007345
2690.94	0.0005642
2700.58	0.0005809
2710.23	0.0008379
2719.87	0.0007641
2729.52	0.0007166
2739.16	0.0010732
2748.81	0.0008563
2758.45	0.0010096
2768.1	0.0012432
2777.74	0.0014732
2787.39	0.0016532
2797.03	0.0016932
2806.68	0.0016632
2816.32	0.0017932
2825.97	0.0022832
2835.61	0.0026732
2845.26	0.0037532
2854.9	0.0047032
2864.55	0.0070432
2874.19	0.0109732
2883.84	0.0160732
2893.48	0.0219332
2903.12	0.0237732
2912.77	0.0188032
2922.41	0.0123632
2932.06	0.0076032
2941.7	0.0046232
2951.35	0.0026632
2960.99	0.0020732
2970.64	0.0016832
2980.28	0.0019032
2989.93	0.0024632
2999.57	0.0038932
3009.22	0.0065232
3018.86	0.0133932
3028.51	0.0302332
3038.15	0.0389432
3047.8	0.0260232
3057.44	0.0259732
3067.09	0.0469132
3076.73	0.0444732
3086.38	0.0268232
3096.02	0.0201132
3105.67	0.0117032
3115.31	0.0068932
3124.95	0.0028932
3134.6	0.0017032
3144.24	0.0013432
3153.89	0.0010732
3163.53	0.0011632
3173.18	0.0008503
3182.82	0.0006691
3192.47	0.0002367
3202.11	0.0004836
3211.76	0.0001847
3221.4	0.0003915
3231.05	0.0005736
3240.69	1.28e-05
3250.34	0.0001358
3259.98	0.000267
3269.63	0.0002354
3279.27	0.0005203
3288.92	0.0006347
3298.56	0.0004993
3308.21	0.0005448
3317.85	0.0004937
3327.49	0.0006444
3337.14	0.0007912
3346.78	0.0007253
3356.43	0.000876
3366.07	0.0002871
3375.72	0.00072
3385.36	0.0006834
3395.01	0.001021
3404.65	0.0010281
3414.3	0.0007925
3423.94	0.0006236
3433.59	0.0007668
3443.23	0.0007846
3452.88	0.0008277
3462.52	0.0008179
3472.17	0.0012832
3481.81	0.0011832
3491.46	0.0011932
3501.1	0.0009209
3510.75	0.0008069
3520.39	0.0012232
3530.04	0.0013232
3539.68	0.0016432
3549.32	0.0018432
3558.97	0.0023132
3568.61	0.0029532
3578.26	0.0038532
3587.9	0.0060432
3597.55	0.0084232
3607.19	0.0164232
3616.84	0.0290832
3626.48	0.0227932
3636.13	0.0167132
3645.77	0.0199732
3655.42	0.0181432
3665.06	0.0081132
3674.71	0.0041432
3684.35	0.0030132
3694	0.0021832
3703.64	0.0013932
3713.29	0.0019732
3722.93	0.0014932
3732.58	0.000845
3742.22	0.0009152
3751.86	0.0009001
3761.51	0.0004513
3771.15	0.0005107
3780.8	0.000613
3790.44	0.0005278
3800.09	0.0007816
3809.73	0.0005139
3819.38	0.0007185
3829.02	0.0011532
3838.67	0.00047
3848.31	0.0004053
3857.96	0.0009985
3867.6	0.0011832
3877.25	0.0009711
3886.89	0.0011432
3896.54	0.0013132
3906.18	0.0010932
3915.83	0.0010303
3925.47	0.0009855
3935.12	0.0012132
3944.76	0.000793
3954.41	0.000525
3964.05	0.0007688
3973.69	0.0005274
3983.34	0.00042
3992.98	0.0004885
