Infrared Spectrum: 2-Fluorobenzyl mercaptan
Formula: C 7 H 7 F S
CAS: 655-20-9
State: gas
Origin: EPA-IR VAPOR PHASE LIBRARY
1/CM	ABSORBANCE
549.8	0.0017894
559.445	0.00116177
569.09	0.0020254
578.734	0.00338
588.379	0.0017731
598.024	0.000605
607.669	0.000285
617.313	0.00116663
626.958	0.000526
636.603	0.0014569
646.248	0.00263
655.893	0.00371
665.537	0.00836
675.182	0.0127
684.827	0.00893
694.472	0.00572
704.116	0.00276
713.761	0.00411
723.406	0.00753
733.051	0.01925
742.695	0.04965
752.34	0.09544
761.985	0.05329
771.63	0.02153
781.275	0.00771
790.919	0.00427
800.564	0.00397
810.209	0.00358
819.854	0.00412
829.498	0.00714
839.143	0.01218
848.788	0.0147
858.433	0.01263
868.078	0.00702
877.722	0.00369
887.367	0.00339
897.012	0.00322
906.657	0.00264
916.301	0.00247
925.946	0.00351
935.591	0.00476
945.236	0.00403
954.88	0.00385
964.525	0.00447
974.17	0.00456
983.815	0.00447
993.46	0.00344
1003.1	0.00339
1012.75	0.0035
1022.39	0.00661
1032.04	0.0085
1041.68	0.00602
1051.33	0.00268
1060.97	0.00284
1070.62	0.00483
1080.26	0.00872
1089.91	0.01732
1099.55	0.01933
1109.2	0.01162
1118.84	0.00558
1128.49	0.0028
1138.13	0.0029
1147.78	0.00346
1157.42	0.00384
1167.07	0.00718
1176.71	0.00867
1186.36	0.01251
1196	0.01102
1205.64	0.01273
1215.29	0.01575
1224.93	0.0438
1234.58	0.06731
1244.22	0.06501
1253.87	0.0323
1263.51	0.01381
1273.16	0.00783
1282.8	0.00601
1292.45	0.00439
1302.09	0.00269
1311.74	0.001516
1321.38	0.000938
1331.03	0.000892
1340.67	0.0014994
1350.32	0.0013743
1359.96	0.0015351
1369.61	0.0017757
1379.25	0.0019811
1388.9	0.00264
1398.54	0.00265
1408.18	0.00326
1417.83	0.0047
1427.47	0.00782
1437.12	0.01336
1446.76	0.02192
1456.41	0.02764
1466.05	0.02789
1475.7	0.03429
1485.34	0.05841
1494.99	0.06408
1504.63	0.04145
1514.28	0.0171
1523.92	0.00764
1533.57	0.00432
1543.21	0.0041
1552.86	0.00453
1562.5	0.00699
1572.15	0.01218
1581.79	0.0187
1591.44	0.01959
1601.08	0.01304
1610.73	0.00865
1620.37	0.00555
1630.01	0.00276
1639.66	0.0015594
1649.3	0.0016066
1658.95	0.0015872
1668.59	0.0017867
1678.24	0.00236
1687.88	0.00272
1697.53	0.00227
1707.17	0.0018142
1716.82	0.0015234
1726.46	0.0016881
1736.11	0.0012782
1745.75	0.0012073
1755.4	0.001475
1765.04	0.0016477
1774.69	0.00247
1784.33	0.00335
1793.98	0.00309
1803.62	0.0019752
1813.27	0.0019949
1822.91	0.0024
1832.55	0.001887
1842.2	0.0013987
1851.84	0.0014959
1861.49	0.0019061
1871.13	0.0019362
1880.78	0.0020176
1890.42	0.00275
1900.07	0.00386
1909.71	0.00348
1919.36	0.00259
1929	0.00296
1938.65	0.00315
1948.29	0.00237
1957.94	0.001569
1967.58	0.0014306
1977.23	0.0012788
1986.87	0.0015005
1996.52	0.0015871
2006.16	0.0015284
2015.81	0.001436
2025.45	0.0011931
2035.1	0.001357
2044.74	0.0012015
2054.38	0.0012094
2064.03	0.0015694
2073.67	0.0015311
2083.32	0.0016115
2092.96	0.0016834
2102.61	0.0014917
2112.25	0.0012109
2121.9	0.0013691
2131.54	0.0010569
2141.19	0.0013541
2150.83	0.0013689
2160.48	0.0013338
2170.12	0.0013027
2179.77	0.0016515
2189.41	0.0014712
2199.06	0.0015242
2208.7	0.0013852
2218.35	0.0013976
2227.99	0.0013349
2237.64	0.0015543
2247.28	0.001758
2256.92	0.0015697
2266.57	0.0015361
2276.21	0.0014217
2285.86	0.0013597
2295.5	0.0015525
2305.15	0.0020174
2314.79	0.0018716
2324.44	0.0017547
2334.08	0.0020998
2343.73	0.0014093
2353.37	0.001444
2363.02	0.0012847
2372.66	0.0014059
2382.31	0.00114124
2391.95	0.0016364
2401.6	0.0014825
2411.24	0.0016491
2420.89	0.0017747
2430.53	0.0017661
2440.18	0.0018225
2449.82	0.0020484
2459.47	0.00236
2469.11	0.00215
2478.75	0.0015231
2488.4	0.0013375
2498.04	0.0016933
2507.69	0.0013741
2517.33	0.00119801
2526.98	0.0018977
2536.62	0.0013894
2546.27	0.0015618
2555.91	0.0015361
2565.56	0.0014885
2575.2	0.00258
2584.85	0.00231
2594.49	0.00246
2604.14	0.00261
2613.78	0.0016434
2623.43	0.0014761
2633.07	0.0016287
2642.72	0.0012999
2652.36	0.0015559
2662.01	0.0014859
2671.65	0.0015689
2681.29	0.001388
2690.94	0.0018429
2700.58	0.0016439
2710.23	0.001989
2719.87	0.0014378
2729.52	0.0015375
2739.16	0.0014446
2748.81	0.00109723
2758.45	0.000757
2768.1	0.0010834
2777.74	0.0012989
2787.39	0.0013371
2797.03	0.0015143
2806.68	0.0018095
2816.32	0.0012802
2825.97	0.0016338
2835.61	0.00231
2845.26	0.0020297
2854.9	0.00233
2864.55	0.00248
2874.19	0.0026
2883.84	0.0020619
2893.48	0.0017619
2903.12	0.0020896
2912.77	0.00231
2922.41	0.00358
2932.06	0.00459
2941.7	0.00712
2951.35	0.00938
2960.99	0.00888
2970.64	0.00541
2980.28	0.004
2989.93	0.00373
2999.57	0.0036
3009.22	0.00312
3018.86	0.0044
3028.51	0.00742
3038.15	0.01048
3047.8	0.01214
3057.44	0.01268
3067.09	0.01377
3076.73	0.01616
3086.38	0.0157
3096.02	0.00982
3105.67	0.00548
3115.31	0.00308
3124.95	0.00217
3134.6	0.001381
3144.24	0.0018033
3153.89	0.0012504
3163.53	0.001537
3173.18	0.0014476
3182.82	0.0018139
3192.47	0.001358
3202.11	0.0016824
3211.76	0.0016357
3221.4	0.001539
3231.05	0.00109682
3240.69	0.000935
3250.34	0.0012315
3259.98	0.0021
3269.63	0.000966
3279.27	0.0011366
3288.92	0.0016928
3298.56	0.000939
3308.21	0.0014125
3317.85	0.00086
3327.49	0.00111248
3337.14	0.00116428
3346.78	0.0010789
3356.43	0.0013922
3366.07	0.0012959
3375.72	0.00114317
3385.36	0.000878
3395.01	0.000825
3404.65	0.0017866
3414.3	0.0012658
3423.94	0.0016399
3433.59	0.000799
3443.23	0.0007
3452.88	0.000541
3462.52	0.00119622
3472.17	0.00110557
3481.81	0.000414
3491.46	0.000908
3501.1	0.001043
3510.75	0.0012426
3520.39	0.000731
3530.04	0.000829
3539.68	0.000321
3549.32	0.0012657
3558.97	0.0013559
3568.61	0.000624
3578.26	0.00117858
3587.9	0.0018491
3597.55	0.0012216
3607.19	0.00111549
3616.84	0.0013026
3626.48	0.0010093
3636.13	0.0012861
3645.77	0.0010458
3655.42	0.0014634
3665.06	0.0020292
3674.71	0.0012956
3684.35	0.0013846
3694	0.0013313
3703.64	0.0016001
3713.29	0.0010578
3722.93	0.0012497
3732.58	0.00086
3742.22	0.0010668
3751.86	0.0014344
3761.51	0.001574
3771.15	0.00111
3780.8	0.0017964
3790.44	0.000824
3800.09	0.0014833
3809.73	0.00114442
3819.38	0.0010036
3829.02	0.0012662
3838.67	0.0010415
3848.31	0.00110736
3857.96	0.00109592
3867.6	0.0010486
3877.25	0.0010232
3886.89	0.001228
3896.54	0.0016139
3906.18	0.001382
3915.83	0.0016046
3925.47	0.000388
3935.12	0.00112946
3944.76	0.0015631
3954.41	0.0018055
3964.05	0.000437
3973.69	0.000691
3983.34	0.000471
3992.98	0.0014148
