Infrared Spectrum: 2,2,2,4'-Tetrafluoroacetophenone
Formula: C8 H4 F4 O
CAS: 655-32-3
State: SOLUTION (5% CCl4 FOR 3800-1330, 5% CS2 FOR 1330-450 CM^-^1)
Class: COBLENTZ III
Instrument: DOW KBr FOREPRISM-GRATING
Instrument parameters: BLAZED AT 3.5, 12.0, 20.0 MICRON AND CHANGED AT 5.0, 7.5, 14.9 MICRON
Sampling: TRANSMISSION
Path length: 0.011 CM, 0.010 CM
Resolution: 2
Origin: DOW CHEMICAL COMPANY
1/CM	TRANSMITTANCE
3796	0.8972
3787	0.8976
3778	0.8976
3769	0.898
3760	0.8984
3751	0.8972
3742	0.8968
3733	0.8963
3724	0.8978
3715	0.8976
3706	0.8991
3697	0.8995
3688	0.8983
3679	0.8971
3670	0.8989
3661	0.898
3652	0.8983
3643	0.8981
3634	0.8981
3625	0.8994
3616	0.8988
3607	0.8956
3598	0.8843
3589	0.8858
3580	0.8865
3571	0.875
3562	0.8833
3553	0.8913
3544	0.8934
3535	0.895
3526	0.8936
3517	0.8936
3508	0.8938
3499	0.894
3490	0.8942
3481	0.894
3472	0.8935
3463	0.893
3454	0.8925
3445	0.8925
3436	0.8889
3427	0.8701
3418	0.8526
3409	0.8648
3400	0.8812
3391	0.8933
3382	0.8945
3373	0.8947
3364	0.894
3355	0.8931
3346	0.893
3337	0.8948
3328	0.8935
3319	0.8942
3310	0.8966
3301	0.8956
3292	0.8962
3283	0.8983
3274	0.8987
3265	0.8988
3256	0.8976
3247	0.8993
3238	0.8993
3229	0.8994
3220	0.8994
3211	0.8994
3202	0.8978
3193	0.8994
3184	0.8978
3175	0.8979
3166	0.8979
3157	0.899
3148	0.898
3139	0.9
3130	0.9006
3121	0.8958
3112	0.8907
3103	0.893
3094	0.8917
3085	0.8747
3076	0.8769
3067	0.8813
3058	0.887
3049	0.8923
3040	0.9065
3031	0.9037
3022	0.9026
3013	0.8997
3004	0.9003
2995	0.8962
2986	0.8931
2977	0.8884
2968	0.8897
2959	0.8921
2950	0.8916
2941	0.8875
2932	0.8839
2923	0.8831
2914	0.8839
2905	0.8868
2896	0.8897
2887	0.8911
2878	0.8917
2869	0.8917
2860	0.892
2851	0.8938
2842	0.8997
2833	0.9038
2824	0.9079
2815	0.9074
2806	0.9078
2797	0.9107
2788	0.9086
2779	0.9102
2770	0.9124
2761	0.9121
2752	0.9121
2743	0.9124
2734	0.9132
2725	0.9138
2716	0.9141
2707	0.914
2698	0.9143
2689	0.9167
2680	0.9187
2671	0.9175
2662	0.9167
2653	0.9177
2644	0.9153
2635	0.9136
2626	0.9124
2617	0.9092
2608	0.9067
2599	0.9066
2590	0.9114
2581	0.9151
2572	0.918
2563	0.9201
2554	0.9203
2545	0.9197
2536	0.919
2527	0.9174
2518	0.9163
2509	0.9187
2500	0.9182
2491	0.9162
2482	0.9158
2473	0.9215
2464	0.9267
2455	0.9284
2446	0.9317
2437	0.932
2428	0.9297
2419	0.9265
2410	0.9241
2401	0.9259
2392	0.928
2383	0.9334
2374	0.9416
2365	0.9437
2356	0.9517
2347	0.9547
2338	0.9534
2329	0.9533
2320	0.9438
2311	0.9387
2302	0.9377
2293	0.9346
2284	0.9297
2275	0.9263
2266	0.9288
2257	0.9322
2248	0.9354
2239	0.9397
2230	0.9415
2221	0.9421
2212	0.9432
2203	0.9443
2194	0.9444
2185	0.9426
2176	0.9442
2167	0.9421
2158	0.9416
2149	0.9412
2140	0.9412
2131	0.9412
2122	0.9395
2113	0.9409
2104	0.9405
2095	0.9372
2086	0.9322
2077	0.9267
2068	0.925
2059	0.9286
2050	0.9329
2041	0.9319
2032	0.931
2023	0.9322
2014	0.9321
2005	0.9315
1996	0.912
1987	0.9165
1978	0.9193
1969	0.9212
1960	0.9284
1951	0.9267
1942	0.9198
1933	0.9104
1924	0.9127
1915	0.8824
1906	0.909
1897	0.889
1888	0.9071
1879	0.9117
1870	0.921
1861	0.9204
1852	0.9212
1843	0.921
1834	0.9174
1825	0.9171
1816	0.9201
1807	0.9155
1798	0.9053
1789	0.9055
1780	0.876
1771	0.854
1762	0.8688
1753	0.8539
1744	0.8381
1735	0.7274
1726	0.2334
1717	0.0172
1708	0.7063
1699	0.8258
1690	0.8617
1681	0.8451
1672	0.8763
1663	0.8485
1654	0.8918
1645	0.9051
1636	0.8917
1627	0.8389
1618	0.749
1609	0.4811
1600	0.0103
1591	0.4755
1582	0.7284
1573	0.801
1564	0.8234
1555	0.7654
1546	0.7776
1537	0.8758
1528	0.8346
1519	0.754
1510	0.3565
1501	0.7947
1492	0.8647
1483	0.8634
1474	0.8744
1465	0.8941
1456	0.8946
1447	0.8911
1438	0.8932
1429	0.8696
1420	0.5655
1411	0.84
1402	0.8972
1393	0.9173
1384	0.9364
1375	0.9083
1366	0.8831
1357	0.8618
1348	0.8641
1339	0.6207
1330	0.7232
1321	0.7001
1312	0.7832
1303	0.6893
1294	0.8338
1285	0.9048
1276	0.8876
1267	0.8052
1258	0.5853
1249	0.2261
1240	0.2034
1231	0.4553
1222	0.3139
1213	0.1972
1204	0.0313
1195	0.0535
1186	0.0589
1177	0.1034
1168	0.2995
1159	0.0119
1150	0.0207
1141	0.0176
1132	0.3471
1123	0.7194
1114	0.7822
1105	0.8087
1096	0.8498
1087	0.9212
1078	0.938
1069	0.9294
1060	0.9539
1051	0.9634
1042	0.9734
1033	0.9807
1024	0.9785
1015	0.9665
1006	0.9667
997	0.9712
988	0.9606
979	0.9673
970	0.9573
961	0.9095
952	0.8304
943	0.2942
934	0.3245
925	0.8312
916	0.9213
907	0.9475
898	0.9521
889	0.9711
880	0.9846
871	0.9821
862	0.9594
853	0.7565
844	0.4547
835	0.8347
826	0.8487
817	0.8554
808	0.9041
799	0.9624
790	0.9582
781	0.9631
772	0.8924
763	0.1036
754	0.8379
745	0.8849
736	0.6123
727	0.9067
718	0.9161
709	0.9077
700	0.9039
691	0.7227
682	0.8688
673	0.9195
664	0.9215
655	0.9217
646	0.8809
637	0.684
628	0.8874
619	0.827
610	0.692
601	0.8651
592	0.8926
583	0.9044
574	0.9105
565	0.9094
556	0.8953
547	0.8744
538	0.7982
529	0.6384
520	0.7806
511	0.828
502	0.8436
493	0.8092
484	0.841
475	0.7665
466	0.7534
457	0.772
