Infrared Spectrum: TRANS-1,4-CYCLOHEXANE-CARBONITRILE
Formula: C8 H10 N2
CAS: 6550-85-2
State: SOLID (KBr PELLET)
Class: COBLENTZ
Instrument: Not specified, most likely a prism, grating, or hybrid spectrometer.
Sampling: TRANSMISSION
Resolution: 4
Origin: TENNESSEE EASTMAN COMPANY, RESEARCH LABORATORIES
MICROMETERS	TRANSMITTANCE
2.02	0.279
2.06094	0.281
2.10187	0.283
2.14281	0.288
2.18375	0.296
2.22469	0.296
2.26562	0.295
2.30656	0.302
2.3475	0.302
2.38844	0.305
2.42937	0.325
2.47031	0.329
2.51125	0.339
2.55219	0.351
2.59312	0.354
2.63406	0.368
2.675	0.38
2.71594	0.387
2.75687	0.389
2.79781	0.389
2.83875	0.389
2.87969	0.387
2.92062	0.389
2.96156	0.397
3.0025	0.407
3.04344	0.399
3.08437	0.406
3.12531	0.402
3.16625	0.397
3.20719	0.409
3.24812	0.424
3.28906	0.419
3.33	0.375
3.37094	0.063
3.41187	0.244
3.45281	0.146
3.49375	0.365
3.53469	0.436
3.57562	0.46
3.61656	0.496
3.6575	0.506
3.69844	0.517
3.73937	0.511
3.78031	0.523
3.82125	0.554
3.86219	0.546
3.90312	0.561
3.94406	0.563
3.985	0.559
4.02594	0.585
4.06687	0.597
4.10781	0.61
4.14875	0.612
4.18969	0.595
4.23062	0.616
4.27156	0.616
4.3125	0.588
4.35344	0.66
4.39437	0.631
4.43531	0.58
4.47625	0.124
4.51719	0.441
4.55812	0.532
4.59906	0.607
4.64	0.624
4.68094	0.645
4.72187	0.653
4.76281	0.66
4.80375	0.662
4.84469	0.668
4.88562	0.675
4.92656	0.679
4.9675	0.674
5.00844	0.689
5.04937	0.696
5.09031	0.682
5.13125	0.689
5.17219	0.709
5.21312	0.718
5.25406	0.723
5.295	0.718
5.33594	0.718
5.37687	0.725
5.41781	0.733
5.45875	0.73
5.49969	0.733
5.54062	0.737
5.58156	0.747
5.6225	0.75
5.66344	0.75
5.70437	0.726
5.74531	0.737
5.78625	0.749
5.82719	0.737
5.86812	0.742
5.90906	0.74
5.95	0.737
5.99094	0.737
6.03187	0.725
6.07281	0.732
6.11375	0.737
6.15469	0.725
6.19562	0.728
6.23656	0.742
6.2775	0.742
6.31844	0.755
6.35937	0.755
6.40031	0.752
6.44125	0.738
6.48219	0.75
6.52312	0.757
6.56406	0.752
6.605	0.749
6.64594	0.742
6.68687	0.716
6.72781	0.682
6.76875	0.587
6.80969	0.254
6.85062	0.278
6.89156	0.208
6.9325	0.319
6.97344	0.617
7.01437	0.68
7.05531	0.733
7.09625	0.733
7.13719	0.701
7.17812	0.728
7.21906	0.732
7.26	0.704
7.30094	0.621
7.34187	0.699
7.38281	0.742
7.42375	0.726
7.46469	0.609
7.50562	0.74
7.54656	0.762
7.5875	0.752
7.62844	0.59
7.66937	0.754
7.71031	0.778
7.75125	0.706
7.79219	0.474
7.83312	0.428
7.87406	0.708
7.915	0.79
7.95594	0.805
7.99687	0.812
8.03781	0.718
8.07875	0.738
8.11969	0.802
8.16062	0.769
8.20156	0.836
8.2425	0.854
8.28344	0.856
8.32437	0.853
8.36531	0.866
8.40625	0.877
8.44719	0.878
8.48812	0.88
8.52906	0.882
8.57	0.882
8.61094	0.882
8.65187	0.87
8.69281	0.877
8.73375	0.892
8.77469	0.897
8.81562	0.902
8.85656	0.907
8.8975	0.911
8.93844	0.912
8.97937	0.912
9.02031	0.914
9.06125	0.911
9.10219	0.846
9.14312	0.863
9.18406	0.901
9.225	0.885
9.26594	0.841
9.30687	0.868
9.34781	0.759
9.38875	0.556
9.42969	0.302
9.47062	0.15
9.51156	0.293
9.5525	0.448
9.59344	0.389
9.63437	0.399
9.67531	0.617
9.71625	0.749
9.75719	0.808
9.79812	0.769
9.83906	0.691
9.88	0.795
9.92094	0.849
9.96187	0.865
10.0028	0.868
10.0437	0.87
10.0847	0.88
10.1256	0.887
10.1666	0.892
10.2075	0.899
10.2484	0.909
10.2894	0.907
10.3303	0.86
10.3712	0.796
10.4122	0.868
10.4531	0.873
10.4941	0.831
10.535	0.873
10.5759	0.897
10.6169	0.901
10.6578	0.901
10.6987	0.854
10.7397	0.795
10.7806	0.738
10.8216	0.672
10.8625	0.235
10.9034	0.368
10.9444	0.609
10.9853	0.387
11.0262	0.175
11.0672	0.042
11.1081	0.283
11.1491	0.598
11.19	0.757
11.2309	0.834
11.2719	0.865
11.3128	0.885
11.3537	0.909
11.3947	0.914
11.4356	0.897
11.4766	0.854
11.5175	0.844
11.5584	0.844
11.5994	0.597
11.6403	0.3
11.6812	0.441
11.7222	0.769
11.7631	0.86
11.8041	0.895
11.845	0.923
11.8859	0.936
11.9269	0.95
11.9678	0.948
12.0087	0.947
12.0497	0.947
12.0906	0.952
12.1316	0.957
12.1725	0.952
12.2134	0.93
12.2544	0.863
12.2953	0.844
12.3362	0.892
12.3772	0.919
12.4181	0.93
12.4591	0.943
12.5	0.955
12.5409	0.969
12.5819	0.969
12.6228	0.965
12.6637	0.965
12.7047	0.972
12.7456	0.976
12.7866	0.976
12.8275	0.972
12.8684	0.969
12.9094	0.972
12.9503	0.976
12.9912	0.974
13.0322	0.972
13.0731	0.964
13.1141	0.967
13.155	0.97
13.1959	0.972
13.2369	0.97
13.2778	0.957
13.3187	0.953
13.3597	0.953
13.4006	0.952
13.4416	0.955
13.4825	0.953
13.5234	0.948
13.5644	0.948
13.6053	0.948
13.6462	0.95
13.6872	0.955
13.7281	0.952
13.7691	0.945
13.81	0.936
13.8509	0.931
13.8919	0.924
13.9328	0.919
13.9737	0.902
14.0147	0.882
14.0556	0.866
14.0966	0.854
14.1375	0.851
14.1784	0.851
14.2194	0.863
14.2603	0.872
14.3012	0.887
14.3422	0.899
14.3831	0.907
14.4241	0.911
14.465	0.912
14.5059	0.916
14.5469	0.916
14.5878	0.916
14.6287	0.916
14.6697	0.909
14.7106	0.904
14.7516	0.897
14.7925	0.894
14.8334	0.887
14.8744	0.873
14.9153	0.87
14.9562	0.863
14.9972	0.844
15.0381	0.827
15.0791	0.825
15.12	0.825
15.1609	0.825
15.2019	0.82
15.2428	0.808
15.2837	0.796
15.3247	0.79
15.3656	0.781
15.4066	0.769
15.4475	0.757
15.4884	0.752
15.5294	0.747
15.5703	0.733
15.6112	0.723
15.6522	0.713
15.6931	0.706
15.7341	0.694
15.775	0.689
15.8159	0.684
15.8569	0.677
15.8978	0.667
15.9387	0.66
15.9797	0.653
