Infrared Spectrum: CIS-1,4-CYCLOHEXANE-DICARBONITRILE
Formula: C8 H10 N2
CAS: 6550-96-5
State: SOLID (KBr PELLET)
Class: COBLENTZ
Instrument: Not specified, most likely a prism, grating, or hybrid spectrometer.
Sampling: TRANSMISSION
Resolution: 4
Origin: TENNESSEE EASTMAN COMPANY, RESEARCH LABORATORIES
MICROMETERS	TRANSMITTANCE
2.245	0.924
2.28586	0.887
2.32671	0.887
2.36757	0.88
2.40843	0.888
2.44928	0.9
2.49014	0.895
2.531	0.887
2.57185	0.894
2.61271	0.892
2.65357	0.89
2.69442	0.882
2.73528	0.849
2.77614	0.8
2.817	0.752
2.85785	0.712
2.89871	0.678
2.93957	0.67
2.98042	0.687
3.02128	0.704
3.06214	0.719
3.10299	0.716
3.14385	0.726
3.18471	0.687
3.22556	0.724
3.26642	0.724
3.30728	0.673
3.34813	0.576
3.38899	0.032
3.42985	0.319
3.4707	0.191
3.51156	0.623
3.55242	0.719
3.59327	0.738
3.63413	0.75
3.67499	0.765
3.71584	0.762
3.7567	0.757
3.79756	0.752
3.83841	0.772
3.87927	0.776
3.92013	0.76
3.96099	0.777
4.00184	0.786
4.0427	0.794
4.08356	0.805
4.12441	0.822
4.16527	0.813
4.20613	0.8
4.24698	0.8
4.28784	0.8
4.3287	0.803
4.36955	0.8
4.41041	0.731
4.45127	0.393
4.49212	0.088
4.53298	0.895
4.57384	0.852
4.61469	0.894
4.65555	0.9
4.69641	0.904
4.73726	0.909
4.77812	0.912
4.81898	0.924
4.85983	0.924
4.90069	0.926
4.94155	0.929
4.9824	0.929
5.02326	0.936
5.06412	0.936
5.10498	0.938
5.14583	0.936
5.18669	0.938
5.22755	0.95
5.2684	0.952
5.30926	0.952
5.35012	0.95
5.39097	0.95
5.43183	0.952
5.47269	0.953
5.51354	0.953
5.5544	0.952
5.59526	0.953
5.63611	0.953
5.67697	0.952
5.71783	0.935
5.75868	0.921
5.79954	0.921
5.8404	0.921
5.88125	0.924
5.92211	0.929
5.96297	0.931
6.00382	0.929
6.04468	0.919
6.08554	0.905
6.12639	0.909
6.16725	0.911
6.20811	0.921
6.24897	0.928
6.28982	0.943
6.33068	0.931
6.37154	0.933
6.41239	0.933
6.45325	0.938
6.49411	0.933
6.53496	0.921
6.57582	0.914
6.61668	0.89
6.65753	0.871
6.69839	0.852
6.73925	0.815
6.7801	0.514
6.82096	0.042
6.86182	0.124
6.90267	0.23
6.94353	0.497
6.98439	0.864
7.02524	0.89
7.0661	0.904
7.10696	0.912
7.14781	0.914
7.18867	0.911
7.22953	0.873
7.27039	0.823
7.31124	0.852
7.3521	0.656
7.39296	0.75
7.43381	0.832
7.47467	0.832
7.51553	0.656
7.55638	0.641
7.59724	0.851
7.6381	0.847
7.67895	0.598
7.71981	0.547
7.76067	0.632
7.80152	0.765
7.84238	0.839
7.88324	0.757
7.92409	0.859
7.96495	0.873
8.00581	0.878
8.04666	0.88
8.08752	0.859
8.12838	0.782
8.16923	0.529
8.21009	0.791
8.25095	0.876
8.2918	0.921
8.33266	0.897
8.37352	0.9
8.41438	0.834
8.45523	0.769
8.49609	0.844
8.53695	0.847
8.5778	0.849
8.61866	0.861
8.65952	0.863
8.70037	0.829
8.74123	0.811
8.78209	0.846
8.82294	0.854
8.8638	0.851
8.90466	0.849
8.94551	0.842
8.98637	0.822
9.02723	0.629
9.06808	0.747
9.10894	0.8
9.1498	0.81
9.19065	0.784
9.23151	0.747
9.27237	0.736
9.31322	0.733
9.35408	0.733
9.39494	0.707
9.43579	0.738
9.47665	0.772
9.51751	0.779
9.55837	0.67
9.59922	0.422
9.64008	0.254
9.68094	0.3
9.72179	0.449
9.76265	0.745
9.80351	0.813
9.84436	0.82
9.88522	0.818
9.92608	0.83
9.96693	0.832
10.0078	0.841
10.0486	0.852
10.0895	0.859
10.1304	0.863
10.1712	0.864
10.2121	0.868
10.2529	0.866
10.2938	0.852
10.3346	0.851
10.3755	0.854
10.4164	0.852
10.4572	0.834
10.4981	0.757
10.5389	0.536
10.5798	0.235
10.6206	0.249
10.6615	0.7
10.7024	0.641
10.7432	0.343
10.7841	0.495
10.8249	0.77
10.8658	0.801
10.9066	0.685
10.9475	0.389
10.9884	0.538
11.0292	0.675
11.0701	0.294
11.1109	0.16
11.1518	0.6
11.1926	0.769
11.2335	0.864
11.2744	0.907
11.3152	0.917
11.3561	0.921
11.3969	0.926
11.4378	0.931
11.4786	0.929
11.5195	0.929
11.5603	0.941
11.6012	0.941
11.6421	0.919
11.6829	0.868
11.7238	0.883
11.7646	0.931
11.8055	0.94
11.8463	0.945
11.8872	0.947
11.9281	0.955
11.9689	0.955
12.0098	0.943
12.0506	0.938
12.0915	0.933
12.1323	0.921
12.1732	0.899
12.2141	0.846
12.2549	0.68
12.2958	0.547
12.3366	0.738
12.3775	0.861
12.4183	0.9
12.4592	0.917
12.5001	0.924
12.5409	0.921
12.5818	0.873
12.6226	0.743
12.6635	0.712
12.7043	0.854
12.7452	0.9
12.7861	0.912
12.8269	0.923
12.8678	0.931
12.9086	0.938
12.9495	0.938
12.9903	0.933
13.0312	0.929
13.072	0.935
13.1129	0.936
13.1538	0.929
13.1946	0.912
13.2355	0.899
13.2763	0.897
13.3172	0.9
13.358	0.907
13.3989	0.909
13.4398	0.909
13.4806	0.911
13.5215	0.919
13.5623	0.929
13.6032	0.931
13.644	0.929
13.6849	0.926
13.7258	0.917
13.7666	0.917
13.8075	0.924
13.8483	0.924
13.8892	0.919
13.93	0.914
13.9709	0.905
14.0118	0.9
14.0526	0.899
14.0935	0.888
14.1343	0.87
14.1752	0.854
14.216	0.847
14.2569	0.842
14.2978	0.844
14.3386	0.852
14.3795	0.861
14.4203	0.866
14.4612	0.87
14.502	0.87
14.5429	0.868
14.5838	0.868
14.6246	0.868
14.6655	0.864
14.7063	0.856
14.7472	0.851
14.788	0.847
14.8289	0.841
14.8697	0.834
14.9106	0.818
14.9515	0.8
14.9923	0.789
15.0332	0.784
15.074	0.781
15.1149	0.77
15.1557	0.747
15.1966	0.719
15.2375	0.688
15.2783	0.673
15.3192	0.67
15.36	0.668
15.4009	0.668
15.4417	0.67
15.4826	0.668
15.5235	0.661
15.5643	0.659
15.6052	0.658
15.646	0.651
15.6869	0.641
15.7277	0.634
15.7686	0.623
15.8095	0.617
15.8503	0.608
15.8912	0.601
15.932	0.596
15.9729	0.594
