Infrared Spectrum: 2-Butoxyethyl bromide
Formula: C 6 H 13 Br O
CAS: 6550-99-8
State: gas
Origin: EPA-IR VAPOR PHASE LIBRARY
1/CM	ABSORBANCE
549.8	0.001537
559.445	0.001897
569.09	0.002837
578.734	0.004097
588.379	0.003637
598.024	0.002107
607.669	0.0011976
617.313	0.001217
626.958	0.0014158
636.603	0.001917
646.248	0.003547
655.893	0.007077
665.537	0.010737
675.182	0.009667
684.827	0.004647
694.472	0.002737
704.116	0.002007
713.761	0.001667
723.406	0.001647
733.051	0.001697
742.695	0.001707
752.34	0.001927
761.985	0.001507
771.63	0.001727
781.275	0.001927
790.919	0.002087
800.564	0.002057
810.209	0.001967
819.854	0.001937
829.498	0.002267
839.143	0.002637
848.788	0.002437
858.433	0.002307
868.078	0.002047
877.722	0.002047
887.367	0.002137
897.012	0.002457
906.657	0.002917
916.301	0.003167
925.946	0.003917
935.591	0.004837
945.236	0.005667
954.88	0.006267
964.525	0.006487
974.17	0.006637
983.815	0.006467
993.46	0.007297
1003.1	0.007677
1012.75	0.008277
1022.39	0.008707
1032.04	0.010957
1041.68	0.011777
1051.33	0.011637
1060.97	0.012577
1070.62	0.015807
1080.26	0.024637
1089.91	0.047117
1099.55	0.074437
1109.2	0.084667
1118.84	0.079857
1128.49	0.070047
1138.13	0.051557
1147.78	0.031197
1157.42	0.020037
1167.07	0.014107
1176.71	0.013107
1186.36	0.014247
1196	0.012617
1205.64	0.011367
1215.29	0.012327
1224.93	0.010297
1234.58	0.009377
1244.22	0.008437
1253.87	0.008247
1263.51	0.009797
1273.16	0.012637
1282.8	0.013277
1292.45	0.011447
1302.09	0.008707
1311.74	0.006007
1321.38	0.004847
1331.03	0.005117
1340.67	0.006497
1350.32	0.009667
1359.96	0.015957
1369.61	0.015837
1379.25	0.009897
1388.9	0.006787
1398.54	0.005707
1408.18	0.005007
1417.83	0.005937
1427.47	0.008657
1437.12	0.009197
1446.76	0.009987
1456.41	0.010757
1466.05	0.011377
1475.7	0.009937
1485.34	0.006667
1494.99	0.003997
1504.63	0.002587
1514.28	0.001967
1523.92	0.001497
1533.57	0.0013822
1543.21	0.0011835
1552.86	0.0010651
1562.5	0.0009504
1572.15	0.0008777
1581.79	0.0010318
1591.44	0.0007287
1601.08	0.0008869
1610.73	0.0007517
1620.37	0.0008035
1630.01	0.0008429
1639.66	0.0007281
1649.3	0.0007481
1658.95	0.0007082
1668.59	0.0007834
1678.24	0.0006319
1687.88	0.0006051
1697.53	0.0006356
1707.17	0.0006698
1716.82	0.0006976
1726.46	0.000675
1736.11	0.0007306
1745.75	0.0008029
1755.4	0.000859
1765.04	0.0006651
1774.69	0.0007082
1784.33	0.0006569
1793.98	0.0007161
1803.62	0.0006967
1813.27	0.0006631
1822.91	0.0006713
1832.55	0.0007041
1842.2	0.0007742
1851.84	0.0007054
1861.49	0.0007854
1871.13	0.000818
1880.78	0.0008494
1890.42	0.0009102
1900.07	0.0010125
1909.71	0.001053
1919.36	0.0010519
1929	0.0011162
1938.65	0.0011919
1948.29	0.0010001
1957.94	0.0009618
1967.58	0.0009116
1977.23	0.0008487
1986.87	0.0009658
1996.52	0.0009111
2006.16	0.0010059
2015.81	0.0010286
2025.45	0.0012546
2035.1	0.0011578
2044.74	0.0013138
2054.38	0.0013991
2064.03	0.001102
2073.67	0.0012623
2083.32	0.00136
2092.96	0.0011606
2102.61	0.0012534
2112.25	0.0011914
2121.9	0.001084
2131.54	0.0010357
2141.19	0.0010626
2150.83	0.0008425
2160.48	0.0008913
2170.12	0.0009418
2179.77	0.0009859
2189.41	0.0010048
2199.06	0.0009812
2208.7	0.0009106
2218.35	0.0009998
2227.99	0.0009536
2237.64	0.0008567
2247.28	0.000721
2256.92	0.0008124
2266.57	0.0008457
2276.21	0.000738
2285.86	0.0007539
2295.5	0.0008154
2305.15	0.0007226
2314.79	0.0007413
2324.44	0.0008437
2334.08	0.0008343
2343.73	0.0008262
2353.37	0.0007138
2363.02	0.0007138
2372.66	0.0008971
2382.31	0.0007282
2391.95	0.0008671
2401.6	0.0008134
2411.24	0.0007521
2420.89	0.0006154
2430.53	0.0006974
2440.18	0.000757
2449.82	0.000751
2459.47	0.0007085
2469.11	0.0007345
2478.75	0.0007537
2488.4	0.0007537
2498.04	0.0007665
2507.69	0.0006823
2517.33	0.0007212
2526.98	0.0005442
2536.62	0.0006022
2546.27	0.0006282
2555.91	0.0007257
2565.56	0.0007377
2575.2	0.0009558
2584.85	0.0010332
2594.49	0.0010165
2604.14	0.0010886
2613.78	0.0011849
2623.43	0.0012006
2633.07	0.001123
2642.72	0.0013659
2652.36	0.001647
2662.01	0.001567
2671.65	0.001857
2681.29	0.001817
2690.94	0.002067
2700.58	0.002587
2710.23	0.002967
2719.87	0.003187
2729.52	0.003577
2739.16	0.003907
2748.81	0.003927
2758.45	0.004017
2768.1	0.004427
2777.74	0.005197
2787.39	0.005927
2797.03	0.006777
2806.68	0.007227
2816.32	0.008577
2825.97	0.012037
2835.61	0.017957
2845.26	0.025907
2854.9	0.034687
2864.55	0.043547
2874.19	0.051217
2883.84	0.053167
2893.48	0.044627
2903.12	0.038847
2912.77	0.041677
2922.41	0.047407
2932.06	0.054767
2941.7	0.063257
2951.35	0.062737
2960.99	0.064397
2970.64	0.064597
2980.28	0.043657
2989.93	0.024017
2999.57	0.013527
3009.22	0.009607
3018.86	0.008207
3028.51	0.006367
3038.15	0.004947
3047.8	0.003837
3057.44	0.002897
3067.09	0.002337
3076.73	0.002087
3086.38	0.002037
3096.02	0.001887
3105.67	0.001447
3115.31	0.001607
3124.95	0.0012344
3134.6	0.0011677
3144.24	0.0010881
3153.89	0.001044
3163.53	0.0010661
3173.18	0.0010301
3182.82	0.0008811
3192.47	0.0010726
3202.11	0.000892
3211.76	0.0008122
3221.4	0.0006238
3231.05	0.0006947
3240.69	0.00047747
3250.34	0.0006201
3259.98	0.0005605
3269.63	0.00051302
3279.27	0.00050097
3288.92	0.0003935
3298.56	0.00048131
3308.21	0.0003702
3317.85	0.000321
3327.49	0.0003852
3337.14	0.0003842
3346.78	0.0006072
3356.43	0.00047345
3366.07	0.0003889
3375.72	0.0004035
3385.36	0.00045518
3395.01	0.0003444
3404.65	0.0003679
3414.3	0.0004224
3423.94	0.00042854
3433.59	0.0005757
3443.23	0.0004255
3452.88	0.0003444
3462.52	0.0003761
3472.17	0.00047011
3481.81	0.000309
3491.46	0.00051642
3501.1	0.000161
3510.75	0.000302
3520.39	0.000323
3530.04	0.000241
3539.68	0.0003719
3549.32	0.00050508
3558.97	0.0003464
3568.61	0.0003849
3578.26	0.00051881
3587.9	0.000263
3597.55	0.0002
3607.19	0.0003999
3616.84	0.0007383
3626.48	0.00049662
3636.13	0.000222
3645.77	0.0007595
3655.42	0.000608
3665.06	0.000589
3674.71	0.0005625
3684.35	0.0004062
3694	0.00052828
3703.64	0.000273
3713.29	0.0007301
3722.93	0.0003592
3732.58	0.00053566
3742.22	0.0003683
3751.86	0.00047794
3761.51	0.0005372
3771.15	0.00043476
3780.8	0.0008781
3790.44	0.0007312
3800.09	0.0006634
3809.73	0.0005158
3819.38	0.0005877
3829.02	0.0008437
3838.67	0.00049417
3848.31	0.0006996
3857.96	0.00051758
3867.6	0.0005868
3877.25	0.0004937
3886.89	0.000589
3896.54	0.0005673
3906.18	0.0007105
3915.83	0.0003661
3925.47	0.00047782
3935.12	0.00052712
3944.76	0.000611
3954.41	0.0008024
3964.05	0.0009025
3973.69	0.0006211
3983.34	0.0009853
3992.98	0.0007179
