Infrared Spectrum: Pentakis(methylthio)benzene
Formula: C 11 H 16 S 5
CAS: 65516-74-7
State: gas
Origin: EPA-IR VAPOR PHASE LIBRARY
1/CM	ABSORBANCE
549.8	0.0007249
559.445	0.0012376
569.09	0.0007745
578.734	0.0011445
588.379	0.0007203
598.024	0.0009575
607.669	0.0009849
617.313	0.001749
626.958	0.002359
636.603	0.002529
646.248	0.002199
655.893	0.0011948
665.537	0.0011052
675.182	0.001599
684.827	0.001789
694.472	0.002729
704.116	0.004019
713.761	0.002509
723.406	0.001419
733.051	0.0012577
742.695	0.0012764
752.34	0.0011667
761.985	0.001589
771.63	0.002119
781.275	0.002979
790.919	0.006249
800.564	0.007769
810.209	0.003689
819.854	0.002169
829.498	0.003179
839.143	0.004479
848.788	0.006429
858.433	0.005199
868.078	0.003669
877.722	0.002369
887.367	0.002189
897.012	0.002129
906.657	0.002229
916.301	0.002259
925.946	0.002389
935.591	0.003949
945.236	0.006589
954.88	0.010069
964.525	0.016819
974.17	0.016049
983.815	0.006979
993.46	0.004169
1003.1	0.003719
1012.75	0.003479
1022.39	0.003219
1032.04	0.002649
1041.68	0.002209
1051.33	0.002279
1060.97	0.002459
1070.62	0.005099
1080.26	0.003909
1089.91	0.002019
1099.55	0.003169
1109.2	0.002619
1118.84	0.002849
1128.49	0.003649
1138.13	0.005469
1147.78	0.003659
1157.42	0.006989
1167.07	0.011089
1176.71	0.010319
1186.36	0.005749
1196	0.004319
1205.64	0.004729
1215.29	0.004419
1224.93	0.003429
1234.58	0.003409
1244.22	0.003359
1253.87	0.005509
1263.51	0.011649
1273.16	0.018789
1282.8	0.016169
1292.45	0.012369
1302.09	0.010909
1311.74	0.010279
1321.38	0.005829
1331.03	0.004219
1340.67	0.006179
1350.32	0.010259
1359.96	0.011709
1369.61	0.011809
1379.25	0.010299
1388.9	0.006889
1398.54	0.005749
1408.18	0.006589
1417.83	0.009649
1427.47	0.016439
1437.12	0.025089
1446.76	0.024489
1456.41	0.011289
1466.05	0.009599
1475.7	0.012959
1485.34	0.013659
1494.99	0.009789
1504.63	0.011329
1514.28	0.019269
1523.92	0.025309
1533.57	0.013369
1543.21	0.006169
1552.86	0.004209
1562.5	0.003359
1572.15	0.002549
1581.79	0.002219
1591.44	0.001919
1601.08	0.001689
1610.73	0.001539
1620.37	0.0013357
1630.01	0.0013132
1639.66	0.0013668
1649.3	0.0013403
1658.95	0.0012682
1668.59	0.001143
1678.24	0.0011787
1687.88	0.0009091
1697.53	0.0009782
1707.17	0.0008801
1716.82	0.0009219
1726.46	0.0008916
1736.11	0.0008046
1745.75	0.0006107
1755.4	0.0007057
1765.04	0.0006863
1774.69	0.0005751
1784.33	0.00050428
1793.98	0.0005587
1803.62	0.0005754
1813.27	0.0006278
1822.91	0.0005646
1832.55	0.00046911
1842.2	0.00048596
1851.84	0.0006599
1861.49	0.00049909
1871.13	0.0006053
1880.78	0.00052
1890.42	0.0005966
1900.07	0.0006323
1909.71	0.000588
1919.36	0.0007735
1929	0.0007708
1938.65	0.0006817
1948.29	0.0005425
1957.94	0.0005989
1967.58	0.000561
1977.23	0.000577
1986.87	0.0006652
1996.52	0.0008084
2006.16	0.000987
2015.81	0.0009424
2025.45	0.0008426
2035.1	0.0006169
2044.74	0.0005633
2054.38	0.00044957
2064.03	0.00046254
2073.67	0.000394
2083.32	0.0006396
2092.96	0.0005754
2102.61	0.00050101
2112.25	0.0005841
2121.9	0.0005521
2131.54	0.0005765
2141.19	0.000396
2150.83	0.000548
2160.48	0.0005826
2170.12	0.00046258
2179.77	0.00042128
2189.41	0.0004595
2199.06	0.0003537
2208.7	0.0005294
2218.35	0.0004737
2227.99	0.00047057
2237.64	0.0005835
2247.28	0.0005906
2256.92	0.0006802
2266.57	0.0007694
2276.21	0.0007341
2285.86	0.0007308
2295.5	0.00046084
2305.15	0.00046392
2314.79	0.0005067
2324.44	0.0006768
2334.08	0.0005131
2343.73	0.00047482
2353.37	0.0004787
2363.02	0.0007255
2372.66	0.0006004
2382.31	0.0007701
2391.95	0.0008832
2401.6	0.0009979
2411.24	0.0008451
2420.89	0.0007007
2430.53	0.0006966
2440.18	0.00047307
2449.82	0.00044484
2459.47	0.0003321
2469.11	0.00045436
2478.75	0.00048602
2488.4	0.0006033
2498.04	0.0005164
2507.69	0.0005442
2517.33	0.0004785
2526.98	0.0003699
2536.62	0.00043282
2546.27	0.0006518
2555.91	0.0005855
2565.56	0.0003666
2575.2	0.0006215
2584.85	0.0006016
2594.49	0.0006467
2604.14	0.0005637
2613.78	0.0006318
2623.43	0.0005684
2633.07	0.00048121
2642.72	0.00047911
2652.36	0.0006145
2662.01	0.0006399
2671.65	0.0006271
2681.29	0.0006966
2690.94	0.0006554
2700.58	0.0005181
2710.23	0.0005766
2719.87	0.0006023
2729.52	0.0006925
2739.16	0.0006584
2748.81	0.0008748
2758.45	0.0009222
2768.1	0.0009539
2777.74	0.0008918
2787.39	0.00111
2797.03	0.001409
2806.68	0.001939
2816.32	0.003199
2825.97	0.005339
2835.61	0.009799
2845.26	0.009529
2854.9	0.007829
2864.55	0.006979
2874.19	0.006009
2883.84	0.005259
2893.48	0.005549
2903.12	0.007479
2912.77	0.016439
2922.41	0.062779
2932.06	0.077879
2941.7	0.015029
2951.35	0.006799
2960.99	0.006239
2970.64	0.007019
2980.28	0.011409
2989.93	0.019639
2999.57	0.015999
3009.22	0.007349
3018.86	0.004509
3028.51	0.003399
3038.15	0.003099
3047.8	0.002609
3057.44	0.002699
3067.09	0.002239
3076.73	0.002519
3086.38	0.002419
3096.02	0.002539
3105.67	0.002269
3115.31	0.002419
3124.95	0.001929
3134.6	0.001769
3144.24	0.001549
3153.89	0.0013091
3163.53	0.0011302
3173.18	0.0008848
3182.82	0.00101
3192.47	0.0009543
3202.11	0.0008004
3211.76	0.0009815
3221.4	0.000795
3231.05	0.0008457
3240.69	0.0006393
3250.34	0.0006528
3259.98	0.0005823
3269.63	0.000414683
3279.27	0.000296
3288.92	0.0004864
3298.56	0.0006432
3308.21	0.00050349
3317.85	0.0005609
3327.49	0.0003329
3337.14	0.0006731
3346.78	0.0003944
3356.43	0.000171
3366.07	0.00027
3375.72	0.00045336
3385.36	0.000155
3395.01	0.0003492
3404.65	0.0006094
3414.3	0.0005636
3423.94	0.00045829
3433.59	0.0004608
3443.23	0.0005565
3452.88	0.000269
3462.52	0.000217
3472.17	0.000174
3481.81	0.00045749
3491.46	0.00045687
3501.1	0.000275
3510.75	0.000416696
3520.39	0.000254
3530.04	0.00040075
3539.68	0.0005468
3549.32	0.00050438
3558.97	0.0005843
3568.61	0.0005832
3578.26	0.0003575
3587.9	0.00043018
3597.55	0.0006701
3607.19	0.000328
3616.84	0.000408229
3626.48	0.0006036
3636.13	0.0003693
3645.77	0.0006402
3655.42	0.0005194
3665.06	0.0006016
3674.71	6.4e-05
3684.35	0.00040577
3694	0.000275
3703.64	0.0003976
3713.29	0.0005305
3722.93	0.000301
3732.58	0.0003636
3742.22	0.00046374
3751.86	0.000205
3761.51	0.000291
3771.15	0.00048906
3780.8	0.000369
3790.44	0.000256
3800.09	0.00027
3809.73	0.0003752
3819.38	0.000224
3829.02	0.0003499
3838.67	0.0007165
3848.31	0.0006239
3857.96	0.000689
3867.6	0.000408671
3877.25	0.0006779
3886.89	0.000724
3896.54	0.0008461
3906.18	0.000379
3915.83	0.00042379
3925.47	0.0005631
3935.12	0.0005415
3944.76	0.0008984
3954.41	0.0006735
3964.05	0.0007206
3973.69	0.0006017
3983.34	0.000614
3992.98	0.0003515
