Infrared Spectrum: 3,4,5-Tris(methylthio)benzotrifluoride
Formula: C 10 H 11 F 3 S 3
CAS: 65516-85-0
State: gas
Origin: EPA-IR VAPOR PHASE LIBRARY
1/CM	ABSORBANCE
549.8	0.005196
559.445	0.007466
569.09	0.005736
578.734	0.003136
588.379	0.0014801
598.024	0.002226
607.669	0.0016059
617.313	0.001436
626.958	0.0014436
636.603	0.001936
646.248	0.002236
655.893	0.005916
665.537	0.003616
675.182	0.003286
684.827	0.004846
694.472	0.011096
704.116	0.016226
713.761	0.047596
723.406	0.022676
733.051	0.007496
742.695	0.002996
752.34	0.003536
761.985	0.004966
771.63	0.007586
781.275	0.017676
790.919	0.041616
800.564	0.035516
810.209	0.019176
819.854	0.012346
829.498	0.007936
839.143	0.014986
848.788	0.032196
858.433	0.030626
868.078	0.024936
877.722	0.017366
887.367	0.014646
897.012	0.009336
906.657	0.005856
916.301	0.004346
925.946	0.004596
935.591	0.005486
945.236	0.008196
954.88	0.012316
964.525	0.017256
974.17	0.020186
983.815	0.009906
993.46	0.006206
1003.1	0.005386
1012.75	0.004386
1022.39	0.006056
1032.04	0.007726
1041.68	0.013806
1051.33	0.010786
1060.97	0.007306
1070.62	0.008306
1080.26	0.011376
1089.91	0.021636
1099.55	0.062716
1109.2	0.163216
1118.84	0.119356
1128.49	0.100556
1138.13	0.257366
1147.78	0.402226
1157.42	0.188106
1167.07	0.191146
1176.71	0.080646
1186.36	0.062286
1196	0.133846
1205.64	0.102866
1215.29	0.035106
1224.93	0.027956
1234.58	0.035866
1244.22	0.038826
1253.87	0.032966
1263.51	0.030636
1273.16	0.034146
1282.8	0.051436
1292.45	0.114736
1302.09	0.393976
1311.74	0.581216
1321.38	0.184076
1331.03	0.047556
1340.67	0.020176
1350.32	0.015396
1359.96	0.019986
1369.61	0.046466
1379.25	0.089046
1388.9	0.077636
1398.54	0.058606
1408.18	0.042176
1417.83	0.027826
1427.47	0.031766
1437.12	0.044876
1446.76	0.044806
1456.41	0.019736
1466.05	0.010596
1475.7	0.007986
1485.34	0.006896
1494.99	0.006826
1504.63	0.007736
1514.28	0.009256
1523.92	0.013066
1533.57	0.025766
1543.21	0.054326
1552.86	0.047956
1562.5	0.016326
1572.15	0.009316
1581.79	0.009186
1591.44	0.009666
1601.08	0.007056
1610.73	0.004976
1620.37	0.003786
1630.01	0.003256
1639.66	0.003146
1649.3	0.002916
1658.95	0.003066
1668.59	0.003276
1678.24	0.002996
1687.88	0.003066
1697.53	0.004166
1707.17	0.005206
1716.82	0.004166
1726.46	0.003546
1736.11	0.003246
1745.75	0.003246
1755.4	0.003306
1765.04	0.003846
1774.69	0.003236
1784.33	0.002296
1793.98	0.002206
1803.62	0.001916
1813.27	0.0015485
1822.91	0.0015731
1832.55	0.0013095
1842.2	0.0012944
1851.84	0.0014105
1861.49	0.0014605
1871.13	0.001301
1880.78	0.0011978
1890.42	0.0011596
1900.07	0.0014256
1909.71	0.0014586
1919.36	0.0014801
1929	0.0014773
1938.65	0.0013921
1948.29	0.0014704
1957.94	0.0015125
1967.58	0.0014046
1977.23	0.0014604
1986.87	0.0017177
1996.52	0.002246
2006.16	0.002476
2015.81	0.002306
2025.45	0.002096
2035.1	0.0015705
2044.74	0.0011252
2054.38	0.0009988
2064.03	0.0009985
2073.67	0.0008837
2083.32	0.0010024
2092.96	0.0009565
2102.61	0.0009658
2112.25	0.0009249
2121.9	0.0011269
2131.54	0.0011385
2141.19	0.0015781
2150.83	0.002076
2160.48	0.001996
2170.12	0.0012273
2179.77	0.0009601
2189.41	0.0009223
2199.06	0.0010557
2208.7	0.0011395
2218.35	0.0012089
2227.99	0.001426
2237.64	0.0017022
2247.28	0.002036
2256.92	0.002316
2266.57	0.002556
2276.21	0.002906
2285.86	0.002646
2295.5	0.001966
2305.15	0.001846
2314.79	0.0016032
2324.44	0.0016091
2334.08	0.0015093
2343.73	0.0013867
2353.37	0.0014496
2363.02	0.0014106
2372.66	0.0015861
2382.31	0.0015116
2391.95	0.0017457
2401.6	0.0017468
2411.24	0.0015296
2420.89	0.0011955
2430.53	0.0014364
2440.18	0.0014929
2449.82	0.0015828
2459.47	0.001457
2469.11	0.0017017
2478.75	0.0014531
2488.4	0.0012783
2498.04	0.0013452
2507.69	0.0014604
2517.33	0.0012172
2526.98	0.0009383
2536.62	0.0009598
2546.27	0.0010836
2555.91	0.0010788
2565.56	0.0011427
2575.2	0.0009434
2584.85	0.0011834
2594.49	0.0013043
2604.14	0.0016169
2613.78	0.001976
2623.43	0.0016998
2633.07	0.0013561
2642.72	0.0011257
2652.36	0.000796445
2662.01	0.0009628
2671.65	0.0009799
2681.29	0.0009605
2690.94	0.0009283
2700.58	0.00087521
2710.23	0.000863
2719.87	0.0009973
2729.52	0.0010528
2739.16	0.0013244
2748.81	0.0010806
2758.45	0.0010321
2768.1	0.0012437
2777.74	0.001247
2787.39	0.0015561
2797.03	0.001886
2806.68	0.002226
2816.32	0.003686
2825.97	0.005366
2835.61	0.009596
2845.26	0.013366
2854.9	0.012236
2864.55	0.009686
2874.19	0.008506
2883.84	0.007696
2893.48	0.007176
2903.12	0.008626
2912.77	0.014116
2922.41	0.042516
2932.06	0.108566
2941.7	0.035946
2951.35	0.010616
2960.99	0.007846
2970.64	0.008466
2980.28	0.011696
2989.93	0.023746
2999.57	0.026886
3009.22	0.010996
3018.86	0.005826
3028.51	0.004356
3038.15	0.003476
3047.8	0.003126
3057.44	0.003106
3067.09	0.002866
3076.73	0.002796
3086.38	0.002846
3096.02	0.002816
3105.67	0.002766
3115.31	0.002486
3124.95	0.002326
3134.6	0.002346
3144.24	0.001936
3153.89	0.0017045
3163.53	0.0016281
3173.18	0.0015933
3182.82	0.0013525
3192.47	0.00088991
3202.11	0.001194
3211.76	0.0010956
3221.4	0.0011657
3231.05	0.0007782
3240.69	0.001237
3250.34	0.0009457
3259.98	0.000938
3269.63	0.000445
3279.27	0.0009083
3288.92	0.000658
3298.56	0.0009428
3308.21	0.000631
3317.85	0.0008938
3327.49	0.00062
3337.14	0.000645
3346.78	0.00081949
3356.43	0.000459
3366.07	0.0007504
3375.72	0.000368
3385.36	0.000706
3395.01	0.000715
3404.65	0.000671
3414.3	0.000158
3423.94	0.000362
3433.59	0.00033
3443.23	0.000524
3452.88	0.000227
3462.52	0.000338
3472.17	0.000508
3481.81	0.000518
3491.46	0.000597
3501.1	0.000493
3510.75	0.000612
3520.39	0.000523
3530.04	0.000505
3539.68	0.000452
3549.32	0.000388
3558.97	0.000442
3568.61	0.000397
3578.26	0.000386
3587.9	0.000285
3597.55	0.000515
3607.19	3.5e-05
3616.84	0.00044
3626.48	0.00043
3636.13	0.000592
3645.77	0.000598
3655.42	0.000551
3665.06	0.000217
3674.71	0.000224
3684.35	0.000196
3694	0.0007276
3703.64	0.000598
3713.29	0.000495
3722.93	0.000411
3732.58	0.000303
3742.22	0.000344
3751.86	0.000262
3761.51	0.000607
3771.15	0.000244
3780.8	0.000195
3790.44	0.00048
3800.09	0.00039
3809.73	0.000526
3819.38	0.000167
3829.02	0.000615
3838.67	0.00058
3848.31	0.0007114
3857.96	0.000417
3867.6	0.000577
3877.25	0.0007618
3886.89	0.0011058
3896.54	0.00088217
3906.18	0.0007181
3915.83	0.00068
3925.47	0.00086137
3935.12	0.0011383
3944.76	0.0012405
3954.41	0.0012389
3964.05	0.0013369
3973.69	0.00081966
3983.34	0.000531
3992.98	0.000654
