Infrared Spectrum: BENZENEMETHANOL, Alpha-CYCLOPROPYL-4-METHYL-
Formula: C11 H14 O
CAS: 6552-46-1
State: SOLUTION (10% IN CCl4 FOR 3800-1300, 10% IN CS2 FOR 1300-650, 10% IN CCl4 FOR 650-250 CM^-^1) VERSUS SOLVENT
Class: COBLENTZ III
Instrument: PERKIN-ELMER 521 (GRATING)
Instrument parameters: FILTERS AT 3150, 2500, 2000, 1150, 700, 410; GRATING CHANGES AT 2000, 630 CM^-^1
Sampling: TRANSMISSION
Path length: 0.011, 0.010, AND 0.010 CM (CsBr CELL)
Resolution: 4
Origin: DOW CORNING CORP.
1/CM	TRANSMITTANCE
248.17	0.561
258.001	0.575
267.831	0.587
277.662	0.601
287.493	0.616
297.324	0.628
307.154	0.636
316.985	0.642
326.816	0.651
336.646	0.676
346.477	0.7
356.308	0.719
366.139	0.727
375.969	0.727
385.8	0.74
395.631	0.747
405.461	0.747
415.292	0.747
425.123	0.747
434.954	0.74
444.784	0.759
454.615	0.747
464.446	0.728
474.276	0.66
484.107	0.608
493.938	0.54
503.769	0.653
513.599	0.667
523.43	0.634
533.261	0.573
543.091	0.512
552.922	0.683
562.753	0.711
572.584	0.649
582.414	0.699
592.245	0.724
602.076	0.722
611.906	0.718
621.737	0.753
631.568	0.774
641.399	0.774
651.229	0.798
661.06	0.828
670.891	0.841
680.721	0.849
690.552	0.845
700.383	0.844
710.214	0.838
720.044	0.825
729.875	0.844
739.706	0.791
749.537	0.543
759.367	0.777
769.198	0.773
779.029	0.778
788.859	0.781
798.69	0.575
808.521	0.13
818.352	0.276
828.182	0.557
838.013	0.538
847.844	0.593
857.674	0.652
867.505	0.738
877.336	0.867
887.167	0.881
896.997	0.867
906.828	0.795
916.659	0.496
926.489	0.763
936.32	0.591
946.151	0.446
955.982	0.679
965.812	0.638
975.643	0.663
985.474	0.604
995.304	0.491
1005.14	0.31
1014.97	0.187
1024.8	0.139
1034.63	0.132
1044.46	0.288
1054.29	0.51
1064.12	0.728
1073.95	0.822
1083.78	0.829
1093.61	0.751
1103.44	0.645
1113.27	0.688
1123.1	0.649
1132.93	0.675
1142.77	0.748
1152.6	0.759
1162.43	0.651
1172.26	0.511
1182.09	0.57
1191.92	0.555
1201.75	0.667
1211.58	0.672
1221.41	0.645
1231.24	0.624
1241.07	0.633
1250.9	0.649
1260.73	0.661
1270.56	0.612
1280.4	0.585
1290.23	0.64
1300.06	0.577
1309.89	0.61
1319.72	0.641
1329.55	0.648
1339.38	0.657
1349.21	0.653
1359.04	0.652
1368.87	0.644
1378.7	0.574
1388.53	0.547
1398.36	0.57
1408.19	0.55
1418.03	0.542
1427.86	0.508
1437.69	0.586
1447.52	0.579
1457.35	0.575
1467.18	0.669
1477.01	0.731
1486.84	0.757
1496.67	0.748
1506.5	0.6
1516.33	0.416
1526.16	0.79
1535.99	0.86
1545.82	0.884
1555.66	0.883
1565.49	0.875
1575.32	0.868
1585.15	0.868
1594.98	0.863
1604.81	0.832
1614.64	0.783
1624.47	0.841
1634.3	0.845
1644.13	0.836
1653.96	0.849
1663.79	0.86
1673.62	0.872
1683.45	0.876
1693.29	0.877
1703.12	0.876
1712.95	0.877
1722.78	0.879
1732.61	0.876
1742.44	0.873
1752.27	0.872
1762.1	0.869
1771.93	0.869
1781.76	0.865
1791.59	0.849
1801.42	0.863
1811.25	0.88
1821.08	0.881
1830.92	0.883
1840.75	0.881
1850.58	0.876
1860.41	0.869
1870.24	0.864
1880.07	0.856
1889.9	0.844
1899.73	0.813
1909.56	0.836
1919.39	0.863
1929.22	0.875
1939.05	0.881
1948.88	0.884
1958.71	0.884
1968.55	0.884
1978.38	0.888
1988.21	0.884
1998.04	0.88
2007.87	0.893
2017.7	0.903
2027.53	0.9001
2037.36	0.896
2047.19	0.891
2057.02	0.887
2066.85	0.887
2076.68	0.8929
2086.51	0.902
2096.34	0.904
2106.18	0.908
2116.01	0.9109
2125.84	0.911
2135.67	0.911
2145.5	0.911
2155.33	0.91
2165.16	0.908
2174.99	0.907
2184.82	0.9062
2194.65	0.9043
2204.48	0.904
2214.31	0.904
2224.14	0.904
2233.97	0.906
2243.81	0.9022
2253.64	0.902
2263.47	0.902
2273.3	0.9038
2283.13	0.9032
2292.96	0.9
2302.79	0.9
2312.62	0.899
2322.45	0.899
2332.28	0.899
2342.11	0.897
2351.94	0.896
2361.77	0.896
2371.6	0.897
2381.44	0.897
2391.27	0.8963
2401.1	0.896
2410.93	0.893
2420.76	0.895
2430.59	0.892
2440.42	0.892
2450.25	0.891
2460.08	0.8884
2469.91	0.884
2479.74	0.8836
2489.57	0.8902
2499.4	0.892
2509.23	0.8884
2519.07	0.885
2528.9	0.884
2538.73	0.885
2548.56	0.8854
2558.39	0.885
2568.22	0.883
2578.05	0.8795
2587.88	0.8755
2597.71	0.8765
2607.54	0.877
2617.37	0.877
2627.2	0.877
2637.03	0.877
2646.86	0.877
2656.7	0.877
2666.53	0.877
2676.36	0.876
2686.19	0.875
2696.02	0.873
2705.85	0.872
2715.68	0.8686
2725.51	0.8606
2735.34	0.8472
2745.17	0.8594
2755	0.861
2764.83	0.857
2774.66	0.855
2784.49	0.8503
2794.33	0.839
2804.16	0.824
2813.99	0.8127
2823.82	0.7845
2833.65	0.7558
2843.48	0.7145
2853.31	0.6363
2863.14	0.5271
2872.97	0.4873
2882.8	0.5238
2892.63	0.5823
2902.46	0.6265
2912.29	0.6198
2922.12	0.5544
2931.96	0.4938
2941.79	0.6394
2951.62	0.6346
2961.45	0.6473
2971.28	0.6546
2981.11	0.6279
2990.94	0.5871
3000.77	0.4901
3010.6	0.2946
3020.43	0.3297
3030.26	0.4208
3040.09	0.5543
3049.92	0.6182
3059.75	0.6251
3069.59	0.6379
3079.42	0.6129
3089.25	0.511
3099.08	0.6965
3108.91	0.8124
3118.74	0.8411
3128.57	0.8449
3138.4	0.8451
3148.23	0.852
3158.06	0.853
3167.89	0.849
3177.72	0.845
3187.55	0.832
3197.38	0.821
3207.22	0.812
3217.05	0.797
3226.88	0.781
3236.71	0.7701
3246.54	0.747
3256.37	0.7314
3266.2	0.7081
3276.03	0.6833
3285.86	0.6602
3295.69	0.6444
3305.52	0.6174
3315.35	0.6002
3325.18	0.5783
3335.01	0.5665
3344.85	0.5482
3354.68	0.539
3364.51	0.5301
3374.34	0.5222
3384.17	0.5152
3394	0.5112
3403.83	0.51
3413.66	0.508
3423.49	0.5108
3433.32	0.512
3443.15	0.5188
3452.98	0.5228
3462.81	0.5341
3472.64	0.5398
3482.48	0.5651
3492.31	0.5817
3502.14	0.6227
3511.97	0.6444
3521.8	0.6771
3531.63	0.7006
3541.46	0.7107
3551.29	0.7314
3561.12	0.7414
3570.95	0.7497
3580.78	0.757
3590.61	0.7473
3600.44	0.6751
3610.27	0.5556
3620.11	0.5507
3629.94	0.7001
3639.77	0.8248
3649.6	0.8751
3659.43	0.8846
3669.26	0.891
3679.09	0.8984
3688.92	0.9052
3698.75	0.9076
3708.58	0.9116
3718.41	0.911
3728.24	0.9131
3738.07	0.916
3747.9	0.9145
3757.74	0.91
3767.57	0.911
3777.4	0.908
3787.23	0.904
