Infrared Spectrum: 3-BROMOPYRIDINE HYDROCHLORIDE
Formula: C5 H5 Br Cl N
CAS: 65520-08-3
State: SOLID (NUJOL MULL)
Class: COBLENTZ
Instrument: PERKIN-ELMER
Sampling: TRANSMISSION
Resolution: 4
Origin: ABBOTT LABORATORIES - WASHBURN
MICROMETERS	TRANSMITTANCE
2.036	0.327
2.07016	0.324
2.10431	0.3251
2.13847	0.332
2.17262	0.336
2.20678	0.3412
2.24093	0.344
2.27509	0.346
2.30924	0.348
2.3434	0.348
2.37755	0.354
2.41171	0.3597
2.44586	0.363
2.48002	0.3698
2.51417	0.37
2.54833	0.373
2.58248	0.383
2.61664	0.3921
2.65079	0.3952
2.68495	0.4008
2.7191	0.407
2.75326	0.407
2.78741	0.4091
2.82157	0.4121
2.85572	0.4178
2.88988	0.4183
2.92403	0.424
2.95819	0.4301
2.99234	0.4361
3.0265	0.447
3.06065	0.4552
3.09481	0.4622
3.12896	0.4703
3.16312	0.472
3.19727	0.4586
3.23143	0.4519
3.26558	0.4037
3.29974	0.3516
3.33389	0.2199
3.36805	0.1176
3.4022	0.0811
3.43636	0.1363
3.47051	0.1671
3.50467	0.3154
3.53882	0.4292
3.57298	0.464
3.60713	0.465
3.64129	0.457
3.67544	0.4409
3.7096	0.435
3.74376	0.431
3.77791	0.4278
3.81207	0.4207
3.84622	0.4119
3.88038	0.4019
3.91453	0.3968
3.94869	0.3888
3.98284	0.375
4.017	0.3647
4.05115	0.3577
4.08531	0.3509
4.11946	0.3479
4.15362	0.341
4.18777	0.336
4.22193	0.336
4.25608	0.339
4.29024	0.3391
4.32439	0.346
4.35855	0.3478
4.3927	0.343
4.42686	0.3481
4.46101	0.3601
4.49517	0.368
4.52932	0.375
4.56348	0.3891
4.59763	0.399
4.63179	0.4063
4.66594	0.4242
4.7001	0.4238
4.73425	0.4004
4.76841	0.382
4.80256	0.3951
4.83672	0.402
4.87087	0.407
4.90503	0.4126
4.93918	0.4207
4.97334	0.3989
5.00749	0.4195
5.04165	0.4434
5.0758	0.453
5.10996	0.4497
5.14411	0.44
5.17827	0.4481
5.21242	0.4572
5.24658	0.4703
5.28073	0.4881
5.31489	0.491
5.34904	0.5001
5.3832	0.5051
5.41736	0.52
5.45151	0.5301
5.48567	0.5372
5.51982	0.5422
5.55398	0.556
5.58813	0.563
5.62229	0.5486
5.65644	0.539
5.6906	0.5515
5.72475	0.5662
5.75891	0.576
5.79306	0.58
5.82722	0.583
5.86137	0.5881
5.89553	0.5902
5.92968	0.5932
5.96384	0.604
5.99799	0.604
6.03215	0.61
6.0663	0.616
6.10046	0.619
6.13461	0.6188
6.16877	0.617
6.20292	0.5112
6.23708	0.5016
6.27123	0.5922
6.30539	0.6223
6.33954	0.6261
6.3737	0.629
6.40785	0.6478
6.44201	0.653
6.47616	0.6112
6.51032	0.3856
6.54447	0.3762
6.57863	0.4527
6.61278	0.5094
6.64694	0.5541
6.68109	0.576
6.71525	0.5921
6.7494	0.545
6.78356	0.3827
6.81771	0.2455
6.85187	0.266
6.88602	0.3459
6.92018	0.4301
6.95433	0.5223
6.98849	0.5626
7.02264	0.5799
7.0568	0.59
7.09096	0.595
7.12511	0.6051
7.15927	0.6099
7.19342	0.5721
7.22758	0.5225
7.26173	0.5608
7.29589	0.587
7.33004	0.6022
7.3642	0.6261
7.39835	0.633
7.43251	0.6081
7.46666	0.4935
7.50082	0.5358
7.53497	0.6071
7.56913	0.5997
7.60328	0.5156
7.63744	0.564
7.67159	0.5979
7.70575	0.621
7.7399	0.629
7.77406	0.633
7.80821	0.6312
7.84237	0.6242
7.87652	0.616
7.91068	0.622
7.94483	0.5291
7.97899	0.491
8.01314	0.578
8.0473	0.6206
8.08145	0.6427
8.11561	0.6529
8.14976	0.665
8.18392	0.668
8.21807	0.668
8.25223	0.668
8.28638	0.668
8.32054	0.6786
8.35469	0.6649
8.38885	0.604
8.423	0.6471
8.45716	0.6679
8.49131	0.6764
8.52547	0.6799
8.55962	0.682
8.59378	0.6918
8.62793	0.694
8.66209	0.696
8.69624	0.6969
8.7304	0.7108
8.76456	0.7064
8.79871	0.699
8.83287	0.7127
8.86702	0.723
8.90118	0.728
8.93533	0.7107
8.96949	0.6344
9.00364	0.7061
9.0378	0.6848
9.07195	0.4465
9.10611	0.5183
9.14026	0.628
9.17442	0.6605
9.20857	0.677
9.24273	0.679
9.27688	0.68
9.31104	0.6752
9.34519	0.672
9.37935	0.679
9.4135	0.6742
9.44766	0.6434
9.48181	0.6092
9.51597	0.628
9.55012	0.6848
9.58428	0.7109
9.61843	0.7122
9.65259	0.5984
9.68674	0.5885
9.7209	0.6509
9.75505	0.66
9.78921	0.652
9.82336	0.6235
9.85752	0.6402
9.89167	0.6744
9.92583	0.6773
9.95998	0.6491
9.99414	0.5885
10.0283	0.5403
10.0624	0.533
10.0966	0.5781
10.1308	0.6244
10.1649	0.6672
10.1991	0.6815
10.2332	0.7005
10.2674	0.7119
10.3015	0.7202
10.3357	0.7167
10.3698	0.6911
10.404	0.6535
10.4382	0.6865
10.4723	0.7092
10.5065	0.7158
10.5406	0.7293
10.5748	0.73
10.6089	0.7314
10.6431	0.7364
10.6772	0.74
10.7114	0.737
10.7456	0.744
10.7797	0.7424
10.8139	0.745
10.848	0.749
10.8822	0.7515
10.9163	0.754
10.9505	0.757
10.9846	0.7618
11.0188	0.767
11.0529	0.767
11.0871	0.767
11.1213	0.767
11.1554	0.767
11.1896	0.7644
11.2237	0.759
11.2579	0.748
11.292	0.7142
11.3262	0.6569
11.3603	0.5648
11.3945	0.52
11.4287	0.5619
11.4628	0.6604
11.497	0.7073
11.5311	0.7321
11.5653	0.7463
11.5994	0.7505
11.6336	0.7483
11.6677	0.755
11.7019	0.757
11.736	0.759
11.7702	0.762
11.8044	0.767
11.8385	0.7663
11.8727	0.7667
11.9068	0.769
11.941	0.764
11.9751	0.764
12.0093	0.7613
12.0434	0.757
12.0776	0.7507
12.1118	0.7373
12.1459	0.7239
12.1801	0.7053
12.2142	0.6713
12.2484	0.631
12.2825	0.5692
12.3167	0.4914
12.3508	0.4102
12.385	0.3734
12.4192	0.3722
12.4533	0.4189
12.4875	0.4865
12.5216	0.571
12.5558	0.6357
12.5899	0.6756
12.6241	0.7018
12.6582	0.7142
12.6924	0.7297
12.7265	0.7406
12.7607	0.7483
12.7949	0.7584
12.829	0.762
12.8632	0.764
12.8973	0.7702
12.9315	0.7736
12.9656	0.778
12.9998	0.778
13.0339	0.774
13.0681	0.776
13.1023	0.7798
13.1364	0.783
13.1706	0.779
13.2047	0.778
13.2389	0.78
13.273	0.781
13.3072	0.776
13.3413	0.779
13.3755	0.7802
13.4096	0.776
13.4438	0.778
13.478	0.7769
13.5121	0.7713
13.5463	0.7698
13.5804	0.769
13.6146	0.7663
13.6487	0.765
13.6829	0.766
13.717	0.764
13.7512	0.7614
13.7854	0.7608
13.8195	0.7577
13.8537	0.754
13.8878	0.7581
13.922	0.764
13.9561	0.7598
13.9903	0.761
14.0244	0.759
14.0586	0.7555
14.0928	0.7567
14.1269	0.7504
14.1611	0.699
14.1952	0.5537
14.2294	0.4008
14.2635	0.4664
14.2977	0.6021
14.3318	0.6592
14.366	0.6796
14.4001	0.684
14.4343	0.688
14.4685	0.694
14.5026	0.694
14.5368	0.691
14.5709	0.6864
14.6051	0.6744
14.6392	0.6592
14.6734	0.6321
14.7075	0.5863
14.7417	0.5069
14.7759	0.4237
14.81	0.3792
14.8442	0.358
14.8783	0.3874
14.9125	0.437
14.9466	0.483
14.9808	0.5522
15.0149	0.6013
15.0491	0.6138
15.0832	0.6249
15.1174	0.637
15.1516	0.639
15.1857	0.641
15.2199	0.6421
15.254	0.639
15.2882	0.636
15.3223	0.634
15.3565	0.633
15.3906	0.6299
15.4248	0.633
