Infrared Spectrum: UREA, 1-(2-CHLOROETHYL)-3-(p-METHOXYPHENYL)-
Formula: C10 H13 Cl N2 O2
CAS: 65536-40-5
State: SOLID (0.7 mg / 500 mg KBr DISC)
Class: COBLENTZ III
Instrument: PERKIN-ELMER 21 (GRATING)
Instrument parameters: FILTER CHANGE ABOUT 1100 CM ^-^1
Sampling: TRANSMISSION
Resolution: 4
Origin: SOUTHERN RES. INSTITUTE
1/CM	TRANSMITTANCE
607.334	0.714
616.449	0.715
625.563	0.715
634.678	0.714
643.793	0.7
652.908	0.62
662.022	0.589
671.137	0.621
680.252	0.681
689.367	0.751
698.481	0.773
707.596	0.803
716.711	0.808
725.825	0.774
734.94	0.734
744.055	0.722
753.17	0.691
762.284	0.811
771.399	0.808
780.514	0.796
789.629	0.782
798.743	0.802
807.858	0.811
816.973	0.796
826.087	0.814
835.202	0.587
844.317	0.654
853.432	0.814
862.546	0.853
871.661	0.856
880.776	0.864
889.891	0.867
899.005	0.863
908.12	0.861
917.235	0.862
926.349	0.86
935.464	0.854
944.579	0.859
953.694	0.851
962.808	0.853
971.923	0.848
981.038	0.833
990.153	0.816
999.267	0.813
1008.38	0.807
1017.5	0.799
1026.61	0.772
1035.73	0.731
1044.84	0.544
1053.96	0.613
1063.07	0.789
1072.19	0.785
1081.3	0.792
1090.41	0.822
1099.53	0.802
1108.64	0.778
1117.76	0.731
1126.87	0.767
1135.99	0.765
1145.1	0.776
1154.22	0.771
1163.33	0.762
1172.45	0.755
1181.56	0.711
1190.68	0.711
1199.79	0.724
1208.91	0.716
1218.02	0.697
1227.14	0.645
1236.25	0.498
1245.36	0.353
1254.48	0.41
1263.59	0.611
1272.71	0.671
1281.82	0.746
1290.94	0.757
1300.05	0.691
1309.17	0.55
1318.28	0.483
1327.4	0.692
1336.51	0.762
1345.63	0.787
1354.74	0.805
1363.86	0.811
1372.97	0.802
1382.09	0.799
1391.2	0.824
1400.32	0.824
1409.43	0.814
1418.54	0.795
1427.66	0.721
1436.77	0.792
1445.89	0.738
1455	0.686
1464.12	0.6
1473.23	0.639
1482.35	0.711
1491.46	0.769
1500.58	0.74
1509.69	0.646
1518.81	0.451
1527.92	0.555
1537.04	0.546
1546.15	0.65
1555.27	0.605
1564.38	0.551
1573.5	0.392
1582.61	0.29
1591.72	0.428
1600.84	0.342
1609.95	0.29
1619.07	0.335
1628.18	0.316
1637.3	0.211
1646.41	0.389
1655.53	0.527
1664.64	0.62
1673.76	0.691
1682.87	0.737
1691.99	0.763
1701.1	0.776
1710.22	0.804
1719.33	0.827
1728.45	0.845
1737.56	0.853
1746.67	0.858
1755.79	0.861
1764.9	0.864
1774.02	0.868
1783.13	0.87
1792.25	0.873
1801.36	0.876
1810.48	0.879
1819.59	0.879
1828.71	0.879
1837.82	0.881
1846.94	0.879
1856.05	0.874
1865.17	0.872
1874.28	0.867
1883.4	0.878
1892.51	0.882
1901.63	0.885
1910.74	0.887
1919.85	0.887
1928.97	0.885
1938.08	0.885
1947.2	0.883
1956.31	0.885
1965.43	0.884
1974.54	0.882
1983.66	0.882
1992.77	0.881
2001.89	0.88
2011	0.88
2020.12	0.879
2029.23	0.879
2038.35	0.878
2047.46	0.876
2056.58	0.875
2065.69	0.868
2074.81	0.872
2083.92	0.878
2093.03	0.879
2102.15	0.88
2111.26	0.88
2120.38	0.88
2129.49	0.879
2138.61	0.879
2147.72	0.878
2156.84	0.877
2165.95	0.877
2175.07	0.876
2184.18	0.876
2193.3	0.873
2202.41	0.873
2211.53	0.874
2220.64	0.876
2229.76	0.873
2238.87	0.872
2247.98	0.87
2257.1	0.87
2266.21	0.871
2275.33	0.873
2284.44	0.873
2293.56	0.872
2302.67	0.873
2311.79	0.876
2320.9	0.885
2330.02	0.888
2339.13	0.885
2348.25	0.883
2357.36	0.882
2366.48	0.872
2375.59	0.867
2384.71	0.867
2393.82	0.866
2402.94	0.865
2412.05	0.865
2421.16	0.865
2430.28	0.861
2439.39	0.858
2448.51	0.858
2457.62	0.859
2466.74	0.861
2475.85	0.861
2484.97	0.86
2494.08	0.859
2503.2	0.857
2512.31	0.855
2521.43	0.856
2530.54	0.857
2539.66	0.856
2548.77	0.855
2557.89	0.854
2567	0.854
2576.12	0.853
2585.23	0.851
2594.34	0.851
2603.46	0.848
2612.57	0.849
2621.69	0.851
2630.8	0.851
2639.92	0.849
2649.03	0.848
2658.15	0.848
2667.26	0.845
2676.38	0.844
2685.49	0.842
2694.61	0.842
2703.72	0.842
2712.84	0.841
2721.95	0.839
2731.07	0.836
2740.18	0.834
2749.29	0.832
2758.41	0.83
2767.52	0.828
2776.64	0.824
2785.75	0.817
2794.87	0.809
2803.98	0.793
2813.1	0.785
2822.21	0.796
2831.33	0.8
2840.44	0.798
2849.56	0.797
2858.67	0.797
2867.79	0.793
2876.9	0.783
2886.02	0.779
2895.13	0.768
2904.25	0.759
2913.36	0.74
2922.47	0.726
2931.59	0.726
2940.7	0.737
2949.82	0.748
2958.93	0.766
2968.05	0.777
2977.16	0.768
2986.28	0.759
2995.39	0.766
3004.51	0.774
3013.62	0.776
3022.74	0.771
3031.85	0.772
3040.97	0.774
3050.08	0.771
3059.2	0.773
3068.31	0.775
3077.43	0.772
3086.54	0.753
3095.65	0.744
3104.77	0.742
3113.88	0.745
3123	0.749
3132.11	0.747
3141.23	0.744
3150.34	0.742
3159.46	0.739
3168.57	0.731
3177.69	0.721
3186.8	0.71
3195.92	0.7
3205.03	0.676
3214.15	0.655
3223.26	0.63
3232.38	0.598
3241.49	0.559
3250.6	0.512
3259.72	0.477
3268.83	0.441
3277.95	0.404
3287.06	0.396
3296.18	0.4
3305.29	0.413
3314.41	0.438
3323.52	0.472
3332.64	0.512
3341.75	0.555
3350.87	0.578
3359.98	0.62
3369.1	0.649
3378.21	0.687
3387.33	0.718
3396.44	0.734
3405.56	0.746
3414.67	0.751
3423.78	0.756
3432.9	0.759
3442.01	0.762
3451.13	0.765
3460.24	0.768
3469.36	0.77
3478.47	0.771
3487.59	0.772
3496.7	0.777
3505.82	0.783
3514.93	0.787
3524.05	0.789
3533.16	0.79
3542.28	0.791
3551.39	0.793
3560.51	0.799
3569.62	0.801
3578.74	0.805
3587.85	0.811
3596.96	0.816
3606.08	0.818
3615.19	0.82
3624.31	0.821
3633.42	0.819
3642.54	0.82
3651.65	0.822
3660.77	0.823
3669.88	0.824
3679	0.824
3688.11	0.824
3697.23	0.824
3706.34	0.824
3715.46	0.824
3724.57	0.823
3733.69	0.822
3742.8	0.82
3751.91	0.821
3761.03	0.822
3770.14	0.823
3779.26	0.823
3788.37	0.82
3797.49	0.817
3806.6	0.817
3815.72	0.819
3824.83	0.82
3833.95	0.818
3843.06	0.817
3852.18	0.817
3861.29	0.817
3870.41	0.817
3879.52	0.817
3888.64	0.818
3897.75	0.818
3906.87	0.817
3915.98	0.815
3925.09	0.813
3934.21	0.811
3943.32	0.813
3952.44	0.813
3961.55	0.814
3970.67	0.814
3979.78	0.814
3988.9	0.813
3998.01	0.812
