Infrared Spectrum: 2-BENZOTHIAZOLINETHIONE, 3-[(m-NITROANILINO)METHYL]-
Formula: C14 H11 N3 O2 S2
CAS: 65537-00-0
State: SOLID (SPLIT MULL)
Melting point: 179 C
Class: COBLENTZ III
Instrument: DOW KBr FOREPRISM-GRATING
Instrument parameters: BLAZED AT 3.5, 12.0, 20.0 MICRON AND CHANGED AT 5.0, 7.5, 14.9 MICRON
Sampling: TRANSMISSION
Resolution: 2
Origin: DOW CHEMICAL COMPANY
1/CM	TRANSMITTANCE
380	0.7247
389	0.7275
398	0.7408
407	0.7442
416	0.7406
425	0.735
434	0.7726
443	0.7715
452	0.7661
461	0.7611
470	0.7528
479	0.7572
488	0.7604
497	0.7344
506	0.7012
515	0.7324
524	0.7614
533	0.7601
542	0.6956
551	0.6786
560	0.7285
569	0.8042
578	0.7981
587	0.8135
596	0.836
605	0.6951
614	0.8628
623	0.8758
632	0.8803
641	0.8784
650	0.8716
659	0.833
668	0.5236
677	0.8461
686	0.8258
695	0.8616
704	0.8746
713	0.835
722	0.7662
731	0.6198
740	0.3576
749	0.6707
758	0.3294
767	0.8121
776	0.8266
785	0.8081
794	0.6828
803	0.6153
812	0.6728
821	0.8436
830	0.8501
839	0.8382
848	0.7934
857	0.7894
866	0.7998
875	0.5216
884	0.8036
893	0.8008
902	0.7901
911	0.7298
920	0.7814
929	0.7418
938	0.6828
947	0.621
956	0.7767
965	0.7828
974	0.7622
983	0.751
992	0.7782
1001	0.78
1010	0.7514
1019	0.5942
1028	0.7367
1037	0.671
1046	0.3798
1055	0.4697
1064	0.6731
1073	0.5985
1082	0.7448
1091	0.7087
1100	0.6775
1109	0.6224
1118	0.4833
1127	0.2666
1136	0.4469
1145	0.5716
1154	0.7122
1163	0.6303
1172	0.7147
1181	0.7312
1190	0.7156
1199	0.6844
1208	0.6318
1217	0.598
1226	0.5007
1235	0.0728
1244	0.5392
1253	0.33
1262	0.3216
1271	0.535
1280	0.5094
1289	0.4474
1298	0.5049
1307	0.513
1316	0.3589
1325	0.4566
1334	0.2997
1343	0.0932
1352	0.0932
1361	0.5047
1370	0.1094
1379	0.542
1388	0.733
1397	0.8175
1406	0.815
1415	0.7981
1424	0.7842
1433	0.7718
1442	0.774
1451	0.6942
1460	0.3243
1469	0.6377
1478	0.6481
1487	0.664
1496	0.6322
1505	0.4554
1514	0.4354
1523	0.3362
1532	0.2241
1541	0.087
1550	0.386
1559	0.7806
1568	0.7915
1577	0.7449
1586	0.7389
1595	0.804
1604	0.7601
1613	0.6197
1622	0.4314
1631	0.7731
1640	0.8524
1649	0.8695
1658	0.8647
1667	0.8584
1676	0.8495
1685	0.8446
1694	0.8453
1703	0.8481
1712	0.8485
1721	0.8414
1730	0.8342
1739	0.8302
1748	0.8339
1757	0.829
1766	0.819
1775	0.8278
1784	0.8474
1793	0.8525
1802	0.8528
1811	0.8507
1820	0.8474
1829	0.8465
1838	0.8454
1847	0.842
1856	0.8354
1865	0.836
1874	0.8382
1883	0.8397
1892	0.8365
1901	0.833
1910	0.8431
1919	0.8407
1928	0.8362
1937	0.8293
1946	0.818
1955	0.8311
1964	0.8349
1973	0.8303
1982	0.8295
1991	0.8236
2000	0.8178
2009	0.7997
2018	0.8
2027	0.7992
2036	0.7967
2045	0.7943
2054	0.7925
2063	0.7911
2072	0.7895
2081	0.7871
2090	0.7847
2099	0.7824
2108	0.7801
2117	0.7776
2126	0.7754
2135	0.773
2144	0.7703
2153	0.7675
2162	0.7657
2171	0.7638
2180	0.7626
2189	0.7621
2198	0.7621
2207	0.7611
2216	0.7588
2225	0.7561
2234	0.7538
2243	0.7511
2252	0.7483
2261	0.7454
2270	0.7433
2279	0.7415
2288	0.741
2297	0.7411
2306	0.7422
2315	0.7456
2324	0.7472
2333	0.7451
2342	0.7401
2351	0.7355
2360	0.7325
2369	0.7308
2378	0.7293
2387	0.7275
2396	0.7258
2405	0.7241
2414	0.7228
2423	0.7218
2432	0.7207
2441	0.7194
2450	0.7182
2459	0.7168
2468	0.7157
2477	0.7147
2486	0.7137
2495	0.7128
2504	0.7118
2513	0.7104
2522	0.7089
2531	0.7074
2540	0.7058
2549	0.7033
2558	0.6996
2567	0.6958
2576	0.6943
2585	0.6936
2594	0.6928
2603	0.6919
2612	0.6911
2621	0.6901
2630	0.6891
2639	0.6876
2648	0.6862
2657	0.6844
2666	0.6815
2675	0.6787
2684	0.6758
2693	0.6733
2702	0.6706
2711	0.6678
2720	0.6653
2729	0.6631
2738	0.661
2747	0.6588
2756	0.6567
2765	0.6546
2774	0.6521
2783	0.649
2792	0.646
2801	0.6428
2810	0.6374
2819	0.6316
2828	0.626
2837	0.6212
2846	0.6182
2855	0.6156
2864	0.6138
2873	0.6104
2882	0.6062
2891	0.6018
2900	0.5971
2909	0.5958
2918	0.5953
2927	0.5969
2936	0.5986
2945	0.6003
2954	0.6029
2963	0.6057
2972	0.6067
2981	0.6046
2990	0.6001
2999	0.5905
3008	0.5847
3017	0.5727
3026	0.5541
3035	0.533
3044	0.5193
3053	0.5603
3062	0.567
3071	0.5691
3080	0.571
3089	0.57
3098	0.5609
3107	0.5881
3116	0.5991
3125	0.5994
3134	0.5991
3143	0.5981
3152	0.5975
3161	0.597
3170	0.5962
3179	0.5954
3188	0.5951
3197	0.5946
3206	0.593
3215	0.5914
3224	0.5896
3233	0.5875
3242	0.5854
3251	0.583
3260	0.5805
3269	0.5779
3278	0.5746
3287	0.5705
3296	0.5655
3305	0.5602
3314	0.5532
3323	0.5445
3332	0.5349
3341	0.5231
3350	0.5065
3359	0.4814
3368	0.4512
3377	0.3889
3386	0.2185
3395	0.3021
3404	0.5162
3413	0.5269
3422	0.461
3431	0.5844
3440	0.586
3449	0.5847
3458	0.5825
3467	0.581
3476	0.579
3485	0.5756
3494	0.5719
3503	0.5686
3512	0.5665
3521	0.5644
3530	0.5625
3539	0.5607
3548	0.5586
3557	0.556
3566	0.5535
3575	0.5514
3584	0.5497
3593	0.5483
3602	0.5481
3611	0.5484
3620	0.5459
3629	0.5436
3638	0.5425
3647	0.5415
3656	0.5405
3665	0.5389
3674	0.5371
3683	0.5356
3692	0.5345
3701	0.5334
3710	0.5323
3719	0.5314
3728	0.5304
3737	0.5295
3746	0.5281
3755	0.5266
3764	0.5253
3773	0.5239
3782	0.5227
3791	0.5212
3800	0.5203
