Infrared Spectrum: N-t-Butylmethacrylamide
Formula: C 8 H 15 N O
CAS: 6554-73-0
State: gas
Origin: EPA-IR VAPOR PHASE LIBRARY
1/CM	ABSORBANCE
549.8	0.001301
559.445	0.001181
569.09	0.001321
578.734	0.001431
588.379	0.001521
598.024	0.001901
607.669	0.001561
617.313	0.0011295
626.958	0.0008651
636.603	0.0008003
646.248	0.0007318
655.893	0.0004784
665.537	0.0008594
675.182	0.0009021
684.827	0.0005275
694.472	0.000706
704.116	0.0006757
713.761	0.0003612
723.406	0.0003101
733.051	0.0006118
742.695	0.0007549
752.34	0.0007389
761.985	0.0009876
771.63	0.0010197
781.275	0.001331
790.919	0.002261
800.564	0.002601
810.209	0.001861
819.854	0.001641
829.498	0.001301
839.143	0.001421
848.788	0.001721
858.433	0.001831
868.078	0.002061
877.722	0.002941
887.367	0.003531
897.012	0.005181
906.657	0.007091
916.301	0.006221
925.946	0.005001
935.591	0.004611
945.236	0.004401
954.88	0.004221
964.525	0.003201
974.17	0.002311
983.815	0.002081
993.46	0.001821
1003.1	0.001901
1012.75	0.002371
1022.39	0.001911
1032.04	0.001371
1041.68	0.001551
1051.33	0.001321
1060.97	0.0009621
1070.62	0.0006009
1080.26	0.001211
1089.91	0.0007246
1099.55	0.0006175
1109.2	0.0009421
1118.84	0.001321
1128.49	0.001361
1138.13	0.001651
1147.78	0.002091
1157.42	0.004161
1167.07	0.008761
1176.71	0.014561
1186.36	0.014851
1196	0.009881
1205.64	0.009041
1215.29	0.012501
1224.93	0.018221
1234.58	0.019851
1244.22	0.015571
1253.87	0.007781
1263.51	0.004281
1273.16	0.003561
1282.8	0.005101
1292.45	0.006901
1302.09	0.007041
1311.74	0.005881
1321.38	0.003801
1331.03	0.002811
1340.67	0.002761
1350.32	0.004331
1359.96	0.008591
1369.61	0.013221
1379.25	0.011361
1388.9	0.010661
1398.54	0.010761
1408.18	0.007431
1417.83	0.005791
1427.47	0.006881
1437.12	0.010791
1446.76	0.017891
1456.41	0.023041
1466.05	0.021261
1475.7	0.022091
1485.34	0.036021
1494.99	0.049821
1504.63	0.041541
1514.28	0.021851
1523.92	0.011361
1533.57	0.006571
1543.21	0.004341
1552.86	0.003401
1562.5	0.002951
1572.15	0.002761
1581.79	0.002821
1591.44	0.003071
1601.08	0.003391
1610.73	0.004361
1620.37	0.006951
1630.01	0.009791
1639.66	0.009231
1649.3	0.006031
1658.95	0.004871
1668.59	0.007401
1678.24	0.017591
1687.88	0.035841
1697.53	0.041511
1707.17	0.026411
1716.82	0.011601
1726.46	0.005401
1736.11	0.003181
1745.75	0.002221
1755.4	0.001771
1765.04	0.001401
1774.69	0.0009463
1784.33	0.0009926
1793.98	0.0009298
1803.62	0.0010777
1813.27	0.001181
1822.91	0.001371
1832.55	0.001161
1842.2	0.0008828
1851.84	0.0006851
1861.49	0.000645
1871.13	0.000673
1880.78	0.0006243
1890.42	0.0006078
1900.07	0.0005341
1909.71	0.0005337
1919.36	0.0004976
1929	0.0003509
1938.65	0.0004168
1948.29	0.0003625
1957.94	0.0003619
1967.58	0.0003823
1977.23	0.0003105
1986.87	0.0003427
1996.52	0.000341
2006.16	0.0003011
2015.81	0.0003473
2025.45	0.0003166
2035.1	0.0003404
2044.74	0.0003656
2054.38	0.00025396
2064.03	0.00021459
2073.67	0.0002884
2083.32	0.0002797
2092.96	0.0003051
2102.61	0.0002795
2112.25	0.0003003
2121.9	0.00025441
2131.54	0.0003249
2141.19	0.00025687
2150.83	0.0003231
2160.48	0.00026032
2170.12	0.00024295
2179.77	0.0003363
2189.41	0.00022017
2199.06	0.0002725
2208.7	0.00018081
2218.35	0.00019515
2227.99	0.00019021
2237.64	0.00022854
2247.28	0.0003199
2256.92	0.00022175
2266.57	0.0003337
2276.21	0.0003175
2285.86	0.000302
2295.5	0.0002878
2305.15	0.00022298
2314.79	0.0002929
2324.44	0.00020101
2334.08	0.000252
2343.73	0.0003224
2353.37	0.0003231
2363.02	0.0002707
2372.66	0.00025939
2382.31	0.0003726
2391.95	0.0002893
2401.6	0.0003166
2411.24	0.0002793
2420.89	0.0002706
2430.53	0.00025142
2440.18	0.0002271
2449.82	0.0001465
2459.47	0.00020816
2469.11	0.00015831
2478.75	0.00023335
2488.4	0.00022823
2498.04	0.0001915
2507.69	0.0003244
2517.33	0.00023886
2526.98	0.00018827
2536.62	0.00020214
2546.27	0.0002687
2555.91	0.0003376
2565.56	0.0002958
2575.2	0.0003381
2584.85	0.00022827
2594.49	0.00023747
2604.14	0.0003704
2613.78	0.0003358
2623.43	0.0003545
2633.07	0.0003404
2642.72	0.0003168
2652.36	0.0004984
2662.01	0.0003396
2671.65	0.0004915
2681.29	0.000394
2690.94	0.000464
2700.58	0.0004498
2710.23	0.0004455
2719.87	0.0006554
2729.52	0.0006925
2739.16	0.0006732
2748.81	0.000579
2758.45	0.0005489
2768.1	0.0005757
2777.74	0.0005641
2787.39	0.00063
2797.03	0.0006966
2806.68	0.0007502
2816.32	0.000908
2825.97	0.0011284
2835.61	0.001381
2845.26	0.001981
2854.9	0.002901
2864.55	0.004471
2874.19	0.006011
2883.84	0.006891
2893.48	0.007581
2903.12	0.008261
2912.77	0.009711
2922.41	0.011831
2932.06	0.014141
2941.7	0.014581
2951.35	0.015301
2960.99	0.021001
2970.64	0.027631
2980.28	0.025711
2989.93	0.015761
2999.57	0.008481
3009.22	0.005901
3018.86	0.003301
3028.51	0.002171
3038.15	0.001581
3047.8	0.001411
3057.44	0.001421
3067.09	0.001911
3076.73	0.003701
3086.38	0.004371
3096.02	0.002441
3105.67	0.001261
3115.31	0.0009972
3124.95	0.0008339
3134.6	0.0006804
3144.24	0.0006329
3153.89	0.0006798
3163.53	0.0004082
3173.18	0.0006175
3182.82	0.0005429
3192.47	0.0005941
3202.11	0.0005025
3211.76	0.0004924
3221.4	0.000651
3231.05	0.0004022
3240.69	0.0005364
3250.34	0.0004747
3259.98	0.0003544
3269.63	0.00018358
3279.27	0.00020725
3288.92	0.0003486
3298.56	0.0004093
3308.21	0.0005275
3317.85	0.0003629
3327.49	0.0003487
3337.14	0.00022339
3346.78	0.0004842
3356.43	0.0004347
3366.07	0.0008054
3375.72	0.0008796
3385.36	0.0008403
3395.01	0.0006544
3404.65	0.0005731
3414.3	0.0005073
3423.94	0.0008222
3433.59	0.0010033
3443.23	0.001871
3452.88	0.003051
3462.52	0.003211
3472.17	0.002241
3481.81	0.0010044
3491.46	0.000595
3501.1	0.0003905
3510.75	0.00018997
3520.39	0.00019885
3530.04	0.0003403
3539.68	0.0003386
3549.32	9.88e-05
3558.97	0.00021151
3568.61	0.0003134
3578.26	9.17e-05
3587.9	7.87e-05
3597.55	0.00021275
3607.19	0.00021289
3616.84	0.0002748
3626.48	0.00017716
3636.13	0.0003133
3645.77	0.0002694
3655.42	0.00020876
3665.06	0.000135
3674.71	0.00019121
3684.35	0.00022079
3694	0.00022259
3703.64	8.82e-05
3713.29	0
3722.93	0.00024872
3732.58	0.00017641
3742.22	6e-05
3751.86	0.0002807
3761.51	0.00022183
3771.15	0.0002953
3780.8	0.00019889
3790.44	0.0001422
3800.09	5.7e-05
3809.73	0.0004064
3819.38	0.0002716
3829.02	0.00020798
3838.67	0.0001069
3848.31	0.0003305
3857.96	0.0001457
3867.6	0.000145
3877.25	0.000324
3886.89	0.0003597
3896.54	0.0003133
3906.18	0.0002805
3915.83	8e-06
3925.47	0.000119
3935.12	0.00023335
3944.76	0.0003979
3954.41	7.19e-05
3964.05	0.0003193
3973.69	0.0003765
3983.34	0.0001495
3992.98	0.00024546
