Infrared Spectrum: PROPIONIC ACID, 2-(2,4-DINITROPHENYL) HYDRAZIDE
Formula: C9 H10 N4 O5
CAS: 6561-63-3
State: SOLID (MINERAL OIL MULL)
Class: COBLENTZ
Instrument: Not specified, most likely a prism, grating, or hybrid spectrometer.
Sampling: TRANSMISSION
Resolution: 4
Origin: DOW CHEMICAL COMPANY
MICROMETERS	TRANSMITTANCE
2.034	0.459
2.07501	0.47
2.11603	0.478
2.15704	0.488
2.19806	0.499
2.23907	0.5
2.28009	0.502
2.3211	0.512
2.36212	0.523
2.40313	0.54
2.44415	0.552
2.48516	0.56
2.52618	0.569
2.56719	0.579
2.60821	0.591
2.64922	0.6
2.69024	0.611
2.73125	0.623
2.77226	0.63
2.81328	0.646
2.85429	0.658
2.89531	0.661
2.93632	0.591
2.97734	0.377
3.01835	0.333
3.05937	0.217
3.10038	0.239
3.1414	0.377
3.18241	0.459
3.22343	0.442
3.26444	0.47
3.30546	0.408
3.34647	0.259
3.38749	0.075
3.4285	0.049
3.46951	0.099
3.51053	0.382
3.55154	0.615
3.59256	0.663
3.63357	0.67
3.67459	0.682
3.7156	0.683
3.75662	0.695
3.79763	0.707
3.83865	0.724
3.87966	0.74
3.92068	0.752
3.96169	0.76
4.00271	0.767
4.04372	0.762
4.08474	0.76
4.12575	0.774
4.16676	0.779
4.20778	0.784
4.24879	0.793
4.28981	0.806
4.33082	0.808
4.37184	0.808
4.41285	0.813
4.45387	0.822
4.49488	0.823
4.5359	0.823
4.57691	0.83
4.61793	0.837
4.65894	0.844
4.69996	0.847
4.74097	0.852
4.78199	0.863
4.823	0.863
4.86401	0.863
4.90503	0.87
4.94604	0.876
4.98706	0.878
5.02807	0.876
5.06909	0.875
5.1101	0.873
5.15112	0.885
5.19213	0.89
5.23315	0.897
5.27416	0.894
5.31518	0.895
5.35619	0.902
5.39721	0.9
5.43822	0.882
5.47924	0.892
5.52025	0.902
5.56126	0.907
5.60228	0.9
5.64329	0.892
5.68431	0.876
5.72532	0.864
5.76634	0.839
5.80735	0.796
5.84837	0.728
5.88938	0.55
5.9304	0.314
5.97141	0.148
6.01243	0.42
6.05344	0.567
6.09446	0.553
6.13547	0.372
6.17649	0.174
6.2175	0.403
6.25851	0.258
6.29953	0.252
6.34054	0.608
6.38156	0.661
6.42257	0.623
6.46359	0.526
6.5046	0.29
6.54562	0.191
6.58663	0.191
6.62765	0.317
6.66866	0.389
6.70968	0.427
6.75069	0.452
6.79171	0.321
6.83272	0.194
6.87374	0.292
6.91475	0.36
6.95576	0.335
6.99678	0.268
7.03779	0.297
7.07881	0.529
7.11982	0.618
7.16084	0.623
7.20185	0.529
7.24287	0.372
7.28388	0.347
7.3249	0.319
7.36591	0.258
7.40693	0.153
7.44794	0.092
7.48896	0.135
7.52997	0.203
7.57099	0.235
7.612	0.321
7.65301	0.304
7.69403	0.227
7.73504	0.182
7.77606	0.217
7.81707	0.258
7.85809	0.282
7.8991	0.362
7.94012	0.435
7.98113	0.456
8.02215	0.442
8.06316	0.507
8.10418	0.547
8.14519	0.535
8.18621	0.487
8.22722	0.43
8.26824	0.423
8.30925	0.466
8.35026	0.523
8.39128	0.584
8.43229	0.618
8.47331	0.627
8.51432	0.601
8.55534	0.557
8.59635	0.495
8.63737	0.478
8.67838	0.502
8.7194	0.441
8.76041	0.302
8.80143	0.295
8.84244	0.429
8.88346	0.451
8.92447	0.425
8.96549	0.502
9.0065	0.596
9.04751	0.647
9.08853	0.676
9.12954	0.69
9.17056	0.7
9.21157	0.695
9.25259	0.661
9.2936	0.605
9.33462	0.502
9.37563	0.411
9.41665	0.396
9.45766	0.458
9.49868	0.574
9.53969	0.639
9.58071	0.675
9.62172	0.697
9.66274	0.709
9.70375	0.719
9.74476	0.726
9.78578	0.731
9.82679	0.731
9.86781	0.731
9.90882	0.726
9.94984	0.724
9.99085	0.745
10.0319	0.76
10.0729	0.772
10.1139	0.779
10.1549	0.777
10.1959	0.758
10.2369	0.774
10.278	0.781
10.319	0.786
10.36	0.786
10.401	0.788
10.442	0.782
10.483	0.77
10.524	0.752
10.5651	0.707
10.6061	0.649
10.6471	0.63
10.6881	0.704
10.7291	0.741
10.7701	0.683
10.8111	0.601
10.8522	0.579
10.8932	0.47
10.9342	0.627
10.9752	0.758
11.0162	0.794
11.0572	0.811
11.0983	0.823
11.1393	0.83
11.1803	0.835
11.2213	0.841
11.2623	0.844
11.3033	0.852
11.3443	0.856
11.3854	0.859
11.4264	0.861
11.4674	0.863
11.5084	0.861
11.5494	0.861
11.5904	0.859
11.6314	0.856
11.6725	0.851
11.7135	0.841
11.7545	0.815
11.7955	0.738
11.8365	0.591
11.8775	0.476
11.9185	0.524
11.9596	0.526
12.0006	0.625
12.0416	0.629
12.0826	0.582
12.1236	0.596
12.1646	0.678
12.2056	0.752
12.2467	0.786
12.2877	0.801
12.3287	0.808
12.3697	0.805
12.4107	0.801
12.4517	0.811
12.4928	0.827
12.5338	0.834
12.5748	0.837
12.6158	0.839
12.6568	0.837
12.6978	0.835
12.7388	0.832
12.7799	0.83
12.8209	0.827
12.8619	0.822
12.9029	0.815
12.9439	0.806
12.9849	0.782
13.0259	0.738
13.067	0.682
13.108	0.707
13.149	0.76
13.19	0.762
13.231	0.755
13.272	0.731
13.313	0.702
13.3541	0.644
13.3951	0.538
13.4361	0.478
13.4771	0.47
13.5181	0.548
13.5591	0.611
13.6001	0.635
13.6412	0.637
13.6822	0.625
13.7232	0.61
13.7642	0.596
13.8052	0.591
13.8462	0.594
13.8872	0.603
13.9283	0.606
13.9693	0.605
14.0103	0.591
14.0513	0.579
14.0923	0.569
14.1333	0.564
14.1744	0.572
14.2154	0.586
14.2564	0.598
14.2974	0.603
14.3384	0.608
14.3794	0.608
14.4204	0.605
14.4615	0.598
14.5025	0.591
14.5435	0.581
14.5845	0.57
14.6255	0.56
14.6665	0.552
14.7075	0.541
14.7486	0.531
14.7896	0.524
14.8306	0.514
14.8716	0.504
14.9126	0.492
14.9536	0.482
14.9946	0.47
15.0357	0.452
15.0767	0.437
15.1177	0.427
15.1587	0.415
15.1997	0.401
15.2407	0.391
15.2817	0.379
15.3228	0.369
15.3638	0.357
15.4048	0.35
15.4458	0.345
15.4868	0.341
15.5278	0.345
15.5689	0.353
15.6099	0.364
15.6509	0.365
15.6919	0.369
15.7329	0.369
15.7739	0.364
15.8149	0.348
15.856	0.338
15.897	0.34
15.938	0.352
15.979	0.35
