Infrared Spectrum: BUTYRIC ACID, 2-(2,4-DINITROPHENYL) HYDRAZIDE
Formula: C10 H12 N4 O5
CAS: 6561-60-0
State: SOLID (MINERAL OIL MULL)
Class: COBLENTZ
Instrument: Not specified, most likely a prism, grating, or hybrid spectrometer.
Sampling: TRANSMISSION
Resolution: 4
Origin: DOW CHEMICAL COMPANY
MICROMETERS	TRANSMITTANCE
2.027	0.734
2.06796	0.738
2.10891	0.739
2.14987	0.75
2.19083	0.755
2.23178	0.753
2.27274	0.751
2.3137	0.755
2.35465	0.761
2.39561	0.767
2.43657	0.772
2.47752	0.779
2.51848	0.784
2.55944	0.789
2.60039	0.791
2.64135	0.799
2.68231	0.803
2.72326	0.804
2.76422	0.809
2.80518	0.816
2.84613	0.82
2.88709	0.821
2.92805	0.794
2.969	0.69
3.00996	0.743
3.05092	0.727
3.09187	0.592
3.13283	0.511
3.17379	0.619
3.21474	0.66
3.2557	0.693
3.29666	0.635
3.33761	0.518
3.37857	0.255
3.41953	0.179
3.46048	0.323
3.50144	0.631
3.5424	0.782
3.58335	0.816
3.62431	0.821
3.66527	0.825
3.70622	0.828
3.74718	0.837
3.78814	0.842
3.82909	0.852
3.87005	0.866
3.91101	0.869
3.95196	0.876
3.99292	0.878
4.03388	0.875
4.07483	0.873
4.11579	0.878
4.15675	0.878
4.1977	0.883
4.23866	0.886
4.27962	0.888
4.32057	0.89
4.36153	0.892
4.40249	0.892
4.44344	0.895
4.4844	0.898
4.52536	0.898
4.56631	0.9
4.60727	0.904
4.64823	0.905
4.68918	0.909
4.73014	0.909
4.7711	0.909
4.81205	0.909
4.85301	0.91
4.89397	0.91
4.93492	0.921
4.97588	0.919
5.01684	0.916
5.05779	0.921
5.09875	0.916
5.13971	0.924
5.18066	0.924
5.22162	0.929
5.26258	0.924
5.30353	0.924
5.34449	0.924
5.38545	0.917
5.4264	0.916
5.46736	0.928
5.50832	0.922
5.54927	0.929
5.59023	0.926
5.63119	0.922
5.67214	0.921
5.7131	0.91
5.75406	0.909
5.79501	0.902
5.83597	0.886
5.87693	0.839
5.91788	0.734
5.95884	0.556
5.9998	0.342
6.04075	0.582
6.08171	0.585
6.12267	0.378
6.16362	0.227
6.20458	0.577
6.24553	0.556
6.28649	0.511
6.32745	0.708
6.3684	0.672
6.40936	0.628
6.45032	0.705
6.49127	0.66
6.53223	0.522
6.57319	0.419
6.61414	0.611
6.6551	0.601
6.69606	0.672
6.73701	0.671
6.77797	0.541
6.81893	0.498
6.85988	0.57
6.90084	0.633
6.9418	0.652
6.98275	0.554
7.02371	0.479
7.06467	0.679
7.10562	0.76
7.14658	0.731
7.18754	0.647
7.22849	0.551
7.26945	0.537
7.31041	0.64
7.35136	0.655
7.39232	0.511
7.43328	0.316
7.47423	0.241
7.51519	0.239
7.55615	0.351
7.5971	0.323
7.63806	0.383
7.67902	0.525
7.71997	0.558
7.76093	0.539
7.80189	0.486
7.84284	0.472
7.8838	0.565
7.92476	0.628
7.96571	0.561
8.00667	0.462
8.04763	0.4
8.08858	0.613
8.12954	0.696
8.1705	0.751
8.21145	0.791
8.25241	0.82
8.29337	0.832
8.33432	0.847
8.37528	0.861
8.41624	0.863
8.45719	0.847
8.49815	0.806
8.53911	0.777
8.58006	0.792
8.62102	0.784
8.66198	0.724
8.70293	0.599
8.74389	0.587
8.78485	0.712
8.8258	0.717
8.86676	0.698
8.90772	0.731
8.94867	0.77
8.98963	0.791
9.03059	0.797
9.07154	0.794
9.1125	0.743
9.15346	0.71
9.19441	0.779
9.23537	0.827
9.27633	0.842
9.31728	0.847
9.35824	0.833
9.3992	0.76
9.44015	0.698
9.48111	0.803
9.52207	0.84
9.56302	0.844
9.60398	0.873
9.64494	0.876
9.68589	0.88
9.72685	0.883
9.76781	0.885
9.80876	0.89
9.84972	0.888
9.89068	0.878
9.93163	0.854
9.97259	0.804
10.0135	0.792
10.0545	0.863
10.0955	0.883
10.1364	0.89
10.1774	0.886
10.2183	0.885
10.2593	0.897
10.3002	0.9
10.3412	0.9
10.3822	0.905
10.4231	0.905
10.4641	0.905
10.505	0.909
10.546	0.909
10.5869	0.909
10.6279	0.904
10.6689	0.885
10.7098	0.837
10.7508	0.741
10.7917	0.672
10.8327	0.772
10.8736	0.854
10.9146	0.859
10.9555	0.859
10.9965	0.89
11.0375	0.909
11.0784	0.916
11.1194	0.921
11.1603	0.922
11.2013	0.928
11.2422	0.924
11.2832	0.929
11.3242	0.924
11.3651	0.909
11.4061	0.907
11.447	0.919
11.488	0.928
11.5289	0.929
11.5699	0.929
11.6109	0.931
11.6518	0.931
11.6928	0.929
11.7337	0.922
11.7747	0.917
11.8156	0.91
11.8566	0.886
11.8976	0.835
11.9385	0.729
11.9795	0.599
12.0204	0.659
12.0614	0.845
12.1023	0.885
12.1433	0.898
12.1842	0.905
12.2252	0.909
12.2662	0.91
12.3071	0.91
12.3481	0.91
12.389	0.912
12.43	0.909
12.4709	0.905
12.5119	0.902
12.5529	0.898
12.5938	0.898
12.6348	0.893
12.6757	0.89
12.7167	0.888
12.7576	0.881
12.7986	0.878
12.8396	0.871
12.8805	0.864
12.9215	0.856
12.9624	0.842
13.0034	0.823
13.0443	0.792
13.0853	0.76
13.1263	0.739
13.1672	0.714
13.2082	0.69
13.2491	0.686
13.2901	0.691
13.331	0.683
13.372	0.628
13.4129	0.542
13.4539	0.496
13.4949	0.563
13.5358	0.683
13.5768	0.729
13.6177	0.744
13.6587	0.751
13.6996	0.751
13.7406	0.75
13.7816	0.743
13.8225	0.738
13.8635	0.736
13.9044	0.734
13.9454	0.732
13.9863	0.727
14.0273	0.72
14.0683	0.712
14.1092	0.702
14.1502	0.695
14.1911	0.69
14.2321	0.681
14.273	0.674
14.314	0.664
14.355	0.652
14.3959	0.642
14.4369	0.625
14.4778	0.619
14.5188	0.618
14.5597	0.616
14.6007	0.607
14.6416	0.594
14.6826	0.573
14.7236	0.553
14.7645	0.532
14.8055	0.515
14.8464	0.503
14.8874	0.5
14.9283	0.498
14.9693	0.51
15.0103	0.522
15.0512	0.523
15.0922	0.523
15.1331	0.525
15.1741	0.523
15.215	0.517
15.256	0.511
15.297	0.505
15.3379	0.498
15.3789	0.489
15.4198	0.476
15.4608	0.464
15.5017	0.453
15.5427	0.443
15.5837	0.434
15.6246	0.426
15.6656	0.419
15.7065	0.41
15.7475	0.402
15.7884	0.393
15.8294	0.386
15.8703	0.38
