Infrared Spectrum: 17-THIOSEMICARBAZONOANDROST-5-EN-3Beta-OL
Formula: C20 H31 N3 O S
CAS: 65628-35-5
State: SOLID (KBr DISC)
Class: COBLENTZ III
Instrument: BECKMAN IR-4 (HYBRID PRISM-GRATING)
Sampling: TRANSMISSION
Resolution: 4
Origin: THE WORCESTER FOUNDATION FOR EXPERIMENTAL BIOLOGY, Neal L. McNiven
1/CM	TRANSMITTANCE
599.268	0.469
610.246	0.494
621.223	0.506
632.201	0.53
643.178	0.551
654.156	0.591
665.133	0.671
676.111	0.716
687.088	0.754
698.066	0.712
709.043	0.808
720.021	0.7601
730.999	0.802
741.976	0.821
752.954	0.832
763.931	0.869
774.909	0.858
785.886	0.83
796.864	0.74
807.841	0.689
818.819	0.485
829.796	0.489
840.774	0.633
851.752	0.605
862.729	0.701
873.707	0.758
884.684	0.753
895.662	0.745
906.639	0.669
917.617	0.7
928.594	0.657
939.572	0.629
950.549	0.552
961.527	0.596
972.505	0.562
983.482	0.542
994.46	0.48
1005.44	0.357
1016.41	0.355
1027.39	0.332
1038.37	0.143
1049.35	0.13
1060.32	0.293
1071.3	0.268
1082.28	0.251
1093.26	0.346
1104.24	0.45
1115.21	0.579
1126.19	0.431
1137.17	0.585
1148.15	0.574
1159.12	0.607
1170.1	0.62
1181.08	0.591
1192.06	0.557
1203.03	0.473
1214.01	0.3
1224.99	0.506
1235.97	0.45
1246.94	0.389
1257.92	0.292
1268.9	0.181
1279.88	0.124
1290.85	0.236
1301.83	0.389
1312.81	0.432
1323.79	0.594
1334.76	0.595
1345.74	0.432
1356.72	0.45
1367.7	0.441
1378.67	0.561
1389.65	0.592
1400.63	0.354
1411.61	0.465
1422.58	0.374
1433.56	0.306
1444.54	0.332
1455.52	0.346
1466.49	0.396
1477.47	0.404
1488.45	0.364
1499.43	0.255
1510.4	0.15
1521.38	0.157
1532.36	0.275
1543.34	0.368
1554.31	0.313
1565.29	0.084
1576.27	0.202
1587.25	0.447
1598.22	0.621
1609.2	0.757
1620.18	0.816
1631.16	0.843
1642.13	0.844
1653.11	0.729
1664.09	0.732
1675.07	0.863
1686.04	0.915
1697.02	0.924
1708	0.947
1718.98	0.949
1729.96	0.949
1740.93	0.958
1751.91	0.97
1762.89	0.973
1773.87	0.968
1784.84	0.958
1795.82	0.96
1806.8	0.959
1817.78	0.965
1828.75	0.959
1839.73	0.955
1850.71	0.957
1861.69	0.944
1872.66	0.949
1883.64	0.946
1894.62	0.944
1905.6	0.94
1916.57	0.936
1927.55	0.938
1938.53	0.934
1949.51	0.929
1960.48	0.925
1971.46	0.93
1982.44	0.936
1993.42	0.943
2004.39	0.9285
2015.37	0.9277
2026.35	0.925
2037.33	0.9159
2048.3	0.9095
2059.28	0.907
2070.26	0.9049
2081.24	0.904
2092.21	0.904
2103.19	0.9027
2114.17	0.9008
2125.15	0.8982
2136.12	0.8964
2147.1	0.897
2158.08	0.899
2169.06	0.8999
2180.03	0.901
2191.01	0.899
2201.99	0.896
2212.97	0.8951
2223.94	0.893
2234.92	0.891
2245.9	0.889
2256.88	0.888
2267.85	0.888
2278.83	0.889
2289.81	0.888
2300.79	0.886
2311.77	0.884
2322.74	0.883
2333.72	0.8843
2344.7	0.885
2355.68	0.888
2366.65	0.8931
2377.63	0.8996
2388.61	0.8955
2399.59	0.8718
2410.56	0.8638
2421.54	0.8543
2432.52	0.8417
2443.5	0.8351
2454.47	0.8334
2465.45	0.832
2476.43	0.832
2487.41	0.831
2498.38	0.829
2509.36	0.8246
2520.34	0.8157
2531.32	0.8052
2542.29	0.8016
2553.27	0.7996
2564.25	0.7968
2575.23	0.7921
2586.2	0.7876
2597.18	0.785
2608.16	0.783
2619.14	0.782
2630.11	0.781
2641.09	0.779
2652.07	0.7705
2663.05	0.762
2674.02	0.7594
2685	0.7575
2695.98	0.755
2706.96	0.753
2717.93	0.7546
2728.91	0.754
2739.89	0.752
2750.87	0.7409
2761.84	0.7321
2772.82	0.726
2783.8	0.7203
2794.78	0.712
2805.75	0.6818
2816.73	0.6638
2827.71	0.6378
2838.69	0.5661
2849.66	0.4965
2860.64	0.4572
2871.62	0.4225
2882.6	0.383
2893.57	0.3534
2904.55	0.3188
2915.53	0.2848
2926.51	0.2286
2937.49	0.202
2948.46	0.203
2959.44	0.205
2970.42	0.1909
2981.4	0.17
2992.37	0.1706
3003.35	0.1887
3014.33	0.2109
3025.31	0.2415
3036.28	0.3696
3047.26	0.4995
3058.24	0.5724
3069.22	0.6037
3080.19	0.62
3091.17	0.6261
3102.15	0.6405
3113.13	0.6457
3124.1	0.6391
3135.08	0.631
3146.06	0.63
3157.04	0.6207
3168.01	0.6081
3178.99	0.5835
3189.97	0.5623
3200.95	0.5242
3211.92	0.5051
3222.9	0.487
3233.88	0.4642
3244.86	0.4477
3255.83	0.415
3266.81	0.3812
3277.79	0.3419
3288.77	0.3039
3299.74	0.2617
3310.72	0.2299
3321.7	0.2051
3332.68	0.1862
3343.65	0.1769
3354.63	0.1758
3365.61	0.1796
3376.59	0.186
3387.56	0.2027
3398.54	0.2243
3409.52	0.2395
3420.5	0.244
3431.47	0.2288
3442.45	0.198
3453.43	0.2793
3464.41	0.3451
3475.38	0.3887
3486.36	0.4108
3497.34	0.4288
3508.32	0.4388
3519.3	0.4506
3530.27	0.4628
3541.25	0.472
3552.23	0.4676
3563.21	0.4365
3574.18	0.3492
3585.16	0.3326
3596.14	0.3938
3607.12	0.5332
3618.09	0.5903
3629.07	0.6363
3640.05	0.6754
3651.03	0.6993
3662	0.713
3672.98	0.7208
3683.96	0.7277
3694.94	0.734
3705.91	0.7391
3716.89	0.7439
3727.87	0.7535
3738.85	0.7624
3749.82	0.769
3760.8	0.7699
3771.78	0.771
3782.76	0.772
3793.73	0.772
3804.71	0.772
3815.69	0.771
3826.67	0.771
3837.64	0.771
3848.62	0.769
3859.6	0.7673
3870.58	0.766
3881.55	0.768
3892.53	0.77
3903.51	0.771
3914.49	0.771
3925.46	0.7697
3936.44	0.769
3947.42	0.769
3958.4	0.768
3969.37	0.768
3980.35	0.7659
3991.33	0.7632
4002.31	0.7592
4013.28	0.754
4024.26	0.7499
4035.24	0.748
4046.22	0.7474
4057.19	0.747
4068.17	0.747
4079.15	0.746
4090.13	0.743
4101.1	0.739
4112.08	0.7368
4123.06	0.735
4134.04	0.7354
4145.02	0.7384
4155.99	0.74
4166.97	0.738
4177.95	0.7353
4188.93	0.7335
4199.9	0.732
4210.88	0.729
4221.86	0.729
4232.84	0.7275
4243.81	0.726
4254.79	0.724
4265.77	0.724
4276.75	0.7224
4287.72	0.721
4298.7	0.721
4309.68	0.722
4320.66	0.721
4331.63	0.7197
4342.61	0.715
4353.59	0.714
4364.57	0.7124
4375.54	0.7114
4386.52	0.713
4397.5	0.7148
4408.48	0.716
4419.45	0.717
4430.43	0.713
4441.41	0.7081
4452.39	0.7043
4463.36	0.702
4474.34	0.701
4485.32	0.7
4496.3	0.6983
4507.27	0.699
4518.25	0.7005
4529.23	0.703
4540.21	0.705
4551.18	0.706
4562.16	0.7073
4573.14	0.709
4584.12	0.709
4595.09	0.709
4606.07	0.708
4617.05	0.7
4628.03	0.699
4639	0.7
4649.98	0.7023
4660.96	0.705
4671.94	0.704
4682.91	0.704
4693.89	0.7026
4704.87	0.7
4715.85	0.699
4726.83	0.697
4737.8	0.6952
4748.78	0.694
4759.76	0.693
4770.74	0.6923
4781.71	0.692
4792.69	0.692
4803.67	0.691
4814.65	0.691
4825.62	0.691
4836.6	0.692
4847.58	0.692
4858.56	0.692
4869.53	0.692
4880.51	0.6933
4891.49	0.694
4902.47	0.694
4913.44	0.692
4924.42	0.6917
4935.4	0.6899
4946.38	0.6882
4957.35	0.6854
