Infrared Spectrum: 11-Hexadecyn-1-ol
Formula: C 16 H 30 O
CAS: 65686-49-9
State: gas
Origin: EPA-IR VAPOR PHASE LIBRARY
1/CM	ABSORBANCE
549.8	0.0007082
559.445	0.0003964
569.09	0.0005142
578.735	0.0001547
588.38	0.0002581
598.025	0.0005741
607.67	0.0003019
617.315	0.0001606
626.96	0.0003333
636.605	0.0001551
646.251	0.0002653
655.896	0
665.541	0.0005513
675.186	0.0003806
684.831	0.0004653
694.476	0.0004669
704.121	0.0004404
713.766	0.0004075
723.411	0.0004045
733.056	0.0006123
742.701	0.0005111
752.346	0.0005592
761.991	0.0003021
771.636	0.0004462
781.281	0.0001412
790.926	0.0005451
800.571	0.0006061
810.216	0.0004882
819.861	0.0004781
829.507	0.0004089
839.152	0.0002046
848.797	0.0001891
858.442	0.0003155
868.087	0.0004073
877.732	0.0005409
887.377	0.0005504
897.022	0.0004668
906.667	0.0005284
916.312	0.0003733
925.957	0.0006233
935.602	0.0004567
945.247	0.0005611
954.892	0.0006581
964.537	0.0007562
974.182	0.0005281
983.827	0.0009238
993.472	0.0009245
1003.12	0.0011989
1012.76	0.0013289
1022.41	0.0016189
1032.05	0.0020789
1041.7	0.0023389
1051.34	0.0024489
1060.99	0.0021489
1070.63	0.0014489
1080.28	0.0011789
1089.92	0.0009831
1099.57	0.0009014
1109.21	0.0006795
1118.86	0.0006444
1128.5	0.0004114
1138.15	0.0006324
1147.79	0.0005093
1157.44	0.0005322
1167.08	0.0005578
1176.73	0.0005767
1186.37	0.0006797
1196.02	0.0006714
1205.66	0.0007959
1215.31	0.0007733
1224.95	0.0008134
1234.6	0.0007446
1244.24	0.000755
1253.89	0.0008747
1263.53	0.0008459
1273.18	0.0008917
1282.82	0.0009635
1292.47	0.0008948
1302.11	0.0010295
1311.76	0.0012189
1321.4	0.0014689
1331.05	0.0015589
1340.69	0.0013489
1350.34	0.0013889
1359.98	0.0013189
1369.63	0.0011489
1379.27	0.0011289
1388.92	0.0010354
1398.56	0.0009264
1408.21	0.0006897
1417.85	0.0007121
1427.5	0.0010391
1437.14	0.0014189
1446.79	0.0014589
1456.43	0.0017689
1466.08	0.0017089
1475.73	0.0011889
1485.37	0.0006915
1495.02	0.0005297
1504.66	0.0003852
1514.31	0.0003897
1523.95	0.0004186
1533.6	0.0004083
1543.24	0.0004158
1552.89	0.0004187
1562.53	0.0004299
1572.18	0.0004818
1581.82	0.0003873
1591.47	0.00046
1601.11	0.0003908
1610.76	0.0004007
1620.4	0.000407
1630.05	0.0003154
1639.69	0.0002069
1649.34	0.000318
1658.98	0.0002897
1668.63	0.000238
1678.27	0.0002956
1687.92	0.0003768
1697.56	0.000472
1707.21	0.0002727
1716.85	0.0002231
1726.5	0.0003865
1736.14	0.0003806
1745.79	0.0003634
1755.43	0.0003262
1765.08	0.0004054
1774.72	0.0003854
1784.37	0.000381
1794.01	0.0004349
1803.66	0.0002828
1813.3	0.0004275
1822.95	0.0004495
1832.59	0.0003722
1842.24	0.0003584
1851.88	0.0003162
1861.53	0.0003476
1871.17	0.0003839
1880.82	0.0002892
1890.46	0.0004439
1900.11	0.0004312
1909.75	0.0004367
1919.4	0.0003797
1929.04	0.000405
1938.69	0.0004195
1948.33	0.0003627
1957.98	0.0004455
1967.62	0.0003994
1977.27	0.0003795
1986.91	0.0004662
1996.56	0.0004335
2006.2	0.0003832
2015.85	0.000432
2025.49	0.0004617
2035.14	0.0003915
2044.78	0.0005718
2054.43	0.0003804
2064.07	0.0004961
2073.72	0.0003472
2083.36	0.0003918
2093.01	0.0004628
2102.65	0.0003728
2112.3	0.0005008
2121.94	0.0004919
2131.59	0.0004213
2141.23	0.0003898
2150.88	0.0004171
2160.52	0.0004263
2170.17	0.0004198
2179.81	0.0004551
2189.46	0.000404
2199.1	0.0003759
2208.75	0.0004691
2218.39	0.0004517
2228.04	0.0004055
2237.68	0.0004953
2247.33	0.0005178
2256.97	0.0005466
2266.62	0.0005979
2276.26	0.000421
2285.91	0.000499
2295.55	0.0004445
2305.2	0.0004188
2314.84	0.0006418
2324.49	0.0005041
2334.13	0.0003587
2343.78	0.0005503
2353.42	0.0004048
2363.07	0.0004094
2372.72	0.0004283
2382.36	0.0005186
2392.01	0.0004278
2401.65	0.0004164
2411.3	0.0004479
2420.94	0.0006434
2430.59	0.0005052
2440.23	0.000544
2449.88	0.0005945
2459.52	0.0004725
2469.17	0.0004054
2478.81	0.0005364
2488.46	0.0005184
2498.1	0.0005608
2507.75	0.0006196
2517.39	0.0003777
2527.04	0.000514
2536.68	0.0005011
2546.33	0.0004869
2555.97	0.0004529
2565.62	0.0005303
2575.26	0.0004828
2584.91	0.0006112
2594.55	0.0006767
2604.2	0.000605
2613.84	0.000336
2623.49	0.0006495
2633.13	0.0006115
2642.78	0.0006469
2652.42	0.0007357
2662.07	0.0007128
2671.71	0.0008764
2681.36	0.0006819
2691	0.0006713
2700.65	0.0006986
2710.29	0.0007428
2719.94	0.0006789
2729.58	0.0007734
2739.23	0.0007912
2748.87	0.0009337
2758.52	0.0009597
2768.16	0.0008868
2777.81	0.0009256
2787.45	0.0010139
2797.1	0.0009506
2806.74	0.0012089
2816.39	0.0012489
2826.03	0.0015089
2835.68	0.0018889
2845.32	0.0029289
2854.97	0.0058789
2864.61	0.0080789
2874.26	0.0065889
2883.9	0.0056089
2893.55	0.0054189
2903.19	0.0065489
2912.84	0.0095889
2922.48	0.0141189
2932.13	0.0204489
2941.77	0.0189589
2951.42	0.0109889
2961.06	0.0074289
2970.71	0.0055489
2980.35	0.0034389
2990	0.0023589
2999.64	0.0014689
3009.29	0.0016089
3018.93	0.0010789
3028.58	0.0011689
3038.22	0.0011489
3047.87	0.0009198
3057.51	0.0007715
3067.16	0.0007042
3076.8	0.0009444
3086.45	0.0008074
3096.09	0.000644
3105.74	0.0008009
3115.38	0.000484
3125.03	0.0006615
3134.67	0.0007364
3144.32	0.0007832
3153.96	0.0006045
3163.61	0.0006022
3173.25	0.0005131
3182.9	0.0008841
3192.54	0.0008332
3202.19	0.0006332
3211.83	0.0007394
3221.48	0.0009016
3231.12	0.0005992
3240.77	0.000535
3250.41	0.0007319
3260.06	0.0006869
3269.7	0.0006883
3279.35	0.0004299
3289	0.0009221
3298.64	0.0008718
3308.29	0.0007941
3317.93	0.0007649
3327.58	0.0007992
3337.22	0.0009683
3346.87	0.0008968
3356.51	0.0005398
3366.16	0.000688
3375.8	0.0004354
3385.45	0.0006484
3395.09	0.0007729
3404.74	0.000655
3414.38	0.0009038
3424.03	0.0007153
3433.67	0.0007551
3443.32	0.0008301
3452.96	0.0006926
3462.61	0.000658
3472.25	0.0007352
3481.9	0.0005632
3491.54	0.0007702
3501.19	0.0007733
3510.83	0.0006359
3520.48	0.0006942
3530.12	0.0005235
3539.77	0.000836
3549.41	0.0007567
3559.06	0.0008583
3568.7	0.0008018
3578.35	0.0008511
3587.99	0.0007538
3597.64	0.0007996
3607.28	0.0006817
3616.93	0.0007914
3626.57	0.0009585
3636.22	0.0008506
3645.86	0.0009096
3655.51	0.0011589
3665.15	0.0012289
3674.8	0.0010689
3684.44	0.0010689
3694.09	0.0007268
3703.73	0.0006648
3713.38	0.0006774
3723.02	0.0009201
3732.67	0.0005312
3742.31	0.0008843
3751.96	0.0006573
3761.6	0.0007057
3771.25	0.0007231
3780.89	0.0010186
3790.54	0.0006655
3800.18	0.000764
3809.83	0.0009218
3819.47	0.0008755
3829.12	0.0006113
3838.76	0.0005881
3848.41	0.000462
3858.05	0.0006982
3867.7	0.0010689
3877.34	0.0008402
3886.99	0.000791
3896.63	0.000895
3906.28	0.0008693
3915.92	0.0008216
3925.57	0.0008136
3935.21	0.0009443
3944.86	0.0009847
3954.5	0.0006253
3964.15	0.00068
3973.79	0.0005488
3983.44	0.0005365
3993.08	0.0008031
