Infrared Spectrum: 3'-Trifluoromethylformanilide
Formula: C 8 H 6 F 3 N O
CAS: 657-78-3
State: gas
Origin: EPA-IR VAPOR PHASE LIBRARY
1/CM	ABSORBANCE
549.8	0.013489
559.445	0.012039
569.09	0.010989
578.734	0.012029
588.379	0.012359
598.024	0.009979
607.669	0.007719
617.313	0.006029
626.958	0.005809
636.603	0.006219
646.248	0.008459
655.893	0.013559
665.537	0.010749
675.182	0.013759
684.827	0.020409
694.472	0.034179
704.116	0.025019
713.761	0.010739
723.406	0.005999
733.051	0.008739
742.695	0.007449
752.34	0.003859
761.985	0.004479
771.63	0.008069
781.275	0.018149
790.919	0.028559
800.564	0.018279
810.209	0.007409
819.854	0.004179
829.498	0.003819
839.143	0.003779
848.788	0.004799
858.433	0.006939
868.078	0.010489
877.722	0.014119
887.367	0.013669
897.012	0.013259
906.657	0.012549
916.301	0.007889
925.946	0.007049
935.591	0.008029
945.236	0.005299
954.88	0.003379
964.525	0.003299
974.17	0.003149
983.815	0.003609
993.46	0.004339
1003.1	0.005439
1012.75	0.005079
1022.39	0.005069
1032.04	0.006289
1041.68	0.007899
1051.33	0.013889
1060.97	0.035139
1070.62	0.070129
1080.26	0.051399
1089.91	0.048169
1099.55	0.065099
1109.2	0.063679
1118.84	0.066709
1128.49	0.074529
1138.13	0.134239
1147.78	0.235559
1157.42	0.193569
1167.07	0.132369
1176.71	0.179469
1186.36	0.150819
1196	0.073259
1205.64	0.037999
1215.29	0.033619
1224.93	0.046359
1234.58	0.064829
1244.22	0.067189
1253.87	0.045279
1263.51	0.034929
1273.16	0.039739
1282.8	0.035379
1292.45	0.034929
1302.09	0.048209
1311.74	0.080169
1321.38	0.202869
1331.03	0.321779
1340.67	0.114189
1350.32	0.033449
1359.96	0.028529
1369.61	0.021049
1379.25	0.010979
1388.9	0.010809
1398.54	0.014049
1408.18	0.017909
1417.83	0.023149
1427.47	0.039039
1437.12	0.063959
1446.76	0.051109
1456.41	0.026759
1466.05	0.028849
1475.7	0.041169
1485.34	0.068399
1494.99	0.069279
1504.63	0.055129
1514.28	0.061939
1523.92	0.062659
1533.57	0.037309
1543.21	0.018369
1552.86	0.012809
1562.5	0.009459
1572.15	0.010579
1581.79	0.015759
1591.44	0.025729
1601.08	0.032939
1610.73	0.035199
1620.37	0.032169
1630.01	0.016639
1639.66	0.008519
1649.3	0.006559
1658.95	0.006329
1668.59	0.006689
1678.24	0.007659
1687.88	0.010269
1697.53	0.017379
1707.17	0.029489
1716.82	0.042279
1726.46	0.085229
1736.11	0.271399
1745.75	0.315009
1755.4	0.080769
1765.04	0.030419
1774.69	0.021279
1784.33	0.012089
1793.98	0.006929
1803.62	0.005249
1813.27	0.004169
1822.91	0.003619
1832.55	0.003409
1842.2	0.003119
1851.84	0.003079
1861.49	0.003049
1871.13	0.003019
1880.78	0.002819
1890.42	0.002289
1900.07	0.001749
1909.71	0.001859
1919.36	0.002029
1929	0.002319
1938.65	0.002589
1948.29	0.002149
1957.94	0.001849
1967.58	0.001439
1977.23	0.001279
1986.87	0.001229
1996.52	0.001239
2006.16	0.001229
2015.81	0.0010038
2025.45	0.0009642
2035.1	0.0009257
2044.74	0.0008279
2054.38	0.0008808
2064.03	0.0010784
2073.67	0.0010744
2083.32	0.0010542
2092.96	0.0009193
2102.61	0.0009814
2112.25	0.0007965
2121.9	0.0007638
2131.54	0.0008518
2141.19	0.0010574
2150.83	0.0010111
2160.48	0.0010486
2170.12	0.0010976
2179.77	0.001139
2189.41	0.001139
2199.06	0.001179
2208.7	0.001329
2218.35	0.001509
2227.99	0.001399
2237.64	0.001289
2247.28	0.001279
2256.92	0.0011359
2266.57	0.001209
2276.21	0.001259
2285.86	0.001369
2295.5	0.001179
2305.15	0.0010741
2314.79	0.001209
2324.44	0.001269
2334.08	0.001459
2343.73	0.001579
2353.37	0.001589
2363.02	0.001389
2372.66	0.001249
2382.31	0.001229
2391.95	0.001219
2401.6	0.001189
2411.24	0.001219
2420.89	0.001229
2430.53	0.001095
2440.18	0.0008888
2449.82	0.0008165
2459.47	0.0007481
2469.11	0.0007791
2478.75	0.0009388
2488.4	0.0008967
2498.04	0.0008363
2507.69	0.0008646
2517.33	0.0009845
2526.98	0.000878
2536.62	0.0007994
2546.27	0.0007586
2555.91	0.0005958
2565.56	0.0006415
2575.2	0.0006833
2584.85	0.0006587
2594.49	0.0008292
2604.14	0.0010101
2613.78	0.0010254
2623.43	0.0009881
2633.07	0.0009786
2642.72	0.0010635
2652.36	0.001139
2662.01	0.0011189
2671.65	0.0009552
2681.29	0.0010568
2690.94	0.001159
2700.58	0.001289
2710.23	0.001369
2719.87	0.001719
2729.52	0.002009
2739.16	0.002249
2748.81	0.003389
2758.45	0.007189
2768.1	0.010959
2777.74	0.008299
2787.39	0.004179
2797.03	0.002739
2806.68	0.002569
2816.32	0.003109
2825.97	0.004249
2835.61	0.006039
2845.26	0.011939
2854.9	0.032679
2864.55	0.037099
2874.19	0.017119
2883.84	0.009349
2893.48	0.005539
2903.12	0.003389
2912.77	0.002619
2922.41	0.002299
2932.06	0.001939
2941.7	0.001739
2951.35	0.001419
2960.99	0.001159
2970.64	0.001159
2980.28	0.001249
2989.93	0.001199
2999.57	0.0011017
3009.22	0.001219
3018.86	0.001729
3028.51	0.002919
3038.15	0.003799
3047.8	0.004189
3057.44	0.004559
3067.09	0.005019
3076.73	0.005059
3086.38	0.004559
3096.02	0.004049
3105.67	0.003079
3115.31	0.002399
3124.95	0.001869
3134.6	0.001749
3144.24	0.001389
3153.89	0.0009821
3163.53	0.0004421
3173.18	0.0004004
3182.82	0.0004386
3192.47	0.0004534
3202.11	0.0006821
3211.76	0.0005482
3221.4	0.0003647
3231.05	0.0004433
3240.69	0.0004077
3250.34	0.0003421
3259.98	0.0002842
3269.63	0.0003139
3279.27	0.0003982
3288.92	0.000247
3298.56	0.0002683
3308.21	0.0003045
3317.85	0.000347
3327.49	0.0006595
3337.14	0.0003752
3346.78	0.0005127
3356.43	0.0006371
3366.07	0.0009102
3375.72	0.001149
3385.36	0.001579
3395.01	0.001989
3404.65	0.002919
3414.3	0.005159
3423.94	0.008449
3433.59	0.008769
3443.23	0.008959
3452.88	0.012399
3462.52	0.010979
3472.17	0.006119
3481.81	0.003229
3491.46	0.002119
3501.1	0.001229
3510.75	0.000724
3520.39	0.000782
3530.04	0.0005038
3539.68	0.0005019
3549.32	0.0004928
3558.97	0.0003016
3568.61	0.0004513
3578.26	0.0003092
3587.9	0.0003562
3597.55	0.0002813
3607.19	0.00023689
3616.84	0.0002652
3626.48	0.0002642
3636.13	0.00017283
3645.77	0.0002911
3655.42	5.72e-05
3665.06	0.00015493
3674.71	0.0004753
3684.35	0.0002939
3694	0.0003623
3703.64	0.0003393
3713.29	0.0003682
3722.93	0.00018433
3732.58	0.0003112
3742.22	0.000418
3751.86	0.0004602
3761.51	0.0003141
3771.15	0.0003289
3780.8	0.0002649
3790.44	0.00023703
3800.09	0.00022973
3809.73	0.0001039
3819.38	0.0002992
3829.02	0.00023517
3838.67	0.00013739
3848.31	0.0001158
3857.96	0.00017996
3867.6	0.00022304
3877.25	0.00020405
3886.89	0.0002404
3896.54	0.0003642
3906.18	0.00020685
3915.83	6.36e-05
3925.47	0.000378
3935.12	0.0002952
3944.76	0.0004046
3954.41	0.00023144
3964.05	0.0003365
3973.69	0.000355
3983.34	0.0004222
3992.98	0.0003381
