Infrared Spectrum: 3,4-Dichlorobenzonitrile
Formula: C 7 H 3 Cl 2 N
CAS: 6574-99-8
State: gas
Origin: EPA-IR VAPOR PHASE LIBRARY
1/CM	ABSORBANCE
549.8	0.003301
559.445	0.005131
569.09	0.003031
578.734	0.006221
588.379	0.014981
598.024	0.025171
607.669	0.022801
617.313	0.007661
626.958	0.002161
636.603	0.0009466
646.248	0.000756
655.893	0.0004505
665.537	0.001291
675.182	0.005951
684.827	0.015591
694.472	0.013691
704.116	0.006051
713.761	0.002521
723.406	0.0009019
733.051	0.0009928
742.695	0.002351
752.34	0.001811
761.985	0.0009387
771.63	0.0011866
781.275	0.002831
790.919	0.002621
800.564	0.005051
810.209	0.019111
819.854	0.043201
829.498	0.031121
839.143	0.017911
848.788	0.018101
858.433	0.025741
868.078	0.025661
877.722	0.023931
887.367	0.033891
897.012	0.019581
906.657	0.006601
916.301	0.001691
925.946	0.0011114
935.591	0.0008059
945.236	0.0008965
954.88	0.0011497
964.525	0.0009244
974.17	0.000822
983.815	0.0009554
993.46	0.0008308
1003.1	0.001731
1012.75	0.002921
1022.39	0.009601
1032.04	0.035161
1041.68	0.045121
1051.33	0.020761
1060.97	0.004981
1070.62	0.001641
1080.26	0.0010793
1089.91	0.001611
1099.55	0.003381
1109.2	0.011441
1118.84	0.036961
1128.49	0.050361
1138.13	0.039561
1147.78	0.031611
1157.42	0.006731
1167.07	0.002211
1176.71	0.003711
1186.36	0.009651
1196	0.018891
1205.64	0.019011
1215.29	0.010831
1224.93	0.004371
1234.58	0.004821
1244.22	0.006951
1253.87	0.007731
1263.51	0.006521
1273.16	0.005031
1282.8	0.003051
1292.45	0.001391
1302.09	0.0009384
1311.74	0.00062
1321.38	0.0006619
1331.03	0.0010198
1340.67	0.001461
1350.32	0.001891
1359.96	0.006351
1369.61	0.020731
1379.25	0.029201
1388.9	0.018251
1398.54	0.006101
1408.18	0.003901
1417.83	0.002731
1427.47	0.002411
1437.12	0.005261
1446.76	0.020591
1456.41	0.073721
1466.05	0.101881
1475.7	0.050181
1485.34	0.021641
1494.99	0.008931
1504.63	0.004021
1514.28	0.003161
1523.92	0.005111
1533.57	0.011061
1543.21	0.015611
1552.86	0.015241
1562.5	0.010361
1572.15	0.005991
1581.79	0.007121
1591.44	0.007951
1601.08	0.005891
1610.73	0.002801
1620.37	0.002181
1630.01	0.002731
1639.66	0.003621
1649.3	0.002771
1658.95	0.001281
1668.59	0.0007875
1678.24	0.0007686
1687.88	0.0007511
1697.53	0.0007298
1707.17	0.0007552
1716.82	0.0008522
1726.46	0.0010701
1736.11	0.0010578
1745.75	0.001461
1755.4	0.002591
1765.04	0.004471
1774.69	0.004301
1784.33	0.002001
1793.98	0.0008026
1803.62	0.0007916
1813.27	0.0009889
1822.91	0.001079
1832.55	0.0008946
1842.2	0.0007768
1851.84	0.0005454
1861.49	0.0004787
1871.13	0.0005843
1880.78	0.0010825
1890.42	0.002381
1900.07	0.003481
1909.71	0.002561
1919.36	0.000872
1929	0.0004099
1938.65	0.0003132
1948.29	0.0002965
1957.94	0.0003132
1967.58	0.000311
1977.23	0.00027833
1986.87	0.0003338
1996.52	0.0003299
2006.16	0.00027452
2015.81	0.0003315
2025.45	0.00028064
2035.1	0.00026773
2044.74	0.00024036
2054.38	0.00021447
2064.03	0.00027628
2073.67	0.0004006
2083.32	0.0002956
2092.96	0.0004074
2102.61	0.0004552
2112.25	0.0004434
2121.9	0.0004368
2131.54	0.0003593
2141.19	0.0004113
2150.83	0.0004515
2160.48	0.0003954
2170.12	0.000305
2179.77	0.0004343
2189.41	0.0005148
2199.06	0.0004495
2208.7	0.0006015
2218.35	0.001651
2227.99	0.006011
2237.64	0.010141
2247.28	0.004831
2256.92	0.0006501
2266.57	0.0005195
2276.21	0.0005511
2285.86	0.000675
2295.5	0.0005852
2305.15	0.0004535
2314.79	0.0004542
2324.44	0.0004731
2334.08	0.0004787
2343.73	0.000375
2353.37	0.0004637
2363.02	0.0007197
2372.66	0.0008904
2382.31	0.0010094
2391.95	0.0007471
2401.6	0.0006285
2411.24	0.0006051
2420.89	0.0004282
2430.53	0.0004276
2440.18	0.0004701
2449.82	0.0005275
2459.47	0.0005097
2469.11	0.0005618
2478.75	0.0005644
2488.4	0.0010169
2498.04	0.0011309
2507.69	0.001471
2517.33	0.001651
2526.98	0.001581
2536.62	0.0011106
2546.27	0.0006219
2555.91	0.0004552
2565.56	0.0005877
2575.2	0.000408
2584.85	0.0004615
2594.49	0.0004965
2604.14	0.0006441
2613.78	0.0006617
2623.43	0.0003631
2633.07	0.0003847
2642.72	0.0003454
2652.36	0.0004154
2662.01	0.0004151
2671.65	0.0003296
2681.29	0.0004844
2690.94	0.0003596
2700.58	0.0005123
2710.23	0.0005663
2719.87	0.0004934
2729.52	0.0004472
2739.16	0.0004078
2748.81	0.0004367
2758.45	0.000555
2768.1	0.0005429
2777.74	0.0004841
2787.39	0.0007072
2797.03	0.0005565
2806.68	0.0006025
2816.32	0.0003395
2825.97	0.0005369
2835.61	0.0005274
2845.26	0.0002951
2854.9	0.00018673
2864.55	0.00021537
2874.19	0.000199768
2883.84	0.00021384
2893.48	0.0001436
2903.12	0.0001665
2912.77	0.0001653
2922.41	0.0001783
2932.06	0.0002972
2941.7	0.00028266
2951.35	0.0003524
2960.99	0.000281
2970.64	0.00023441
2980.28	0.00026196
2989.93	0.00023415
2999.57	0.0003086
3009.22	0.0003153
3018.86	0.0002603
3028.51	0.0003947
3038.15	0.0003368
3047.8	0.0003087
3057.44	0.0004991
3067.09	0.000937
3076.73	0.001491
3086.38	0.0010913
3096.02	0.0006906
3105.67	0.0006159
3115.31	0.0004455
3124.95	0.00026082
3134.6	0.0004139
3144.24	0.0004354
3153.89	0.0003441
3163.53	0.0004066
3173.18	0.00021816
3182.82	9.44e-05
3192.47	0.0001427
3202.11	0.00026246
3211.76	0.0001371
3221.4	0.0003054
3231.05	0.0001418
3240.69	0.0001623
3250.34	0.00021521
3259.98	0.0001666
3269.63	0.0001479
3279.27	0.00026519
3288.92	0.0001355
3298.56	8.5e-05
3308.21	0.00023868
3317.85	0.0002968
3327.49	0.00025524
3337.14	0.0003307
3346.78	0.0001771
3356.43	0.0002967
3366.07	0.00022624
3375.72	0.0003553
3385.36	0.0003165
3395.01	0.000197997
3404.65	0.0003308
3414.3	0.0005714
3423.94	0.0008446
3433.59	0.0008701
3443.23	0.0005848
3452.88	0.0004861
3462.52	0.0003735
3472.17	0.000295
3481.81	0.00024922
3491.46	0.00018807
3501.1	8e-05
3510.75	0.000196455
3520.39	0.0004192
3530.04	0.00025965
3539.68	0.0003497
3549.32	6.9e-05
3558.97	0.00024978
3568.61	0.000129
3578.26	0.0002928
3587.9	0.00026825
3597.55	0.000194227
3607.19	0.00021556
3616.84	0.0002656
3626.48	0.00025782
3636.13	0.0003405
3645.77	0.00019073
3655.42	0.00019014
3665.06	0.0003112
3674.71	0.0003186
3684.35	0.0003418
3694	0.0004359
3703.64	0.000359
3713.29	0.0004005
3722.93	0.0003653
3732.58	0.00023802
3742.22	0.00024011
3751.86	0.0001278
3761.51	0.0003723
3771.15	0.0004933
3780.8	0.0005691
3790.44	0.0006268
3800.09	0.0004308
3809.73	0.0005155
3819.38	0.0004545
3829.02	0.0004551
3838.67	0.000361
3848.31	0.00021702
3857.96	0.0003254
3867.6	0.0003113
3877.25	0.0003085
3886.89	0.0002971
3896.54	0.0001012
3906.18	0.00025534
3915.83	0.0004073
3925.47	0.000386
3935.12	0.0005439
3944.76	0.0004543
3954.41	0.00028161
3964.05	0.0003798
3973.69	0.0002782
3983.34	0.00027885
3992.98	0.0005055
