Infrared Spectrum: 2,4-Dichlorobenzonitrile
Formula: C 7 H 3 Cl 2 N
CAS: 6574-98-7
State: gas
Origin: EPA-IR VAPOR PHASE LIBRARY
1/CM	ABSORBANCE
549.8	0.001594
559.445	0.005524
569.09	0.013614
578.734	0.013024
588.379	0.006694
598.024	0.003864
607.669	0.017364
617.313	0.023724
626.958	0.007644
636.603	0.002764
646.248	0.001534
655.893	0.001314
665.537	0.0008983
675.182	0.001864
684.827	0.011214
694.472	0.017564
704.116	0.007804
713.761	0.002724
723.406	0.001424
733.051	0.001144
742.695	0.0008699
752.34	0.001077
761.985	0.001094
771.63	0.001314
781.275	0.002984
790.919	0.005944
800.564	0.012754
810.209	0.034294
819.854	0.073534
829.498	0.077194
839.143	0.089354
848.788	0.050214
858.433	0.016834
868.078	0.022534
877.722	0.021874
887.367	0.010454
897.012	0.004214
906.657	0.002524
916.301	0.001604
925.946	0.001474
935.591	0.001414
945.236	0.001864
954.88	0.002784
964.525	0.002144
974.17	0.001334
983.815	0.001644
993.46	0.001274
1003.1	0.0007975
1012.75	0.0008965
1022.39	0.001194
1032.04	0.002264
1041.68	0.007724
1051.33	0.022484
1060.97	0.030714
1070.62	0.016924
1080.26	0.007224
1089.91	0.019474
1099.55	0.057304
1109.2	0.060164
1118.84	0.023694
1128.49	0.015314
1138.13	0.015354
1147.78	0.016584
1157.42	0.008794
1167.07	0.004034
1176.71	0.004034
1186.36	0.004664
1196	0.003724
1205.64	0.003484
1215.29	0.002404
1224.93	0.002764
1234.58	0.003204
1244.22	0.002734
1253.87	0.003064
1263.51	0.002424
1273.16	0.001674
1282.8	0.001854
1292.45	0.001294
1302.09	0.0009314
1311.74	0.0009172
1321.38	0.0009541
1331.03	0.001734
1340.67	0.005324
1350.32	0.011714
1359.96	0.015404
1369.61	0.021964
1379.25	0.032804
1388.9	0.027124
1398.54	0.011044
1408.18	0.004744
1417.83	0.003814
1427.47	0.008014
1437.12	0.025804
1446.76	0.034884
1456.41	0.029534
1466.05	0.058864
1475.7	0.113504
1485.34	0.062474
1494.99	0.007224
1504.63	0.004604
1514.28	0.006214
1523.92	0.008694
1533.57	0.010464
1543.21	0.017604
1552.86	0.024914
1562.5	0.027584
1572.15	0.050744
1581.79	0.094454
1591.44	0.081214
1601.08	0.026604
1610.73	0.008924
1620.37	0.004394
1630.01	0.003984
1639.66	0.004274
1649.3	0.003304
1658.95	0.002064
1668.59	0.002094
1678.24	0.001804
1687.88	0.001194
1697.53	0.001124
1707.17	0.001444
1716.82	0.001984
1726.46	0.002814
1736.11	0.003904
1745.75	0.003904
1755.4	0.002964
1765.04	0.002894
1774.69	0.002024
1784.33	0.0008268
1793.98	0.0006412
1803.62	0.0005987
1813.27	0.0006621
1822.91	0.0009175
1832.55	0.0009819
1842.2	0.0007746
1851.84	0.0005534
1861.49	0.0005788
1871.13	0.0007323
1880.78	0.001344
1890.42	0.002834
1900.07	0.003924
1909.71	0.002814
1919.36	0.001184
1929	0.000935
1938.65	0.000925
1948.29	0.0007727
1957.94	0.000602
1967.58	0.0007172
1977.23	0.0009094
1986.87	0.0008192
1996.52	0.0005827
2006.16	0.0004354
2015.81	0.0002727
2025.45	0.0002621
2035.1	0.0002979
2044.74	0.000352
2054.38	0.0003721
2064.03	0.0003881
2073.67	0.0003087
2083.32	0.0002972
2092.96	0.0003746
2102.61	0.0004178
2112.25	0.000343
2121.9	0.0004256
2131.54	0.0003125
2141.19	0.0002415
2150.83	0.0002251
2160.48	0.0003858
2170.12	0.0003875
2179.77	0.0003699
2189.41	0.0004872
2199.06	0.0004816
2208.7	0.0007315
2218.35	0.001484
2227.99	0.004124
2237.64	0.006234
2247.28	0.003634
2256.92	0.001354
2266.57	0.001114
2276.21	0.0008716
2285.86	0.0008693
2295.5	0.0008208
2305.15	0.0006427
2314.79	0.0006428
2324.44	0.0005715
2334.08	0.0004418
2343.73	0.000483
2353.37	0.0006195
2363.02	0.0007559
2372.66	0.000793
2382.31	0.0005305
2391.95	0.0005545
2401.6	0.0006439
2411.24	0.0005023
2420.89	0.0004577
2430.53	0.0005006
2440.18	0.0005813
2449.82	0.0006208
2459.47	0.0007209
2469.11	0.0005591
2478.75	0.0006102
2488.4	0.000573
2498.04	0.0008072
2507.69	0.001184
2517.33	0.001594
2526.98	0.001474
2536.62	0.0010464
2546.27	0.0006045
2555.91	0.0003589
2565.56	0.0003786
2575.2	0.0005003
2584.85	0.0005145
2594.49	0.0005539
2604.14	0.0005817
2613.78	0.000543
2623.43	0.0006167
2633.07	0.000814
2642.72	0.0008519
2652.36	0.0008269
2662.01	0.0006687
2671.65	0.0006977
2681.29	0.0007294
2690.94	0.0006175
2700.58	0.0006902
2710.23	0.0007143
2719.87	0.0006995
2729.52	0.0006593
2739.16	0.000476
2748.81	0.0004808
2758.45	0.0003807
2768.1	0.0004489
2777.74	0.0004176
2787.39	0.0004301
2797.03	0.0006104
2806.68	0.0006749
2816.32	0.0005971
2825.97	0.0004981
2835.61	0.0004772
2845.26	0.0005776
2854.9	0.0003682
2864.55	0.0002796
2874.19	0.0003013
2883.84	6.13e-05
2893.48	0.0001972
2903.12	0.00013968
2912.77	0.0002008
2922.41	0.0003066
2932.06	0.0004288
2941.7	0.0003873
2951.35	0.0003268
2960.99	0.000433
2970.64	0.0004368
2980.28	0.000217
2989.93	0.0003521
2999.57	0.000269
3009.22	0.0003863
3018.86	0.0003327
3028.51	0.0002754
3038.15	0.0004207
3047.8	0.0002555
3057.44	0.000471
3067.09	0.001444
3076.73	0.002054
3086.38	0.001804
3096.02	0.001194
3105.67	0.0009883
3115.31	0.0003291
3124.95	0.0002889
3134.6	0.00017565
3144.24	0.0003789
3153.89	0.000295
3163.53	0.0006754
3173.18	0.0006511
3182.82	0.0003471
3192.47	0.0003077
3202.11	0.0002665
3211.76	0.0002357
3221.4	0.0002931
3231.05	3.36e-05
3240.69	0.00013243
3250.34	0.000100681
3259.98	0
3269.63	0.0002735
3279.27	0.0003252
3288.92	0.0002057
3298.56	0.0003607
3308.21	0.0002498
3317.85	0.0003432
3327.49	0.0002525
3337.14	0.00018561
3346.78	0.0003177
3356.43	0.0003056
3366.07	0.0003251
3375.72	0.000281
3385.36	0.0002549
3395.01	0.0003561
3404.65	0.00017236
3414.3	0.0004984
3423.94	0.0005571
3433.59	0.0007408
3443.23	0.0006611
3452.88	0.0004812
3462.52	0.0003201
3472.17	0.0002418
3481.81	0.0003978
3491.46	0.00064
3501.1	0.0003801
3510.75	0.0005831
3520.39	0.00016322
3530.04	0.0002602
3539.68	0.0003208
3549.32	0.00019356
3558.97	0.0002298
3568.61	0.0004395
3578.26	0.0003464
3587.9	0.0002112
3597.55	0.000274
3607.19	0.00012668
3616.84	0.00019193
3626.48	0.0003853
3636.13	0.0003775
3645.77	0.0003277
3655.42	0.0002738
3665.06	0.0006131
3674.71	0.0004432
3684.35	0.0003578
3694	0.0003979
3703.64	0.0004472
3713.29	0.000631
3722.93	0.0004357
3732.58	0.0004515
3742.22	0.0003097
3751.86	8.611e-05
3761.51	0.00017471
3771.15	0.0003917
3780.8	0.0004087
3790.44	0.0004013
3800.09	0.0006899
3809.73	0.000376
3819.38	0.0003388
3829.02	0.0003743
3838.67	0.000254
3848.31	0.0003759
3857.96	0.00011806
3867.6	0.0002392
3877.25	0.0004531
3886.89	0.000354
3896.54	0.0006118
3906.18	0.0002441
3915.83	0.000649
3925.47	0.0007289
3935.12	0.0007132
3944.76	0.0005155
3954.41	0.0002242
3964.05	0.0004331
3973.69	0.0004819
3983.34	0.0002065
3992.98	0.0001921
