Infrared Spectrum: 2,6-Dimethylbenzonitrile
Formula: C 9 H 9 N
CAS: 6575-13-9
State: gas
Origin: EPA-IR VAPOR PHASE LIBRARY
1/CM	ABSORBANCE
551.7	0.002431
563.274	0.004791
574.848	0.003291
586.421	0.003151
597.995	0.002721
609.569	0.001871
621.143	0.001371
632.717	0.001171
644.291	0.0010356
655.864	0.0010668
667.438	0.001181
679.012	0.0010556
690.586	0.0009642
702.16	0.001321
713.734	0.003071
725.307	0.006101
736.881	0.007101
748.455	0.013331
760.029	0.042891
771.603	0.094461
783.177	0.042411
794.75	0.009871
806.324	0.003261
817.898	0.002521
829.472	0.002451
841.046	0.001641
852.619	0.001161
864.193	0.001271
875.767	0.001251
887.341	0.000818
898.915	0.0010739
910.489	0.001891
922.062	0.002661
933.636	0.002531
945.21	0.002761
956.784	0.003941
968.358	0.004941
979.932	0.004541
991.505	0.003531
1003.08	0.003051
1014.65	0.002981
1026.23	0.003841
1037.8	0.004401
1049.37	0.003991
1060.95	0.003361
1072.52	0.004141
1084.1	0.005811
1095.67	0.005301
1107.24	0.003251
1118.82	0.002371
1130.39	0.002041
1141.97	0.001491
1153.54	0.003211
1165.11	0.005601
1176.69	0.004651
1188.26	0.001561
1199.83	0.001691
1211.41	0.001361
1222.98	0.001551
1234.56	0.002141
1246.13	0.003781
1257.7	0.006381
1269.28	0.007131
1280.85	0.005131
1292.42	0.003731
1304	0.003541
1315.57	0.003311
1327.15	0.003391
1338.72	0.003971
1350.29	0.004691
1361.87	0.005691
1373.44	0.007751
1385.02	0.012571
1396.59	0.012941
1408.16	0.007921
1419.74	0.008041
1431.31	0.010461
1442.88	0.015481
1454.46	0.026891
1466.03	0.039311
1477.61	0.037681
1489.18	0.023951
1500.75	0.015001
1512.33	0.010761
1523.9	0.011101
1535.48	0.013091
1547.05	0.013291
1558.62	0.012581
1570.2	0.015831
1581.77	0.022541
1593.34	0.024301
1604.92	0.013181
1616.49	0.005381
1628.07	0.003451
1639.64	0.002941
1651.21	0.003551
1662.79	0.003521
1674.36	0.002221
1685.93	0.001541
1697.51	0.001441
1709.08	0.001241
1720.66	0.0010868
1732.23	0.001461
1743.8	0.001601
1755.38	0.001381
1766.95	0.002091
1778.53	0.002781
1790.1	0.002141
1801.67	0.001301
1813.25	0.0010732
1824.82	0.001025
1836.39	0.001151
1847.97	0.001941
1859.54	0.002831
1871.12	0.002251
1882.69	0.0011137
1894.26	0.0008254
1905.84	0.0009469
1917.41	0.001451
1928.99	0.002831
1940.56	0.004271
1952.13	0.003051
1963.71	0.0009404
1975.28	0.0005536
1986.85	0.0005623
1998.43	0.0005891
2010	0.0006868
2021.58	0.0005965
2033.15	0.0005402
2044.72	0.0004464
2056.3	0.0004747
2067.87	0.0005702
2079.44	0.0006247
2091.02	0.0006025
2102.59	0.0005273
2114.17	0.000433
2125.74	0.0004236
2137.31	0.0004383
2148.89	0.0005158
2160.46	0.0007567
2172.04	0.0010041
2183.61	0.001151
2195.18	0.001991
2206.76	0.006801
2218.33	0.016021
2229.9	0.015801
2241.48	0.005171
2253.05	0.001911
2264.63	0.001491
2276.2	0.001261
2287.77	0.0009067
2299.35	0.0008346
2310.92	0.0008883
2322.5	0.0009953
2334.07	0.001381
2345.64	0.001511
2357.22	0.001461
2368.79	0.001381
2380.36	0.0011159
2391.94	0.0009425
2403.51	0.0008993
2415.09	0.0009781
2426.66	0.0009856
2438.23	0.0009044
2449.81	0.0008765
2461.38	0.0007738
2472.96	0.0007402
2484.53	0.0007323
2496.1	0.0007254
2507.68	0.000791
2519.25	0.0007221
2530.82	0.0005451
2542.4	0.000524
2553.97	0.0005954
2565.55	0.0005978
2577.12	0.0005636
2588.69	0.0006445
2600.27	0.0007738
2611.84	0.0009896
2623.41	0.001331
2634.99	0.001341
2646.56	0.001241
2658.14	0.0010776
2669.71	0.0010072
2681.28	0.0008357
2692.86	0.0007014
2704.43	0.0007558
2716.01	0.0008678
2727.58	0.001201
2739.15	0.001711
2750.73	0.002411
2762.3	0.002511
2773.87	0.001961
2785.45	0.001551
2797.02	0.001671
2808.6	0.001961
2820.17	0.002511
2831.74	0.003611
2843.32	0.005351
2854.89	0.008531
2866.47	0.012541
2878.04	0.014591
2889.61	0.014191
2901.19	0.014441
2912.76	0.017521
2924.33	0.026711
2935.91	0.034641
2947.48	0.029311
2959.06	0.021171
2970.63	0.020081
2982.2	0.020911
2993.78	0.020351
3005.35	0.017551
3016.92	0.017831
3028.5	0.022791
3040.07	0.026371
3051.65	0.028991
3063.22	0.035501
3074.79	0.034181
3086.37	0.019841
3097.94	0.007551
3109.52	0.003671
3121.09	0.002681
3132.66	0.002081
3144.24	0.001841
3155.81	0.001671
3167.38	0.001571
3178.96	0.001301
3190.53	0.0009349
3202.11	0.0005623
3213.68	0.0003347
3225.25	0.0003253
3236.83	0.000351
3248.4	0.0004038
3259.98	0.0003444
3271.55	0.0004047
3283.12	0.0004083
3294.7	0.0003718
3306.27	0.0003376
3317.84	0.0004604
3329.42	0.000355
3340.99	0.0002442
3352.57	0.0003508
3364.14	0.0003591
3375.71	0.0004281
3387.29	0.0007346
3398.86	0.0010475
3410.43	0.0009656
3422.01	0.0005502
3433.58	0.0003254
3445.16	0.0002953
3456.73	0.0003434
3468.3	0.0003036
3479.88	0.0003812
3491.45	0.0004661
3503.03	0.0004977
3514.6	0.0002553
3526.17	0.0002571
3537.75	0.0002978
3549.32	0.00019459
3560.89	0.0002393
3572.47	0.00017491
3584.04	0.00019801
3595.62	9.93e-05
3607.19	0.00017034
3618.76	0.0002249
3630.34	0.0002748
3641.91	0.000365
3653.49	0.0004147
3665.06	0.0004129
3676.63	0.0003048
3688.21	0.00021654
3699.78	0.00018132
3711.35	0.00020604
3722.93	4e-06
3734.5	7.85e-05
3746.08	7.23e-05
3757.65	0.00020197
3769.22	0.0001634
3780.8	0.0002767
3792.37	0.0002898
3803.94	0.0005387
3815.52	0.0006016
3827.09	0.0006995
3838.67	0.00064
3850.24	0.0006316
3861.81	0.000827
3873.39	0.0007978
3884.96	0.0005497
3896.54	0.0004667
3908.11	0.0003939
3919.68	0.0003875
3931.26	0.0004434
3942.83	0.000547
3954.4	0.0005962
3965.98	0.0004979
3977.55	0.0005079
3989.13	0.0005827
4000.7	0.0004999
