Infrared Spectrum: 3,5-Dichlorobenzonitrile
Formula: C 7 H 3 Cl 2 N
CAS: 6575-00-4
State: gas
Origin: EPA-IR VAPOR PHASE LIBRARY
1/CM	ABSORBANCE
501.5	0
513.074	0.000112
524.648	0.0003208
536.222	0.000231
547.796	0.0003539
559.37	0.0003283
570.944	0.0005658
582.518	0.00043288
594.092	0.00039046
605.666	0.000299
617.24	0.0004393
628.814	0.00039465
640.388	0.0006909
651.962	0.00232
663.536	0.01089
675.11	0.00752
686.684	0.00209
698.258	0.00162
709.832	0.0013677
721.406	0.0008411
732.98	0.0008137
744.554	0.0009654
756.128	0.00151
767.702	0.00286
779.276	0.0041
790.85	0.0069
802.423	0.0203
813.997	0.02661
825.571	0.02048
837.145	0.01317
848.719	0.00779
860.293	0.01635
871.867	0.02922
883.441	0.01774
895.015	0.00401
906.589	0.00163
918.163	0.0011784
929.737	0.0008231
941.311	0.0006344
952.885	0.00049675
964.459	0.0005774
976.033	0.0006539
987.607	0.00065
999.181	0.0007104
1010.76	0.0005958
1022.33	0.0006428
1033.9	0.0007918
1045.48	0.0009192
1057.05	0.001121
1068.63	0.0011193
1080.2	0.00149
1091.77	0.00747
1103.35	0.00935
1114.92	0.00527
1126.49	0.00274
1138.07	0.0009782
1149.64	0.0007496
1161.22	0.0008044
1172.79	0.0007564
1184.36	0.0010832
1195.94	0.00479
1207.51	0.01221
1219.09	0.00759
1230.66	0.00404
1242.23	0.00246
1253.81	0.0010696
1265.38	0.0010995
1276.96	0.0010378
1288.53	0.0006261
1300.1	0.0005733
1311.68	0.0006379
1323.25	0.0006923
1334.83	0.0006165
1346.4	0.0006505
1357.97	0.0009727
1369.55	0.00258
1381.12	0.0083
1392.7	0.01157
1404.27	0.01176
1415.84	0.0189
1427.42	0.01457
1438.99	0.00491
1450.57	0.00223
1462.14	0.00221
1473.71	0.00205
1485.29	0.00142
1496.86	0.0010121
1508.44	0.0012052
1520.01	0.0017
1531.58	0.00301
1543.16	0.01068
1554.73	0.04012
1566.31	0.06357
1577.88	0.02341
1589.45	0.0132
1601.03	0.00576
1612.6	0.00258
1624.18	0.00153
1635.75	0.0012692
1647.32	0.0010798
1658.9	0.0007862
1670.47	0.0007364
1682.05	0.0007036
1693.62	0.0007098
1705.19	0.0006219
1716.77	0.0005913
1728.34	0.0009006
1739.92	0.00219
1751.49	0.00364
1763.06	0.00312
1774.64	0.00195
1786.21	0.0009026
1797.79	0.0007003
1809.36	0.000565
1820.93	0.00048644
1832.51	0.00047441
1844.08	0.00048056
1855.66	0.0005101
1867.23	0.0005075
1878.8	0.0005336
1890.38	0.0005106
1901.95	0.0005163
1913.53	0.0006108
1925.1	0.00067
1936.67	0.0006546
1948.25	0.0006457
1959.82	0.0006392
1971.4	0.0006734
1982.97	0.0006137
1994.54	0.0005446
2006.12	0.00049791
2017.69	0.0005218
2029.27	0.00049006
2040.84	0.00047111
2052.41	0.00047446
2063.99	0.00046349
2075.56	0.00049725
2087.14	0.00049285
2098.71	0.0005047
2110.28	0.0005288
2121.86	0.0005022
2133.43	0.00046397
2145.01	0.00043098
2156.58	0.000466
2168.15	0.00046955
2179.73	0.00046777
2191.3	0.0005119
2202.88	0.0005969
2214.45	0.0006282
2226.02	0.0010432
2237.6	0.00175
2249.17	0.0011214
2260.74	0.0005232
2272.32	0.00049909
2283.89	0.00046644
2295.47	0.00049708
2307.04	0.0005137
2318.61	0.00049404
2330.19	0.0005096
2341.76	0.0005312
2353.34	0.0006447
2364.91	0.0005948
2376.48	0.0006698
2388.06	0.0007587
2399.63	0.000759
2411.21	0.0007327
2422.78	0.0005987
2434.35	0.0005776
2445.93	0.0005557
2457.5	0.0005982
2469.08	0.0005469
2480.65	0.0005164
2492.22	0.0005323
2503.8	0.0005425
2515.37	0.0005936
2526.95	0.0006083
2538.52	0.0005586
2550.09	0.0005449
2561.67	0.0005542
2573.24	0.0005546
2584.82	0.0005927
2596.39	0.0005566
2607.96	0.0005565
2619.54	0.0006294
2631.11	0.0006384
2642.69	0.000685
2654.26	0.0007115
2665.83	0.0006243
2677.41	0.0005817
2688.98	0.0005843
2700.56	0.000567
2712.13	0.0005862
2723.7	0.000556
2735.28	0.0005677
2746.85	0.0005465
2758.43	0.0006561
2770	0.000674
2781.57	0.0006978
2793.15	0.0007035
2804.72	0.0006602
2816.3	0.0006775
2827.87	0.0006632
2839.44	0.0007051
2851.02	0.000701
2862.59	0.0006728
2874.17	0.0006311
2885.74	0.00049277
2897.31	0.0005631
2908.89	0.0005126
2920.46	0.0005191
2932.04	0.00048719
2943.61	0.0005691
2955.18	0.0005586
2966.76	0.0005899
2978.33	0.0006714
2989.91	0.0006822
3001.48	0.0006464
3013.05	0.0006004
3024.63	0.0005207
3036.2	0.0005229
3047.78	0.0005237
3059.35	0.0005682
3070.92	0.0007232
3082.5	0.00149
3094.07	0.001357
3105.65	0.0006752
3117.22	0.0006996
3128.79	0.0007292
3140.37	0.0007076
3151.94	0.0007022
3163.52	0.0006192
3175.09	0.0006103
3186.66	0.0005488
3198.24	0.00049571
3209.81	0.0005253
3221.39	0.0005113
3232.96	0.0005145
3244.53	0.00049315
3256.11	0.0005107
3267.68	0.0005135
3279.26	0.00046875
3290.83	0.00046391
3302.4	0.00046494
3313.98	0.00045024
3325.55	0.00046278
3337.13	0.000532
3348.7	0.00046716
3360.27	0.00047853
3371.85	0.0005035
3383.42	0.00048116
3395	0.00049386
3406.57	0.00047975
3418.14	0.0005259
3429.72	0.000624
3441.29	0.000624
3452.86	0.0006656
3464.44	0.0005477
3476.01	0.0005585
3487.59	0.0005107
3499.16	0.0005097
3510.73	0.00044462
3522.31	0.0005388
3533.88	0.00047289
3545.46	0.0005198
3557.03	0.0005252
3568.6	0.0005367
3580.18	0.0005444
3591.75	0.0004727
3603.33	0.00049298
3614.9	0.0005152
3626.47	0.00044141
3638.05	0.00047853
3649.62	0.00043742
3661.2	0.00043768
3672.77	0.0005009
3684.34	0.00049029
3695.92	0.00047108
3707.49	0.0003767
3719.07	0.00041744
3730.64	0.00043394
3742.21	0.000400429
3753.79	0.000409926
3765.36	0.0004499
3776.94	0.0003757
3788.51	0.00044634
3800.08	0.00048248
3811.66	0.0006001
3823.23	0.000504
3834.81	0.0005198
3846.38	0.0005752
3857.95	0.00047988
3869.53	0.00043008
3881.1	0.0005488
3892.68	0.0006131
3904.25	0.000526
3915.82	0.0006395
3927.4	0.0005617
3938.97	0.0006258
3950.55	0.0006028
3962.12	0.000668
3973.69	0.0005522
3985.27	0.000612
3996.84	0.0005639
