Infrared Spectrum: 2,4,6-Trichlorobenzonitrile
Formula: C7 H2 Cl3 N
CAS: 6575-05-9
State: gas
Origin: EPA-IR VAPOR PHASE LIBRARY
1/CM	ABSORBANCE
549.8	0.0001858
559.445	0.0005923
569.09	0.004688
578.734	0.014198
588.379	0.006188
598.024	0.000959
607.669	0.0008968
617.313	0.001488
626.958	0.001508
636.603	0.004548
646.248	0.024538
655.893	0.032888
665.537	0.006238
675.182	0.001268
684.827	0.000774
694.472	0.0010312
704.116	0.002908
713.761	0.007048
723.406	0.004608
733.051	0.001358
742.695	0.0010424
752.34	0.001268
761.985	0.002258
771.63	0.003468
781.275	0.007468
790.919	0.013168
800.564	0.027118
810.209	0.049508
819.854	0.081558
829.498	0.079308
839.143	0.050038
848.788	0.095778
858.433	0.095278
868.078	0.047688
877.722	0.012178
887.367	0.003008
897.012	0.001898
906.657	0.002398
916.301	0.004778
925.946	0.004378
935.591	0.002048
945.236	0.0010081
954.88	0.0007431
964.525	0.0006732
974.17	0.0008392
983.815	0.001388
993.46	0.001548
1003.1	0.001578
1012.75	0.001368
1022.39	0.001358
1032.04	0.002198
1041.68	0.002858
1051.33	0.002518
1060.97	0.004158
1070.62	0.018758
1080.26	0.017958
1089.91	0.002998
1099.55	0.001358
1109.2	0.0009057
1118.84	0.0010004
1128.49	0.003198
1138.13	0.014448
1147.78	0.014808
1157.42	0.003328
1167.07	0.003078
1176.71	0.010678
1186.36	0.028758
1196	0.017578
1205.64	0.003858
1215.29	0.0009497
1224.93	0.001113
1234.58	0.0010415
1244.22	0.001208
1253.87	0.001228
1263.51	0.0010563
1273.16	0.001618
1282.8	0.0011363
1292.45	0.0008615
1302.09	0.001298
1311.74	0.002028
1321.38	0.006438
1331.03	0.009758
1340.67	0.006778
1350.32	0.009248
1359.96	0.028018
1369.61	0.072578
1379.25	0.065388
1388.9	0.042968
1398.54	0.030988
1408.18	0.019248
1417.83	0.037288
1427.47	0.060538
1437.12	0.034658
1446.76	0.025138
1456.41	0.022688
1466.05	0.008358
1475.7	0.003818
1485.34	0.003528
1494.99	0.004688
1504.63	0.007378
1514.28	0.009868
1523.92	0.019078
1533.57	0.064728
1543.21	0.124048
1552.86	0.095828
1562.5	0.100148
1572.15	0.120878
1581.79	0.110528
1591.44	0.049498
1601.08	0.011148
1610.73	0.006018
1620.37	0.005538
1630.01	0.003998
1639.66	0.003318
1649.3	0.002588
1658.95	0.001868
1668.59	0.001798
1678.24	0.001638
1687.88	0.0011131
1697.53	0.0011056
1707.17	0.001938
1716.82	0.004428
1726.46	0.007598
1736.11	0.005878
1745.75	0.002298
1755.4	0.0009001
1765.04	0.0006892
1774.69	0.0005441
1784.33	0.0004732
1793.98	0.0004921
1803.62	0.0004267
1813.27	0.0004337
1822.91	0.0003417
1832.55	0.0004261
1842.2	0.00049
1851.84	0.0004102
1861.49	0.00028422
1871.13	0.000364
1880.78	0.00044
1890.42	0.0006029
1900.07	0.0006765
1909.71	0.0009144
1919.36	0.001238
1929	0.001258
1938.65	0.0011061
1948.29	0.0011188
1957.94	0.0009568
1967.58	0.0008764
1977.23	0.0007835
1986.87	0.0009209
1996.52	0.0008464
2006.16	0.0007278
2015.81	0.0007168
2025.45	0.0005188
2035.1	0.0004463
2044.74	0.0004318
2054.38	0.0003331
2064.03	0.000318
2073.67	0.0003042
2083.32	0.00024639
2092.96	0.00022233
2102.61	0.0002105
2112.25	0.000203532
2121.9	0.0001388
2131.54	0.0001232
2141.19	0.00022115
2150.83	0.00023217
2160.48	0.00019514
2170.12	0.0001646
2179.77	0.0001872
2189.41	0.00027957
2199.06	0.0003003
2208.7	0.0003302
2218.35	0.0004971
2227.99	0.0011158
2237.64	0.001798
2247.28	0.001198
2256.92	0.0005838
2266.57	0.0005195
2276.21	0.0005919
2285.86	0.0005142
2295.5	0.0003309
2305.15	0.0004002
2314.79	0.00051
2324.44	0.0006018
2334.08	0.00055
2343.73	0.00026053
2353.37	0.00028957
2363.02	0.0004236
2372.66	0.0004165
2382.31	0.00029707
2391.95	0.0003522
2401.6	0.0004351
2411.24	0.0003798
2420.89	0.0003863
2430.53	0.0004311
2440.18	0.0005406
2449.82	0.0004133
2459.47	0.0003919
2469.11	0.0004009
2478.75	0.0004995
2488.4	0.0006005
2498.04	0.0007353
2507.69	0.000651
2517.33	0.0004584
2526.98	0.0003079
2536.62	0.0003377
2546.27	0.0003527
2555.91	0.0005545
2565.56	0.0006423
2575.2	0.000559
2584.85	0.0005217
2594.49	0.0005267
2604.14	0.0009079
2613.78	0.0010476
2623.43	0.0010009
2633.07	0.0008155
2642.72	0.0006363
2652.36	0.0005413
2662.01	0.0004551
2671.65	0.0007088
2681.29	0.0008991
2690.94	0.0008748
2700.58	0.0005944
2710.23	0.0004582
2719.87	0.0004078
2729.52	0.000308
2739.16	0.00027714
2748.81	0.0003099
2758.45	0.0003908
2768.1	0.0003825
2777.74	0.0005412
2787.39	0.0007126
2797.03	0.0005678
2806.68	0.0005671
2816.32	0.0006134
2825.97	0.0004392
2835.61	0.0003387
2845.26	0.000146
2854.9	0.000187
2864.55	0.00024798
2874.19	0.0004148
2883.84	0.00023987
2893.48	0.00023858
2903.12	0.0003439
2912.77	0.0003
2922.41	0.0004075
2932.06	0.0005314
2941.7	0.0003754
2951.35	0.000371
2960.99	0.0004773
2970.64	0.0006189
2980.28	0.0005755
2989.93	0.0004784
2999.57	0.0003178
3009.22	0.00029467
3018.86	0.0003142
3028.51	0.0001664
3038.15	0.00025593
3047.8	0.0004177
3057.44	0.0003075
3067.09	0.000783
3076.73	0.001878
3086.38	0.003288
3096.02	0.003018
3105.67	0.002018
3115.31	0.001708
3124.95	0.001668
3134.6	0.001368
3144.24	0.0010301
3153.89	0.0008603
3163.53	0.0006237
3173.18	0.000302
3182.82	0.0003347
3192.47	0.00025256
3202.11	0.0001435
3211.76	0.0001687
3221.4	0.0003909
3231.05	0.0003306
3240.69	0.00019361
3250.34	0.00022451
3259.98	0.0001493
3269.63	0.00028665
3279.27	0.0003153
3288.92	0.00024367
3298.56	0.00028409
3308.21	0.00027911
3317.85	0.00024443
3327.49	0.00029778
3337.14	0.0001706
3346.78	0.00021046
3356.43	0.000199636
3366.07	0.0003738
3375.72	0.00025764
3385.36	0.0004278
3395.01	0.00028054
3404.65	0.0003587
3414.3	0.0003346
3423.94	0.0005704
3433.59	0.0003772
3443.23	0.0004621
3452.88	0.0004136
3462.52	0.0004298
3472.17	0.0004333
3481.81	0.0003939
3491.46	0.0003731
3501.1	0.00025928
3510.75	0.0004425
3520.39	0.0003162
3530.04	0.0003331
3539.68	0.00029779
3549.32	0.00026066
3558.97	0.00018828
3568.61	0.0004593
3578.26	0.0003177
3587.9	0.0001004
3597.55	0.0003511
3607.19	0.00026499
3616.84	0.0003712
3626.48	0.0001156
3636.13	0.0001358
3645.77	0.0004306
3655.42	0.0002988
3665.06	0.0004028
3674.71	0.0003455
3684.35	0.00023767
3694	0.00037
3703.64	0.0003784
3713.29	0.0002446
3722.93	0.00032
3732.58	0.0003357
3742.22	0.0003397
3751.86	0.0003427
3761.51	0.0004181
3771.15	0.0001704
3780.8	0.0004322
3790.44	0.0005809
3800.09	0.0003228
3809.73	0.0003071
3819.38	0.0004084
3829.02	0.0005183
3838.67	0.0004039
3848.31	0.00026516
3857.96	0.0003485
3867.6	0.0003679
3877.25	0.0003212
3886.89	0.0004362
3896.54	0.0005411
3906.18	0.0005013
3915.83	0.0005409
3925.47	0.0005035
3935.12	0.0008088
3944.76	0.000924
3954.41	0.0006234
3964.05	0.0006395
3973.69	0.0004974
3983.34	0.0003076
3992.98	0.0001578
