Infrared Spectrum: 2-Amino-6-chlorobenzonitrile
Formula: C 7 H 5 Cl N 2
CAS: 6575-11-7
State: gas
Origin: EPA-IR VAPOR PHASE LIBRARY
1/CM	ABSORBANCE
551.7	0.00656
563.274	0.00617
574.848	0.00619
586.421	0.00618
597.995	0.00665
609.569	0.00732
621.143	0.00771
632.717	0.00742
644.291	0.0062
655.864	0.00583
667.438	0.00615
679.012	0.0067
690.586	0.0077
702.16	0.01014
713.734	0.01515
725.307	0.01861
736.881	0.01354
748.455	0.0116
760.029	0.01586
771.603	0.02662
783.177	0.02259
794.75	0.01342
806.324	0.00925
817.898	0.00794
829.472	0.00745
841.046	0.00706
852.619	0.0068
864.193	0.00682
875.767	0.00668
887.341	0.0075
898.915	0.01242
910.489	0.02126
922.062	0.01603
933.636	0.00509
945.21	0.00386
956.784	0.004
968.358	0.00365
979.932	0.0033
991.505	0.00305
1003.08	0.00293
1014.65	0.00295
1026.23	0.00366
1037.8	0.00682
1049.37	0.00733
1060.95	0.0039
1072.52	0.00288
1084.1	0.00459
1095.67	0.00662
1107.24	0.00552
1118.82	0.00383
1130.39	0.00303
1141.97	0.00281
1153.54	0.00389
1165.11	0.00444
1176.69	0.00336
1188.26	0.00419
1199.83	0.0059
1211.41	0.00587
1222.98	0.00382
1234.56	0.00278
1246.13	0.0031
1257.7	0.00512
1269.28	0.01103
1280.85	0.01855
1292.42	0.01617
1304	0.01088
1315.57	0.01275
1327.15	0.00892
1338.72	0.00436
1350.29	0.00313
1361.87	0.00259
1373.44	0.0026
1385.02	0.00234
1396.59	0.00222
1408.16	0.00269
1419.74	0.00375
1431.31	0.00709
1442.88	0.01834
1454.46	0.03655
1466.03	0.04663
1477.61	0.02824
1489.18	0.00672
1500.75	0.00512
1512.33	0.00573
1523.9	0.0062
1535.48	0.00568
1547.05	0.00745
1558.62	0.01702
1570.2	0.02879
1581.77	0.02596
1593.34	0.02696
1604.92	0.02837
1616.49	0.04193
1628.07	0.05543
1639.64	0.03471
1651.21	0.01263
1662.79	0.00548
1674.36	0.00392
1685.93	0.00372
1697.51	0.00367
1709.08	0.00331
1720.66	0.00304
1732.23	0.00271
1743.8	0.00237
1755.38	0.00214
1766.95	0.00208
1778.53	0.00206
1790.1	0.00202
1801.67	0.00206
1813.25	0.00234
1824.82	0.00241
1836.39	0.00204
1847.97	0.00182
1859.54	0.00179
1871.12	0.0018
1882.69	0.00178
1894.26	0.00182
1905.84	0.00221
1917.41	0.00286
1928.99	0.00252
1940.56	0.00174
1952.13	0.00156
1963.71	0.00153
1975.28	0.00149
1986.85	0.00146
1998.43	0.00148
2010	0.00148
2021.58	0.00146
2033.15	0.00143
2044.72	0.00144
2056.3	0.00149
2067.87	0.00144
2079.44	0.00135
2091.02	0.00126
2102.59	0.00118
2114.17	0.00116
2125.74	0.00119
2137.31	0.00118
2148.89	0.00115
2160.46	0.00116
2172.04	0.00126
2183.61	0.00137
2195.18	0.0017
2206.76	0.00331
2218.33	0.00652
2229.9	0.00628
2241.48	0.00277
2253.05	0.0016
2264.63	0.00118
2276.2	0.00104
2287.77	0.00103
2299.35	0.00105
2310.92	0.00111
2322.5	0.00123
2334.07	0.00124
2345.64	0.0012
2357.22	0.00124
2368.79	0.00128
2380.36	0.0012
2391.94	0.00116
2403.51	0.00108
2415.09	0.00106
2426.66	0.00104
2438.23	0.0009668
2449.81	0.001
2461.38	0.0009844
2472.96	0.00104
2484.53	0.0011
2496.1	0.00111
2507.68	0.00109
2519.25	0.00104
2530.82	0.0009799
2542.4	0.00103
2553.97	0.00101
2565.55	0.0009727
2577.12	0.0009853
2588.69	0.00103
2600.27	0.00109
2611.84	0.0012
2623.41	0.00129
2634.99	0.00134
2646.56	0.00121
2658.14	0.00117
2669.71	0.00115
2681.28	0.00103
2692.86	0.0009771
2704.43	0.00105
2716.01	0.00111
2727.58	0.00123
2739.15	0.00138
2750.73	0.0014
2762.3	0.00129
2773.87	0.0012
2785.45	0.00115
2797.02	0.00114
2808.6	0.00112
2820.17	0.00116
2831.74	0.00122
2843.32	0.00126
2854.89	0.00129
2866.47	0.00118
2878.04	0.00113
2889.61	0.00113
2901.19	0.00113
2912.76	0.0012
2924.33	0.00124
2935.91	0.00124
2947.48	0.00119
2959.06	0.00115
2970.63	0.0011
2982.2	0.00115
2993.78	0.00128
3005.35	0.00158
3016.92	0.00207
3028.5	0.0027
3040.07	0.00324
3051.65	0.00312
3063.22	0.00486
3074.79	0.00617
3086.37	0.00366
3097.94	0.00189
3109.52	0.00143
3121.09	0.00122
3132.66	0.00123
3144.24	0.00125
3155.81	0.00133
3167.38	0.00153
3178.96	0.00148
3190.53	0.00142
3202.11	0.00145
3213.68	0.00157
3225.25	0.00152
3236.83	0.00141
3248.4	0.00128
3259.98	0.00122
3271.55	0.00117
3283.12	0.0011
3294.7	0.0011
3306.27	0.00109
3317.84	0.0011
3329.42	0.00109
3340.99	0.00112
3352.57	0.0012
3364.14	0.00144
3375.71	0.00185
3387.29	0.00292
3398.86	0.00581
3410.43	0.01163
3422.01	0.01513
3433.58	0.01056
3445.16	0.00428
3456.73	0.00237
3468.3	0.00252
3479.88	0.00315
3491.45	0.00444
3503.03	0.00653
3514.6	0.00888
3526.17	0.00907
3537.75	0.00611
3549.32	0.00308
3560.89	0.00179
3572.47	0.00149
3584.04	0.00127
3595.62	0.00122
3607.19	0.00114
3618.76	0.00117
3630.34	0.00111
3641.91	0.00119
3653.49	0.00116
3665.06	0.00121
3676.63	0.0012
3688.21	0.00127
3699.78	0.00117
3711.35	0.00107
3722.93	0.00107
3734.5	0.00103
3746.08	0.0009918
3757.65	0.00108
3769.22	0.00107
3780.8	0.00107
3792.37	0.00114
3803.94	0.00124
3815.52	0.00123
3827.09	0.00121
3838.67	0.00125
3850.24	0.00134
3861.81	0.00129
3873.39	0.00126
3884.96	0.00133
3896.54	0.00127
3908.11	0.0013
3919.68	0.00126
3931.26	0.00119
3942.83	0.00119
3954.4	0.0012
3965.98	0.00122
3977.55	0.00119
3989.13	0.00122
4000.7	0.00128
