Infrared Spectrum: 2,6-Dichlorophenylacetic acid
Formula: C 8 H 6 Cl 2 O 2
CAS: 6575-24-2
State: gas
Origin: EPA-IR VAPOR PHASE LIBRARY
1/CM	ABSORBANCE
549.9	0.002328
559.547	0.002178
569.193	0.002458
578.84	0.003428
588.486	0.004758
598.133	0.008688
607.779	0.011348
617.426	0.008428
627.072	0.006228
636.719	0.004838
646.365	0.004148
656.012	0.003908
665.658	0.003588
675.305	0.003188
684.951	0.002608
694.598	0.002258
704.245	0.001908
713.891	0.0018084
723.538	0.002048
733.184	0.002208
742.831	0.002328
752.477	0.003928
762.124	0.011188
771.77	0.019098
781.417	0.007558
791.063	0.002388
800.71	0.001878
810.356	0.001918
820.003	0.002028
829.649	0.002088
839.296	0.002688
848.943	0.002798
858.589	0.0018557
868.236	0.0015652
877.882	0.0016624
887.529	0.0014689
897.175	0.0014531
906.822	0.0016962
916.468	0.002318
926.115	0.005278
935.761	0.007118
945.408	0.003488
955.054	0.001988
964.701	0.001878
974.347	0.0016069
983.994	0.0014687
993.64	0.0014574
1003.29	0.0014589
1012.93	0.0016024
1022.58	0.0015864
1032.23	0.0015658
1041.87	0.0017108
1051.52	0.002078
1061.17	0.002768
1070.81	0.003918
1080.46	0.005898
1090.11	0.009048
1099.75	0.013638
1109.4	0.025078
1119.05	0.034758
1128.69	0.025998
1138.34	0.016138
1147.99	0.012178
1157.63	0.008738
1167.28	0.006468
1176.92	0.004978
1186.57	0.004248
1196.22	0.003828
1205.86	0.003778
1215.51	0.004088
1225.16	0.003708
1234.8	0.002888
1244.45	0.002738
1254.1	0.002768
1263.74	0.002938
1273.39	0.002798
1283.04	0.002798
1292.68	0.002718
1302.33	0.002508
1311.98	0.002368
1321.62	0.002488
1331.27	0.002848
1340.92	0.003498
1350.56	0.004968
1360.21	0.006638
1369.86	0.005388
1379.5	0.003728
1389.15	0.003218
1398.79	0.002738
1408.44	0.002938
1418.09	0.004308
1427.73	0.008888
1437.38	0.013998
1447.03	0.009568
1456.67	0.003728
1466.32	0.002378
1475.97	0.002048
1485.61	0.002038
1495.26	0.001851
1504.91	0.0014966
1514.55	0.0013474
1524.2	0.0012697
1533.85	0.0014003
1543.49	0.002038
1553.14	0.003708
1562.79	0.007268
1572.43	0.006278
1582.08	0.003208
1591.73	0.002088
1601.37	0.0015001
1611.02	0.0014723
1620.67	0.0014558
1630.31	0.0013583
1639.96	0.0013498
1649.6	0.0014574
1659.25	0.0016547
1668.9	0.0016031
1678.54	0.0015437
1688.19	0.0016302
1697.84	0.0017046
1707.48	0.001968
1717.13	0.002458
1726.78	0.003288
1736.42	0.004598
1746.07	0.005648
1755.72	0.006648
1765.36	0.010728
1775.01	0.028348
1784.66	0.040188
1794.3	0.018718
1803.95	0.007728
1813.6	0.005078
1823.24	0.003658
1832.89	0.003008
1842.54	0.002428
1852.18	0.002138
1861.83	0.0017441
1871.47	0.0013852
1881.12	0.0012968
1890.77	0.0012904
1900.41	0.0013776
1910.06	0.0013546
1919.71	0.0014852
1929.35	0.0015181
1939	0.0012721
1948.65	0.0011775
1958.29	0.001243
1967.94	0.001163
1977.59	0.0012082
1987.23	0.0011868
1996.88	0.0011854
2006.53	0.0011385
2016.17	0.0010886
2025.82	0.0010755
2035.47	0.001085
2045.11	0.0009893
2054.76	0.0010176
2064.41	0.00096743
2074.05	0.0010237
2083.7	0.0010279
2093.35	0.0010332
2102.99	0.0010692
2112.64	0.0010235
2122.28	0.0010354
2131.93	0.0010484
2141.58	0.0010355
2151.22	0.0009806
2160.87	0.001063
2170.52	0.0010329
2180.16	0.00096587
2189.81	0.0010349
2199.46	0.0010735
2209.1	0.0010503
2218.75	0.0011482
2228.4	0.0011071
2238.04	0.0011228
2247.69	0.0011031
2257.34	0.00105
2266.98	0.0009856
2276.63	0.0011129
2286.28	0.0010477
2295.92	0.0011305
2305.57	0.0011324
2315.22	0.0011035
2324.86	0.0010998
2334.51	0.001007
2344.16	0.0010234
2353.8	0.0010192
2363.45	0.0010035
2373.09	0.0011293
2382.74	0.0010631
2392.39	0.0010392
2402.03	0.0010163
2411.68	0.0010233
2421.33	0.000978
2430.97	0.00096586
2440.62	0.0010117
2450.27	0.000981
2459.91	0.0010395
2469.56	0.0009721
2479.21	0.0009862
2488.85	0.0010405
2498.5	0.00096091
2508.15	0.0009922
2517.79	0.00095024
2527.44	0.00096205
2537.09	0.00094171
2546.73	0.00091236
2556.38	0.00092339
2566.03	0.00086632
2575.67	0.00089618
2585.32	0.00093127
2594.96	0.00091318
2604.61	0.00095065
2614.26	0.0008126
2623.9	0.00091413
2633.55	0.00088048
2643.2	0.0010001
2652.84	0.00088555
2662.49	0.00093118
2672.14	0.00089966
2681.78	0.000844
2691.43	0.000748
2701.08	0.000752
2710.72	0.000738
2720.37	0.0007707
2730.02	0.000782
2739.66	0.0008337
2749.31	0.0007873
2758.96	0.000754
2768.6	0.000747
2778.25	0.000722
2787.9	0.000764
2797.54	0.000666
2807.19	0.0007762
2816.84	0.000721
2826.48	0.000521
2836.13	0.0008465
2845.77	0.000853
2855.42	0.000727
2865.07	0.000641
2874.71	0.000549
2884.36	0.000671
2894.01	0.000563
2903.65	0.00061
2913.3	0.000715
2922.95	0.000606
2932.59	0.000719
2942.24	0.000809
2951.89	0.0013133
2961.53	0.001376
2971.18	0.00088644
2980.83	0.000623
2990.47	0.0008083
3000.12	0.000506
3009.77	0.00058
3019.41	0.0007932
3029.06	0.000501
3038.71	0.000613
3048.35	0.000607
3058	0.0008327
3067.64	0.001289
3077.29	0.0012976
3086.94	0.0010975
3096.58	0.000487
3106.23	0.000439
3115.88	0.000411
3125.52	0.000494
3135.17	0.000419
3144.82	0.000494
3154.46	3.4e-05
3164.11	0.000212
3173.76	0.000381
3183.4	0.000183
3193.05	0.000293
3202.7	0.000362
3212.34	0.000395
3221.99	0.000244
3231.64	0.000303
3241.28	0.000514
3250.93	0.000315
3260.58	0.000112
3270.22	0.000269
3279.87	0.000385
3289.52	0.000286
3299.16	0.000211
3308.81	0.000313
3318.45	0.000265
3328.1	0.000303
3337.75	0.000371
3347.39	0.000307
3357.04	0.000228
3366.69	0.000201
3376.33	0.0002
3385.98	0.000542
3395.63	0.000623
3405.27	0.00027
3414.92	0.000731
3424.57	0.000169
3434.21	0.000256
3443.86	0.000619
3453.51	0.000537
3463.15	0.00047
3472.8	0.000499
3482.45	0.000592
3492.09	0.000395
3501.74	0.000455
3511.39	0.0008567
3521.03	0.000659
3530.68	0.000905
3540.33	0.00087913
3549.97	0.0011278
3559.62	0.002418
3569.26	0.010088
3578.91	0.014688
3588.56	0.005018
3598.2	0.0011445
3607.85	0.0011091
3617.5	0.00085944
3627.14	0.000559
3636.79	0.000615
3646.44	0.000696
3656.08	0.000549
3665.73	0.000475
3675.38	0.000491
3685.02	0.000492
3694.67	0.000574
3704.32	0.000694
3713.96	0.000489
3723.61	0.000526
3733.26	0.000474
3742.9	0.00044
3752.55	0.000418
3762.2	0.000664
3771.84	0.000633
3781.49	0.000636
3791.13	0.000531
3800.78	0.000399
3810.43	0.000596
3820.07	0.00046
3829.72	0.00062
3839.37	0.000505
3849.01	0.000528
3858.66	0.000433
3868.31	0.000628
3877.95	0.000641
3887.6	0.000671
3897.25	0.000665
3906.89	0.000532
3916.54	0.000717
3926.19	0.000581
3935.83	0.000664
3945.48	0.000699
3955.13	0.000543
3964.77	0.000613
3974.42	0.000655
3984.07	0.000641
3993.71	0.00059
