Infrared Spectrum: 2,6-Dichlorobenzenesulphonyl chloride
Formula: C 6 H 3 Cl 3 O 2 S
CAS: 6579-54-0
State: gas
Origin: EPA-IR VAPOR PHASE LIBRARY
1/CM	ABSORBANCE
549.8	0.008306
559.445	0.028796
569.09	0.064596
578.734	0.100126
588.379	0.118506
598.024	0.037196
607.669	0.011566
617.313	0.008866
626.958	0.004376
636.603	0.002376
646.248	0.002786
655.893	0.002346
665.537	0.002916
675.182	0.002226
684.827	0.002396
694.472	0.002836
704.116	0.002836
713.761	0.003796
723.406	0.007806
733.051	0.016686
742.695	0.013306
752.34	0.005736
761.985	0.005706
771.63	0.018576
781.275	0.064186
790.919	0.048626
800.564	0.010826
810.209	0.004056
819.854	0.002676
829.498	0.002666
839.143	0.002276
848.788	0.002116
858.433	0.0015311
868.078	0.001926
877.722	0.002046
887.367	0.002386
897.012	0.001956
906.657	0.0013371
916.301	0.001339
925.946	0.0011564
935.591	0.001416
945.236	0.0011645
954.88	0.0011239
964.525	0.001726
974.17	0.0016161
983.815	0.0011633
993.46	0.0009204
1003.1	0.0012625
1012.75	0.001107
1022.39	0.002146
1032.04	0.004786
1041.68	0.004146
1051.33	0.003096
1060.97	0.002066
1070.62	0.001696
1080.26	0.003596
1089.91	0.004146
1099.55	0.003646
1109.2	0.003646
1118.84	0.003226
1128.49	0.004636
1138.13	0.004406
1147.78	0.006596
1157.42	0.012336
1167.07	0.018086
1176.71	0.016716
1186.36	0.035206
1196	0.077716
1205.64	0.070086
1215.29	0.022276
1224.93	0.006866
1234.58	0.003786
1244.22	0.001976
1253.87	0.002476
1263.51	0.0012413
1273.16	0.00068749
1282.8	0.0011206
1292.45	0.0014627
1302.09	0.0015819
1311.74	0.002226
1321.38	0.003636
1331.03	0.004866
1340.67	0.005316
1350.32	0.004926
1359.96	0.006026
1369.61	0.007016
1379.25	0.010046
1388.9	0.012426
1398.54	0.018426
1408.18	0.033856
1417.83	0.037296
1427.47	0.106376
1437.12	0.093546
1446.76	0.015316
1456.41	0.006986
1466.05	0.005006
1475.7	0.003106
1485.34	0.003026
1494.99	0.003966
1504.63	0.005296
1514.28	0.004606
1523.92	0.002866
1533.57	0.003566
1543.21	0.007176
1552.86	0.022736
1562.5	0.044746
1572.15	0.018446
1581.79	0.007336
1591.44	0.003046
1601.08	0.002176
1610.73	0.002186
1620.37	0.001956
1630.01	0.0014261
1639.66	0.0012195
1649.3	0.0012131
1658.95	0.0014498
1668.59	0.001756
1678.24	0.001886
1687.88	0.0013071
1697.53	0.0010743
1707.17	0.000935
1716.82	0.0010328
1726.46	0.0008891
1736.11	0.0009639
1745.75	0.0010217
1755.4	0.0011431
1765.04	0.0012965
1774.69	0.0015461
1784.33	0.001736
1793.98	0.001412
1803.62	0.0009738
1813.27	0.0008273
1822.91	0.0009536
1832.55	0.000758
1842.2	0.0011125
1851.84	0.0013702
1861.49	0.001766
1871.13	0.0016243
1880.78	0.0011887
1890.42	0.0009899
1900.07	0.0008604
1909.71	0.0011677
1919.36	0.001247
1929	0.0013038
1938.65	0.001826
1948.29	0.001956
1957.94	0.0014917
1967.58	0.001058
1977.23	0.0008697
1986.87	0.0010111
1996.52	0.0009987
2006.16	0.0009679
2015.81	0.0008398
2025.45	0.00071278
2035.1	0.0007896
2044.74	0.0007995
2054.38	0.0008619
2064.03	0.0008828
2073.67	0.0009615
2083.32	0.0009466
2092.96	0.0007743
2102.61	0.00073189
2112.25	0.0010044
2121.9	0.0008304
2131.54	0.0009422
2141.19	0.0011124
2150.83	0.0008475
2160.48	0.0008496
2170.12	0.0008173
2179.77	0.0009245
2189.41	0.0009051
2199.06	0.0008312
2208.7	0.0009342
2218.35	0.0009164
2227.99	0.0008218
2237.64	0.0009818
2247.28	0.0009703
2256.92	0.00068102
2266.57	0.0009197
2276.21	0.00072404
2285.86	0.00067098
2295.5	0.0008753
2305.15	0.0009448
2314.79	0.0010665
2324.44	0.0010378
2334.08	0.001013
2343.73	0.0011186
2353.37	0.0011447
2363.02	0.0009554
2372.66	0.0009792
2382.31	0.0010504
2391.95	0.0010116
2401.6	0.0007843
2411.24	0.0010089
2420.89	0.0008563
2430.53	0.0010333
2440.18	0.0009217
2449.82	0.00072426
2459.47	0.00074283
2469.11	0.0009569
2478.75	0.0010668
2488.4	0.0011033
2498.04	0.0009189
2507.69	0.0009715
2517.33	0.000516
2526.98	0.0008976
2536.62	0.000882
2546.27	0.0007573
2555.91	0.0009588
2565.56	0.0008104
2575.2	0.0013004
2584.85	0.00146
2594.49	0.0013869
2604.14	0.001696
2613.78	0.0013366
2623.43	0.0013148
2633.07	0.0013118
2642.72	0.0013038
2652.36	0.00073163
2662.01	0.0010017
2671.65	0.0009024
2681.29	0.0007596
2690.94	0.0007605
2700.58	0.0007623
2710.23	0.00072558
2719.87	0.0007486
2729.52	0.0009143
2739.16	0.0008584
2748.81	0.0007531
2758.45	0.000384
2768.1	0.0009291
2777.74	0.0011998
2787.39	0.00067741
2797.03	0.001227
2806.68	0.0013069
2816.32	0.0009368
2825.97	0.0010244
2835.61	0.000816
2845.26	0.00069022
2854.9	0.00067306
2864.55	0.0011427
2874.19	0.0010461
2883.84	0.00071578
2893.48	0.000653825
2903.12	0.000493
2912.77	0.0007631
2922.41	0.0011038
2932.06	0.0009221
2941.7	0.0009725
2951.35	0.0010071
2960.99	0.0010696
2970.64	0.0007931
2980.28	0.0011233
2989.93	0.000756
2999.57	0.0009777
3009.22	0.0006039
3018.86	0.000251
3028.51	0.0006104
3038.15	0.0005658
3047.8	0.0012479
3057.44	0.0011466
3067.09	0.001826
3076.73	0.001996
3086.38	0.001552
3096.02	0.0007483
3105.67	0.0009265
3115.31	0.0013419
3124.95	0.0013948
3134.6	0.001408
3144.24	0.0008923
3153.89	0.000153
3163.53	0.0007577
3173.18	0.0008558
3182.82	0.00041
3192.47	0.00033
3202.11	0.0009709
3211.76	0.0011379
3221.4	0.000767
3231.05	0.0005867
3240.69	0.00067139
3250.34	0.000256
3259.98	0.0012148
3269.63	0.000496
3279.27	0.00068918
3288.92	0.0008388
3298.56	0.00074058
3308.21	0.0010869
3317.85	0.000655758
3327.49	0.000527
3337.14	0.0009216
3346.78	0.0005678
3356.43	0.0010633
3366.07	0.0008447
3375.72	0.000524
3385.36	0.00065755
3395.01	0.0011095
3404.65	0.0007921
3414.3	0.0005683
3423.94	0.0011315
3433.59	0.000625
3443.23	0.0010454
3452.88	0.00092
3462.52	0.0007466
3472.17	0.00074107
3481.81	0.0009165
3491.46	0.00070835
3501.1	0.0009152
3510.75	0.0011898
3520.39	0.00074076
3530.04	0.0008087
3539.68	0.0007982
3549.32	0.00068689
3558.97	0.0007526
3568.61	0.0009939
3578.26	0.0010208
3587.9	0
3597.55	0.00102
3607.19	0.00071203
3616.84	0.0007671
3626.48	0.0007989
3636.13	0.00070667
3645.77	0.000481
3655.42	0.0007881
3665.06	0.0009969
3674.71	0.000496
3684.35	0.0008115
3694	0.00074269
3703.64	0.0008919
3713.29	0.0011211
3722.93	0.0010301
3732.58	0.00065948
3742.22	0.000526
3751.86	0.0013182
3761.51	0.00070626
3771.15	0.0014372
3780.8	0.0005741
3790.44	0.0004
3800.09	0.0013689
3809.73	0.0012794
3819.38	0.0005928
3829.02	0.0011185
3838.67	0.000387
3848.31	0.0010542
3857.96	0.0010209
3867.6	0.0008179
3877.25	0.0008465
3886.89	0.0008158
3896.54	0.00071933
3906.18	0.0008319
3915.83	0.000506
3925.47	0.00063699
3935.12	0.0010317
3944.76	0.000457
3954.41	0.0007591
3964.05	0.0015968
3973.69	0.0007955
3983.34	0.0009415
3992.98	0.0010771
