Infrared Spectrum: 3-(Trifluoromethoxy)benzamide
Formula: C 8 H 6 F 3 N O 2
CAS: 658-91-3
State: gas
Origin: EPA-IR VAPOR PHASE LIBRARY
1/CM	ABSORBANCE
549.8	0.002885
559.445	0.003385
569.09	0.002745
578.734	0.003305
588.379	0.002095
598.024	0.002845
607.669	0.004605
617.313	0.005385
626.958	0.008305
636.603	0.007705
646.248	0.002845
655.893	0.003125
665.537	0.004005
675.182	0.002825
684.827	0.005025
694.472	0.007255
704.116	0.006655
713.761	0.005425
723.406	0.005565
733.051	0.006345
742.695	0.006965
752.34	0.007615
761.985	0.006375
771.63	0.004695
781.275	0.003925
790.919	0.004675
800.564	0.005745
810.209	0.004735
819.854	0.003445
829.498	0.004285
839.143	0.004585
848.788	0.005185
858.433	0.005065
868.078	0.003825
877.722	0.003015
887.367	0.004035
897.012	0.003965
906.657	0.003865
916.301	0.003465
925.946	0.002915
935.591	0.003405
945.236	0.003165
954.88	0.002985
964.525	0.002545
974.17	0.002355
983.815	0.002215
993.46	0.0014245
1003.1	0.002825
1012.75	0.0011704
1022.39	0.0017513
1032.04	0.002915
1041.68	0.002705
1051.33	0.003175
1060.97	0.003215
1070.62	0.004745
1080.26	0.003585
1089.91	0.0013009
1099.55	0.003375
1109.2	0.003635
1118.84	0.004045
1128.49	0.004515
1138.13	0.004425
1147.78	0.006635
1157.42	0.011335
1167.07	0.020535
1176.71	0.038365
1186.36	0.058905
1196	0.060125
1205.64	0.062815
1215.29	0.087705
1224.93	0.095565
1234.58	0.065865
1244.22	0.055105
1253.87	0.088755
1263.51	0.140195
1273.16	0.126395
1282.8	0.059455
1292.45	0.030775
1302.09	0.019745
1311.74	0.014725
1321.38	0.014375
1331.03	0.018695
1340.67	0.031115
1350.32	0.032875
1359.96	0.016875
1369.61	0.007525
1379.25	0.004905
1388.9	0.003415
1398.54	0.002795
1408.18	0.002685
1417.83	0.003445
1427.47	0.005545
1437.12	0.008975
1446.76	0.008895
1456.41	0.004205
1466.05	0.002995
1475.7	0.003945
1485.34	0.006185
1494.99	0.004935
1504.63	0.002495
1514.28	0.002355
1523.92	0.002385
1533.57	0.002665
1543.21	0.003195
1552.86	0.004325
1562.5	0.006775
1572.15	0.012485
1581.79	0.026935
1591.44	0.028175
1601.08	0.014525
1610.73	0.007835
1620.37	0.005405
1630.01	0.003715
1639.66	0.003205
1649.3	0.002975
1658.95	0.003415
1668.59	0.003865
1678.24	0.005045
1687.88	0.008195
1697.53	0.010985
1707.17	0.015335
1716.82	0.038425
1726.46	0.056565
1736.11	0.021865
1745.75	0.010555
1755.4	0.009835
1765.04	0.006325
1774.69	0.003445
1784.33	0.002325
1793.98	0.002025
1803.62	0.001935
1813.27	0.001815
1822.91	0.0016306
1832.55	0.001643
1842.2	0.0014113
1851.84	0.0013709
1861.49	0.0013439
1871.13	0.001397
1880.78	0.0011453
1890.42	0.0015013
1900.07	0.0013763
1909.71	0.0011575
1919.36	0.0010743
1929	0.0012971
1938.65	0.0012937
1948.29	0.0014617
1957.94	0.0012072
1967.58	0.0013436
1977.23	0.0011105
1986.87	0.0010421
1996.52	0.0007941
2006.16	0.0012279
2015.81	0.0010401
2025.45	0.00124
2035.1	0.0012725
2044.74	0.0013446
2054.38	0.0014955
2064.03	0.0015597
2073.67	0.0014965
2083.32	0.0012061
2092.96	0.0011517
2102.61	0.0013524
2112.25	0.0013066
2121.9	0.0015107
2131.54	0.0013782
2141.19	0.001032
2150.83	0.0010112
2160.48	0.001086
2170.12	0.0013141
2179.77	0.0013024
2189.41	0.0009752
2199.06	0.0009887
2208.7	0.0007398
2218.35	0.0010061
2227.99	0.00085683
2237.64	0.0009842
2247.28	0.000677
2256.92	0.00068
2266.57	0.000582
2276.21	0.000663
2285.86	0.000713
2295.5	0.00081055
2305.15	0.000562
2314.79	0.000514
2324.44	0.00081381
2334.08	0.000756
2343.73	0.00082093
2353.37	0.0007916
2363.02	0.0009953
2372.66	0.0011603
2382.31	0.0007744
2391.95	0.0011933
2401.6	0.0012078
2411.24	0.0011957
2420.89	0.0014455
2430.53	0.0016112
2440.18	0.0014175
2449.82	0.0013362
2459.47	0.0013343
2469.11	0.0013626
2478.75	0.0011701
2488.4	0.0011321
2498.04	0.0011073
2507.69	0.0009513
2517.33	0.0009495
2526.98	0.001078
2536.62	0.0007639
2546.27	0.0007235
2555.91	0.0007693
2565.56	0.000705
2575.2	0.00090094
2584.85	0.00087741
2594.49	0.0007655
2604.14	0.0007777
2613.78	0.000669
2623.43	0.000711
2633.07	0.00047
2642.72	0.000657
2652.36	0.0011276
2662.01	0.000626
2671.65	0.000602
2681.29	0.00085625
2690.94	0.0007856
2700.58	0.0007363
2710.23	0.0008014
2719.87	0.000529
2729.52	0.0009757
2739.16	0.000591
2748.81	0.000504
2758.45	0.000966
2768.1	0.000667
2777.74	0.000568
2787.39	0.00086031
2797.03	0.000669
2806.68	0.0007819
2816.32	0.0007895
2825.97	0.0007664
2835.61	0.000598
2845.26	0.000706
2854.9	0.0007381
2864.55	0.000382
2874.19	0.000431
2883.84	0.000679
2893.48	0.00048
2903.12	0.000313
2912.77	0.00061
2922.41	0.000486
2932.06	0.0007319
2941.7	0.0011576
2951.35	0.0010681
2960.99	0.000499
2970.64	0.00046
2980.28	0.000661
2989.93	0.0011004
2999.57	0.0008025
3009.22	0.00087636
3018.86	0.000635
3028.51	0.001195
3038.15	0.0012277
3047.8	0.0011388
3057.44	0.0010014
3067.09	0.0015014
3076.73	0.002635
3086.38	0.002495
3096.02	0.001865
3105.67	0.0015813
3115.31	0.0011292
3124.95	0.0009386
3134.6	0.0009178
3144.24	0.0010718
3153.89	0.00085364
3163.53	0.000571
3173.18	0.0007869
3182.82	0.000445
3192.47	0.000694
3202.11	0.001043
3211.76	0.000409
3221.4	0.0009196
3231.05	0.000661
3240.69	0.0011015
3250.34	0.00062
3259.98	0.0010473
3269.63	0.00084674
3279.27	0.0007303
3288.92	0.0010769
3298.56	0.00052
3308.21	0.0007815
3317.85	0.0011348
3327.49	0.000559
3337.14	0.0009507
3346.78	0
3356.43	0.0007843
3366.07	0.000534
3375.72	0.000627
3385.36	0.0011058
3395.01	0.0015933
3404.65	0.0016704
3414.3	0.003605
3423.94	0.005105
3433.59	0.006985
3443.23	0.004875
3452.88	0.002935
3462.52	0.001925
3472.17	0.0010079
3481.81	0.001722
3491.46	0.0012714
3501.1	0.001855
3510.75	0.0012298
3520.39	0.002785
3530.04	0.003485
3539.68	0.003685
3549.32	0.005065
3558.97	0.003875
3568.61	0.001865
3578.26	0.0010329
3587.9	0.000683
3597.55	0.0007559
3607.19	0.0007199
3616.84	0.000656
3626.48	0.0009939
3636.13	0.000497
3645.77	0.0010431
3655.42	0.0009295
3665.06	0.0011318
3674.71	0.000501
3684.35	0.000648
3694	0.000493
3703.64	0.000503
3713.29	0.000823947
3722.93	0.0007289
3732.58	0.00081115
3742.22	0.00083074
3751.86	0.0009445
3761.51	0.00086643
3771.15	0.000595
3780.8	0.0011815
3790.44	0.000432
3800.09	0.000102
3809.73	0.000364
3819.38	0.00051
3829.02	0.00083334
3838.67	0.000213
3848.31	0.0007896
3857.96	0.000706
3867.6	0.000399
3877.25	0.0011758
3886.89	0.001126
3896.54	0.000486
3906.18	0.000668
3915.83	0.000528
3925.47	0.0011056
3935.12	0.000506
3944.76	0.000353
3954.41	0.0011918
3964.05	0.00084538
3973.69	0.000617
3983.34	0.0007833
3992.98	0.000748
