Infrared Spectrum: 3,4-Difluorophenylacetic acid
Formula: C 8 H 6 F 2 O 2
CAS: 658-93-5
State: gas
Origin: EPA-IR VAPOR PHASE LIBRARY
1/CM	ABSORBANCE
549.8	0.0122
559.445	0.01905
569.09	0.02386
578.734	0.02092
588.379	0.0127
598.024	0.0106
607.669	0.01331
617.313	0.01676
626.958	0.01782
636.603	0.01627
646.248	0.01321
655.893	0.0102
665.537	0.00719
675.182	0.0071
684.827	0.00716
694.472	0.00712
704.116	0.00532
713.761	0.00305
723.406	0.00284
733.051	0.00278
742.695	0.00281
752.34	0.00556
761.985	0.01019
771.63	0.01064
781.275	0.0111
790.919	0.01476
800.564	0.0123
810.209	0.01163
819.854	0.00835
829.498	0.00517
839.143	0.00353
848.788	0.00401
858.433	0.00426
868.078	0.0041
877.722	0.00496
887.367	0.00475
897.012	0.00493
906.657	0.00439
916.301	0.00375
925.946	0.00479
935.591	0.00515
945.236	0.005
954.88	0.00625
964.525	0.00663
974.17	0.00384
983.815	0.00245
993.46	0.00199
1003.1	0.00176
1012.75	0.0015915
1022.39	0.00196
1032.04	0.00228
1041.68	0.00222
1051.33	0.00379
1060.97	0.00582
1070.62	0.00731
1080.26	0.0117
1089.91	0.02096
1099.55	0.03826
1109.2	0.06513
1118.84	0.07053
1128.49	0.04982
1138.13	0.0341
1147.78	0.02064
1157.42	0.01484
1167.07	0.01162
1176.71	0.0112
1186.36	0.0105
1196	0.01327
1205.64	0.01844
1215.29	0.02497
1224.93	0.02181
1234.58	0.01297
1244.22	0.0088
1253.87	0.00873
1263.51	0.01216
1273.16	0.02852
1282.8	0.04924
1292.45	0.04476
1302.09	0.03013
1311.74	0.01664
1321.38	0.00968
1331.03	0.00834
1340.67	0.00955
1350.32	0.01157
1359.96	0.01191
1369.61	0.01037
1379.25	0.00773
1388.9	0.00569
1398.54	0.0049
1408.18	0.00525
1417.83	0.00775
1427.47	0.01439
1437.12	0.01862
1446.76	0.01322
1456.41	0.00658
1466.05	0.0044
1475.7	0.00409
1485.34	0.00525
1494.99	0.00938
1504.63	0.02421
1514.28	0.06071
1523.92	0.0834
1533.57	0.04019
1543.21	0.0114
1552.86	0.00632
1562.5	0.00582
1572.15	0.0062
1581.79	0.00593
1591.44	0.00746
1601.08	0.01318
1610.73	0.01619
1620.37	0.01006
1630.01	0.00486
1639.66	0.00259
1649.3	0.00171
1658.95	0.001569
1668.59	0.00173
1678.24	0.0017
1687.88	0.00224
1697.53	0.00262
1707.17	0.00351
1716.82	0.00465
1726.46	0.00676
1736.11	0.01079
1745.75	0.01819
1755.4	0.02942
1765.04	0.04305
1774.69	0.0594
1784.33	0.06461
1793.98	0.05122
1803.62	0.0334
1813.27	0.01773
1822.91	0.0087
1832.55	0.00457
1842.2	0.00311
1851.84	0.00253
1861.49	0.00238
1871.13	0.00231
1880.78	0.00196
1890.42	0.00176
1900.07	0.001491
1909.71	0.0015823
1919.36	0.0012504
1929	0.0012138
1938.65	0.0012175
1948.29	0.0009995
1957.94	0.0012617
1967.58	0.0012201
1977.23	0.0010712
1986.87	0.0011284
1996.52	0.0010423
2006.16	0.0010855
2015.81	0.0011467
2025.45	0.0010301
2035.1	0.0010838
2044.74	0.0011399
2054.38	0.0013738
2064.03	0.0012426
2073.67	0.0013402
2083.32	0.0011281
2092.96	0.0011206
2102.61	0.0010178
2112.25	0.0010448
2121.9	0.0010566
2131.54	0.0009992
2141.19	0.0010222
2150.83	0.000833
2160.48	0.0008561
2170.12	0.0008928
2179.77	0.0010495
2189.41	0.0009636
2199.06	0.0008826
2208.7	0.0009108
2218.35	0.0010616
2227.99	0.001032
2237.64	0.0007651
2247.28	0.0011401
2256.92	0.0011176
2266.57	0.0011074
2276.21	0.0009827
2285.86	0.001268
2295.5	0.0011919
2305.15	0.001007
2314.79	0.0008244
2324.44	0.0010147
2334.08	0.0010965
2343.73	0.0011958
2353.37	0.001052
2363.02	0.0010953
2372.66	0.0012251
2382.31	0.000845
2391.95	0.0010718
2401.6	0.0010083
2411.24	0.0010147
2420.89	0.0013205
2430.53	0.0011789
2440.18	0.0008766
2449.82	0.0010933
2459.47	0.0011703
2469.11	0.0009918
2478.75	0.0010467
2488.4	0.0009336
2498.04	0.0012095
2507.69	0.0008079
2517.33	0.0008641
2526.98	0.001083
2536.62	0.0011195
2546.27	0.0012605
2555.91	0.001026
2565.56	0.0011937
2575.2	0.0012905
2584.85	0.0010941
2594.49	0.0011598
2604.14	0.0007678
2613.78	0.0007075
2623.43	0.0008337
2633.07	0.0008845
2642.72	0.0010949
2652.36	0.0008931
2662.01	0.0009909
2671.65	0.0009455
2681.29	0.0007508
2690.94	0.0008136
2700.58	0.0009139
2710.23	0.0008409
2719.87	0.000869
2729.52	0.0011509
2739.16	0.0005284
2748.81	0.0012826
2758.45	0.0007174
2768.1	0.0008129
2777.74	0.00068867
2787.39	0.0011112
2797.03	0.0008502
2806.68	0.0008644
2816.32	0.000464
2825.97	0.000892
2835.61	0.00045
2845.26	0.0009475
2854.9	0.0007838
2864.55	0.0008332
2874.19	0.0010621
2883.84	0.0007525
2893.48	0.0012913
2903.12	0.0013018
2912.77	0.0014405
2922.41	0.00185
2932.06	0.00263
2941.7	0.00234
2951.35	0.00202
2960.99	0.00204
2970.64	0.0014439
2980.28	0.0014613
2989.93	0.00185
2999.57	0.0014683
3009.22	0.0011017
3018.86	0.0011978
3028.51	0.0014658
3038.15	0.00168
3047.8	0.00232
3057.44	0.00247
3067.09	0.00262
3076.73	0.0022
3086.38	0.0010911
3096.02	0.0009728
3105.67	0.0009573
3115.31	0.0010276
3124.95	0.00066056
3134.6	0.00067428
3144.24	0.00064956
3153.89	0.0007358
3163.53	0.0005499
3173.18	0.0007879
3182.82	0.0009764
3192.47	0.00068457
3202.11	0.0010873
3211.76	0.0004
3221.4	0.0008003
3231.05	0.0010296
3240.69	0.0008045
3250.34	0.0009314
3259.98	0.0008019
3269.63	0.000453
3279.27	0.0007244
3288.92	0.0008424
3298.56	0.000419
3308.21	0.0009507
3317.85	0.0007136
3327.49	0.000231
3337.14	0.0014816
3346.78	0.0005816
3356.43	0.0005894
3366.07	0.0008477
3375.72	0.000858
3385.36	0.0007214
3395.01	0.0008936
3404.65	0.0008534
3414.3	0.0008958
3423.94	0.00061964
3433.59	0.0007819
3443.23	0.000493
3452.88	0.00067638
3462.52	0.000468
3472.17	0.000417
3481.81	0.0013577
3491.46	0.0009071
3501.1	0.000422
3510.75	0.0011855
3520.39	0.0011693
3530.04	0.00167
3539.68	0.00299
3549.32	0.00492
3558.97	0.00937
3568.61	0.0286
3578.26	0.02874
3587.9	0.00917
3597.55	0.00435
3607.19	0.00291
3616.84	0.0013719
3626.48	0.0008328
3636.13	0.000827
3645.77	0.0010362
3655.42	0.0014883
3665.06	0.00059381
3674.71	0.000444
3684.35	0.0005653
3694	0.0008845
3703.64	0.0010172
3713.29	0.00035
3722.93	0.0008617
3732.58	0.000245
3742.22	0.00061826
3751.86	0.0013135
3761.51	0.00062923
3771.15	0.000409
3780.8	0.0009007
3790.44	0.00066537
3800.09	0.000514
3809.73	0.000421
3819.38	0.0008208
3829.02	0.0007711
3838.67	0.0009574
3848.31	0.0007738
3857.96	0.0009033
3867.6	0.0011829
3877.25	0.00066762
3886.89	0.0007846
3896.54	0.0012123
3906.18	0.001386
3915.83	0.0007151
3925.47	0.0014982
3935.12	0.0007709
3944.76	0.00061036
3954.41	0.0008162
3964.05	0.0008113
3973.69	0.0009427
3983.34	0.0010048
3992.98	0.000921
