Infrared Spectrum: Formamide, N-(7-nitrofluoren-2-yl)-
Formula: C14 H10 N2 O3
CAS: 6583-71-7
State: SOLID (SPLIT MULL), FLUOROLUBE FOR 3800-1330 CM^-^1, NUJOL FOR 1330-400 CM^-^1
Melting point: 223 C
Class: COBLENTZ III
Instrument: DOW KBr FOREPRISM-GRATING
Instrument parameters: BLAZED AT 3.5, 12.0, 20.0 MICRON AND CHANGED AT 5.0, 7.5, 14.9 MICRON
Sampling: TRANSMISSION
Resolution: 2
Origin: DOW CHEMICAL COMPANY
1/CM	TRANSMITTANCE
383	0.7224
392	0.7265
401	0.7301
410	0.7311
419	0.7311
428	0.7285
437	0.7356
446	0.7895
455	0.7975
464	0.8003
473	0.8025
482	0.8033
491	0.8018
500	0.8056
509	0.8068
518	0.8118
527	0.8075
536	0.7755
545	0.8089
554	0.8094
563	0.8049
572	0.7996
581	0.8135
590	0.7442
599	0.8375
608	0.8438
617	0.8504
626	0.8566
635	0.8621
644	0.8662
653	0.8524
662	0.8447
671	0.8421
680	0.8433
689	0.8292
698	0.8416
707	0.8183
716	0.7756
725	0.7703
734	0.7839
743	0.7978
752	0.8019
761	0.5983
770	0.7957
779	0.7874
788	0.6544
797	0.7756
806	0.778
815	0.7424
824	0.7403
833	0.5487
842	0.5877
851	0.4957
860	0.671
869	0.7501
878	0.765
887	0.7653
896	0.7651
905	0.6993
914	0.769
923	0.7705
932	0.7425
941	0.7197
950	0.7553
959	0.7468
968	0.7561
977	0.7664
986	0.7634
995	0.7592
1004	0.758
1013	0.756
1022	0.7494
1031	0.7057
1040	0.7444
1049	0.7465
1058	0.7354
1067	0.6818
1076	0.6695
1085	0.7561
1094	0.7543
1103	0.746
1112	0.731
1121	0.6789
1130	0.7322
1139	0.7154
1148	0.7303
1157	0.7287
1166	0.7028
1175	0.5829
1184	0.686
1193	0.6962
1202	0.704
1211	0.6717
1220	0.6825
1229	0.6658
1238	0.5845
1247	0.66
1256	0.6451
1265	0.6036
1274	0.5475
1283	0.4908
1292	0.4376
1301	0.1499
1310	0.3298
1319	0.3154
1328	0.2098
1337	0.0952
1346	0.5429
1355	0.7086
1364	0.8169
1373	0.8022
1382	0.5901
1391	0.6532
1400	0.7962
1409	0.7814
1418	0.7528
1427	0.7665
1436	0.6807
1445	0.6383
1454	0.5447
1463	0.6949
1472	0.6917
1481	0.588
1490	0.5542
1499	0.6319
1508	0.3442
1517	0.3558
1526	0.7455
1535	0.7478
1544	0.7336
1553	0.7003
1562	0.6238
1571	0.6041
1580	0.533
1589	0.4991
1598	0.5309
1607	0.2877
1616	0.5885
1625	0.73
1634	0.7092
1643	0.6558
1652	0.588
1661	0.4744
1670	0.1835
1679	0.0495
1688	0.3727
1697	0.6658
1706	0.7392
1715	0.7785
1724	0.8323
1733	0.8382
1742	0.843
1751	0.8513
1760	0.8442
1769	0.8348
1778	0.8262
1787	0.8228
1796	0.8196
1805	0.8138
1814	0.8091
1823	0.8058
1832	0.8021
1841	0.8003
1850	0.7971
1859	0.7941
1868	0.7906
1877	0.7883
1886	0.7865
1895	0.784
1904	0.7801
1913	0.7762
1922	0.7801
1931	0.7783
1940	0.7801
1949	0.7821
1958	0.783
1967	0.7731
1976	0.7704
1985	0.7689
1994	0.7685
2003	0.7653
2012	0.7618
2021	0.758
2030	0.7549
2039	0.7522
2048	0.75
2057	0.748
2066	0.7461
2075	0.7437
2084	0.7408
2093	0.738
2102	0.7354
2111	0.7328
2120	0.7301
2129	0.7275
2138	0.725
2147	0.7224
2156	0.7199
2165	0.7158
2174	0.7118
2183	0.7089
2192	0.7058
2201	0.7026
2210	0.698
2219	0.6925
2228	0.6868
2237	0.681
2246	0.6761
2255	0.6751
2264	0.6749
2273	0.6719
2282	0.6678
2291	0.6632
2300	0.6598
2309	0.6565
2318	0.6537
2327	0.651
2336	0.6503
2345	0.6533
2354	0.654
2363	0.6515
2372	0.6485
2381	0.6461
2390	0.6439
2399	0.6431
2408	0.6424
2417	0.6418
2426	0.6414
2435	0.6398
2444	0.638
2453	0.6356
2462	0.6329
2471	0.63
2480	0.627
2489	0.624
2498	0.621
2507	0.62
2516	0.6202
2525	0.6196
2534	0.6181
2543	0.6154
2552	0.6126
2561	0.6095
2570	0.6065
2579	0.6034
2588	0.6003
2597	0.5971
2606	0.594
2615	0.591
2624	0.5885
2633	0.5858
2642	0.5831
2651	0.5804
2660	0.5778
2669	0.5745
2678	0.5712
2687	0.5679
2696	0.5646
2705	0.5612
2714	0.558
2723	0.5547
2732	0.5514
2741	0.548
2750	0.5443
2759	0.5407
2768	0.5367
2777	0.5323
2786	0.5262
2795	0.519
2804	0.5118
2813	0.5045
2822	0.4969
2831	0.489
2840	0.4797
2849	0.4718
2858	0.4615
2867	0.4445
2876	0.4547
2885	0.467
2894	0.4566
2903	0.4462
2912	0.44
2921	0.4352
2930	0.4418
2939	0.4403
2948	0.4356
2957	0.4328
2966	0.4231
2975	0.4369
2984	0.4647
2993	0.4592
3002	0.4462
3011	0.432
3020	0.416
3029	0.3986
3038	0.3859
3047	0.3854
3056	0.3716
3065	0.373
3074	0.3958
3083	0.421
3092	0.4075
3101	0.4245
3110	0.4565
3119	0.4673
3128	0.4791
3137	0.4838
3146	0.4804
3155	0.4706
3164	0.4605
3173	0.4567
3182	0.458
3191	0.4707
3200	0.4976
3209	0.5135
3218	0.526
3227	0.5322
3236	0.5337
3245	0.5342
3254	0.5346
3263	0.5337
3272	0.5307
3281	0.5278
3290	0.5266
3299	0.5265
3308	0.5232
3317	0.5183
3326	0.5143
3335	0.516
3344	0.5172
3353	0.5156
3362	0.5139
3371	0.512
3380	0.5098
3389	0.5075
3398	0.5052
3407	0.5028
3416	0.5005
3425	0.4984
3434	0.4965
3443	0.4945
3452	0.4926
3461	0.4906
3470	0.4886
3479	0.4865
3488	0.4845
3497	0.4825
3506	0.4806
3515	0.4789
3524	0.4773
3533	0.4756
3542	0.4739
3551	0.4722
3560	0.4704
3569	0.4686
3578	0.4669
3587	0.4681
3596	0.4682
3605	0.4662
3614	0.464
3623	0.4616
3632	0.459
3641	0.4566
3650	0.4545
3659	0.4527
3668	0.4512
3677	0.4499
3686	0.4488
3695	0.4477
3704	0.4466
3713	0.4454
3722	0.4443
3731	0.4431
3740	0.4419
3749	0.4407
3758	0.4396
3767	0.4383
3776	0.4371
