Infrared Spectrum: MALEIMIDE, N-p-IODOPHENYL-
Formula: C10 H6 I N O2
CAS: 65833-01-4
State: SOLID (SPLIT MULL)
Class: COBLENTZ III
Instrument: DOW KBr FOREPRISM-GRATING
Instrument parameters: BLAZED AT 3.5, 12.0, 20.0 MICRON AND CHANGED AT 5.0, 7.5, 14.9 MICRON
Sampling: TRANSMISSION
Resolution: 2
Origin: DOW CHEMICAL COMPANY
1/CM	TRANSMITTANCE
451	0.9092
460	0.9166
469	0.9182
478	0.9162
487	0.8944
496	0.9073
505	0.8058
514	0.9308
523	0.9404
532	0.9443
541	0.9474
550	0.9505
559	0.9513
568	0.9518
577	0.9535
586	0.8065
595	0.956
604	0.9618
613	0.9591
622	0.9581
631	0.9554
640	0.9327
649	0.9434
658	0.9527
667	0.9355
676	0.8932
685	0.5167
694	0.9081
703	0.892
712	0.4596
721	0.7995
730	0.7418
739	0.8983
748	0.9118
757	0.9178
766	0.9177
775	0.9168
784	0.9181
793	0.9098
802	0.9013
811	0.8488
820	0.7847
829	0.5226
838	0.731
847	0.9108
856	0.9155
865	0.9221
874	0.9178
883	0.9104
892	0.9065
901	0.9047
910	0.9015
919	0.8987
928	0.892
937	0.8488
946	0.6596
955	0.9068
964	0.8997
973	0.8958
982	0.9024
991	0.8873
1000	0.8571
1009	0.6782
1018	0.9046
1027	0.8752
1036	0.8641
1045	0.8794
1054	0.6584
1063	0.8085
1072	0.8873
1081	0.8865
1090	0.8675
1099	0.8543
1108	0.8742
1117	0.8528
1126	0.8516
1135	0.8019
1144	0.6896
1153	0.2988
1162	0.8421
1171	0.8242
1180	0.887
1189	0.8925
1198	0.8782
1207	0.8656
1216	0.8525
1225	0.878
1234	0.8812
1243	0.8678
1252	0.8506
1261	0.8314
1270	0.7737
1279	0.8292
1288	0.8076
1297	0.7428
1306	0.7906
1315	0.8022
1324	0.8015
1333	0.7578
1342	0.5921
1351	0.6236
1360	0.661
1369	0.6146
1378	0.592
1387	0.4622
1396	0.4098
1405	0.456
1414	0.5231
1423	0.7811
1432	0.8675
1441	0.7939
1450	0.7512
1459	0.8024
1468	0.7592
1477	0.6078
1486	0.2817
1495	0.8543
1504	0.9024
1513	0.909
1522	0.8978
1531	0.8817
1540	0.864
1549	0.8586
1558	0.8494
1567	0.8344
1576	0.8202
1585	0.7788
1594	0.8294
1603	0.8162
1612	0.7975
1621	0.774
1630	0.7461
1639	0.7351
1648	0.72
1657	0.688
1666	0.6399
1675	0.554
1684	0.4976
1693	0.3908
1702	0.1413
1711	0.1817
1720	0.2367
1729	0.7394
1738	0.9243
1747	0.9724
1756	0.9523
1765	0.8733
1774	0.9408
1783	0.9537
1792	0.9236
1801	0.9535
1810	0.9578
1819	0.9494
1828	0.941
1837	0.9325
1846	0.9242
1855	0.9157
1864	0.9073
1873	0.8993
1882	0.8857
1891	0.8868
1900	0.8828
1909	0.8823
1918	0.8851
1927	0.889
1936	0.8889
1945	0.8873
1954	0.8837
1963	0.8786
1972	0.8721
1981	0.8667
1990	0.8665
1999	0.8675
2008	0.8696
2017	0.8702
2026	0.8694
2035	0.8659
2044	0.8617
2053	0.8571
2062	0.8527
2071	0.8483
2080	0.8444
2089	0.8405
2098	0.8366
2107	0.8325
2116	0.8284
2125	0.8243
2134	0.8208
2143	0.8186
2152	0.8168
2161	0.8126
2170	0.8067
2179	0.8001
2188	0.7948
2197	0.7938
2206	0.7921
2215	0.7868
2224	0.7789
2233	0.7708
2242	0.7647
2251	0.759
2260	0.7538
2269	0.7488
2278	0.7446
2287	0.741
2296	0.7382
2305	0.7353
2314	0.7321
2323	0.7291
2332	0.7278
2341	0.7296
2350	0.7336
2359	0.7372
2368	0.7384
2377	0.7386
2386	0.7388
2395	0.7389
2404	0.7393
2413	0.7395
2422	0.7396
2431	0.7396
2440	0.7392
2449	0.7388
2458	0.7381
2467	0.7372
2476	0.7365
2485	0.7358
2494	0.7351
2503	0.7343
2512	0.7335
2521	0.7321
2530	0.7307
2539	0.7291
2548	0.728
2557	0.7271
2566	0.7267
2575	0.7257
2584	0.7247
2593	0.7236
2602	0.7225
2611	0.7211
2620	0.7196
2629	0.718
2638	0.7164
2647	0.7148
2656	0.7133
2665	0.7117
2674	0.7101
2683	0.7086
2692	0.7071
2701	0.7055
2710	0.7039
2719	0.7021
2728	0.7001
2737	0.698
2746	0.6958
2755	0.6938
2764	0.6915
2773	0.6893
2782	0.6871
2791	0.6849
2800	0.6824
2809	0.6799
2818	0.6775
2827	0.675
2836	0.6722
2845	0.6696
2854	0.6668
2863	0.6642
2872	0.6619
2881	0.6597
2890	0.6575
2899	0.655
2908	0.6524
2917	0.6499
2926	0.6511
2935	0.6517
2944	0.6511
2953	0.6498
2962	0.648
2971	0.6461
2980	0.6445
2989	0.6426
2998	0.6408
3007	0.6391
3016	0.637
3025	0.6346
3034	0.6323
3043	0.6298
3052	0.6271
3061	0.6231
3070	0.6166
3079	0.6065
3088	0.5919
3097	0.5835
3106	0.6335
3115	0.6303
3124	0.628
3133	0.626
3142	0.624
3151	0.622
3160	0.62
3169	0.6183
3178	0.6172
3187	0.6159
3196	0.6143
3205	0.6126
3214	0.611
3223	0.6093
3232	0.6078
3241	0.6064
3250	0.605
3259	0.6036
3268	0.6022
3277	0.6007
3286	0.5991
3295	0.5974
3304	0.5958
3313	0.5941
3322	0.5921
3331	0.5901
3340	0.5881
3349	0.586
3358	0.5841
3367	0.5826
3376	0.581
3385	0.5795
3394	0.5779
3403	0.5759
3412	0.5737
3421	0.5714
3430	0.5684
3439	0.5651
3448	0.5612
3457	0.5543
3466	0.5669
3475	0.5769
3484	0.5772
3493	0.5764
3502	0.5754
3511	0.5735
3520	0.5716
3529	0.5698
3538	0.5681
3547	0.5666
3556	0.5652
3565	0.5636
3574	0.5622
3583	0.5606
3592	0.5587
3601	0.5566
3610	0.5544
3619	0.5519
3628	0.551
3637	0.5509
3646	0.55
3655	0.549
3664	0.548
3673	0.5465
3682	0.5396
3691	0.5428
3700	0.5414
3709	0.5391
3718	0.5374
3727	0.5366
3736	0.5359
3745	0.5355
3754	0.535
3763	0.5342
3772	0.5337
3781	0.533
3790	0.5322
3799	0.5315
