Infrared Spectrum: 4-Nitro-2,1,3-benzothiadiazole
Formula: C6 H3 N3 O2 S
CAS: 6583-06-8
State: SOLID (SPLIT MULL)
Melting point: 106 C
Class: COBLENTZ III
Instrument: DOW KBr FOREPRISM-GRATING
Instrument parameters: BLAZED AT 3.5, 12.0, 20.0 MICRON AND CHANGED AT 5.0, 7.5, 14.9 MICRON
Sampling: TRANSMISSION
Resolution: 2
Origin: DOW CHEMICAL COMPANY
1/CM	TRANSMITTANCE
380	1.1128
389	1.1043
398	1.0934
407	1.0797
416	1.0608
425	1.0354
434	0.9994
443	0.933
452	0.701
461	0.8289
470	0.9659
479	1.0363
488	1.0308
497	1.0157
506	1.0001
515	0.9825
524	0.9603
533	0.9254
542	0.8684
551	0.9591
560	0.9125
569	0.8452
578	0.9944
587	0.968
596	0.9957
605	0.9837
614	0.9698
623	0.9868
632	0.9845
641	0.9795
650	0.9727
659	0.9655
668	0.9757
677	0.9621
686	0.9366
695	0.9039
704	0.8497
713	0.6167
722	0.6349
731	0.4242
740	0.4549
749	0.668
758	0.8442
767	0.8768
776	0.8601
785	0.8366
794	0.7885
803	0.7245
812	0.4721
821	0.3359
830	0.3762
839	0.7051
848	0.9825
857	0.9468
866	0.6993
875	0.9666
884	0.9306
893	0.8514
902	0.8455
911	0.8995
920	0.8964
929	0.8817
938	0.8641
947	0.8467
956	0.828
965	0.8057
974	0.7675
983	0.7436
992	0.5082
1001	0.8675
1010	0.8615
1019	0.8435
1028	0.8168
1037	0.7858
1046	0.7286
1055	0.8187
1064	0.7969
1073	0.7674
1082	0.7508
1091	0.7515
1100	0.7462
1109	0.7301
1118	0.7167
1127	0.7061
1136	0.6758
1145	0.5953
1154	0.6649
1163	0.6619
1172	0.6336
1181	0.6164
1190	0.5596
1199	0.5907
1208	0.6005
1217	0.5907
1226	0.5624
1235	0.527
1244	0.4926
1253	0.4448
1262	0.3562
1271	0.2254
1280	0.3998
1289	0.3893
1298	0.3314
1307	0.2013
1316	0.0988
1325	0.313
1334	0.1201
1343	0.5449
1352	0.6915
1361	0.7808
1370	0.6425
1379	0.8051
1388	0.8966
1397	0.8925
1406	0.869
1415	0.8178
1424	0.6741
1433	0.8428
1442	0.8604
1451	0.8274
1460	0.7985
1469	0.7715
1478	0.7362
1487	0.6892
1496	0.6066
1505	0.3309
1514	0.3839
1523	0.4032
1532	0.7001
1541	0.9337
1550	0.963
1559	0.9508
1568	0.9303
1577	0.9558
1586	0.9573
1595	0.9448
1604	0.9162
1613	0.8668
1622	0.9178
1631	0.9343
1640	0.9275
1649	0.9167
1658	0.9059
1667	0.8971
1676	0.8937
1685	0.8928
1694	0.8874
1703	0.881
1712	0.8751
1721	0.8743
1730	0.8718
1739	0.868
1748	0.8655
1757	0.8632
1766	0.8607
1775	0.858
1784	0.8552
1793	0.853
1802	0.8508
1811	0.8475
1820	0.8425
1829	0.8357
1838	0.8314
1847	0.8293
1856	0.8307
1865	0.8318
1874	0.8297
1883	0.8246
1892	0.8188
1901	0.8154
1910	0.824
1919	0.8232
1928	0.8193
1937	0.8142
1946	0.8075
1955	0.8057
1964	0.8083
1973	0.803
1982	0.7962
1991	0.7867
2000	0.8039
2009	0.795
2018	0.7917
2027	0.7884
2036	0.7838
2045	0.7785
2054	0.7739
2063	0.7703
2072	0.7671
2081	0.7635
2090	0.7598
2099	0.7565
2108	0.7533
2117	0.7503
2126	0.7472
2135	0.7441
2144	0.741
2153	0.7375
2162	0.7339
2171	0.7301
2180	0.7265
2189	0.723
2198	0.7195
2207	0.7158
2216	0.7122
2225	0.7081
2234	0.7035
2243	0.6984
2252	0.6928
2261	0.6874
2270	0.6818
2279	0.6769
2288	0.6721
2297	0.6668
2306	0.6614
2315	0.6584
2324	0.6562
2333	0.6567
2342	0.6581
2351	0.6598
2360	0.6615
2369	0.6574
2378	0.6531
2387	0.6508
2396	0.6501
2405	0.6494
2414	0.6492
2423	0.648
2432	0.6469
2441	0.6461
2450	0.6446
2459	0.6428
2468	0.6412
2477	0.6397
2486	0.6382
2495	0.6367
2504	0.6353
2513	0.6338
2522	0.6322
2531	0.6304
2540	0.6288
2549	0.6271
2558	0.6255
2567	0.6239
2576	0.6224
2585	0.6209
2594	0.6188
2603	0.6165
2612	0.6144
2621	0.6121
2630	0.6098
2639	0.6075
2648	0.6052
2657	0.6025
2666	0.5998
2675	0.5972
2684	0.5948
2693	0.593
2702	0.5912
2711	0.5894
2720	0.5871
2729	0.5844
2738	0.5818
2747	0.5792
2756	0.5765
2765	0.5737
2774	0.5709
2783	0.5681
2792	0.5654
2801	0.5629
2810	0.5603
2819	0.5574
2828	0.5538
2837	0.5518
2846	0.5546
2855	0.5566
2864	0.5568
2873	0.5564
2882	0.5553
2891	0.5538
2900	0.5516
2909	0.5486
2918	0.5453
2927	0.542
2936	0.5394
2945	0.5388
2954	0.5386
2963	0.5382
2972	0.5372
2981	0.5358
2990	0.5341
2999	0.5299
3008	0.5253
3017	0.5259
3026	0.5276
3035	0.5267
3044	0.5237
3053	0.5199
3062	0.5155
3071	0.5112
3080	0.5071
3089	0.5016
3098	0.4874
3107	0.5103
3116	0.5302
3125	0.5264
3134	0.5249
3143	0.5236
3152	0.5222
3161	0.5203
3170	0.5184
3179	0.5172
3188	0.516
3197	0.5146
3206	0.5133
3215	0.512
3224	0.5107
3233	0.5092
3242	0.5077
3251	0.506
3260	0.5046
3269	0.5031
3278	0.5021
3287	0.501
3296	0.5001
3305	0.4991
3314	0.4981
3323	0.4967
3332	0.4953
3341	0.4938
3350	0.4924
3359	0.4909
3368	0.4895
3377	0.4883
3386	0.4871
3395	0.4858
3404	0.4846
3413	0.4833
3422	0.4822
3431	0.4812
3440	0.4801
3449	0.479
3458	0.478
3467	0.4769
3476	0.4759
3485	0.4746
3494	0.4734
3503	0.4722
3512	0.471
3521	0.4698
3530	0.4686
3539	0.4673
3548	0.4662
3557	0.465
3566	0.4639
3575	0.4627
3584	0.4616
3593	0.4604
3602	0.4593
3611	0.4579
3620	0.4565
3629	0.4551
3638	0.4537
3647	0.4523
3656	0.451
3665	0.4499
3674	0.4489
3683	0.4479
3692	0.4469
3701	0.4459
3710	0.4453
3719	0.4447
3728	0.4443
3737	0.4437
3746	0.443
3755	0.4421
3764	0.4409
3773	0.4395
3782	0.4383
3791	0.437
3800	0.436
