Infrared Spectrum: BENZIMIDAZOLE, 4-BROMO-2-(TRIFLUOROMETHYL)-
Formula: C8 H4 Br F3 N2
CAS: 6587-23-1
State: SOLID (KBr DISC)
Class: COBLENTZ III
Instrument: UNICAM SP-200
Sampling: TRANSMISSION
Resolution: 2
Origin: FISONS LTD., VIA S.D.C. (DR. G. T. NEWBOLD)
1/CM	TRANSMITTANCE
655.449	0.91
667.032	0.932
678.616	0.927
690.199	0.928
701.782	0.927
713.365	0.92
724.949	0.911
736.532	0.906
748.115	0.7701
759.699	0.38
771.282	0.935
782.865	0.932
794.448	0.603
806.032	0.902
817.615	0.917
829.198	0.917
840.782	0.918
852.365	0.922
863.948	0.93
875.531	0.86
887.115	0.868
898.698	0.881
910.281	0.905
921.865	0.914
933.448	0.891
945.031	0.703
956.614	0.8029
968.198	0.872
979.781	0.802
991.364	0.67
1002.95	0.868
1014.53	0.908
1026.11	0.909
1037.7	0.907
1049.28	0.895
1060.86	0.874
1072.45	0.867
1084.03	0.839
1095.61	0.779
1107.2	0.699
1118.78	0.411
1130.36	0.182
1141.95	0.178
1153.53	0.099
1165.11	0.105
1176.7	0.156
1188.28	0.243
1199.86	0.099
1211.45	0.4039
1223.03	0.748
1234.61	0.787
1246.2	0.792
1257.78	0.5961
1269.36	0.4181
1280.95	0.59
1292.53	0.81
1304.11	0.821
1315.7	0.489
1327.28	0.4089
1338.86	0.836
1350.45	0.879
1362.03	0.877
1373.61	0.856
1385.2	0.6292
1396.78	0.554
1408.36	0.797
1419.95	0.781
1431.53	0.828
1443.11	0.769
1454.7	0.5602
1466.28	0.467
1477.86	0.7519
1489.45	0.853
1501.03	0.855
1512.61	0.875
1524.2	0.88
1535.78	0.7801
1547.36	0.66
1558.95	0.781
1570.53	0.7761
1582.11	0.729
1593.69	0.859
1605.28	0.868
1616.86	0.855
1628.44	0.873
1640.03	0.872
1651.61	0.881
1663.19	0.879
1674.78	0.887
1686.36	0.89
1697.94	0.894
1709.53	0.898
1721.11	0.9
1732.69	0.902
1744.28	0.908
1755.86	0.912
1767.44	0.915
1779.03	0.92
1790.61	0.929
1802.19	0.928
1813.78	0.929
1825.36	0.921
1836.94	0.934
1848.53	0.931
1860.11	0.938
1871.69	0.935
1883.28	0.937
1894.86	0.93
1906.44	0.932
1918.03	0.941
1929.61	0.946
1941.19	0.943
1952.78	0.948
1964.36	0.943
1975.94	0.945
1987.53	0.945
1999.11	0.945
2010.69	0.9413
2022.28	0.939
2033.86	0.939
2045.44	0.939
2057.03	0.94
2068.61	0.9392
2080.19	0.937
2091.78	0.937
2103.36	0.9338
2114.94	0.932
2126.53	0.9328
2138.11	0.934
2149.69	0.934
2161.28	0.9314
2172.86	0.931
2184.44	0.93
2196.03	0.93
2207.61	0.9273
2219.19	0.926
2230.78	0.924
2242.36	0.924
2253.94	0.9193
2265.53	0.9159
2277.11	0.9126
2288.69	0.9073
2300.28	0.905
2311.86	0.904
2323.44	0.904
2335.02	0.904
2346.61	0.9028
2358.19	0.8996
2369.77	0.8951
2381.36	0.8893
2392.94	0.8782
2404.52	0.8626
2416.11	0.8515
2427.69	0.8409
2439.27	0.8377
2450.86	0.8354
2462.44	0.8274
2474.02	0.8094
2485.61	0.8013
2497.19	0.7898
2508.77	0.7612
2520.36	0.7387
2531.94	0.7315
2543.52	0.73
2555.11	0.7279
2566.69	0.727
2578.27	0.7181
2589.86	0.6934
2601.44	0.64
2613.02	0.6115
2624.61	0.6118
2636.19	0.617
2647.77	0.619
2659.36	0.6146
2670.94	0.5973
2682.52	0.5861
2694.11	0.5626
2705.69	0.5428
2717.27	0.539
2728.86	0.5448
2740.44	0.5556
2752.02	0.5658
2763.61	0.5659
2775.19	0.564
2786.77	0.559
2798.36	0.5483
2809.94	0.5398
2821.52	0.5326
2833.11	0.5179
2844.69	0.5048
2856.27	0.5
2867.86	0.5042
2879.44	0.5241
2891.02	0.5402
2902.61	0.5406
2914.19	0.531
2925.77	0.5051
2937.36	0.5023
2948.94	0.5107
2960.52	0.5198
2972.11	0.5174
2983.69	0.5
2995.27	0.4963
3006.86	0.5068
3018.44	0.5284
3030.02	0.537
3041.61	0.5463
3053.19	0.5512
3064.77	0.5619
3076.36	0.5746
3087.94	0.5875
3099.52	0.6085
3111.1	0.617
3122.69	0.6207
3134.27	0.6359
3145.85	0.6622
3157.44	0.6807
3169.02	0.6897
3180.6	0.698
3192.19	0.7013
3203.77	0.7159
3215.35	0.7279
3226.94	0.7314
3238.52	0.737
3250.1	0.7413
3261.69	0.7491
3273.27	0.753
3284.85	0.7558
3296.44	0.7579
3308.02	0.759
3319.6	0.76
3331.19	0.76
3342.77	0.759
3354.35	0.758
3365.94	0.758
3377.52	0.757
3389.1	0.7569
3400.69	0.756
3412.27	0.757
3423.85	0.757
3435.44	0.759
3447.02	0.7605
3458.6	0.761
3470.19	0.7631
3481.77	0.764
3493.35	0.7676
3504.94	0.7689
3516.52	0.771
3528.1	0.7724
3539.69	0.775
3551.27	0.778
3562.85	0.78
3574.44	0.7836
3586.02	0.787
3597.6	0.79
3609.19	0.791
3620.77	0.793
3632.35	0.792
3643.94	0.79
3655.52	0.79
3667.1	0.791
3678.69	0.7931
3690.27	0.7963
3701.85	0.797
3713.44	0.7942
3725.02	0.7918
3736.6	0.79
3748.19	0.789
3759.77	0.789
3771.35	0.7877
3782.94	0.788
3794.52	0.7882
3806.1	0.786
3817.69	0.7836
3829.27	0.779
3840.85	0.777
3852.44	0.7728
3864.02	0.769
3875.6	0.768
3887.18	0.767
3898.77	0.768
3910.35	0.768
3921.93	0.768
3933.52	0.7648
3945.1	0.762
3956.68	0.762
3968.27	0.762
3979.85	0.761
3991.43	0.7606
4003.02	0.7591
4014.6	0.7567
4026.18	0.7526
4037.77	0.7503
4049.35	0.7461
4060.93	0.746
4072.52	0.748
4084.1	0.7482
4095.68	0.747
4107.27	0.746
4118.85	0.744
4130.43	0.743
4142.02	0.742
4153.6	0.741
4165.18	0.74
4176.77	0.739
4188.35	0.738
4199.93	0.7374
4211.52	0.735
4223.1	0.733
4234.68	0.733
4246.27	0.733
4257.85	0.733
4269.43	0.733
4281.02	0.732
4292.6	0.7312
4304.18	0.731
4315.77	0.73
4327.35	0.7284
4338.93	0.727
4350.52	0.726
4362.1	0.7245
4373.68	0.723
4385.27	0.722
4396.85	0.72
4408.43	0.72
4420.02	0.72
4431.6	0.719
4443.18	0.719
4454.77	0.7173
4466.35	0.716
4477.93	0.7138
4489.52	0.7115
4501.1	0.7092
4512.68	0.7089
4524.27	0.708
4535.85	0.708
4547.43	0.708
4559.02	0.708
4570.6	0.708
4582.18	0.708
4593.77	0.708
4605.35	0.707
4616.93	0.706
4628.51	0.705
4640.1	0.7
4651.68	0.699
4663.26	0.698
4674.85	0.698
4686.43	0.698
4698.01	0.698
4709.6	0.698
4721.18	0.698
4732.76	0.698
4744.35	0.698
4755.93	0.6971
4767.51	0.697
4779.1	0.695
4790.68	0.6922
4802.26	0.689
4813.85	0.688
4825.43	0.6864
4837.01	0.684
4848.6	0.6828
4860.18	0.6806
4871.76	0.68
4883.35	0.68
4894.93	0.679
4906.51	0.678
4918.1	0.678
4929.68	0.678
4941.26	0.6766
4952.85	0.676
4964.43	0.6751
4976.01	0.674
4987.6	0.673
4999.18	0.673
