Infrared Spectrum: 4-(Trifluoromethoxy)benzaldehyde
Formula: C 8 H 5 F 3 O 2
CAS: 659-28-9
State: gas
Origin: EPA-IR VAPOR PHASE LIBRARY
1/CM	ABSORBANCE
549.8	0.003806
559.445	0.003556
569.09	0.00086304
578.734	0.0008392
588.379	0.002426
598.024	0.002546
607.669	0.002676
617.313	0.002986
626.958	0.002676
636.603	0.003746
646.248	0.004486
655.893	0.004526
665.537	0.005156
675.182	0.004986
684.827	0.004786
694.472	0.004456
704.116	0.004146
713.761	0.004546
723.406	0.004696
733.051	0.003236
742.695	0.002686
752.34	0.002166
761.985	0.002936
771.63	0.004526
781.275	0.008436
790.919	0.007606
800.564	0.007486
810.209	0.012186
819.854	0.019766
829.498	0.025036
839.143	0.035946
848.788	0.030036
858.433	0.015196
868.078	0.006066
877.722	0.003716
887.367	0.002796
897.012	0.002516
906.657	0.002596
916.301	0.004016
925.946	0.005906
935.591	0.004806
945.236	0.003036
954.88	0.003096
964.525	0.002686
974.17	0.003826
983.815	0.002896
993.46	0.002686
1003.1	0.003786
1012.75	0.008426
1022.39	0.006366
1032.04	0.002206
1041.68	0.003176
1051.33	0.002676
1060.97	0.003846
1070.62	0.002916
1080.26	0.003976
1089.91	0.004526
1099.55	0.007396
1109.2	0.008006
1118.84	0.008996
1128.49	0.009316
1138.13	0.012946
1147.78	0.022216
1157.42	0.050656
1167.07	0.067526
1176.71	0.083356
1186.36	0.144076
1196	0.184626
1205.64	0.209996
1215.29	0.270486
1224.93	0.215716
1234.58	0.156476
1244.22	0.128486
1253.87	0.198336
1263.51	0.333526
1273.16	0.292416
1282.8	0.131326
1292.45	0.063646
1302.09	0.040836
1311.74	0.026596
1321.38	0.015696
1331.03	0.010466
1340.67	0.007546
1350.32	0.006356
1359.96	0.005276
1369.61	0.005046
1379.25	0.007746
1388.9	0.007696
1398.54	0.005186
1408.18	0.004316
1417.83	0.004746
1427.47	0.005236
1437.12	0.003926
1446.76	0.003116
1456.41	0.002886
1466.05	0.002916
1475.7	0.003716
1485.34	0.005586
1494.99	0.011906
1504.63	0.020136
1514.28	0.013726
1523.92	0.007896
1533.57	0.005656
1543.21	0.004946
1552.86	0.005386
1562.5	0.005926
1572.15	0.008446
1581.79	0.014726
1591.44	0.026766
1601.08	0.035986
1610.73	0.026906
1620.37	0.011066
1630.01	0.006626
1639.66	0.005026
1649.3	0.004606
1658.95	0.004686
1668.59	0.004946
1678.24	0.006186
1687.88	0.007956
1697.53	0.010556
1707.17	0.021516
1716.82	0.071446
1726.46	0.120526
1736.11	0.033746
1745.75	0.009646
1755.4	0.004526
1765.04	0.003476
1774.69	0.003096
1784.33	0.003686
1793.98	0.003226
1803.62	0.002606
1813.27	0.002556
1822.91	0.002386
1832.55	0.002316
1842.2	0.002036
1851.84	0.002266
1861.49	0.002256
1871.13	0.002166
1880.78	0.002356
1890.42	0.002586
1900.07	0.002856
1909.71	0.002716
1919.36	0.002796
1929	0.002426
1938.65	0.002036
1948.29	0.001916
1957.94	0.002066
1967.58	0.002476
1977.23	0.002556
1986.87	0.002456
1996.52	0.002646
2006.16	0.002586
2015.81	0.002526
2025.45	0.002496
2035.1	0.002456
2044.74	0.002496
2054.38	0.002416
2064.03	0.002576
2073.67	0.002366
2083.32	0.001976
2092.96	0.002306
2102.61	0.002046
2112.25	0.001886
2121.9	0.002176
2131.54	0.002116
2141.19	0.001956
2150.83	0.001976
2160.48	0.0017508
2170.12	0.0017549
2179.77	0.001886
2189.41	0.002236
2199.06	0.001886
2208.7	0.0015532
2218.35	0.001502
2227.99	0.0014719
2237.64	0.0012068
2247.28	0.0013848
2256.92	0.0010528
2266.57	0.0016849
2276.21	0.0013865
2285.86	0.001806
2295.5	0.001886
2305.15	0.0016552
2314.79	0.0017053
2324.44	0.0015509
2334.08	0.001946
2343.73	0.0015648
2353.37	0.0016274
2363.02	0.0016061
2372.66	0.001886
2382.31	0.002086
2391.95	0.002286
2401.6	0.002256
2411.24	0.002566
2420.89	0.003076
2430.53	0.003496
2440.18	0.003296
2449.82	0.003386
2459.47	0.003016
2469.11	0.002766
2478.75	0.002676
2488.4	0.002616
2498.04	0.002256
2507.69	0.002336
2517.33	0.002316
2526.98	0.002516
2536.62	0.001896
2546.27	0.002166
2555.91	0.001936
2565.56	0.0016821
2575.2	0.001916
2584.85	0.002106
2594.49	0.001946
2604.14	0.0016817
2613.78	0.001856
2623.43	0.0017106
2633.07	0.0016137
2642.72	0.002036
2652.36	0.002086
2662.01	0.002396
2671.65	0.002646
2681.29	0.003176
2690.94	0.003876
2700.58	0.005596
2710.23	0.008736
2719.87	0.012636
2729.52	0.015206
2739.16	0.011806
2748.81	0.007646
2758.45	0.005376
2768.1	0.005746
2777.74	0.007136
2787.39	0.008876
2797.03	0.011336
2806.68	0.012956
2816.32	0.015366
2825.97	0.014606
2835.61	0.009426
2845.26	0.005366
2854.9	0.003456
2864.55	0.002806
2874.19	0.001986
2883.84	0.002006
2893.48	0.002396
2903.12	0.001956
2912.77	0.002016
2922.41	0.001826
2932.06	0.001876
2941.7	0.0017492
2951.35	0.001796
2960.99	0.0012678
2970.64	0.0011639
2980.28	0.0013958
2989.93	0.0013125
2999.57	0.001946
3009.22	0.0014937
3018.86	0.0017806
3028.51	0.002036
3038.15	0.002786
3047.8	0.003636
3057.44	0.002546
3067.09	0.002536
3076.73	0.002456
3086.38	0.002106
3096.02	0.001816
3105.67	0.002136
3115.31	0.0014695
3124.95	0.0014931
3134.6	0.0009533
3144.24	0.001856
3153.89	0.001906
3163.53	0.0014635
3173.18	0.0013988
3182.82	0.001956
3192.47	0.0011577
3202.11	0.0013876
3211.76	0.0008887
3221.4	0.000443
3231.05	0.0015093
3240.69	0.0011513
3250.34	0.0016685
3259.98	0.0012825
3269.63	0.0006929
3279.27	0.0007278
3288.92	0.0015425
3298.56	0.001676
3308.21	0.0017774
3317.85	0.0009826
3327.49	0.001826
3337.14	0.0009567
3346.78	0.0011655
3356.43	0.0012731
3366.07	0.0013204
3375.72	0.0015156
3385.36	0.000934
3395.01	0.0015547
3404.65	0.002256
3414.3	0.002116
3423.94	0.002326
3433.59	0.002366
3443.23	0.001836
3452.88	0.0015437
3462.52	0.0015178
3472.17	0.0012696
3481.81	0.0010383
3491.46	0.000595
3501.1	0.0017378
3510.75	0.00084331
3520.39	0.000253
3530.04	0.0010397
3539.68	0.0010183
3549.32	0.000559
3558.97	0.0010673
3568.61	0.0012683
3578.26	0.000668
3587.9	0.0010093
3597.55	0.00087
3607.19	0.0009641
3616.84	0.0013146
3626.48	0.000785842
3636.13	0.0013219
3645.77	0.0013406
3655.42	0.00087528
3665.06	0.0007347
3674.71	0.0009079
3684.35	0.0009331
3694	0.000331
3703.64	0.0013379
3713.29	0.00084206
3722.93	0.0014644
3732.58	0.000954
3742.22	0.000528
3751.86	0.0015084
3761.51	0.001542
3771.15	0.000108
3780.8	0.0007711
3790.44	0.0009257
3800.09	0.00064
3809.73	0.0012355
3819.38	0.0009261
3829.02	0.0009714
3838.67	0.0007539
3848.31	0.00087515
3857.96	0.001926
3867.6	0.0010115
3877.25	0.0015781
3886.89	0.0009011
3896.54	0.0011421
3906.18	0.00101
3915.83	0.0009735
3925.47	0.000787049
3935.12	0.0009972
3944.76	0.0013723
3954.41	0.0010612
3964.05	0.0010735
3973.69	0.000633
3983.34	0.000648
3992.98	0.0011614
