Infrared Spectrum: 2,6-Dichlorophenyl isothiocyanate
Formula: C 7 H 3 Cl 2 N S
CAS: 6590-95-0
State: gas
Origin: EPA-IR VAPOR PHASE LIBRARY
1/CM	ABSORBANCE
549.8	0.011505
559.445	0.015095
569.09	0.020825
578.734	0.016795
588.379	0.011735
598.024	0.008765
607.669	0.006185
617.313	0.004465
626.958	0.004055
636.603	0.003745
646.248	0.002525
655.893	0.002805
665.537	0.007105
675.182	0.010615
684.827	0.005725
694.472	0.007535
704.116	0.034405
713.761	0.084045
723.406	0.045875
733.051	0.011635
742.695	0.009585
752.34	0.013465
761.985	0.047965
771.63	0.137695
781.275	0.090935
790.919	0.098905
800.564	0.131235
810.209	0.067455
819.854	0.013435
829.498	0.006285
839.143	0.003975
848.788	0.002855
858.433	0.002595
868.078	0.002305
877.722	0.002305
887.367	0.003155
897.012	0.004315
906.657	0.006865
916.301	0.008115
925.946	0.013035
935.591	0.038555
945.236	0.075425
954.88	0.050915
964.525	0.016485
974.17	0.009255
983.815	0.008555
993.46	0.005875
1003.1	0.004085
1012.75	0.003155
1022.39	0.002495
1032.04	0.002585
1041.68	0.002175
1051.33	0.0016054
1060.97	0.001715
1070.62	0.002245
1080.26	0.002555
1089.91	0.002015
1099.55	0.004405
1109.2	0.012365
1118.84	0.012175
1128.49	0.003355
1138.13	0.002155
1147.78	0.005275
1157.42	0.009425
1167.07	0.008865
1176.71	0.004405
1186.36	0.006605
1196	0.026935
1205.64	0.030015
1215.29	0.007055
1224.93	0.004175
1234.58	0.004175
1244.22	0.003815
1253.87	0.005105
1263.51	0.005135
1273.16	0.003965
1282.8	0.003155
1292.45	0.003635
1302.09	0.002635
1311.74	0.0015905
1321.38	0.0014167
1331.03	0.0015892
1340.67	0.001895
1350.32	0.001735
1359.96	0.001655
1369.61	0.002015
1379.25	0.002935
1388.9	0.004125
1398.54	0.007115
1408.18	0.014085
1417.83	0.023095
1427.47	0.066245
1437.12	0.150485
1446.76	0.155625
1456.41	0.081175
1466.05	0.038465
1475.7	0.020785
1485.34	0.014245
1494.99	0.007025
1504.63	0.005515
1514.28	0.005765
1523.92	0.006655
1533.57	0.010535
1543.21	0.016615
1552.86	0.035025
1562.5	0.052175
1572.15	0.029855
1581.79	0.012465
1591.44	0.005895
1601.08	0.005555
1610.73	0.004225
1620.37	0.002905
1630.01	0.003145
1639.66	0.003605
1649.3	0.005435
1658.95	0.008115
1668.59	0.005685
1678.24	0.003355
1687.88	0.002965
1697.53	0.002985
1707.17	0.003015
1716.82	0.003495
1726.46	0.004015
1736.11	0.003375
1745.75	0.002485
1755.4	0.002845
1765.04	0.004195
1774.69	0.006725
1784.33	0.006505
1793.98	0.004545
1803.62	0.004655
1813.27	0.005195
1822.91	0.006135
1832.55	0.008105
1842.2	0.011695
1851.84	0.013455
1861.49	0.012905
1871.13	0.014305
1880.78	0.017455
1890.42	0.019815
1900.07	0.020385
1909.71	0.024255
1919.36	0.031055
1929	0.033985
1938.65	0.039915
1948.29	0.053935
1957.94	0.075525
1967.58	0.103305
1977.23	0.135695
1986.87	0.180315
1996.52	0.255645
2006.16	0.357645
2015.81	0.458835
2025.45	0.567055
2035.1	0.739905
2044.74	0.983655
2054.38	1.08291
2064.03	0.898915
2073.67	0.606685
2083.32	0.389585
2092.96	0.330525
2102.61	0.367395
2112.25	0.420745
2121.9	0.418125
2131.54	0.313325
2141.19	0.177905
2150.83	0.100375
2160.48	0.074615
2170.12	0.064425
2179.77	0.057275
2189.41	0.050495
2199.06	0.046945
2208.7	0.046975
2218.35	0.041965
2227.99	0.027685
2237.64	0.017725
2247.28	0.013845
2256.92	0.011055
2266.57	0.008925
2276.21	0.007775
2285.86	0.007275
2295.5	0.006785
2305.15	0.006425
2314.79	0.006185
2324.44	0.005665
2334.08	0.005565
2343.73	0.005825
2353.37	0.005815
2363.02	0.005885
2372.66	0.007145
2382.31	0.008635
2391.95	0.008405
2401.6	0.006985
2411.24	0.005985
2420.89	0.004445
2430.53	0.004075
2440.18	0.004205
2449.82	0.004875
2459.47	0.005005
2469.11	0.004895
2478.75	0.004895
2488.4	0.005305
2498.04	0.006455
2507.69	0.007765
2517.33	0.008935
2526.98	0.010475
2536.62	0.012325
2546.27	0.012635
2555.91	0.011415
2565.56	0.009965
2575.2	0.008975
2584.85	0.009205
2594.49	0.010545
2604.14	0.012145
2613.78	0.012975
2623.43	0.011825
2633.07	0.008795
2642.72	0.005625
2652.36	0.003545
2662.01	0.002875
2671.65	0.002925
2681.29	0.003035
2690.94	0.003365
2700.58	0.003465
2710.23	0.003915
2719.87	0.004215
2729.52	0.004665
2739.16	0.004975
2748.81	0.005735
2758.45	0.007265
2768.1	0.008995
2777.74	0.009395
2787.39	0.007575
2797.03	0.005025
2806.68	0.003475
2816.32	0.002995
2825.97	0.002675
2835.61	0.002725
2845.26	0.002305
2854.9	0.001865
2864.55	0.0013761
2874.19	0.0014222
2883.84	0.0013472
2893.48	0.0016254
2903.12	0.001685
2912.77	0.0016297
2922.41	0.001795
2932.06	0.002065
2941.7	0.002425
2951.35	0.002575
2960.99	0.002865
2970.64	0.003265
2980.28	0.004235
2989.93	0.004895
2999.57	0.004865
3009.22	0.004355
3018.86	0.003105
3028.51	0.002575
3038.15	0.002455
3047.8	0.002975
3057.44	0.004885
3067.09	0.008605
3076.73	0.009755
3086.38	0.006195
3096.02	0.002135
3105.67	0.0015307
3115.31	0.001885
3124.95	0.002015
3134.6	0.0013306
3144.24	0.00068592
3153.89	0.00053
3163.53	0.0005562
3173.18	0.000298
3182.82	0.000288
3192.47	0.00022
3202.11	0.000313
3211.76	0
3221.4	3e-05
3231.05	0.000194
3240.69	0.000325
3250.34	0.000291
3259.98	0.000324
3269.63	0.000298
3279.27	0.000458
3288.92	0.00038
3298.56	0.000303
3308.21	0.000314
3317.85	0.000362
3327.49	0.000394
3337.14	0.000368
3346.78	0.00033
3356.43	0.00037
3366.07	0.000343
3375.72	0.000476
3385.36	0.000354
3395.01	0.000396
3404.65	0.000491
3414.3	0.000524
3423.94	0.00053
3433.59	0.000543
3443.23	0.000503
3452.88	0.000458
3462.52	0.0006437
3472.17	0.000654251
3481.81	0.0006011
3491.46	0.0006136
3501.1	0.000537
3510.75	0.0005734
3520.39	0.00065093
3530.04	0.00053
3539.68	0.000544
3549.32	0.00069622
3558.97	0.0007861
3568.61	0.0008355
3578.26	0.0006041
3587.9	0.000426
3597.55	0.0006148
3607.19	0.0006167
3616.84	0.0007579
3626.48	0.00056
3636.13	0.0008481
3645.77	0.00072593
3655.42	0.00054
3665.06	0.000499
3674.71	0.0005
3684.35	0.0007769
3694	0.000778
3703.64	0.00073101
3713.29	0.0008566
3722.93	0.0008413
3732.58	0.0006758
3742.22	0.0007914
3751.86	0.00066985
3761.51	0.00068935
3771.15	0.0010867
3780.8	0.0013365
3790.44	0.001403
3800.09	0.0011024
3809.73	0.001122
3819.38	0.000969
3829.02	0.0010734
3838.67	0.0009833
3848.31	0.0010018
3857.96	0.0012634
3867.6	0.0012154
3877.25	0.0015044
3886.89	0.0013713
3896.54	0.0013369
3906.18	0.0014828
3915.83	0.0015826
3925.47	0.0016061
3935.12	0.0016312
3944.76	0.001835
3954.41	0.001785
3964.05	0.002345
3973.69	0.002285
3983.34	0.002385
3992.98	0.002805
