Infrared Spectrum: 2,4-Dichlorophenyl isothiocyanate
Formula: C 7 H 3 Cl 2 N S
CAS: 6590-96-1
State: gas
Origin: EPA-IR VAPOR PHASE LIBRARY
1/CM	ABSORBANCE
549.8	0.003597
559.445	0.003147
569.09	0.002687
578.734	0.001977
588.379	0.0013138
598.024	0.0010594
607.669	0.0011765
617.313	0.0009568
626.958	0.0010624
636.603	0.001076
646.248	0.0010163
655.893	0.002067
665.537	0.002317
675.182	0.002617
684.827	0.002587
694.472	0.001507
704.116	0.0009848
713.761	0.000555
723.406	0.0010514
733.051	0.0012964
742.695	0.0009286
752.34	0.000232
761.985	0.0010389
771.63	0.001707
781.275	0.002507
790.919	0.004787
800.564	0.013407
810.209	0.022457
819.854	0.014287
829.498	0.004297
839.143	0.002117
848.788	0.002137
858.433	0.003867
868.078	0.008387
877.722	0.007017
887.367	0.003887
897.012	0.003357
906.657	0.003777
916.301	0.004537
925.946	0.007367
935.591	0.014227
945.236	0.023977
954.88	0.017727
964.525	0.007777
974.17	0.004197
983.815	0.002287
993.46	0.001797
1003.1	0.0013135
1012.75	0.000936
1022.39	0.0010918
1032.04	0.0008663
1041.68	0.0013286
1051.33	0.003837
1060.97	0.010097
1070.62	0.008907
1080.26	0.004757
1089.91	0.008387
1099.55	0.023937
1109.2	0.015457
1118.84	0.003937
1128.49	0.004617
1138.13	0.007717
1147.78	0.007627
1157.42	0.002177
1167.07	0.0009574
1176.71	0.0007259
1186.36	0.00028
1196	0.0007861
1205.64	0.0007256
1215.29	0.0007897
1224.93	0.0006857
1234.58	0.001597
1244.22	0.001847
1253.87	0.001557
1263.51	0.002687
1273.16	0.004077
1282.8	0.003887
1292.45	0.001427
1302.09	0.0007471
1311.74	0.0006484
1321.38	0.0005169
1331.03	0.0006819
1340.67	0.0007393
1350.32	0.0009837
1359.96	0.002087
1369.61	0.003937
1379.25	0.005747
1388.9	0.005627
1398.54	0.003447
1408.18	0.001837
1417.83	0.004017
1427.47	0.006847
1437.12	0.003637
1446.76	0.004907
1456.41	0.012327
1466.05	0.032677
1475.7	0.068457
1485.34	0.026187
1494.99	0.007517
1504.63	0.005457
1514.28	0.003247
1523.92	0.002537
1533.57	0.002597
1543.21	0.003427
1552.86	0.005207
1562.5	0.004327
1572.15	0.003347
1581.79	0.003547
1591.44	0.002587
1601.08	0.001437
1610.73	0.0011682
1620.37	0.001507
1630.01	0.001437
1639.66	0.0009749
1649.3	0.00076
1658.95	0.0007253
1668.59	0.0007171
1678.24	0.0007117
1687.88	0.0007866
1697.53	0.0009623
1707.17	0.0010979
1716.82	0.0011616
1726.46	0.001757
1736.11	0.002347
1745.75	0.002227
1755.4	0.001747
1765.04	0.001467
1774.69	0.001457
1784.33	0.001477
1793.98	0.001517
1803.62	0.001497
1813.27	0.001487
1822.91	0.001427
1832.55	0.001557
1842.2	0.001787
1851.84	0.002277
1861.49	0.003187
1871.13	0.004677
1880.78	0.005977
1890.42	0.006167
1900.07	0.006067
1909.71	0.006587
1919.36	0.007937
1929	0.009907
1938.65	0.013227
1948.29	0.018377
1957.94	0.024967
1967.58	0.032647
1977.23	0.044197
1986.87	0.061897
1996.52	0.084647
2006.16	0.108557
2015.81	0.131167
2025.45	0.166597
2035.1	0.227657
2044.74	0.255707
2054.38	0.187837
2064.03	0.121477
2073.67	0.095237
2083.32	0.093787
2092.96	0.105137
2102.61	0.105367
2112.25	0.087997
2121.9	0.065197
2131.54	0.049097
2141.19	0.036257
2150.83	0.024477
2160.48	0.018247
2170.12	0.015657
2179.77	0.014017
2189.41	0.011717
2199.06	0.009477
2208.7	0.008317
2218.35	0.008107
2227.99	0.007727
2237.64	0.005217
2247.28	0.003197
2256.92	0.002197
2266.57	0.001747
2276.21	0.001557
2285.86	0.001487
2295.5	0.001447
2305.15	0.0013544
2314.79	0.001245
2324.44	0.001527
2334.08	0.001867
2343.73	0.002207
2353.37	0.002287
2363.02	0.002387
2372.66	0.002477
2382.31	0.002107
2391.95	0.001617
2401.6	0.001291
2411.24	0.0013374
2420.89	0.001567
2430.53	0.001577
2440.18	0.0013666
2449.82	0.0011596
2459.47	0.0011072
2469.11	0.0013359
2478.75	0.001377
2488.4	0.001497
2498.04	0.001667
2507.69	0.001827
2517.33	0.001867
2526.98	0.001627
2536.62	0.001717
2546.27	0.001817
2555.91	0.001957
2565.56	0.001677
2575.2	0.0011631
2584.85	0.0011991
2594.49	0.001291
2604.14	0.001537
2613.78	0.002027
2623.43	0.002697
2633.07	0.003677
2642.72	0.004497
2652.36	0.004457
2662.01	0.003517
2671.65	0.002537
2681.29	0.001757
2690.94	0.001727
2700.58	0.0013387
2710.23	0.0011715
2719.87	0.0011657
2729.52	0.0009757
2739.16	0.0006934
2748.81	0.00081
2758.45	0.0008302
2768.1	0.000657
2777.74	0.0009323
2787.39	0.0011275
2797.03	0.0010202
2806.68	0.0009193
2816.32	0.0008772
2825.97	0.0008982
2835.61	0.0009697
2845.26	0.0009943
2854.9	0.0008727
2864.55	0.0007801
2874.19	0.0006197
2883.84	0.0005872
2893.48	0.0005702
2903.12	0.000767
2912.77	0.0007571
2922.41	0.0007058
2932.06	0.0007434
2941.7	0.0007744
2951.35	0.0008093
2960.99	0.0008628
2970.64	0.0011491
2980.28	0.0010448
2989.93	0.0013652
2999.57	0.0013184
3009.22	0.0010052
3018.86	0.0007304
3028.51	0.0009564
3038.15	0.0006997
3047.8	0.000655
3057.44	0.0005605
3067.09	0.0009464
3076.73	0.0010299
3086.38	0.000757
3096.02	0.0005123
3105.67	0.000262
3115.31	0.000214
3124.95	0.00043651
3134.6	0.000208
3144.24	0.000258
3153.89	0.0002979
3163.53	0.000265
3173.18	0.000144
3182.82	4.2e-05
3192.47	0.00043473
3202.11	0.000345
3211.76	3.8e-05
3221.4	0.000144
3231.05	0.000149
3240.69	5.9e-05
3250.34	0.0002927
3259.98	5e-05
3269.63	0.000248
3279.27	9.2e-05
3288.92	0.0002753
3298.56	0.000253
3308.21	0.0002724
3317.85	0.000183
3327.49	0.000258
3337.14	0.000334
3346.78	0.00044289
3356.43	0.000194
3366.07	0.0002698
3375.72	0.000245
3385.36	0.000183
3395.01	0.000203
3404.65	0.000199
3414.3	0.00039483
3423.94	6.5e-05
3433.59	0.000139
3443.23	0.000207
3452.88	0.000229
3462.52	0.0002739
3472.17	0.0002877
3481.81	0.000188
3491.46	0.00036392
3501.1	0.0005811
3510.75	0.00038787
3520.39	0.00038755
3530.04	0.0005005
3539.68	0.0003284
3549.32	0.000519
3558.97	0.00042811
3568.61	0.0005079
3578.26	0.00038868
3587.9	0.0003351
3597.55	0.0006231
3607.19	0.0004891
3616.84	0.000349
3626.48	0.000266
3636.13	0.0005635
3645.77	0.0004596
3655.42	0.00025
3665.06	0.0005411
3674.71	0.000214
3684.35	0.00039981
3694	0.000196
3703.64	0.0006356
3713.29	0.00045109
3722.93	0.0003537
3732.58	0.00045695
3742.22	0.0004493
3751.86	0.00036112
3761.51	0.00043874
3771.15	0.0005488
3780.8	0.00046116
3790.44	0.0005246
3800.09	0.0004934
3809.73	0.000546
3819.38	0.0006072
3829.02	0.00042145
3838.67	0.0003294
3848.31	0.00046019
3857.96	0.0006845
3867.6	0.0006193
3877.25	0.0005001
3886.89	0.0007436
3896.54	0.0006352
3906.18	0.0006139
3915.83	0.0009217
3925.47	0.0007235
3935.12	0.0005635
3944.76	0.0006749
3954.41	0.0008718
3964.05	0.0008826
3973.69	0.0011594
3983.34	0.0009265
3992.98	0.0010905
