Infrared Spectrum: 3,4-Dichlorophenyl isothiocyanate
Formula: C 7 H 3 Cl 2 N S
CAS: 6590-94-9
State: gas
Origin: EPA-IR VAPOR PHASE LIBRARY
1/CM	ABSORBANCE
549.8	0.011374
559.445	0.007804
569.09	0.006904
578.734	0.004504
588.379	0.002904
598.024	0.002504
607.669	0.002944
617.313	0.001874
626.958	0.001604
636.603	0.002014
646.248	0.002304
655.893	0.002264
665.537	0.001974
675.182	0.006224
684.827	0.013144
694.472	0.005514
704.116	0.002034
713.761	0.0015032
723.406	0.002164
733.051	0.002054
742.695	0.002034
752.34	0.002714
761.985	0.004424
771.63	0.009064
781.275	0.019264
790.919	0.028734
800.564	0.029714
810.209	0.030894
819.854	0.019514
829.498	0.007104
839.143	0.003134
848.788	0.003174
858.433	0.009214
868.078	0.020984
877.722	0.014834
887.367	0.004984
897.012	0.003574
906.657	0.003644
916.301	0.003344
925.946	0.003444
935.591	0.003684
945.236	0.004124
954.88	0.006944
964.525	0.016234
974.17	0.023084
983.815	0.012254
993.46	0.004834
1003.1	0.003844
1012.75	0.004574
1022.39	0.009824
1032.04	0.030874
1041.68	0.021964
1051.33	0.004414
1060.97	0.001834
1070.62	0.0013287
1080.26	0.0010118
1089.91	0.0014072
1099.55	0.003774
1109.2	0.009074
1118.84	0.032034
1128.49	0.048394
1138.13	0.025514
1147.78	0.011304
1157.42	0.003554
1167.07	0.002024
1176.71	0.0013483
1186.36	0.001824
1196	0.002884
1205.64	0.0014403
1215.29	0.0015301
1224.93	0.002304
1234.58	0.003414
1244.22	0.005384
1253.87	0.006114
1263.51	0.007574
1273.16	0.010664
1282.8	0.006994
1292.45	0.002374
1302.09	0.0013873
1311.74	0.0011105
1321.38	0.0010175
1331.03	0.0011416
1340.67	0.0011644
1350.32	0.0011755
1359.96	0.002304
1369.61	0.005684
1379.25	0.008394
1388.9	0.008294
1398.54	0.005754
1408.18	0.002724
1417.83	0.003474
1427.47	0.010694
1437.12	0.026484
1446.76	0.021834
1456.41	0.032464
1466.05	0.118984
1475.7	0.090334
1485.34	0.013134
1494.99	0.008004
1504.63	0.007544
1514.28	0.006334
1523.92	0.004774
1533.57	0.006274
1543.21	0.011914
1552.86	0.021314
1562.5	0.021174
1572.15	0.022214
1581.79	0.055694
1591.44	0.053504
1601.08	0.009634
1610.73	0.004654
1620.37	0.004604
1630.01	0.004184
1639.66	0.003264
1649.3	0.002294
1658.95	0.001654
1668.59	0.0014857
1678.24	0.001544
1687.88	0.001724
1697.53	0.001814
1707.17	0.001984
1716.82	0.002214
1726.46	0.002614
1736.11	0.003324
1745.75	0.003484
1755.4	0.003294
1765.04	0.003094
1774.69	0.002884
1784.33	0.002804
1793.98	0.002974
1803.62	0.003104
1813.27	0.002954
1822.91	0.002704
1832.55	0.002884
1842.2	0.003114
1851.84	0.003554
1861.49	0.004904
1871.13	0.007244
1880.78	0.009054
1890.42	0.010044
1900.07	0.012194
1909.71	0.016944
1919.36	0.024494
1929	0.036084
1938.65	0.050064
1948.29	0.063004
1957.94	0.076624
1967.58	0.094344
1977.23	0.121514
1986.87	0.165874
1996.52	0.217854
2006.16	0.257344
2015.81	0.300504
2025.45	0.405604
2035.1	0.464914
2044.74	0.293404
2054.38	0.170984
2064.03	0.160444
2073.67	0.210464
2083.32	0.278944
2092.96	0.252214
2102.61	0.160784
2112.25	0.099724
2121.9	0.078904
2131.54	0.076234
2141.19	0.069614
2150.83	0.050884
2160.48	0.032564
2170.12	0.022804
2179.77	0.018614
2189.41	0.017124
2199.06	0.017814
2208.7	0.015314
2218.35	0.010694
2227.99	0.009344
2237.64	0.009664
2247.28	0.009704
2256.92	0.007494
2266.57	0.004794
2276.21	0.003454
2285.86	0.002614
2295.5	0.001984
2305.15	0.001804
2314.79	0.001764
2324.44	0.001954
2334.08	0.002344
2343.73	0.002854
2353.37	0.003714
2363.02	0.004184
2372.66	0.003934
2382.31	0.003084
2391.95	0.002984
2401.6	0.003364
2411.24	0.003504
2420.89	0.003164
2430.53	0.002684
2440.18	0.002524
2449.82	0.002594
2459.47	0.002444
2469.11	0.002404
2478.75	0.002474
2488.4	0.003024
2498.04	0.003554
2507.69	0.003534
2517.33	0.003014
2526.98	0.003134
2536.62	0.003514
2546.27	0.003454
2555.91	0.003054
2565.56	0.002584
2575.2	0.002644
2584.85	0.002894
2594.49	0.003364
2604.14	0.003884
2613.78	0.004694
2623.43	0.006364
2633.07	0.008274
2642.72	0.007264
2652.36	0.004174
2662.01	0.002794
2671.65	0.002394
2681.29	0.002364
2690.94	0.002214
2700.58	0.001844
2710.23	0.0014315
2719.87	0.001347
2729.52	0.0012923
2739.16	0.001091
2748.81	0.0012988
2758.45	0.0013436
2768.1	0.001584
2777.74	0.001924
2787.39	0.002364
2797.03	0.002814
2806.68	0.003044
2816.32	0.003134
2825.97	0.003154
2835.61	0.002844
2845.26	0.002144
2854.9	0.001554
2864.55	0.0012851
2874.19	0.001674
2883.84	0.0015057
2893.48	0.0014463
2903.12	0.0013154
2912.77	0.0010873
2922.41	0.0012024
2932.06	0.0013443
2941.7	0.0013405
2951.35	0.0011986
2960.99	0.0012652
2970.64	0.0014189
2980.28	0.001544
2989.93	0.001654
2999.57	0.001734
3009.22	0.001744
3018.86	0.0014119
3028.51	0.0012121
3038.15	0.0012251
3047.8	0.001188
3057.44	0.0013113
3067.09	0.001584
3076.73	0.001984
3086.38	0.0013445
3096.02	0.0010311
3105.67	0.000723
3115.31	0.0004962
3124.95	0.000341
3134.6	0.0005012
3144.24	0.000342
3153.89	0.000386
3163.53	0.000163
3173.18	0.000254
3182.82	0.000421
3192.47	0.000325
3202.11	0.000338
3211.76	0.000187
3221.4	0
3231.05	0.000323
3240.69	0.000284
3250.34	0.000269
3259.98	0.000142
3269.63	0.000199
3279.27	0.00028
3288.92	0.000318
3298.56	0.000103
3308.21	0.000227
3317.85	0.000223
3327.49	1.9e-05
3337.14	0.0004357
3346.78	5e-05
3356.43	0.000332
3366.07	0.0004826
3375.72	0.000264
3385.36	0.000288
3395.01	0.00041
3404.65	0.000136
3414.3	0.000324
3423.94	0.000404
3433.59	0.000427
3443.23	0.000292
3452.88	0.000404
3462.52	0.000324
3472.17	0.0004341
3481.81	0.000314
3491.46	0.000415
3501.1	0.000405
3510.75	0.000378
3520.39	0.000436
3530.04	0.000374
3539.68	0.000333
3549.32	0.000404
3558.97	0.000407
3568.61	0.000386
3578.26	0.000322
3587.9	0.000421
3597.55	0.000335
3607.19	0.000427
3616.84	0.0004
3626.48	0.0005212
3636.13	0.000312
3645.77	0.0004397
3655.42	0.00055071
3665.06	0.000414
3674.71	0.000415
3684.35	0.0004889
3694	0.000389
3703.64	0.00058607
3713.29	0.0004392
3722.93	0.00055218
3732.58	0.00060902
3742.22	0.00056527
3751.86	0.000684
3761.51	0.0007287
3771.15	0.0006733
3780.8	0.000711
3790.44	0.0004624
3800.09	0.0007123
3809.73	0.0005159
3819.38	0.00063314
3829.02	0.0006408
3838.67	0.0008007
3848.31	0.0007473
3857.96	0.0007535
3867.6	0.0010497
3877.25	0.000962
3886.89	0.0010477
3896.54	0.0010591
3906.18	0.0009477
3915.83	0.0011197
3925.47	0.0011621
3935.12	0.0012874
3944.76	0.0011795
3954.41	0.0014173
3964.05	0.001624
3973.69	0.001694
3983.34	0.001794
3992.98	0.001874
