Infrared Spectrum: 3,5-Dichlorophenyl isothiocyanate
Formula: C 7 H 3 Cl 2 N S
CAS: 6590-93-8
State: gas
Origin: EPA-IR VAPOR PHASE LIBRARY
1/CM	ABSORBANCE
549.8	0.024246
559.445	0.019506
569.09	0.014606
578.734	0.011436
588.379	0.009456
598.024	0.011286
607.669	0.009546
617.313	0.006066
626.958	0.003426
636.603	0.002046
646.248	0.002186
655.893	0.011406
665.537	0.019706
675.182	0.004546
684.827	0.002496
694.472	0.003436
704.116	0.004126
713.761	0.005356
723.406	0.006756
733.051	0.007146
742.695	0.008656
752.34	0.022766
761.985	0.057056
771.63	0.053696
781.275	0.022326
790.919	0.022146
800.564	0.026046
810.209	0.043886
819.854	0.055346
829.498	0.025916
839.143	0.017826
848.788	0.039686
858.433	0.041866
868.078	0.017746
877.722	0.007426
887.367	0.004296
897.012	0.004506
906.657	0.004066
916.301	0.004346
925.946	0.003056
935.591	0.001716
945.236	0.0016036
954.88	0.0015009
964.525	0.0014678
974.17	0.0013485
983.815	0.001161
993.46	0.001511
1003.1	0.001746
1012.75	0.001716
1022.39	0.001956
1032.04	0.001786
1041.68	0.002046
1051.33	0.001746
1060.97	0.002986
1070.62	0.002766
1080.26	0.005646
1089.91	0.007876
1099.55	0.017026
1109.2	0.028206
1118.84	0.005646
1128.49	0.0013636
1138.13	0.0013128
1147.78	0.0013021
1157.42	0.0009209
1167.07	0.0007909
1176.71	0.0012015
1186.36	0.0010328
1196	0.001539
1205.64	0.0014413
1215.29	0.002466
1224.93	0.002746
1234.58	0.001561
1244.22	0.001956
1253.87	0.002806
1263.51	0.003046
1273.16	0.0015305
1282.8	0.0015779
1292.45	0.0014372
1302.09	0.0012744
1311.74	0.0014019
1321.38	0.0014412
1331.03	0.0013416
1340.67	0.0012642
1350.32	0.0012165
1359.96	0.001756
1369.61	0.005146
1379.25	0.012146
1388.9	0.016136
1398.54	0.019546
1408.18	0.030846
1417.83	0.043756
1427.47	0.046226
1437.12	0.034576
1446.76	0.015726
1456.41	0.007056
1466.05	0.005146
1475.7	0.003656
1485.34	0.002466
1494.99	0.002746
1504.63	0.004306
1514.28	0.008216
1523.92	0.012036
1533.57	0.012356
1543.21	0.017816
1552.86	0.050596
1562.5	0.134476
1572.15	0.209696
1581.79	0.247956
1591.44	0.109146
1601.08	0.026736
1610.73	0.014606
1620.37	0.010746
1630.01	0.007106
1639.66	0.004656
1649.3	0.004136
1658.95	0.003346
1668.59	0.002346
1678.24	0.002006
1687.88	0.001866
1697.53	0.002626
1707.17	0.004576
1716.82	0.006126
1726.46	0.006266
1736.11	0.004926
1745.75	0.002866
1755.4	0.002656
1765.04	0.002816
1774.69	0.002666
1784.33	0.002656
1793.98	0.003206
1803.62	0.004036
1813.27	0.004196
1822.91	0.004206
1832.55	0.004226
1842.2	0.004056
1851.84	0.004156
1861.49	0.004336
1871.13	0.004856
1880.78	0.005986
1890.42	0.007726
1900.07	0.010556
1909.71	0.015166
1919.36	0.022186
1929	0.032446
1938.65	0.048036
1948.29	0.071766
1957.94	0.101576
1967.58	0.136926
1977.23	0.187216
1986.87	0.246566
1996.52	0.257576
2006.16	0.246276
2015.81	0.282506
2025.45	0.367556
2035.1	0.384906
2044.74	0.287496
2054.38	0.210166
2064.03	0.214236
2073.67	0.264176
2083.32	0.254616
2092.96	0.192406
2102.61	0.135346
2112.25	0.110186
2121.9	0.101066
2131.54	0.089276
2141.19	0.064706
2150.83	0.040796
2160.48	0.026706
2170.12	0.019806
2179.77	0.015326
2189.41	0.011856
2199.06	0.009296
2208.7	0.007886
2218.35	0.007496
2227.99	0.007796
2237.64	0.008696
2247.28	0.010326
2256.92	0.011496
2266.57	0.009366
2276.21	0.005426
2285.86	0.003726
2295.5	0.003066
2305.15	0.002516
2314.79	0.002006
2324.44	0.001886
2334.08	0.001896
2343.73	0.002166
2353.37	0.002416
2363.02	0.002866
2372.66	0.002906
2382.31	0.003116
2391.95	0.003426
2401.6	0.003726
2411.24	0.003646
2420.89	0.003596
2430.53	0.003816
2440.18	0.004146
2449.82	0.003866
2459.47	0.003286
2469.11	0.003186
2478.75	0.003426
2488.4	0.003966
2498.04	0.004196
2507.69	0.004306
2517.33	0.004346
2526.98	0.004416
2536.62	0.004406
2546.27	0.004686
2555.91	0.004676
2565.56	0.005226
2575.2	0.006586
2584.85	0.006736
2594.49	0.004326
2604.14	0.002526
2613.78	0.001936
2623.43	0.001856
2633.07	0.001746
2642.72	0.0015634
2652.36	0.0014383
2662.01	0.0013578
2671.65	0.0012908
2681.29	0.0013908
2690.94	0.0013663
2700.58	0.001214
2710.23	0.0011592
2719.87	0.0013078
2729.52	0.001444
2739.16	0.001936
2748.81	0.002446
2758.45	0.002796
2768.1	0.003046
2777.74	0.003646
2787.39	0.004456
2797.03	0.005536
2806.68	0.005456
2816.32	0.004236
2825.97	0.003486
2835.61	0.003216
2845.26	0.003066
2854.9	0.002426
2864.55	0.001736
2874.19	0.0013375
2883.84	0.0011324
2893.48	0.0010836
2903.12	0.0013172
2912.77	0.0012685
2922.41	0.001306
2932.06	0.0011399
2941.7	0.001309
2951.35	0.0011541
2960.99	0.0013049
2970.64	0.0014616
2980.28	0.001666
2989.93	0.0014388
2999.57	0.0013066
3009.22	0.001148
3018.86	0.0010365
3028.51	0.0010228
3038.15	0.0010711
3047.8	0.0010076
3057.44	0.0008926
3067.09	0.00065279
3076.73	0.0010139
3086.38	0.001616
3096.02	0.0012638
3105.67	0.000512
3115.31	0.0005573
3124.95	0.0010101
3134.6	0.0011016
3144.24	0.0007438
3153.89	0.0007136
3163.53	0.000425
3173.18	0.000485
3182.82	0.000244
3192.47	0.000127
3202.11	0.000341
3211.76	0.000307
3221.4	0.000243
3231.05	0.00021
3240.69	8.1e-05
3250.34	0.000314
3259.98	0.00028
3269.63	0.000337
3279.27	0.000106
3288.92	0.000355
3298.56	0.000283
3308.21	0.0003
3317.85	0.000225
3327.49	0.000294
3337.14	4.9e-05
3346.78	0.00018
3356.43	0.000214
3366.07	0.000344
3375.72	0.000346
3385.36	0.000223
3395.01	0.000392
3404.65	0.000412
3414.3	0.000403
3423.94	0.000425
3433.59	0.00041
3443.23	0.000417
3452.88	0.000441
3462.52	0.00041
3472.17	0.0005786
3481.81	0.000539
3491.46	0.00035
3501.1	0.000487
3510.75	0.000491
3520.39	0.000437
3530.04	0.000293
3539.68	0.000344
3549.32	0.0006339
3558.97	0.000391
3568.61	0.00049
3578.26	0.000459
3587.9	0.000394
3597.55	0.000415
3607.19	0.000341
3616.84	0.000435
3626.48	0.000231
3636.13	0.00032
3645.77	0.0005801
3655.42	0.000454
3665.06	0.000345
3674.71	0.0005937
3684.35	0.000504
3694	0.000499
3703.64	0.000495
3713.29	0.00066943
3722.93	0.000381
3732.58	0.0006499
3742.22	0.00045
3751.86	0.0007763
3761.51	0.000701
3771.15	0.00064022
3780.8	0.000496
3790.44	0.0005357
3800.09	0.0007066
3809.73	0.0009072
3819.38	0.000839
3829.02	0.00065724
3838.67	0.0007487
3848.31	0.0008218
3857.96	0.0008476
3867.6	0.0010216
3877.25	0.0011134
3886.89	0.0013495
3896.54	0.0011115
3906.18	0.0014079
3915.83	0.001626
3925.47	0.001676
3935.12	0.001706
3944.76	0.001836
3954.41	0.001906
3964.05	0.001966
3973.69	0.001896
3983.34	0.001946
3992.98	0.002106
