Infrared Spectrum: Dicamba, methyl ester
Formula: C 9 H 8 Cl 2 O 3
CAS: 6597-78-0
State: gas
Instrument: HP-GC/MS/IRD
Origin: NIST Mass Spectrometry Data Center
1/CM	ABSORBANCE
550	0.002035
562	0.0032725
574	0.0099275
586	0.017435
598	0.016995
610	0.0113575
622	0.00748
634	0.004785
646	0.0033
658	0.0011825
670	0.0004675
682	0.00022
694	8.25e-05
706	0.0004675
718	0.00561
730	0.0125125
742	0.005335
754	0.00275
766	0.0072875
778	0.01023
790	0.008745
802	0.03058
814	0.0180125
826	0.003355
838	0.006105
850	0.01573
862	0.00891
874	0.014025
886	0.013695
898	0.0037125
910	0.0022825
922	0.0020075
934	0.0025025
946	0.0042625
958	0.0116875
970	0.0333575
982	0.03278
994	0.01969
1006	0.0571725
1018	0.11374
1030	0.0460075
1042	0.0127875
1054	0.009075
1066	0.0099275
1078	0.01298
1090	0.02321
1102	0.04708
1114	0.0600325
1126	0.03663
1138	0.01958
1150	0.0167475
1162	0.0385275
1174	0.08833
1186	0.04928
1198	0.03047
1210	0.0265925
1222	0.035805
1234	0.0670725
1246	0.0851675
1258	0.166485
1270	0.275
1282	0.15092
1294	0.052305
1306	0.02387
1318	0.0159775
1330	0.013145
1342	0.010615
1354	0.010725
1366	0.013035
1378	0.0201025
1390	0.056925
1402	0.0824175
1414	0.030085
1426	0.038665
1438	0.0688875
1450	0.06248
1462	0.081235
1474	0.0381975
1486	0.0138875
1498	0.0094325
1510	0.0070125
1522	0.00561
1534	0.0055825
1546	0.00836
1558	0.0200475
1570	0.0362725
1582	0.0263725
1594	0.0097075
1606	0.0066825
1618	0.0049775
1630	0.00352
1642	0.0029975
1654	0.0030525
1666	0.0031075
1678	0.002915
1690	0.004015
1702	0.0071225
1714	0.013695
1726	0.0171875
1738	0.03432
1750	0.12353
1762	0.16841
1774	0.05786
1786	0.01606
1798	0.012375
1810	0.0070125
1822	0.0045375
1834	0.002585
1846	0.002145
1858	0.00264
1870	0.00385
1882	0.0030525
1894	0.002145
1906	0.00143
1918	0.0009625
1930	0.0012375
1942	0.001705
1954	0.001705
1966	0.0011825
1978	0.0008525
1990	0.0007975
2002	0.000825
2014	0.0011825
2026	0.0014575
2038	0.0013475
2050	0.0010175
2062	0.00088
2074	0.0011
2086	0.001265
2098	0.0012375
2110	0.0014575
2122	0.0014575
2134	0.0011275
2146	0.0009625
2158	0.00066
2170	0.000275
2182	0.0001375
2194	8.25e-05
2206	5.5e-05
2218	5.5e-05
2230	0
2242	8.25e-05
2254	0.00022
2266	0.0003575
2278	0.00044
2290	0.000275
2302	0.000165
2314	0.0001375
2326	0.0001375
2338	0.0003025
2350	0.000275
2362	0.0001925
2374	0.0002475
2386	0.00022
2398	0.0001925
2410	0.0002475
2422	0.0001925
2434	0.00022
2446	0.00022
2458	0.000275
2470	0.0003025
2482	0.00044
2494	0.0006325
2506	0.000715
2518	0.000495
2530	0.000385
2542	0.0002475
2554	8.25e-05
2566	0.000165
2578	0.00022
2590	0.00033
2602	0.0004125
2614	0.0004125
2626	0.0003575
2638	0.000385
2650	0.000495
2662	0.0004675
2674	0.0004125
2686	0.0003025
2698	0.00033
2710	0.0003025
2722	0.00033
2734	0.00033
2746	0.00033
2758	0.000275
2770	0.00033
2782	0.000605
2794	0.0010725
2806	0.0016225
2818	0.002585
2830	0.0047575
2842	0.0079475
2854	0.0086075
2866	0.0080575
2878	0.0103125
2890	0.009405
2902	0.00913
2914	0.0094325
2926	0.009405
2938	0.0137775
2950	0.0362725
2962	0.04983
2974	0.0197725
2986	0.0128425
2998	0.013365
3010	0.0150425
3022	0.01276
3034	0.01012
3046	0.00715
3058	0.0051425
3070	0.0047025
3082	0.0044825
3094	0.00363
3106	0.00264
3118	0.002035
3130	0.00154
3142	0.0011
3154	0.0007425
3166	0.00055
3178	0.000385
3190	0.000385
3202	0.000275
3214	0.0001925
3226	8.25e-05
3238	5.5e-05
3250	5.5e-05
3262	0
3274	0
3286	0
3298	0
3310	0
3322	5.5e-05
3334	8.25e-05
3346	2.75e-05
3358	8.25e-05
3370	8.25e-05
3382	8.25e-05
3394	8.25e-05
3406	0.00011
3418	0.000165
3430	0.0001925
3442	0.0001925
3454	0.000275
3466	0.0004125
3478	0.000825
3490	0.0015675
3502	0.0014575
3514	0.001265
3526	0.00077
3538	0.000495
3550	0.00033
3562	0.00022
3574	0.000165
3586	0.00011
3598	0.00011
3610	0.0001375
3622	8.25e-05
3634	0.00011
3646	0.00011
3658	0.00022
3670	0.000165
3682	0.0001375
3694	0.00011
3706	0.00011
3718	0.000165
3730	0.0001925
3742	0.00011
3754	0.00011
3766	0.0002475
3778	0.0001925
3790	0.0002475
3802	0.000275
3814	0.0002475
3826	0.0002475
3838	0.000275
