Infrared Spectrum: URACIL
Formula: C4 H4 N2 O2
CAS: 66-22-8
State: SOLID (SPLIT MULL)
Class: COBLENTZ III
Instrument: DOW KBr FOREPRISM-GRATING
Instrument parameters: BLAZED AT 3.5, 12.0, 20.0 MICRON AND CHANGED AT 5.0, 7.5, 14.9 MICRON
Sampling: TRANSMISSION
Resolution: 2
Origin: DOW CHEMICAL COMPANY
1/CM	TRANSMITTANCE
3804	0.7733
3795	0.7738
3786	0.7744
3777	0.775
3768	0.7756
3759	0.7758
3750	0.776
3741	0.7761
3732	0.7762
3723	0.7765
3714	0.7765
3705	0.7765
3696	0.7761
3687	0.7756
3678	0.7751
3669	0.7751
3660	0.7751
3651	0.7751
3642	0.7742
3633	0.7736
3624	0.7733
3615	0.7768
3606	0.7756
3597	0.7708
3588	0.7415
3579	0.7597
3570	0.7714
3561	0.7725
3552	0.7719
3543	0.77
3534	0.7688
3525	0.7695
3516	0.77
3507	0.7697
3498	0.7696
3489	0.7703
3480	0.7694
3471	0.7692
3462	0.7696
3453	0.7696
3444	0.7688
3435	0.7678
3426	0.7661
3417	0.7648
3408	0.7657
3399	0.7667
3390	0.7665
3381	0.7658
3372	0.7641
3363	0.7614
3354	0.7576
3345	0.7508
3336	0.7449
3327	0.7369
3318	0.7271
3309	0.7121
3300	0.6926
3291	0.6647
3282	0.6322
3273	0.5969
3264	0.5667
3255	0.5318
3246	0.4793
3237	0.4418
3228	0.4197
3219	0.4133
3210	0.409
3201	0.3984
3192	0.3503
3183	0.3126
3174	0.2988
3165	0.2908
3156	0.2802
3147	0.2615
3138	0.2258
3129	0.2044
3120	0.1871
3111	0.1806
3102	0.1811
3093	0.1851
3084	0.1968
3075	0.2153
3066	0.2571
3057	0.2706
3048	0.2703
3039	0.266
3030	0.2843
3021	0.3
3012	0.3007
3003	0.298
2994	0.2857
2985	0.2728
2976	0.2926
2967	0.3129
2958	0.325
2949	0.2871
2940	0.2371
2931	0.2296
2922	0.2573
2913	0.3014
2904	0.3405
2895	0.3502
2886	0.3672
2877	0.4096
2868	0.428
2859	0.4038
2850	0.4003
2841	0.4465
2832	0.481
2823	0.4446
2814	0.4493
2805	0.4537
2796	0.4948
2787	0.5393
2778	0.5604
2769	0.5791
2760	0.592
2751	0.596
2742	0.5906
2733	0.5866
2724	0.5884
2715	0.6285
2706	0.6532
2697	0.6582
2688	0.6611
2679	0.6715
2670	0.6867
2661	0.6965
2652	0.7025
2643	0.7085
2634	0.7141
2625	0.7168
2616	0.7188
2607	0.7228
2598	0.7274
2589	0.7318
2580	0.7378
2571	0.7475
2562	0.7495
2553	0.7489
2544	0.7484
2535	0.7512
2526	0.7558
2517	0.7586
2508	0.7575
2499	0.7553
2490	0.7528
2481	0.7498
2472	0.746
2463	0.7415
2454	0.7386
2445	0.7532
2436	0.7587
2427	0.759
2418	0.7593
2409	0.7597
2400	0.7603
2391	0.7622
2382	0.7724
2373	0.7848
2364	0.7805
2355	0.7794
2346	0.7849
2337	0.7875
2328	0.7846
2319	0.7808
2310	0.7804
2301	0.7805
2292	0.7858
2283	0.7857
2274	0.7882
2265	0.7901
2256	0.7905
2247	0.7871
2238	0.7878
2229	0.7897
2220	0.7921
2211	0.7945
2202	0.7968
2193	0.7991
2184	0.8017
2175	0.8048
2166	0.808
2157	0.8107
2148	0.8133
2139	0.8155
2130	0.8171
2121	0.8171
2112	0.8167
2103	0.8158
2094	0.8165
2085	0.8181
2076	0.82
2067	0.8225
2058	0.826
2049	0.8293
2040	0.8285
2031	0.8231
2022	0.8213
2013	0.8213
2004	0.8218
1995	0.8218
1986	0.8293
1977	0.8385
1968	0.8451
1959	0.8573
1950	0.8524
1941	0.8578
1932	0.8568
1923	0.8578
1914	0.8612
1905	0.8647
1896	0.866
1887	0.8634
1878	0.8575
1869	0.8558
1860	0.8524
1851	0.8468
1842	0.839
1833	0.8288
1824	0.7868
1815	0.7095
1806	0.6196
1797	0.5529
1788	0.4605
1779	0.4114
1770	0.3395
1761	0.3345
1752	0.3408
1743	0.1016
1734	0.0459
1725	0.0717
1716	0.0234
1707	0.1327
1698	0.2265
1689	0.196
1680	0.118
1671	0.081
1662	0.0871
1653	0.0914
1644	0.0957
1635	0.1446
1626	0.2062
1617	0.2929
1608	0.349
1599	0.4066
1590	0.4493
1581	0.4957
1572	0.5403
1563	0.5615
1554	0.5846
1545	0.6103
1536	0.6189
1527	0.606
1518	0.5987
1509	0.5558
1500	0.6381
1491	0.6784
1482	0.7011
1473	0.695
1464	0.5799
1455	0.3716
1446	0.4916
1437	0.6241
1428	0.476
1419	0.2483
1410	0.5636
1401	0.6637
1392	0.5039
1383	0.6901
1374	0.7251
1365	0.7353
1356	0.7291
1347	0.7167
1338	0.7137
1329	0.7164
1320	0.7296
1311	0.733
1302	0.7307
1293	0.735
1284	0.7401
1275	0.7326
1266	0.7274
1257	0.7187
1248	0.6068
1239	0.1595
1230	0.2228
1221	0.5245
1212	0.6002
1203	0.6848
1194	0.7183
1185	0.7287
1176	0.7403
1167	0.7536
1158	0.7553
1149	0.7599
1140	0.7651
1131	0.769
1122	0.7704
1113	0.7751
1104	0.7722
1095	0.7581
1086	0.775
1077	0.7794
1068	0.7814
1059	0.7835
1050	0.7856
1041	0.7811
1032	0.7775
1023	0.7778
1014	0.7661
1005	0.5754
996	0.6337
987	0.6882
978	0.7421
969	0.7594
960	0.766
951	0.7653
942	0.7624
933	0.7593
924	0.7558
915	0.7474
906	0.7325
897	0.7071
888	0.6454
879	0.5589
870	0.4773
861	0.3991
852	0.3744
843	0.4149
834	0.4427
825	0.3384
816	0.494
807	0.515
798	0.5672
789	0.6129
780	0.6508
771	0.6714
762	0.4886
753	0.7687
744	0.7825
735	0.7803
726	0.7811
717	0.799
708	0.8238
699	0.8325
690	0.839
681	0.8387
672	0.8471
663	0.8571
654	0.8577
645	0.8548
636	0.8517
627	0.8486
618	0.8446
609	0.8374
600	0.8328
591	0.8205
582	0.7172
573	0.7587
564	0.4568
555	0.5388
546	0.3126
537	0.6399
528	0.7258
519	0.8021
510	0.8135
501	0.8131
492	0.8088
483	0.8014
474	0.7921
465	0.7799
456	0.7621
447	0.6208
438	0.363
429	0.421
420	0.5602
411	0.58
402	0.5828
