Infrared Spectrum: URACIL, 5-[BIS(2-CHLOROETHYL)-AMINO]-
Formula: C8 H11 Cl2 N3 O2
CAS: 66-75-1
State: SOLID (KBr DISC) VS KBr
Class: COBLENTZ III
Instrument: PERKIN-ELMER 21 (GRATING)
Instrument parameters: FILTER AT ABOUT 10 MICRONS
Sampling: TRANSMISSION
Resolution: 2
1/CM	TRANSMITTANCE
4000	0.8832
3991	0.8837
3982	0.8841
3973	0.8846
3964	0.8851
3955	0.8855
3946	0.886
3937	0.8865
3928	0.8868
3919	0.8873
3910	0.8878
3901	0.8883
3892	0.8888
3883	0.8892
3874	0.89
3865	0.8909
3856	0.8918
3847	0.8927
3838	0.8935
3829	0.8944
3820	0.8953
3811	0.8961
3802	0.8971
3793	0.898
3784	0.8989
3775	0.8998
3766	0.9007
3757	0.9016
3748	0.9025
3739	0.9035
3730	0.9044
3721	0.9054
3712	0.9062
3703	0.9071
3694	0.908
3685	0.9085
3676	0.909
3667	0.9095
3658	0.9098
3649	0.9101
3640	0.9103
3631	0.9101
3622	0.9089
3613	0.9071
3604	0.9032
3595	0.8989
3586	0.8931
3577	0.8868
3568	0.881
3559	0.8759
3550	0.8708
3541	0.8663
3532	0.8618
3523	0.8575
3514	0.8533
3505	0.8492
3496	0.845
3487	0.8409
3478	0.837
3469	0.8332
3460	0.8295
3451	0.8258
3442	0.8225
3433	0.8193
3424	0.8167
3415	0.8155
3406	0.8168
3397	0.8185
3388	0.8201
3379	0.8218
3370	0.8237
3361	0.8246
3352	0.8255
3343	0.8254
3334	0.8218
3325	0.8062
3316	0.7854
3307	0.7587
3298	0.7469
3289	0.7295
3280	0.6831
3271	0.6455
3262	0.6021
3253	0.5668
3244	0.5626
3235	0.5606
3226	0.5587
3217	0.5552
3208	0.5478
3199	0.5228
3190	0.4897
3181	0.4562
3172	0.4429
3163	0.4365
3154	0.4314
3145	0.4242
3136	0.3964
3127	0.3487
3118	0.3169
3109	0.3088
3100	0.3069
3091	0.3062
3082	0.3054
3073	0.2941
3064	0.2781
3055	0.2725
3046	0.2718
3037	0.2731
3028	0.2808
3019	0.2942
3010	0.3061
3001	0.3081
2992	0.3088
2983	0.3082
2974	0.3071
2965	0.3028
2956	0.2952
2947	0.285
2938	0.2762
2929	0.2722
2920	0.2718
2911	0.273
2902	0.2764
2893	0.2911
2884	0.3118
2875	0.3249
2866	0.335
2857	0.3368
2848	0.3296
2839	0.3223
2830	0.3406
2821	0.3794
2812	0.4191
2803	0.4565
2794	0.4925
2785	0.5147
2776	0.5285
2767	0.5391
2758	0.55
2749	0.5695
2740	0.586
2731	0.6018
2722	0.6199
2713	0.6395
2704	0.6601
2695	0.6768
2686	0.69
2677	0.7021
2668	0.7136
2659	0.7241
2650	0.7328
2641	0.7415
2632	0.751
2623	0.7606
2614	0.7694
2605	0.7775
2596	0.7861
2587	0.7956
2578	0.8047
2569	0.8133
2560	0.8206
2551	0.8275
2542	0.8338
2533	0.8388
2524	0.8435
2515	0.8468
2506	0.8503
2497	0.8537
2488	0.8568
2479	0.8597
2470	0.8613
2461	0.8625
2452	0.8624
2443	0.8623
2434	0.8638
2425	0.8673
2416	0.8718
2407	0.8762
2398	0.8801
2389	0.8821
2380	0.8809
2371	0.8801
2362	0.8797
2353	0.8795
2344	0.8796
2335	0.8799
2326	0.8818
2317	0.8916
2308	0.904
2299	0.9144
2290	0.9228
2281	0.9294
2272	0.9304
2263	0.931
2254	0.9318
2245	0.9328
2236	0.9339
2227	0.9349
2218	0.9364
2209	0.9378
2200	0.9394
2191	0.941
2182	0.9425
2173	0.9445
2164	0.9466
2155	0.9488
2146	0.9513
2137	0.9542
2128	0.9571
2119	0.9588
2110	0.96
2101	0.9609
2092	0.9627
2083	0.9641
2074	0.9644
2065	0.9642
2056	0.9673
2047	0.9711
2038	0.9691
2029	0.9603
2020	0.9594
2011	0.969
2002	0.9718
1993	0.9732
1984	0.9748
1975	0.9778
1966	0.9806
1957	0.9828
1948	0.9844
1939	0.9837
1930	0.9813
1921	0.9767
1912	0.975
1903	0.9751
1894	0.9728
1885	0.9698
1876	0.9682
1867	0.9668
1858	0.9598
1849	0.9509
1840	0.9361
1831	0.9061
1822	0.8689
1813	0.8181
1804	0.7358
1795	0.6846
1786	0.6771
1777	0.6332
1768	0.5582
1759	0.4312
1750	0.2719
1741	0.0645
1732	0.0469
1723	0.1402
1714	0.2841
1705	0.3625
1696	0.3768
1687	0.2566
1678	0.125
1669	0.0451
1660	0.0415
1651	0.0457
1642	0.0842
1633	0.1577
1624	0.2326
1615	0.3128
1606	0.392
1597	0.4626
1588	0.5191
1579	0.5537
1570	0.5915
1561	0.6102
1552	0.6615
1543	0.6894
1534	0.7275
1525	0.7305
1516	0.7319
1507	0.7725
1498	0.7961
1489	0.7851
1480	0.6062
1471	0.6944
1462	0.4794
1453	0.3642
1444	0.5559
1435	0.4849
1426	0.66
1417	0.7764
1408	0.781
1399	0.5871
1390	0.6231
1381	0.7919
1372	0.8092
1363	0.6515
1354	0.6847
1345	0.5371
1336	0.6915
1327	0.7676
1318	0.7317
1309	0.5351
1300	0.793
1291	0.8304
1282	0.8302
1273	0.6851
1264	0.5782
1255	0.2713
1246	0.3059
1237	0.4645
1228	0.4118
1219	0.6221
1210	0.6889
1201	0.4978
1192	0.5698
1183	0.7414
1174	0.7306
1165	0.6091
1156	0.7568
1147	0.8274
1138	0.8378
1129	0.6693
1120	0.6586
1111	0.8267
1102	0.8665
1093	0.8786
1084	0.8618
1075	0.8224
1066	0.8768
1057	0.9027
1048	0.9127
1039	0.9091
1030	0.9052
1021	0.8564
1012	0.8252
1003	0.867
994	0.8847
985	0.8635
976	0.7069
967	0.8488
958	0.8905
949	0.8914
940	0.7698
931	0.6714
922	0.839
913	0.8475
904	0.7961
895	0.7275
886	0.7086
877	0.536
868	0.6397
859	0.6056
850	0.5055
841	0.5065
832	0.6026
823	0.7006
814	0.7624
805	0.7951
796	0.8055
787	0.6241
778	0.5756
769	0.7121
760	0.7328
751	0.516
742	0.8072
733	0.8627
724	0.8945
715	0.7336
706	0.8141
697	0.9014
688	0.9206
679	0.9147
670	0.6517
661	0.6578
652	0.8011
