Infrared Spectrum: BIS-HYDROXYCOUMARIN
Formula: C19 H12 O6
CAS: 66-76-2
State: SOLID (0.8 mg / 200 mg KBr DISC) VS KBr
Melting point: 287-293 C
Class: COBLENTZ III
Instrument: PERKIN-ELMER 21 (GRATING)
Instrument parameters: FILTER AT ABOUT 10 MICRONS
Sampling: TRANSMISSION
Path length: 0.055 CM (THICKNESS)
Resolution: 2
1/CM	TRANSMITTANCE
4000	0.6157
3991	0.6168
3982	0.6179
3973	0.6191
3964	0.6203
3955	0.6214
3946	0.6226
3937	0.6238
3928	0.6248
3919	0.6259
3910	0.6269
3901	0.628
3892	0.6291
3883	0.6301
3874	0.6312
3865	0.6323
3856	0.6335
3847	0.6346
3838	0.6358
3829	0.637
3820	0.6382
3811	0.6393
3802	0.6406
3793	0.6417
3784	0.643
3775	0.6443
3766	0.6454
3757	0.6467
3748	0.648
3739	0.6491
3730	0.6503
3721	0.6515
3712	0.6525
3703	0.6538
3694	0.655
3685	0.6561
3676	0.6575
3667	0.6588
3658	0.6601
3649	0.6612
3640	0.6625
3631	0.664
3622	0.6653
3613	0.6665
3604	0.6671
3595	0.6676
3586	0.6674
3577	0.6664
3568	0.6639
3559	0.6612
3550	0.6574
3541	0.6518
3532	0.646
3523	0.6404
3514	0.6362
3505	0.6321
3496	0.628
3487	0.6243
3478	0.6223
3469	0.6216
3460	0.6208
3451	0.6194
3442	0.616
3433	0.6122
3424	0.6072
3415	0.602
3406	0.5965
3397	0.5917
3388	0.5889
3379	0.5881
3370	0.5887
3361	0.591
3352	0.5943
3343	0.5974
3334	0.6006
3325	0.6034
3316	0.606
3307	0.6088
3298	0.6099
3289	0.6103
3280	0.6097
3271	0.6062
3262	0.5996
3253	0.5917
3244	0.5846
3235	0.5789
3226	0.5722
3217	0.5642
3208	0.5562
3199	0.5491
3190	0.5423
3181	0.535
3172	0.5269
3163	0.5151
3154	0.4994
3145	0.4847
3136	0.47
3127	0.4552
3118	0.4404
3109	0.4254
3100	0.4103
3091	0.3952
3082	0.3799
3073	0.3646
3064	0.3492
3055	0.3337
3046	0.323
3037	0.3198
3028	0.3187
3019	0.3199
3010	0.3252
3001	0.3312
2992	0.3366
2983	0.3412
2974	0.3459
2965	0.3503
2956	0.3543
2947	0.3582
2938	0.3621
2929	0.3664
2920	0.3707
2911	0.375
2902	0.3795
2893	0.3839
2884	0.3884
2875	0.394
2866	0.3999
2857	0.4062
2848	0.4144
2839	0.4225
2830	0.4306
2821	0.4379
2812	0.4499
2803	0.4662
2794	0.4764
2785	0.4859
2776	0.4888
2767	0.4873
2758	0.4777
2749	0.466
2740	0.4545
2731	0.4427
2722	0.4309
2713	0.4222
2704	0.4232
2695	0.4393
2686	0.4602
2677	0.4812
2668	0.4902
2659	0.4932
2650	0.4964
2641	0.4979
2632	0.494
2623	0.4873
2614	0.4793
2605	0.4641
2596	0.4422
2587	0.4404
2578	0.4579
2569	0.491
2560	0.5247
2551	0.5518
2542	0.5654
2533	0.576
2524	0.5866
2515	0.5962
2506	0.606
2497	0.6156
2488	0.6238
2479	0.6319
2470	0.6393
2461	0.6461
2452	0.651
2443	0.6568
2434	0.6653
2425	0.6724
2416	0.6758
2407	0.6775
2398	0.6821
2389	0.6886
2380	0.6948
2371	0.7001
2362	0.7049
2353	0.7094
2344	0.7131
2335	0.7153
2326	0.7154
2317	0.714
2308	0.7121
2299	0.7135
2290	0.7188
2281	0.7264
2272	0.7324
2263	0.7361
2254	0.7371
2245	0.7387
2236	0.743
2227	0.7474
2218	0.7517
2209	0.755
2200	0.7582
2191	0.7621
2182	0.7658
2173	0.7686
2164	0.7696
2155	0.7678
2146	0.7669
2137	0.768
2128	0.7741
2119	0.7784
2110	0.7796
2101	0.7808
2092	0.7845
2083	0.7894
2074	0.794
2065	0.7956
2056	0.7972
2047	0.7999
2038	0.8026
2029	0.8054
2020	0.8078
2011	0.8101
2002	0.8122
1993	0.8142
1984	0.8149
1975	0.8121
1966	0.8089
1957	0.8075
1948	0.8082
1939	0.8089
1930	0.8083
1921	0.8078
1912	0.8108
1903	0.814
1894	0.8172
1885	0.8206
1876	0.8233
1867	0.8257
1858	0.8266
1849	0.8271
1840	0.8282
1831	0.8278
1822	0.8203
1813	0.8171
1804	0.8249
1795	0.8317
1786	0.8357
1777	0.8365
1768	0.8273
1759	0.8065
1750	0.793
1741	0.7805
1732	0.7715
1723	0.7632
1714	0.7521
1705	0.7301
1696	0.6583
1687	0.5995
1678	0.5362
1669	0.2568
1660	0.0414
1651	0.0341
1642	0.0311
1633	0.0299
1624	0.0334
1615	0.0752
1606	0.1679
1597	0.0635
1588	0.1926
1579	0.3312
1570	0.1423
1561	0.1846
1552	0.4052
1543	0.4607
1534	0.5246
1525	0.5425
1516	0.5351
1507	0.4949
1498	0.3897
1489	0.4731
1480	0.5704
1471	0.6104
1462	0.6478
1453	0.3035
1444	0.4092
1435	0.4632
1426	0.5003
1417	0.5394
1408	0.5767
1399	0.6193
1390	0.6511
1381	0.6778
1372	0.6828
1363	0.5949
1354	0.3084
1345	0.1694
1336	0.3884
1327	0.3153
1318	0.4293
1309	0.1149
1300	0.1756
1291	0.3962
1282	0.5307
1273	0.2785
1264	0.5814
1255	0.6584
1246	0.7051
1237	0.7274
1228	0.7338
1219	0.6309
1210	0.5483
1201	0.668
1192	0.6971
1183	0.4167
1174	0.6721
1165	0.7312
1156	0.6928
1147	0.7132
1138	0.7703
1129	0.7708
1120	0.7042
1111	0.1786
1102	0.0815
1093	0.3954
1084	0.5821
1075	0.6467
1066	0.6776
1057	0.6891
1048	0.6985
1039	0.7351
1030	0.6831
1021	0.7194
1012	0.7564
1003	0.7787
994	0.7934
985	0.7815
976	0.7857
967	0.7993
958	0.6761
949	0.7434
940	0.8018
931	0.81
922	0.8014
913	0.5145
904	0.6681
895	0.7634
886	0.7694
877	0.7732
868	0.7564
859	0.7668
850	0.78
841	0.73
832	0.6204
823	0.7371
814	0.6837
805	0.423
796	0.5857
787	0.4037
778	0.1496
769	0.1542
760	0.3728
751	0.1944
742	0.2537
733	0.4879
724	0.6014
715	0.6643
706	0.6954
697	0.6883
688	0.7532
679	0.7483
670	0.4712
661	0.7031
652	0.7703
