Infrared Spectrum: 2-Naphthaldehyde
Formula: C 11 H 8 O
CAS: 66-99-9
State: gas
Instrument: HP-GC/MS/IRD
Origin: NIST Mass Spectrometry Data Center
1/CM	ABSORBANCE
550	0.000138
562	0.0004554
574	0.0009867
586	0.0006762
598	0.0008073
610	0.0008832
622	0.0004761
634	0.0002898
646	0.0001104
658	9.66e-05
670	3.45e-05
682	0.000207
694	0.0001725
706	0.0003726
718	0.0022149
730	0.008487
742	0.0126684
754	0.008694
766	0.0051612
778	0.0038847
790	0.0038916
802	0.0056166
814	0.0084594
826	0.0047472
838	0.0026013
850	0.0043953
862	0.003657
874	0.0025254
886	0.0022356
898	0.0018423
910	0.0025392
922	0.0012834
934	0.0005658
946	0.000828
958	0.000966
970	0.0008487
982	0.0004968
994	0.0006762
1006	0.0006279
1018	0.0010626
1030	0.0005313
1042	0.0001449
1054	0.0001449
1066	0.0001863
1078	0.0002691
1090	0.0005106
1102	0.0018699
1114	0.0079695
1126	0.0067827
1138	0.0025875
1150	0.005658
1162	0.0093633
1174	0.0057684
1186	0.0012627
1198	0.0022011
1210	0.0025944
1222	0.0014835
1234	0.001449
1246	0.0023874
1258	0.0040365
1270	0.0030843
1282	0.0012696
1294	0.000276
1306	0.0002553
1318	0.0004623
1330	0.0014352
1342	0.0052026
1354	0.0047334
1366	0.0021321
1378	0.0017595
1390	0.0013386
1402	0.0010557
1414	0.0003933
1426	0.0005589
1438	0.001173
1450	0.0015525
1462	0.0031464
1474	0.0022287
1486	0.0007797
1498	0.0005796
1510	0.0007866
1522	0.0004968
1534	0.0004761
1546	0.0006141
1558	0.0007452
1570	0.0013179
1582	0.0021252
1594	0.0029739
1606	0.002691
1618	0.003519
1630	0.0058926
1642	0.0027255
1654	0.0015249
1666	0.001725
1678	0.0028014
1690	0.0050094
1702	0.0167463
1714	0.0644046
1726	0.0447672
1738	0.0075969
1750	0.0026979
1762	0.0018423
1774	0.0013455
1786	0.0013869
1798	0.0012489
1810	0.0008349
1822	0.0007245
1834	0.0005451
1846	0.0004554
1858	0.0006003
1870	0.0005589
1882	0.0006279
1894	0.000828
1906	0.0007383
1918	0.0007383
1930	0.0007176
1942	0.0008142
1954	0.0006417
1966	0.000207
1978	0.0001104
1990	0.0001449
2002	0.0001587
2014	0.000138
2026	0.0001242
2038	0.0001311
2050	0.000138
2062	0.0001035
2074	7.59e-05
2086	0.0001104
2098	0.000138
2110	0.000138
2122	0.0001242
2134	0.0001035
2146	6.9e-05
2158	4.14e-05
2170	2.07e-05
2182	6.9e-06
2194	2.07e-05
2206	3.45e-05
2218	6.21e-05
2230	4.14e-05
2242	4.14e-05
2254	6.9e-05
2266	0.0001242
2278	0.0002415
2290	0.0002553
2302	0.0002415
2314	0.0001656
2326	0.0001035
2338	6.9e-05
2350	4.14e-05
2362	7.59e-05
2374	9.66e-05
2386	0.0001173
2398	0.0001104
2410	0.0001035
2422	0.000138
2434	0.0001173
2446	8.97e-05
2458	6.9e-05
2470	0.0001104
2482	8.28e-05
2494	0.0001518
2506	0.0001656
2518	0.0001587
2530	0.0001311
2542	0.0001587
2554	0.0001932
2566	0.0002001
2578	0.0002277
2590	0.0002277
2602	0.0002415
2614	0.000276
2626	0.0003174
2638	0.0004209
2650	0.0004899
2662	0.0007038
2674	0.001035
2686	0.0018699
2698	0.003657
2710	0.0061548
2722	0.0064791
2734	0.0039951
2746	0.0034707
2758	0.0040572
2770	0.0033741
2782	0.0032223
2794	0.0045471
2806	0.0081006
2818	0.0075348
2830	0.003381
2842	0.001656
2854	0.0009522
2866	0.0007245
2878	0.0007176
2890	0.0007107
2902	0.0005313
2914	0.0004347
2926	0.0004209
2938	0.0005934
2950	0.0007521
2962	0.0008763
2974	0.0009315
2986	0.0008901
2998	0.0010419
3010	0.0015594
3022	0.0022218
3034	0.0024012
3046	0.0036156
3058	0.008073
3070	0.0097566
3082	0.0053337
3094	0.002277
3106	0.0010074
3118	0.0005244
3130	0.0003588
3142	0.0002553
3154	0.0002898
3166	0.0002484
3178	0.000207
3190	0.000138
3202	0.000138
3214	0.0001725
3226	0.0002001
3238	0.0001587
3250	0.0001242
3262	0.0001863
3274	0.0001311
3286	0.0001104
3298	0.0001518
3310	0.000138
3322	0.0001173
3334	0.0001932
3346	0.0001656
3358	0.0001311
3370	0.0001518
3382	0.0002415
3394	0.0003381
3406	0.0008004
3418	0.0010971
3430	0.0005727
3442	0.0003726
3454	0.0002139
3466	0.0001518
3478	0.0001242
3490	0.0001242
3502	3.45e-05
3514	0.0001311
3526	0.0001035
3538	9.66e-05
3550	0.0001311
3562	0.0001518
3574	0.0001311
3586	7.59e-05
3598	0.0001104
3610	0.0001173
3622	7.59e-05
3634	0.0001104
3646	0.0001242
3658	0.0001449
3670	0.0001587
3682	0.000138
3694	0.0001311
3706	0.0001104
3718	0.0001311
3730	7.59e-05
3742	8.97e-05
3754	0.0001518
3766	8.97e-05
3778	0.0001311
3790	0.0001311
3802	0.0001863
3814	8.28e-05
3826	0.0001311
3838	0.0001587
