Infrared Spectrum: Diethylamine, hydrochloride
Formula: C4 H12 Cl N
CAS: 660-68-4
State: SOLID (OIL MULL)
Melting point: 226-228 C
Class: COBLENTZ III
Instrument: BAIRD (GRATING)
Instrument parameters: NaCl PRISM
Resolution: 2
Origin: WYANDOTTE CHEMICALS CORP.
1/CM	TRANSMITTANCE
625	0.6363
634	0.6736
643	0.7105
652	0.7369
661	0.6664
670	0.7725
679	0.7869
688	0.8085
697	0.8217
706	0.8082
715	0.7621
724	0.7012
733	0.7257
742	0.7496
751	0.7705
760	0.7703
769	0.7599
778	0.7456
787	0.7086
796	0.5694
805	0.1649
814	0.5266
823	0.743
832	0.7757
841	0.7722
850	0.7689
859	0.7556
868	0.7561
877	0.7574
886	0.7672
895	0.7848
904	0.7906
913	0.7509
922	0.652
931	0.7347
940	0.7609
949	0.7653
958	0.76
967	0.7547
976	0.7562
985	0.7616
994	0.7628
1003	0.7562
1012	0.7421
1021	0.7196
1030	0.6695
1039	0.5889
1048	0.4726
1057	0.3661
1066	0.382
1075	0.5254
1084	0.6001
1093	0.647
1102	0.6787
1111	0.7092
1120	0.7408
1129	0.761
1138	0.7624
1147	0.7356
1156	0.5638
1165	0.2624
1174	0.5693
1183	0.7119
1192	0.7308
1201	0.709
1210	0.6189
1219	0.6374
1228	0.7343
1237	0.7496
1246	0.7509
1255	0.7477
1264	0.7433
1273	0.7385
1282	0.7392
1291	0.7378
1300	0.7192
1309	0.6912
1318	0.6652
1327	0.6585
1336	0.6076
1345	0.4822
1354	0.5479
1363	0.5759
1372	0.4711
1381	0.2052
1390	0.311
1399	0.2477
1408	0.4255
1417	0.6138
1426	0.6183
1435	0.5917
1444	0.4295
1453	0.2395
1462	0.0818
1471	0.0811
1480	0.0677
1489	0.1801
1498	0.153
1507	0.4872
1516	0.5189
1525	0.505
1534	0.5262
1543	0.5476
1552	0.5674
1561	0.5683
1570	0.5827
1579	0.6002
1588	0.6234
1597	0.6309
1606	0.548
1615	0.5082
1624	0.679
1633	0.6807
1642	0.6655
1651	0.6249
1660	0.5886
1669	0.5731
1678	0.6114
1687	0.6726
1696	0.7216
1705	0.7345
1714	0.7133
1723	0.7315
1732	0.7233
1741	0.7459
1750	0.7942
1759	0.8332
1768	0.8544
1777	0.8363
1786	0.8584
1795	0.8552
1804	0.8312
1813	0.7994
1822	0.7758
1831	0.7298
1840	0.7391
1849	0.7238
1858	0.7277
1867	0.716
1876	0.7213
1885	0.765
1894	0.8093
1903	0.826
1912	0.8591
1921	0.8733
1930	0.8767
1939	0.8746
1948	0.8752
1957	0.8802
1966	0.8863
1975	0.8863
1984	0.8793
1993	0.8718
2002	0.8672
2011	0.867
2020	0.8679
2029	0.8671
2038	0.8641
2047	0.857
2056	0.8497
2065	0.85
2074	0.853
2083	0.8541
2092	0.8315
2101	0.8029
2110	0.7747
2119	0.7672
2128	0.7756
2137	0.7955
2146	0.8069
2155	0.8025
2164	0.7943
2173	0.7835
2182	0.7725
2191	0.7604
2200	0.7387
2209	0.7027
2218	0.6596
2227	0.6283
2236	0.624
2245	0.6346
2254	0.6539
2263	0.678
2272	0.6751
2281	0.6686
2290	0.6479
2299	0.5947
2308	0.5238
2317	0.4534
2326	0.3837
2335	0.3144
2344	0.2457
2353	0.1842
2362	0.1912
2371	0.3001
2380	0.3862
2389	0.401
2398	0.392
2407	0.3371
2416	0.2826
2425	0.2285
2434	0.1748
2443	0.1215
2452	0.0827
2461	0.0819
2470	0.1049
2479	0.1528
2488	0.2121
2497	0.268
2506	0.3013
2515	0.2877
2524	0.2703
2533	0.2871
2542	0.3388
2551	0.3902
2560	0.3818
2569	0.3505
2578	0.3237
2587	0.3106
2596	0.2928
2605	0.274
2614	0.2566
2623	0.2274
2632	0.1971
2641	0.1596
2650	0.1268
2659	0.0986
2668	0.0794
2677	0.0629
2686	0.0544
2695	0.0482
2704	0.0464
2713	0.049
2722	0.0498
2731	0.0491
2740	0.0487
2749	0.0483
2758	0.0479
2767	0.0475
2776	0.0469
2785	0.0463
2794	0.0453
2803	0.0438
2812	0.041
2821	0.0382
2830	0.033
2839	0.0294
2848	0.0286
2857	0.0284
2866	0.0288
2875	0.0293
2884	0.0298
2893	0.0303
2902	0.0309
2911	0.0313
2920	0.0317
2929	0.0322
2938	0.0331
2947	0.034
2956	0.0348
2965	0.0358
2974	0.0375
2983	0.0392
2992	0.0424
3001	0.0476
3010	0.0569
3019	0.07
3028	0.1063
3037	0.1482
3046	0.1773
3055	0.2366
3064	0.2821
3073	0.3275
3082	0.3725
3091	0.4173
3100	0.4618
3109	0.506
3118	0.5423
3127	0.561
3136	0.5735
3145	0.5767
3154	0.5787
3163	0.5816
3172	0.5974
3181	0.616
3190	0.6489
3199	0.6932
3208	0.7301
3217	0.7473
3226	0.777
3235	0.7972
3244	0.813
3253	0.8307
3262	0.847
3271	0.8573
3280	0.8662
3289	0.8822
3298	0.8926
3307	0.8971
3316	0.9013
3325	0.9053
3334	0.9087
3343	0.9118
3352	0.9148
3361	0.9177
3370	0.9206
3379	0.9235
3388	0.9267
3397	0.9301
3406	0.9345
3415	0.9403
3424	0.9448
3433	0.9494
3442	0.954
3451	0.9588
3460	0.9629
3469	0.9652
3478	0.9667
3487	0.9681
3496	0.9692
3505	0.9704
3514	0.971
3523	0.9717
3532	0.9723
3541	0.9729
3550	0.9735
3559	0.9741
3568	0.9746
3577	0.9752
3586	0.9757
3595	0.9763
3604	0.9776
3613	0.9833
3622	0.9921
3631	0.9982
3640	1.0009
3649	1.0025
3658	1.003
3667	1.0028
3676	1.0026
3685	1.0025
3694	1.0026
3703	1.0027
3712	1.0028
3721	1.0033
3730	1.0041
3739	1.0049
3748	1.0065
3757	1.0088
3766	1.0106
3775	1.0098
3784	1.007
3793	1.003
3802	0.9988
3811	0.995
3820	0.9918
3829	0.9903
3838	0.9905
3847	0.991
3856	0.992
3865	0.9931
3874	0.9941
3883	0.9946
3892	0.9947
3901	0.9946
3910	0.9935
3919	0.9925
3928	0.9907
3937	0.9888
3946	0.9868
3955	0.9848
3964	0.9827
3973	0.9807
3982	0.9787
3991	0.9767
4000	0.9746
