Infrared Spectrum: 1,3,3-Trimethoxybutane
Formula: C 7 H 16 O 3
CAS: 6607-66-5
State: gas
Instrument: HP-GC/MS/IRD
Origin: NIST Mass Spectrometry Data Center
1/CM	ABSORBANCE
550	0.0010626
562	0.0011088
574	0.000945
586	0.0006678
598	0.000735
610	0.0007812
622	0.0006888
634	0.0004998
646	8.4e-05
658	0.0002058
670	0.0002226
682	0.0002856
694	0.0003276
706	0.000399
718	0.0005502
730	0.0007266
742	0.000924
754	0.0009912
766	0.0009996
778	0.0014028
790	0.0020034
802	0.0026712
814	0.002856
826	0.0031626
838	0.0048342
850	0.008085
862	0.008589
874	0.0047922
886	0.002499
898	0.0020328
910	0.0020202
922	0.0023058
934	0.0023184
946	0.0024192
958	0.0027594
970	0.002772
982	0.0028476
994	0.0030618
1006	0.0036288
1018	0.0054138
1030	0.009618
1042	0.0179466
1054	0.0308406
1066	0.0352548
1078	0.0316302
1090	0.0266532
1102	0.0262878
1114	0.035469
1126	0.042
1138	0.0326088
1150	0.0246414
1162	0.0230496
1174	0.0236376
1186	0.0228648
1198	0.0199962
1210	0.0145824
1222	0.0112392
1234	0.0099288
1246	0.0080136
1258	0.0063504
1270	0.0052374
1282	0.0048174
1294	0.0055104
1306	0.0060396
1318	0.0047502
1330	0.003171
1342	0.0029778
1354	0.0034524
1366	0.0054558
1378	0.0101136
1390	0.0096894
1402	0.00483
1414	0.0027678
1426	0.0030114
1438	0.0037674
1450	0.004536
1462	0.0052626
1474	0.0046956
1486	0.0031416
1498	0.001911
1510	0.0013104
1522	0.0010878
1534	0.0009576
1546	0.0009156
1558	0.0008862
1570	0.000966
1582	0.000987
1594	0.0009912
1606	0.000903
1618	0.0007896
1630	0.0007224
1642	0.0007518
1654	0.000861
1666	0.0008904
1678	0.0006426
1690	0.0004326
1702	0.0003192
1714	0.0002772
1726	0.0002394
1738	0.000189
1750	0.00021
1762	0.0002352
1774	0.0002604
1786	0.000273
1798	0.0002436
1810	0.0002184
1822	0.0002226
1834	0.0001596
1846	0.0001764
1858	0.0001848
1870	0.0002184
1882	0.0002436
1894	0.000294
1906	0.000336
1918	0.000357
1930	0.000399
1942	0.0004158
1954	0.0004032
1966	0.0003906
1978	0.0004074
1990	0.0004032
2002	0.000441
2014	0.0004578
2026	0.000483
2038	0.0004704
2050	0.0005166
2062	0.0005712
2074	0.00063
2086	0.0006636
2098	0.0006342
2110	0.0006048
2122	0.0005292
2134	0.0004284
2146	0.0003612
2158	0.0002982
2170	0.0002436
2182	0.000189
2194	0.0001722
2206	0.0001512
2218	0.000189
2230	0.0001806
2242	0.0001638
2254	0.0001344
2266	8.82e-05
2278	7.56e-05
2290	9.24e-05
2302	7.56e-05
2314	0.0001008
2326	7.56e-05
2338	5.88e-05
2350	7.56e-05
2362	4.2e-05
2374	7.56e-05
2386	6.72e-05
2398	6.72e-05
2410	5.88e-05
2422	7.98e-05
2434	5.04e-05
2446	4.62e-05
2458	3.78e-05
2470	6.3e-05
2482	5.46e-05
2494	4.2e-05
2506	2.94e-05
2518	7.98e-05
2530	7.56e-05
2542	0.0001176
2554	0.0001218
2566	0.0001932
2578	0.0002394
2590	0.000315
2602	0.0003486
2614	0.0003612
2626	0.0003696
2638	0.0003738
2650	0.0003822
2662	0.000378
2674	0.0004368
2686	0.0004704
2698	0.0005208
2710	0.000609
2722	0.0007644
2734	0.0010962
2746	0.0013188
2758	0.0015624
2770	0.0018354
2782	0.0022764
2794	0.0033684
2806	0.0061446
2818	0.0107772
2830	0.0146118
2842	0.0156114
2854	0.0118734
2866	0.0125076
2878	0.015246
2890	0.0173922
2902	0.0186438
2914	0.0185262
2926	0.0200424
2938	0.0244062
2950	0.0267624
2962	0.024465
2974	0.0218316
2986	0.0212772
2998	0.0195846
3010	0.0119322
3022	0.0059388
3034	0.0039186
3046	0.0030828
3058	0.002646
3070	0.0023226
3082	0.0019278
3094	0.0015834
3106	0.0012768
3118	0.0009954
3130	0.0007896
3142	0.0005796
3154	0.0004536
3166	0.0003402
3178	0.0003444
3190	0.0002394
3202	0.0002184
3214	0.0001554
3226	0.000168
3238	0.0001806
3250	0.0001512
3262	0.0001176
3274	5.04e-05
3286	0.0001008
3298	0.0001092
3310	7.14e-05
3322	0.0001302
3334	7.56e-05
3346	7.14e-05
3358	0.000105
3370	9.66e-05
3382	5.04e-05
3394	2.94e-05
3406	7.14e-05
3418	9.24e-05
3430	8.82e-05
3442	9.24e-05
3454	3.78e-05
3466	4.2e-05
3478	7.98e-05
3490	5.88e-05
3502	7.14e-05
3514	3.36e-05
3526	7.56e-05
3538	6.72e-05
3550	5.46e-05
3562	3.78e-05
3574	7.56e-05
3586	7.56e-05
3598	8.82e-05
3610	7.56e-05
3622	0.0001092
3634	0.0001008
3646	0.0001806
3658	0.0002016
3670	0.0001386
3682	0.0001638
3694	0.0001974
3706	0.0001974
3718	0.0002562
3730	0.000168
3742	0.000168
3754	0.0001848
3766	0.000147
3778	0.0001092
3790	7.56e-05
3802	0.0001092
3814	0.0001302
3826	0.0001596
3838	0.0001596
