Infrared Spectrum: BENZIMIDAZOLE, 5,6-DICHLORO-4-NITRO-2-(TRIFLUOROMETHYL)-
Formula: C8 H2 Cl2 F3 N3 O2
CAS: 6609-41-2
State: SOLID (KBr DISC)
Class: COBLENTZ III
Instrument: UNICAM SP-200
Sampling: TRANSMISSION
Resolution: 2
Origin: FISONS LTD., VIA S.D.C. (DR. G. T. NEWBOLD)
1/CM	TRANSMITTANCE
656.31	0.859
667.901	0.778
679.492	0.6061
691.084	0.7129
702.675	0.84
714.266	0.877
725.857	0.891
737.449	0.873
749.04	0.751
760.631	0.524
772.222	0.899
783.813	0.868
795.405	0.93
806.996	0.942
818.587	0.943
830.178	0.941
841.77	0.935
853.361	0.922
864.952	0.814
876.543	0.7618
888.135	0.913
899.726	0.919
911.317	0.917
922.908	0.908
934.499	0.845
946.091	0.816
957.682	0.858
969.273	0.859
980.864	0.778
992.456	0.828
1004.05	0.832
1015.64	0.822
1027.23	0.759
1038.82	0.541
1050.41	0.801
1062	0.793
1073.59	0.77
1085.19	0.738
1096.78	0.704
1108.37	0.629
1119.96	0.512
1131.55	0.272
1143.14	0.292
1154.73	0.0811
1166.32	0.178
1177.92	0.366
1189.51	0.345
1201.1	0.159
1212.69	0.12
1224.28	0.26
1235.87	0.13
1247.46	0.142
1259.05	0.2439
1270.65	0.3241
1282.24	0.085
1293.83	0.3479
1305.42	0.531
1317.01	0.404
1328.6	0.385
1340.19	0.238
1351.78	0.609
1363.37	0.704
1374.97	0.77
1386.56	0.863
1398.15	0.851
1409.74	0.861
1421.33	0.852
1432.92	0.74
1444.51	0.6408
1456.1	0.769
1467.7	0.835
1479.29	0.862
1490.88	0.858
1502.47	0.822
1514.06	0.722
1525.65	0.484
1537.24	0.573
1548.83	0.503
1560.43	0.305
1572.02	0.5968
1583.61	0.904
1595.2	0.935
1606.79	0.936
1618.38	0.855
1629.97	0.912
1641.56	0.938
1653.16	0.941
1664.75	0.947
1676.34	0.949
1687.93	0.946
1699.52	0.942
1711.11	0.948
1722.7	0.946
1734.29	0.949
1745.89	0.946
1757.48	0.946
1769.07	0.942
1780.66	0.942
1792.25	0.938
1803.84	0.934
1815.43	0.92
1827.02	0.891
1838.62	0.919
1850.21	0.927
1861.8	0.932
1873.39	0.931
1884.98	0.927
1896.57	0.927
1908.16	0.928
1919.75	0.923
1931.34	0.922
1942.94	0.922
1954.53	0.922
1966.12	0.922
1977.71	0.921
1989.3	0.915
2000.89	0.9105
2012.48	0.907
2024.07	0.907
2035.67	0.905
2047.26	0.902
2058.85	0.8994
2070.44	0.8971
2082.03	0.8939
2093.62	0.8906
2105.21	0.889
2116.8	0.889
2128.4	0.887
2139.99	0.887
2151.58	0.8845
2163.17	0.883
2174.76	0.8807
2186.35	0.878
2197.94	0.876
2209.53	0.876
2221.13	0.8746
2232.72	0.872
2244.31	0.8681
2255.9	0.8637
2267.49	0.8596
2279.08	0.857
2290.67	0.856
2302.26	0.8562
2313.86	0.857
2325.45	0.858
2337.04	0.858
2348.63	0.8577
2360.22	0.8553
2371.81	0.8503
2383.4	0.8456
2394.99	0.8326
2406.59	0.831
2418.18	0.8291
2429.77	0.8258
2441.36	0.8225
2452.95	0.819
2464.54	0.817
2476.13	0.816
2487.72	0.8109
2499.32	0.8054
2510.91	0.7999
2522.5	0.797
2534.09	0.7864
2545.68	0.7781
2557.27	0.7749
2568.86	0.7722
2580.45	0.7683
2592.04	0.767
2603.64	0.7616
2615.23	0.7585
2626.82	0.7562
2638.41	0.75
2650	0.7487
2661.59	0.7459
2673.18	0.743
2684.77	0.7409
2696.37	0.7386
2707.96	0.7332
2719.55	0.7244
2731.14	0.72
2742.73	0.7171
2754.32	0.7133
2765.91	0.71
2777.5	0.707
2789.1	0.6999
2800.69	0.688
2812.28	0.6809
2823.87	0.677
2835.46	0.6728
2847.05	0.67
2858.64	0.67
2870.23	0.669
2881.83	0.6683
2893.42	0.6651
2905.01	0.6584
2916.6	0.6496
2928.19	0.6388
2939.78	0.6289
2951.37	0.6069
2962.96	0.5645
2974.56	0.5377
2986.15	0.5375
2997.74	0.5588
3009.33	0.5756
3020.92	0.5779
3032.51	0.582
3044.1	0.5844
3055.69	0.5897
3067.29	0.591
3078.88	0.591
3090.47	0.591
3102.06	0.5885
3113.65	0.5799
3125.24	0.5718
3136.83	0.5628
3148.42	0.5506
3160.01	0.5402
3171.61	0.5114
3183.2	0.4897
3194.79	0.4618
3206.38	0.4293
3217.97	0.3998
3229.56	0.3685
3241.15	0.331
3252.74	0.3081
3264.34	0.2777
3275.93	0.2468
3287.52	0.2381
3299.11	0.2685
3310.7	0.3322
3322.29	0.3908
3333.88	0.452
3345.47	0.5212
3357.07	0.5647
3368.66	0.5878
3380.25	0.591
3391.84	0.5985
3403.43	0.602
3415.02	0.609
3426.61	0.6103
3438.2	0.6131
3449.8	0.6148
3461.39	0.6181
3472.98	0.6204
3484.57	0.6216
3496.16	0.6239
3507.75	0.625
3519.34	0.6269
3530.93	0.6287
3542.53	0.629
3554.12	0.631
3565.71	0.631
3577.3	0.631
3588.89	0.632
3600.48	0.632
3612.07	0.632
3623.66	0.632
3635.26	0.632
3646.85	0.632
3658.44	0.632
3670.03	0.632
3681.62	0.632
3693.21	0.632
3704.8	0.632
3716.39	0.632
3727.99	0.632
3739.58	0.631
3751.17	0.63
3762.76	0.629
3774.35	0.627
3785.94	0.625
3797.53	0.625
3809.12	0.6227
3820.71	0.6186
3832.31	0.6119
3843.9	0.61
3855.49	0.6085
3867.08	0.6045
3878.67	0.602
3890.26	0.5999
3901.85	0.5967
3913.44	0.5944
3925.04	0.5921
3936.63	0.591
3948.22	0.591
3959.81	0.59
3971.4	0.588
3982.99	0.5868
3994.58	0.5845
4006.17	0.5833
4017.77	0.582
4029.36	0.58
4040.95	0.5795
4052.54	0.578
4064.13	0.5759
4075.72	0.5737
4087.31	0.573
4098.9	0.573
4110.5	0.572
4122.09	0.571
4133.68	0.57
4145.27	0.569
4156.86	0.5678
4168.45	0.567
4180.04	0.567
4191.63	0.567
4203.23	0.567
4214.82	0.566
4226.41	0.5612
4238	0.5589
4249.59	0.558
4261.18	0.5564
4272.77	0.5541
4284.36	0.554
4295.96	0.551
4307.55	0.55
4319.14	0.55
4330.73	0.548
4342.32	0.548
4353.91	0.5472
4365.5	0.547
4377.09	0.546
4388.68	0.5434
4400.28	0.5431
4411.87	0.5419
4423.46	0.539
4435.05	0.5363
4446.64	0.535
4458.23	0.5298
4469.82	0.528
4481.41	0.527
4493.01	0.528
4504.6	0.5283
4516.19	0.529
4527.78	0.529
4539.37	0.5279
4550.96	0.526
4562.55	0.525
4574.14	0.524
4585.74	0.52
4597.33	0.52
4608.92	0.52
4620.51	0.519
4632.1	0.5187
4643.69	0.518
4655.28	0.5172
4666.87	0.5159
4678.47	0.5137
4690.06	0.5124
4701.65	0.5093
4713.24	0.5079
4724.83	0.505
4736.42	0.503
4748.01	0.5021
4759.6	0.501
4771.2	0.501
4782.79	0.501
4794.38	0.5
4805.97	0.498
4817.56	0.4955
4829.15	0.4932
4840.74	0.4909
4852.33	0.49
4863.93	0.4884
4875.52	0.4871
4887.11	0.486
4898.7	0.486
4910.29	0.486
4921.88	0.483
4933.47	0.4808
4945.06	0.479
4956.66	0.479
4968.25	0.478
4979.84	0.4767
4991.43	0.475
5003.02	0.475
