Infrared Spectrum: 3-Chlorobenzoyl isothiocyanate
Formula: C 8 H 4 Cl N O S
CAS: 66090-36-6
State: gas
Origin: EPA-IR VAPOR PHASE LIBRARY
1/CM	ABSORBANCE
549.9	0.0017664
559.547	0.00181047
569.193	0.001569
578.84	0.001501
588.486	0.001444
598.133	0.001362
607.779	0.001545
617.426	0.001922
627.072	0.00315
636.719	0.00575
646.365	0.00989
656.012	0.00944
665.658	0.00554
675.305	0.00452
684.951	0.00564
694.598	0.00792
704.245	0.01119
713.891	0.01796
723.538	0.03309
733.184	0.0407
742.831	0.02983
752.477	0.01553
762.124	0.01471
771.77	0.0157
781.417	0.00634
791.063	0.0047
800.71	0.00462
810.356	0.0027838
820.003	0.00185221
829.649	0.0018031
839.296	0.0018429
848.943	0.0021781
858.589	0.00331
868.236	0.00531
877.882	0.00953
887.529	0.01673
897.175	0.01658
906.822	0.01239
916.468	0.00849
926.115	0.00711
935.761	0.00646
945.408	0.00594
955.054	0.00551
964.701	0.00501
974.347	0.00493
983.994	0.00457
993.64	0.00404
1003.29	0.00336
1012.93	0.0026335
1022.58	0.0023561
1032.23	0.0024267
1041.87	0.00291
1051.52	0.00438
1061.17	0.00847
1070.81	0.01225
1080.46	0.01355
1090.11	0.01162
1099.75	0.01099
1109.4	0.0113
1119.05	0.01006
1128.69	0.0063
1138.34	0.00475
1147.99	0.00477
1157.63	0.00591
1167.28	0.00697
1176.92	0.00638
1186.57	0.00754
1196.22	0.01492
1205.86	0.03253
1215.51	0.05892
1225.16	0.0949
1234.8	0.1097
1244.45	0.07143
1254.1	0.02922
1263.74	0.02002
1273.39	0.02277
1283.04	0.01818
1292.68	0.00881
1302.33	0.00471
1311.98	0.00327
1321.62	0.002429
1331.27	0.0019825
1340.92	0.00185866
1350.56	0.0017677
1360.21	0.001652
1369.86	0.001715
1379.5	0.0020608
1389.15	0.0026117
1398.79	0.00337
1408.44	0.00522
1418.09	0.01069
1427.73	0.01057
1437.38	0.00386
1447.03	0.00288
1456.67	0.00336
1466.32	0.0051
1475.97	0.00597
1485.61	0.00375
1495.26	0.0023625
1504.91	0.0019418
1514.55	0.00186499
1524.2	0.0021013
1533.85	0.002221
1543.49	0.0025868
1553.14	0.00369
1562.79	0.00607
1572.43	0.00832
1582.08	0.00743
1591.73	0.00521
1601.37	0.00387
1611.02	0.0025635
1620.67	0.0022248
1630.31	0.0021304
1639.96	0.0022678
1649.6	0.0025189
1659.25	0.0027904
1668.9	0.00311
1678.54	0.00408
1688.19	0.00577
1697.84	0.00926
1707.48	0.02086
1717.13	0.05306
1726.78	0.06621
1736.42	0.03748
1746.07	0.01989
1755.72	0.01292
1765.36	0.00709
1775.01	0.0051
1784.66	0.00437
1794.3	0.00397
1803.95	0.00382
1813.6	0.00375
1823.24	0.00379
1832.89	0.00397
1842.54	0.00445
1852.18	0.00519
1861.83	0.00663
1871.47	0.0091
1881.12	0.01268
1890.77	0.01712
1900.41	0.02367
1910.06	0.03356
1919.71	0.04477
1929.35	0.05719
1939	0.07488
1948.65	0.10166
1958.29	0.12719
1967.94	0.12292
1977.59	0.10468
1987.23	0.0934
1996.88	0.09307
2006.53	0.09999
2016.17	0.09804
2025.82	0.07661
2035.47	0.05168
2045.11	0.03594
2054.76	0.02675
2064.41	0.02092
2074.05	0.0169
2083.7	0.01398
2093.35	0.01179
2102.99	0.00965
2112.64	0.00787
2122.28	0.00693
2131.93	0.0064
2141.58	0.0058
2151.22	0.0053
2160.87	0.00493
2170.52	0.00463
2180.16	0.00444
2189.81	0.00408
2199.46	0.00373
2209.1	0.00319
2218.75	0.0026632
2228.4	0.0023979
2238.04	0.0022822
2247.69	0.0022372
2257.34	0.002184
2266.98	0.00188896
2276.63	0.0017997
2286.28	0.00185154
2295.92	0.0020341
2305.57	0.0020876
2315.22	0.0020954
2324.86	0.0019676
2334.51	0.00181165
2344.16	0.001623
2353.8	0.001571
2363.45	0.001435
2373.09	0.001292
2382.74	0.001238
2392.39	0.001152
2402.03	0.001127
2411.68	0.001107
2421.33	0.001136
2430.97	0.001193
2440.62	0.001262
2450.27	0.001288
2459.91	0.001325
2469.56	0.001391
2479.21	0.001329
2488.85	0.00132
2498.5	0.001338
2508.15	0.001402
2517.79	0.001447
2527.44	0.001412
2537.09	0.001376
2546.73	0.001294
2556.38	0.001196
2566.03	0.001182
2575.67	0.001083
2585.32	0.001016
2594.96	0.001115
2604.61	0.001067
2614.26	0.001087
2623.9	0.001169
2633.55	0.001279
2643.2	0.001451
2652.84	0.001459
2662.49	0.001471
2672.14	0.001428
2681.78	0.001393
2691.43	0.001434
2701.08	0.001378
2710.72	0.001158
2720.37	0.001037
2730.02	0.000968
2739.66	0.000846
2749.31	0.00076
2758.96	0.00074
2768.6	0.00061
2778.25	0.00058
2787.9	0.00054
2797.54	0.00051
2807.19	0.00044
2816.84	0.0005
2826.48	0.00051
2836.13	0.0004
2845.77	0.00043
2855.42	0.00036
2865.07	0.00038
2874.71	0.00033
2884.36	0.00034
2894.01	0.00025
2903.65	0.00027
2913.3	0.0003
2922.95	0.00015
2932.59	0.00028
2942.24	0.00024
2951.89	0.00015
2961.53	0.00011
2971.18	0.00011
2980.83	5e-05
2990.47	5e-05
3000.12	9e-05
3009.77	7e-05
3019.41	0.00013
3029.06	0.00015
3038.71	0.00012
3048.35	0.00017
3058	0.00041
3067.64	0.001068
3077.29	0.0022836
3086.94	0.0018048
3096.58	0.00081
3106.23	0.00044
3115.88	0.0003
3125.52	0.00035
3135.17	0.00024
3144.82	0.0003
3154.46	0.00033
3164.11	0.00034
3173.76	0.00045
3183.4	0.00038
3193.05	0.0003
3202.7	0.00032
3212.34	0.00043
3221.99	0.00039
3231.64	0.00044
3241.28	0.00046
3250.93	0.00055
3260.58	0.00047
3270.22	0.00041
3279.87	0.00053
3289.52	0.00065
3299.16	0.00058
3308.81	0.00065
3318.45	0.00064
3328.1	0.00078
3337.75	0.00049
3347.39	0.00063
3357.04	0.00073
3366.69	0.00074
3376.33	0.000896
3385.98	0.000834
3395.63	0.000987
3405.27	0.001164
3414.92	0.001423
3424.57	0.0017269
3434.21	0.001625
3443.86	0.001325
3453.51	0.001255
3463.15	0.00125
3472.8	0.001192
3482.45	0.001133
3492.09	0.001086
3501.74	0.001146
3511.39	0.001066
3521.03	0.001184
3530.68	0.001289
3540.33	0.00112
3549.97	0.001296
3559.62	0.001207
3569.26	0.001141
3578.91	0.001203
3588.56	0.001224
3598.2	0.001308
3607.85	0.001284
3617.5	0.001375
3627.14	0.001336
3636.79	0.001241
3646.44	0.001221
3656.08	0.001391
3665.73	0.001304
3675.38	0.001351
3685.02	0.001342
3694.67	0.001394
3704.32	0.001369
3713.96	0.001377
3723.61	0.001304
3733.26	0.001561
3742.9	0.00152
3752.55	0.001491
3762.2	0.001441
3771.84	0.001474
3781.49	0.001551
3791.13	0.001411
3800.78	0.001559
3810.43	0.001597
3820.07	0.001663
3829.72	0.001641
3839.37	0.001627
3849.01	0.0017398
3858.66	0.0017979
3868.31	0.001627
3877.95	0.0017677
3887.6	0.0017455
3897.25	0.0017675
3906.89	0.0017393
3916.54	0.001785
3926.19	0.001747
3935.83	0.00184559
3945.48	0.00182369
3955.13	0.0018003
3964.77	0.00182363
3974.42	0.001686
3984.07	0.0017554
3993.71	0.001662
