Infrared Spectrum: BENZIMIDAZOLE, 6-BROMO-4-NITRO-2-(TRIFLUOROMETHYL)-
Formula: C8 H3 Br F3 N3 O2
CAS: 6609-36-5
State: SOLID (KBr DISC)
Class: COBLENTZ III
Instrument: UNICAM SP-200
Sampling: TRANSMISSION
Resolution: 2
Origin: FISONS LTD., VIA S.D.C. (DR. G. T. NEWBOLD)
1/CM	TRANSMITTANCE
659.766	0.842
671.389	0.809
683.012	0.71
694.635	0.72
706.258	0.808
717.882	0.822
729.505	0.816
741.128	0.837
752.751	0.795
764.374	0.734
775.997	0.828
787.62	0.894
799.243	0.889
810.866	0.883
822.49	0.863
834.113	0.7711
845.736	0.8709
857.359	0.882
868.982	0.878
880.605	0.844
892.228	0.596
903.851	0.8189
915.475	0.884
927.098	0.8191
938.721	0.874
950.344	0.87
961.967	0.855
973.59	0.772
985.213	0.848
996.836	0.848
1008.46	0.829
1020.08	0.7051
1031.71	0.822
1043.33	0.817
1054.95	0.806
1066.58	0.769
1078.2	0.753
1089.82	0.73
1101.44	0.695
1113.07	0.635
1124.69	0.487
1136.31	0.24
1147.94	0.52
1159.56	0.2473
1171.18	0.3949
1182.81	0.574
1194.43	0.3252
1206.05	0.321
1217.68	0.4589
1229.3	0.589
1240.92	0.408
1252.54	0.391
1264.17	0.5849
1275.79	0.5771
1287.41	0.205
1299.04	0.2819
1310.66	0.6489
1322.28	0.718
1333.91	0.689
1345.53	0.3562
1357.15	0.513
1368.78	0.647
1380.4	0.7089
1392.02	0.8
1403.65	0.793
1415.27	0.781
1426.89	0.809
1438.51	0.747
1450.14	0.825
1461.76	0.727
1473.38	0.789
1485.01	0.81
1496.63	0.788
1508.25	0.6971
1519.88	0.4491
1531.5	0.4999
1543.12	0.773
1554.75	0.661
1566.37	0.6919
1577.99	0.7119
1589.62	0.873
1601.24	0.901
1612.86	0.909
1624.48	0.886
1636.11	0.858
1647.73	0.891
1659.35	0.911
1670.98	0.918
1682.6	0.92
1694.22	0.918
1705.85	0.914
1717.47	0.913
1729.09	0.914
1740.72	0.918
1752.34	0.91
1763.96	0.918
1775.59	0.926
1787.21	0.911
1798.83	0.922
1810.45	0.928
1822.08	0.918
1833.7	0.922
1845.32	0.93
1856.95	0.931
1868.57	0.932
1880.19	0.931
1891.82	0.93
1903.44	0.929
1915.06	0.926
1926.69	0.922
1938.31	0.922
1949.93	0.925
1961.55	0.918
1973.18	0.921
1984.8	0.923
1996.42	0.919
2008.05	0.9184
2019.67	0.9165
2031.29	0.915
2042.92	0.9151
2054.54	0.916
2066.16	0.915
2077.79	0.914
2089.41	0.913
2101.03	0.912
2112.66	0.913
2124.28	0.914
2135.9	0.915
2147.52	0.9144
2159.15	0.9121
2170.77	0.907
2182.39	0.907
2194.02	0.9077
2205.64	0.908
2217.26	0.909
2228.89	0.9085
2240.51	0.908
2252.13	0.908
2263.76	0.9073
2275.38	0.904
2287	0.9001
2298.63	0.893
2310.25	0.8945
2321.87	0.895
2333.49	0.892
2345.12	0.8887
2356.74	0.888
2368.36	0.888
2379.99	0.885
2391.61	0.885
2403.23	0.883
2414.86	0.88
2426.48	0.879
2438.1	0.8805
2449.73	0.881
2461.35	0.8799
2472.97	0.878
2484.6	0.878
2496.22	0.8771
2507.84	0.8716
2519.46	0.869
2531.09	0.866
2542.71	0.866
2554.33	0.8667
2565.96	0.8604
2577.58	0.859
2589.2	0.8589
2600.83	0.8491
2612.45	0.8473
2624.07	0.847
2635.7	0.847
2647.32	0.846
2658.94	0.8442
2670.56	0.84
2682.19	0.84
2693.81	0.8374
2705.43	0.8301
2717.06	0.8266
2728.68	0.825
2740.3	0.8235
2751.93	0.82
2763.55	0.8154
2775.17	0.8112
2786.8	0.809
2798.42	0.8016
2810.04	0.794
2821.67	0.792
2833.29	0.788
2844.91	0.7822
2856.53	0.779
2868.16	0.777
2879.78	0.7708
2891.4	0.7625
2903.03	0.759
2914.65	0.759
2926.27	0.7588
2937.9	0.756
2949.52	0.7512
2961.14	0.739
2972.77	0.734
2984.39	0.7314
2996.01	0.7291
3007.64	0.7237
3019.26	0.7142
3030.88	0.6993
3042.5	0.6604
3054.13	0.617
3065.75	0.6241
3077.37	0.6407
3089	0.6561
3100.62	0.659
3112.24	0.659
3123.87	0.6581
3135.49	0.6526
3147.11	0.6421
3158.74	0.6187
3170.36	0.5958
3181.98	0.5701
3193.61	0.5533
3205.23	0.525
3216.85	0.4917
3228.47	0.4548
3240.1	0.4212
3251.72	0.3921
3263.34	0.38
3274.97	0.4121
3286.59	0.4454
3298.21	0.5214
3309.84	0.5506
3321.46	0.5812
3333.08	0.6278
3344.71	0.6653
3356.33	0.71
3367.95	0.7175
3379.57	0.7201
3391.2	0.729
3402.82	0.7322
3414.44	0.7349
3426.07	0.737
3437.69	0.7366
3449.31	0.736
3460.94	0.737
3472.56	0.739
3484.18	0.74
3495.81	0.741
3507.43	0.742
3519.05	0.7434
3530.68	0.7434
3542.3	0.741
3553.92	0.7414
3565.54	0.745
3577.17	0.746
3588.79	0.747
3600.41	0.7483
3612.04	0.749
3623.66	0.7499
3635.28	0.75
3646.91	0.751
3658.53	0.751
3670.15	0.751
3681.78	0.751
3693.4	0.751
3705.02	0.75
3716.65	0.751
3728.27	0.75
3739.89	0.75
3751.51	0.75
3763.14	0.747
3774.76	0.746
3786.38	0.746
3798.01	0.746
3809.63	0.745
3821.25	0.7434
3832.88	0.741
3844.5	0.7409
3856.12	0.7396
3867.75	0.7373
3879.37	0.736
3890.99	0.7337
3902.62	0.7305
3914.24	0.73
3925.86	0.7278
3937.48	0.7216
3949.11	0.721
3960.73	0.7191
3972.35	0.718
3983.98	0.7155
3995.6	0.7125
4007.22	0.711
4018.85	0.711
4030.47	0.711
4042.09	0.712
4053.72	0.712
4065.34	0.713
4076.96	0.714
4088.58	0.711
4100.21	0.7077
4111.83	0.7075
4123.45	0.708
4135.08	0.7079
4146.7	0.7056
4158.32	0.704
4169.95	0.704
4181.57	0.7038
4193.19	0.701
4204.82	0.701
4216.44	0.701
4228.06	0.7
4239.69	0.6994
4251.31	0.699
4262.93	0.699
4274.55	0.6976
4286.18	0.6929
4297.8	0.688
4309.42	0.6873
4321.05	0.688
4332.67	0.688
4344.29	0.688
4355.92	0.688
4367.54	0.687
4379.16	0.6851
4390.79	0.684
4402.41	0.6825
4414.03	0.682
4425.66	0.681
4437.28	0.68
4448.9	0.6806
4460.52	0.681
4472.15	0.68
4483.77	0.679
4495.39	0.6783
4507.02	0.677
4518.64	0.676
4530.26	0.6755
4541.89	0.6732
4553.51	0.6719
4565.13	0.671
4576.76	0.67
4588.38	0.669
4600	0.6668
4611.63	0.665
4623.25	0.665
4634.87	0.664
4646.49	0.665
4658.12	0.666
4669.74	0.6633
4681.36	0.6579
4692.99	0.656
4704.61	0.6533
4716.23	0.653
4727.86	0.652
4739.48	0.651
4751.1	0.651
4762.73	0.65
4774.35	0.649
4785.97	0.648
4797.59	0.647
4809.22	0.643
4820.84	0.642
4832.46	0.642
4844.09	0.642
4855.71	0.642
4867.33	0.6414
4878.96	0.641
4890.58	0.64
4902.2	0.6396
4913.83	0.6397
4925.45	0.64
4937.07	0.6397
4948.7	0.639
4960.32	0.6382
4971.94	0.6379
4983.56	0.638
4995.19	0.638
5006.81	0.638
