Infrared Spectrum: BENZIMIDAZOLE, 4,5-DICHLORO-6-NITRO-2-(TRIFLUOROMETHYL)-
Formula: C8 H2 Cl2 F3 N3 O2
CAS: 6609-42-3
State: SOLID (KBr DISC)
Class: COBLENTZ III
Instrument: UNICAM SP-200
Sampling: TRANSMISSION
Resolution: 2
Origin: FISONS LTD., VIA S.D.C. (DR. G. T. NEWBOLD)
1/CM	TRANSMITTANCE
655.357	0.869
666.964	0.86
678.571	0.847
690.178	0.831
701.786	0.813
713.393	0.785
725	0.775
736.607	0.809
748.214	0.6771
759.821	0.6891
771.428	0.742
783.036	0.774
794.643	0.828
806.25	0.849
817.857	0.863
829.464	0.879
841.071	0.884
852.678	0.883
864.286	0.876
875.893	0.531
887.5	0.856
899.107	0.638
910.714	0.879
922.321	0.889
933.928	0.896
945.535	0.895
957.143	0.888
968.75	0.831
980.357	0.507
991.964	0.849
1003.57	0.858
1015.18	0.868
1026.79	0.835
1038.39	0.722
1050	0.795
1061.61	0.863
1073.21	0.86
1084.82	0.854
1096.43	0.831
1108.04	0.809
1119.64	0.762
1131.25	0.69
1142.86	0.4931
1154.46	0.1641
1166.07	0.108
1177.68	0.347
1189.29	0.0842
1200.89	0.369
1212.5	0.586
1224.11	0.674
1235.71	0.573
1247.32	0.2691
1258.93	0.137
1270.54	0.5568
1282.14	0.63
1293.75	0.2502
1305.36	0.0969
1316.96	0.521
1328.57	0.689
1340.18	0.3813
1351.79	0.376
1363.39	0.334
1375	0.4038
1386.61	0.667
1398.21	0.721
1409.82	0.782
1421.43	0.779
1433.04	0.748
1444.64	0.4921
1456.25	0.7079
1467.86	0.67
1479.46	0.794
1491.07	0.842
1502.68	0.835
1514.29	0.769
1525.89	0.6002
1537.5	0.5169
1549.11	0.745
1560.71	0.3922
1572.32	0.563
1583.93	0.739
1595.54	0.836
1607.14	0.835
1618.75	0.815
1630.36	0.805
1641.96	0.808
1653.57	0.841
1665.18	0.85
1676.79	0.859
1688.39	0.871
1700	0.874
1711.61	0.881
1723.21	0.882
1734.82	0.888
1746.43	0.885
1758.04	0.878
1769.64	0.896
1781.25	0.9
1792.86	0.901
1804.46	0.911
1816.07	0.911
1827.68	0.912
1839.29	0.912
1850.89	0.908
1862.5	0.911
1874.11	0.908
1885.71	0.911
1897.32	0.908
1908.93	0.908
1920.54	0.912
1932.14	0.911
1943.75	0.905
1955.36	0.901
1966.96	0.908
1978.57	0.908
1990.18	0.909
2001.79	0.9089
2013.39	0.9075
2025	0.905
2036.61	0.902
2048.21	0.9026
2059.82	0.9049
2071.43	0.906
2083.04	0.9064
2094.64	0.908
2106.25	0.909
2117.86	0.909
2129.46	0.909
2141.07	0.909
2152.68	0.909
2164.29	0.909
2175.89	0.909
2187.5	0.909
2199.11	0.909
2210.71	0.909
2222.32	0.9069
2233.93	0.904
2245.54	0.9062
2257.14	0.907
2268.75	0.9052
2280.36	0.9019
2291.96	0.897
2303.57	0.8944
2315.18	0.8931
2326.79	0.893
2338.39	0.893
2350	0.894
2361.61	0.897
2373.21	0.897
2384.82	0.8955
2396.43	0.8882
2408.04	0.887
2419.64	0.887
2431.25	0.8864
2442.86	0.886
2454.46	0.883
2466.07	0.881
2477.68	0.8769
2489.29	0.87
2500.89	0.868
2512.5	0.869
2524.11	0.868
2535.71	0.8649
2547.32	0.8557
2558.93	0.8458
2570.54	0.8345
2582.14	0.823
2593.75	0.8249
2605.36	0.827
2616.96	0.827
2628.57	0.8247
2640.18	0.82
2651.78	0.8017
2663.39	0.7869
2675	0.7783
2686.61	0.7718
2698.21	0.7691
2709.82	0.768
2721.43	0.768
2733.03	0.767
2744.64	0.766
2756.25	0.757
2767.86	0.7429
2779.46	0.7344
2791.07	0.7299
2802.68	0.7286
2814.28	0.7258
2825.89	0.701
2837.5	0.6927
2849.11	0.6871
2860.71	0.6676
2872.32	0.6431
2883.93	0.6325
2895.53	0.629
2907.14	0.629
2918.75	0.627
2930.36	0.6196
2941.96	0.6046
2953.57	0.5828
2965.18	0.5668
2976.78	0.565
2988.39	0.5643
3000	0.56
3011.61	0.5556
3023.21	0.5311
3034.82	0.5096
3046.43	0.5009
3058.03	0.4959
3069.64	0.4887
3081.25	0.485
3092.86	0.5037
3104.46	0.5105
3116.07	0.511
3127.68	0.516
3139.28	0.5236
3150.89	0.5382
3162.5	0.5606
3174.11	0.5711
3185.71	0.5784
3197.32	0.5879
3208.93	0.5984
3220.53	0.609
3232.14	0.6115
3243.75	0.6185
3255.36	0.625
3266.96	0.6296
3278.57	0.6387
3290.18	0.6458
3301.78	0.649
3313.39	0.65
3325	0.651
3336.61	0.6511
3348.21	0.65
3359.82	0.6475
3371.43	0.643
3383.03	0.639
3394.64	0.634
3406.25	0.631
3417.86	0.631
3429.46	0.6341
3441.07	0.639
3452.68	0.642
3464.28	0.6468
3475.89	0.6542
3487.5	0.6599
3499.11	0.6712
3510.71	0.687
3522.32	0.691
3533.93	0.7006
3545.53	0.7075
3557.14	0.7103
3568.75	0.7184
3580.36	0.7207
3591.96	0.7239
3603.57	0.7342
3615.18	0.736
3626.78	0.7397
3638.39	0.742
3650	0.748
3661.61	0.7506
3673.21	0.7564
3684.82	0.7592
3696.43	0.763
3708.03	0.7647
3719.64	0.766
3731.25	0.768
3742.86	0.768
3754.46	0.768
3766.07	0.766
3777.68	0.765
3789.28	0.765
3800.89	0.765
3812.5	0.766
3824.11	0.7668
3835.71	0.766
3847.32	0.7631
3858.93	0.76
3870.53	0.759
3882.14	0.7572
3893.75	0.751
3905.36	0.75
3916.96	0.749
3928.57	0.748
3940.18	0.746
3951.78	0.745
3963.39	0.7433
3975	0.74
3986.61	0.74
3998.21	0.74
4009.82	0.739
4021.43	0.739
4033.03	0.7387
4044.64	0.736
4056.25	0.7331
4067.86	0.7329
4079.46	0.7316
4091.07	0.73
4102.68	0.7319
4114.28	0.733
4125.89	0.7315
4137.5	0.7292
4149.11	0.729
4160.71	0.728
4172.32	0.727
4183.93	0.727
4195.53	0.7259
4207.14	0.723
4218.75	0.722
4230.36	0.721
4241.96	0.721
4253.57	0.721
4265.18	0.721
4276.78	0.718
4288.39	0.7157
4300	0.714
4311.61	0.7121
4323.21	0.71
4334.82	0.7114
4346.43	0.713
4358.03	0.713
4369.64	0.7118
4381.25	0.71
4392.86	0.71
4404.46	0.709
4416.07	0.708
4427.68	0.706
4439.28	0.703
4450.89	0.702
4462.5	0.7006
4474.11	0.7
4485.71	0.701
4497.32	0.701
4508.93	0.701
4520.53	0.701
4532.14	0.6999
4543.75	0.699
4555.36	0.6974
4566.96	0.695
4578.57	0.6928
4590.18	0.691
4601.78	0.691
4613.39	0.691
4625	0.6908
4636.61	0.689
4648.21	0.6872
4659.82	0.687
4671.43	0.687
4683.03	0.687
4694.64	0.685
4706.25	0.682
4717.86	0.6806
4729.46	0.6793
4741.07	0.678
4752.68	0.678
4764.28	0.678
4775.89	0.6772
4787.5	0.676
4799.11	0.676
4810.71	0.676
4822.32	0.676
4833.93	0.6738
4845.53	0.671
4857.14	0.6693
4868.75	0.669
4880.36	0.668
4891.96	0.667
4903.57	0.667
4915.18	0.666
4926.78	0.665
4938.39	0.6624
4950	0.6592
4961.61	0.656
4973.21	0.654
4984.82	0.6547
4996.43	0.654
5008.03	0.655
