Infrared Spectrum: BENZIMIDAZOLE, 4,6-DICHLORO-5-NITRO-2-(TRIFLUOROMETHYL)-
Formula: C8 H2 Cl2 F3 N3 O2
CAS: 6609-43-4
State: SOLID (KBr DISC)
Class: COBLENTZ III
Instrument: UNICAM SP-200
Sampling: TRANSMISSION
Resolution: 2
Origin: FISONS LTD., VIA S.D.C. (DR. G. T. NEWBOLD)
1/CM	TRANSMITTANCE
652.841	0.917
664.408	0.925
675.976	0.898
687.543	0.84
699.111	0.867
710.678	0.838
722.245	0.82
733.813	0.82
745.38	0.847
756.948	0.7829
768.515	0.808
780.083	0.836
791.65	0.835
803.217	0.85
814.785	0.857
826.352	0.847
837.92	0.4558
849.487	0.75
861.054	0.851
872.622	0.8041
884.189	0.809
895.757	0.889
907.324	0.908
918.892	0.91
930.459	0.91
942.026	0.91
953.594	0.906
965.161	0.898
976.729	0.869
988.296	0.635
999.863	0.827
1011.43	0.67
1023	0.7691
1034.57	0.67
1046.13	0.83
1057.7	0.864
1069.27	0.865
1080.84	0.852
1092.4	0.838
1103.97	0.793
1115.54	0.699
1127.1	0.488
1138.67	0.547
1150.24	0.1901
1161.81	0.089
1173.37	0.317
1184.94	0.2391
1196.51	0.138
1208.08	0.502
1219.64	0.589
1231.21	0.425
1242.78	0.05
1254.35	0.6109
1265.91	0.56
1277.48	0.671
1289.05	0.3611
1300.62	0.1021
1312.18	0.135
1323.75	0.313
1335.32	0.379
1346.89	0.454
1358.45	0.492
1370.02	0.664
1381.59	0.716
1393.16	0.729
1404.72	0.762
1416.29	0.779
1427.86	0.729
1439.43	0.609
1450.99	0.6199
1462.56	0.789
1474.13	0.796
1485.69	0.796
1497.26	0.802
1508.83	0.8
1520.4	0.721
1531.96	0.5889
1543.53	0.555
1555.1	0.294
1566.67	0.235
1578.23	0.571
1589.8	0.764
1601.37	0.759
1612.94	0.63
1624.5	0.79
1636.07	0.815
1647.64	0.839
1659.21	0.851
1670.77	0.859
1682.34	0.862
1693.91	0.865
1705.48	0.861
1717.04	0.871
1728.61	0.872
1740.18	0.88
1751.75	0.889
1763.31	0.893
1774.88	0.894
1786.45	0.895
1798.01	0.899
1809.58	0.896
1821.15	0.896
1832.72	0.898
1844.28	0.898
1855.85	0.898
1867.42	0.897
1878.99	0.894
1890.55	0.896
1902.12	0.895
1913.69	0.891
1925.26	0.899
1936.82	0.897
1948.39	0.899
1959.96	0.893
1971.53	0.893
1983.09	0.899
1994.66	0.893
2006.23	0.8938
2017.8	0.893
2029.36	0.893
2040.93	0.8936
2052.5	0.894
2064.07	0.895
2075.63	0.895
2087.2	0.896
2098.77	0.896
2110.34	0.893
2121.9	0.8916
2133.47	0.891
2145.04	0.891
2156.6	0.891
2168.17	0.89
2179.74	0.888
2191.31	0.888
2202.87	0.887
2214.44	0.8865
2226.01	0.885
2237.58	0.884
2249.14	0.882
2260.71	0.881
2272.28	0.8791
2283.85	0.8736
2295.41	0.8696
2306.98	0.868
2318.55	0.868
2330.12	0.868
2341.68	0.868
2353.25	0.866
2364.82	0.865
2376.39	0.8627
2387.95	0.86
2399.52	0.859
2411.09	0.856
2422.66	0.8547
2434.22	0.8514
2445.79	0.851
2457.36	0.851
2468.92	0.8472
2480.49	0.8404
2492.06	0.8372
2503.63	0.8338
2515.19	0.831
2526.76	0.829
2538.33	0.82
2549.9	0.8178
2561.46	0.8115
2573.03	0.7959
2584.6	0.7849
2596.17	0.7777
2607.73	0.774
2619.3	0.7712
2630.87	0.766
2642.44	0.7629
2654	0.7584
2665.57	0.7512
2677.14	0.7508
2688.71	0.7451
2700.27	0.7362
2711.84	0.7232
2723.41	0.7131
2734.98	0.708
2746.54	0.7072
2758.11	0.706
2769.68	0.701
2781.25	0.6989
2792.81	0.6855
2804.38	0.6692
2815.95	0.6486
2827.51	0.6444
2839.08	0.6401
2850.65	0.6397
2862.22	0.6326
2873.78	0.6193
2885.35	0.611
2896.92	0.6041
2908.49	0.6
2920.05	0.5954
2931.62	0.5699
2943.19	0.5617
2954.76	0.5469
2966.32	0.5332
2977.89	0.5289
2989.46	0.5256
3001.03	0.5191
3012.59	0.4908
3024.16	0.4795
3035.73	0.4692
3047.3	0.4663
3058.86	0.466
3070.43	0.4656
3082	0.4615
3093.57	0.4625
3105.13	0.47
3116.7	0.4769
3128.27	0.4915
3139.83	0.4994
3151.4	0.5131
3162.97	0.53
3174.54	0.5396
3186.1	0.5483
3197.67	0.5847
3209.24	0.5914
3220.81	0.5987
3232.37	0.6185
3243.94	0.6292
3255.51	0.6365
3267.08	0.6422
3278.64	0.649
3290.21	0.6513
3301.78	0.6555
3313.35	0.659
3324.91	0.66
3336.48	0.6613
3348.05	0.662
3359.62	0.6649
3371.18	0.666
3382.75	0.666
3394.32	0.668
3405.89	0.669
3417.45	0.67
3429.02	0.67
3440.59	0.6717
3452.16	0.675
3463.72	0.6763
3475.29	0.6795
3486.86	0.6834
3498.42	0.688
3509.99	0.6936
3521.56	0.6966
3533.13	0.6998
3544.69	0.7021
3556.26	0.7044
3567.83	0.7066
3579.4	0.707
3590.96	0.7072
3602.53	0.71
3614.1	0.711
3625.67	0.712
3637.23	0.716
3648.8	0.7135
3660.37	0.711
3671.94	0.714
3683.5	0.717
3695.07	0.719
3706.64	0.719
3718.21	0.7168
3729.77	0.7136
3741.34	0.711
3752.91	0.7091
3764.48	0.708
3776.04	0.707
3787.61	0.707
3799.18	0.707
3810.74	0.704
3822.31	0.7025
3833.88	0.7
3845.45	0.699
3857.01	0.698
3868.58	0.696
3880.15	0.6912
3891.72	0.6879
3903.28	0.686
3914.85	0.685
3926.42	0.685
3937.99	0.6862
3949.55	0.6856
3961.12	0.681
3972.69	0.681
3984.26	0.68
3995.82	0.68
4007.39	0.679
4018.96	0.678
4030.53	0.6767
4042.09	0.673
4053.66	0.672
4065.23	0.6719
4076.8	0.67
4088.36	0.6694
4099.93	0.6642
4111.5	0.662
4123.07	0.662
4134.63	0.662
4146.2	0.662
4157.77	0.662
4169.33	0.662
4180.9	0.661
4192.47	0.659
4204.04	0.6557
4215.6	0.654
4227.17	0.651
4238.74	0.6499
4250.31	0.648
4261.87	0.646
4273.44	0.6451
4285.01	0.644
4296.58	0.644
4308.14	0.6413
4319.71	0.6391
4331.28	0.6372
4342.85	0.6395
4354.41	0.64
4365.98	0.636
4377.55	0.6307
4389.12	0.629
4400.68	0.628
4412.25	0.629
4423.82	0.629
4435.39	0.6264
4446.95	0.625
4458.52	0.625
4470.09	0.6236
4481.65	0.6213
4493.22	0.621
4504.79	0.624
4516.36	0.625
4527.92	0.6243
4539.49	0.621
4551.06	0.6198
4562.63	0.6185
4574.19	0.6142
4585.76	0.611
4597.33	0.6107
4608.9	0.61
4620.46	0.61
4632.03	0.609
4643.6	0.608
4655.17	0.609
4666.73	0.6071
4678.3	0.605
4689.87	0.603
4701.44	0.6013
4713	0.6
4724.57	0.597
4736.14	0.5955
4747.71	0.594
4759.27	0.592
4770.84	0.592
4782.41	0.592
4793.98	0.592
4805.54	0.591
4817.11	0.591
4828.68	0.592
4840.24	0.5929
4851.81	0.591
4863.38	0.59
4874.95	0.588
4886.51	0.588
4898.08	0.588
4909.65	0.588
4921.22	0.5863
4932.78	0.585
4944.35	0.585
4955.92	0.5839
4967.49	0.581
4979.05	0.58
4990.62	0.58
