Infrared Spectrum: BENZIMIDAZOLE, 4-BROMO-6-NITRO-2-(TRIFLUOROMETHYL)-
Formula: C8 H3 Br F3 N3 O2
CAS: 6609-37-6
State: SOLID (KBr DISC)
Class: COBLENTZ III
Instrument: UNICAM SP-200
Sampling: TRANSMISSION
Resolution: 2
Origin: FISONS LTD., VIA S.D.C. (DR. G. T. NEWBOLD)
1/CM	TRANSMITTANCE
659.013	0.677
670.596	0.938
682.18	0.946
693.763	0.94
705.346	0.935
716.929	0.919
728.513	0.7499
740.096	0.885
751.679	0.5112
763.262	0.451
774.846	0.877
786.429	0.971
798.012	0.975
809.595	0.966
821.179	0.951
832.762	0.932
844.345	0.918
855.929	0.876
867.512	0.919
879.095	0.8631
890.678	0.8
902.262	0.5272
913.845	0.789
925.428	0.841
937.011	0.87
948.595	0.88
960.178	0.882
971.761	0.813
983.344	0.773
994.928	0.3303
1006.51	0.802
1018.09	0.919
1029.68	0.919
1041.26	0.91
1052.84	0.892
1064.43	0.84
1076.01	0.7301
1087.59	0.761
1099.18	0.758
1110.76	0.6611
1122.34	0.431
1133.93	0.392
1145.51	0.2801
1157.09	0.142
1168.68	0.11
1180.26	0.088
1191.84	0.182
1203.43	0.352
1215.01	0.7499
1226.59	0.818
1238.18	0.769
1249.76	0.4101
1261.34	0.5418
1272.93	0.6461
1284.51	0.729
1296.09	0.696
1307.68	0.5611
1319.26	0.264
1330.84	0.076
1342.43	0.38
1354.01	0.18
1365.59	0.5499
1377.18	0.8
1388.76	0.7531
1400.34	0.659
1411.93	0.7609
1423.51	0.853
1435.09	0.845
1446.68	0.742
1458.26	0.441
1469.84	0.73
1481.42	0.749
1493.01	0.646
1504.59	0.68
1516.17	0.546
1527.76	0.1691
1539.34	0.5125
1550.92	0.593
1562.51	0.8059
1574.09	0.916
1585.67	0.93
1597.26	0.774
1608.84	0.91
1620.42	0.904
1632.01	0.912
1643.59	0.924
1655.17	0.931
1666.76	0.934
1678.34	0.935
1689.92	0.93
1701.51	0.923
1713.09	0.917
1724.67	0.896
1736.26	0.9
1747.84	0.899
1759.42	0.901
1771.01	0.9
1782.59	0.915
1794.17	0.922
1805.76	0.923
1817.34	0.928
1828.92	0.934
1840.51	0.935
1852.09	0.932
1863.67	0.936
1875.26	0.938
1886.84	0.938
1898.42	0.938
1910.01	0.941
1921.59	0.941
1933.17	0.942
1944.76	0.945
1956.34	0.941
1967.92	0.944
1979.51	0.949
1991.09	0.945
2002.67	0.9449
2014.26	0.9443
2025.84	0.9421
2037.42	0.939
2049.01	0.9382
2060.59	0.937
2072.17	0.9356
2083.75	0.9343
2095.34	0.931
2106.92	0.93
2118.5	0.9285
2130.09	0.928
2141.67	0.927
2153.25	0.9267
2164.84	0.9224
2176.42	0.92
2188	0.918
2199.59	0.9166
2211.17	0.9106
2222.75	0.908
2234.34	0.901
2245.92	0.8935
2257.5	0.8882
2269.09	0.878
2280.67	0.8757
2292.25	0.8728
2303.84	0.8635
2315.42	0.851
2327	0.8486
2338.59	0.8463
2350.17	0.844
2361.75	0.844
2373.34	0.841
2384.92	0.8252
2396.5	0.8091
2408.09	0.7813
2419.67	0.7691
2431.25	0.7522
2442.84	0.7413
2454.42	0.735
2466	0.7299
2477.59	0.7121
2489.17	0.6985
2500.75	0.6898
2512.34	0.6774
2523.92	0.6709
2535.5	0.6529
2547.09	0.6199
2558.67	0.6131
2570.25	0.6108
2581.84	0.6032
2593.42	0.591
2605	0.552
2616.59	0.5453
2628.17	0.5481
2639.75	0.5565
2651.33	0.5506
2662.92	0.5395
2674.5	0.5283
2686.08	0.528
2697.67	0.5406
2709.25	0.5425
2720.83	0.5328
2732.42	0.525
2744	0.524
2755.58	0.5266
2767.17	0.527
2778.75	0.5282
2790.33	0.531
2801.92	0.5283
2813.5	0.524
2825.08	0.5256
2836.67	0.544
2848.25	0.5588
2859.83	0.561
2871.42	0.562
2883	0.5662
2894.58	0.5734
2906.17	0.586
2917.75	0.5846
2929.33	0.581
2940.92	0.581
2952.5	0.5867
2964.08	0.592
2975.67	0.6016
2987.25	0.6181
2998.83	0.6217
3010.42	0.623
3022	0.6249
3033.58	0.6312
3045.17	0.6534
3056.75	0.661
3068.33	0.6472
3079.92	0.6385
3091.5	0.659
3103.08	0.7114
3114.67	0.7501
3126.25	0.7548
3137.83	0.7767
3149.42	0.7889
3161	0.7942
3172.58	0.798
3184.17	0.8
3195.75	0.803
3207.33	0.8053
3218.92	0.8075
3230.5	0.809
3242.08	0.8091
3253.66	0.811
3265.25	0.813
3276.83	0.8149
3288.41	0.815
3300	0.814
3311.58	0.814
3323.16	0.813
3334.75	0.809
3346.33	0.8049
3357.91	0.8003
3369.5	0.7958
3381.08	0.79
3392.66	0.788
3404.25	0.789
3415.83	0.789
3427.41	0.789
3439	0.7872
3450.58	0.786
3462.16	0.783
3473.75	0.783
3485.33	0.7838
3496.91	0.785
3508.5	0.7864
3520.08	0.7877
3531.66	0.789
3543.25	0.79
3554.83	0.7925
3566.41	0.793
3578	0.794
3589.58	0.795
3601.16	0.799
3612.75	0.801
3624.33	0.801
3635.91	0.801
3647.5	0.802
3659.08	0.802
3670.66	0.802
3682.25	0.802
3693.83	0.802
3705.41	0.802
3717	0.802
3728.58	0.8014
3740.16	0.8001
3751.75	0.7988
3763.33	0.7976
3774.91	0.7953
3786.5	0.794
3798.08	0.7927
3809.66	0.7905
3821.24	0.787
3832.83	0.786
3844.41	0.787
3855.99	0.787
3867.58	0.7841
3879.16	0.7818
3890.74	0.7806
3902.33	0.779
3913.91	0.775
3925.49	0.771
3937.08	0.7695
3948.66	0.7672
3960.24	0.766
3971.83	0.7656
3983.41	0.764
3994.99	0.7602
4006.58	0.76
4018.16	0.7585
4029.74	0.758
4041.33	0.758
4052.91	0.758
4064.49	0.7554
4076.08	0.7542
4087.66	0.752
4099.24	0.75
4110.83	0.75
4122.41	0.75
4133.99	0.75
4145.58	0.749
4157.16	0.7455
4168.74	0.741
4180.33	0.7378
4191.91	0.732
4203.49	0.731
4215.08	0.731
4226.66	0.731
4238.24	0.731
4249.83	0.731
4261.41	0.731
4272.99	0.73
4284.58	0.73
4296.16	0.73
4307.74	0.729
4319.33	0.729
4330.91	0.728
4342.49	0.726
4354.08	0.7256
4365.66	0.724
4377.24	0.724
4388.83	0.722
4400.41	0.722
4411.99	0.7212
4423.57	0.719
4435.16	0.719
4446.74	0.7184
4458.32	0.718
4469.91	0.7178
4481.49	0.7166
4493.07	0.7153
4504.66	0.712
4516.24	0.711
4527.82	0.71
4539.41	0.71
4550.99	0.709
4562.57	0.708
4574.16	0.7064
4585.74	0.703
4597.32	0.703
4608.91	0.703
4620.49	0.7013
4632.07	0.701
4643.66	0.699
4655.24	0.6975
4666.82	0.6952
4678.41	0.695
4689.99	0.695
4701.57	0.6924
4713.16	0.692
4724.74	0.691
4736.32	0.69
4747.91	0.6883
4759.49	0.682
4771.07	0.68
4782.66	0.679
4794.24	0.6798
4805.82	0.68
4817.41	0.68
4828.99	0.6783
4840.57	0.678
4852.16	0.676
4863.74	0.6735
4875.32	0.6703
4886.91	0.668
4898.49	0.6673
4910.07	0.6701
4921.66	0.671
4933.24	0.671
4944.82	0.671
4956.41	0.669
4967.99	0.6681
4979.57	0.665
4991.15	0.6645
