Infrared Spectrum: BENZIMIDAZOLE, 5-CHLORO-6-NITRO-2-(TRIFLUOROMETHYL)-
Formula: C8 H3 Cl F3 N3 O2
CAS: 6609-40-1
State: SOLID (KBr DISC)
Class: COBLENTZ III
Instrument: UNICAM SP-200
Sampling: TRANSMISSION
Resolution: 2
Origin: FISONS LTD., VIA S.D.C. (DR. G. T. NEWBOLD)
1/CM	TRANSMITTANCE
649.212	0.919
660.795	0.919
672.379	0.879
683.962	0.854
695.545	0.875
707.128	0.885
718.712	0.877
730.295	0.85
741.878	0.821
753.462	0.673
765.045	0.785
776.628	0.87
788.211	0.896
799.795	0.905
811.378	0.904
822.961	0.877
834.545	0.555
846.128	0.832
857.711	0.85
869.294	0.7911
880.878	0.698
892.461	0.67
904.044	0.742
915.628	0.816
927.211	0.881
938.794	0.911
950.377	0.919
961.961	0.88
973.544	0.831
985.127	0.7051
996.711	0.722
1008.29	0.609
1019.88	0.8168
1031.46	0.89
1043.04	0.9
1054.63	0.899
1066.21	0.888
1077.79	0.862
1089.38	0.811
1100.96	0.705
1112.54	0.683
1124.13	0.573
1135.71	0.3441
1147.29	0.1301
1158.88	0.055
1170.46	0.046
1182.04	0.122
1193.63	0.127
1205.21	0.102
1216.79	0.081
1228.38	0.3
1239.96	0.5169
1251.54	0.711
1263.13	0.5921
1274.71	0.603
1286.29	0.661
1297.88	0.3851
1309.46	0.076
1321.04	0.2269
1332.63	0.3631
1344.21	0.36
1355.79	0.376
1367.38	0.345
1378.96	0.4169
1390.54	0.742
1402.13	0.784
1413.71	0.7361
1425.29	0.638
1436.88	0.672
1448.46	0.409
1460.04	0.536
1471.63	0.381
1483.21	0.6319
1494.79	0.714
1506.38	0.662
1517.96	0.444
1529.54	0.2141
1541.12	0.233
1552.71	0.372
1564.29	0.701
1575.87	0.581
1587.46	0.6969
1599.04	0.796
1610.62	0.796
1622.21	0.659
1633.79	0.784
1645.37	0.856
1656.96	0.865
1668.54	0.871
1680.12	0.879
1691.71	0.88
1703.29	0.879
1714.87	0.875
1726.46	0.877
1738.04	0.885
1749.62	0.892
1761.21	0.899
1772.79	0.904
1784.37	0.914
1795.96	0.92
1807.54	0.925
1819.12	0.93
1830.71	0.938
1842.29	0.938
1853.87	0.941
1865.46	0.94
1877.04	0.938
1888.62	0.939
1900.21	0.942
1911.79	0.94
1923.37	0.945
1934.96	0.947
1946.54	0.944
1958.12	0.95
1969.71	0.95
1981.29	0.946
1992.87	0.945
2004.46	0.945
2016.04	0.945
2027.62	0.945
2039.21	0.946
2050.79	0.946
2062.37	0.9444
2073.96	0.9392
2085.54	0.939
2097.12	0.9385
2108.71	0.9373
2120.29	0.936
2131.87	0.937
2143.46	0.936
2155.04	0.933
2166.62	0.932
2178.21	0.932
2189.79	0.9297
2201.37	0.928
2212.96	0.9268
2224.54	0.924
2236.12	0.9205
2247.71	0.917
2259.29	0.9097
2270.87	0.9084
2282.46	0.9062
2294.04	0.902
2305.62	0.9016
2317.21	0.8993
2328.79	0.898
2340.37	0.8938
2351.95	0.8822
2363.54	0.8665
2375.12	0.857
2386.7	0.8491
2398.29	0.8334
2409.87	0.827
2421.45	0.8187
2433.04	0.8082
2444.62	0.7977
2456.2	0.7804
2467.79	0.7621
2479.37	0.7435
2490.95	0.7311
2502.54	0.7159
2514.12	0.7097
2525.7	0.6988
2537.29	0.6795
2548.87	0.6596
2560.45	0.6358
2572.04	0.6018
2583.62	0.5791
2595.2	0.5728
2606.79	0.5705
2618.37	0.5672
2629.95	0.5547
2641.54	0.5437
2653.12	0.532
2664.7	0.4904
2676.29	0.4588
2687.87	0.4633
2699.45	0.4758
2711.04	0.485
2722.62	0.4825
2734.2	0.4763
2745.79	0.4558
2757.37	0.4405
2768.95	0.432
2780.54	0.4385
2792.12	0.4488
2803.7	0.4488
2815.29	0.4284
2826.87	0.4131
2838.45	0.408
2850.04	0.4181
2861.62	0.4291
2873.2	0.4439
2884.79	0.4484
2896.37	0.4322
2907.95	0.4168
2919.54	0.4042
2931.12	0.4022
2942.7	0.4075
2954.29	0.409
2965.87	0.3989
2977.45	0.365
2989.04	0.358
3000.62	0.3588
3012.2	0.3605
3023.79	0.3684
3035.37	0.3707
3046.95	0.371
3058.54	0.3712
3070.12	0.3874
3081.7	0.3987
3093.29	0.4092
3104.87	0.4372
3116.45	0.4559
3128.04	0.4703
3139.62	0.4913
3151.2	0.5
3162.78	0.5157
3174.37	0.5376
3185.95	0.5542
3197.53	0.57
3209.12	0.5874
3220.7	0.6031
3232.28	0.6093
3243.87	0.6138
3255.45	0.6197
3267.03	0.6254
3278.62	0.6362
3290.2	0.6434
3301.78	0.6529
3313.37	0.657
3324.95	0.6595
3336.53	0.6636
3348.12	0.6691
3359.7	0.6737
3371.28	0.6792
3382.87	0.6838
3394.45	0.6916
3406.03	0.699
3417.62	0.7044
3429.2	0.711
3440.78	0.7165
3452.37	0.7226
3463.95	0.7288
3475.53	0.7301
3487.12	0.7334
3498.7	0.7386
3510.28	0.74
3521.87	0.744
3533.45	0.748
3545.03	0.7507
3556.62	0.755
3568.2	0.7593
3579.78	0.761
3591.37	0.7673
3602.95	0.77
3614.53	0.7734
3626.12	0.7756
3637.7	0.778
3649.28	0.7802
3660.87	0.781
3672.45	0.781
3684.03	0.782
3695.62	0.785
3707.2	0.7876
3718.78	0.788
3730.37	0.788
3741.95	0.788
3753.53	0.788
3765.12	0.7851
3776.7	0.7828
3788.28	0.7795
3799.87	0.778
3811.45	0.778
3823.03	0.775
3834.62	0.774
3846.2	0.771
3857.78	0.77
3869.37	0.77
3880.95	0.77
3892.53	0.7691
3904.12	0.768
3915.7	0.767
3927.28	0.766
3938.87	0.766
3950.45	0.7637
3962.03	0.7618
3973.61	0.761
3985.2	0.76
3996.78	0.759
4008.36	0.759
4019.95	0.759
4031.53	0.758
4043.11	0.7565
4054.7	0.755
4066.28	0.751
4077.86	0.748
4089.45	0.746
4101.03	0.7441
4112.61	0.744
4124.2	0.744
4135.78	0.743
4147.36	0.74
4158.95	0.74
4170.53	0.7395
4182.11	0.7382
4193.7	0.738
4205.28	0.738
4216.86	0.736
4228.45	0.736
4240.03	0.733
4251.61	0.7316
4263.2	0.73
4274.78	0.729
4286.36	0.728
4297.95	0.727
4309.53	0.726
4321.11	0.725
4332.7	0.7246
4344.28	0.724
4355.86	0.7231
4367.45	0.722
4379.03	0.721
4390.61	0.721
4402.2	0.721
4413.78	0.721
4425.36	0.721
4436.95	0.72
4448.53	0.719
4460.11	0.718
4471.7	0.7163
4483.28	0.716
4494.86	0.7148
4506.45	0.712
4518.03	0.71
4529.61	0.709
4541.2	0.709
4552.78	0.709
4564.36	0.7072
4575.95	0.706
4587.53	0.706
4599.11	0.7037
4610.7	0.701
4622.28	0.7
4633.86	0.699
4645.45	0.6972
4657.03	0.696
4668.61	0.695
4680.2	0.695
4691.78	0.6923
4703.36	0.691
4714.95	0.691
4726.53	0.691
4738.11	0.69
4749.7	0.689
4761.28	0.6885
4772.86	0.6872
4784.44	0.6869
4796.03	0.685
4807.61	0.6814
4819.19	0.68
4830.78	0.6798
4842.36	0.678
4853.94	0.677
4865.53	0.675
4877.11	0.6753
4888.69	0.677
4900.28	0.6744
4911.86	0.671
4923.44	0.669
4935.03	0.669
4946.61	0.669
4958.19	0.669
4969.78	0.669
4981.36	0.668
