Infrared Spectrum: 2-(Methylthio)benzonitrile
Formula: C 8 H 7 N S
CAS: 6609-54-7
State: gas
Origin: EPA-IR VAPOR PHASE LIBRARY
1/CM	ABSORBANCE
549.9	0.0012737
559.547	0.0012951
569.193	0.0011252
578.84	0.0009799
588.486	0.000743
598.133	0.0007961
607.779	0.0008419
617.426	0.00072961
627.072	0.00074406
636.719	0.00071603
646.365	0.0006875
656.012	0.0008253
665.658	0.0012706
675.305	0.0014051
684.951	0.0008691
694.598	0.0008478
704.245	0.0010417
713.891	0.0011367
723.538	0.0013568
733.184	0.002453
742.831	0.006093
752.477	0.011413
762.124	0.006643
771.77	0.002833
781.417	0.0012962
791.063	0.0009692
800.71	0.0007856
810.356	0.00070354
820.003	0.0007978
829.649	0.0008229
839.296	0.0007287
848.943	0.000803
858.589	0.0007544
868.236	0.0007591
877.882	0.00072207
887.529	0.00071528
897.175	0.00074801
906.822	0.0007808
916.468	0.0008775
926.115	0.0009429
935.761	0.0010432
945.408	0.0011643
955.054	0.0013333
964.701	0.0016276
974.347	0.001703
983.994	0.0012892
993.64	0.0009334
1003.29	0.0008588
1012.93	0.0010109
1022.58	0.0012733
1032.23	0.0014919
1041.87	0.0014072
1051.52	0.0013415
1061.17	0.001823
1070.81	0.002013
1080.46	0.0013534
1090.11	0.0007611
1099.75	0.00073277
1109.4	0.0005582
1119.05	0.0008036
1128.69	0.0011074
1138.34	0.0009364
1147.99	0.00066746
1157.63	0.0007369
1167.28	0.00071634
1176.92	0.00054
1186.57	0.000466
1196.22	0.000473
1205.86	0.00044
1215.51	0.000237
1225.16	0.00046
1234.8	0.0006766
1244.45	0.00066942
1254.1	0.0012534
1263.74	0.0014588
1273.39	0.0013064
1283.04	0.0008826
1292.68	0.00068856
1302.33	0.0007605
1311.98	0.0009881
1321.62	0.0012659
1331.27	0.001198
1340.92	0.0007963
1350.56	0.00069513
1360.21	0.00072465
1369.86	0.00066841
1379.5	0.00069965
1389.15	0.00074341
1398.79	0.0009499
1408.44	0.0012754
1418.09	0.002143
1427.73	0.003813
1437.38	0.004743
1447.03	0.004013
1456.67	0.003983
1466.32	0.004573
1475.97	0.003313
1485.61	0.0012384
1495.26	0.0008596
1504.91	0.0008658
1514.55	0.0008073
1524.2	0.00070643
1533.85	0.00072341
1543.49	0.0007556
1553.14	0.0008288
1562.79	0.0009927
1572.43	0.0013837
1582.08	0.001973
1591.73	0.001913
1601.37	0.0011837
1611.02	0.0009136
1620.67	0.0009054
1630.31	0.0008008
1639.96	0.00069244
1649.6	0.000615
1659.25	0.0005568
1668.9	0.0006245
1678.54	0.0005586
1688.19	0.0006951
1697.84	0.0007634
1707.48	0.00070752
1717.13	0.000656009
1726.78	0.000574
1736.42	0.0005876
1746.07	0.000546
1755.72	0.000516
1765.36	0.000552
1775.01	0.000528
1784.66	0.0005854
1794.3	0.0006061
1803.95	0.00069367
1813.6	0.00070254
1823.24	0.00072249
1832.89	0.00066452
1842.54	0.00065071
1852.18	0.0006294
1861.83	0.000549
1871.47	0.00051
1881.12	0.0005856
1890.77	0.0006417
1900.41	0.00069275
1910.06	0.00073976
1919.71	0.000775
1929.35	0.000819
1939	0.0007841
1948.65	0.00071104
1958.29	0.00074911
1967.94	0.00070959
1977.59	0.0005635
1987.23	0.000535
1996.88	0.000551
2006.53	0.000531
2016.17	0.000521
2025.82	0.0005566
2035.47	0.0005628
2045.11	0.000544
2054.76	0.000536
2064.41	0.0005737
2074.05	0.000545
2083.7	0.000541
2093.35	0.0005867
2102.99	0.0005536
2112.64	0.000539
2122.28	0.000527
2131.93	0.0005621
2141.58	0.0005731
2151.22	0.0006041
2160.87	0.000564
2170.52	0.0005929
2180.16	0.0005783
2189.81	0.0005931
2199.46	0.000623
2209.1	0.0007644
2218.75	0.0011137
2228.4	0.0013351
2238.04	0.0011802
2247.69	0.0008037
2257.34	0.00068467
2266.98	0.00064715
2276.63	0.00068401
2286.28	0.000655025
2295.92	0.00065331
2305.57	0.0006382
2315.22	0.00068098
2324.86	0.00071097
2334.51	0.00066518
2344.16	0.000611
2353.8	0.0006228
2363.45	0.0006255
2373.09	0.00066703
2382.74	0.0005948
2392.39	0.0006272
2402.03	0.00067518
2411.68	0.0006353
2421.33	0.0006321
2430.97	0.0006126
2440.62	0.0006069
2450.27	0.0005794
2459.91	0.00067238
2469.56	0.000657855
2479.21	0.0006373
2488.85	0.0006114
2498.5	0.0005649
2508.15	0.0006348
2517.79	0.0006055
2527.44	0.00069052
2537.09	0.00064839
2546.73	0.00067994
2556.38	0.000652112
2566.03	0.00067339
2575.67	0.00065321
2585.32	0.00064637
2594.96	0.0006277
2604.61	0.00068725
2614.26	0.00066752
2623.9	0.0006904
2633.55	0.0006648
2643.2	0.00069011
2652.84	0.00069643
2662.49	0.00067227
2672.14	0.00066569
2681.78	0.00068858
2691.43	0.00069106
2701.08	0.00067644
2710.72	0.00064645
2720.37	0.00066602
2730.02	0.00073217
2739.66	0.00069551
2749.31	0.00071367
2758.96	0.000776
2768.6	0.00074707
2778.25	0.0007866
2787.9	0.00075008
2797.54	0.00073165
2807.19	0.00070191
2816.84	0.0007877
2826.48	0.0008647
2836.13	0.0009326
2845.77	0.0012026
2855.42	0.0011349
2865.07	0.0011026
2874.71	0.0010419
2884.36	0.0009903
2894.01	0.0010131
2903.65	0.0010459
2913.3	0.0012331
2922.95	0.002053
2932.59	0.003453
2942.24	0.003283
2951.89	0.001863
2961.53	0.0013095
2971.18	0.001216
2980.83	0.001264
2990.47	0.0015811
3000.12	0.001723
3009.77	0.0015263
3019.41	0.0014508
3029.06	0.0011956
3038.71	0.0011671
3048.35	0.0013975
3058	0.002133
3067.64	0.002933
3077.29	0.003153
3086.94	0.002403
3096.58	0.001773
3106.23	0.0013182
3115.88	0.0012016
3125.52	0.0012547
3135.17	0.0010463
3144.82	0.0008333
3154.46	0.0008726
3164.11	0.0008106
3173.76	0.00074325
3183.4	0.00073305
3193.05	0.0007597
3202.7	0.00072036
3212.34	0.0006297
3221.99	0.000659376
3231.64	0.00068395
3241.28	0.00069391
3250.93	0.00064609
3260.58	0.00075083
3270.22	0.00072099
3279.87	0.0005821
3289.52	0.00072796
3299.16	0.00073556
3308.81	0.00070317
3318.45	0.00068781
3328.1	0.00064547
3337.75	0.00069656
3347.39	0.0005695
3357.04	0.000612
3366.69	0.0005863
3376.33	0.0006297
3385.98	0.0005935
3395.63	0.00072402
3405.27	0.0006272
3414.92	0.0007672
3424.57	0.000636
3434.21	0.0006402
3443.86	0.000657059
3453.51	0.00067475
3463.15	0.0005603
3472.8	0.0005922
3482.45	0.00069095
3492.09	0.00074194
3501.74	0.000658543
3511.39	0.000725
3521.03	0.0006354
3530.68	0.000534
3540.33	0.0006672
3549.97	0.00064602
3559.62	0.0006123
3569.26	0.0005923
3578.91	0.000653058
3588.56	0.0007846
3598.2	0.00069147
3607.85	0.00071635
3617.5	0.00073298
3627.14	0.000660486
3636.79	0.0005803
3646.44	0.00067283
3656.08	0.00072522
3665.73	0.0005597
3675.38	0.00066319
3685.02	0.000565
3694.67	0.00068643
3704.32	0.000558
3713.96	0.000608
3723.61	0.0006074
3733.26	0.00066303
3742.9	0.00071527
3752.55	0.0007581
3762.2	0.00071766
3771.84	0.00067238
3781.49	0.00065879
3791.13	0.0005906
3800.78	0.0008138
3810.43	0.00071191
3820.07	0.00064855
3829.72	0.0006216
3839.37	0.00068645
3849.01	0.0007537
3858.66	0.00070679
3868.31	0.00067898
3877.95	0.00071412
3887.6	0.0007613
3897.25	0.00067348
3906.89	0.0006625
3916.54	0.000659083
3926.19	0.00064775
3935.83	0.00074884
3945.48	0.0007717
3955.13	0.0007677
3964.77	0.0006399
3974.42	0.0006357
3984.07	0.00069233
3993.71	0.0006385
