Infrared Spectrum: BENZIMIDAZOLE, 4,6-DIBROMO-2-(TRIFLUOROMETHYL)-
Formula: C8 H3 Br2 F3 N2
CAS: 6609-53-6
State: SOLID (KBr DISC)
Class: COBLENTZ III
Instrument: UNICAM SP-200
Sampling: TRANSMISSION
Resolution: 2
Origin: FISONS LTD., VIA S.D.C. (DR. G. T. NEWBOLD)
1/CM	TRANSMITTANCE
661.66	0.939
673.251	0.925
684.842	0.901
696.434	0.893
708.025	0.865
719.616	0.738
731.207	0.87
742.799	0.864
754.39	0.866
765.981	0.38
777.572	0.879
789.163	0.885
800.755	0.878
812.346	0.863
823.937	0.861
835.528	0.857
847.12	0.7113
858.711	0.603
870.302	0.817
881.893	0.802
893.484	0.86
905.076	0.866
916.667	0.87
928.258	0.876
939.849	0.873
951.44	0.859
963.032	0.6961
974.623	0.78
986.214	0.707
997.805	0.458
1009.4	0.863
1020.99	0.872
1032.58	0.87
1044.17	0.863
1055.76	0.855
1067.35	0.7701
1078.94	0.7359
1090.54	0.782
1102.13	0.752
1113.72	0.704
1125.31	0.597
1136.9	0.474
1148.49	0.2241
1160.08	0.1098
1171.67	0.148
1183.26	0.207
1194.86	0.1291
1206.45	0.231
1218.04	0.688
1229.63	0.6391
1241.22	0.213
1252.81	0.624
1264.4	0.743
1275.99	0.779
1287.59	0.814
1299.18	0.672
1310.77	0.26
1322.36	0.77
1333.95	0.87
1345.54	0.832
1357.13	0.675
1368.72	0.636
1380.32	0.778
1391.91	0.764
1403.5	0.609
1415.09	0.784
1426.68	0.739
1438.27	0.623
1449.86	0.324
1461.45	0.7578
1473.05	0.837
1484.64	0.781
1496.23	0.823
1507.82	0.869
1519.41	0.856
1531	0.794
1542.59	0.5362
1554.18	0.589
1565.78	0.4439
1577.37	0.7779
1588.96	0.834
1600.55	0.824
1612.14	0.739
1623.73	0.832
1635.32	0.851
1646.91	0.851
1658.5	0.849
1670.1	0.84
1681.69	0.848
1693.28	0.839
1704.87	0.842
1716.46	0.84
1728.05	0.85
1739.64	0.856
1751.23	0.853
1762.83	0.857
1774.42	0.859
1786.01	0.863
1797.6	0.864
1809.19	0.861
1820.78	0.864
1832.37	0.871
1843.96	0.867
1855.56	0.863
1867.15	0.864
1878.74	0.869
1890.33	0.865
1901.92	0.87
1913.51	0.866
1925.1	0.864
1936.69	0.868
1948.29	0.868
1959.88	0.865
1971.47	0.868
1983.06	0.868
1994.65	0.866
2006.24	0.8678
2017.83	0.8651
2029.42	0.8624
2041.02	0.861
2052.61	0.86
2064.2	0.8579
2075.79	0.8536
2087.38	0.8537
2098.97	0.8549
2110.56	0.854
2122.15	0.8525
2133.74	0.8492
2145.34	0.849
2156.93	0.8477
2168.52	0.847
2180.11	0.846
2191.7	0.8435
2203.29	0.8366
2214.88	0.8313
2226.47	0.8281
2238.07	0.8246
2249.66	0.82
2261.25	0.8152
2272.84	0.81
2284.43	0.8044
2296.02	0.801
2307.61	0.8002
2319.2	0.799
2330.8	0.7986
2342.39	0.7973
2353.98	0.7961
2365.57	0.7724
2377.16	0.7591
2388.75	0.7457
2400.34	0.7289
2411.93	0.719
2423.53	0.7139
2435.12	0.7072
2446.71	0.6973
2458.3	0.6871
2469.89	0.6787
2481.48	0.666
2493.07	0.6536
2504.66	0.6346
2516.26	0.63
2527.85	0.629
2539.44	0.6204
2551.03	0.6089
2562.62	0.599
2574.21	0.5875
2585.8	0.5776
2597.39	0.569
2608.98	0.5505
2620.58	0.5342
2632.17	0.5252
2643.76	0.5102
2655.35	0.491
2666.94	0.4959
2678.53	0.5173
2690.12	0.5404
2701.71	0.5419
2713.31	0.539
2724.9	0.5353
2736.49	0.5197
2748.08	0.4998
2759.67	0.498
2771.26	0.4808
2782.85	0.4791
2794.44	0.5015
2806.04	0.513
2817.63	0.513
2829.22	0.5142
2840.81	0.5211
2852.4	0.528
2863.99	0.528
2875.58	0.5248
2887.17	0.523
2898.77	0.5173
2910.36	0.515
2921.95	0.514
2933.54	0.513
2945.13	0.512
2956.72	0.5143
2968.31	0.5194
2979.9	0.5213
2991.5	0.5249
3003.09	0.5364
3014.68	0.5473
3026.27	0.557
3037.86	0.57
3049.45	0.574
3061.04	0.5756
3072.63	0.5865
3084.22	0.6091
3095.82	0.6207
3107.41	0.6393
3119	0.6438
3130.59	0.6492
3142.18	0.6633
3153.77	0.6732
3165.36	0.68
3176.95	0.6836
3188.55	0.689
3200.14	0.692
3211.73	0.6961
3223.32	0.6994
3234.91	0.7013
3246.5	0.7069
3258.09	0.7082
3269.68	0.711
3281.28	0.7127
3292.87	0.713
3304.46	0.711
3316.05	0.7094
3327.64	0.7082
3339.23	0.7067
3350.82	0.7036
3362.41	0.701
3374.01	0.7
3385.6	0.7
3397.19	0.7
3408.78	0.702
3420.37	0.704
3431.96	0.7063
3443.55	0.707
3455.14	0.707
3466.74	0.707
3478.33	0.707
3489.92	0.7077
3501.51	0.7099
3513.1	0.711
3524.69	0.7115
3536.28	0.7147
3547.87	0.717
3559.46	0.719
3571.06	0.719
3582.65	0.719
3594.24	0.719
3605.83	0.7194
3617.42	0.722
3629.01	0.7239
3640.6	0.7274
3652.19	0.729
3663.79	0.7273
3675.38	0.729
3686.97	0.73
3698.56	0.731
3710.15	0.7302
3721.74	0.7269
3733.33	0.7236
3744.92	0.723
3756.52	0.722
3768.11	0.721
3779.7	0.72
3791.29	0.719
3802.88	0.718
3814.47	0.7177
3826.06	0.7154
3837.65	0.7112
3849.25	0.7099
3860.84	0.708
3872.43	0.707
3884.02	0.7041
3895.61	0.701
3907.2	0.7
3918.79	0.6983
3930.38	0.696
3941.97	0.6935
3953.57	0.692
3965.16	0.692
3976.75	0.693
3988.34	0.694
3999.93	0.693
4011.52	0.692
4023.11	0.689
4034.7	0.6875
4046.3	0.686
4057.89	0.681
4069.48	0.679
4081.07	0.68
4092.66	0.681
4104.25	0.68
4115.84	0.6766
4127.43	0.6744
4139.03	0.6731
4150.62	0.671
4162.21	0.67
4173.8	0.67
4185.39	0.67
4196.98	0.6697
4208.57	0.6685
4220.16	0.6672
4231.76	0.6649
4243.35	0.662
4254.94	0.662
4266.53	0.662
4278.12	0.66
4289.71	0.66
4301.3	0.659
4312.89	0.657
4324.49	0.654
4336.08	0.6535
4347.67	0.6522
4359.26	0.651
4370.85	0.65
4382.44	0.65
4394.03	0.651
4405.62	0.652
4417.21	0.6515
4428.81	0.6493
4440.4	0.647
4451.99	0.6467
4463.58	0.645
4475.17	0.644
4486.76	0.642
4498.35	0.6406
4509.94	0.6384
4521.54	0.6371
4533.13	0.637
4544.72	0.636
4556.31	0.636
4567.9	0.636
4579.49	0.6347
4591.08	0.634
4602.67	0.634
4614.27	0.632
4625.86	0.631
4637.45	0.6294
4649.04	0.63
4660.63	0.629
4672.22	0.6275
4683.81	0.626
4695.4	0.625
4707	0.625
4718.59	0.626
4730.18	0.626
4741.77	0.6249
4753.36	0.6216
4764.95	0.6184
4776.54	0.6171
4788.13	0.6148
4799.73	0.6095
4811.32	0.6046
4822.91	0.602
4834.5	0.601
4846.09	0.599
4857.68	0.599
4869.27	0.599
4880.86	0.599
4892.45	0.599
4904.05	0.599
4915.64	0.599
4927.23	0.599
4938.82	0.599
4950.41	0.599
4962	0.599
4973.59	0.599
4985.18	0.599
4996.78	0.599
5008.37	0.599
5019.96	0.599
