Infrared Spectrum: BENZIMIDAZOLE, 5-CHLORO-4-NITRO-2-(TRIFLUOROMETHYL)-
Formula: C8 H3 Cl F3 N3 O2
CAS: 6609-39-8
State: SOLID (KBr DISC)
Class: COBLENTZ III
Instrument: UNICAM SP-200
Sampling: TRANSMISSION
Resolution: 2
Origin: FISONS LTD., VIA S.D.C. (DR. G. T. NEWBOLD)
1/CM	TRANSMITTANCE
651.885	0.782
663.468	0.784
675.052	0.759
686.635	0.764
698.218	0.779
709.801	0.781
721.385	0.764
732.968	0.738
744.551	0.633
756.134	0.751
767.718	0.768
779.301	0.718
790.884	0.795
802.467	0.785
814.051	0.738
825.634	0.598
837.217	0.45
848.801	0.714
860.384	0.811
871.967	0.828
883.55	0.832
895.134	0.821
906.717	0.82
918.3	0.808
929.883	0.778
941.467	0.6561
953.05	0.7339
964.633	0.739
976.216	0.677
987.8	0.628
999.383	0.747
1010.97	0.717
1022.55	0.699
1034.13	0.73
1045.72	0.721
1057.3	0.703
1068.88	0.668
1080.47	0.625
1092.05	0.564
1103.63	0.474
1115.22	0.331
1126.8	0.159
1138.38	0.141
1149.97	0.102
1161.55	0.115
1173.13	0.186
1184.72	0.253
1196.3	0.195
1207.88	0.2
1219.47	0.3819
1231.05	0.423
1242.63	0.167
1254.21	0.4869
1265.8	0.61
1277.38	0.553
1288.96	0.405
1300.55	0.3041
1312.13	0.218
1323.71	0.396
1335.3	0.453
1346.88	0.367
1358.46	0.416
1370.05	0.6309
1381.63	0.721
1393.21	0.725
1404.8	0.809
1416.38	0.86
1427.96	0.832
1439.55	0.737
1451.13	0.679
1462.71	0.738
1474.3	0.761
1485.88	0.72
1497.46	0.829
1509.05	0.823
1520.63	0.664
1532.21	0.446
1543.8	0.476
1555.38	0.453
1566.96	0.454
1578.55	0.672
1590.13	0.891
1601.71	0.916
1613.3	0.8391
1624.88	0.749
1636.46	0.9
1648.05	0.904
1659.63	0.921
1671.21	0.938
1682.8	0.953
1694.38	0.957
1705.96	0.965
1717.55	0.964
1729.13	0.961
1740.71	0.958
1752.3	0.951
1763.88	0.954
1775.46	0.95
1787.05	0.953
1798.63	0.951
1810.21	0.949
1821.79	0.942
1833.38	0.942
1844.96	0.934
1856.54	0.927
1868.13	0.919
1879.71	0.904
1891.29	0.903
1902.88	0.897
1914.46	0.898
1926.04	0.896
1937.63	0.9
1949.21	0.9
1960.79	0.907
1972.38	0.912
1983.96	0.919
1995.54	0.915
2007.13	0.919
2018.71	0.9193
2030.29	0.92
2041.88	0.92
2053.46	0.92
2065.04	0.92
2076.63	0.9193
2088.21	0.918
2099.79	0.9156
2111.38	0.9116
2122.96	0.909
2134.54	0.909
2146.13	0.9064
2157.71	0.8988
2169.29	0.894
2180.88	0.8917
2192.46	0.889
2204.04	0.8863
2215.63	0.8781
2227.21	0.8738
2238.79	0.8705
2250.38	0.868
2261.96	0.866
2273.54	0.8594
2285.13	0.8544
2296.71	0.8523
2308.29	0.85
2319.88	0.849
2331.46	0.8473
2343.04	0.846
2354.63	0.845
2366.21	0.839
2377.79	0.8294
2389.38	0.8177
2400.96	0.7997
2412.54	0.7954
2424.12	0.7895
2435.71	0.7825
2447.29	0.7701
2458.87	0.7629
2470.46	0.758
2482.04	0.7567
2493.62	0.7524
2505.21	0.743
2516.79	0.735
2528.37	0.7327
2539.96	0.7294
2551.54	0.7226
2563.12	0.7172
2574.71	0.7056
2586.29	0.7003
2597.87	0.689
2609.46	0.671
2621.04	0.671
2632.62	0.671
2644.21	0.6709
2655.79	0.6683
2667.37	0.6617
2678.96	0.6591
2690.54	0.6534
2702.12	0.6442
2713.71	0.6313
2725.29	0.623
2736.87	0.6197
2748.46	0.6164
2760.04	0.6142
2771.62	0.6129
2783.21	0.611
2794.79	0.6064
2806.37	0.5991
2817.96	0.5898
2829.54	0.5846
2841.12	0.5783
2852.71	0.574
2864.29	0.573
2875.87	0.5724
2887.46	0.572
2899.04	0.5707
2910.62	0.5648
2922.21	0.5587
2933.79	0.5541
2945.37	0.5436
2956.96	0.537
2968.54	0.5322
2980.12	0.529
2991.7	0.5247
3003.29	0.5204
3014.87	0.5161
3026.45	0.513
3038.04	0.513
3049.62	0.5154
3061.2	0.5199
3072.79	0.5262
3084.37	0.529
3095.95	0.5388
3107.54	0.5521
3119.12	0.557
3130.7	0.5686
3142.29	0.5728
3153.87	0.5822
3165.45	0.5874
3177.04	0.5904
3188.62	0.592
3200.2	0.592
3211.79	0.592
3223.37	0.592
3234.95	0.5909
3246.54	0.588
3258.12	0.5854
3269.7	0.5802
3281.29	0.5708
3292.87	0.571
3304.45	0.5759
3316.04	0.581
3327.62	0.5943
3339.2	0.6005
3350.79	0.6126
3362.37	0.6213
3373.95	0.6339
3385.54	0.6476
3397.12	0.6587
3408.7	0.6716
3420.29	0.6899
3431.87	0.7087
3443.45	0.7131
3455.04	0.7405
3466.62	0.7568
3478.2	0.7627
3489.79	0.7641
3501.37	0.7672
3512.95	0.7697
3524.54	0.774
3536.12	0.7742
3547.7	0.774
3559.28	0.7702
3570.87	0.776
3582.45	0.7783
3594.03	0.7886
3605.62	0.7986
3617.2	0.8041
3628.78	0.808
3640.37	0.8073
3651.95	0.805
3663.53	0.806
3675.12	0.8065
3686.7	0.805
3698.28	0.805
3709.87	0.804
3721.45	0.803
3733.03	0.803
3744.62	0.801
3756.2	0.7996
3767.78	0.798
3779.37	0.797
3790.95	0.796
3802.53	0.795
3814.12	0.7924
3825.7	0.792
3837.28	0.792
3848.87	0.791
3860.45	0.7891
3872.03	0.7888
3883.62	0.7876
3895.2	0.7833
3906.78	0.78
3918.37	0.768
3929.95	0.769
3941.53	0.769
3953.12	0.7659
3964.7	0.762
3976.28	0.762
3987.87	0.761
3999.45	0.76
4011.03	0.758
4022.62	0.7563
4034.2	0.754
4045.78	0.7507
4057.37	0.75
4068.95	0.749
4080.53	0.7469
4092.12	0.7423
4103.7	0.74
4115.28	0.741
4126.86	0.7418
4138.45	0.7405
4150.03	0.739
4161.61	0.739
4173.2	0.7393
4184.78	0.741
4196.36	0.742
4207.95	0.742
4219.53	0.7416
4231.11	0.7403
4242.7	0.7381
4254.28	0.7348
4265.86	0.7335
4277.45	0.733
4289.03	0.733
4300.61	0.728
4312.2	0.726
4323.78	0.7268
4335.36	0.7271
4346.95	0.728
4358.53	0.7247
4370.11	0.7231
4381.7	0.722
4393.28	0.721
4404.86	0.721
4416.45	0.72
4428.03	0.719
4439.61	0.717
4451.2	0.716
4462.78	0.715
4474.36	0.714
4485.95	0.7147
4497.53	0.716
4509.11	0.7158
4520.7	0.715
4532.28	0.7142
4543.86	0.7128
4555.45	0.7087
4567.03	0.7074
4578.61	0.7051
4590.2	0.704
4601.78	0.703
4613.36	0.703
4624.95	0.702
4636.53	0.702
4648.11	0.7015
4659.7	0.701
4671.28	0.701
4682.86	0.7007
4694.45	0.6994
4706.03	0.6981
4717.61	0.6978
4729.19	0.6955
4740.78	0.694
4752.36	0.694
4763.94	0.693
4775.53	0.691
4787.11	0.6902
4798.69	0.6889
4810.28	0.6866
4821.86	0.6854
4833.44	0.683
4845.03	0.6818
4856.61	0.681
4868.19	0.681
4879.78	0.68
4891.36	0.679
4902.94	0.679
4914.53	0.679
4926.11	0.6789
4937.69	0.6772
4949.28	0.6743
4960.86	0.671
4972.44	0.6698
4984.03	0.6675
4995.61	0.6662
