Infrared Spectrum: 2-Methoxybenzonitrile
Formula: C 8 H 7 N O
CAS: 6609-56-9
State: gas
Instrument: HP-GC/MS/IRD
Origin: NIST Mass Spectrometry Data Center
1/CM	ABSORBANCE
550	0.0002835
562	0.000567
574	0.000675
586	0.0006831
598	0.0004671
610	0.0002754
622	0.0002214
634	0.000135
646	4.32e-05
658	0.0001377
670	0.0001242
682	0.000243
694	0.000486
706	0.001026
718	0.0021573
730	0.004806
742	0.0111024
754	0.0175068
766	0.009477
778	0.0029295
790	0.0011421
802	0.0013419
814	0.0017739
826	0.0012042
838	0.000621
850	0.0006723
862	0.0006804
874	0.0005238
886	0.0003861
898	0.000324
910	0.0003618
922	0.0005589
934	0.0009747
946	0.0012663
958	0.0011745
970	0.0012177
982	0.0017604
994	0.0031482
1006	0.0059292
1018	0.008586
1030	0.0099576
1042	0.0098145
1054	0.0057699
1066	0.0017496
1078	0.0011313
1090	0.0020682
1102	0.0055377
1114	0.0062181
1126	0.0027756
1138	0.0014337
1150	0.0027297
1162	0.0040662
1174	0.0033318
1186	0.0022356
1198	0.0018306
1210	0.0022545
1222	0.0041121
1234	0.0087345
1246	0.0166077
1258	0.0237465
1270	0.0262251
1282	0.0268137
1294	0.0204039
1306	0.0081621
1318	0.0033912
1330	0.0019494
1342	0.0013068
1354	0.0009828
1366	0.0008046
1378	0.0008019
1390	0.0009342
1402	0.0014553
1414	0.0027567
1426	0.0065853
1438	0.0103032
1450	0.0092718
1462	0.0096984
1474	0.0120528
1486	0.0241353
1498	0.0246618
1510	0.0078624
1522	0.0021087
1534	0.0016173
1546	0.0017037
1558	0.0026865
1570	0.0053622
1582	0.0083133
1594	0.0108702
1606	0.0087183
1618	0.0032805
1630	0.0012663
1642	0.0006966
1654	0.0004482
1666	0.0004266
1678	0.0005265
1690	0.0006561
1702	0.0006156
1714	0.0005103
1726	0.0003591
1738	0.0002646
1750	0.0001971
1762	0.0001755
1774	0.0003267
1786	0.0004482
1798	0.0004239
1810	0.0004104
1822	0.0003888
1834	0.0003645
1846	0.0003267
1858	0.0003321
1870	0.000405
1882	0.0003942
1894	0.0004563
1906	0.0006804
1918	0.000621
1930	0.000459
1942	0.0005562
1954	0.0003996
1966	0.0002106
1978	0.0002214
1990	0.0003024
2002	0.0003618
2014	0.0004077
2026	0.0003969
2038	0.0004266
2050	0.0004779
2062	0.0005346
2074	0.000513
2086	0.0004185
2098	0.0003807
2110	0.0002214
2122	0.0001107
2134	0.000108
2146	9.45e-05
2158	7.83e-05
2170	7.02e-05
2182	0.000108
2194	0.0001836
2206	0.0003348
2218	0.0011448
2230	0.0025839
2242	0.0021951
2254	0.0004644
2266	0.0002106
2278	0.0002187
2290	0.0002484
2302	0.0002916
2314	0.0002862
2326	0.0001971
2338	0.0001134
2350	7.56e-05
2362	7.29e-05
2374	7.56e-05
2386	8.1e-05
2398	0.0001026
2410	0.0001053
2422	9.18e-05
2434	9.18e-05
2446	2.7e-05
2458	3.78e-05
2470	5.4e-05
2482	6.48e-05
2494	0.000108
2506	0.0001539
2518	0.0002511
2530	0.0002997
2542	0.0003753
2554	0.0003969
2566	0.0003699
2578	0.0002619
2590	0.0001701
2602	0.000162
2614	0.0001593
2626	0.0001539
2638	0.0001134
2650	0.0001107
2662	8.37e-05
2674	9.18e-05
2686	0.0001242
2698	0.0001458
2710	0.0001647
2722	0.0001836
2734	0.0002187
2746	0.0001998
2758	0.0001863
2770	0.0002646
2782	0.0003213
2794	0.0003942
2806	0.000486
2818	0.0007614
2830	0.0013878
2842	0.0029538
2854	0.0034236
2866	0.0022221
2878	0.0018171
2890	0.0019602
2902	0.0021951
2914	0.0026379
2926	0.0032643
2938	0.0046116
2950	0.0063099
2962	0.0059751
2974	0.0044469
2986	0.0030618
2998	0.0027648
3010	0.0037179
3022	0.0040419
3034	0.0029241
3046	0.0022896
3058	0.0023895
3070	0.003024
3082	0.0038367
3094	0.002943
3106	0.0013635
3118	0.0008505
3130	0.0005292
3142	0.0003996
3154	0.0003564
3166	0.0002754
3178	0.0002052
3190	0.0001566
3202	0.0001134
3214	0.0001404
3226	9.45e-05
3238	2.97e-05
3250	3.51e-05
3262	7.56e-05
3274	8.1e-05
3286	7.29e-05
3298	0.0001296
3310	8.37e-05
3322	5.67e-05
3334	0.0001188
3346	0.0001026
3358	3.51e-05
3370	9.45e-05
3382	9.18e-05
3394	0.0001323
3406	8.1e-05
3418	0.0001512
3430	9.45e-05
3442	9.72e-05
3454	8.37e-05
3466	8.64e-05
3478	0.000162
3490	0.0001404
3502	9.99e-05
3514	0.0001053
3526	7.83e-05
3538	6.21e-05
3550	5.4e-05
3562	9.45e-05
3574	4.59e-05
3586	0.000135
3598	0.0001107
3610	7.29e-05
3622	8.1e-05
3634	9.72e-05
3646	0.000108
3658	0.0001269
3670	6.75e-05
3682	0.0001431
3694	9.72e-05
3706	4.05e-05
3718	0.0001161
3730	0.0001755
3742	0.0001107
3754	0.0001242
3766	6.75e-05
3778	9.18e-05
3790	0.0001107
3802	0.0001593
3814	0.000189
3826	0.000135
3838	0.000135
