Infrared Spectrum: BENZIMIDAZOLE, 4,6-DINITRO-2-(TRIFLUOROMETHYL)-
Formula: C8 H3 F3 N4 O4
CAS: 6609-38-7
State: SOLID (KBr DISC)
Class: COBLENTZ III
Instrument: UNICAM SP-200
Sampling: TRANSMISSION
Resolution: 2
Origin: FISONS LTD., VIA S.D.C. (DR. G. T. NEWBOLD)
1/CM	TRANSMITTANCE
657.26	0.872
668.835	0.866
680.411	0.835
691.986	0.7251
703.561	0.473
715.137	0.737
726.712	0.66
738.287	0.793
749.863	0.831
761.438	0.6185
773.014	0.837
784.589	0.874
796.164	0.889
807.74	0.896
819.315	0.849
830.89	0.6175
842.466	0.889
854.041	0.888
865.616	0.747
877.192	0.896
888.767	0.9
900.342	0.894
911.918	0.7951
923.493	0.851
935.068	0.877
946.644	0.7322
958.219	0.869
969.795	0.872
981.37	0.867
992.945	0.87
1004.52	0.862
1016.1	0.851
1027.67	0.792
1039.25	0.818
1050.82	0.814
1062.4	0.777
1073.97	0.5901
1085.55	0.7169
1097.12	0.748
1108.7	0.726
1120.27	0.603
1131.85	0.2142
1143.42	0.572
1155	0.1991
1166.58	0.2719
1178.15	0.54
1189.73	0.3239
1201.3	0.168
1212.88	0.3249
1224.45	0.6
1236.03	0.429
1247.6	0.062
1259.18	0.2929
1270.75	0.6719
1282.33	0.726
1293.9	0.4851
1305.48	0.1221
1317.06	0.29
1328.63	0.532
1340.21	0.4071
1351.78	0.072
1363.36	0.229
1374.93	0.3049
1386.51	0.397
1398.08	0.551
1409.66	0.713
1421.23	0.736
1432.81	0.706
1444.38	0.751
1455.96	0.767
1467.53	0.778
1479.11	0.599
1490.69	0.5258
1502.26	0.769
1513.84	0.763
1525.41	0.6371
1536.99	0.426
1548.56	0.137
1560.14	0.502
1571.71	0.6789
1583.29	0.729
1594.86	0.449
1606.44	0.75
1618.01	0.784
1629.59	0.671
1641.17	0.6709
1652.74	0.8
1664.32	0.837
1675.89	0.847
1687.47	0.844
1699.04	0.85
1710.62	0.861
1722.19	0.864
1733.77	0.873
1745.34	0.879
1756.92	0.881
1768.49	0.886
1780.07	0.873
1791.64	0.87
1803.22	0.862
1814.8	0.881
1826.37	0.888
1837.95	0.889
1849.52	0.89
1861.1	0.889
1872.67	0.885
1884.25	0.881
1895.82	0.882
1907.4	0.886
1918.97	0.885
1930.55	0.881
1942.12	0.879
1953.7	0.88
1965.27	0.879
1976.85	0.878
1988.43	0.883
2000	0.878
2011.58	0.8773
2023.15	0.878
2034.73	0.879
2046.3	0.878
2057.88	0.878
2069.45	0.878
2081.03	0.877
2092.6	0.8749
2104.18	0.873
2115.75	0.872
2127.33	0.872
2138.91	0.8698
2150.48	0.8655
2162.06	0.865
2173.63	0.865
2185.21	0.865
2196.78	0.865
2208.36	0.865
2219.93	0.864
2231.51	0.8626
2243.08	0.862
2254.66	0.862
2266.23	0.8583
2277.81	0.85
2289.38	0.849
2300.96	0.847
2312.54	0.8435
2324.11	0.8405
2335.69	0.84
2347.26	0.84
2358.84	0.8413
2370.41	0.843
2381.99	0.8412
2393.56	0.8399
2405.14	0.8359
2416.71	0.833
2428.29	0.8311
2439.86	0.83
2451.44	0.829
2463.02	0.828
2474.59	0.826
2486.17	0.819
2497.74	0.8185
2509.32	0.8142
2520.89	0.811
2532.47	0.8107
2544.04	0.809
2555.62	0.808
2567.19	0.7995
2578.77	0.7886
2590.34	0.789
2601.92	0.79
2613.49	0.789
2625.07	0.785
2636.65	0.7833
2648.22	0.781
2659.8	0.7787
2671.37	0.7755
2682.95	0.77
2694.52	0.766
2706.1	0.7647
2717.67	0.7618
2729.25	0.7591
2740.82	0.7558
2752.4	0.7536
2763.97	0.7503
2775.55	0.7442
2787.13	0.7378
2798.7	0.7225
2810.28	0.72
2821.85	0.718
2833.43	0.7157
2845	0.7094
2856.58	0.694
2868.15	0.6879
2879.73	0.684
2891.3	0.6817
2902.88	0.68
2914.45	0.68
2926.03	0.6786
2937.6	0.6777
2949.18	0.68
2960.76	0.68
2972.33	0.679
2983.91	0.6724
2995.48	0.6669
3007.06	0.6478
3018.63	0.6302
3030.21	0.6164
3041.78	0.6116
3053.36	0.6028
3064.93	0.6023
3076.51	0.6089
3088.08	0.616
3099.66	0.617
3111.23	0.6128
3122.81	0.599
3134.39	0.5805
3145.96	0.5547
3157.54	0.5285
3169.11	0.4997
3180.69	0.478
3192.26	0.4441
3203.84	0.3865
3215.41	0.3412
3226.99	0.3031
3238.56	0.2448
3250.14	0.206
3261.71	0.2252
3273.29	0.3231
3284.87	0.415
3296.44	0.4672
3308.02	0.5332
3319.59	0.568
3331.17	0.5991
3342.74	0.6126
3354.32	0.6214
3365.89	0.6266
3377.47	0.6299
3389.04	0.632
3400.62	0.6344
3412.19	0.636
3423.77	0.638
3435.34	0.639
3446.92	0.64
3458.5	0.641
3470.07	0.643
3481.65	0.645
3493.22	0.6466
3504.8	0.6499
3516.37	0.65
3527.95	0.6524
3539.52	0.654
3551.1	0.6569
3562.67	0.6582
3574.25	0.66
3585.82	0.66
3597.4	0.661
3608.98	0.661
3620.55	0.661
3632.13	0.661
3643.7	0.661
3655.28	0.661
3666.85	0.661
3678.43	0.6619
3690	0.664
3701.58	0.6636
3713.15	0.661
3724.73	0.66
3736.3	0.6568
3747.88	0.654
3759.45	0.652
3771.03	0.654
3782.61	0.654
3794.18	0.65
3805.76	0.648
3817.33	0.6479
3828.91	0.646
3840.48	0.644
3852.06	0.6411
3863.63	0.6387
3875.21	0.6346
3886.78	0.6313
3898.36	0.628
3909.93	0.624
3921.51	0.621
3933.09	0.62
3944.66	0.621
3956.24	0.621
3967.81	0.62
3979.39	0.6133
3990.96	0.612
4002.54	0.61
4014.11	0.611
4025.69	0.612
4037.26	0.6118
4048.84	0.609
4060.41	0.607
4071.99	0.607
4083.56	0.609
4095.14	0.6074
4106.72	0.6042
4118.29	0.601
4129.87	0.601
4141.44	0.6004
4153.02	0.599
4164.59	0.597
4176.17	0.595
4187.74	0.594
4199.32	0.5949
4210.89	0.597
4222.47	0.5951
4234.04	0.59
4245.62	0.589
4257.19	0.586
4268.77	0.586
4280.35	0.586
4291.92	0.585
4303.5	0.5847
4315.07	0.5824
4326.65	0.5801
4338.22	0.578
4349.8	0.577
4361.37	0.5753
4372.95	0.575
4384.52	0.575
4396.1	0.5725
4407.67	0.571
4419.25	0.569
4430.83	0.567
4442.4	0.5664
4453.98	0.565
4465.55	0.563
4477.13	0.563
4488.7	0.5636
4500.28	0.563
4511.85	0.56
4523.43	0.5596
4535	0.558
4546.58	0.556
4558.15	0.5548
4569.73	0.5525
4581.3	0.5528
4592.88	0.555
4604.46	0.5557
4616.03	0.554
4627.61	0.552
4639.18	0.55
4650.76	0.549
4662.33	0.548
4673.91	0.5451
4685.48	0.543
4697.06	0.5415
4708.63	0.541
4720.21	0.54
4731.78	0.539
4743.36	0.537
4754.94	0.536
4766.51	0.5349
4778.09	0.5327
4789.66	0.532
4801.24	0.5301
4812.81	0.53
4824.39	0.5286
4835.96	0.528
4847.54	0.528
4859.11	0.528
4870.69	0.526
4882.26	0.5233
4893.84	0.522
4905.41	0.522
4916.99	0.5194
4928.57	0.5182
4940.14	0.518
4951.72	0.5166
4963.29	0.5131
4974.87	0.5082
4986.44	0.507
4998.02	0.507
