Infrared Spectrum: 1,1-DIFLUORO-1,2,2,3,3,3-HEXACHLORO PROPANE
Formula: C3 Cl6 F2
CAS: 661-96-1
State: SOLUTION (10% CCl4 FOR 5000-1330, 10% CS2 FOR 1330-625 CM^-^1)
Class: COBLENTZ
Instrument: Not specified, most likely a prism, grating, or hybrid spectrometer.
Sampling: TRANSMISSION
Path length: 0.0119 CM, 0.0115 CM
Resolution: 4
Origin: DOW CHEMICAL COMPANY
MICROMETERS	TRANSMITTANCE
2.055	0.898
2.09609	0.894
2.13719	0.894
2.17828	0.893
2.21938	0.893
2.26047	0.887
2.30156	0.887
2.34266	0.884
2.38375	0.882
2.42485	0.886
2.46594	0.891
2.50703	0.893
2.54813	0.898
2.58922	0.904
2.63031	0.904
2.67141	0.896
2.7125	0.899
2.7536	0.894
2.79469	0.887
2.83578	0.877
2.87688	0.867
2.91797	0.86
2.95907	0.857
3.00016	0.853
3.04125	0.853
3.08235	0.853
3.12344	0.86
3.16454	0.865
3.20563	0.87
3.24672	0.876
3.28782	0.881
3.32891	0.874
3.37001	0.881
3.4111	0.881
3.45219	0.881
3.49329	0.886
3.53438	0.886
3.57548	0.886
3.61657	0.889
3.65766	0.891
3.69876	0.891
3.73985	0.893
3.78094	0.893
3.82204	0.891
3.86313	0.891
3.90423	0.894
3.94532	0.893
3.98641	0.893
4.02751	0.894
4.0686	0.894
4.1097	0.894
4.15079	0.896
4.19188	0.896
4.23298	0.893
4.27407	0.893
4.31517	0.872
4.35626	0.859
4.39735	0.872
4.43845	0.886
4.47954	0.894
4.52064	0.899
4.56173	0.899
4.60282	0.894
4.64392	0.896
4.68501	0.899
4.7261	0.899
4.7672	0.899
4.80829	0.894
4.84939	0.899
4.89048	0.899
4.93157	0.899
4.97267	0.901
5.01376	0.903
5.05486	0.904
5.09595	0.903
5.13704	0.903
5.17814	0.903
5.21923	0.904
5.26033	0.903
5.30142	0.903
5.34251	0.903
5.38361	0.903
5.4247	0.904
5.4658	0.903
5.50689	0.904
5.54798	0.91
5.58908	0.91
5.63017	0.904
5.67126	0.903
5.71236	0.908
5.75345	0.911
5.79455	0.906
5.83564	0.91
5.87673	0.904
5.91783	0.904
5.95892	0.896
6.00002	0.894
6.04111	0.886
6.0822	0.874
6.1233	0.864
6.16439	0.865
6.20549	0.848
6.24658	0.801
6.28767	0.709
6.32877	0.651
6.36986	0.619
6.41096	0.57
6.45205	0.504
6.49314	0.473
6.53424	0.572
6.57533	0.629
6.61643	0.67
6.65752	0.733
6.69861	0.804
6.73971	0.833
6.7808	0.862
6.82189	0.876
6.86299	0.891
6.90408	0.893
6.94518	0.893
6.98627	0.889
7.02736	0.891
7.06846	0.894
7.10955	0.898
7.15065	0.899
7.19174	0.899
7.23283	0.898
7.27393	0.893
7.31502	0.891
7.35612	0.889
7.39721	0.893
7.4383	0.898
7.4794	0.894
7.52049	0.891
7.56159	0.893
7.60268	0.896
7.64377	0.899
7.68487	0.901
7.72596	0.899
7.76705	0.894
7.80815	0.889
7.84924	0.889
7.89034	0.891
7.93143	0.891
7.97252	0.884
8.01362	0.882
8.05471	0.879
8.09581	0.876
8.1369	0.87
8.17799	0.865
8.21909	0.859
8.26018	0.848
8.30128	0.823
8.34237	0.82
8.38346	0.813
8.42456	0.791
8.46565	0.733
8.50675	0.64
8.54784	0.494
8.58893	0.247
8.63003	0.039
8.67112	0.02
8.71222	0.095
8.75331	0.259
8.7944	0.297
8.8355	0.249
8.87659	0.344
8.91768	0.526
8.95878	0.643
8.99987	0.684
9.04097	0.702
9.08206	0.711
9.12315	0.716
9.16425	0.731
9.20534	0.747
9.24644	0.752
9.28753	0.755
9.32862	0.752
9.36972	0.75
9.41081	0.741
9.45191	0.724
9.493	0.721
9.53409	0.716
9.57519	0.68
9.61628	0.55
9.65738	0.344
9.69847	0.103
9.73956	0.049
9.78066	0.064
9.82175	0.164
9.86284	0.319
9.90394	0.514
9.94503	0.655
9.98613	0.723
10.0272	0.762
10.0683	0.779
10.1094	0.78
10.1505	0.758
10.1916	0.741
10.2327	0.77
10.2738	0.801
10.3149	0.811
10.356	0.823
10.3971	0.831
10.4382	0.833
10.4793	0.833
10.5203	0.831
10.5614	0.83
10.6025	0.797
10.6436	0.682
10.6847	0.538
10.7258	0.629
10.7669	0.76
10.808	0.806
10.8491	0.82
10.8902	0.83
10.9313	0.835
10.9724	0.84
11.0135	0.837
11.0546	0.83
11.0957	0.813
11.1368	0.779
11.1779	0.685
11.2189	0.541
11.26	0.404
11.3011	0.397
11.3422	0.539
11.3833	0.619
11.4244	0.633
11.4655	0.611
11.5066	0.611
11.5477	0.645
11.5888	0.657
11.6299	0.662
11.671	0.668
11.7121	0.675
11.7532	0.684
11.7943	0.702
11.8354	0.728
11.8764	0.752
11.9175	0.777
11.9586	0.789
11.9997	0.792
12.0408	0.782
12.0819	0.772
12.123	0.772
12.1641	0.786
12.2052	0.792
12.2463	0.789
12.2874	0.777
12.3285	0.752
12.3696	0.709
12.4107	0.634
12.4518	0.534
12.4929	0.368
12.5339	0.127
12.575	0.02
12.6161	0.006
12.6572	0.016
12.6983	0.084
12.7394	0.179
12.7805	0.275
12.8216	0.361
12.8627	0.417
12.9038	0.415
12.9449	0.319
12.986	0.157
13.0271	0.049
13.0682	0.057
13.1093	0.157
13.1504	0.21
13.1915	0.188
13.2325	0.118
13.2736	0.137
13.3147	0.273
13.3558	0.395
13.3969	0.517
13.438	0.59
13.4791	0.641
13.5202	0.677
13.5613	0.702
13.6024	0.718
13.6435	0.721
13.6846	0.721
13.7257	0.711
13.7668	0.687
13.8079	0.631
13.849	0.556
13.89	0.488
13.9311	0.466
13.9722	0.529
14.0133	0.592
14.0544	0.628
14.0955	0.657
14.1366	0.668
14.1777	0.675
14.2188	0.682
14.2599	0.685
14.301	0.685
14.3421	0.685
14.3832	0.684
14.4243	0.675
14.4654	0.668
14.5065	0.662
14.5476	0.657
14.5886	0.646
14.6297	0.631
14.6708	0.623
14.7119	0.599
14.753	0.585
14.7941	0.561
14.8352	0.541
14.8763	0.521
14.9174	0.499
14.9585	0.466
14.9996	0.41
15.0407	0.278
15.0818	0.186
15.1229	0.125
15.164	0.096
15.2051	0.117
15.2461	0.166
15.2872	0.219
15.3283	0.266
15.3694	0.305
15.4105	0.339
15.4516	0.366
15.4927	0.39
15.5338	0.398
15.5749	0.41
15.616	0.417
15.6571	0.419
15.6982	0.419
15.7393	0.419
15.7804	0.415
15.8215	0.414
15.8626	0.407
15.9037	0.4
