Infrared Spectrum: 1,2-Dichlorohexafluoropropane
Formula: C 3 Cl 2 F 6
CAS: 661-97-2
State: gas
Origin: EPA-IR VAPOR PHASE LIBRARY
1/CM	ABSORBANCE
549.9	0.01498
559.547	0.0169
569.193	0.01335
578.84	0.0129
588.486	0.01474
598.133	0.01222
607.779	0.00894
617.426	0.00864
627.072	0.01466
636.719	0.03035
646.365	0.03764
656.012	0.02739
665.658	0.01206
675.305	0.007
684.951	0.00674
694.598	0.00784
704.245	0.01113
713.891	0.04862
723.538	0.13707
733.184	0.1395
742.831	0.07608
752.477	0.03379
762.124	0.01005
771.77	0.0083
781.417	0.00847
791.063	0.00998
800.71	0.0133
810.356	0.01789
820.003	0.03615
829.649	0.11263
839.296	0.29334
848.943	0.35464
858.589	0.15483
868.236	0.0685
877.882	0.06428
887.529	0.07461
897.175	0.11087
906.822	0.1234
916.468	0.06789
926.115	0.04448
935.761	0.0575
945.408	0.104
955.054	0.23991
964.701	0.37637
974.347	0.25081
983.994	0.07942
993.64	0.041
1003.29	0.03044
1012.93	0.0338
1022.58	0.06417
1032.23	0.13013
1041.87	0.17008
1051.52	0.13127
1061.17	0.11148
1070.81	0.09821
1080.46	0.05009
1090.11	0.03532
1099.75	0.04616
1109.4	0.08156
1119.05	0.18072
1128.69	0.28812
1138.34	0.20495
1147.99	0.15165
1157.63	0.17536
1167.28	0.14816
1176.92	0.095
1186.57	0.11546
1196.22	0.19931
1205.86	0.24846
1215.51	0.40683
1225.16	1.10987
1234.8	1.47924
1244.45	1.06183
1254.1	0.41897
1263.74	0.32851
1273.39	0.43203
1283.04	0.39144
1292.68	0.23089
1302.33	0.09567
1311.98	0.03445
1321.62	0.02155
1331.27	0.01721
1340.92	0.01557
1350.56	0.0144
1360.21	0.01225
1369.86	0.01054
1379.5	0.01013
1389.15	0.00983
1398.79	0.00899
1408.44	0.00807
1418.09	0.00774
1427.73	0.00752
1437.38	0.00709
1447.03	0.0063
1456.67	0.00584
1466.32	0.00588
1475.97	0.00624
1485.61	0.00642
1495.26	0.00641
1504.91	0.00613
1514.55	0.00571
1524.2	0.005382
1533.85	0.0050365
1543.49	0.005039
1553.14	0.00561
1562.79	0.00578
1572.43	0.0052925
1582.08	0.0046244
1591.73	0.0044606
1601.37	0.0046167
1611.02	0.0044172
1620.67	0.004126
1630.31	0.003954
1639.96	0.0037
1649.6	0.003504
1659.25	0.0034
1668.9	0.00343
1678.54	0.003518
1688.19	0.003711
1697.84	0.003831
1707.48	0.003972
1717.13	0.003958
1726.78	0.003816
1736.42	0.00346
1746.07	0.00336
1755.72	0.00332
1765.36	0.003501
1775.01	0.003692
1784.66	0.003771
1794.3	0.003717
1803.95	0.003741
1813.6	0.003802
1823.24	0.003683
1832.89	0.003519
1842.54	0.00333
1852.18	0.00312
1861.83	0.00294
1871.47	0.0028
1881.12	0.00289
1890.77	0.00292
1900.41	0.00295
1910.06	0.00294
1919.71	0.00293
1929.35	0.00291
1939	0.00304
1948.65	0.00339
1958.29	0.003767
1967.94	0.003873
1977.59	0.00338
1987.23	0.003
1996.88	0.0029
2006.53	0.00298
2016.17	0.00302
2025.82	0.00309
2035.47	0.00319
2045.11	0.00307
2054.76	0.00292
2064.41	0.00288
2074.05	0.00302
2083.7	0.00322
2093.35	0.00327
2102.99	0.00319
2112.64	0.00324
2122.28	0.00343
2131.93	0.00323
2141.58	0.00315
2151.22	0.00313
2160.87	0.00337
2170.52	0.003671
2180.16	0.004308
2189.81	0.0049739
2199.46	0.0054547
2209.1	0.00558
2218.75	0.00606
2228.4	0.00661
2238.04	0.00674
2247.69	0.00648
2257.34	0.00573
2266.98	0.0046482
2276.63	0.004087
2286.28	0.004209
2295.92	0.00453991
2305.57	0.0049055
2315.22	0.0050238
2324.86	0.0048933
2334.51	0.0049152
2344.16	0.0052435
2353.8	0.0054551
2363.45	0.0050783
2373.09	0.00450972
2382.74	0.004177
2392.39	0.004155
2402.03	0.004226
2411.68	0.004031
2421.33	0.004091
2430.97	0.004195
2440.62	0.00450699
2450.27	0.0048944
2459.91	0.0050942
2469.56	0.0050934
2479.21	0.0048065
2488.85	0.00455702
2498.5	0.0044621
2508.15	0.00448897
2517.79	0.004126
2527.44	0.00344
2537.09	0.00285
2546.73	0.0024
2556.38	0.00225
2566.03	0.0021
2575.67	0.00202
2585.32	0.00193
2594.96	0.00191
2604.61	0.00193
2614.26	0.00171
2623.9	0.00171
2633.55	0.00173
2643.2	0.00168
2652.84	0.00158
2662.49	0.00161
2672.14	0.00157
2681.78	0.00156
2691.43	0.00155
2701.08	0.00159
2710.72	0.00144
2720.37	0.00153
2730.02	0.0014
2739.66	0.00136
2749.31	0.00133
2758.96	0.00127
2768.6	0.00134
2778.25	0.00128
2787.9	0.00122
2797.54	0.00115
2807.19	0.0011
2816.84	0.00104
2826.48	0.00103
2836.13	0.00109
2845.77	0.001
2855.42	0.00088
2865.07	0.00079
2874.71	0.00072
2884.36	0.00066
2894.01	0.0007
2903.65	0.00067
2913.3	0.00059
2922.95	0.0006
2932.59	0.00055
2942.24	0.00066
2951.89	0.00054
2961.53	0.00046
2971.18	0.0002
2980.83	0.00048
2990.47	0.00045
3000.12	0.00037
3009.77	0.00046
3019.41	0.00043
3029.06	0.00027
3038.71	0.00017
3048.35	0.00027
3058	0.00024
3067.64	0.00027
3077.29	0.00021
3086.94	7e-05
3096.58	0.00014
3106.23	0.00014
3115.88	0.0002
3125.52	0.00029
3135.17	0.00012
3144.82	0.00035
3154.46	8e-05
3164.11	0.00025
3173.76	0.00042
3183.4	0.00019
3193.05	0.00048
3202.7	0.00046
3212.34	0.00034
3221.99	0.00044
3231.64	0.00049
3241.28	0.00035
3250.93	0.00037
3260.58	0.0004
3270.22	0.00053
3279.87	0.00073
3289.52	0.00073
3299.16	0.00072
3308.81	0.00084
3318.45	0.0009
3328.1	0.00084
3337.75	0.00088
3347.39	0.00094
3357.04	0.00079
3366.69	0.001
3376.33	0.00114
3385.98	0.00112
3395.63	0.00108
3405.27	0.00116
3414.92	0.00108
3424.57	0.00124
3434.21	0.00144
3443.86	0.00159
3453.51	0.00153
3463.15	0.00159
3472.8	0.00163
3482.45	0.00172
3492.09	0.00175
3501.74	0.00173
3511.39	0.00178
3521.03	0.00182
3530.68	0.00191
3540.33	0.00198
3549.97	0.00174
3559.62	0.00206
3569.26	0.00196
3578.91	0.00208
3588.56	0.00206
3598.2	0.00202
3607.85	0.0023
3617.5	0.00214
3627.14	0.00229
3636.79	0.00234
3646.44	0.00225
3656.08	0.00218
3665.73	0.0021
3675.38	0.00225
3685.02	0.00227
3694.67	0.00233
3704.32	0.00242
3713.96	0.00228
3723.61	0.00239
3733.26	0.00225
3742.9	0.00229
3752.55	0.00232
3762.2	0.00232
3771.84	0.00239
3781.49	0.00245
3791.13	0.00238
3800.78	0.00244
3810.43	0.0024
3820.07	0.00244
3829.72	0.0024
3839.37	0.00238
3849.01	0.00241
3858.66	0.0024
3868.31	0.00218
3877.95	0.00239
3887.6	0.00221
3897.25	0.0024
3906.89	0.00237
3916.54	0.00236
3926.19	0.00234
3935.83	0.00236
3945.48	0.00239
3955.13	0.00229
3964.77	0.00241
3974.42	0.00219
3984.07	0.00243
3993.71	0.00236
