Infrared Spectrum: Disilane, 1,2-difluoro-1,1,2,2-tetramethyl-,
Formula: C4 H12 F2 Si2
CAS: 661-68-7
State: SOLUTION (4% CCl4 FOR 3800-1300, 2% CS2 FOR 1300-600, AND 4% CCl4 FOR 600-250)
Boiling point: 92 C
Class: COBLENTZ III
Instrument: PERKIN-ELMER 521 (GRATING)
Instrument parameters: FILTERS AT 3150, 2500, 2000, 1150, 700, 410. GRATING CHANGES: 2000, 630
Path length: 0.022 CM, 0.011 CM, AND 0.010 CM
Resolution: 2
Origin: DOW CORNING CORP.
1/CM	TRANSMITTANCE
250	0.5631
259	0.5602
268	0.5323
277	0.5188
286	0.5697
295	0.6744
304	0.8394
313	0.8705
322	0.8865
331	0.9015
340	0.9052
349	0.9046
358	0.9051
367	0.9064
376	0.91
385	0.9267
394	0.9287
403	0.9294
412	0.9298
421	0.9307
430	0.9293
439	0.9264
448	0.9219
457	0.9187
466	0.9176
475	0.9175
484	0.9213
493	0.9283
502	0.929
511	0.9255
520	0.9205
529	0.9179
538	0.9191
547	0.9215
556	0.9242
565	0.9258
574	0.9271
583	0.9278
592	0.9186
601	0.8402
610	0.8567
619	0.8793
628	0.8753
637	0.7829
646	0.5897
655	0.898
664	0.9182
673	0.9247
682	0.9275
691	0.9215
700	0.9262
709	0.922
718	0.9161
727	0.917
736	0.9138
745	0.893
754	0.8087
763	0.7034
772	0.4967
781	0.2033
790	0.6391
799	0.5544
808	0.2952
817	0.5435
826	0.7296
835	0.754
844	0.7083
853	0.4382
862	0.2096
871	0.5986
880	0.6528
889	0.8362
898	0.8505
907	0.8865
916	0.9198
925	0.9331
934	0.9423
943	0.9494
952	0.9559
961	0.9613
970	0.9669
979	0.9728
988	0.9786
997	0.984
1006	0.9894
1015	0.9944
1024	0.988
1033	0.9809
1042	0.9717
1051	0.9632
1060	0.9547
1069	0.9456
1078	0.9326
1087	0.9378
1096	0.9444
1105	0.9521
1114	0.9654
1123	0.9767
1132	0.9848
1141	0.9906
1150	0.9937
1159	0.9898
1168	0.9811
1177	0.9813
1186	0.9767
1195	0.9698
1204	0.9627
1213	0.9558
1222	0.9456
1231	0.9049
1240	0.8116
1249	0.4198
1258	0.796
1267	0.9128
1276	0.9359
1285	0.9479
1294	0.9479
1303	0.7386
1312	0.7409
1321	0.7479
1330	0.7575
1339	0.7662
1348	0.7613
1357	0.756
1366	0.7464
1375	0.7093
1384	0.6222
1393	0.5523
1402	0.5745
1411	0.6564
1420	0.6885
1429	0.6662
1438	0.6543
1447	0.7053
1456	0.7394
1465	0.7743
1474	0.7905
1483	0.7963
1492	0.8005
1501	0.8033
1510	0.805
1519	0.8098
1528	0.8237
1537	0.8294
1546	0.8282
1555	0.8277
1564	0.828
1573	0.8285
1582	0.8277
1591	0.8275
1600	0.8276
1609	0.8279
1618	0.8285
1627	0.8298
1636	0.8314
1645	0.8335
1654	0.836
1663	0.8386
1672	0.8411
1681	0.8435
1690	0.8448
1699	0.845
1708	0.8447
1717	0.8449
1726	0.8455
1735	0.8464
1744	0.8477
1753	0.8495
1762	0.8514
1771	0.8534
1780	0.8547
1789	0.8561
1798	0.8572
1807	0.8581
1816	0.8589
1825	0.8597
1834	0.8596
1843	0.8589
1852	0.8576
1861	0.8567
1870	0.8542
1879	0.8514
1888	0.8365
1897	0.8492
1906	0.8541
1915	0.8483
1924	0.8431
1933	0.8499
1942	0.8551
1951	0.8588
1960	0.8608
1969	0.8609
1978	0.8602
1987	0.8607
1996	0.8617
2005	0.8754
2014	0.8653
2023	0.8604
2032	0.8613
2041	0.8646
2050	0.8687
2059	0.8695
2068	0.8695
2077	0.8693
2086	0.8693
2095	0.8687
2104	0.869
2113	0.8695
2122	0.8712
2131	0.8731
2140	0.8748
2149	0.8751
2158	0.8751
2167	0.8757
2176	0.8766
2185	0.877
2194	0.8772
2203	0.8764
2212	0.8755
2221	0.8743
2230	0.8731
2239	0.8728
2248	0.8734
2257	0.8747
2266	0.8763
2275	0.8777
2284	0.878
2293	0.8782
2302	0.8785
2311	0.8788
2320	0.8788
2329	0.8787
2338	0.8784
2347	0.8779
2356	0.8774
2365	0.8767
2374	0.8761
2383	0.8754
2392	0.8748
2401	0.874
2410	0.8731
2419	0.8721
2428	0.8708
2437	0.8693
2446	0.8679
2455	0.866
2464	0.8641
2473	0.8622
2482	0.8605
2491	0.8588
2500	0.8641
2509	0.8698
2518	0.8695
2527	0.8691
2536	0.8685
2545	0.8678
2554	0.8667
2563	0.8652
2572	0.8637
2581	0.8677
2590	0.8705
2599	0.8677
2608	0.8651
2617	0.8635
2626	0.8619
2635	0.8611
2644	0.8603
2653	0.8594
2662	0.8601
2671	0.8608
2680	0.8616
2689	0.8622
2698	0.8622
2707	0.8621
2716	0.862
2725	0.8605
2734	0.8591
2743	0.8572
2752	0.8531
2761	0.8489
2770	0.8447
2779	0.8403
2788	0.8378
2797	0.838
2806	0.8413
2815	0.8418
2824	0.8405
2833	0.8389
2842	0.8364
2851	0.8338
2860	0.8279
2869	0.8195
2878	0.8077
2887	0.787
2896	0.754
2905	0.7291
2914	0.7638
2923	0.7779
2932	0.7755
2941	0.7571
2950	0.6861
2959	0.5185
2968	0.351
2977	0.4433
2986	0.6396
2995	0.8008
3004	0.8179
3013	0.828
3022	0.8351
3031	0.8404
3040	0.8453
3049	0.8454
3058	0.8462
3067	0.8466
3076	0.8472
3085	0.848
3094	0.8489
3103	0.8498
3112	0.85
3121	0.854
3130	0.872
3139	0.8707
3148	0.8683
3157	0.8701
3166	0.8719
3175	0.8734
3184	0.8741
3193	0.8749
3202	0.8758
3211	0.8766
3220	0.8774
3229	0.8781
3238	0.8789
3247	0.8793
3256	0.8799
3265	0.8803
3274	0.8807
3283	0.8802
3292	0.8798
3301	0.8793
3310	0.879
3319	0.8785
3328	0.8781
3337	0.8776
3346	0.8772
3355	0.8767
3364	0.8762
3373	0.8757
3382	0.8753
3391	0.8748
3400	0.8745
3409	0.874
3418	0.8741
3427	0.8743
3436	0.8746
3445	0.8748
3454	0.8748
3463	0.8747
3472	0.8747
3481	0.8745
3490	0.8743
3499	0.8741
3508	0.874
3517	0.8742
3526	0.8743
3535	0.8745
3544	0.8746
3553	0.8748
3562	0.8751
3571	0.8756
3580	0.8764
3589	0.8772
3598	0.8768
3607	0.8713
3616	0.8682
3625	0.8675
3634	0.8675
3643	0.8675
3652	0.8677
3661	0.8678
3670	0.8676
3679	0.8675
3688	0.8691
3697	0.8714
3706	0.8738
3715	0.8639
3724	0.8633
3733	0.8678
3742	0.8722
3751	0.8753
3760	0.8748
3769	0.8731
3778	0.8707
3787	0.8725
3796	0.8758
3805	0.8775
3814	0.8783
3823	0.879
