Infrared Spectrum: 1-Docosanol
Formula: C 22 H 46 O
CAS: 661-19-8
State: gas
Instrument: HP-GC/MS/IRD
Origin: NIST Mass Spectrometry Data Center
1/CM	ABSORBANCE
550	6.38e-05
562	6.38e-05
574	0.0001479
586	0.0001189
598	8.99e-05
610	7.25e-05
622	3.48e-05
634	1.45e-05
646	0.0001334
658	0.0001015
670	6.96e-05
682	6.67e-05
694	0.0001102
706	0.0002784
718	0.0003683
730	0.0003219
742	0.0002291
754	0.0002204
766	0.0001189
778	0.0001479
790	0.000116
802	0.000116
814	0.0001015
826	0.0001363
838	0.0001421
850	0.0001711
862	0.0001479
874	0.000203
886	0.0001595
898	0.000203
910	0.0001914
922	0.0002291
934	0.0002523
946	0.0002726
958	0.0002784
970	0.0003277
982	0.0004292
994	0.0005452
1006	0.0007424
1018	0.0009686
1030	0.0013369
1042	0.0015747
1054	0.0015544
1066	0.0012006
1078	0.0008555
1090	0.0006206
1102	0.0004089
1114	0.0003625
1126	0.0002697
1138	0.0002378
1150	0.0002349
1162	0.0002088
1174	0.0002523
1186	0.0002842
1198	0.0002871
1210	0.0002958
1222	0.0003712
1234	0.0003538
1246	0.0004002
1258	0.0003973
1270	0.0004379
1282	0.0004901
1294	0.0005394
1306	0.0005771
1318	0.0005568
1330	0.0005365
1342	0.0007801
1354	0.0009425
1366	0.0008294
1378	0.0007366
1390	0.0006525
1402	0.0004814
1414	0.0004263
1426	0.0004698
1438	0.000783
1450	0.0014355
1462	0.0018676
1474	0.0011629
1486	0.0005162
1498	0.0003132
1510	0.0003045
1522	0.0002349
1534	0.0001595
1546	0.0001624
1558	0.0002059
1570	9.28e-05
1582	5.22e-05
1594	6.09e-05
1606	4.35e-05
1618	6.96e-05
1630	6.09e-05
1642	8.12e-05
1654	0.0001537
1666	6.09e-05
1678	6.96e-05
1690	4.64e-05
1702	9.28e-05
1714	9.28e-05
1726	4.35e-05
1738	6.96e-05
1750	7.83e-05
1762	5.8e-05
1774	5.8e-05
1786	4.93e-05
1798	4.64e-05
1810	4.93e-05
1822	3.77e-05
1834	3.19e-05
1846	3.77e-05
1858	8.7e-06
1870	4.06e-05
1882	3.77e-05
1894	1.74e-05
1906	4.93e-05
1918	4.64e-05
1930	4.06e-05
1942	4.06e-05
1954	2.32e-05
1966	3.19e-05
1978	2.9e-05
1990	4.35e-05
2002	2.9e-05
2014	5.51e-05
2026	3.77e-05
2038	6.09e-05
2050	3.48e-05
2062	3.48e-05
2074	3.19e-05
2086	3.48e-05
2098	1.74e-05
2110	2.9e-05
2122	3.48e-05
2134	3.48e-05
2146	3.77e-05
2158	4.06e-05
2170	2.61e-05
2182	3.19e-05
2194	2.61e-05
2206	2.03e-05
2218	1.16e-05
2230	2.61e-05
2242	1.74e-05
2254	3.77e-05
2266	1.16e-05
2278	4.06e-05
2290	3.19e-05
2302	3.77e-05
2314	3.48e-05
2326	4.64e-05
2338	2.03e-05
2350	4.64e-05
2362	3.19e-05
2374	4.06e-05
2386	1.74e-05
2398	2.61e-05
2410	2.9e-05
2422	2.61e-05
2434	1.45e-05
2446	2.9e-05
2458	4.06e-05
2470	1.16e-05
2482	1.74e-05
2494	3.48e-05
2506	2.32e-05
2518	4.64e-05
2530	5.22e-05
2542	6.96e-05
2554	6.38e-05
2566	5.51e-05
2578	6.38e-05
2590	9.28e-05
2602	8.99e-05
2614	0.000116
2626	0.0001189
2638	0.0001595
2650	0.0002001
2662	0.0002378
2674	0.0002581
2686	0.0002755
2698	0.0002523
2710	0.0002262
2722	0.0002378
2734	0.0002813
2746	0.00029
2758	0.0003654
2770	0.0004176
2782	0.0004756
2794	0.0006467
2806	0.0008091
2818	0.0011165
2830	0.001595
2842	0.0027782
2854	0.007192
2866	0.0103878
2878	0.0066497
2890	0.0056289
2902	0.0074095
2914	0.012412
2926	0.0245543
2938	0.0257868
2950	0.0120292
2962	0.0064844
2974	0.0040542
2986	0.0019981
2998	0.0011803
3010	0.0008149
3022	0.0005887
3034	0.0004437
3046	0.0003364
3058	0.0002407
3070	0.000203
3082	0.0001769
3094	0.0001218
3106	0.0001334
3118	6.38e-05
3130	0.0001392
3142	9.28e-05
3154	0.000116
3166	7.83e-05
3178	7.83e-05
3190	8.12e-05
3202	4.64e-05
3214	3.48e-05
3226	6.09e-05
3238	3.19e-05
3250	4.06e-05
3262	5.22e-05
3274	2.32e-05
3286	1.16e-05
3298	2.03e-05
3310	9.28e-05
3322	8.12e-05
3334	6.38e-05
3346	6.38e-05
3358	6.09e-05
3370	5.22e-05
3382	4.64e-05
3394	9.57e-05
3406	9.86e-05
3418	0.000116
3430	7.83e-05
3442	7.54e-05
3454	4.64e-05
3466	9.57e-05
3478	8.41e-05
3490	7.83e-05
3502	9.28e-05
3514	0.0001247
3526	0.0001102
3538	0.0001015
3550	0.0001247
3562	0.0001392
3574	0.0001044
3586	0.0001682
3598	0.0001479
3610	0.0002088
3622	0.000203
3634	0.0002813
3646	0.0003538
3658	0.0004785
3670	0.0006032
3682	0.0004205
3694	0.0002349
3706	0.000203
3718	0.0002204
3730	0.0002059
3742	0.0002407
3754	0.0002059
3766	0.000232
3778	0.0002175
3790	0.0001653
3802	0.0002407
3814	0.000203
3826	0.000203
3838	0.0002291
