Infrared Spectrum: 4-Dichloromethyl-4-methyl-2,5-cyclohexadienone
Formula: C 8 H 8 Cl 2 O
CAS: 6611-78-5
State: gas
Origin: EPA-IR VAPOR PHASE LIBRARY
1/CM	ABSORBANCE
549.8	0.0009909
559.445	0.0008821
569.09	0.001313
578.734	0.0011591
588.379	0.0007992
598.024	0.000525
607.669	0.0007769
617.313	0.0004461
626.958	0.000342
636.603	0.0005086
646.248	0.000977
655.893	0.002683
665.537	0.004983
675.182	0.007583
684.827	0.010153
694.472	0.009333
704.116	0.006303
713.761	0.003793
723.406	0.003613
733.051	0.006863
742.695	0.012723
752.34	0.020343
761.985	0.028263
771.63	0.029413
781.275	0.047813
790.919	0.038093
800.564	0.011763
810.209	0.003733
819.854	0.002733
829.498	0.003533
839.143	0.010893
848.788	0.033393
858.433	0.042203
868.078	0.016143
877.722	0.004003
887.367	0.004173
897.012	0.007643
906.657	0.009833
916.301	0.006363
925.946	0.002903
935.591	0.002983
945.236	0.005313
954.88	0.005673
964.525	0.002893
974.17	0.001433
983.815	0.001323
993.46	0.001873
1003.1	0.001993
1012.75	0.001883
1022.39	0.001533
1032.04	0.001883
1041.68	0.002933
1051.33	0.004503
1060.97	0.003803
1070.62	0.001243
1080.26	0.002553
1089.91	0.006473
1099.55	0.007613
1109.2	0.004483
1118.84	0.002523
1128.49	0.002073
1138.13	0.001893
1147.78	0.0012262
1157.42	0.0011647
1167.07	0.002173
1176.71	0.005503
1186.36	0.005053
1196	0.002903
1205.64	0.004033
1215.29	0.008563
1224.93	0.011593
1234.58	0.010553
1244.22	0.014503
1253.87	0.015893
1263.51	0.008623
1273.16	0.003933
1282.8	0.001933
1292.45	0.001353
1302.09	0.001253
1311.74	0.001373
1321.38	0.0012037
1331.03	0.0008788
1340.67	0.0008696
1350.32	0.001283
1359.96	0.002693
1369.61	0.005003
1379.25	0.007403
1388.9	0.014093
1398.54	0.012533
1408.18	0.004203
1417.83	0.001693
1427.47	0.001643
1437.12	0.002323
1446.76	0.004853
1456.41	0.006623
1466.05	0.004863
1475.7	0.002353
1485.34	0.001383
1494.99	0.001169
1504.63	0.0011932
1514.28	0.001413
1523.92	0.001343
1533.57	0.0011682
1543.21	0.0011033
1552.86	0.0010847
1562.5	0.0011109
1572.15	0.0011268
1581.79	0.001383
1591.44	0.001913
1601.08	0.003043
1610.73	0.003603
1620.37	0.004383
1630.01	0.007473
1639.66	0.011323
1649.3	0.011733
1658.95	0.016853
1668.59	0.028733
1678.24	0.057953
1687.88	0.110273
1697.53	0.092063
1707.17	0.044903
1716.82	0.025813
1726.46	0.011123
1736.11	0.005933
1745.75	0.003983
1755.4	0.002693
1765.04	0.001933
1774.69	0.001453
1784.33	0.001147
1793.98	0.000942
1803.62	0.0010524
1813.27	0.001263
1822.91	0.001533
1832.55	0.001663
1842.2	0.001663
1851.84	0.001523
1861.49	0.0010912
1871.13	0.0007794
1880.78	0.0006756
1890.42	0.0004967
1900.07	0.0005782
1909.71	0.0005058
1919.36	0.000515
1929	0.0004408
1938.65	0.000508
1948.29	0.0005928
1957.94	0.000829
1967.58	0.0009095
1977.23	0.0008108
1986.87	0.0006048
1996.52	0.0004665
2006.16	0.0004077
2015.81	0.0003967
2025.45	0.0004647
2035.1	0.0004738
2044.74	0.0004863
2054.38	0.0004213
2064.03	0.0005095
2073.67	0.0004817
2083.32	0.0003861
2092.96	0.0004521
2102.61	0.0004208
2112.25	0.0004376
2121.9	0.0004064
2131.54	0.000404
2141.19	0.0004953
2150.83	0.0005269
2160.48	0.0004771
2170.12	0.0003782
2179.77	0.0003847
2189.41	0.0004123
2199.06	0.0003717
2208.7	0.0004095
2218.35	0.000398
2227.99	0.0004235
2237.64	0.0003977
2247.28	0.0003891
2256.92	0.0004195
2266.57	0.0004681
2276.21	0.0005235
2285.86	0.0005282
2295.5	0.0005342
2305.15	0.0004163
2314.79	0.0004316
2324.44	0.0004845
2334.08	0.0005281
2343.73	0.0004381
2353.37	0.0005031
2363.02	0.0004001
2372.66	0.0004034
2382.31	0.0004424
2391.95	0.0003956
2401.6	0.0005808
2411.24	0.0006276
2420.89	0.0006576
2430.53	0.000575
2440.18	0.000536
2449.82	0.0004769
2459.47	0.0006392
2469.11	0.0005633
2478.75	0.0004461
2488.4	0.0004904
2498.04	0.0006225
2507.69	0.0003753
2517.33	0.0004654
2526.98	0.0004771
2536.62	0.000484
2546.27	0.0004417
2555.91	0.0004643
2565.56	0.0003618
2575.2	0.0004945
2584.85	0.000449
2594.49	0.0005218
2604.14	0.0004655
2613.78	0.000412
2623.43	0.0005031
2633.07	0.0005044
2642.72	0.0005479
2652.36	0.0004262
2662.01	0.000383
2671.65	0.0003955
2681.29	0.0003797
2690.94	0.0003785
2700.58	0.0004119
2710.23	0.0004813
2719.87	0.0004242
2729.52	0.0003425
2739.16	0.0005194
2748.81	0.0004267
2758.45	0.0005341
2768.1	0.0005049
2777.74	0.000529
2787.39	0.0005759
2797.03	0.00042
2806.68	0.0004481
2816.32	0.0006543
2825.97	0.0006296
2835.61	0.0006877
2845.26	0.0008199
2854.9	0.0009426
2864.55	0.001273
2874.19	0.002243
2883.84	0.003093
2893.48	0.002323
2903.12	0.001623
2912.77	0.001623
2922.41	0.002243
2932.06	0.004383
2941.7	0.006273
2951.35	0.004233
2960.99	0.002513
2970.64	0.004153
2980.28	0.008993
2989.93	0.011243
2999.57	0.008763
3009.22	0.003793
3018.86	0.002383
3028.51	0.002663
3038.15	0.003663
3047.8	0.005093
3057.44	0.005963
3067.09	0.003853
3076.73	0.001973
3086.38	0.001493
3096.02	0.0010241
3105.67	0.0005949
3115.31	0.0005288
3124.95	0.0004253
3134.6	0.0005926
3144.24	0.0004218
3153.89	0.0004671
3163.53	0.0005758
3173.18	0.00026178
3182.82	0.0004428
3192.47	0.0005659
3202.11	0.0004966
3211.76	0.0005579
3221.4	0.0007491
3231.05	0.0006498
3240.69	0.0007005
3250.34	0.0006491
3259.98	0.0004264
3269.63	0.0007165
3279.27	0.0006077
3288.92	0.0007651
3298.56	0.0009256
3308.21	0.0009378
3317.85	0.001253
3327.49	0.001273
3337.14	0.0012169
3346.78	0.001293
3356.43	0.0012261
3366.07	0.001533
3375.72	0.001603
3385.36	0.0011878
3395.01	0.0008559
3404.65	0.0006355
3414.3	0.0004612
3423.94	0.0004397
3433.59	0.0005249
3443.23	0.0001461
3452.88	0.0003769
3462.52	0.0003449
3472.17	0.00027174
3481.81	0.0004047
3491.46	0.0003462
3501.1	0.0003845
3510.75	0.0003206
3520.39	0.0003986
3530.04	0.0003585
3539.68	0.00026221
3549.32	0.00029365
3558.97	0.0004336
3568.61	0.0004768
3578.26	0.00032021
3587.9	0.0002216
3597.55	0.0005176
3607.19	0.0003515
3616.84	0.00031267
3626.48	0.0003455
3636.13	0.00029039
3645.77	0.0003489
3655.42	0.0004354
3665.06	0.0003507
3674.71	0.0001951
3684.35	0.00029219
3694	0.0002086
3703.64	9.7e-05
3713.29	0.00025025
3722.93	0.0003376
3732.58	0.0004288
3742.22	0.0004707
3751.86	0.0001598
3761.51	0.0003424
3771.15	0.0003727
3780.8	0.0003396
3790.44	0.0003927
3800.09	0.00031566
3809.73	0.0003956
3819.38	0.0002803
3829.02	0.00041
3838.67	0.0002216
3848.31	0.00027982
3857.96	0.0004278
3867.6	0.0003672
3877.25	0.0003754
3886.89	0.00031255
3896.54	0.00029289
3906.18	0.0002935
3915.83	0.000395
3925.47	9.8e-05
3935.12	0.0004529
3944.76	0.0004848
3954.41	0.0004222
3964.05	0.0005074
3973.69	0.0003922
3983.34	0.0004819
3992.98	0.0004786
