Infrared Spectrum: 7-Benzoylheptanoic acid
Formula: C 14 H 18 O 3
CAS: 66147-75-9
State: gas
Origin: EPA-IR VAPOR PHASE LIBRARY
1/CM	ABSORBANCE
549.8	0.030009
559.445	0.037139
569.09	0.040589
578.734	0.039299
588.379	0.040569
598.024	0.043939
607.669	0.042219
617.313	0.038499
626.958	0.034979
636.603	0.030799
646.248	0.027999
655.893	0.027809
665.537	0.027319
675.182	0.032259
684.827	0.049799
694.472	0.060549
704.116	0.039119
713.761	0.029639
723.406	0.028829
733.051	0.030659
742.695	0.034479
752.34	0.032269
761.985	0.024179
771.63	0.017229
781.275	0.012719
790.919	0.009209
800.564	0.007159
810.209	0.006449
819.854	0.005749
829.498	0.005719
839.143	0.005969
848.788	0.007059
858.433	0.007899
868.078	0.008159
877.722	0.007639
887.367	0.007499
897.012	0.007639
906.657	0.008449
916.301	0.010049
925.946	0.012259
935.591	0.013359
945.236	0.015979
954.88	0.021209
964.525	0.026459
974.17	0.026369
983.815	0.023789
993.46	0.023969
1003.1	0.031519
1012.75	0.031189
1022.39	0.026079
1032.04	0.022139
1041.68	0.025699
1051.33	0.031769
1060.97	0.041079
1070.62	0.050779
1080.26	0.056269
1089.91	0.060929
1099.55	0.069889
1109.2	0.094629
1118.84	0.122659
1128.49	0.111579
1138.13	0.083739
1147.78	0.070849
1157.42	0.066049
1167.07	0.063689
1176.71	0.072279
1186.36	0.064749
1196	0.058819
1205.64	0.072929
1215.29	0.080039
1224.93	0.068159
1234.58	0.058699
1244.22	0.059509
1253.87	0.062809
1263.51	0.063649
1273.16	0.057109
1282.8	0.049369
1292.45	0.043979
1302.09	0.038449
1311.74	0.037539
1321.38	0.038319
1331.03	0.038099
1340.67	0.041909
1350.32	0.048939
1359.96	0.050109
1369.61	0.046329
1379.25	0.040609
1388.9	0.032159
1398.54	0.023189
1408.18	0.019839
1417.83	0.020379
1427.47	0.021759
1437.12	0.026739
1446.76	0.042439
1456.41	0.035819
1466.05	0.024569
1475.7	0.013519
1485.34	0.008299
1494.99	0.006409
1504.63	0.005819
1514.28	0.005129
1523.92	0.004769
1533.57	0.004599
1543.21	0.004299
1552.86	0.004509
1562.5	0.005899
1572.15	0.009199
1581.79	0.013469
1591.44	0.014039
1601.08	0.015559
1610.73	0.009889
1620.37	0.006899
1630.01	0.005639
1639.66	0.005989
1649.3	0.007899
1658.95	0.011499
1668.59	0.017229
1678.24	0.031499
1687.88	0.076909
1697.53	0.148659
1707.17	0.129059
1716.82	0.056059
1726.46	0.037419
1736.11	0.044899
1745.75	0.066619
1755.4	0.100519
1765.04	0.149589
1774.69	0.204039
1784.33	0.171269
1793.98	0.108179
1803.62	0.067969
1813.27	0.036949
1822.91	0.019259
1832.55	0.011069
1842.2	0.007179
1851.84	0.005449
1861.49	0.004489
1871.13	0.004129
1880.78	0.004489
1890.42	0.004669
1900.07	0.004609
1909.71	0.004079
1919.36	0.003409
1929	0.003099
1938.65	0.003309
1948.29	0.004219
1957.94	0.004509
1967.58	0.004159
1977.23	0.003039
1986.87	0.002229
1996.52	0.002029
2006.16	0.001729
2015.81	0.001609
2025.45	0.001609
2035.1	0.001649
2044.74	0.001639
2054.38	0.001649
2064.03	0.001589
2073.67	0.001349
2083.32	0.001279
2092.96	0.001239
2102.61	0.001279
2112.25	0.001269
2121.9	0.001409
2131.54	0.001439
2141.19	0.001519
2150.83	0.001539
2160.48	0.001349
2170.12	0.001589
2179.77	0.001649
2189.41	0.001669
2199.06	0.001699
2208.7	0.001689
2218.35	0.001699
2227.99	0.001739
2237.64	0.001609
2247.28	0.001859
2256.92	0.001679
2266.57	0.001679
2276.21	0.001629
2285.86	0.001749
2295.5	0.001589
2305.15	0.001779
2314.79	0.001979
2324.44	0.001929
2334.08	0.001729
2343.73	0.001769
2353.37	0.001579
2363.02	0.001639
2372.66	0.001469
2382.31	0.001409
2391.95	0.001549
2401.6	0.001629
2411.24	0.001669
2420.89	0.001589
2430.53	0.001509
2440.18	0.001519
2449.82	0.001469
2459.47	0.0011176
2469.11	0.0011005
2478.75	0.001379
2488.4	0.001219
2498.04	0.001209
2507.69	0.001349
2517.33	0.001189
2526.98	0.0010701
2536.62	0.001269
2546.27	0.001249
2555.91	0.0011053
2565.56	0.0011164
2575.2	0.001339
2584.85	0.001529
2594.49	0.001509
2604.14	0.001599
2613.78	0.001639
2623.43	0.001579
2633.07	0.001769
2642.72	0.001769
2652.36	0.001829
2662.01	0.001939
2671.65	0.002099
2681.29	0.002259
2690.94	0.001999
2700.58	0.002249
2710.23	0.002259
2719.87	0.002069
2729.52	0.001999
2739.16	0.001949
2748.81	0.002219
2758.45	0.002469
2768.1	0.002629
2777.74	0.002919
2787.39	0.003279
2797.03	0.003989
2806.68	0.004769
2816.32	0.005849
2825.97	0.007199
2835.61	0.008939
2845.26	0.013689
2854.9	0.026349
2864.55	0.044099
2874.19	0.044089
2883.84	0.033649
2893.48	0.032149
2903.12	0.040109
2912.77	0.053849
2922.41	0.073439
2932.06	0.098779
2941.7	0.114849
2951.35	0.103539
2960.99	0.073149
2970.64	0.047209
2980.28	0.028639
2989.93	0.017679
2999.57	0.011689
3009.22	0.009799
3018.86	0.009849
3028.51	0.012999
3038.15	0.016009
3047.8	0.015089
3057.44	0.018279
3067.09	0.028779
3076.73	0.029099
3086.38	0.022079
3096.02	0.016619
3105.67	0.009889
3115.31	0.005659
3124.95	0.002529
3134.6	0.002089
3144.24	0.001959
3153.89	0.001979
3163.53	0.001579
3173.18	0.001369
3182.82	0.0007187
3192.47	0.001189
3202.11	0.0010791
3211.76	0.0007266
3221.4	0.0005487
3231.05	0.0006928
3240.69	0.0006878
3250.34	0.0005802
3259.98	0.0005516
3269.63	0.0008623
3279.27	0.0005069
3288.92	0.0005402
3298.56	0.0005789
3308.21	0.0010013
3317.85	0.0006422
3327.49	0.0009527
3337.14	0.0007229
3346.78	0.0005154
3356.43	0.001219
3366.07	0.001999
3375.72	0.002499
3385.36	0.003189
3395.01	0.001789
3404.65	0.001699
3414.3	0.001529
3423.94	0.0008323
3433.59	0.0010643
3443.23	0.0009653
3452.88	0.0009353
3462.52	0.00099
3472.17	0.0008532
3481.81	0.001399
3491.46	0.001769
3501.1	0.002129
3510.75	0.002709
3520.39	0.003199
3530.04	0.003969
3539.68	0.005489
3549.32	0.008929
3558.97	0.019019
3568.61	0.056609
3578.26	0.076739
3587.9	0.022959
3597.55	0.008839
3607.19	0.004139
3616.84	0.002919
3626.48	0.002219
3636.13	0.001929
3645.77	0.001559
3655.42	0.001289
3665.06	0.0010111
3674.71	0.001219
3684.35	0.0007561
3694	0.0008426
3703.64	0.0007493
3713.29	0.0008105
3722.93	0.0007882
3732.58	0.0004598
3742.22	0.0003412
3751.86	0.0002653
3761.51	0.000826
3771.15	0.0007246
3780.8	0.0005359
3790.44	0.0006974
3800.09	0.0005754
3809.73	0.0007566
3819.38	0.0005584
3829.02	0.0007523
3838.67	0.0003144
3848.31	0.0008452
3857.96	0.0005477
3867.6	0.0006608
3877.25	0.0008174
3886.89	0.0008279
3896.54	0.0009198
3906.18	0.000536
3915.83	0.0010253
3925.47	0.0007987
3935.12	0.0007162
3944.76	0.0005805
3954.41	0.0007652
3964.05	0.000715
3973.69	0.0002919
3983.34	0.001209
3992.98	0.000944
