Infrared Spectrum: 1,3-DI-(5-CARBOMETHOXYAMYL) UREA
Formula: C15 H28 N2 O5
CAS: 6621-60-9
State: SOLID (KBr PRESSING)
Melting point: 95 C
Class: COBLENTZ
Instrument: Not specified, most likely a prism, grating, or hybrid spectrometer.
Sampling: TRANSMISSION
Resolution: 4
Origin: EASTMAN KODAK COMPANY, RESEARCH LABORATORIES, ROCHESTER, N.Y.
MICROMETERS	TRANSMITTANCE
2.168	0.711
2.20302	0.711
2.23804	0.715
2.27305	0.72
2.30807	0.713
2.34309	0.72
2.37811	0.723
2.41312	0.73
2.44814	0.732
2.48316	0.732
2.51818	0.732
2.55319	0.736
2.58821	0.746
2.62323	0.748
2.65825	0.746
2.69327	0.741
2.72828	0.718
2.7633	0.671
2.79832	0.638
2.83334	0.597
2.86835	0.557
2.90337	0.529
2.93839	0.396
2.97341	0.19
3.00843	0.36
3.04344	0.582
3.07846	0.646
3.11348	0.687
3.1485	0.702
3.18351	0.694
3.21853	0.688
3.25355	0.701
3.28857	0.639
3.32358	0.597
3.3586	0.424
3.39362	0.309
3.42864	0.536
3.46366	0.339
3.49867	0.701
3.53369	0.73
3.56871	0.758
3.60373	0.779
3.63874	0.781
3.67376	0.783
3.70878	0.784
3.7438	0.791
3.77882	0.8
3.81383	0.8
3.84885	0.802
3.88387	0.807
3.91889	0.809
3.9539	0.816
3.98892	0.821
4.02394	0.823
4.05896	0.823
4.09397	0.823
4.12899	0.823
4.16401	0.823
4.19903	0.825
4.23405	0.826
4.26906	0.828
4.30408	0.828
4.3391	0.828
4.37412	0.828
4.40913	0.828
4.44415	0.825
4.47917	0.828
4.51419	0.828
4.54921	0.828
4.58422	0.828
4.61924	0.826
4.65426	0.823
4.68928	0.826
4.72429	0.83
4.75931	0.823
4.79433	0.812
4.82935	0.807
4.86436	0.809
4.89938	0.816
4.9344	0.821
4.96942	0.821
5.00444	0.814
5.03945	0.814
5.07447	0.812
5.10949	0.809
5.14451	0.807
5.17952	0.805
5.21454	0.805
5.24956	0.805
5.28458	0.804
5.31959	0.8
5.35461	0.791
5.38963	0.781
5.42465	0.776
5.45967	0.77
5.49468	0.746
5.5297	0.722
5.56472	0.692
5.59974	0.643
5.63475	0.59
5.66977	0.52
5.70479	0.451
5.73981	0.284
5.77483	0.097
5.80984	0.134
5.84486	0.37
5.87988	0.554
5.9149	0.601
5.94991	0.632
5.98493	0.667
6.01995	0.624
6.05497	0.575
6.08998	0.414
6.125	0.281
6.16002	0.075
6.19504	0.099
6.23006	0.251
6.26507	0.3
6.30009	0.157
6.33511	0.099
6.37013	0.113
6.40514	0.211
6.44016	0.447
6.47518	0.487
6.5102	0.569
6.54522	0.589
6.58023	0.568
6.61525	0.533
6.65027	0.662
6.68529	0.671
6.7203	0.568
6.75532	0.346
6.79034	0.466
6.82536	0.34
6.86037	0.461
6.89539	0.452
6.93041	0.396
6.96543	0.291
7.00045	0.562
7.03546	0.548
7.07048	0.708
7.1055	0.725
7.14052	0.716
7.17553	0.713
7.21055	0.643
7.24557	0.475
7.28059	0.506
7.31561	0.533
7.35062	0.351
7.38564	0.452
7.42066	0.643
7.45568	0.704
7.49069	0.732
7.52571	0.729
7.56073	0.706
7.59575	0.627
7.63076	0.58
7.66578	0.606
7.7008	0.578
7.73582	0.531
7.77084	0.533
7.80585	0.508
7.84087	0.465
7.87589	0.374
7.91091	0.265
7.94592	0.141
7.98094	0.131
8.01596	0.248
8.05098	0.407
8.08599	0.466
8.12101	0.493
8.15603	0.524
8.19105	0.604
8.22607	0.613
8.26108	0.531
8.2961	0.419
8.33112	0.255
8.36614	0.16
8.40115	0.204
8.43617	0.236
8.47119	0.166
8.50621	0.192
8.54123	0.171
8.57624	0.143
8.61126	0.209
8.64628	0.304
8.6813	0.395
8.71631	0.456
8.75133	0.506
8.78635	0.534
8.82137	0.566
8.85638	0.58
8.8914	0.594
8.92642	0.583
8.96144	0.536
8.99646	0.472
9.03147	0.477
9.06649	0.557
9.10151	0.634
9.13653	0.666
9.17154	0.685
9.20656	0.688
9.24158	0.685
9.2766	0.632
9.31162	0.627
9.34663	0.673
9.38165	0.69
9.41667	0.706
9.45169	0.722
9.4867	0.72
9.52172	0.716
9.55674	0.704
9.59176	0.639
9.62677	0.552
9.66179	0.557
9.69681	0.636
9.73183	0.678
9.76685	0.709
9.80186	0.718
9.83688	0.715
9.8719	0.704
9.90692	0.681
9.94193	0.695
9.97695	0.743
10.012	0.758
10.047	0.758
10.082	0.755
10.117	0.711
10.152	0.599
10.1871	0.531
10.2221	0.606
10.2571	0.676
10.2921	0.725
10.3271	0.744
10.3621	0.763
10.3972	0.765
10.4322	0.769
10.4672	0.769
10.5022	0.776
10.5372	0.79
10.5723	0.798
10.6073	0.804
10.6423	0.805
10.6773	0.807
10.7123	0.809
10.7473	0.812
10.7824	0.816
10.8174	0.818
10.8524	0.818
10.8874	0.819
10.9224	0.825
10.9574	0.828
10.9925	0.828
11.0275	0.828
11.0625	0.828
11.0975	0.832
11.1325	0.826
11.1676	0.821
11.2026	0.802
11.2376	0.758
11.2726	0.66
11.3076	0.555
11.3426	0.564
11.3777	0.685
11.4127	0.755
11.4477	0.791
11.4827	0.807
11.5177	0.823
11.5527	0.83
11.5878	0.832
11.6228	0.832
11.6578	0.832
11.6928	0.835
11.7278	0.842
11.7629	0.839
11.7979	0.84
11.8329	0.825
11.8679	0.811
11.9029	0.802
11.9379	0.807
11.973	0.828
12.008	0.842
12.043	0.846
12.078	0.846
12.113	0.856
12.1481	0.858
12.1831	0.856
12.2181	0.856
12.2531	0.856
12.2881	0.856
12.3231	0.856
12.3582	0.856
12.3932	0.856
12.4282	0.856
12.4632	0.854
12.4982	0.851
12.5332	0.847
12.5683	0.849
12.6033	0.844
12.6383	0.844
12.6733	0.844
12.7083	0.832
12.7434	0.805
12.7784	0.77
12.8134	0.776
12.8484	0.795
12.8834	0.811
12.9184	0.814
12.9535	0.814
12.9885	0.814
13.0235	0.814
13.0585	0.814
13.0935	0.816
13.1285	0.816
13.1636	0.816
13.1986	0.807
13.2336	0.804
13.2686	0.8
13.3036	0.797
13.3387	0.784
13.3737	0.774
13.4087	0.751
13.4437	0.72
13.4787	0.676
13.5137	0.622
13.5488	0.61
13.5838	0.641
13.6188	0.704
13.6538	0.729
13.6888	0.755
13.7238	0.767
13.7589	0.774
13.7939	0.777
13.8289	0.779
13.8639	0.781
13.8989	0.781
13.934	0.777
13.969	0.769
14.004	0.763
14.039	0.76
14.074	0.756
14.109	0.753
14.1441	0.743
14.1791	0.736
14.2141	0.725
14.2491	0.723
14.2841	0.722
14.3191	0.715
14.3542	0.711
14.3892	0.713
14.4242	0.72
14.4592	0.727
14.4942	0.727
14.5293	0.727
14.5643	0.727
14.5993	0.725
14.6343	0.725
14.6693	0.72
14.7043	0.713
14.7394	0.708
14.7744	0.704
14.8094	0.701
14.8444	0.699
14.8794	0.695
14.9145	0.685
14.9495	0.673
14.9845	0.671
15.0195	0.669
15.0545	0.664
15.0895	0.653
15.1246	0.646
15.1596	0.643
15.1946	0.634
15.2296	0.634
15.2646	0.627
15.2996	0.625
15.3347	0.617
15.3697	0.61
15.4047	0.608
15.4397	0.606
15.4747	0.604
15.5098	0.599
15.5448	0.597
15.5798	0.597
15.6148	0.597
15.6498	0.596
15.6848	0.596
15.7199	0.596
15.7549	0.596
15.7899	0.596
15.8249	0.596
15.8599	0.597
15.8949	0.597
15.93	0.597
15.965	0.597
16	0.599
