Infrared Spectrum: N-Benzylanthranilic acid
Formula: C 14 H 13 N O 2
CAS: 6622-55-5
State: gas
Origin: EPA-IR VAPOR PHASE LIBRARY
1/CM	ABSORBANCE
551.7	0.00825
563.274	0.00972
574.848	0.00625
586.421	0.00434
597.995	0.00369
609.569	0.00389
621.143	0.00492
632.717	0.00896
644.291	0.00996
655.864	0.00453
667.438	0.00393
679.012	0.00476
690.586	0.00842
702.16	0.01214
713.734	0.00889
725.307	0.00899
736.881	0.01166
748.455	0.01831
760.029	0.00775
771.603	0.00331
783.177	0.00259
794.75	0.00292
806.324	0.00264
817.898	0.00299
829.472	0.00262
841.046	0.00255
852.619	0.00229
864.193	0.00192
875.767	0.00172
887.341	0.00167
898.915	0.00181
910.489	0.00182
922.062	0.00173
933.636	0.00169
945.21	0.00181
956.784	0.00186
968.358	0.002
979.932	0.0022
991.505	0.00226
1003.08	0.0025
1014.65	0.0031
1026.23	0.00557
1037.8	0.00859
1049.37	0.01324
1060.95	0.01323
1072.52	0.01278
1084.1	0.0136
1095.67	0.0136
1107.24	0.01153
1118.82	0.01089
1130.39	0.01621
1141.97	0.02926
1153.54	0.02746
1165.11	0.02992
1176.69	0.02855
1188.26	0.01386
1199.83	0.00607
1211.41	0.00518
1222.98	0.00588
1234.56	0.00755
1246.13	0.00851
1257.7	0.01056
1269.28	0.00954
1280.85	0.00877
1292.42	0.01035
1304	0.00975
1315.57	0.01254
1327.15	0.016
1338.72	0.01222
1350.29	0.00887
1361.87	0.00707
1373.44	0.00778
1385.02	0.00476
1396.59	0.00283
1408.16	0.00262
1419.74	0.00318
1431.31	0.00525
1442.88	0.01083
1454.46	0.01533
1466.03	0.0117
1477.61	0.00733
1489.18	0.00706
1500.75	0.01032
1512.33	0.01979
1523.9	0.02337
1535.48	0.00888
1547.05	0.00517
1558.62	0.00547
1570.2	0.01165
1581.77	0.02721
1593.34	0.02082
1604.92	0.01742
1616.49	0.01126
1628.07	0.00514
1639.64	0.00378
1651.21	0.00357
1662.79	0.00362
1674.36	0.00456
1685.93	0.00638
1697.51	0.01162
1709.08	0.03677
1720.66	0.05115
1732.23	0.01839
1743.8	0.01157
1755.38	0.00736
1766.95	0.00356
1778.53	0.00339
1790.1	0.00326
1801.67	0.00246
1813.25	0.00189
1824.82	0.00155
1836.39	0.00141
1847.97	0.00142
1859.54	0.00149
1871.12	0.00158
1882.69	0.00157
1894.26	0.00158
1905.84	0.0016
1917.41	0.00168
1928.99	0.00162
1940.56	0.0016
1952.13	0.00137
1963.71	0.00116
1975.28	0.00103
1986.85	0.001
1998.43	0.0009778
2010	0.0009136
2021.58	0.0008655
2033.15	0.0007834
2044.72	0.0007787
2056.3	0.0007662
2067.87	0.000766
2079.44	0.0007938
2091.02	0.0008578
2102.59	0.0008356
2114.17	0.0007366
2125.74	0.0007544
2137.31	0.0007647
2148.89	0.0007936
2160.46	0.0008
2172.04	0.0007945
2183.61	0.0007972
2195.18	0.0007993
2206.76	0.0007306
2218.33	0.0006694
2229.9	0.0006761
2241.48	0.0006736
2253.05	0.0006698
2264.63	0.0006836
2276.2	0.0007022
2287.77	0.0007385
2299.35	0.0007695
2310.92	0.0008319
2322.5	0.0008862
2334.07	0.0009603
2345.64	0.0009101
2357.22	0.000859
2368.79	0.0007767
2380.36	0.000754
2391.94	0.0007508
2403.51	0.0007604
2415.09	0.0008133
2426.66	0.0007653
2438.23	0.0007116
2449.81	0.0007158
2461.38	0.0007023
2472.96	0.0007057
2484.53	0.0006839
2496.1	0.0006629
2507.68	0.0006682
2519.25	0.0006949
2530.82	0.0006821
2542.4	0.000743
2553.97	0.0007385
2565.55	0.0007627
2577.12	0.0007829
2588.69	0.0007735
2600.27	0.0008167
2611.84	0.0008393
2623.41	0.0008101
2634.99	0.000812
2646.56	0.0008434
2658.14	0.0007942
2669.71	0.0008136
2681.28	0.0007783
2692.86	0.000736
2704.43	0.0007847
2716.01	0.0008025
2727.58	0.0007975
2739.15	0.0008635
2750.73	0.000868
2762.3	0.0008256
2773.87	0.000917
2785.45	0.0009286
2797.02	0.00102
2808.6	0.00112
2820.17	0.00122
2831.74	0.00142
2843.32	0.00199
2854.89	0.00292
2866.47	0.00355
2878.04	0.0034
2889.61	0.00291
2901.19	0.00255
2912.76	0.00241
2924.33	0.00237
2935.91	0.00278
2947.48	0.00239
2959.06	0.00168
2970.63	0.0013
2982.2	0.00118
2993.78	0.00124
3005.35	0.00166
3016.92	0.00275
3028.5	0.00491
3040.07	0.0057
3051.65	0.00456
3063.22	0.00537
3074.79	0.00711
3086.37	0.00609
3097.94	0.00478
3109.52	0.00266
3121.09	0.00158
3132.66	0.00105
3144.24	0.0008961
3155.81	0.0008335
3167.38	0.0008941
3178.96	0.0008883
3190.53	0.000887
3202.11	0.000942
3213.68	0.0008401
3225.25	0.0008285
3236.83	0.0007938
3248.4	0.0007913
3259.98	0.0007719
3271.55	0.0008878
3283.12	0.0008856
3294.7	0.00112
3306.27	0.00128
3317.84	0.00136
3329.42	0.00165
3340.99	0.00233
3352.57	0.00396
3364.14	0.00612
3375.71	0.00739
3387.29	0.00636
3398.86	0.00431
3410.43	0.00281
3422.01	0.00205
3433.58	0.00141
3445.16	0.0014
3456.73	0.00145
3468.3	0.00138
3479.88	0.00124
3491.45	0.0009636
3503.03	0.0008582
3514.6	0.0007099
3526.17	0.0007382
3537.75	0.0008601
3549.32	0.00106
3560.89	0.00211
3572.47	0.00715
3584.04	0.01789
3595.62	0.0062
3607.19	0.00143
3618.76	0.0009467
3630.34	0.0007962
3641.91	0.0007515
3653.49	0.0007398
3665.06	0.000719
3676.63	0.0007271
3688.21	0.0007178
3699.78	0.00068
3711.35	0.0006141
3722.93	0.0006163
3734.5	0.0006145
3746.08	0.0006056
3757.65	0.0005741
3769.22	0.0005468
3780.8	0.0006016
3792.37	0.0005548
3803.94	0.0006466
3815.52	0.0005738
3827.09	0.000578
3838.67	0.0006283
3850.24	0.0006269
3861.81	0.000654
3873.39	0.0006016
3884.96	0.0006555
3896.54	0.0005692
3908.11	0.0006224
3919.68	0.0006056
3931.26	0.0005757
3942.83	0.0006303
3954.4	0.0006216
3965.98	0.0005535
3977.55	0.0006165
3989.13	0.000617
4000.7	0.0006644
