Infrared Spectrum: Methyl tiglate
Formula: C 6 H 10 O 2
CAS: 6622-76-0
State: gas
Origin: EPA-IR VAPOR PHASE LIBRARY
1/CM	ABSORBANCE
549.9	0.001148
559.547	0.001079
569.193	0.001188
578.84	0.001208
588.486	0.000771
598.133	0.001094
607.779	0.000879
617.426	0.001102
627.072	0.001237
636.719	0.0018788
646.365	0.00327
656.012	0.0036
665.658	0.00358
675.305	0.0021038
684.951	0.0019682
694.598	0.0019897
704.245	0.0025897
713.891	0.00556
723.538	0.01137
733.184	0.02168
742.831	0.01797
752.477	0.01233
762.124	0.00593
771.77	0.00361
781.417	0.00419
791.063	0.00629
800.71	0.00798
810.356	0.00753
820.003	0.00503
829.649	0.0032
839.296	0.00302
848.943	0.00367
858.589	0.00422
868.236	0.00382
877.882	0.0033
887.529	0.00344
897.175	0.00452
906.822	0.00607
916.468	0.00653
926.115	0.00555
935.761	0.00359
945.408	0.00287
955.054	0.0031
964.701	0.00403
974.347	0.00574
983.994	0.00691
993.64	0.00702
1003.29	0.00694
1012.93	0.00836
1022.58	0.01094
1032.23	0.01437
1041.87	0.01832
1051.52	0.02221
1061.17	0.0284
1070.81	0.04103
1080.46	0.0511
1090.11	0.0454
1099.75	0.02814
1109.4	0.02167
1119.05	0.03428
1128.69	0.07497
1138.34	0.11233
1147.99	0.1136
1157.63	0.06974
1167.28	0.03805
1176.92	0.02851
1186.57	0.03008
1196.22	0.02909
1205.86	0.02309
1215.51	0.01855
1225.16	0.02261
1234.8	0.04311
1244.45	0.09468
1254.1	0.155
1263.74	0.18331
1273.39	0.14394
1283.04	0.08947
1292.68	0.03662
1302.33	0.02168
1311.98	0.01712
1321.62	0.01398
1331.27	0.01366
1340.92	0.01617
1350.56	0.01576
1360.21	0.01187
1369.86	0.01165
1379.5	0.01601
1389.15	0.01807
1398.79	0.01571
1408.44	0.01119
1418.09	0.01155
1427.73	0.02131
1437.38	0.0323
1447.03	0.03104
1456.67	0.01653
1466.32	0.01274
1475.97	0.0106
1485.61	0.00854
1495.26	0.0073
1504.91	0.00677
1514.55	0.00631
1524.2	0.00617
1533.85	0.00595
1543.49	0.00588
1553.14	0.00567
1562.79	0.00532
1572.43	0.005
1582.08	0.00496
1591.73	0.00509
1601.37	0.00527
1611.02	0.00543
1620.67	0.0061
1630.31	0.00785
1639.96	0.01301
1649.6	0.02031
1659.25	0.0222
1668.9	0.01661
1678.54	0.01108
1688.19	0.01197
1697.84	0.01573
1707.48	0.02758
1717.13	0.06518
1726.78	0.14002
1736.42	0.16238
1746.07	0.1337
1755.72	0.05583
1765.36	0.02021
1775.01	0.01096
1784.66	0.00965
1794.3	0.00756
1803.95	0.00503
1813.6	0.00318
1823.24	0.0025965
1832.89	0.0024253
1842.54	0.0021808
1852.18	0.0020822
1861.83	0.0020996
1871.47	0.0020281
1881.12	0.0022459
1890.77	0.0024808
1900.41	0.0026076
1910.06	0.0026298
1919.71	0.0026482
1929.35	0.0025526
1939	0.0024453
1948.65	0.0023684
1958.29	0.0022412
1967.94	0.0020595
1977.59	0.0020806
1987.23	0.0021379
1996.88	0.0021605
2006.53	0.00212
2016.17	0.0021003
2025.82	0.0020955
2035.47	0.0022077
2045.11	0.0025197
2054.76	0.00279
2064.41	0.00281
2074.05	0.0026166
2083.7	0.0022931
2093.35	0.00195
2102.99	0.0017647
2112.64	0.0016672
2122.28	0.0016634
2131.93	0.001583
2141.58	0.001534
2151.22	0.001535
2160.87	0.0016308
2170.52	0.0016873
2180.16	0.0016606
2189.81	0.001489
2199.46	0.001372
2209.1	0.001195
2218.75	0.001106
2228.4	0.001135
2238.04	0.001245
2247.69	0.001292
2257.34	0.001333
2266.98	0.001253
2276.63	0.001212
2286.28	0.001178
2295.92	0.001248
2305.57	0.001274
2315.22	0.00126
2324.86	0.001224
2334.51	0.00118
2344.16	0.001223
2353.8	0.001243
2363.45	0.001222
2373.09	0.001213
2382.74	0.001352
2392.39	0.001408
2402.03	0.001408
2411.68	0.001495
2421.33	0.001404
2430.97	0.001343
2440.62	0.001332
2450.27	0.001282
2459.91	0.001279
2469.56	0.001333
2479.21	0.001239
2488.85	0.001309
2498.5	0.001253
2508.15	0.001197
2517.79	0.001305
2527.44	0.001458
2537.09	0.001456
2546.73	0.001324
2556.38	0.001141
2566.03	0.001137
2575.67	0.001016
2585.32	0.001029
2594.96	0.001049
2604.61	0.001029
2614.26	0.000984
2623.9	0.000932
2633.55	0.000843
2643.2	0.000972
2652.84	0.000928
2662.49	0.000977
2672.14	0.000928
2681.78	0.000778
2691.43	0.000874
2701.08	0.000898
2710.72	0.000905
2720.37	0.001104
2730.02	0.001273
2739.66	0.001195
2749.31	0.001401
2758.96	0.00147
2768.6	0.001504
2778.25	0.001235
2787.9	0.001377
2797.54	0.001587
2807.19	0.0018816
2816.84	0.0026218
2826.48	0.00389
2836.13	0.00633
2845.77	0.00952
2855.42	0.01152
2865.07	0.01274
2874.71	0.014
2884.36	0.01428
2894.01	0.0151
2903.65	0.01752
2913.3	0.0217
2922.95	0.02807
2932.59	0.03241
2942.24	0.03459
2951.89	0.04383
2961.53	0.04212
2971.18	0.03103
2980.83	0.01931
2990.47	0.02039
3000.12	0.02202
3009.77	0.02024
3019.41	0.01825
3029.06	0.01649
3038.71	0.0146
3048.35	0.01218
3058	0.01028
3067.64	0.00816
3077.29	0.00624
3086.94	0.00493
3096.58	0.00363
3106.23	0.00324
3115.88	0.0026361
3125.52	0.0021108
3135.17	0.00171477
3144.82	0.001066
3154.46	0.001024
3164.11	0.0007
3173.76	0.00067
3183.4	0.00052
3193.05	0.00041
3202.7	0.00049
3212.34	0.00042
3221.99	0.0003
3231.64	0.00014
3241.28	0.00049
3250.93	0.0004
3260.58	0.00031
3270.22	0.00035
3279.87	0.00022
3289.52	0.00019
3299.16	0.00023
3308.81	0.00018
3318.45	0.00016
3328.1	0.00038
3337.75	0.00048
3347.39	0.00027
3357.04	0.00049
3366.69	0.00037
3376.33	0.000724
3385.98	0.000726
3395.63	0.00067
3405.27	0.000753
3414.92	0.000872
3424.57	0.001015
3434.21	0.001336
3443.86	0.001539
3453.51	0.0018944
3463.15	0.0018749
3472.8	0.001521
3482.45	0.001044
3492.09	0.0006
3501.74	0.001009
3511.39	0.0007
3521.03	0.0007
3530.68	0.00057
3540.33	0.000789
3549.97	0.000776
3559.62	0.00059
3569.26	0.00066
3578.91	0.00065
3588.56	0.000736
3598.2	0.00053
3607.85	0.00067
3617.5	0.0006
3627.14	0.000765
3636.79	0.000723
3646.44	0.00065
3656.08	0.00081
3665.73	0.00062
3675.38	0.000738
3685.02	0.000824
3694.67	0.000813
3704.32	0.00068
3713.96	0.00067
3723.61	0.000772
3733.26	0.00072
3742.9	0.000766
3752.55	0.000904
3762.2	0.000846
3771.84	0.00062
3781.49	0.000849
3791.13	0.000917
3800.78	0.000828
3810.43	0.000766
3820.07	0.000776
3829.72	0.00064
3839.37	0.001059
3849.01	0.000948
3858.66	0.00089
3868.31	0.000978
3877.95	0.000872
3887.6	0.000962
3897.25	0.001023
3906.89	0.001143
3916.54	0.001054
3926.19	0.001107
3935.83	0.001062
3945.48	0.001136
3955.13	0.001155
3964.77	0.001233
3974.42	0.001163
3984.07	0.001188
3993.71	0.001224
