Infrared Spectrum: trans-4-Methyl-2-heptene
Formula: C 8 H 16
CAS: 66225-17-0
State: gas
Instrument: HP-GC/MS/IRD
Origin: NIST Mass Spectrometry Data Center
1/CM	ABSORBANCE
550	0.0001558
562	6.27e-05
574	0.0001482
586	9.69e-05
598	1.71e-05
610	0.0001368
622	0.0001995
634	9.69e-05
646	0.000114
658	0.0001615
670	5.89e-05
682	6.84e-05
694	7.22e-05
706	0.0001748
718	0.0002109
730	0.0002413
742	0.0004275
754	0.0003116
766	0.0002109
778	0.0001406
790	0.0001767
802	0.0001596
814	0.0001197
826	0.0001824
838	0.0002109
850	0.000266
862	0.000285
874	0.0003363
886	0.0003743
898	0.0004864
910	0.0005377
922	0.0006479
934	0.0008702
946	0.0017955
958	0.0038361
970	0.0045106
982	0.0023864
994	0.0011438
1006	0.0008151
1018	0.0006935
1030	0.0006365
1042	0.0004959
1054	0.0004275
1066	0.0003857
1078	0.0003667
1090	0.0003097
1102	0.0003857
1114	0.0003382
1126	0.0003363
1138	0.000285
1150	0.0003363
1162	0.0002717
1174	0.0002508
1186	0.0001881
1198	0.0001805
1210	0.0002565
1222	0.0002964
1234	0.0002736
1246	0.0002356
1258	0.0003534
1270	0.0004066
1282	0.0004313
1294	0.0004579
1306	0.0005244
1318	0.0005073
1330	0.0005833
1342	0.0007163
1354	0.0008094
1366	0.0010925
1378	0.0016112
1390	0.0014535
1402	0.0008417
1414	0.0006897
1426	0.0008569
1438	0.0014193
1450	0.0023275
1462	0.0027075
1474	0.0019836
1486	0.0010526
1498	0.0006137
1510	0.0004465
1522	0.0003705
1534	0.0003021
1546	0.0002375
1558	0.0002451
1570	0.0002109
1582	0.0001957
1594	0.0001919
1606	0.0001995
1618	0.0001501
1630	0.0001653
1642	0.0001748
1654	0.0001995
1666	0.0002033
1678	0.0001824
1690	0.0001368
1702	0.0001501
1714	0.0001615
1726	0.0001862
1738	0.0002356
1750	0.0002413
1762	0.0001748
1774	0.000114
1786	8.36e-05
1798	0.0001121
1810	0.000114
1822	0.0001178
1834	0.000114
1846	7.79e-05
1858	6.84e-05
1870	6.65e-05
1882	5.89e-05
1894	5.32e-05
1906	3.61e-05
1918	5.7e-05
1930	4.94e-05
1942	5.13e-05
1954	4.94e-05
1966	2.47e-05
1978	4.18e-05
1990	8.17e-05
2002	8.93e-05
2014	5.7e-05
2026	6.08e-05
2038	4.94e-05
2050	4.75e-05
2062	3.99e-05
2074	3.04e-05
2086	0
2098	3.04e-05
2110	1.33e-05
2122	3.61e-05
2134	3.42e-05
2146	3.61e-05
2158	1.33e-05
2170	3.8e-05
2182	4.75e-05
2194	3.99e-05
2206	4.75e-05
2218	5.13e-05
2230	3.61e-05
2242	3.23e-05
2254	2.28e-05
2266	2.85e-05
2278	4.94e-05
2290	4.18e-05
2302	5.7e-05
2314	4.75e-05
2326	6.84e-05
2338	7.98e-05
2350	8.36e-05
2362	8.93e-05
2374	8.55e-05
2386	7.6e-05
2398	7.41e-05
2410	9.69e-05
2422	7.6e-05
2434	6.27e-05
2446	5.51e-05
2458	7.03e-05
2470	5.89e-05
2482	5.51e-05
2494	2.85e-05
2506	6.08e-05
2518	6.65e-05
2530	0.0001026
2542	9.31e-05
2554	7.98e-05
2566	9.31e-05
2578	0.0001216
2590	0.0001102
2602	0.0001406
2614	0.000133
2626	0.0001368
2638	0.0001501
2650	0.0001444
2662	0.000171
2674	0.0001938
2686	0.00019
2698	0.0002128
2710	0.0002584
2722	0.000342
2734	0.0004731
2746	0.0005035
2758	0.0004104
2770	0.0004104
2782	0.0004769
2794	0.000589
2806	0.00076
2818	0.0009633
2830	0.0013509
2842	0.0024073
2854	0.0043453
2866	0.0070338
2878	0.0090991
2890	0.0088483
2902	0.0090706
2914	0.0115634
2926	0.0145065
2938	0.014725
2950	0.0138282
2962	0.0181279
2974	0.0167086
2986	0.008113
2998	0.0042807
3010	0.0032053
3022	0.0028386
3034	0.0024282
3046	0.001786
3058	0.0012882
3070	0.0009823
3082	0.0008569
3094	0.0007182
3106	0.0005738
3118	0.0005111
3130	0.0004826
3142	0.0003895
3154	0.0003496
3166	0.0003135
3178	0.0002831
3190	0.0002299
3202	0.0001824
3214	0.0001786
3226	0.0001311
3238	9.5e-05
3250	0.0001026
3262	8.74e-05
3274	7.03e-05
3286	4.75e-05
3298	0.000114
3310	0.0001007
3322	5.7e-05
3334	6.08e-05
3346	0.0001197
3358	9.88e-05
3370	8.17e-05
3382	9.12e-05
3394	8.55e-05
3406	9.69e-05
3418	7.98e-05
3430	9.69e-05
3442	7.6e-05
3454	7.22e-05
3466	7.03e-05
3478	3.61e-05
3490	8.74e-05
3502	7.41e-05
3514	6.46e-05
3526	3.8e-05
3538	6.84e-05
3550	5.13e-05
3562	3.42e-05
3574	7.22e-05
3586	7.22e-05
3598	3.04e-05
3610	2.85e-05
3622	2.85e-05
3634	6.84e-05
3646	7.22e-05
3658	3.61e-05
3670	7.22e-05
3682	3.99e-05
3694	5.51e-05
3706	0.0001292
3718	0.0001216
3730	0.0001273
3742	0.0001292
3754	0.0001311
3766	0.000133
3778	0.0001444
3790	0.0001102
3802	0.0001178
3814	0.0001026
3826	9.5e-05
3838	5.51e-05
