Infrared Spectrum: Esfenvalerate
Formula: C 25 H 22 Cl N O 3
CAS: 66230-04-4
State: gas
Instrument: HP-GC/MS/IRD
Origin: NIST Mass Spectrometry Data Center
1/CM	ABSORBANCE
550	0.0010296
562	0.0005904
574	0.0003996
586	0.0002592
598	8.28e-05
610	5.76e-05
622	0.0001512
634	0.000378
646	0.0004608
658	0.0006912
670	0.0009756
682	0.003276
694	0.0085356
706	0.0027252
718	0.0021564
730	0.0022896
742	0.0040536
754	0.0057564
766	0.0061704
778	0.0056448
790	0.0055872
802	0.0037584
814	0.0040212
826	0.005724
838	0.0051768
850	0.0027972
862	0.0022068
874	0.0035244
886	0.0033732
898	0.0038448
910	0.0054036
922	0.0047916
934	0.0037656
946	0.003024
958	0.0036216
970	0.004104
982	0.006624
994	0.0099792
1006	0.0111708
1018	0.0149976
1030	0.0072036
1042	0.0038232
1054	0.0027828
1066	0.0042336
1078	0.0078624
1090	0.0189684
1102	0.0211392
1114	0.0174528
1126	0.0138132
1138	0.0160848
1150	0.0134352
1162	0.012708
1174	0.0125892
1186	0.0141192
1198	0.0182628
1210	0.02286
1222	0.017028
1234	0.0249696
1246	0.0288216
1258	0.0235116
1270	0.0214848
1282	0.01422
1294	0.0100944
1306	0.0079092
1318	0.0072792
1330	0.0060552
1342	0.005292
1354	0.0041292
1366	0.0029916
1378	0.003006
1390	0.0028656
1402	0.0026748
1414	0.0029268
1426	0.0032508
1438	0.0068292
1450	0.0117684
1462	0.0075672
1474	0.0122436
1486	0.0337968
1498	0.0187236
1510	0.0042984
1522	0.0020412
1534	0.0015408
1546	0.0017712
1558	0.003204
1570	0.0074844
1582	0.016794
1594	0.016146
1606	0.0075348
1618	0.0031464
1630	0.001404
1642	0.0010044
1654	0.0007344
1666	0.00063
1678	0.000684
1690	0.0007992
1702	0.0011124
1714	0.0015588
1726	0.0022428
1738	0.0041004
1750	0.0114156
1762	0.022968
1774	0.0099072
1786	0.003348
1798	0.0017028
1810	0.0010584
1822	0.0007812
1834	0.0006336
1846	0.0006372
1858	0.0006552
1870	0.0005832
1882	0.0005724
1894	0.0006624
1906	0.0004248
1918	0.0005184
1930	0.0007524
1942	0.0005436
1954	0.000396
1966	0.0002628
1978	0.0002412
1990	0.0003024
2002	0.0002844
2014	0.0002916
2026	0.0003312
2038	0.0003672
2050	0.0003348
2062	0.0002592
2074	0.0002124
2086	0.0001476
2098	0.0001332
2110	0.0001116
2122	5.4e-05
2134	3.24e-05
2146	2.16e-05
2158	3.96e-05
2170	7.2e-06
2182	1.44e-05
2194	1.08e-05
2206	0
2218	3.6e-06
2230	4.32e-05
2242	0.00018
2254	0.000162
2266	5.04e-05
2278	4.32e-05
2290	6.48e-05
2302	8.28e-05
2314	0.000144
2326	0.000108
2338	7.92e-05
2350	7.2e-05
2362	8.64e-05
2374	0.0001512
2386	0.0002268
2398	0.0002556
2410	0.0002628
2422	0.000252
2434	0.0002196
2446	0.0002232
2458	0.000162
2470	0.0001224
2482	0.0001152
2494	0.0001332
2506	0.000126
2518	9e-05
2530	8.64e-05
2542	9.72e-05
2554	0.000108
2566	0.0001512
2578	0.0001764
2590	0.0001728
2602	0.0001764
2614	0.0001368
2626	0.0001008
2638	7.92e-05
2650	5.76e-05
2662	5.4e-05
2674	4.68e-05
2686	3.24e-05
2698	4.68e-05
2710	3.6e-06
2722	4.68e-05
2734	0.000108
2746	0.0001332
2758	0.000108
2770	9e-05
2782	8.28e-05
2794	2.88e-05
2806	7.56e-05
2818	0.000162
2830	0.0002124
2842	0.0003024
2854	0.0004932
2866	0.0009432
2878	0.0026532
2890	0.0027252
2902	0.0021888
2914	0.0025272
2926	0.00351
2938	0.0056808
2950	0.0050508
2962	0.006678
2974	0.0104364
2986	0.0057888
2998	0.0017388
3010	0.0010764
3022	0.0015264
3034	0.0026784
3046	0.0033588
3058	0.0028908
3070	0.0033444
3082	0.0043848
3094	0.002934
3106	0.0015948
3118	0.0006336
3130	0.0002736
3142	0.0002304
3154	0.0001692
3166	0.0001728
3178	0.0001368
3190	0.0001584
3202	0.0001188
3214	7.92e-05
3226	8.64e-05
3238	8.64e-05
3250	7.92e-05
3262	4.32e-05
3274	8.28e-05
3286	4.32e-05
3298	1.44e-05
3310	5.4e-05
3322	6.84e-05
3334	9.72e-05
3346	8.28e-05
3358	3.24e-05
3370	0.0001512
3382	0.0001332
3394	0.0001152
3406	0.000108
3418	0.0001296
3430	0.000144
3442	0.0002124
3454	0.000198
3466	0.0001764
3478	0.0002448
3490	0.0002916
3502	0.0003564
3514	0.0003816
3526	0.0003276
3538	0.000324
3550	0.0002016
3562	0.0002052
3574	0.0002772
3586	0.0002232
3598	0.0002988
3610	0.0002196
3622	0.0002232
3634	0.0002124
3646	0.000288
3658	0.00027
3670	0.0002952
3682	0.0002628
3694	0.0002412
3706	0.0002268
3718	0.0002124
3730	0.000216
3742	0.000234
3754	0.000288
3766	0.0002628
3778	0.0002088
3790	0.0002628
3802	0.0002268
3814	0.0002052
3826	0.0002412
3838	0.0003024
