Infrared Spectrum: 2,2-Dimethylpropionanilide
Formula: C 11 H 15 N O
CAS: 6625-74-7
State: gas
Origin: EPA-IR VAPOR PHASE LIBRARY
1/CM	ABSORBANCE
549.8	0.009461
559.445	0.014521
569.09	0.009981
578.734	0.003671
588.379	0.002271
598.024	0.002051
607.669	0.001911
617.313	0.001991
626.958	0.001351
636.603	0.001291
646.248	0.001691
655.893	0.002851
665.537	0.005711
675.182	0.012631
684.827	0.020491
694.472	0.019371
704.116	0.012011
713.761	0.007941
723.406	0.010051
733.051	0.020241
742.695	0.033761
752.34	0.032051
761.985	0.019831
771.63	0.009611
781.275	0.005231
790.919	0.004211
800.564	0.003541
810.209	0.002811
819.854	0.001911
829.498	0.001821
839.143	0.002071
848.788	0.002161
858.433	0.002121
868.078	0.002671
877.722	0.003741
887.367	0.005441
897.012	0.008211
906.657	0.011241
916.301	0.009361
925.946	0.006941
935.591	0.006091
945.236	0.004651
954.88	0.003701
964.525	0.003211
974.17	0.002721
983.815	0.002801
993.46	0.003311
1003.1	0.003811
1012.75	0.004651
1022.39	0.006601
1032.04	0.007611
1041.68	0.006431
1051.33	0.006151
1060.97	0.007761
1070.62	0.009041
1080.26	0.008581
1089.91	0.006961
1099.55	0.009311
1109.2	0.011581
1118.84	0.016281
1128.49	0.032061
1138.13	0.064921
1147.78	0.072361
1157.42	0.032791
1167.07	0.014261
1176.71	0.010761
1186.36	0.009041
1196	0.010241
1205.64	0.013991
1215.29	0.022211
1224.93	0.032071
1234.58	0.040641
1244.22	0.031511
1253.87	0.020321
1263.51	0.016921
1273.16	0.019361
1282.8	0.027001
1292.45	0.039151
1302.09	0.059751
1311.74	0.053271
1321.38	0.028091
1331.03	0.011841
1340.67	0.008421
1350.32	0.010111
1359.96	0.015091
1369.61	0.019371
1379.25	0.017711
1388.9	0.016561
1398.54	0.023831
1408.18	0.022551
1417.83	0.032891
1427.47	0.083591
1437.12	0.114381
1446.76	0.050771
1456.41	0.029301
1466.05	0.037531
1475.7	0.059661
1485.34	0.079521
1494.99	0.125591
1504.63	0.182371
1514.28	0.184881
1523.92	0.141511
1533.57	0.066471
1543.21	0.030941
1552.86	0.020531
1562.5	0.017431
1572.15	0.017981
1581.79	0.029231
1591.44	0.056571
1601.08	0.068401
1610.73	0.033641
1620.37	0.013451
1630.01	0.007861
1639.66	0.006551
1649.3	0.006441
1658.95	0.007421
1668.59	0.010631
1678.24	0.017391
1687.88	0.031001
1697.53	0.060531
1707.17	0.098251
1716.82	0.101291
1726.46	0.061961
1736.11	0.029341
1745.75	0.015861
1755.4	0.009461
1765.04	0.006721
1774.69	0.005881
1784.33	0.004161
1793.98	0.003121
1803.62	0.002671
1813.27	0.002281
1822.91	0.002241
1832.55	0.002341
1842.2	0.002621
1851.84	0.002601
1861.49	0.002511
1871.13	0.002261
1880.78	0.001611
1890.42	0.001251
1900.07	0.001331
1909.71	0.001711
1919.36	0.001981
1929	0.002451
1938.65	0.002491
1948.29	0.002381
1957.94	0.001651
1967.58	0.0010616
1977.23	0.0009668
1986.87	0.0007673
1996.52	0.0008151
2006.16	0.0008054
2015.81	0.0009208
2025.45	0.0010962
2035.1	0.0011321
2044.74	0.0010943
2054.38	0.0010649
2064.03	0.0011096
2073.67	0.0009914
2083.32	0.0010014
2092.96	0.0009637
2102.61	0.0008643
2112.25	0.0007243
2121.9	0.000683
2131.54	0.0007757
2141.19	0.0007953
2150.83	0.0007815
2160.48	0.0007467
2170.12	0.0007154
2179.77	0.0006455
2189.41	0.0005607
2199.06	0.0005854
2208.7	0.0006689
2218.35	0.0006308
2227.99	0.0004974
2237.64	0.000544
2247.28	0.0005375
2256.92	0.0005608
2266.57	0.0007396
2276.21	0.000898
2285.86	0.0009978
2295.5	0.0009903
2305.15	0.0009925
2314.79	0.0010142
2324.44	0.0009789
2334.08	0.0010547
2343.73	0.0011316
2353.37	0.001181
2363.02	0.0008768
2372.66	0.0008396
2382.31	0.0008124
2391.95	0.0009061
2401.6	0.0008872
2411.24	0.0008207
2420.89	0.0008207
2430.53	0.000966
2440.18	0.0009662
2449.82	0.0008913
2459.47	0.0007978
2469.11	0.0007083
2478.75	0.0006777
2488.4	0.0007853
2498.04	0.0008936
2507.69	0.0009456
2517.33	0.0010394
2526.98	0.0010726
2536.62	0.0009638
2546.27	0.0009059
2555.91	0.0008101
2565.56	0.000889
2575.2	0.0009342
2584.85	0.0008745
2594.49	0.0008253
2604.14	0.0008651
2613.78	0.0008754
2623.43	0.0007901
2633.07	0.0009133
2642.72	0.0009063
2652.36	0.0009957
2662.01	0.0010704
2671.65	0.00103
2681.29	0.000908
2690.94	0.0008105
2700.58	0.0008328
2710.23	0.0009325
2719.87	0.0011384
2729.52	0.001311
2739.16	0.001451
2748.81	0.001471
2758.45	0.001481
2768.1	0.001331
2777.74	0.001311
2787.39	0.001321
2797.03	0.001431
2806.68	0.001751
2816.32	0.002181
2825.97	0.002401
2835.61	0.002811
2845.26	0.003721
2854.9	0.006301
2864.55	0.011161
2874.19	0.017631
2883.84	0.020051
2893.48	0.019511
2903.12	0.020641
2912.77	0.024251
2922.41	0.027231
2932.06	0.030461
2941.7	0.036441
2951.35	0.052041
2960.99	0.079681
2970.64	0.080061
2980.28	0.048671
2989.93	0.028901
2999.57	0.017011
3009.22	0.011491
3018.86	0.012471
3028.51	0.015661
3038.15	0.013291
3047.8	0.011551
3057.44	0.016821
3067.09	0.023031
3076.73	0.017141
3086.38	0.011481
3096.02	0.009561
3105.67	0.007771
3115.31	0.005281
3124.95	0.003161
3134.6	0.002211
3144.24	0.001771
3153.89	0.001721
3163.53	0.001641
3173.18	0.001571
3182.82	0.001641
3192.47	0.001511
3202.11	0.001371
3211.76	0.001321
3221.4	0.0010976
3231.05	0.0010911
3240.69	0.0011089
3250.34	0.0009792
3259.98	0.0007725
3269.63	0.0006836
3279.27	0.0006261
3288.92	0.0005199
3298.56	0.0004873
3308.21	0.0004032
3317.85	0.0004372
3327.49	0.0005366
3337.14	0.0004271
3346.78	0.0003748
3356.43	0.000585
3366.07	0.0007523
3375.72	0.0007725
3385.36	0.0007979
3395.01	0.001431
3404.65	0.001771
3414.3	0.001881
3423.94	0.001751
3433.59	0.002101
3443.23	0.003251
3452.88	0.005761
3462.52	0.010791
3472.17	0.015291
3481.81	0.013021
3491.46	0.006331
3501.1	0.002951
3510.75	0.001471
3520.39	0.0007828
3530.04	0.0005548
3539.68	0.0004393
3549.32	0.00048
3558.97	0.0002896
3568.61	0.00022079
3578.26	0.00024163
3587.9	0.0001378
3597.55	0.0003743
3607.19	0.0003902
3616.84	0.0002929
3626.48	0.00023344
3636.13	0.0002975
3645.77	0.0002881
3655.42	0.0004118
3665.06	0.00021414
3674.71	0.0003811
3684.35	0.0004996
3694	0.0005828
3703.64	0.0003944
3713.29	0.000549
3722.93	0.0003276
3732.58	0.000152121
3742.22	4.8e-05
3751.86	0.0003023
3761.51	0.00023952
3771.15	0.0002696
3780.8	0.0003112
3790.44	0.00020953
3800.09	0.0002639
3809.73	0.0003518
3819.38	0.0004527
3829.02	0.0005609
3838.67	0.0004105
3848.31	0.0003358
3857.96	0.0003433
3867.6	0.0004701
3877.25	0.0004661
3886.89	0.0005083
3896.54	0.0006813
3906.18	0.0004792
3915.83	0.0005612
3925.47	0.0004404
3935.12	0.0004727
3944.76	0.0002899
3954.41	0.0005879
3964.05	0.0004593
3973.69	0.0002814
3983.34	0.0004058
3992.98	0.0005109
