Infrared Spectrum: NAPHTHALENE, 1-CHLOROMETHYL-2-METHYL-
Formula: C12 H11 Cl
CAS: 6626-23-9
State: SOLUTION (1% CCl4 FOR 3800-1330, 1% CS2 FOR 1330-400 CM^-^1)
Class: COBLENTZ
Instrument: BECKMAN IR-9 (GRATING)
Instrument parameters: ORDER CHANGES: 670, 1200, 2000 CM^-^1
Sampling: TRANSMISSION
Path length: 0.10 CM, 0.10 CM
Resolution: 2
Origin: DOW CHEMICAL COMPANY
1/CM	TRANSMITTANCE
407	0.1132
416	0.104
425	0.1303
434	0.2216
443	0.3135
452	0.3814
461	0.433
470	0.4106
479	0.5439
488	0.6108
497	0.6298
506	0.5918
515	0.6736
524	0.6942
533	0.3578
542	0.6695
551	0.7284
560	0.7362
569	0.7338
578	0.693
587	0.5655
596	0.6751
605	0.6701
614	0.6501
623	0.6076
632	0.1511
641	0.421
650	0.4029
659	0.3692
668	0.4937
677	0.6039
686	0.5247
695	0.5473
704	0.4114
713	0.5467
722	0.4726
731	0.5609
740	0.2468
749	0.5746
758	0.6449
767	0.6711
776	0.5681
785	0.2466
794	0.5052
803	0.2577
812	0.3218
821	0.569
830	0.5896
839	0.3984
848	0.2309
857	0.1152
866	0.1266
875	0.2475
884	0.4117
893	0.5631
902	0.7111
911	0.7739
920	0.813
929	0.8454
938	0.8548
947	0.8015
956	0.7101
965	0.8098
974	0.8335
983	0.8547
992	0.8528
1001	0.8235
1010	0.7922
1019	0.7549
1028	0.7032
1037	0.6488
1046	0.7311
1055	0.7372
1064	0.7038
1073	0.6266
1082	0.6359
1091	0.6453
1100	0.6776
1109	0.7201
1118	0.7503
1127	0.775
1136	0.7639
1145	0.7398
1154	0.7783
1163	0.7591
1172	0.7686
1181	0.4092
1190	0.7739
1199	0.8018
1208	0.7811
1217	0.7692
1226	0.8065
1235	0.7865
1244	0.7165
1253	0.3012
1262	0.6362
1271	0.6199
1280	0.7645
1289	0.8275
1298	0.8398
1307	0.8357
1316	0.8239
1325	0.8086
1334	0.8097
1343	0.8128
1352	0.7801
1361	0.8155
1370	0.7861
1379	0.7049
1388	0.6986
1397	0.7774
1406	0.7765
1415	0.7435
1424	0.5777
1433	0.6258
1442	0.5443
1451	0.3725
1460	0.4687
1469	0.4849
1478	0.5012
1487	0.3906
1496	0.2717
1505	0.1349
1514	0.0197
1523	0.0179
1532	0.0151
1541	0.0057
1550	0.0011
1559	0.0008
1568	0.0018
1577	0.0074
1586	0.0229
1595	0.0591
1604	0.2123
1613	0.4102
1622	0.4621
1631	0.541
1640	0.6395
1649	0.6865
1658	0.7215
1667	0.7507
1676	0.7542
1685	0.7587
1694	0.7782
1703	0.783
1712	0.8192
1721	0.8136
1730	0.7847
1739	0.7518
1748	0.7648
1757	0.781
1766	0.8249
1775	0.8536
1784	0.8675
1793	0.8617
1802	0.8403
1811	0.8136
1820	0.8134
1829	0.8021
1838	0.7907
1847	0.8074
1856	0.8167
1865	0.8176
1874	0.834
1883	0.8505
1892	0.8397
1901	0.8001
1910	0.8117
1919	0.7783
1928	0.8485
1937	0.8388
1946	0.7885
1955	0.8268
1964	0.8491
1973	0.8486
1982	0.8424
1991	0.8348
2000	0.8275
2009	0.8228
2018	0.8193
2027	0.8288
2036	0.8388
2045	0.8438
2054	0.8468
2063	0.8503
2072	0.8562
2081	0.8625
2090	0.8691
2099	0.8743
2108	0.8765
2117	0.8768
2126	0.8771
2135	0.8771
2144	0.8771
2153	0.8768
2162	0.8765
2171	0.8752
2180	0.8734
2189	0.8716
2198	0.869
2207	0.8663
2216	0.8634
2225	0.8589
2234	0.8499
2243	0.8343
2252	0.8062
2261	0.7724
2270	0.746
2279	0.7158
2288	0.6765
2297	0.6662
2306	0.6714
2315	0.685
2324	0.693
2333	0.7025
2342	0.7168
2351	0.7306
2360	0.7447
2369	0.7596
2378	0.7745
2387	0.7991
2396	0.8186
2405	0.8271
2414	0.8317
2423	0.8328
2432	0.8332
2441	0.8334
2450	0.8337
2459	0.834
2468	0.8345
2477	0.8342
2486	0.8332
2495	0.8325
2504	0.8321
2513	0.8318
2522	0.8314
2531	0.831
2540	0.8298
2549	0.8278
2558	0.8255
2567	0.8233
2576	0.821
2585	0.8186
2594	0.8155
2603	0.8148
2612	0.8134
2621	0.8117
2630	0.81
2639	0.8089
2648	0.8078
2657	0.8071
2666	0.8072
2675	0.8075
2684	0.8085
2693	0.8071
2702	0.8054
2711	0.8018
2720	0.7975
2729	0.7918
2738	0.7841
2747	0.7765
2756	0.7767
2765	0.778
2774	0.7789
2783	0.779
2792	0.7798
2801	0.7783
2810	0.7747
2819	0.7687
2828	0.7558
2837	0.7365
2846	0.6995
2855	0.6449
2864	0.6081
2873	0.5773
2882	0.5798
2891	0.5922
2900	0.5771
2909	0.5232
2918	0.439
2927	0.4066
2936	0.4202
2945	0.4564
2954	0.4583
2963	0.4309
2972	0.4312
2981	0.4384
2990	0.4508
2999	0.4737
3008	0.5342
3017	0.5203
3026	0.5217
3035	0.5198
3044	0.4723
3053	0.3123
3062	0.3126
3071	0.3799
3080	0.5249
3089	0.5865
3098	0.6204
3107	0.6686
3116	0.6911
3125	0.705
3134	0.7147
3143	0.72
3152	0.723
3161	0.7247
3170	0.7251
3179	0.7253
3188	0.7249
3197	0.7206
3206	0.7192
3215	0.7196
3224	0.7204
3233	0.7197
3242	0.7184
3251	0.7165
3260	0.7149
3269	0.7133
3278	0.7117
3287	0.7097
3296	0.7085
3305	0.7075
3314	0.7065
3323	0.7057
3332	0.7053
3341	0.7058
3350	0.7064
3359	0.7068
3368	0.7075
3377	0.7082
3386	0.7091
3395	0.71
3404	0.7108
3413	0.7114
3422	0.7121
3431	0.7128
3440	0.7136
3449	0.7144
3458	0.7161
3467	0.7178
3476	0.7218
3485	0.7251
3494	0.7274
3503	0.7293
3512	0.7307
3521	0.7319
3530	0.733
3539	0.7336
3548	0.7342
3557	0.7348
3566	0.7355
3575	0.7361
3584	0.7368
3593	0.7375
3602	0.7383
3611	0.739
3620	0.7394
3629	0.7396
3638	0.74
3647	0.7403
3656	0.7406
3665	0.7408
3674	0.741
3683	0.7394
3692	0.7364
3701	0.7325
3710	0.7311
3719	0.7308
3728	0.7308
3737	0.7306
3746	0.7304
3755	0.7301
3764	0.73
3773	0.7298
3782	0.7296
3791	0.7294
3800	0.7293
