Infrared Spectrum: 3,8-Dimethyl-4,6-decadiyne-3,8-diol
Formula: C 12 H 18 O 2
CAS: 6626-33-1
State: gas
Instrument: HP-GC/MS/IRD
Origin: NIST Mass Spectrometry Data Center
1/CM	ABSORBANCE
550	0.0018216
562	0.0012852
574	0.0013446
586	0.0015714
598	0.0011646
610	0.0008586
622	0.0007776
634	0.0006012
646	0.0004878
658	0.000441
670	0.0004032
682	0.0003618
694	0.0003816
706	0.0003294
718	0.0001926
730	0.0001422
742	0.0001044
754	1.8e-05
766	3.42e-05
778	0.0002214
790	0.0004698
802	0.0003474
814	0.000279
826	0.0002466
838	0.0003024
850	0.0003348
862	0.000495
874	0.000873
886	0.0018396
898	0.0039222
910	0.0078246
922	0.0077742
934	0.0028548
946	0.0013824
958	0.0013068
970	0.0021042
982	0.0039402
994	0.0050328
1006	0.0044838
1018	0.003861
1030	0.0036432
1042	0.0042138
1054	0.0035298
1066	0.0020268
1078	0.0022302
1090	0.003015
1102	0.003879
1114	0.004842
1126	0.0065772
1138	0.0081342
1150	0.009054
1162	0.0096894
1174	0.007884
1186	0.0067428
1198	0.0054576
1210	0.0041724
1222	0.0036306
1234	0.003537
1246	0.0035928
1258	0.0037764
1270	0.0039888
1282	0.0046998
1294	0.0061668
1306	0.0072468
1318	0.0082638
1330	0.0083628
1342	0.0083196
1354	0.0060282
1366	0.0047052
1378	0.0051642
1390	0.0035964
1402	0.0017658
1414	0.0012114
1426	0.0012744
1438	0.0018216
1450	0.0024894
1462	0.002763
1474	0.001899
1486	0.0008658
1498	0.0005346
1510	0.0004896
1522	0.0003834
1534	0.000315
1546	0.0002898
1558	0.0003384
1570	0.0002718
1582	0.0002088
1594	0.0001764
1606	0.0001818
1618	0.000198
1630	0.0001242
1642	0.0001314
1654	0.0001908
1666	0.0001062
1678	9.36e-05
1690	9.9e-05
1702	0.0001242
1714	0.000108
1726	5.22e-05
1738	8.64e-05
1750	9.9e-05
1762	5.04e-05
1774	2.7e-05
1786	5.58e-05
1798	4.86e-05
1810	7.38e-05
1822	8.46e-05
1834	7.74e-05
1846	5.22e-05
1858	1.8e-06
1870	3.78e-05
1882	4.5e-05
1894	5.94e-05
1906	6.12e-05
1918	6.48e-05
1930	4.86e-05
1942	5.04e-05
1954	5.76e-05
1966	4.14e-05
1978	4.14e-05
1990	2.16e-05
2002	2.16e-05
2014	1.98e-05
2026	4.5e-05
2038	4.14e-05
2050	6.12e-05
2062	6.48e-05
2074	8.64e-05
2086	7.74e-05
2098	0.000117
2110	0.0002358
2122	0.0004338
2134	0.0007776
2146	0.0010278
2158	0.0006966
2170	0.0002538
2182	0.0001206
2194	7.2e-05
2206	6.84e-05
2218	8.1e-05
2230	7.2e-05
2242	7.2e-05
2254	7.74e-05
2266	8.46e-05
2278	7.38e-05
2290	8.28e-05
2302	6.3e-05
2314	4.14e-05
2326	9e-06
2338	3.6e-06
2350	4.32e-05
2362	5.4e-06
2374	8.82e-05
2386	9.9e-05
2398	6.48e-05
2410	7.92e-05
2422	5.4e-05
2434	6.3e-05
2446	5.76e-05
2458	7.02e-05
2470	4.68e-05
2482	2.16e-05
2494	3.78e-05
2506	5.94e-05
2518	4.5e-05
2530	1.26e-05
2542	2.88e-05
2554	5.4e-05
2566	4.14e-05
2578	6.12e-05
2590	7.2e-05
2602	6.48e-05
2614	4.68e-05
2626	6.12e-05
2638	4.5e-05
2650	4.5e-05
2662	5.76e-05
2674	7.2e-05
2686	7.2e-05
2698	6.12e-05
2710	7.74e-05
2722	8.82e-05
2734	0.0001458
2746	0.0002196
2758	0.0002376
2770	0.0002034
2782	0.000225
2794	0.0002844
2806	0.0003492
2818	0.0004536
2830	0.0005616
2842	0.0008604
2854	0.0015606
2866	0.0023292
2878	0.003195
2890	0.0043218
2902	0.003915
2914	0.0038628
2926	0.0068148
2938	0.0111222
2950	0.0102978
2962	0.0071082
2974	0.0129456
2986	0.0179838
2998	0.0091278
3010	0.002826
3022	0.0013248
3034	0.00081
3046	0.0006048
3058	0.0005112
3070	0.0005148
3082	0.0005058
3094	0.000495
3106	0.000405
3118	0.000297
3130	0.0002412
3142	0.0002286
3154	0.0001962
3166	0.0001872
3178	0.0001818
3190	0.0001764
3202	0.0001782
3214	0.0002016
3226	0.000153
3238	0.0001188
3250	9.72e-05
3262	8.46e-05
3274	4.86e-05
3286	3.96e-05
3298	4.86e-05
3310	2.7e-05
3322	4.68e-05
3334	7.38e-05
3346	4.5e-05
3358	7.74e-05
3370	0.0001224
3382	0.0001152
3394	0.0001116
3406	0.000108
3418	8.82e-05
3430	7.38e-05
3442	2.88e-05
3454	4.68e-05
3466	7.02e-05
3478	9.72e-05
3490	7.02e-05
3502	3.96e-05
3514	8.64e-05
3526	6.12e-05
3538	2.16e-05
3550	7.2e-05
3562	3.6e-05
3574	8.1e-05
3586	6.84e-05
3598	0.0001296
3610	0.0003384
3622	0.0011376
3634	0.0032868
3646	0.0033336
3658	0.0010854
3670	0.0003168
3682	6.66e-05
3694	2.34e-05
3706	3.96e-05
3718	4.32e-05
3730	1.8e-06
3742	6.84e-05
3754	2.52e-05
3766	1.8e-06
3778	1.8e-06
3790	1.8e-06
3802	1.44e-05
3814	1.8e-06
3826	5.4e-06
3838	2.88e-05
