Infrared Spectrum: 4-Bromo-3-chlorotoluene
Formula: C 7 H 6 Br Cl
CAS: 6627-51-6
State: gas
Origin: EPA-IR VAPOR PHASE LIBRARY
1/CM	ABSORBANCE
549.8	0.004086
559.445	0.001286
569.09	0.000979
578.734	0.001686
588.379	0.004446
598.024	0.007336
607.669	0.003786
617.313	0.0009239
626.958	0.0002972
636.603	0.0003796
646.248	0.0003395
655.893	0.0007495
665.537	0.001396
675.182	0.005196
684.827	0.010456
694.472	0.007186
704.116	0.001686
713.761	0.001356
723.406	0.001466
733.051	0.0005807
742.695	0.0004945
752.34	0.0004534
761.985	0.0007827
771.63	0.001796
781.275	0.003136
790.919	0.010546
800.564	0.026436
810.209	0.024186
819.854	0.010376
829.498	0.004426
839.143	0.004526
848.788	0.007736
858.433	0.018946
868.078	0.027196
877.722	0.014756
887.367	0.004436
897.012	0.001796
906.657	0.001216
916.301	0.0008558
925.946	0.0007849
935.591	0.0010358
945.236	0.001456
954.88	0.001666
964.525	0.001606
974.17	0.002086
983.815	0.003156
993.46	0.003816
1003.1	0.006226
1012.75	0.021176
1022.39	0.035596
1032.04	0.017956
1041.68	0.004766
1051.33	0.003206
1060.97	0.002086
1070.62	0.001886
1080.26	0.001366
1089.91	0.003006
1099.55	0.005226
1109.2	0.018946
1118.84	0.034396
1128.49	0.020386
1138.13	0.006366
1147.78	0.003656
1157.42	0.001896
1167.07	0.001616
1176.71	0.001316
1186.36	0.001846
1196	0.002696
1205.64	0.005326
1215.29	0.005846
1224.93	0.004156
1234.58	0.003316
1244.22	0.003286
1253.87	0.006196
1263.51	0.006926
1273.16	0.003546
1282.8	0.001266
1292.45	0.0010193
1302.09	0.0010617
1311.74	0.0010207
1321.38	0.0011132
1331.03	0.001226
1340.67	0.001716
1350.32	0.002546
1359.96	0.004926
1369.61	0.009776
1379.25	0.014356
1388.9	0.014366
1398.54	0.010466
1408.18	0.009166
1417.83	0.008346
1427.47	0.006136
1437.12	0.006536
1446.76	0.011296
1456.41	0.035006
1466.05	0.065616
1475.7	0.042036
1485.34	0.016136
1494.99	0.011246
1504.63	0.006136
1514.28	0.004936
1523.92	0.005046
1533.57	0.005736
1543.21	0.006746
1552.86	0.007186
1562.5	0.006776
1572.15	0.005906
1581.79	0.007106
1591.44	0.008006
1601.08	0.004416
1610.73	0.002626
1620.37	0.001676
1630.01	0.0009469
1639.66	0.0007754
1649.3	0.0005783
1658.95	0.0006522
1668.59	0.000961
1678.24	0.0010962
1687.88	0.0008444
1697.53	0.0007444
1707.17	0.0008518
1716.82	0.001196
1726.46	0.001926
1736.11	0.002426
1745.75	0.002116
1755.4	0.0010142
1765.04	0.0004566
1774.69	0.0004197
1784.33	0.0005631
1793.98	0.0007547
1803.62	0.0010541
1813.27	0.001426
1822.91	0.000983
1832.55	0.0005321
1842.2	0.0005189
1851.84	0.0005953
1861.49	0.0005732
1871.13	0.0010587
1880.78	0.001946
1890.42	0.002236
1900.07	0.001396
1909.71	0.0006034
1919.36	0.0005027
1929	0.0003915
1938.65	0.0003228
1948.29	0.0002776
1957.94	0.0002709
1967.58	0.0003591
1977.23	0.0004157
1986.87	0.0004311
1996.52	0.0004198
2006.16	0.0003307
2015.81	0.00022319
2025.45	0.0003024
2035.1	0.00022828
2044.74	0.0003505
2054.38	0.0002714
2064.03	0.000279
2073.67	0.0003242
2083.32	0.0002462
2092.96	0.00021188
2102.61	0.0002605
2112.25	0.00023658
2121.9	0.0002599
2131.54	0.0002968
2141.19	0.0001874
2150.83	0.0002744
2160.48	0.0003118
2170.12	0.0002945
2179.77	0.00024234
2189.41	0.00024257
2199.06	0.00017587
2208.7	0.00017144
2218.35	0.00024147
2227.99	0.0002546
2237.64	0.0003254
2247.28	0.0003959
2256.92	0.0004273
2266.57	0.0003317
2276.21	0.0004179
2285.86	0.0004755
2295.5	0.0004063
2305.15	0.00019044
2314.79	0.00022511
2324.44	0.0003007
2334.08	0.0003304
2343.73	0.0003684
2353.37	0.0004929
2363.02	0.0005958
2372.66	0.000615
2382.31	0.0006381
2391.95	0.0004638
2401.6	0.0004893
2411.24	0.0004277
2420.89	0.0003991
2430.53	0.0003591
2440.18	0.0003898
2449.82	0.0003773
2459.47	0.0004198
2469.11	0.0004165
2478.75	0.0004279
2488.4	0.0005176
2498.04	0.0003432
2507.69	0.0003896
2517.33	0.0005317
2526.98	0.0005207
2536.62	0.0004101
2546.27	0.0002827
2555.91	0.000279
2565.56	0.00024409
2575.2	0.0004671
2584.85	0.0006026
2594.49	0.0007186
2604.14	0.0006236
2613.78	0.0004054
2623.43	0.0003609
2633.07	0.0003058
2642.72	0.0004427
2652.36	0.0003895
2662.01	0.0002829
2671.65	0.0002664
2681.29	0.00021116
2690.94	0.0003255
2700.58	0.0003548
2710.23	0.0005093
2719.87	0.0004092
2729.52	0.0007162
2739.16	0.0009128
2748.81	0.001286
2758.45	0.0006151
2768.1	0.0002913
2777.74	0.0004652
2787.39	0.0004951
2797.03	0.0007515
2806.68	0.0006747
2816.32	0.0009681
2825.97	0.001186
2835.61	0.001476
2845.26	0.002066
2854.9	0.003246
2864.55	0.005066
2874.19	0.007106
2883.84	0.007546
2893.48	0.006706
2903.12	0.006686
2912.77	0.007376
2922.41	0.011036
2932.06	0.018116
2941.7	0.017236
2951.35	0.009706
2960.99	0.006156
2970.64	0.004776
2980.28	0.004276
2989.93	0.004906
2999.57	0.006176
3009.22	0.006836
3018.86	0.006706
3028.51	0.007756
3038.15	0.008676
3047.8	0.010516
3057.44	0.011566
3067.09	0.008106
3076.73	0.004666
3086.38	0.004026
3096.02	0.002936
3105.67	0.001426
3115.31	0.0009818
3124.95	0.0008562
3134.6	0.0005836
3144.24	0.000522
3153.89	0.0005237
3163.53	0.0004317
3173.18	0.0002587
3182.82	0.00019887
3192.47	0.0002476
3202.11	0.0002697
3211.76	9.91e-05
3221.4	0.0002814
3231.05	0.0003727
3240.69	0.0002896
3250.34	0.00016399
3259.98	0.00014473
3269.63	0.0002639
3279.27	0.00015256
3288.92	0.0002611
3298.56	0.00023147
3308.21	0.0002852
3317.85	0.00024244
3327.49	0.0003524
3337.14	0.00023742
3346.78	0.00020163
3356.43	1.7e-05
3366.07	0.00042
3375.72	0.0002906
3385.36	0.0002741
3395.01	0.0002867
3404.65	0.0003233
3414.3	0.0001325
3423.94	0.0001116
3433.59	0.00022491
3443.23	0.0002455
3452.88	1.9e-05
3462.52	0.0003702
3472.17	0.00014208
3481.81	0.000148317
3491.46	0.00023758
3501.1	0.0003001
3510.75	0.00018553
3520.39	0.0001076
3530.04	0.0002875
3539.68	0.00019998
3549.32	0.00019585
3558.97	0.000147171
3568.61	0.00021745
3578.26	0.00021545
3587.9	0.00013859
3597.55	0.0002463
3607.19	0.0004176
3616.84	0.0002929
3626.48	0.00022362
3636.13	0.0003267
3645.77	0.00015872
3655.42	0.0002797
3665.06	0.0001179
3674.71	0.0003746
3684.35	0.0001022
3694	0.00016774
3703.64	0.00023866
3713.29	0.00016436
3722.93	0.00016277
3732.58	0.0002747
3742.22	0.0003937
3751.86	0.0002849
3761.51	0.0003366
3771.15	0.0004053
3780.8	0.00019225
3790.44	0.0003287
3800.09	0.00022944
3809.73	0.000249
3819.38	0.000306
3829.02	4e-05
3838.67	0.0002763
3848.31	0.0002682
3857.96	0.0002998
3867.6	0.0004459
3877.25	0.0003312
3886.89	0.0002563
3896.54	8.43e-05
3906.18	0.0003333
3915.83	0.0003646
3925.47	0.00016717
3935.12	0.0002515
3944.76	0.0002092
3954.41	0.0004261
3964.05	0.00018672
3973.69	0.000154004
3983.34	0.00020404
3992.98	0.00023496
