Infrared Spectrum: 4-Aminoquinaldine
Formula: C 10 H 10 N 2
CAS: 6628-04-2
State: gas
Instrument: HP-GC/MS/IRD
Origin: NIST Mass Spectrometry Data Center
1/CM	ABSORBANCE
550	0.0005292
562	0.0007126
574	0.0006566
586	0.0006538
598	0.000882
610	0.0011452
622	0.0011018
634	0.0012586
646	0.0015512
658	0.00105
670	0.0008596
682	0.0009856
694	0.001064
706	0.0011382
718	0.0011886
730	0.0017276
742	0.0045332
754	0.007609
766	0.0036904
778	0.0017822
790	0.0011004
802	0.0008386
814	0.0010276
826	0.0017766
838	0.0018452
850	0.001197
862	0.0012012
874	0.0008218
886	0.0004018
898	0.0003178
910	0.0003122
922	0.0003542
934	0.0003906
946	0.0004578
958	0.0006496
970	0.000917
982	0.0007924
994	0.0007238
1006	0.0005698
1018	0.0007112
1030	0.0005684
1042	0.0004396
1054	0.000399
1066	0.0002842
1078	0.0002394
1090	0.000224
1102	0.0003164
1114	0.0004158
1126	0.0003458
1138	6.02e-05
1150	3.22e-05
1162	0.0001708
1174	0.0006216
1186	0.0013468
1198	0.0008358
1210	7.56e-05
1222	0.0001302
1234	0.000343
1246	0.000161
1258	0.0001414
1270	0.0003178
1282	0.0001904
1294	0.0001274
1306	0.0001414
1318	0.0002464
1330	0.0005362
1342	0.000798
1354	0.0017528
1366	0.0032256
1378	0.0030226
1390	0.0026474
1402	0.0020342
1414	0.0021658
1426	0.003983
1438	0.0036162
1450	0.0012082
1462	0.0006916
1474	0.0008162
1486	0.0015288
1498	0.0035504
1510	0.0062104
1522	0.0043792
1534	0.001862
1546	0.00231
1558	0.0040502
1570	0.0041734
1582	0.0042924
1594	0.0078862
1606	0.0095718
1618	0.012572
1630	0.0133336
1642	0.0071008
1654	0.0030184
1666	0.0015806
1678	0.0009576
1690	0.0007056
1702	0.0005026
1714	0.0004102
1726	0.000357
1738	0.0002926
1750	0.000259
1762	0.0002086
1774	0.0002254
1786	0.0002688
1798	0.0003108
1810	0.0002744
1822	0.0002828
1834	0.00028
1846	0.0001736
1858	0.0002184
1870	0.0002604
1882	0.000322
1894	0.0002632
1906	0.0003094
1918	0.0003206
1930	0.0003178
1942	0.000392
1954	0.0002954
1966	0.0002058
1978	0.0001946
1990	0.0001932
2002	0.0002128
2014	0.0001974
2026	0.0002086
2038	0.0002268
2050	0.0002254
2062	0.0002254
2074	0.0002086
2086	0.0002114
2098	0.0002352
2110	0.0002394
2122	0.0002436
2134	0.0002562
2146	0.0002758
2158	0.0002646
2170	0.0002506
2182	0.000252
2194	0.000231
2206	0.0002338
2218	0.0002254
2230	0.0002394
2242	0.0002604
2254	0.0002772
2266	0.0002898
2278	0.000308
2290	0.000252
2302	0.000231
2314	0.0002352
2326	0.0002254
2338	0.0002604
2350	0.0002884
2362	0.0002716
2374	0.0002576
2386	0.0002184
2398	0.0002422
2410	0.0002156
2422	0.0002464
2434	0.0002422
2446	0.0002576
2458	0.0002366
2470	0.000245
2482	0.0002758
2494	0.0002716
2506	0.000231
2518	0.0002114
2530	0.000217
2542	0.0002156
2554	0.0002492
2566	0.0002716
2578	0.000252
2590	0.0002772
2602	0.0002772
2614	0.0002898
2626	0.0002814
2638	0.0002688
2650	0.0002618
2662	0.0002478
2674	0.0002674
2686	0.000308
2698	0.000273
2710	0.0003024
2722	0.0003374
2734	0.0003514
2746	0.0003416
2758	0.0003136
2770	0.000308
2782	0.0003108
2794	0.0003332
2806	0.0003276
2818	0.0003892
2830	0.0003934
2842	0.0004774
2854	0.0006216
2866	0.0006958
2878	0.000665
2890	0.0006608
2902	0.000714
2914	0.0010332
2926	0.0018816
2938	0.0019054
2950	0.001204
2962	0.0009534
2974	0.0007266
2986	0.0006608
2998	0.0008008
3010	0.0013118
3022	0.002163
3034	0.0025256
3046	0.0021112
3058	0.0024724
3070	0.0030254
3082	0.0023576
3094	0.0013398
3106	0.0007308
3118	0.0005362
3130	0.0004018
3142	0.0003332
3154	0.0003934
3166	0.00035
3178	0.0003878
3190	0.0003752
3202	0.0003668
3214	0.0003724
3226	0.0003486
3238	0.00035
3250	0.0003332
3262	0.0003052
3274	0.000273
3286	0.0002464
3298	0.0002716
3310	0.0002646
3322	0.0002814
3334	0.0002786
3346	0.000238
3358	0.0002716
3370	0.0002478
3382	0.0003262
3394	0.0003962
3406	0.000679
3418	0.0013986
3430	0.0015414
3442	0.0008456
3454	0.00042
3466	0.0003738
3478	0.0003276
3490	0.000532
3502	0.000994
3514	0.001323
3526	0.0009226
3538	0.0004424
3550	0.0003346
3562	0.0002856
3574	0.000294
3586	0.0002408
3598	0.0002254
3610	0.0002156
3622	0.0002506
3634	0.0002478
3646	0.0002464
3658	0.000224
3670	0.0002464
3682	0.0002912
3694	0.000266
3706	0.0002842
3718	0.0002744
3730	0.000287
3742	0.0002716
3754	0.0002912
3766	0.0002996
3778	0.0003094
3790	0.0003136
3802	0.000301
3814	0.000287
3826	0.0003038
3838	0.0003206
