Infrared Spectrum: 6-Ethoxy-2-methylquinoline
Formula: C 12 H 13 N O
CAS: 6628-28-0
State: gas
Origin: EPA-IR VAPOR PHASE LIBRARY
1/CM	ABSORBANCE
549.8	0.0007367
559.445	0.0016802
569.09	0.0013302
578.734	0.0026802
588.379	0.0038602
598.024	0.0074202
607.669	0.0084702
617.313	0.0057802
626.958	0.0018402
636.603	0.0014402
646.248	0.0016302
655.893	0.0031102
665.537	0.0046902
675.182	0.0039302
684.827	0.0023302
694.472	0.0014602
704.116	0.0009809
713.761	0.0007442
723.406	0.0008031
733.051	0.0011002
742.695	0.0019202
752.34	0.0029102
761.985	0.0022002
771.63	0.0022602
781.275	0.0039302
790.919	0.0098202
800.564	0.0152502
810.209	0.0150802
819.854	0.0228602
829.498	0.0392202
839.143	0.0406702
848.788	0.0283002
858.433	0.0196902
868.078	0.0173002
877.722	0.0133102
887.367	0.0106802
897.012	0.0082202
906.657	0.0061102
916.301	0.0053502
925.946	0.0103502
935.591	0.0134102
945.236	0.0080502
954.88	0.0089402
964.525	0.0172302
974.17	0.0110202
983.815	0.0055602
993.46	0.0062502
1003.1	0.0097102
1012.75	0.0125202
1022.39	0.0200602
1032.04	0.0384702
1041.68	0.0516702
1051.33	0.0366202
1060.97	0.0186202
1070.62	0.0123902
1080.26	0.0128102
1089.91	0.0154402
1099.55	0.0210702
1109.2	0.0623302
1118.84	0.0418102
1128.49	0.0204702
1138.13	0.0307602
1147.78	0.0518702
1157.42	0.0510702
1167.07	0.0490702
1176.71	0.0300302
1186.36	0.0178202
1196	0.0222902
1205.64	0.0547502
1215.29	0.12464
1224.93	0.18348
1234.58	0.11164
1244.22	0.0490802
1253.87	0.0319302
1263.51	0.0387102
1273.16	0.0248202
1282.8	0.0179202
1292.45	0.0283602
1302.09	0.0540002
1311.74	0.0405202
1321.38	0.0300702
1331.03	0.0482902
1340.67	0.0525402
1350.32	0.0306902
1359.96	0.0313002
1369.61	0.0407902
1379.25	0.0411802
1388.9	0.0354002
1398.54	0.0350702
1408.18	0.0171202
1417.83	0.0115702
1427.47	0.0119702
1437.12	0.0136102
1446.76	0.0143902
1456.41	0.0175802
1466.05	0.0338202
1475.7	0.0529702
1485.34	0.0663202
1494.99	0.10197
1504.63	0.0589002
1514.28	0.0298602
1523.92	0.0216402
1533.57	0.0185602
1543.21	0.0182802
1552.86	0.0220602
1562.5	0.0250602
1572.15	0.0227502
1581.79	0.0292502
1591.44	0.0536602
1601.08	0.0958702
1610.73	0.0793202
1620.37	0.0548502
1630.01	0.0435202
1639.66	0.0181002
1649.3	0.0086402
1658.95	0.0060002
1668.59	0.0046302
1678.24	0.0037902
1687.88	0.0037102
1697.53	0.0038702
1707.17	0.0041502
1716.82	0.0036202
1726.46	0.0051302
1736.11	0.0056602
1745.75	0.0040102
1755.4	0.0033802
1765.04	0.0026302
1774.69	0.0024202
1784.33	0.0028202
1793.98	0.0027802
1803.62	0.0022202
1813.27	0.0020102
1822.91	0.0020802
1832.55	0.0020902
1842.2	0.0020402
1851.84	0.0018402
1861.49	0.0017702
1871.13	0.0019602
1880.78	0.0023902
1890.42	0.0029502
1900.07	0.0036002
1909.71	0.0045602
1919.36	0.0048402
1929	0.0040102
1938.65	0.0028602
1948.29	0.0024402
1957.94	0.0019502
1967.58	0.0019602
1977.23	0.0021002
1986.87	0.0016102
1996.52	0.0014102
2006.16	0.0014102
2015.81	0.0013502
2025.45	0.0013202
2035.1	0.0017602
2044.74	0.0019502
2054.38	0.0023502
2064.03	0.0022902
2073.67	0.0021202
2083.32	0.0017202
2092.96	0.0014802
2102.61	0.0012902
2112.25	0.0013602
2121.9	0.0014302
2131.54	0.0015302
2141.19	0.0015202
2150.83	0.0014102
2160.48	0.0015102
2170.12	0.0012402
2179.77	0.0013402
2189.41	0.0011102
2199.06	0.0011002
2208.7	0.001033
2218.35	0.0010802
2227.99	0.0012002
2237.64	0.0011802
2247.28	0.0013702
2256.92	0.0017202
2266.57	0.0015802
2276.21	0.0013102
2285.86	0.0016902
2295.5	0.0015502
2305.15	0.0013602
2314.79	0.0012602
2324.44	0.0012002
2334.08	0.0011602
2343.73	0.0013602
2353.37	0.0014402
2363.02	0.0017202
2372.66	0.0017802
2382.31	0.0022002
2391.95	0.0020002
2401.6	0.0019602
2411.24	0.0020702
2420.89	0.0019102
2430.53	0.0019002
2440.18	0.0020602
2449.82	0.0020502
2459.47	0.0018102
2469.11	0.0015302
2478.75	0.0014202
2488.4	0.0018002
2498.04	0.0012902
2507.69	0.0013402
2517.33	0.0013902
2526.98	0.0013402
2536.62	0.0012602
2546.27	0.0011402
2555.91	0.0015302
2565.56	0.0014602
2575.2	0.0017602
2584.85	0.0021902
2594.49	0.0025802
2604.14	0.0020902
2613.78	0.0017102
2623.43	0.0011702
2633.07	0.0012602
2642.72	0.0012102
2652.36	0.0008788
2662.01	0.0010802
2671.65	0.0013602
2681.29	0.0011902
2690.94	0.0014102
2700.58	0.0017002
2710.23	0.0019802
2719.87	0.0022402
2729.52	0.0029802
2739.16	0.0026202
2748.81	0.0022002
2758.45	0.0022302
2768.1	0.0023102
2777.74	0.0024502
2787.39	0.0027102
2797.03	0.0026002
2806.68	0.0028302
2816.32	0.0037002
2825.97	0.0043502
2835.61	0.0055402
2845.26	0.0072702
2854.9	0.0097702
2864.55	0.0131702
2874.19	0.0173802
2883.84	0.0208402
2893.48	0.0222202
2903.12	0.0246302
2912.77	0.0278002
2922.41	0.0332002
2932.06	0.0420802
2941.7	0.0394802
2951.35	0.0301402
2960.99	0.0243402
2970.64	0.0264102
2980.28	0.0361702
2989.93	0.0409802
2999.57	0.0283702
3009.22	0.0177202
3018.86	0.0151102
3028.51	0.0168602
3038.15	0.0184802
3047.8	0.0239202
3057.44	0.0298202
3067.09	0.0257202
3076.73	0.0180402
3086.38	0.0117802
3096.02	0.0070702
3105.67	0.0046402
3115.31	0.0030702
3124.95	0.0027102
3134.6	0.0017502
3144.24	0.0013902
3153.89	0.0017002
3163.53	0.0013602
3173.18	0.0015702
3182.82	0.0011102
3192.47	0.0015102
3202.11	0.0007863
3211.76	0.0010408
3221.4	0.0009701
3231.05	0.0007966
3240.69	0.0007957
3250.34	0.0005356
3259.98	0.0003843
3269.63	0.0005243
3279.27	0.0004847
3288.92	0.0002642
3298.56	0.0004484
3308.21	0.0005882
3317.85	0.0007156
3327.49	0.0003605
3337.14	0.0004494
3346.78	0.0003414
3356.43	0.0002395
3366.07	0.00013357
3375.72	0.0005598
3385.36	0.0002649
3395.01	0.0004461
3404.65	0.0005742
3414.3	0.0006785
3423.94	0.0003608
3433.59	0.0004752
3443.23	0.000839
3452.88	0.00011857
3462.52	0.0002604
3472.17	0.0002794
3481.81	0.0005851
3491.46	0.00049
3501.1	3.17e-05
3510.75	0.00015287
3520.39	0.0007487
3530.04	0.0004904
3539.68	0.0002401
3549.32	0.0004303
3558.97	0.0004764
3568.61	9.004e-05
3578.26	0.0003026
3587.9	0.0005098
3597.55	0.0002994
3607.19	0.000343
3616.84	0.0005047
3626.48	0.000167
3636.13	0.0002523
3645.77	0.00010963
3655.42	0.0005333
3665.06	0.0004468
3674.71	0.00010605
3684.35	0.0003156
3694	0.0003441
3703.64	0.0004291
3713.29	0.000418
3722.93	0.0003486
3732.58	0.0006538
3742.22	0.000251
3751.86	0.000396
3761.51	0.0007528
3771.15	0.00015939
3780.8	0.0006958
3790.44	0.0005305
3800.09	0.0003633
3809.73	0.0004019
3819.38	0.0002113
3829.02	0.0005216
3838.67	0.0004812
3848.31	0.0003895
3857.96	0.0003498
3867.6	0.0007817
3877.25	0.0006435
3886.89	0.0006394
3896.54	0.0012702
3906.18	0.0004377
3915.83	0.0005865
3925.47	0.0006171
3935.12	0.000666
3944.76	0.0010399
3954.41	0.0005358
3964.05	0.0011402
3973.69	0.0008939
3983.34	0.0011902
3992.98	0.0009245
