Infrared Spectrum: 6-Chlorocapronitrile
Formula: C 6 H 10 Cl N
CAS: 6628-78-0
State: gas
Origin: EPA-IR VAPOR PHASE LIBRARY
1/CM	ABSORBANCE
549.9	0.00044
559.547	0.000352
569.193	0.000289
578.84	0.000474
588.486	0.000454
598.133	0.000438
607.779	0.00056
617.426	0.000722
627.072	0.00086387
636.719	0.001163
646.365	0.0016637
656.012	0.002575
665.658	0.003025
675.305	0.002115
684.951	0.0013921
694.598	0.0012482
704.245	0.0013742
713.891	0.0018234
723.538	0.002505
733.184	0.003455
742.831	0.004195
752.477	0.003485
762.124	0.002505
771.77	0.001935
781.417	0.0015924
791.063	0.0013891
800.71	0.0012426
810.356	0.0012705
820.003	0.001212
829.649	0.0012808
839.296	0.0012806
848.943	0.0010737
858.589	0.00106
868.236	0.0011062
877.882	0.0011105
887.529	0.0011243
897.175	0.0012094
906.822	0.0012508
916.468	0.0010834
926.115	0.0010857
935.761	0.0010074
945.408	0.001016
955.054	0.0010769
964.701	0.0010865
974.347	0.0011248
983.994	0.0010445
993.64	0.0010315
1003.29	0.0010855
1012.93	0.00121
1022.58	0.0012004
1032.23	0.0011726
1041.87	0.0010499
1051.52	0.0010214
1061.17	0.0009769
1070.81	0.00089366
1080.46	0.000846514
1090.11	0.000741
1099.75	0.00071
1109.4	0.000633
1119.05	0.000662
1128.69	0.000575
1138.34	0.000596
1147.99	0.000743
1157.63	0.000708
1167.28	0.000787
1176.92	0.000728
1186.57	0.000708
1196.22	0.000669
1205.86	0.000692
1215.51	0.000706
1225.16	0.00083548
1234.8	0.001078
1244.45	0.0013842
1254.1	0.001865
1263.74	0.002035
1273.39	0.002285
1283.04	0.003115
1292.68	0.003875
1302.33	0.003835
1311.98	0.003595
1321.62	0.003145
1331.27	0.002575
1340.92	0.002205
1350.56	0.002175
1360.21	0.001865
1369.86	0.0014925
1379.5	0.0012692
1389.15	0.0010977
1398.79	0.0010891
1408.44	0.0012657
1418.09	0.0017205
1427.73	0.002725
1437.38	0.003975
1447.03	0.004775
1456.67	0.004705
1466.32	0.003505
1475.97	0.002335
1485.61	0.0015592
1495.26	0.0011565
1504.91	0.0010385
1514.55	0.00093378
1524.2	0.00090542
1533.85	0.00083524
1543.49	0.00086859
1553.14	0.0007803
1562.79	0.0007782
1572.43	0.0008075
1582.08	0.0007718
1591.73	0.0008267
1601.37	0.000809
1611.02	0.0007861
1620.67	0.0008132
1630.31	0.0007906
1639.96	0.000844662
1649.6	0.00087744
1659.25	0.0007803
1668.9	0.0007593
1678.54	0.0008268
1688.19	0.0007929
1697.84	0.0007908
1707.48	0.000806
1717.13	0.00086225
1726.78	0.0007966
1736.42	0.0007787
1746.07	0.0008058
1755.72	0.0007823
1765.36	0.0008047
1775.01	0.00084112
1784.66	0.0008132
1794.3	0.0008066
1803.95	0.0007839
1813.6	0.0007996
1823.24	0.000848273
1832.89	0.00085656
1842.54	0.0008078
1852.18	0.0007756
1861.83	0.00084152
1871.47	0.00087257
1881.12	0.00086121
1890.77	0.00089125
1900.41	0.00084217
1910.06	0.0008303
1919.71	0.000844131
1929.35	0.000846948
1939	0.00083846
1948.65	0.000849323
1958.29	0.0008333
1967.94	0.000845097
1977.59	0.00084508
1987.23	0.00084102
1996.88	0.000852275
2006.53	0.00084397
2016.17	0.00085645
2025.82	0.00087972
2035.47	0.00090111
2045.11	0.00087328
2054.76	0.00089156
2064.41	0.0009565
2074.05	0.00091608
2083.7	0.00091746
2093.35	0.00092591
2102.99	0.00087383
2112.64	0.00094301
2122.28	0.00088043
2131.93	0.00088387
2141.58	0.000947
2151.22	0.000961
2160.87	0.00089712
2170.52	0.00089755
2180.16	0.00092182
2189.81	0.00089785
2199.46	0.00092412
2209.1	0.0009163
2218.75	0.0009764
2228.4	0.0010178
2238.04	0.0011775
2247.69	0.001335
2257.34	0.0013955
2266.98	0.0011817
2276.63	0.0010195
2286.28	0.0009822
2295.92	0.000967
2305.57	0.000999
2315.22	0.0009499
2324.86	0.00093643
2334.51	0.0009871
2344.16	0.0009483
2353.8	0.0010122
2363.45	0.0010479
2373.09	0.0009494
2382.74	0.0009824
2392.39	0.0009731
2402.03	0.0009732
2411.68	0.0010197
2421.33	0.0010302
2430.97	0.0009571
2440.62	0.0010043
2450.27	0.00090496
2459.91	0.0009952
2469.56	0.00092259
2479.21	0.0009542
2488.85	0.0009769
2498.5	0.0009699
2508.15	0.0010224
2517.79	0.00091297
2527.44	0.0009918
2537.09	0.00093535
2546.73	0.0010314
2556.38	0.0009701
2566.03	0.0009687
2575.67	0.0009782
2585.32	0.0009728
2594.96	0.0010564
2604.61	0.0010758
2614.26	0.0010279
2623.9	0.0009899
2633.55	0.0010168
2643.2	0.0010374
2652.84	0.0010415
2662.49	0.0010915
2672.14	0.0011002
2681.78	0.0010924
2691.43	0.0011016
2701.08	0.0010815
2710.72	0.0011531
2720.37	0.0010774
2730.02	0.0010965
2739.66	0.0010766
2749.31	0.0010502
2758.96	0.0010626
2768.6	0.0009723
2778.25	0.0011352
2787.9	0.001168
2797.54	0.0012396
2807.19	0.0013603
2816.84	0.0014044
2826.48	0.0014676
2836.13	0.001885
2845.77	0.002565
2855.42	0.003395
2865.07	0.004585
2874.71	0.005635
2884.36	0.005585
2894.01	0.004975
2903.65	0.004755
2913.3	0.005665
2922.95	0.007065
2932.59	0.009575
2942.24	0.013095
2951.89	0.016365
2961.53	0.016465
2971.18	0.012175
2980.83	0.007085
2990.47	0.005195
3000.12	0.004515
3009.77	0.003065
3019.41	0.001905
3029.06	0.001388
3038.71	0.0012547
3048.35	0.0009881
3058	0.0010125
3067.64	0.00087613
3077.29	0.000664
3086.94	0.00072
3096.58	0.0007604
3106.23	0.000693
3115.88	0.000544
3125.52	0.00064
3135.17	0.000581
3144.82	0.000611
3154.46	0.000554
3164.11	0.000622
3173.76	0.000724
3183.4	0.000667
3193.05	0.000661
3202.7	0.000622
3212.34	0.000693
3221.99	0.00046
3231.64	0.000408
3241.28	0.000597
3250.93	0.000416
3260.58	0.000505
3270.22	0.000408
3279.87	0.000398
3289.52	0.000401
3299.16	0.000339
3308.81	0.000395
3318.45	0.000305
3328.1	0.000311
3337.75	0.000379
3347.39	4.5e-05
3357.04	0.000147
3366.69	0.000199
3376.33	0.000247
3385.98	0.000342
3395.63	0.000211
3405.27	0.000248
3414.92	0.000252
3424.57	0.000391
3434.21	0.000246
3443.86	0.000305
3453.51	0.000226
3463.15	0.000323
3472.8	0.000176
3482.45	0.000245
3492.09	0.000304
3501.74	0.000361
3511.39	0.000391
3521.03	0.00021
3530.68	0.000194
3540.33	0.000168
3549.97	0.000453
3559.62	0.000413
3569.26	0.000141
3578.91	0.00037
3588.56	0.000264
3598.2	0.000277
3607.85	0.000406
3617.5	0.000349
3627.14	0.000365
3636.79	0.000271
3646.44	0.000361
3656.08	0.000389
3665.73	0.000447
3675.38	0.000307
3685.02	0.000434
3694.67	0.000355
3704.32	0.000547
3713.96	0.000468
3723.61	0.00039
3733.26	0.000478
3742.9	0.000448
3752.55	0.000512
3762.2	0.000467
3771.84	0.000432
3781.49	0.000437
3791.13	0.000482
3800.78	0.000534
3810.43	0.00062
3820.07	0.000486
3829.72	0.000483
3839.37	0.000468
3849.01	0.000533
3858.66	0.0005
3868.31	0.000569
3877.95	0.000487
3887.6	0.00062
3897.25	0.000509
3906.89	0.000546
3916.54	0.000562
3926.19	0.000532
3935.83	0.000484
3945.48	0.000545
3955.13	0.000574
3964.77	0.000662
3974.42	0.000675
3984.07	0.000491
3993.71	0.000646
