Infrared Spectrum: Levulinic acid, 3-methyl
Formula: C6 H10 O3
CAS: 6628-79-1
State: LIQUID (NEAT)
Class: COBLENTZ II
Instrument: BECKMAN IR-9 (GRATING)
Instrument parameters: ORDER CHANGES: 670, 1200, 2000 CM^-^1
Sampling: TRANSMISSION
Path length: CAPILLARY (BETWEEN KBr PLATES)
Resolution: 2
Origin: DOW CHEMICAL COMPANY
1/CM	TRANSMITTANCE
3800	0.8963
3791	0.896
3782	0.8954
3773	0.8948
3764	0.8942
3755	0.8935
3746	0.893
3737	0.8923
3728	0.8918
3719	0.8921
3710	0.8923
3701	0.8925
3692	0.8923
3683	0.892
3674	0.8917
3665	0.8914
3656	0.8908
3647	0.8902
3638	0.8895
3629	0.8881
3620	0.8866
3611	0.8852
3602	0.8837
3593	0.8825
3584	0.8815
3575	0.8804
3566	0.8793
3557	0.8778
3548	0.8766
3539	0.8751
3530	0.8721
3521	0.8685
3512	0.8638
3503	0.8582
3494	0.8521
3485	0.8452
3476	0.8378
3467	0.8299
3458	0.821
3449	0.8115
3440	0.8012
3431	0.7907
3422	0.7792
3413	0.7674
3404	0.7555
3395	0.7422
3386	0.7276
3377	0.71
3368	0.6954
3359	0.6822
3350	0.6685
3341	0.6549
3332	0.6415
3323	0.6266
3314	0.6124
3305	0.6022
3296	0.5906
3287	0.5794
3278	0.5695
3269	0.5619
3260	0.5538
3251	0.5454
3242	0.5388
3233	0.5337
3224	0.5289
3215	0.5248
3206	0.521
3197	0.5182
3188	0.5162
3179	0.5144
3170	0.5132
3161	0.512
3152	0.5115
3143	0.5112
3134	0.5112
3125	0.5106
3116	0.5095
3107	0.509
3098	0.51
3089	0.5125
3080	0.5154
3071	0.5166
3062	0.5162
3053	0.5176
3044	0.5212
3035	0.5233
3026	0.5244
3017	0.5245
3008	0.5238
2999	0.5224
2990	0.5178
2981	0.5055
2972	0.494
2963	0.4872
2954	0.4867
2945	0.493
2936	0.5018
2927	0.515
2918	0.5267
2909	0.5418
2900	0.5599
2891	0.5785
2882	0.5975
2873	0.6174
2864	0.6327
2855	0.6469
2846	0.6601
2837	0.6751
2828	0.6882
2819	0.699
2810	0.7074
2801	0.7153
2792	0.7207
2783	0.7248
2774	0.7275
2765	0.7304
2756	0.7328
2747	0.7343
2738	0.7353
2729	0.7349
2720	0.7339
2711	0.7333
2702	0.7325
2693	0.7314
2684	0.729
2675	0.7283
2666	0.7305
2657	0.7328
2648	0.7351
2639	0.7378
2630	0.7401
2621	0.7421
2612	0.7446
2603	0.7471
2594	0.7501
2585	0.7537
2576	0.7568
2567	0.7607
2558	0.765
2549	0.7699
2540	0.7754
2531	0.7808
2522	0.7862
2513	0.7918
2504	0.7974
2495	0.8032
2486	0.8095
2477	0.8154
2468	0.821
2459	0.8259
2450	0.8299
2441	0.8338
2432	0.8367
2423	0.8398
2414	0.8425
2405	0.8444
2396	0.8455
2387	0.8452
2378	0.8409
2369	0.8397
2360	0.8441
2351	0.8466
2342	0.8478
2333	0.8491
2324	0.8512
2315	0.8536
2306	0.8558
2297	0.858
2288	0.8596
2279	0.861
2270	0.8617
2261	0.8625
2252	0.8634
2243	0.8643
2234	0.8646
2225	0.8642
2216	0.8641
2207	0.8643
2198	0.8641
2189	0.8641
2180	0.8642
2171	0.8643
2162	0.865
2153	0.8657
2144	0.8664
2135	0.8671
2126	0.8675
2117	0.8678
2108	0.8683
2099	0.8681
2090	0.8687
2081	0.8693
2072	0.87
2063	0.8705
2054	0.8699
2045	0.8688
2036	0.8671
2027	0.8653
2018	0.8641
2009	0.8654
2000	0.8718
1991	0.8727
1982	0.8724
1973	0.8718
1964	0.8687
1955	0.8716
1946	0.8706
1937	0.8712
1928	0.8705
1919	0.8678
1910	0.8655
1901	0.8632
1892	0.8612
1883	0.8598
1874	0.8581
1865	0.8563
1856	0.8533
1847	0.851
1838	0.8466
1829	0.8389
1820	0.8304
1811	0.8206
1802	0.8071
1793	0.7878
1784	0.7591
1775	0.7158
1766	0.6557
1757	0.5435
1748	0.2687
1739	0.1807
1730	0.1814
1721	0.0789
1712	0.0502
1703	0.102
1694	0.2126
1685	0.3337
1676	0.4746
1667	0.5871
1658	0.6715
1649	0.7148
1640	0.743
1631	0.7683
1622	0.7896
1613	0.8068
1604	0.8192
1595	0.8267
1586	0.8286
1577	0.8259
1568	0.8298
1559	0.8275
1550	0.836
1541	0.833
1532	0.838
1523	0.8382
1514	0.8359
1505	0.8337
1496	0.8312
1487	0.822
1478	0.8
1469	0.7584
1460	0.6958
1451	0.5974
1442	0.5865
1433	0.5362
1424	0.4847
1415	0.4569
1406	0.4872
1397	0.5427
1388	0.5541
1379	0.5048
1370	0.4688
1361	0.4872
1352	0.5423
1343	0.6287
1334	0.6646
1325	0.6506
1316	0.6307
1307	0.6197
1298	0.5993
1289	0.5702
1280	0.571
1271	0.571
1262	0.556
1253	0.5244
1244	0.4998
1235	0.4958
1226	0.4971
1217	0.5005
1208	0.4925
1199	0.4858
1190	0.4809
1181	0.489
1172	0.4624
1163	0.4344
1154	0.4448
1145	0.5247
1136	0.6493
1127	0.7601
1118	0.7953
1109	0.8171
1100	0.8227
1091	0.8093
1082	0.7849
1073	0.7508
1064	0.7662
1055	0.7899
1046	0.8153
1037	0.832
1028	0.8311
1019	0.823
1010	0.8187
1001	0.8225
992	0.823
983	0.806
974	0.7697
965	0.7461
956	0.7318
947	0.7275
938	0.7293
929	0.7393
920	0.7431
911	0.7411
902	0.7328
893	0.735
884	0.746
875	0.7522
866	0.7469
857	0.7389
848	0.7333
839	0.7324
830	0.7365
821	0.7432
812	0.7499
803	0.7586
794	0.7658
785	0.7784
776	0.7861
767	0.7858
758	0.7771
749	0.7621
740	0.7675
731	0.7938
722	0.8259
713	0.8468
704	0.8587
695	0.8601
686	0.8557
677	0.8433
668	0.8199
659	0.8168
650	0.8158
641	0.8149
632	0.8125
623	0.8095
614	0.8034
605	0.794
596	0.79
587	0.7867
578	0.7918
569	0.8065
560	0.8124
551	0.8121
542	0.808
533	0.7968
524	0.7939
515	0.7939
506	0.7945
497	0.7944
488	0.7937
479	0.7875
470	0.7741
461	0.7617
452	0.7532
443	0.7296
434	0.7097
425	0.6894
416	0.6316
407	0.6424
