Infrared Spectrum: 2-Methyl-4-decanone
Formula: C 11 H 22 O
CAS: 6628-25-7
State: gas
Instrument: HP-GC/MS/IRD
Origin: NIST Mass Spectrometry Data Center
1/CM	ABSORBANCE
550	0.0004655
562	0.0001855
574	1.05e-05
586	0
598	0.000168
610	0.0001995
622	0.0002205
634	0.000357
646	0.0002835
658	0.000168
670	0.0002345
682	0.0001155
694	0.0001575
706	0.0003325
718	0.0005705
730	0.000651
742	0.0004865
754	0.0002975
766	0.000287
778	0.0002555
790	0.0002135
802	0.000252
814	0.0003255
826	0.0002765
838	0.0002905
850	0.0002065
862	0.0003045
874	0.00035
886	0.000413
898	0.0004865
910	0.0004445
922	0.000637
934	0.000847
946	0.001043
958	0.0008015
970	0.00056
982	0.000588
994	0.000875
1006	0.0011235
1018	0.001337
1030	0.002016
1042	0.0028945
1054	0.0037205
1066	0.002863
1078	0.0018585
1090	0.001358
1102	0.001407
1114	0.001834
1126	0.0023625
1138	0.0033705
1150	0.003815
1162	0.0039585
1174	0.0032515
1186	0.0022855
1198	0.0021175
1210	0.001799
1222	0.001687
1234	0.0016345
1246	0.001421
1258	0.0014245
1270	0.0019075
1282	0.003108
1294	0.003276
1306	0.002891
1318	0.0027895
1330	0.0034405
1342	0.004781
1354	0.0064925
1366	0.0067165
1378	0.0048335
1390	0.003451
1402	0.002681
1414	0.002884
1426	0.002863
1438	0.003045
1450	0.0039585
1462	0.0050505
1474	0.00413
1486	0.0020965
1498	0.0010745
1510	0.0006545
1522	0.0004305
1534	0.0003465
1546	0.0003045
1558	0.0002765
1570	0.000273
1582	0.000224
1594	0.000217
1606	0.000266
1618	0.0002905
1630	0.00035
1642	0.0004235
1654	0.000546
1666	0.000812
1678	0.0013545
1690	0.002464
1702	0.0056455
1714	0.0131355
1726	0.0167965
1738	0.008176
1750	0.0026705
1762	0.001148
1774	0.0006545
1786	0.000406
1798	0.0003185
1810	0.000245
1822	0.0001925
1834	0.0001435
1846	0.0001085
1858	9.1e-05
1870	8.05e-05
1882	7.35e-05
1894	4.55e-05
1906	2.45e-05
1918	4.55e-05
1930	2.8e-05
1942	0
1954	7e-06
1966	2.1e-05
1978	2.1e-05
1990	7e-06
2002	0
2014	2.1e-05
2026	2.45e-05
2038	4.2e-05
2050	2.1e-05
2062	2.1e-05
2074	2.8e-05
2086	1.05e-05
2098	7e-06
2110	4.9e-05
2122	3.15e-05
2134	3.85e-05
2146	4.2e-05
2158	5.6e-05
2170	3.85e-05
2182	5.6e-05
2194	7e-05
2206	5.6e-05
2218	3.85e-05
2230	3.15e-05
2242	3.15e-05
2254	1.05e-05
2266	2.8e-05
2278	3.15e-05
2290	1.4e-05
2302	1.75e-05
2314	4.2e-05
2326	4.2e-05
2338	1.75e-05
2350	6.3e-05
2362	2.8e-05
2374	4.2e-05
2386	5.6e-05
2398	3.85e-05
2410	4.55e-05
2422	5.25e-05
2434	5.95e-05
2446	6.3e-05
2458	4.9e-05
2470	6.3e-05
2482	5.95e-05
2494	9.45e-05
2506	7.7e-05
2518	7.7e-05
2530	9.1e-05
2542	0.0001225
2554	0.0001155
2566	0.0001435
2578	0.000133
2590	0.0001575
2602	0.0001995
2614	0.000224
2626	0.0002625
2638	0.0002975
2650	0.0003395
2662	0.000336
2674	0.000392
2686	0.0003955
2698	0.000413
2710	0.000469
2722	0.0005775
2734	0.0006825
2746	0.000756
2758	0.0007315
2770	0.000819
2782	0.0009485
2794	0.001239
2806	0.0016065
2818	0.0020755
2830	0.0028
2842	0.0042245
2854	0.007798
2866	0.012544
2878	0.0159285
2890	0.0160615
2902	0.016443
2914	0.020111
2926	0.027629
2938	0.0328895
2950	0.030891
2962	0.034475
2974	0.0271075
2986	0.0117145
2998	0.0051765
3010	0.0028875
3022	0.001897
3034	0.001393
3046	0.001071
3058	0.000903
3070	0.000812
3082	0.0007665
3094	0.0006685
3106	0.0006125
3118	0.0005285
3130	0.0004795
3142	0.0005005
3154	0.000462
3166	0.0004235
3178	0.000392
3190	0.0003955
3202	0.0003465
3214	0.0002835
3226	0.000217
3238	0.000119
3250	0.0001225
3262	0.0001435
3274	0.0001365
3286	0.000112
3298	0.0001085
3310	0.0001085
3322	0.000147
3334	0.000133
3346	0.0001225
3358	0.000126
3370	0.00014
3382	0.0001645
3394	0.000203
3406	0.000231
3418	0.000343
3430	0.0003815
3442	0.000308
3454	0.0001995
3466	0.0001015
3478	0.000119
3490	7.7e-05
3502	4.9e-05
3514	6.65e-05
3526	0
3538	8.05e-05
3550	7.7e-05
3562	6.3e-05
3574	0.000133
3586	0.000105
3598	9.1e-05
3610	8.75e-05
3622	9.45e-05
3634	0.0001785
3646	0.000133
3658	0.000105
3670	0.0001435
3682	8.4e-05
3694	0.0001015
3706	0.000168
3718	0.0001505
3730	0.0001365
3742	0.000182
3754	0.0001715
3766	0.0001715
3778	0.000161
3790	0.0001925
3802	0.0002135
3814	0.0001925
3826	0.00021
3838	0.0002555
