Infrared Spectrum: DI-(P-ETHYLPHENYL)SULFONE
Formula: C16 H18 O2 S
CAS: 66294-51-7
State: SOLUTION (10% CCl4 FOR 5000-1330, 10% CS2 FOR 1330-625 CM^-^1)
Class: COBLENTZ
Instrument: Not specified, most likely a prism, grating, or hybrid spectrometer.
Sampling: TRANSMISSION
Path length: 0.0120 CM, 0.0117 CM
Resolution: 4
Origin: DOW CHEMICAL COMPANY
MICROMETERS	TRANSMITTANCE
2.027	0.884
2.06704	0.882
2.10708	0.877
2.14712	0.874
2.18715	0.872
2.22719	0.867
2.26723	0.861
2.30727	0.867
2.34731	0.871
2.38735	0.871
2.42738	0.863
2.46742	0.871
2.50746	0.876
2.5475	0.877
2.58754	0.889
2.62758	0.891
2.66761	0.877
2.70765	0.877
2.74769	0.876
2.78773	0.876
2.82777	0.876
2.86781	0.867
2.90784	0.863
2.94788	0.864
2.98792	0.872
3.02796	0.869
3.068	0.869
3.10804	0.864
3.14808	0.858
3.18811	0.853
3.22815	0.785
3.26819	0.721
3.30823	0.729
3.34827	0.452
3.38831	0.458
3.42834	0.633
3.46838	0.655
3.50842	0.833
3.54846	0.863
3.5885	0.869
3.62854	0.876
3.66857	0.877
3.70861	0.879
3.74865	0.882
3.78869	0.876
3.82873	0.874
3.86877	0.881
3.90881	0.886
3.94884	0.887
3.98888	0.886
4.02892	0.884
4.06896	0.889
4.109	0.884
4.14904	0.874
4.18907	0.869
4.22911	0.881
4.26915	0.881
4.30919	0.872
4.34923	0.872
4.38927	0.876
4.4293	0.879
4.46934	0.879
4.50938	0.889
4.54942	0.891
4.58946	0.891
4.6295	0.891
4.66953	0.891
4.70957	0.892
4.74961	0.896
4.78965	0.897
4.82969	0.899
4.86973	0.9
4.90977	0.896
4.9498	0.894
4.98984	0.896
5.02988	0.896
5.06992	0.886
5.10996	0.889
5.15	0.874
5.19003	0.818
5.23007	0.844
5.27011	0.877
5.31015	0.882
5.35019	0.886
5.39023	0.887
5.43026	0.891
5.4703	0.891
5.51034	0.863
5.55038	0.854
5.59042	0.876
5.63046	0.881
5.67049	0.894
5.71053	0.887
5.75057	0.894
5.79061	0.897
5.83065	0.891
5.87069	0.886
5.91073	0.877
5.95076	0.858
5.9908	0.846
6.03084	0.846
6.07088	0.854
6.11092	0.858
6.15096	0.816
6.19099	0.707
6.23103	0.382
6.27107	0.488
6.31111	0.577
6.35115	0.567
6.39119	0.551
6.43122	0.498
6.47126	0.518
6.5113	0.592
6.55134	0.638
6.59138	0.669
6.63142	0.694
6.67146	0.599
6.71149	0.732
6.75153	0.714
6.79157	0.554
6.83161	0.524
6.87165	0.613
6.91169	0.671
6.95172	0.702
6.99176	0.716
7.0318	0.569
7.07184	0.424
7.11188	0.57
7.15192	0.744
7.19195	0.773
7.23199	0.734
7.27203	0.762
7.31207	0.798
7.35211	0.778
7.39215	0.734
7.43218	0.57
7.47222	0.27
7.51226	0.08
7.5523	0.089
7.59234	0.113
7.63238	0.153
7.67242	0.293
7.71245	0.476
7.75249	0.698
7.79253	0.808
7.83257	0.887
7.87261	0.914
7.91265	0.925
7.95268	0.927
7.99272	0.92
8.03276	0.897
8.0728	0.892
8.11284	0.899
8.15288	0.905
8.19291	0.904
8.23295	0.859
8.27299	0.79
8.31303	0.76
8.35307	0.737
8.39311	0.669
8.43314	0.633
8.47318	0.658
8.51322	0.602
8.55326	0.43
8.5933	0.229
8.63334	0.029
8.67338	0.062
8.71341	0.273
8.75345	0.541
8.79349	0.623
8.83353	0.694
8.87357	0.727
8.91361	0.651
8.95364	0.509
8.99368	0.374
9.03372	0.136
9.07376	0.273
9.1138	0.485
9.15384	0.646
9.19387	0.745
9.23391	0.752
9.27395	0.62
9.31399	0.551
9.35403	0.679
9.39407	0.702
9.43411	0.65
9.47414	0.635
9.51418	0.686
9.55422	0.81
9.59426	0.866
9.6343	0.904
9.67434	0.915
9.71437	0.919
9.75441	0.902
9.79445	0.752
9.83449	0.646
9.87453	0.839
9.91457	0.938
9.9546	0.968
9.99464	0.971
10.0347	0.976
10.0747	0.986
10.1148	0.98
10.1548	0.958
10.1948	0.94
10.2349	0.912
10.2749	0.871
10.315	0.844
10.355	0.83
10.395	0.872
10.4351	0.922
10.4751	0.94
10.5151	0.952
10.5552	0.981
10.5952	1.011
10.6353	1.023
10.6753	1.026
10.7153	1.023
10.7554	1.021
10.7954	1.018
10.8354	1.014
10.8755	1.014
10.9155	1.016
10.9556	1.014
10.9956	1.021
11.0356	1.016
11.0757	1.009
11.1157	1
11.1558	0.988
11.1958	0.978
11.2358	0.958
11.2759	0.938
11.3159	0.92
11.3559	0.896
11.396	0.876
11.436	0.858
11.4761	0.839
11.5161	0.823
11.5561	0.805
11.5962	0.792
11.6362	0.772
11.6763	0.75
11.7163	0.735
11.7563	0.711
11.7964	0.673
11.8364	0.589
11.8764	0.49
11.9165	0.356
11.9565	0.24
11.9966	0.216
12.0366	0.27
12.0766	0.351
12.1167	0.526
12.1567	0.651
12.1968	0.722
12.2368	0.754
12.2768	0.749
12.3169	0.706
12.3569	0.655
12.3969	0.625
12.437	0.625
12.477	0.618
12.5171	0.57
12.5571	0.493
12.5971	0.372
12.6372	0.313
12.6772	0.361
12.7173	0.493
12.7573	0.602
12.7973	0.663
12.8374	0.724
12.8774	0.78
12.9174	0.818
12.9575	0.839
12.9975	0.849
13.0376	0.849
13.0776	0.818
13.1176	0.78
13.1577	0.749
13.1977	0.749
13.2378	0.795
13.2778	0.826
13.3178	0.851
13.3579	0.874
13.3979	0.886
13.4379	0.882
13.478	0.864
13.518	0.844
13.5581	0.821
13.5981	0.801
13.6381	0.782
13.6782	0.729
13.7182	0.684
13.7583	0.651
13.7983	0.641
13.8383	0.641
13.8784	0.65
13.9184	0.66
13.9584	0.666
13.9985	0.669
14.0385	0.665
14.0786	0.651
14.1186	0.633
14.1586	0.605
14.1987	0.58
14.2387	0.547
14.2788	0.516
14.3188	0.495
14.3588	0.448
14.3989	0.455
14.4389	0.448
14.4789	0.438
14.519	0.437
14.559	0.44
14.5991	0.429
14.6391	0.396
14.6791	0.338
14.7192	0.245
14.7592	0.156
14.7993	0.092
14.8393	0.054
14.8793	0.029
14.9194	0.034
14.9594	0.057
14.9994	0.094
15.0395	0.145
15.0795	0.191
15.1196	0.245
15.1596	0.301
15.1996	0.33
15.2397	0.363
15.2797	0.384
15.3198	0.394
15.3598	0.399
15.3998	0.4
15.4399	0.4
15.4799	0.394
15.5199	0.384
15.56	0.382
15.6	0.389
15.6401	0.394
15.6801	0.4
15.7201	0.4
15.7602	0.4
15.8002	0.4
15.8403	0.396
15.8803	0.391
15.9203	0.397
