Infrared Spectrum: 2-Cyanoacetylcarbamic acid, ethyl ester
Formula: C6 H8 N2 O3
CAS: 6629-04-5
State: SOLID (SPLIT MULL), FLUOROLUBE FOR 3800-1330 CM^-^1, NUJOL FOR 1330-400 CM^-^1
Class: COBLENTZ III
Instrument: DOW KBr FOREPRISM-GRATING
Instrument parameters: BLAZED AT 3.5, 12.0, 20.0 MICRON AND CHANGED AT 5.0, 7.5, 14.9 MICRON
Sampling: TRANSMISSION
Resolution: 2
Origin: DOW CHEMICAL COMPANY
1/CM	TRANSMITTANCE
3776	0.6682
3767	0.6682
3758	0.6681
3749	0.6693
3740	0.6707
3731	0.6719
3722	0.6732
3713	0.6744
3704	0.6757
3695	0.6772
3686	0.6798
3677	0.6822
3668	0.6848
3659	0.6871
3650	0.6886
3641	0.6901
3632	0.6915
3623	0.6921
3614	0.6921
3605	0.6921
3596	0.6921
3587	0.6921
3578	0.6921
3569	0.6922
3560	0.6924
3551	0.6928
3542	0.6933
3533	0.6937
3524	0.6946
3515	0.6955
3506	0.6974
3497	0.7006
3488	0.705
3479	0.7092
3470	0.7119
3461	0.7147
3452	0.7175
3443	0.7203
3434	0.723
3425	0.7256
3416	0.7268
3407	0.7278
3398	0.7283
3389	0.7288
3380	0.7287
3371	0.7285
3362	0.7275
3353	0.724
3344	0.713
3335	0.6915
3326	0.6587
3317	0.621
3308	0.5466
3299	0.4805
3290	0.4347
3281	0.3618
3272	0.2698
3263	0.2256
3254	0.2278
3245	0.3241
3236	0.375
3227	0.3762
3218	0.2984
3209	0.2346
3200	0.2244
3191	0.2258
3182	0.258
3173	0.2945
3164	0.3312
3155	0.3677
3146	0.4043
3137	0.4459
3128	0.4782
3119	0.496
3110	0.5109
3101	0.5228
3092	0.531
3083	0.533
3074	0.5285
3065	0.5041
3056	0.4692
3047	0.4341
3038	0.421
3029	0.4193
3020	0.4237
3011	0.4322
3002	0.4438
2993	0.4535
2984	0.4608
2975	0.466
2966	0.4683
2957	0.3614
2948	0.4632
2939	0.5373
2930	0.4322
2921	0.3945
2912	0.5075
2903	0.5202
2894	0.5476
2885	0.5655
2876	0.5688
2867	0.5747
2858	0.588
2849	0.6016
2840	0.6136
2831	0.624
2822	0.6322
2813	0.6398
2804	0.65
2795	0.653
2786	0.6541
2777	0.6547
2768	0.6548
2759	0.655
2750	0.6551
2741	0.6518
2732	0.6426
2723	0.6408
2714	0.6414
2705	0.6461
2696	0.6562
2687	0.6684
2678	0.6774
2669	0.6861
2660	0.6948
2651	0.7025
2642	0.7081
2633	0.7132
2624	0.7174
2615	0.7214
2606	0.7237
2597	0.7258
2588	0.7274
2579	0.7286
2570	0.7289
2561	0.7291
2552	0.7298
2543	0.7312
2534	0.7332
2525	0.7358
2516	0.7384
2507	0.74
2498	0.7411
2489	0.7421
2480	0.7424
2471	0.7426
2462	0.743
2453	0.7436
2444	0.7442
2435	0.7448
2426	0.7458
2417	0.7468
2408	0.7478
2399	0.7489
2390	0.7501
2381	0.7511
2372	0.7518
2363	0.7525
2354	0.7532
2345	0.7546
2336	0.7562
2327	0.7582
2318	0.7524
2309	0.7478
2300	0.748
2291	0.7471
2282	0.7312
2273	0.7199
2264	0.5943
2255	0.7328
2246	0.7436
2237	0.7561
2228	0.7671
2219	0.7717
2210	0.7725
2201	0.7725
2192	0.7757
2183	0.7828
2174	0.7904
2165	0.7994
2156	0.8074
2147	0.8105
2138	0.8118
2129	0.8128
2120	0.8145
2111	0.816
2102	0.8184
2093	0.8218
2084	0.8263
2075	0.8315
2066	0.8374
2057	0.8431
2048	0.8487
2039	0.8539
2030	0.8575
2021	0.8587
2012	0.8578
2003	0.8559
1994	0.8537
1985	0.8539
1976	0.8553
1967	0.8577
1958	0.86
1949	0.8636
1940	0.8668
1931	0.8692
1922	0.871
1913	0.872
1904	0.8667
1895	0.8528
1886	0.8444
1877	0.8409
1868	0.833
1859	0.8149
1850	0.7932
1841	0.7674
1832	0.7322
1823	0.6843
1814	0.639
1805	0.584
1796	0.4337
1787	0.325
1778	0.2987
1769	0.1911
1760	0.0889
1751	0.0733
1742	0.12
1733	0.1948
1724	0.2689
1715	0.3278
1706	0.395
1697	0.4268
1688	0.3774
1679	0.4462
1670	0.4967
1661	0.5334
1652	0.5632
1643	0.583
1634	0.5943
1625	0.601
1616	0.6076
1607	0.6134
1598	0.616
1589	0.6023
1580	0.5306
1571	0.4581
1562	0.2985
1553	0.1704
1544	0.1604
1535	0.1555
1526	0.1191
1517	0.1377
1508	0.2045
1499	0.2756
1490	0.3119
1481	0.3198
1472	0.383
1463	0.3918
1454	0.457
1445	0.4548
1436	0.5343
1427	0.5624
1418	0.5784
1409	0.5888
1400	0.59
1391	0.2293
1382	0.4118
1373	0.4995
1364	0.5607
1355	0.6069
1346	0.6176
1337	0.3138
1328	0.5236
1319	0.5852
1310	0.5169
1301	0.3329
1292	0.5212
1283	0.487
1274	0.4165
1265	0.2345
1256	0.1309
1247	0.1114
1238	0.0947
1229	0.1811
1220	0.3949
1211	0.2534
1202	0.1489
1193	0.1167
1184	0.1096
1175	0.2208
1166	0.313
1157	0.4442
1148	0.5418
1139	0.6371
1130	0.6985
1121	0.7092
1112	0.7443
1103	0.7454
1094	0.3432
1085	0.5905
1076	0.7144
1067	0.7298
1058	0.6238
1049	0.4158
1040	0.1654
1031	0.1842
1022	0.4431
1013	0.5349
1004	0.529
995	0.5146
986	0.6675
977	0.596
968	0.7117
959	0.745
950	0.7553
941	0.5024
932	0.4315
923	0.6761
914	0.755
905	0.7918
896	0.8076
887	0.8128
878	0.8363
869	0.8321
860	0.6637
851	0.6808
842	0.8178
833	0.8433
824	0.8521
815	0.8206
806	0.8551
797	0.8494
788	0.7551
779	0.3584
770	0.7096
761	0.7615
752	0.6599
743	0.7408
734	0.6806
725	0.5624
716	0.4807
707	0.4305
698	0.4916
689	0.6554
680	0.6774
671	0.7075
662	0.791
653	0.8271
644	0.846
635	0.8595
626	0.8684
617	0.8767
608	0.8854
599	0.893
590	0.8974
581	0.9001
572	0.901
563	0.8307
554	0.849
545	0.8882
536	0.8964
527	0.9012
518	0.9045
509	0.9068
500	0.9075
491	0.9065
482	0.9034
473	0.8889
464	0.7439
455	0.7887
446	0.8192
437	0.7738
428	0.5093
419	0.6248
410	0.6561
401	0.6654
392	0.6718
