Infrared Spectrum: 2-PHENYLBENZOXAZONE-4
Formula: C14 H11 O2 N
CAS: 6629-80-7
State: SOLUTION (7% CHCl3)
Class: COBLENTZ
Instrument: Not specified, most likely a prism, grating, or hybrid spectrometer.
Sampling: TRANSMISSION
Path length: 0.009 CM
Resolution: 4
MICROMETERS	TRANSMITTANCE
2.055	0.973
2.09081	0.973
2.12662	0.971
2.16243	0.966
2.19824	0.961
2.23405	0.966
2.26986	0.968
2.30567	0.964
2.34148	0.963
2.37729	0.968
2.4131	0.961
2.44891	0.952
2.48472	0.952
2.52053	0.954
2.55634	0.955
2.59215	0.952
2.62796	0.952
2.66377	0.954
2.69958	0.961
2.73539	0.952
2.7712	0.968
2.80701	0.948
2.84282	0.922
2.87863	0.901
2.91444	0.785
2.95025	0.728
2.98606	0.823
3.02187	0.836
3.05768	0.806
3.09349	0.776
3.1293	0.75
3.16511	0.776
3.20092	0.811
3.23673	0.786
3.27254	0.767
3.30835	0.748
3.34416	0.737
3.37997	0.845
3.41578	0.859
3.45159	0.85
3.4874	0.829
3.52321	0.846
3.55902	0.88
3.59483	0.899
3.63064	0.904
3.66645	0.919
3.70226	0.919
3.73807	0.924
3.77388	0.927
3.80969	0.927
3.8455	0.929
3.88131	0.927
3.91712	0.927
3.95293	0.926
3.98874	0.927
4.02455	0.927
4.06036	0.917
4.09617	0.911
4.13198	0.915
4.16779	0.929
4.2036	0.943
4.23941	0.945
4.27522	0.952
4.31103	0.947
4.34684	0.926
4.38265	0.924
4.41846	0.933
4.45427	0.929
4.49008	0.931
4.52589	0.929
4.5617	0.929
4.59751	0.931
4.63332	0.931
4.66913	0.929
4.70494	0.929
4.74075	0.927
4.77656	0.927
4.81237	0.926
4.84818	0.924
4.88399	0.924
4.9198	0.924
4.95561	0.927
4.99142	0.926
5.02723	0.922
5.06304	0.913
5.09885	0.899
5.13466	0.899
5.17047	0.901
5.20628	0.899
5.24209	0.91
5.2779	0.901
5.31371	0.901
5.34952	0.908
5.38533	0.908
5.42114	0.91
5.45695	0.901
5.49276	0.896
5.52857	0.878
5.56438	0.899
5.60019	0.911
5.636	0.906
5.67181	0.899
5.70762	0.897
5.74343	0.873
5.77924	0.853
5.81505	0.795
5.85086	0.54
5.88667	0.272
5.92248	0.029
5.95829	0.022
5.9941	0.054
6.02991	0.401
6.06572	0.568
6.10153	0.698
6.13734	0.665
6.17315	0.468
6.20896	0.26
6.24477	0.602
6.28058	0.774
6.31639	0.646
6.3522	0.76
6.38801	0.836
6.42382	0.857
6.45963	0.869
6.49544	0.894
6.53125	0.892
6.56706	0.896
6.60287	0.887
6.63868	0.857
6.67449	0.809
6.7103	0.728
6.74611	0.552
6.78192	0.327
6.81773	0.093
6.85354	0.147
6.88935	0.33
6.92516	0.529
6.96097	0.44
6.99678	0.195
7.03259	0.309
7.0684	0.544
7.10421	0.658
7.14002	0.7
7.17583	0.693
7.21164	0.635
7.24745	0.549
7.28326	0.477
7.31907	0.411
7.35488	0.552
7.39069	0.656
7.4265	0.644
7.46231	0.528
7.49812	0.345
7.53393	0.146
7.56974	0.301
7.60555	0.545
7.64136	0.57
7.67718	0.538
7.71299	0.63
7.7488	0.72
7.78461	0.75
7.82042	0.776
7.85623	0.811
7.89204	0.83
7.92785	0.829
7.96366	0.795
7.99947	0.734
8.03528	0.698
8.07109	0.713
8.1069	0.677
8.14271	0.625
8.17852	0.577
8.21433	0.584
8.25014	0.602
8.28595	0.612
8.32176	0.647
8.35757	0.811
8.39338	0.855
8.42919	0.857
8.465	0.864
8.50081	0.845
8.53662	0.853
8.57243	0.873
8.60824	0.86
8.64405	0.846
8.67986	0.804
8.71567	0.751
8.75148	0.656
8.78729	0.554
8.8231	0.66
8.85891	0.767
8.89472	0.829
8.93053	0.827
8.96634	0.794
9.00215	0.771
9.03796	0.73
9.07377	0.713
9.10958	0.7
9.14539	0.676
9.1812	0.676
9.21701	0.683
9.25282	0.711
9.28863	0.697
9.32444	0.667
9.36025	0.66
9.39606	0.723
9.43187	0.792
9.46768	0.841
9.50349	0.869
9.5393	0.876
9.57511	0.88
9.61092	0.88
9.64673	0.855
9.68254	0.79
9.71835	0.633
9.75416	0.579
9.78997	0.73
9.82578	0.822
9.86159	0.838
9.8974	0.818
9.93321	0.762
9.96902	0.681
10.0048	0.674
10.0406	0.665
10.0764	0.617
10.1123	0.593
10.1481	0.586
10.1839	0.605
10.2197	0.66
10.2555	0.709
10.2913	0.75
10.3271	0.792
10.3629	0.822
10.3987	0.839
10.4345	0.841
10.4704	0.823
10.5062	0.82
10.542	0.852
10.5778	0.869
10.6136	0.878
10.6494	0.882
10.6852	0.883
10.721	0.889
10.7568	0.871
10.7926	0.834
10.8285	0.776
10.8643	0.765
10.9001	0.802
10.9359	0.827
10.9717	0.852
11.0075	0.855
11.0433	0.853
11.0791	0.846
11.1149	0.836
11.1507	0.801
11.1866	0.683
11.2224	0.582
11.2582	0.551
11.294	0.63
11.3298	0.728
11.3656	0.783
11.4014	0.815
11.4372	0.846
11.473	0.85
11.5088	0.843
11.5447	0.829
11.5805	0.815
11.6163	0.825
11.6521	0.853
11.6879	0.866
11.7237	0.871
11.7595	0.871
11.7953	0.848
11.8311	0.815
11.8669	0.765
11.9028	0.767
11.9386	0.809
11.9744	0.852
12.0102	0.88
12.046	0.889
12.0818	0.88
12.1176	0.864
12.1534	0.859
12.1892	0.871
12.225	0.885
12.2609	0.894
12.2967	0.906
12.3325	0.906
12.3683	0.908
12.4041	0.919
12.4399	0.933
12.4757	0.938
12.5115	0.941
12.5473	0.947
12.5831	0.963
12.619	0.973
12.6548	0.973
12.6906	0.975
12.7264	0.982
12.7622	0.987
12.798	0.991
12.8338	0.994
12.8696	0.996
12.9054	0.998
12.9412	1
12.9771	1.005
13.0129	1.007
13.0487	1.001
13.0845	0.998
13.1203	1.003
13.1561	1.005
13.1919	1.003
13.2277	1.003
13.2635	0.996
13.2994	0.996
13.3352	1
13.371	1.005
13.4068	1.005
13.4426	1.005
13.4784	1.001
13.5142	1.001
13.55	1
13.5858	1
13.6216	1
13.6575	1.001
13.6933	1.001
13.7291	1
13.7649	0.996
13.8007	0.992
13.8365	0.977
13.8723	0.954
13.9081	0.917
13.9439	0.894
13.9797	0.852
14.0156	0.818
14.0514	0.794
14.0872	0.776
14.123	0.757
14.1588	0.695
14.1946	0.639
14.2304	0.547
14.2662	0.385
14.302	0.316
14.3378	0.304
14.3737	0.362
14.4095	0.411
14.4453	0.426
14.4811	0.477
14.5169	0.586
14.5527	0.665
14.5885	0.721
14.6243	0.786
14.6601	0.823
14.6959	0.845
14.7318	0.857
14.7676	0.878
14.8034	0.892
14.8392	0.904
14.875	0.908
14.9108	0.908
14.9466	0.906
14.9824	0.903
15.0182	0.89
15.054	0.843
15.0899	0.82
15.1257	0.818
15.1615	0.83
15.1973	0.848
15.2331	0.848
15.2689	0.834
15.3047	0.797
15.3405	0.771
15.3763	0.771
15.4121	0.822
15.448	0.88
