Infrared Spectrum: PHOSPHONOTHIOIC ACID, METHYL-, o,o-DIISOPROPYL ESTER
Formula: C7 H17 O2 P S
CAS: 66295-45-2
State: LIQUID
Class: COBLENTZ
Instrument: Not specified, most likely a prism, grating, or hybrid spectrometer.
Sampling: TRANSMISSION
Path length: LIQUID FILM BETWEEN KBr PLATES
Resolution: 4
Origin: G. A. M. S.
1/CM	TRANSMITTANCE
614.504	0.781
623.664	0.792
632.825	0.813
641.985	0.841
651.145	0.869
660.306	0.887
669.466	0.9
678.626	0.907
687.787	0.907
696.947	0.903
706.107	0.886
715.267	0.855
724.428	0.775
733.588	0.5091
742.748	0.301
751.909	0.578
761.069	0.746
770.229	0.744
779.39	0.37
788.55	0.246
797.71	0.707
806.871	0.895
816.031	0.94
825.191	0.943
834.352	0.935
843.512	0.924
852.672	0.906
861.833	0.867
870.993	0.749
880.153	0.676
889.313	0.601
898.474	0.2071
907.634	0.09
916.794	0.3319
925.955	0.576
935.115	0.641
944.275	0.601
953.436	0.392
962.596	0.155
971.756	0.024
980.917	0.03
990.077	0.035
999.237	0.033
1008.4	0.083
1017.56	0.29
1026.72	0.515
1035.88	0.633
1045.04	0.735
1054.2	0.778
1063.36	0.796
1072.52	0.79
1081.68	0.75
1090.84	0.615
1100	0.323
1109.16	0.31
1118.32	0.572
1127.48	0.606
1136.64	0.48
1145.8	0.661
1154.96	0.69
1164.12	0.65
1173.28	0.446
1182.44	0.669
1191.6	0.84
1200.76	0.87
1209.92	0.87
1219.08	0.869
1228.25	0.858
1237.41	0.829
1246.57	0.84
1255.73	0.88
1264.89	0.893
1274.05	0.89
1283.21	0.852
1292.37	0.6811
1301.53	0.62
1310.69	0.852
1319.85	0.856
1329.01	0.833
1338.17	0.81
1347.33	0.783
1356.49	0.763
1365.65	0.55
1374.81	0.367
1383.97	0.344
1393.13	0.7
1402.29	0.773
1411.45	0.696
1420.61	0.81
1429.77	0.835
1438.93	0.801
1448.09	0.733
1457.25	0.69
1466.41	0.669
1475.57	0.8
1484.73	0.883
1493.89	0.91
1503.05	0.92
1512.21	0.924
1521.38	0.926
1530.54	0.927
1539.7	0.935
1548.86	0.936
1558.02	0.935
1567.18	0.932
1576.34	0.929
1585.5	0.927
1594.66	0.927
1603.82	0.924
1612.98	0.924
1622.14	0.923
1631.3	0.921
1640.46	0.92
1649.62	0.918
1658.78	0.916
1667.94	0.916
1677.1	0.915
1686.26	0.909
1695.42	0.895
1704.58	0.883
1713.74	0.876
1722.9	0.873
1732.06	0.88
1741.22	0.892
1750.38	0.91
1759.54	0.929
1768.7	0.941
1777.86	0.947
1787.02	0.95
1796.18	0.952
1805.35	0.95
1814.51	0.949
1823.67	0.946
1832.83	0.944
1841.99	0.944
1851.15	0.944
1860.31	0.944
1869.47	0.943
1878.63	0.944
1887.79	0.947
1896.95	0.95
1906.11	0.953
1915.27	0.958
1924.43	0.961
1933.59	0.963
1942.75	0.963
1951.91	0.961
1961.07	0.96
1970.23	0.96
1979.39	0.96
1988.55	0.955
1997.71	0.949
2006.87	0.9437
2016.03	0.941
2025.19	0.9395
2034.35	0.9375
2043.51	0.9345
2052.67	0.932
2061.83	0.93
2070.99	0.929
2080.15	0.927
2089.31	0.927
2098.48	0.926
2107.64	0.926
2116.8	0.926
2125.96	0.926
2135.12	0.9254
2144.28	0.924
2153.44	0.924
2162.6	0.923
2171.76	0.9223
2180.92	0.921
2190.08	0.92
2199.24	0.9173
2208.4	0.9157
2217.56	0.913
2226.72	0.9113
2235.88	0.9096
2245.04	0.9083
2254.2	0.906
2263.36	0.9036
2272.52	0.901
2281.68	0.8992
2290.84	0.896
2300	0.8956
2309.16	0.895
2318.32	0.895
2327.48	0.8942
2336.64	0.893
2345.8	0.893
2354.96	0.893
2364.12	0.893
2373.28	0.8926
2382.44	0.892
2391.61	0.892
2400.77	0.8911
2409.93	0.8896
2419.09	0.889
2428.25	0.887
2437.41	0.886
2446.57	0.884
2455.73	0.883
2464.89	0.8805
2474.05	0.879
2483.21	0.876
2492.37	0.875
2501.53	0.8725
2510.69	0.87
2519.85	0.868
2529.01	0.866
2538.17	0.866
2547.33	0.866
2556.49	0.866
2565.65	0.866
2574.81	0.866
2583.97	0.866
2593.13	0.8649
2602.29	0.864
2611.45	0.864
2620.61	0.863
2629.77	0.863
2638.93	0.861
2648.09	0.86
2657.25	0.858
2666.41	0.856
2675.58	0.8538
2684.74	0.8524
2693.9	0.85
2703.06	0.8478
2712.22	0.8448
2721.38	0.843
2730.54	0.841
2739.7	0.8388
2748.86	0.836
2758.02	0.835
2767.18	0.8324
2776.34	0.8294
2785.5	0.8264
2794.66	0.8234
2803.82	0.8204
2812.98	0.8154
2822.14	0.8107
2831.3	0.802
2840.46	0.786
2849.62	0.7684
2858.78	0.7415
2867.94	0.7156
2877.1	0.6999
2886.26	0.6869
2895.42	0.6718
2904.58	0.6534
2913.74	0.6186
2922.9	0.558
2932.06	0.55
2941.22	0.5667
2950.38	0.5889
2959.54	0.5788
2968.71	0.5091
2977.87	0.3848
2987.03	0.317
2996.19	0.3453
3005.35	0.46
3014.51	0.6169
3023.67	0.7362
3032.83	0.7848
3041.99	0.7998
3051.15	0.8083
3060.31	0.8145
3069.47	0.8196
3078.63	0.821
3087.79	0.821
3096.95	0.821
3106.11	0.821
3115.27	0.8202
3124.43	0.82
3133.59	0.8184
3142.75	0.818
3151.91	0.816
3161.07	0.815
3170.23	0.8133
3179.39	0.8122
3188.55	0.8103
3197.71	0.81
3206.87	0.8098
3216.03	0.81
3225.19	0.81
3234.35	0.81
3243.51	0.81
3252.67	0.81
3261.84	0.81
3271	0.81
3280.16	0.81
3289.32	0.81
3298.48	0.81
3307.64	0.809
3316.8	0.809
3325.96	0.809
3335.12	0.809
3344.28	0.807
3353.44	0.807
3362.6	0.8061
3371.76	0.806
3380.92	0.806
3390.08	0.806
3399.24	0.806
3408.4	0.806
3417.56	0.806
3426.72	0.8059
3435.88	0.806
3445.04	0.804
3454.2	0.806
3463.36	0.806
3472.52	0.806
3481.68	0.807
3490.84	0.809
3500	0.809
3509.16	0.809
3518.32	0.81
3527.48	0.81
3536.64	0.81
3545.81	0.812
3554.97	0.812
3564.13	0.812
3573.29	0.812
3582.45	0.812
3591.61	0.812
3600.77	0.813
3609.93	0.812
3619.09	0.812
3628.25	0.812
3637.41	0.812
3646.57	0.8119
3655.73	0.81
3664.89	0.81
3674.05	0.81
3683.21	0.81
3692.37	0.81
3701.53	0.81
3710.69	0.81
3719.85	0.81
3729.01	0.81
3738.17	0.809
3747.33	0.809
3756.49	0.809
3765.65	0.809
3774.81	0.809
3783.97	0.809
3793.13	0.807
3802.29	0.807
3811.45	0.807
3820.61	0.8062
3829.77	0.806
3838.94	0.806
3848.1	0.806
3857.26	0.806
3866.42	0.8056
3875.58	0.804
3884.74	0.804
3893.9	0.804
3903.06	0.803
3912.22	0.803
3921.38	0.803
3930.54	0.803
3939.7	0.803
3948.86	0.804
3958.02	0.804
3967.18	0.804
3976.34	0.804
