Infrared Spectrum: Ethyl pentafluoropropionylacetate
Formula: C 7 H 7 F 5 O 3
CAS: 663-35-4
State: gas
Origin: EPA-IR VAPOR PHASE LIBRARY
1/CM	ABSORBANCE
549.8	0.004919
559.445	0.004419
569.09	0.003709
578.734	0.004239
588.379	0.005729
598.024	0.006289
607.669	0.008069
617.313	0.008729
626.958	0.007549
636.603	0.007369
646.248	0.008149
655.893	0.009729
665.537	0.010099
675.182	0.007129
684.827	0.005809
694.472	0.005069
704.116	0.007139
713.761	0.008119
723.406	0.007919
733.051	0.007959
742.695	0.011829
752.34	0.015769
761.985	0.007449
771.63	0.004419
781.275	0.004199
790.919	0.005959
800.564	0.006479
810.209	0.008119
819.854	0.011429
829.498	0.009289
839.143	0.009459
848.788	0.009589
858.433	0.006489
868.078	0.006599
877.722	0.008829
887.367	0.012729
897.012	0.008849
906.657	0.008979
916.301	0.009649
925.946	0.008769
935.591	0.009359
945.236	0.010489
954.88	0.013529
964.525	0.019109
974.17	0.028589
983.815	0.036789
993.46	0.033549
1003.1	0.032209
1012.75	0.040089
1022.39	0.031429
1032.04	0.027739
1041.68	0.024959
1051.33	0.020849
1060.97	0.018749
1070.62	0.020809
1080.26	0.024999
1089.91	0.030249
1099.55	0.036859
1109.2	0.050049
1118.84	0.047429
1128.49	0.040329
1138.13	0.044379
1147.78	0.053849
1157.42	0.062689
1167.07	0.072729
1176.71	0.075159
1186.36	0.077149
1196	0.107929
1205.64	0.176619
1215.29	0.259689
1224.93	0.259659
1234.58	0.184239
1244.22	0.141039
1253.87	0.110579
1263.51	0.071689
1273.16	0.047739
1282.8	0.037129
1292.45	0.034949
1302.09	0.039729
1311.74	0.051329
1321.38	0.063789
1331.03	0.059379
1340.67	0.040689
1350.32	0.029689
1359.96	0.024099
1369.61	0.024609
1379.25	0.023519
1388.9	0.023809
1398.54	0.023019
1408.18	0.019299
1417.83	0.018889
1427.47	0.015269
1437.12	0.010609
1446.76	0.009409
1456.41	0.009019
1466.05	0.009629
1475.7	0.010289
1485.34	0.007279
1494.99	0.005319
1504.63	0.004829
1514.28	0.004299
1523.92	0.003709
1533.57	0.003779
1543.21	0.003669
1552.86	0.003599
1562.5	0.003229
1572.15	0.003669
1581.79	0.003829
1591.44	0.004089
1601.08	0.004159
1610.73	0.005249
1620.37	0.007199
1630.01	0.011619
1639.66	0.018789
1649.3	0.026379
1658.95	0.026019
1668.59	0.026619
1678.24	0.035149
1687.88	0.035189
1697.53	0.028499
1707.17	0.030369
1716.82	0.030779
1726.46	0.023199
1736.11	0.021279
1745.75	0.033659
1755.4	0.055409
1765.04	0.059119
1774.69	0.050189
1784.33	0.031209
1793.98	0.015419
1803.62	0.008589
1813.27	0.005929
1822.91	0.004509
1832.55	0.003689
1842.2	0.002949
1851.84	0.002669
1861.49	0.002409
1871.13	0.002359
1880.78	0.002109
1890.42	0.002229
1900.07	0.002139
1909.71	0.002079
1919.36	0.001889
1929	0.001999
1938.65	0.001999
1948.29	0.001929
1957.94	0.001989
1967.58	0.001979
1977.23	0.001849
1986.87	0.001909
1996.52	0.001719
2006.16	0.001729
2015.81	0.001569
2025.45	0.001629
2035.1	0.001729
2044.74	0.001889
2054.38	0.001859
2064.03	0.001819
2073.67	0.001889
2083.32	0.002419
2092.96	0.002849
2102.61	0.003039
2112.25	0.003369
2121.9	0.005169
2131.54	0.010969
2141.19	0.029819
2150.83	0.068119
2160.48	0.075179
2170.12	0.027959
2179.77	0.007489
2189.41	0.004519
2199.06	0.003399
2208.7	0.002919
2218.35	0.002529
2227.99	0.002609
2237.64	0.001989
2247.28	0.002119
2256.92	0.001839
2266.57	0.001889
2276.21	0.001959
2285.86	0.001679
2295.5	0.001809
2305.15	0.002039
2314.79	0.002399
2324.44	0.002409
2334.08	0.002509
2343.73	0.002519
2353.37	0.002339
2363.02	0.002779
2372.66	0.002629
2382.31	0.002589
2391.95	0.001829
2401.6	0.002049
2411.24	0.001979
2420.89	0.002099
2430.53	0.002279
2440.18	0.002129
2449.82	0.002289
2459.47	0.002339
2469.11	0.002119
2478.75	0.002349
2488.4	0.002139
2498.04	0.002179
2507.69	0.001889
2517.33	0.002119
2526.98	0.001909
2536.62	0.001939
2546.27	0.002129
2555.91	0.001999
2565.56	0.001829
2575.2	0.002099
2584.85	0.001829
2594.49	0.002049
2604.14	0.001889
2613.78	0.001929
2623.43	0.001979
2633.07	0.001779
2642.72	0.001899
2652.36	0.001799
2662.01	0.001789
2671.65	0.001999
2681.29	0.001649
2690.94	0.002159
2700.58	0.001969
2710.23	0.002129
2719.87	0.002229
2729.52	0.002329
2739.16	0.002499
2748.81	0.002519
2758.45	0.002239
2768.1	0.002589
2777.74	0.002669
2787.39	0.002769
2797.03	0.002859
2806.68	0.002879
2816.32	0.003029
2825.97	0.003519
2835.61	0.003729
2845.26	0.003999
2854.9	0.004449
2864.55	0.005149
2874.19	0.005749
2883.84	0.006329
2893.48	0.007339
2903.12	0.007399
2912.77	0.008079
2922.41	0.008689
2932.06	0.008969
2941.7	0.011689
2951.35	0.011829
2960.99	0.011189
2970.64	0.012419
2980.28	0.016489
2989.93	0.020479
2999.57	0.015329
3009.22	0.011589
3018.86	0.008249
3028.51	0.006319
3038.15	0.004889
3047.8	0.004259
3057.44	0.004599
3067.09	0.004079
3076.73	0.004119
3086.38	0.004199
3096.02	0.004149
3105.67	0.004769
3115.31	0.005079
3124.95	0.004099
3134.6	0.004119
3144.24	0.004039
3153.89	0.003399
3163.53	0.003279
3173.18	0.003529
3182.82	0.003169
3192.47	0.002739
3202.11	0.003059
3211.76	0.003609
3221.4	0.003189
3231.05	0.003589
3240.69	0.002509
3250.34	0.002959
3259.98	0.002509
3269.63	0.002789
3279.27	0.003119
3288.92	0.002459
3298.56	0.002699
3308.21	0.002499
3317.85	0.002649
3327.49	0.002439
3337.14	0.002699
3346.78	0.002719
3356.43	0.002419
3366.07	0.002449
3375.72	0.002319
3385.36	0.001979
3395.01	0.002159
3404.65	0.002049
3414.3	0.002019
3423.94	0.001729
3433.59	0.001599
3443.23	0.001749
3452.88	0.0009661
3462.52	0.001929
3472.17	0.0011292
3481.81	0.0014861
3491.46	0.001909
3501.1	0.001709
3510.75	0.002079
3520.39	0.001689
3530.04	0.001719
3539.68	0.0014424
3549.32	0.0013912
3558.97	0.0015265
3568.61	0.0011297
3578.26	0.0010143
3587.9	0.0007878
3597.55	0.0009151
3607.19	0.0008553
3616.84	0.0012526
3626.48	0.0010703
3636.13	0.0012184
3645.77	0.0010898
3655.42	0.001829
3665.06	0.001539
3674.71	0.0013758
3684.35	0.0012448
3694	0.0007934
3703.64	0.0008699
3713.29	0.00061058
3722.93	0.0006909
3732.58	0.0004441
3742.22	0.00056556
3751.86	0.0014387
3761.51	0.0007124
3771.15	0.0010919
3780.8	0.0007105
3790.44	0.0008181
3800.09	0.0005084
3809.73	0.000436
3819.38	0.00059151
3829.02	0.001124
3838.67	0.0007826
3848.31	0.000972
3857.96	0.0011482
3867.6	0.0008906
3877.25	0.0008741
3886.89	0.0008324
3896.54	0.0009139
3906.18	0.0008282
3915.83	0.0008181
3925.47	0.0007722
3935.12	0.0011519
3944.76	0.0010557
3954.41	0.000338
3964.05	0.0011109
3973.69	0.0008854
3983.34	0.000744
3992.98	0.0007617
