Infrared Spectrum: BENZIL, PHENYLHYDRAZONE
Formula: C20 H16 N2 O
CAS: 6630-86-0
State: SOLID (1.0% IN KBr PELLET)
Class: COBLENTZ
Instrument: Not specified, most likely a prism, grating, or hybrid spectrometer.
Sampling: TRANSMISSION
Path length: 0.0355 CM
Resolution: 4
Origin: ANDERSON PHYSICAL LABORATORY
1/CM	TRANSMITTANCE
665.215	0.387
673.616	0.383
682.016	0.3211
690.417	0.13
698.818	0.1939
707.219	0.5789
715.619	0.568
724.02	0.392
732.421	0.297
740.822	0.312
749.222	0.175
757.623	0.191
766.024	0.476
774.425	0.6269
782.825	0.818
791.226	0.782
799.627	0.715
808.028	0.721
816.428	0.693
824.829	0.639
833.23	0.517
841.631	0.5405
850.031	0.633
858.432	0.679
866.833	0.643
875.234	0.567
883.634	0.465
892.035	0.255
900.436	0.408
908.837	0.649
917.237	0.597
925.638	0.546
934.039	0.5729
942.44	0.67
950.84	0.631
959.241	0.597
967.642	0.562
976.043	0.556
984.443	0.528
992.844	0.505
1001.24	0.467
1009.65	0.455
1018.05	0.402
1026.45	0.3301
1034.85	0.4319
1043.25	0.461
1051.65	0.407
1060.05	0.354
1068.45	0.257
1076.85	0.199
1085.25	0.287
1093.65	0.199
1102.05	0.3318
1110.45	0.547
1118.86	0.55
1127.26	0.5
1135.66	0.44
1144.06	0.368
1152.46	0.321
1160.86	0.275
1169.26	0.245
1177.66	0.2989
1186.06	0.375
1194.46	0.396
1202.86	0.377
1211.26	0.3061
1219.66	0.247
1228.06	0.101
1236.47	0.103
1244.87	0.079
1253.27	0.062
1261.67	0.07
1270.07	0.1609
1278.47	0.3389
1286.87	0.419
1295.27	0.2481
1303.67	0.25
1312.07	0.273
1320.47	0.384
1328.87	0.351
1337.27	0.251
1345.68	0.124
1354.08	0.1639
1362.48	0.4428
1370.88	0.678
1379.28	0.712
1387.68	0.703
1396.08	0.672
1404.48	0.646
1412.88	0.636
1421.28	0.604
1429.68	0.552
1438.08	0.498
1446.48	0.3481
1454.89	0.2879
1463.29	0.485
1471.69	0.411
1480.09	0.29
1488.49	0.169
1496.89	0.187
1505.29	0.181
1513.69	0.2079
1522.09	0.255
1530.49	0.205
1538.89	0.127
1547.29	0.121
1555.69	0.14
1564.09	0.226
1572.5	0.299
1580.9	0.404
1589.3	0.425
1597.7	0.2942
1606.1	0.142
1614.5	0.3088
1622.9	0.514
1631.3	0.3961
1639.7	0.1911
1648.1	0.212
1656.5	0.441
1664.9	0.723
1673.3	0.806
1681.71	0.832
1690.11	0.826
1698.51	0.8
1706.91	0.787
1715.31	0.775
1723.71	0.75
1732.11	0.75
1740.51	0.748
1748.91	0.742
1757.31	0.732
1765.71	0.715
1774.11	0.702
1782.51	0.696
1790.91	0.684
1799.32	0.681
1807.72	0.673
1816.12	0.673
1824.52	0.673
1832.92	0.673
1841.32	0.658
1849.72	0.645
1858.12	0.637
1866.52	0.636
1874.92	0.633
1883.32	0.625
1891.72	0.622
1900.12	0.622
1908.53	0.621
1916.93	0.616
1925.33	0.615
1933.73	0.603
1942.13	0.586
1950.53	0.583
1958.93	0.579
1967.33	0.58
1975.73	0.597
1984.13	0.595
1992.53	0.591
2000.93	0.5875
2009.33	0.596
2017.73	0.5933
2026.14	0.5705
2034.54	0.5672
2042.94	0.5724
2051.34	0.577
2059.74	0.5449
2068.14	0.541
2076.54	0.5419
2084.94	0.5482
2093.34	0.5471
2101.74	0.544
2110.14	0.5542
2118.54	0.565
2126.94	0.5621
2135.35	0.5481
2143.75	0.5376
2152.15	0.5217
2160.55	0.517
2168.95	0.522
2177.35	0.5199
2185.75	0.5062
2194.15	0.501
2202.55	0.501
2210.95	0.5028
2219.35	0.5047
2227.75	0.505
2236.15	0.5072
2244.56	0.511
2252.96	0.5137
2261.36	0.516
2269.76	0.5175
2278.16	0.52
2286.56	0.5144
2294.96	0.5083
2303.36	0.5083
2311.76	0.519
2320.16	0.5177
2328.56	0.5086
2336.96	0.4963
2345.36	0.4902
2353.76	0.4798
2362.17	0.4566
2370.57	0.4469
2378.97	0.446
2387.37	0.447
2395.77	0.4461
2404.17	0.4364
2412.57	0.4243
2420.97	0.422
2429.37	0.423
2437.77	0.4311
2446.17	0.4327
2454.57	0.434
2462.97	0.4312
2471.38	0.426
2479.78	0.429
2488.18	0.4368
2496.58	0.4435
2504.98	0.4553
2513.38	0.4656
2521.78	0.4676
2530.18	0.468
2538.58	0.4649
2546.98	0.4602
2555.38	0.4451
2563.78	0.438
2572.18	0.4412
2580.58	0.4532
2588.99	0.4555
2597.39	0.4522
2605.79	0.4436
2614.19	0.4214
2622.59	0.4054
2630.99	0.4048
2639.39	0.4222
2647.79	0.431
2656.19	0.429
2664.59	0.4265
2672.99	0.42
2681.39	0.4147
2689.79	0.403
2698.2	0.3995
2706.6	0.398
2715	0.3957
2723.4	0.394
2731.8	0.392
2740.2	0.389
2748.6	0.3885
2757	0.385
2765.4	0.3818
2773.8	0.38
2782.2	0.3765
2790.6	0.373
2799	0.371
2807.4	0.368
2815.81	0.3654
2824.21	0.362
2832.61	0.3593
2841.01	0.3571
2849.41	0.356
2857.81	0.354
2866.21	0.353
2874.61	0.351
2883.01	0.351
2891.41	0.351
2899.81	0.35
2908.21	0.3442
2916.61	0.3406
2925.02	0.3386
2933.42	0.338
2941.82	0.336
2950.22	0.3346
2958.62	0.3253
2967.02	0.3203
2975.42	0.3152
2983.82	0.3102
2992.22	0.3001
3000.62	0.2804
3009.02	0.2751
3017.42	0.275
3025.82	0.2768
3034.23	0.2767
3042.63	0.2732
3051.03	0.272
3059.43	0.2762
3067.83	0.2847
3076.23	0.304
3084.63	0.3127
3093.03	0.3215
3101.43	0.327
3109.83	0.329
3118.23	0.3288
3126.63	0.327
3135.03	0.3234
3143.43	0.3183
3151.84	0.3149
3160.24	0.3133
3168.64	0.3098
3177.04	0.3063
3185.44	0.303
3193.84	0.301
3202.24	0.297
3210.64	0.293
3219.04	0.2848
3227.44	0.2767
3235.84	0.2678
3244.24	0.259
3252.64	0.2443
3261.05	0.2321
3269.45	0.229
3277.85	0.2349
3286.25	0.2452
3294.65	0.2543
3303.05	0.2606
3311.45	0.2681
3319.85	0.2885
3328.25	0.3059
3336.65	0.3069
3345.05	0.3026
3353.45	0.296
3361.85	0.2924
3370.25	0.2905
3378.66	0.2857
3387.06	0.284
3395.46	0.2817
3403.86	0.2774
3412.26	0.2735
3420.66	0.2719
3429.06	0.2685
3437.46	0.267
3445.86	0.267
3454.26	0.27
3462.66	0.272
3471.06	0.272
3479.46	0.272
3487.87	0.272
3496.27	0.272
3504.67	0.272
3513.07	0.272
3521.47	0.272
3529.87	0.27
3538.27	0.269
3546.67	0.269
3555.07	0.269
3563.47	0.27
3571.87	0.27
3580.27	0.272
3588.67	0.272
3597.07	0.273
3605.48	0.2769
3613.88	0.278
3622.28	0.278
3630.68	0.278
3639.08	0.276
3647.48	0.276
3655.88	0.276
3664.28	0.278
3672.68	0.278
3681.08	0.2766
3689.48	0.276
3697.88	0.278
3706.28	0.2756
3714.69	0.2737
3723.09	0.272
3731.49	0.272
3739.89	0.2724
3748.29	0.273
3756.69	0.273
3765.09	0.275
3773.49	0.2754
3781.89	0.276
3790.29	0.275
3798.69	0.275
3807.09	0.2754
3815.49	0.2799
3823.9	0.2838
3832.3	0.2806
3840.7	0.2652
3849.1	0.2588
3857.5	0.2597
3865.9	0.2661
3874.3	0.2694
3882.7	0.2694
3891.1	0.258
3899.5	0.25
3907.9	0.2531
3916.3	0.258
3924.7	0.26
3933.1	0.258
3941.51	0.258
3949.91	0.257
3958.31	0.2525
3966.71	0.25
3975.11	0.25
3983.51	0.251
3991.91	0.251
