Infrared Spectrum: 1,2-Ethanediol, 1,2-bis(6-methylpyridyl)-
Formula: C14 H16 N2 O2
CAS: 6630-20-2
State: SOLID (SPLIT MULL), FLUOROLUBE FOR 3800-1330 CM^-^1, NUJOL FOR 1330-450 CM^-^1
Class: COBLENTZ III
Instrument: DOW KBr FOREPRISM-GRATING
Instrument parameters: BLAZED AT 3.5, 12.0, 20.0 MICRON AND CHANGED AT 5.0, 7.5, 14.9 MICRON
Sampling: TRANSMISSION
Resolution: 2
Origin: DOW CHEMICAL COMPANY
1/CM	TRANSMITTANCE
3798	0.721
3789	0.7218
3780	0.723
3771	0.7242
3762	0.7268
3753	0.7321
3744	0.7321
3735	0.7321
3726	0.7321
3717	0.7326
3708	0.7336
3699	0.7343
3690	0.7336
3681	0.7308
3672	0.7386
3663	0.7397
3654	0.7392
3645	0.7404
3636	0.7421
3627	0.7432
3618	0.7424
3609	0.7421
3600	0.7434
3591	0.7445
3582	0.7458
3573	0.7465
3564	0.7471
3555	0.7478
3546	0.7486
3537	0.7491
3528	0.7493
3519	0.7487
3510	0.7475
3501	0.746
3492	0.7443
3483	0.7415
3474	0.739
3465	0.736
3456	0.7322
3447	0.728
3438	0.7237
3429	0.719
3420	0.7144
3411	0.7091
3402	0.7033
3393	0.6968
3384	0.6899
3375	0.6812
3366	0.6718
3357	0.6614
3348	0.6498
3339	0.6368
3330	0.6236
3321	0.6093
3312	0.5925
3303	0.5768
3294	0.5618
3285	0.546
3276	0.529
3267	0.5134
3258	0.4979
3249	0.4787
3240	0.456
3231	0.4321
3222	0.4119
3213	0.3847
3204	0.36
3195	0.3323
3186	0.3034
3177	0.2797
3168	0.2593
3159	0.2411
3150	0.2307
3141	0.2269
3132	0.2322
3123	0.243
3114	0.2581
3105	0.2765
3096	0.2975
3087	0.3206
3078	0.3402
3069	0.3534
3060	0.3636
3051	0.3782
3042	0.4034
3033	0.4244
3024	0.4401
3015	0.4535
3006	0.4652
2997	0.4844
2988	0.5001
2979	0.5104
2970	0.5086
2961	0.4873
2952	0.4859
2943	0.4948
2934	0.4932
2925	0.4458
2916	0.4197
2907	0.399
2898	0.4341
2889	0.4587
2880	0.4537
2871	0.4378
2862	0.4264
2853	0.422
2844	0.4285
2835	0.4487
2826	0.4791
2817	0.5041
2808	0.5257
2799	0.5485
2790	0.571
2781	0.5812
2772	0.5903
2763	0.6003
2754	0.6086
2745	0.6105
2736	0.6109
2727	0.6146
2718	0.6251
2709	0.6369
2700	0.6458
2691	0.6518
2682	0.6591
2673	0.6718
2664	0.686
2655	0.6968
2646	0.7075
2637	0.7183
2628	0.7285
2619	0.7361
2610	0.7415
2601	0.7472
2592	0.7528
2583	0.7578
2574	0.7591
2565	0.7561
2556	0.7524
2547	0.7491
2538	0.7472
2529	0.7458
2520	0.7451
2511	0.7455
2502	0.7499
2493	0.7584
2484	0.769
2475	0.7784
2466	0.7858
2457	0.7904
2448	0.7942
2439	0.7971
2430	0.7995
2421	0.8
2412	0.8006
2403	0.8011
2394	0.8021
2385	0.8035
2376	0.8047
2367	0.8055
2358	0.8071
2349	0.8057
2340	0.8005
2331	0.7999
2322	0.7928
2313	0.7967
2304	0.8001
2295	0.803
2286	0.806
2277	0.8101
2268	0.8142
2259	0.8181
2250	0.8221
2241	0.8268
2232	0.832
2223	0.8368
2214	0.8406
2205	0.8433
2196	0.8417
2187	0.8417
2178	0.8455
2169	0.8489
2160	0.8509
2151	0.8515
2142	0.8506
2133	0.8508
2124	0.853
2115	0.8563
2106	0.8594
2097	0.8632
2088	0.8659
2079	0.8663
2070	0.8674
2061	0.8697
2052	0.8728
2043	0.8761
2034	0.8791
2025	0.8799
2016	0.879
2007	0.8749
1998	0.8311
1989	0.8539
1980	0.8535
1971	0.8371
1962	0.8345
1953	0.854
1944	0.8553
1935	0.8577
1926	0.8578
1917	0.8575
1908	0.8571
1899	0.8564
1890	0.8497
1881	0.8377
1872	0.8471
1863	0.8538
1854	0.856
1845	0.8596
1836	0.8565
1827	0.8575
1818	0.8589
1809	0.8598
1800	0.8584
1791	0.8468
1782	0.8443
1773	0.8528
1764	0.8599
1755	0.864
1746	0.866
1737	0.868
1728	0.8704
1719	0.8682
1710	0.8644
1701	0.8584
1692	0.8585
1683	0.8589
1674	0.8581
1665	0.8544
1656	0.8534
1647	0.8455
1638	0.8406
1629	0.8416
1620	0.836
1611	0.7892
1602	0.3239
1593	0.5754
1584	0.5306
1575	0.4342
1566	0.7004
1557	0.7143
1548	0.7605
1539	0.7799
1530	0.7878
1521	0.7911
1512	0.7856
1503	0.7776
1494	0.7625
1485	0.7334
1476	0.4727
1467	0.2267
1458	0.3227
1449	0.6128
1440	0.6505
1431	0.6436
1422	0.6265
1413	0.6555
1404	0.6899
1395	0.7071
1386	0.7134
1377	0.6336
1368	0.6968
1359	0.7275
1350	0.6788
1341	0.7139
1332	0.7871
1323	0.7917
1314	0.7469
1305	0.6399
1296	0.7903
1287	0.8121
1278	0.8083
1269	0.7789
1260	0.8128
1251	0.7865
1242	0.8134
1233	0.8344
1224	0.7978
1215	0.8121
1206	0.7589
1197	0.8355
1188	0.8441
1179	0.8371
1170	0.8352
1161	0.7404
1152	0.8015
1143	0.8281
1134	0.8349
1125	0.8239
1116	0.8225
1107	0.8091
1098	0.7143
1089	0.7091
1080	0.6634
1071	0.0784
1062	0.4726
1053	0.6547
1044	0.7101
1035	0.7221
1026	0.7611
1017	0.7755
1008	0.5679
999	0.6458
990	0.7274
981	0.8217
972	0.8335
963	0.8418
954	0.8494
945	0.8578
936	0.8635
927	0.8562
918	0.8071
909	0.8728
900	0.8644
891	0.8618
882	0.8766
873	0.8785
864	0.8747
855	0.8702
846	0.8623
837	0.8562
828	0.848
819	0.8316
810	0.7401
801	0.5766
792	0.7712
783	0.7587
774	0.7269
765	0.7489
756	0.3904
747	0.4037
738	0.6678
729	0.6336
720	0.7032
711	0.7857
702	0.8299
693	0.8507
684	0.8639
675	0.8647
666	0.8898
657	0.8925
648	0.8756
639	0.7845
630	0.907
621	0.9124
612	0.9161
603	0.9168
594	0.9139
585	0.8912
576	0.6991
567	0.8973
558	0.8971
549	0.8603
540	0.8559
531	0.8571
522	0.8705
513	0.8844
504	0.8853
495	0.8846
486	0.8766
477	0.8724
468	0.8695
459	0.8662
