Infrared Spectrum: 3-tert-Butyl-1-phenyl-2-pyrazolin-5-one
Formula: C 13 H 16 N 2 O
CAS: 6631-89-6
State: gas
Origin: EPA-IR VAPOR PHASE LIBRARY
1/CM	ABSORBANCE
549.8	0.0033511
559.445	0.0064611
569.09	0.0082711
578.734	0.0055211
588.379	0.0150511
598.024	0.0302211
607.669	0.0059811
617.313	0.0039211
626.958	0.0030011
636.603	0.0019711
646.248	0.0029411
655.893	0.0057611
665.537	0.0152011
675.182	0.0354411
684.827	0.0391111
694.472	0.0296111
704.116	0.0137811
713.761	0.0094811
723.406	0.0102311
733.051	0.0144811
742.695	0.0397911
752.34	0.0664011
761.985	0.0273211
771.63	0.0087611
781.275	0.0055111
790.919	0.0028311
800.564	0.0037711
810.209	0.0087311
819.854	0.0206211
829.498	0.0109711
839.143	0.0037711
848.788	0.0024011
858.433	0.0021611
868.078	0.0039311
877.722	0.0081811
887.367	0.0212311
897.012	0.0258211
906.657	0.0138511
916.301	0.0065511
925.946	0.0067311
935.591	0.0067611
945.236	0.0106311
954.88	0.0120011
964.525	0.0051311
974.17	0.0041511
983.815	0.0043111
993.46	0.0040111
1003.1	0.0049211
1012.75	0.0061211
1022.39	0.0086911
1032.04	0.0118011
1041.68	0.0093811
1051.33	0.0130711
1060.97	0.0198611
1070.62	0.0154211
1080.26	0.0275211
1089.91	0.0459811
1099.55	0.0273611
1109.2	0.0292411
1118.84	0.0324011
1128.49	0.0143611
1138.13	0.0107011
1147.78	0.0156411
1157.42	0.0293711
1167.07	0.0369711
1176.71	0.0281611
1186.36	0.0232011
1196	0.0171911
1205.64	0.0160811
1215.29	0.0205811
1224.93	0.0342711
1234.58	0.0409211
1244.22	0.0164311
1253.87	0.0087011
1263.51	0.0087711
1273.16	0.0121911
1282.8	0.0217211
1292.45	0.0488811
1302.09	0.117171
1311.74	0.151131
1321.38	0.0755011
1331.03	0.0337511
1340.67	0.0369611
1350.32	0.0656211
1359.96	0.117901
1369.61	0.113191
1379.25	0.0495411
1388.9	0.0258911
1398.54	0.0244711
1408.18	0.0158411
1417.83	0.0104211
1427.47	0.0092511
1437.12	0.0106311
1446.76	0.0145711
1456.41	0.0221411
1466.05	0.0311411
1475.7	0.0394611
1485.34	0.0640111
1494.99	0.151321
1504.63	0.146961
1514.28	0.0290511
1523.92	0.0123811
1533.57	0.0082211
1543.21	0.0082311
1552.86	0.0103511
1562.5	0.0143311
1572.15	0.0185211
1581.79	0.0333911
1591.44	0.0689611
1601.08	0.0882411
1610.73	0.0336211
1620.37	0.0166411
1630.01	0.0130911
1639.66	0.0096911
1649.3	0.0075511
1658.95	0.0066411
1668.59	0.0064511
1678.24	0.0079911
1687.88	0.0116011
1697.53	0.0190311
1707.17	0.0306511
1716.82	0.0532211
1726.46	0.105861
1736.11	0.289001
1745.75	0.383781
1755.4	0.151141
1765.04	0.0528111
1774.69	0.0257211
1784.33	0.0169611
1793.98	0.0113911
1803.62	0.0078611
1813.27	0.0054011
1822.91	0.0042311
1832.55	0.0046011
1842.2	0.0052111
1851.84	0.0053611
1861.49	0.0052311
1871.13	0.0047611
1880.78	0.0041411
1890.42	0.0031111
1900.07	0.0030611
1909.71	0.0028311
1919.36	0.0028511
1929	0.0040611
1938.65	0.0043811
1948.29	0.0041611
1957.94	0.0027011
1967.58	0.0017111
1977.23	0.0016711
1986.87	0.0016011
1996.52	0.0012311
2006.16	0.0012811
2015.81	0.0011011
2025.45	0.0012111
2035.1	0.0016111
2044.74	0.0019011
2054.38	0.0021411
2064.03	0.0019111
2073.67	0.0014111
2083.32	0.0011511
2092.96	0.0011711
2102.61	0.0014011
2112.25	0.0017011
2121.9	0.0014811
2131.54	0.0013811
2141.19	0.0013611
2150.83	0.0012611
2160.48	0.0014311
2170.12	0.0017911
2179.77	0.0019611
2189.41	0.0015911
2199.06	0.0015811
2208.7	0.0015911
2218.35	0.0013111
2227.99	0.0014111
2237.64	0.0012211
2247.28	0.0014311
2256.92	0.0012711
2266.57	0.0013011
2276.21	0.0012711
2285.86	0.0015011
2295.5	0.0014911
2305.15	0.0016511
2314.79	0.0020111
2324.44	0.0018511
2334.08	0.0018111
2343.73	0.0017011
2353.37	0.0014011
2363.02	0.0012811
2372.66	0.0010585
2382.31	0.0010911
2391.95	0.0010609
2401.6	0.0011411
2411.24	0.0010911
2420.89	0.0010911
2430.53	0.001038
2440.18	0.0012511
2449.82	0.0013411
2459.47	0.0013511
2469.11	0.0014811
2478.75	0.0014411
2488.4	0.0016811
2498.04	0.0014411
2507.69	0.0012711
2517.33	0.0012111
2526.98	0.0014811
2536.62	0.0015211
2546.27	0.0016011
2555.91	0.0014311
2565.56	0.0015611
2575.2	0.0014311
2584.85	0.0016511
2594.49	0.0014211
2604.14	0.0012211
2613.78	0.0014111
2623.43	0.0011511
2633.07	0.0011711
2642.72	0.0012411
2652.36	0.0014111
2662.01	0.0015111
2671.65	0.0015811
2681.29	0.0015811
2690.94	0.0012811
2700.58	0.0013411
2710.23	0.0016211
2719.87	0.0016311
2729.52	0.0020111
2739.16	0.0017211
2748.81	0.0017311
2758.45	0.0016611
2768.1	0.0018811
2777.74	0.0018711
2787.39	0.0022111
2797.03	0.0023111
2806.68	0.0024911
2816.32	0.0027111
2825.97	0.0027611
2835.61	0.0032511
2845.26	0.0044411
2854.9	0.0072411
2864.55	0.0134511
2874.19	0.0235311
2883.84	0.0260511
2893.48	0.0223711
2903.12	0.0254511
2912.77	0.0332511
2922.41	0.0324911
2932.06	0.0358911
2941.7	0.0408711
2951.35	0.0471911
2960.99	0.0817111
2970.64	0.129891
2980.28	0.107451
2989.93	0.0402711
2999.57	0.0155611
3009.22	0.0082811
3018.86	0.0060111
3028.51	0.0083011
3038.15	0.0132611
3047.8	0.0188711
3057.44	0.0224011
3067.09	0.0272911
3076.73	0.0292111
3086.38	0.0182611
3096.02	0.0095711
3105.67	0.0073411
3115.31	0.0047111
3124.95	0.0033011
3134.6	0.0026911
3144.24	0.0025411
3153.89	0.0020511
3163.53	0.0023511
3173.18	0.0023411
3182.82	0.0021111
3192.47	0.0020211
3202.11	0.0019211
3211.76	0.0015411
3221.4	0.0017011
3231.05	0.0014011
3240.69	0.0014611
3250.34	0.0011011
3259.98	0.0009548
3269.63	0.0004427
3279.27	0.000626
3288.92	0.0003247
3298.56	0.0002277
3308.21	0.0008085
3317.85	0.0006305
3327.49	0.0006959
3337.14	0.0008262
3346.78	0.0008284
3356.43	0.0007091
3366.07	0.0005319
3375.72	0.0006672
3385.36	0.0007281
3395.01	0.000522
3404.65	0.0009023
3414.3	0.0007182
3423.94	0.0007178
3433.59	0.0012311
3443.23	0.0015411
3452.88	0.0025011
3462.52	0.0034111
3472.17	0.0036611
3481.81	0.0024311
3491.46	0.0013011
3501.1	0.000614
3510.75	0.0004707
3520.39	0.0003387
3530.04	0.0004024
3539.68	0.0006936
3549.32	0.0003232
3558.97	0.000532
3568.61	0.0004535
3578.26	0.0003575
3587.9	0.0005587
3597.55	0.0010528
3607.19	0.0013711
3616.84	0.0005643
3626.48	0.0004424
3636.13	0.0006247
3645.77	0.00078
3655.42	0.0016011
3665.06	0.0016511
3674.71	0.000757
3684.35	0.0005549
3694	0.0004154
3703.64	3.03e-05
3713.29	0.0003423
3722.93	0.00013752
3732.58	0.0001948
3742.22	0.0005751
3751.86	0.00011948
3761.51	0.0002616
3771.15	0.0003047
3780.8	0.000575
3790.44	0.0004803
3800.09	0.0005109
3809.73	0.0004901
3819.38	0.0003273
3829.02	0.0006594
3838.67	0.0007469
3848.31	0.0004502
3857.96	0.0004374
3867.6	0.0006485
3877.25	0.0004564
3886.89	0.0004741
3896.54	0.0006323
3906.18	0.0005743
3915.83	0.000253
3925.47	0.0005645
3935.12	0.0005017
3944.76	0.0002941
3954.41	0.0003997
3964.05	0.000583
3973.69	0.00010959
3983.34	0.0005441
3992.98	0.0006513
