Infrared Spectrum: URACIL, 6-AMINO-1,3-DIMETHYL-5-NITROSO-
Formula: C6 H8 N4 O3
CAS: 6632-68-4
State: SOLID (SPLIT MULL), FLUOROLUBE FOR 3800-1330 CM^-^1, NUJOL FOR 1330-400 CM^-^1
Class: COBLENTZ III
Instrument: DOW KBr FOREPRISM-GRATING
Instrument parameters: BLAZED AT 3.5, 12.0, 20.0 MICRON AND CHANGED AT 5.0, 7.5, 14.9 MICRON
Sampling: TRANSMISSION
Resolution: 2
Origin: DOW CHEMICAL COMPANY
1/CM	TRANSMITTANCE
382	0.893
391	0.8906
400	0.8727
409	0.8321
418	0.7753
427	0.6001
436	0.5534
445	0.6912
454	0.7765
463	0.7815
472	0.7587
481	0.7375
490	0.6175
499	0.5268
508	0.4338
517	0.4799
526	0.6584
535	0.7549
544	0.7908
553	0.8188
562	0.8381
571	0.8481
580	0.8541
589	0.8534
598	0.8546
607	0.8533
616	0.84
625	0.794
634	0.7431
643	0.8216
652	0.8093
661	0.7887
670	0.7648
679	0.589
688	0.6038
697	0.8596
706	0.8289
715	0.593
724	0.6911
733	0.763
742	0.7696
751	0.5247
760	0.6411
769	0.4366
778	0.5959
787	0.6678
796	0.7378
805	0.7765
814	0.7408
823	0.551
832	0.7314
841	0.8047
850	0.833
859	0.8458
868	0.8535
877	0.8518
886	0.8412
895	0.8343
904	0.8171
913	0.7588
922	0.7314
931	0.7939
940	0.7876
949	0.6464
958	0.7601
967	0.7954
976	0.7987
985	0.798
994	0.7942
1003	0.7871
1012	0.7697
1021	0.7268
1030	0.6412
1039	0.5224
1048	0.1598
1057	0.3034
1066	0.6138
1075	0.3662
1084	0.7321
1093	0.8182
1102	0.828
1111	0.82
1120	0.7978
1129	0.7301
1138	0.5312
1147	0.58
1156	0.7711
1165	0.7842
1174	0.7758
1183	0.7611
1192	0.7395
1201	0.7349
1210	0.7125
1219	0.6587
1228	0.5559
1237	0.1086
1246	0.2597
1255	0.1064
1264	0.4845
1273	0.3884
1282	0.1967
1291	0.2331
1300	0.1779
1309	0.4453
1318	0.5719
1327	0.5555
1336	0.4845
1345	0.4897
1354	0.5245
1363	0.5115
1372	0.4743
1381	0.3228
1390	0.5004
1399	0.5164
1408	0.4546
1417	0.3812
1426	0.3089
1435	0.2202
1444	0.0899
1453	0.258
1462	0.1849
1471	0.2734
1480	0.269
1489	0.3348
1498	0.2758
1507	0.1519
1516	0.0678
1525	0.1592
1534	0.2742
1543	0.302
1552	0.4101
1561	0.3848
1570	0.343
1579	0.3009
1588	0.2796
1597	0.2785
1606	0.2805
1615	0.2614
1624	0.2099
1633	0.1734
1642	0.1477
1651	0.095
1660	0.0687
1669	0.077
1678	0.0916
1687	0.131
1696	0.3686
1705	0.3149
1714	0.2273
1723	0.3098
1732	0.5926
1741	0.7249
1750	0.7594
1759	0.8108
1768	0.8361
1777	0.8531
1786	0.87
1795	0.8732
1804	0.8732
1813	0.8816
1822	0.8927
1831	0.9007
1840	0.8967
1849	0.891
1858	0.8861
1867	0.8747
1876	0.8759
1885	0.8796
1894	0.881
1903	0.8801
1912	0.8756
1921	0.8735
1930	0.8728
1939	0.8701
1948	0.8664
1957	0.8721
1966	0.8547
1975	0.8585
1984	0.8631
1993	0.8627
2002	0.8553
2011	0.8503
2020	0.8454
2029	0.8381
2038	0.8311
2047	0.8256
2056	0.8199
2065	0.8128
2074	0.8088
2083	0.8049
2092	0.7975
2101	0.788
2110	0.7758
2119	0.7626
2128	0.7511
2137	0.7442
2146	0.7443
2155	0.7444
2164	0.7457
2173	0.7449
2182	0.7415
2191	0.7375
2200	0.7341
2209	0.7318
2218	0.7298
2227	0.7268
2236	0.7211
2245	0.7151
2254	0.7094
2263	0.7042
2272	0.699
2281	0.6938
2290	0.6891
2299	0.6844
2308	0.6798
2317	0.6745
2326	0.6701
2335	0.6674
2344	0.6662
2353	0.6664
2362	0.6665
2371	0.6668
2380	0.6672
2389	0.6669
2398	0.6655
2407	0.6615
2416	0.6583
2425	0.6575
2434	0.6574
2443	0.6575
2452	0.6568
2461	0.653
2470	0.6491
2479	0.6456
2488	0.6425
2497	0.6398
2506	0.6383
2515	0.6368
2524	0.6351
2533	0.6332
2542	0.6312
2551	0.6293
2560	0.6269
2569	0.6222
2578	0.6197
2587	0.6195
2596	0.6206
2605	0.6199
2614	0.6167
2623	0.6137
2632	0.6101
2641	0.6053
2650	0.6005
2659	0.5959
2668	0.5912
2677	0.5872
2686	0.5832
2695	0.5786
2704	0.574
2713	0.5693
2722	0.5647
2731	0.56
2740	0.5557
2749	0.552
2758	0.5483
2767	0.5443
2776	0.54
2785	0.5357
2794	0.5312
2803	0.526
2812	0.5207
2821	0.5147
2830	0.5084
2839	0.5018
2848	0.4946
2857	0.4871
2866	0.4802
2875	0.4722
2884	0.4634
2893	0.452
2902	0.4398
2911	0.4268
2920	0.4133
2929	0.3995
2938	0.3875
2947	0.3743
2956	0.3621
2965	0.352
2974	0.3455
2983	0.331
2992	0.3179
3001	0.308
3010	0.3023
3019	0.2971
3028	0.2938
3037	0.2926
3046	0.2989
3055	0.311
3064	0.3141
3073	0.3138
3082	0.3119
3091	0.3087
3100	0.3045
3109	0.3008
3118	0.2974
3127	0.2958
3136	0.2953
3145	0.296
3154	0.2995
3163	0.3043
3172	0.3114
3181	0.3232
3190	0.3364
3199	0.3466
3208	0.3538
3217	0.358
3226	0.3668
3235	0.3832
3244	0.4034
3253	0.4022
3262	0.3934
3271	0.3798
3280	0.369
3289	0.3571
3298	0.3468
3307	0.3375
3316	0.3341
3325	0.3372
3334	0.3554
3343	0.383
3352	0.4062
3361	0.429
3370	0.4548
3379	0.4758
3388	0.4928
3397	0.5058
3406	0.5155
3415	0.5236
3424	0.5293
3433	0.5301
3442	0.5275
3451	0.5187
3460	0.5068
3469	0.4921
3478	0.4773
3487	0.4573
3496	0.4358
3505	0.4007
3514	0.3544
3523	0.3075
3532	0.209
3541	0.1175
3550	0.1421
3559	0.3595
3568	0.5249
3577	0.6064
3586	0.6458
3595	0.6518
3604	0.6499
3613	0.6453
3622	0.6394
3631	0.6329
3640	0.6258
3649	0.6174
3658	0.6108
3667	0.6047
3676	0.5996
3685	0.5947
3694	0.5902
3703	0.5857
3712	0.5784
3721	0.5723
3730	0.5658
3739	0.5606
3748	0.5564
3757	0.5542
3766	0.5539
3775	0.5539
3784	0.5507
3793	0.5462
