Infrared Spectrum: 2-Nitrobenzaldoxime
Formula: C 7 H 6 N 2 O 3
CAS: 6635-41-2
State: gas
Origin: EPA-IR VAPOR PHASE LIBRARY
1/CM	ABSORBANCE
549.9	0.01144
559.547	0.01104
569.193	0.01086
578.84	0.01065
588.486	0.01062
598.133	0.0105
607.779	0.01103
617.426	0.01478
627.072	0.03102
636.719	0.03465
646.365	0.019
656.012	0.01596
665.658	0.01794
675.305	0.02734
684.951	0.05275
694.598	0.06192
704.245	0.04682
713.891	0.0404
723.538	0.04622
733.184	0.06693
742.831	0.08545
752.477	0.0577
762.124	0.03823
771.77	0.04748
781.417	0.05922
791.063	0.03331
800.71	0.0174
810.356	0.01469
820.003	0.0172
829.649	0.03516
839.296	0.08472
848.943	0.08815
858.589	0.04551
868.236	0.05129
877.882	0.05971
887.529	0.03769
897.175	0.02321
906.822	0.02503
916.468	0.0336
926.115	0.03917
935.761	0.04783
945.408	0.0828
955.054	0.1621
964.701	0.17604
974.347	0.08809
983.994	0.03294
993.64	0.01651
1003.29	0.01032
1012.93	0.00787
1022.58	0.00803
1032.23	0.01175
1041.87	0.01331
1051.52	0.00925
1061.17	0.0061
1070.81	0.00631
1080.46	0.00722
1090.11	0.00822
1099.75	0.01
1109.4	0.01329
1119.05	0.01362
1128.69	0.01098
1138.34	0.00984
1147.99	0.0085
1157.63	0.00853
1167.28	0.00835
1176.92	0.00814
1186.57	0.0122
1196.22	0.0235
1205.86	0.03129
1215.51	0.02544
1225.16	0.01792
1234.8	0.01653
1244.45	0.02661
1254.1	0.06122
1263.74	0.09126
1273.39	0.074
1283.04	0.05421
1292.68	0.05192
1302.33	0.05384
1311.98	0.0483
1321.62	0.0433
1331.27	0.06437
1340.92	0.13288
1350.56	0.2145
1360.21	0.18435
1369.86	0.07573
1379.5	0.04388
1389.15	0.05193
1398.79	0.05847
1408.44	0.03877
1418.09	0.02235
1427.73	0.01857
1437.38	0.01996
1447.03	0.01875
1456.67	0.01503
1466.32	0.01822
1475.97	0.02828
1485.61	0.0321
1495.26	0.03686
1504.91	0.05565
1514.55	0.08345
1524.2	0.12647
1533.85	0.23225
1543.49	0.31361
1553.14	0.23007
1562.79	0.14229
1572.43	0.10471
1582.08	0.06575
1591.73	0.04142
1601.37	0.03938
1611.02	0.03679
1620.67	0.02271
1630.31	0.01302
1639.96	0.01019
1649.6	0.00911
1659.25	0.00747
1668.9	0.00602
1678.54	0.00547
1688.19	0.00549
1697.84	0.00574
1707.48	0.00565
1717.13	0.00568
1726.78	0.00588
1736.42	0.00634
1746.07	0.00663
1755.72	0.00743
1765.36	0.00892
1775.01	0.01079
1784.66	0.01113
1794.3	0.00947
1803.95	0.00801
1813.6	0.00727
1823.24	0.00713
1832.89	0.00619
1842.54	0.00566
1852.18	0.00601
1861.83	0.00579
1871.47	0.00487
1881.12	0.0044119
1890.77	0.00489
1900.41	0.006
1910.06	0.00723
1919.71	0.00735
1929.35	0.00691
1939	0.00645
1948.65	0.00516
1958.29	0.00501
1967.94	0.00508
1977.59	0.0035972
1987.23	0.00254
1996.88	0.00228
2006.53	0.00222
2016.17	0.0022
2025.82	0.00221
2035.47	0.0023
2045.11	0.00227
2054.76	0.00217
2064.41	0.00208
2074.05	0.00205
2083.7	0.00204
2093.35	0.00196
2102.99	0.002
2112.64	0.00204
2122.28	0.00209
2131.93	0.0021
2141.58	0.00211
2151.22	0.00212
2160.87	0.00212
2170.52	0.00216
2180.16	0.00209
2189.81	0.0021
2199.46	0.00213
2209.1	0.00227
2218.75	0.00248
2228.4	0.00266
2238.04	0.002708
2247.69	0.00251
2257.34	0.0022
2266.98	0.00207
2276.63	0.00206
2286.28	0.00212
2295.92	0.00228
2305.57	0.00253
2315.22	0.00276
2324.86	0.003132
2334.51	0.002967
2344.16	0.00262
2353.8	0.002705
2363.45	0.002897
2373.09	0.00294
2382.74	0.002814
2392.39	0.00257
2402.03	0.0024
2411.68	0.0024
2421.33	0.00244
2430.97	0.00242
2440.62	0.00219
2450.27	0.00194
2459.91	0.00186
2469.56	0.00188
2479.21	0.00212
2488.85	0.00231
2498.5	0.00249
2508.15	0.00263
2517.79	0.002932
2527.44	0.00294
2537.09	0.00252
2546.73	0.00223
2556.38	0.00222
2566.03	0.00242
2575.67	0.00264
2585.32	0.002691
2594.96	0.00248
2604.61	0.00236
2614.26	0.00245
2623.9	0.00265
2633.55	0.003078
2643.2	0.0036384
2652.84	0.0038141
2662.49	0.003391
2672.14	0.003045
2681.78	0.003162
2691.43	0.003179
2701.08	0.002888
2710.72	0.00237
2720.37	0.00192
2730.02	0.00178
2739.66	0.00175
2749.31	0.00177
2758.96	0.00166
2768.6	0.00158
2778.25	0.00159
2787.9	0.00168
2797.54	0.00168
2807.19	0.00163
2816.84	0.00184
2826.48	0.00221
2836.13	0.002714
2845.77	0.003253
2855.42	0.0038501
2865.07	0.00514
2874.71	0.00661
2884.36	0.00716
2894.01	0.0057
2903.65	0.0043397
2913.3	0.0036055
2922.95	0.003108
2932.59	0.00257
2942.24	0.00236
2951.89	0.00242
2961.53	0.002869
2971.18	0.003365
2980.83	0.0038658
2990.47	0.0041398
3000.12	0.0036446
3009.77	0.00285
3019.41	0.00249
3029.06	0.00304
3038.71	0.0042533
3048.35	0.00562
3058	0.00817
3067.64	0.01579
3077.29	0.02337
3086.94	0.01972
3096.58	0.00906
3106.23	0.002867
3115.88	0.00166
3125.52	0.00129
3135.17	0.00108
3144.82	0.00102
3154.46	0.00083
3164.11	0.0005
3173.76	0.00048
3183.4	0.0003
3193.05	0.00031
3202.7	0.00032
3212.34	0.00051
3221.99	0.00055
3231.64	0.00084
3241.28	0.00132
3250.93	0.00128
3260.58	0.00079
3270.22	0.00048
3279.87	0.00042
3289.52	0.00038
3299.16	0.00028
3308.81	0.00014
3318.45	0.00018
3328.1	0.00013
3337.75	4e-05
3347.39	0.0003
3357.04	0.00023
3366.69	0.00033
3376.33	0.00052
3385.98	0.00039
3395.63	0.00044
3405.27	0.00043
3414.92	0.0006
3424.57	0.00067
3434.21	0.00069
3443.86	0.00069
3453.51	0.00088
3463.15	0.00104
3472.8	0.00112
3482.45	0.00122
3492.09	0.00137
3501.74	0.00135
3511.39	0.00148
3521.03	0.00173
3530.68	0.00198
3540.33	0.00237
3549.97	0.002957
3559.62	0.0041566
3569.26	0.00765
3578.91	0.00873
3588.56	0.00889
3598.2	0.01141
3607.85	0.01938
3617.5	0.04168
3627.14	0.1011
3636.79	0.19209
3646.44	0.13618
3656.08	0.02182
3665.73	0.00878
3675.38	0.00775
3685.02	0.00708
3694.67	0.00549
3704.32	0.0040235
3713.96	0.003435
3723.61	0.003141
3733.26	0.00303
3742.9	0.002761
3752.55	0.00255
3762.2	0.00248
3771.84	0.00238
3781.49	0.00212
3791.13	0.00199
3800.78	0.00206
3810.43	0.00193
3820.07	0.00192
3829.72	0.00192
3839.37	0.00197
3849.01	0.00188
3858.66	0.00192
3868.31	0.00202
3877.95	0.00196
3887.6	0.00197
3897.25	0.0021
3906.89	0.00226
3916.54	0.00228
3926.19	0.00242
3935.83	0.00264
3945.48	0.00271
3955.13	0.002782
3964.77	0.00266
3974.42	0.0026
3984.07	0.00258
3993.71	0.00258
