Infrared Spectrum: PYRIDINE, 2-AMINO-3-NITRO-4-METHYL-
Formula: C6 H7 N3 O2
CAS: 6635-86-5
State: SOLID (SPLIT MULL)
Class: COBLENTZ III
Instrument: DOW KBr FOREPRISM-GRATING
Instrument parameters: BLAZED AT 3.5, 12.0, 20.0 MICRON AND CHANGED AT 5.0, 7.5, 14.9 MICRON
Sampling: TRANSMISSION
Resolution: 2
Origin: DOW CHEMICAL COMPANY
1/CM	TRANSMITTANCE
466	0.6871
475	0.6865
484	0.6953
493	0.7021
502	0.6834
511	0.6476
520	0.6017
529	0.5898
538	0.6899
547	0.6139
556	0.6992
565	0.7458
574	0.754
583	0.7986
592	0.8209
601	0.8473
610	0.8605
619	0.8816
628	0.8975
637	0.9053
646	0.9125
655	0.9174
664	0.9218
673	0.9295
682	0.9094
691	0.8959
700	0.8835
709	0.8542
718	0.8034
727	0.8111
736	0.8597
745	0.8361
754	0.8125
763	0.8239
772	0.8425
781	0.819
790	0.7043
799	0.8748
808	0.8762
817	0.837
826	0.8135
835	0.8828
844	0.8754
853	0.8739
862	0.7997
871	0.8754
880	0.9034
889	0.8999
898	0.9007
907	0.8984
916	0.8932
925	0.8837
934	0.8756
943	0.8691
952	0.8593
961	0.851
970	0.8408
979	0.843
988	0.8502
997	0.84
1006	0.8252
1015	0.8331
1024	0.8417
1033	0.8174
1042	0.7572
1051	0.8154
1060	0.7983
1069	0.7807
1078	0.8695
1087	0.8682
1096	0.8507
1105	0.8254
1114	0.7928
1123	0.7911
1132	0.8366
1141	0.8189
1150	0.6828
1159	0.8258
1168	0.8189
1177	0.8097
1186	0.7785
1195	0.7561
1204	0.7343
1213	0.701
1222	0.6288
1231	0.4606
1240	0.3566
1249	0.4982
1258	0.5537
1267	0.4441
1276	0.6618
1285	0.736
1294	0.6569
1303	0.6156
1312	0.5254
1321	0.7008
1330	0.7411
1339	0.7321
1348	0.5621
1357	0.6705
1366	0.7054
1375	0.4626
1384	0.7489
1393	0.7118
1402	0.6748
1411	0.6358
1420	0.5865
1429	0.5188
1438	0.398
1447	0.3477
1456	0.5131
1465	0.5989
1474	0.6421
1483	0.6329
1492	0.6016
1501	0.5557
1510	0.4702
1519	0.2198
1528	0.6955
1537	0.6494
1546	0.546
1555	0.3707
1564	0.388
1573	0.5024
1582	0.4282
1591	0.3093
1600	0.4334
1609	0.396
1618	0.127
1627	0.2682
1636	0.5232
1645	0.7305
1654	0.7699
1663	0.8183
1672	0.8667
1681	0.8959
1690	0.8995
1699	0.8904
1708	0.8803
1717	0.8748
1726	0.8718
1735	0.8697
1744	0.8688
1753	0.869
1762	0.8625
1771	0.8565
1780	0.8514
1789	0.8466
1798	0.8427
1807	0.8425
1816	0.8417
1825	0.8363
1834	0.8342
1843	0.8321
1852	0.8287
1861	0.8256
1870	0.8241
1879	0.8231
1888	0.8217
1897	0.8184
1906	0.8151
1915	0.8124
1924	0.8091
1933	0.8042
1942	0.7987
1951	0.7943
1960	0.8096
1969	0.8001
1978	0.7967
1987	0.7924
1996	0.783
2005	0.7828
2014	0.7894
2023	0.7862
2032	0.7828
2041	0.7792
2050	0.7755
2059	0.7718
2068	0.7678
2077	0.7628
2086	0.7578
2095	0.7525
2104	0.7468
2113	0.7408
2122	0.7351
2131	0.7293
2140	0.7237
2149	0.7183
2158	0.7128
2167	0.7074
2176	0.7019
2185	0.6968
2194	0.6915
2203	0.6864
2212	0.6811
2221	0.6758
2230	0.6712
2239	0.6683
2248	0.6654
2257	0.6624
2266	0.6594
2275	0.6565
2284	0.6535
2293	0.6504
2302	0.6474
2311	0.6442
2320	0.6401
2329	0.6395
2338	0.6397
2347	0.6393
2356	0.6383
2365	0.6379
2374	0.6379
2383	0.6377
2392	0.6375
2401	0.6369
2410	0.6365
2419	0.636
2428	0.6355
2437	0.6355
2446	0.6355
2455	0.6345
2464	0.6333
2473	0.6318
2482	0.6293
2491	0.6268
2500	0.6245
2509	0.6224
2518	0.6204
2527	0.6176
2536	0.6147
2545	0.6118
2554	0.6088
2563	0.6059
2572	0.6029
2581	0.5996
2590	0.5962
2599	0.5932
2608	0.5908
2617	0.5883
2626	0.5868
2635	0.5862
2644	0.5844
2653	0.582
2662	0.5782
2671	0.5738
2680	0.5686
2689	0.5633
2698	0.5586
2707	0.5548
2716	0.551
2725	0.5478
2734	0.546
2743	0.547
2752	0.5478
2761	0.5475
2770	0.5457
2779	0.5407
2788	0.5354
2797	0.5309
2806	0.5262
2815	0.5218
2824	0.5172
2833	0.512
2842	0.5066
2851	0.501
2860	0.4952
2869	0.4884
2878	0.4812
2887	0.4751
2896	0.469
2905	0.4626
2914	0.4522
2923	0.4402
2932	0.4356
2941	0.4352
2950	0.4341
2959	0.4247
2968	0.4165
2977	0.4093
2986	0.4014
2995	0.3926
3004	0.3839
3013	0.3752
3022	0.3688
3031	0.3627
3040	0.3616
3049	0.3632
3058	0.3599
3067	0.3518
3076	0.3418
3085	0.3286
3094	0.3109
3103	0.2874
3112	0.2725
3121	0.2675
3130	0.2709
3139	0.2861
3148	0.3225
3157	0.3648
3166	0.4024
3175	0.4114
3184	0.423
3193	0.4456
3202	0.4478
3211	0.4456
3220	0.4436
3229	0.431
3238	0.4077
3247	0.3812
3256	0.3591
3265	0.3636
3274	0.4143
3283	0.4779
3292	0.5134
3301	0.5528
3310	0.5682
3319	0.5692
3328	0.5681
3337	0.5665
3346	0.5623
3355	0.5558
3364	0.5458
3373	0.5365
3382	0.5251
3391	0.5099
3400	0.4888
3409	0.4842
3418	0.4833
3427	0.4732
3436	0.4443
3445	0.405
3454	0.2433
3463	0.4202
3472	0.5783
3481	0.5812
3490	0.5766
3499	0.5666
3508	0.5577
3517	0.5523
3526	0.5488
3535	0.5457
3544	0.5427
3553	0.5397
3562	0.5358
3571	0.5316
3580	0.5272
3589	0.5243
3598	0.5222
3607	0.5197
3616	0.5167
3625	0.5136
3634	0.5105
3643	0.5075
3652	0.5054
3661	0.5028
3670	0.4966
3679	0.4856
3688	0.4612
3697	0.4819
3706	0.4996
3715	0.4984
3724	0.4957
3733	0.4933
3742	0.491
3751	0.4887
3760	0.4869
3769	0.4851
3778	0.4834
3787	0.4826
3796	0.4819
