Infrared Spectrum: 2-Chloro-3-hydroxypyridine
Formula: C 5 H 4 Cl N O
CAS: 6636-78-8
State: gas
Origin: EPA-IR VAPOR PHASE LIBRARY
1/CM	ABSORBANCE
549.9	0.0003351
559.547	0.0005621
569.193	0.0003283
578.84	0.0002875
588.486	0.00017281
598.133	0.00020036
607.779	7.33e-05
617.426	0.0002525
627.072	0.0002521
636.719	0.0002326
646.365	0.0002809
656.012	0.0003783
665.658	0.0006574
675.305	0.0011206
684.951	0.001192
694.598	0.0004571
704.245	0.0003724
713.891	0.0005193
723.538	0.0005957
733.184	0.0006474
742.831	0.0004878
752.477	0.0003664
762.124	0.00022957
771.77	0.0004077
781.417	0.0008355
791.063	0.001322
800.71	0.001162
810.356	0.0009817
820.003	0.0004591
829.649	0.0004442
839.296	0.0003911
848.943	0.0003815
858.589	0.0002611
868.236	0.0002359
877.882	0.00018992
887.529	0.00020466
897.175	0.000245
906.822	0.00022964
916.468	0.00022023
926.115	0.0002894
935.761	0.0002616
945.408	0.0002415
955.054	0.0002856
964.701	0.0003084
974.347	0.0003094
983.994	0.0003049
993.64	0.00028
1003.29	0.0003103
1012.93	0.0002629
1022.58	0.0003073
1032.23	0.000483
1041.87	0.0008699
1051.52	0.0011301
1061.17	0.001332
1070.81	0.001632
1080.46	0.001622
1090.11	0.0009212
1099.75	0.0005328
1109.4	0.0008382
1119.05	0.0008757
1128.69	0.0009053
1138.34	0.0006022
1147.99	0.000781
1157.63	0.0009788
1167.28	0.001602
1176.92	0.002332
1186.57	0.002302
1196.22	0.001992
1205.86	0.001452
1215.51	0.002112
1225.16	0.003292
1234.8	0.005292
1244.45	0.005202
1254.1	0.002982
1263.74	0.001422
1273.39	0.0009547
1283.04	0.0005608
1292.68	0.00038
1302.33	0.0004296
1311.98	0.0004731
1321.62	0.0007692
1331.27	0.0008004
1340.92	0.000624
1350.56	0.0003131
1360.21	0.0003209
1369.86	0.0002656
1379.5	0.00022987
1389.15	0.0003321
1398.79	0.000605
1408.44	0.002142
1418.09	0.006342
1427.73	0.007972
1437.38	0.006762
1447.03	0.001912
1456.67	0.0010626
1466.32	0.0008827
1475.97	0.0006417
1485.61	0.0003501
1495.26	0.0003464
1504.91	0.0003611
1514.55	0.000272
1524.2	0.0002681
1533.85	0.0002716
1543.49	0.0003051
1553.14	0.0004283
1562.79	0.0007662
1572.43	0.0009719
1582.08	0.0011151
1591.73	0.0008935
1601.37	0.0005395
1611.02	0.0002744
1620.67	0.00018958
1630.31	0.00016895
1639.96	0.00017425
1649.6	0.00021658
1659.25	0.00018301
1668.9	0.00020514
1678.54	0.00022342
1688.19	0.00017694
1697.84	0.00016539
1707.48	0.0001874
1717.13	0.00018267
1726.78	0.0001305
1736.42	0.00018423
1746.07	0.00015786
1755.72	0.000139306
1765.36	0.0001233
1775.01	9.63e-05
1784.66	0.00014958
1794.3	9.43e-05
1803.95	0.00015007
1813.6	8.53e-05
1823.24	0.0001055
1832.89	0.000133244
1842.54	0.0001191
1852.18	0.0001012
1861.83	0.00015711
1871.47	0.00014668
1881.12	0.00015907
1890.77	0.00014889
1900.41	0.000121
1910.06	0.00014816
1919.71	0.00021458
1929.35	0.00016388
1939	0.00015104
1948.65	0.0001199
1958.29	7.89e-05
1967.94	0.00012682
1977.59	0.0001108
1987.23	0.0001638
1996.88	0.0001163
2006.53	0.0001702
2016.17	0.00015333
2025.82	0.0001213
2035.47	0.0001136
2045.11	0.000113
2054.76	0.00012705
2064.41	0.0001111
2074.05	6.74e-05
2083.7	0.0001098
2093.35	0.000141868
2102.99	7.89e-05
2112.64	7.22e-05
2122.28	9.21e-05
2131.93	8.29e-05
2141.58	7.35e-05
2151.22	5.96e-05
2160.87	4.86e-05
2170.52	8.86e-05
2180.16	5.92e-05
2189.81	7.71e-05
2199.46	3.69e-05
2209.1	7.61e-05
2218.75	9.65e-05
2228.4	0.0001093
2238.04	0.0001001
2247.69	0.00012463
2257.34	0.0001009
2266.98	7.51e-05
2276.63	7.76e-05
2286.28	6.58e-05
2295.92	6.08e-05
2305.57	0.0001185
2315.22	0.0001053
2324.86	6.64e-05
2334.51	9.23e-05
2344.16	9.38e-05
2353.8	8.31e-05
2363.45	8.86e-05
2373.09	8.98e-05
2382.74	0.0001096
2392.39	8.3e-05
2402.03	7.59e-05
2411.68	6.32e-05
2421.33	0.00014453
2430.97	0.000138316
2440.62	0.000141754
2450.27	0.000134138
2459.91	0.00015084
2469.56	0.0001064
2479.21	0.000137911
2488.85	9.52e-05
2498.5	8.74e-05
2508.15	0.0001248
2517.79	0.0001068
2527.44	0.0001038
2537.09	0.0001167
2546.73	8.6e-05
2556.38	0.000109
2566.03	0.00012253
2575.67	0.000133418
2585.32	0.0001161
2594.96	9.84e-05
2604.61	0.00012566
2614.26	8.06e-05
2623.9	4.49e-05
2633.55	0.00012593
2643.2	0.0001014
2652.84	5.7e-05
2662.49	0.0001124
2672.14	0.0001212
2681.78	6.78e-05
2691.43	0.0001031
2701.08	0.00015233
2710.72	5.16e-05
2720.37	6.58e-05
2730.02	8.1e-05
2739.66	9.25e-05
2749.31	1.7e-05
2758.96	8.77e-05
2768.6	2.3e-05
2778.25	3.2e-05
2787.9	0.0001145
2797.54	0.0001008
2807.19	0.00015072
2816.84	0.0001195
2826.48	2.9e-05
2836.13	0.00015231
2845.77	0.0001076
2855.42	0.00021913
2865.07	0.00012477
2874.71	0.000132097
2884.36	0.0001011
2894.01	0.0001497
2903.65	6.76e-05
2913.3	0.00015024
2922.95	0.00020966
2932.59	0.00013832
2942.24	9.83e-05
2951.89	0.00016989
2961.53	0.00018919
2971.18	3.1e-05
2980.83	0.00019121
2990.47	5.03e-05
3000.12	0.00020498
3009.77	0.00015141
3019.41	0.0002381
3029.06	0.000134693
3038.71	0.0002709
3048.35	0.0003755
3058	0.0004863
3067.64	0.0006955
3077.29	0.000977
3086.94	0.0006231
3096.58	0.0003254
3106.23	0.0003551
3115.88	0.0002903
3125.52	0.00021352
3135.17	0.000283
3144.82	0.0002434
3154.46	0.0002373
3164.11	0.000367
3173.76	0.0002493
3183.4	0.0002969
3193.05	0.0004517
3202.7	0.00023046
3212.34	0.0003652
3221.99	0.0002922
3231.64	0.0003209
3241.28	0.0003219
3250.93	0.0003125
3260.58	0.0003729
3270.22	0.0004846
3279.87	0.0002546
3289.52	0.0004812
3299.16	0.0005238
3308.81	0.000437
3318.45	0.0004303
3328.1	0.0003732
3337.75	0.0004653
3347.39	0.0004411
3357.04	0.0004024
3366.69	0.0004283
3376.33	0.0004509
3385.98	0.0003627
3395.63	0.0004879
3405.27	0.0004274
3414.92	0.0005206
3424.57	0.0004842
3434.21	0.0004491
3443.86	0.0004745
3453.51	0.0003667
3463.15	0.0005242
3472.8	0.0003545
3482.45	0.000313
3492.09	0.0004256
3501.74	0.0003891
3511.39	0.0003609
3521.03	0.0004207
3530.68	0.0006739
3540.33	0.0007347
3549.97	0.001612
3559.62	0.003182
3569.26	0.003372
3578.91	0.002172
3588.56	0.000852
3598.2	0.0005138
3607.85	0.0004458
3617.5	0.0004593
3627.14	0.0005044
3636.79	0.0004052
3646.44	0.0003323
3656.08	0.0003603
3665.73	0.0004067
3675.38	0.0003565
3685.02	0.0003599
3694.67	0.0003832
3704.32	0.0002491
3713.96	0.0003227
3723.61	0.0003069
3733.26	0.0003068
3742.9	0.0003048
3752.55	0.0003559
3762.2	0.0003455
3771.84	0.0003035
3781.49	0.0003134
3791.13	0.0002627
3800.78	0.0003613
3810.43	0.0002532
3820.07	0.0003112
3829.72	0.0003507
3839.37	0.0003362
3849.01	0.0002534
3858.66	0.0002384
3868.31	0.0003127
3877.95	0.0002465
3887.6	0.00021353
3897.25	0.0003125
3906.89	0.0002687
3916.54	0.0003638
3926.19	0.000384
3935.83	0.0002373
3945.48	0.00022337
3955.13	0.0003251
3964.77	0.0002857
3974.42	0.0003429
3984.07	0.0003852
3993.71	0.0003925
