Infrared Spectrum: Indole-1-propionic acid
Formula: C11 H11 N O2
CAS: 6639-06-1
State: SOLID (SPLIT MULL), FLUOROLUBE FOR 3800-1330 CM^-^1, NUJOL FOR 1330-450 CM^-^1
Melting point: 158-159 C
Class: COBLENTZ III
Instrument: DOW KBr FOREPRISM-GRATING
Instrument parameters: BLAZED AT 3.5, 12.0, 20.0 MICRON AND CHANGED AT 5.0, 7.5, 14.9 MICRON
Sampling: TRANSMISSION
Resolution: 2
Origin: DOW CHEMICAL COMPANY
1/CM	TRANSMITTANCE
3758	0.6739
3749	0.679
3740	0.6845
3731	0.6848
3722	0.6851
3713	0.6819
3704	0.6784
3695	0.6778
3686	0.6765
3677	0.6792
3668	0.6847
3659	0.6851
3650	0.681
3641	0.6825
3632	0.6818
3623	0.6801
3614	0.6824
3605	0.6853
3596	0.6838
3587	0.6865
3578	0.6797
3569	0.6861
3560	0.6892
3551	0.689
3542	0.6889
3533	0.6889
3524	0.6889
3515	0.6891
3506	0.6892
3497	0.688
3488	0.6811
3479	0.6878
3470	0.6911
3461	0.6911
3452	0.6871
3443	0.6819
3434	0.688
3425	0.6904
3416	0.6899
3407	0.6878
3398	0.6882
3389	0.6881
3380	0.6887
3371	0.6897
3362	0.691
3353	0.6901
3344	0.6854
3335	0.6822
3326	0.6796
3317	0.6771
3308	0.6745
3299	0.6719
3290	0.6705
3281	0.6669
3272	0.6617
3263	0.6583
3254	0.6539
3245	0.6475
3236	0.6414
3227	0.6336
3218	0.6257
3209	0.6185
3200	0.6114
3191	0.6046
3182	0.598
3173	0.5917
3164	0.5849
3155	0.5667
3146	0.5175
3137	0.5262
3128	0.5316
3119	0.5225
3110	0.4827
3101	0.486
3092	0.4772
3083	0.4624
3074	0.4305
3065	0.4052
3056	0.4174
3047	0.4034
3038	0.3918
3029	0.3864
3020	0.3864
3011	0.3859
3002	0.3849
2993	0.3843
2984	0.3912
2975	0.391
2966	0.3704
2957	0.3557
2948	0.361
2939	0.3573
2930	0.2869
2921	0.3067
2912	0.3337
2903	0.3045
2894	0.2819
2885	0.3232
2876	0.3564
2867	0.367
2858	0.3724
2849	0.383
2840	0.3918
2831	0.3995
2822	0.4036
2813	0.408
2804	0.4197
2795	0.4334
2786	0.4426
2777	0.4378
2768	0.435
2759	0.4455
2750	0.4528
2741	0.4454
2732	0.4426
2723	0.4427
2714	0.4466
2705	0.4594
2696	0.4665
2687	0.4526
2678	0.4343
2669	0.4251
2660	0.4382
2651	0.4373
2642	0.423
2633	0.4148
2624	0.4164
2615	0.4283
2606	0.4397
2597	0.4586
2588	0.4642
2579	0.4676
2570	0.4566
2561	0.459
2552	0.4693
2543	0.4765
2534	0.4791
2525	0.4877
2516	0.5141
2507	0.5275
2498	0.5329
2489	0.5475
2480	0.5598
2471	0.5728
2462	0.587
2453	0.5974
2444	0.6053
2435	0.6125
2426	0.6195
2417	0.6266
2408	0.6336
2399	0.6388
2390	0.6439
2381	0.6489
2372	0.6542
2363	0.6598
2354	0.6655
2345	0.6695
2336	0.6722
2327	0.6738
2318	0.6756
2309	0.6786
2300	0.6828
2291	0.6875
2282	0.6912
2273	0.6967
2264	0.704
2255	0.7112
2246	0.7158
2237	0.719
2228	0.7254
2219	0.7314
2210	0.7369
2201	0.7418
2192	0.7465
2183	0.7511
2174	0.7549
2165	0.7578
2156	0.7605
2147	0.7632
2138	0.766
2129	0.7689
2120	0.7721
2111	0.7755
2102	0.7792
2093	0.7833
2084	0.7882
2075	0.7948
2066	0.8015
2057	0.8065
2048	0.8099
2039	0.8122
2030	0.8146
2021	0.8158
2012	0.8169
2003	0.8162
1994	0.7846
1985	0.7884
1976	0.7899
1967	0.7903
1958	0.79
1949	0.7818
1940	0.7761
1931	0.7628
1922	0.7261
1913	0.7654
1904	0.7682
1895	0.755
1886	0.7421
1877	0.7675
1868	0.7582
1859	0.7326
1850	0.7411
1841	0.7538
1832	0.763
1823	0.7558
1814	0.748
1805	0.7531
1796	0.7765
1787	0.7953
1778	0.7983
1769	0.7799
1760	0.831
1751	0.8466
1742	0.8286
1733	0.8124
1724	0.6554
1715	0.1514
1706	0.0301
1697	0.059
1688	0.236
1679	0.4117
1670	0.5649
1661	0.6362
1652	0.6761
1643	0.7068
1634	0.7369
1625	0.7483
1616	0.6774
1607	0.7074
1598	0.7387
1589	0.7412
1580	0.7698
1571	0.7403
1562	0.7247
1553	0.7883
1544	0.8022
1535	0.8112
1526	0.8018
1517	0.6265
1508	0.7357
1499	0.7957
1490	0.7284
1481	0.4755
1472	0.6628
1463	0.3899
1454	0.4479
1445	0.452
1436	0.1729
1427	0.2427
1418	0.3944
1409	0.4995
1400	0.5818
1391	0.6549
1382	0.6726
1373	0.7026
1364	0.7068
1355	0.5241
1346	0.5733
1337	0.4353
1328	0.3729
1319	0.2428
1310	0.4151
1301	0.1694
1292	0.3278
1283	0.5181
1274	0.5537
1265	0.6617
1256	0.6695
1247	0.2284
1238	0.4542
1229	0.4757
1220	0.286
1211	0.1824
1202	0.1898
1193	0.5127
1184	0.6064
1175	0.6269
1166	0.66
1157	0.6982
1148	0.7071
1139	0.741
1130	0.6448
1121	0.7638
1112	0.7787
1103	0.7846
1094	0.7286
1085	0.451
1076	0.7282
1067	0.7156
1058	0.7211
1049	0.7592
1040	0.7611
1031	0.7675
1022	0.7311
1013	0.6286
1004	0.7462
995	0.7448
986	0.6807
977	0.561
968	0.4603
959	0.4169
950	0.5008
941	0.616
932	0.6857
923	0.7274
914	0.7626
905	0.7712
896	0.8004
887	0.5055
878	0.809
869	0.8248
860	0.8328
851	0.8151
842	0.7951
833	0.8451
824	0.8664
815	0.8761
806	0.8614
797	0.5633
788	0.8467
779	0.7315
770	0.8378
761	0.5687
752	0.7165
743	0.0628
734	0.4769
725	0.6101
716	0.2647
707	0.7295
698	0.8488
689	0.8561
680	0.7799
671	0.5685
662	0.7907
653	0.8804
644	0.9025
635	0.9142
626	0.9218
617	0.9267
608	0.9236
599	0.8053
590	0.7126
581	0.8804
572	0.7976
563	0.8903
554	0.8983
545	0.8914
536	0.8292
527	0.7412
518	0.8635
509	0.8834
500	0.8875
491	0.8871
482	0.8792
473	0.8575
464	0.6033
