Infrared Spectrum: 2,6-Dichlorophenyl-N,N-dimethylcarbamate
Formula: C 9 H 9 C L 2 N O 2
CAS: 6639-32-3
State: gas
Origin: EPA-IR VAPOR PHASE LIBRARY
1/CM	ABSORBANCE
549.8	0.000545
559.445	0.0009765
569.09	0.0017015
578.734	0.001815
588.379	0.001845
598.024	0.002185
607.669	0.001985
617.313	0.004625
626.958	0.003295
636.603	0.002625
646.248	0.006485
655.893	0.005805
665.537	0.002415
675.182	0.0016501
684.827	0.002225
694.472	0.003045
704.116	0.008525
713.761	0.016035
723.406	0.007675
733.051	0.006245
742.695	0.013075
752.34	0.017305
761.985	0.050185
771.63	0.079005
781.275	0.056455
790.919	0.073365
800.564	0.047925
810.209	0.026885
819.854	0.027895
829.498	0.020975
839.143	0.027485
848.788	0.051095
858.433	0.016805
868.078	0.004845
877.722	0.004555
887.367	0.004935
897.012	0.003685
906.657	0.003595
916.301	0.003705
925.946	0.003185
935.591	0.002935
945.236	0.003825
954.88	0.004745
964.525	0.006755
974.17	0.009175
983.815	0.020545
993.46	0.039385
1003.1	0.027935
1012.75	0.012005
1022.39	0.009925
1032.04	0.012605
1041.68	0.018395
1051.33	0.022875
1060.97	0.030355
1070.62	0.033895
1080.26	0.028705
1089.91	0.036055
1099.55	0.060755
1109.2	0.063655
1118.84	0.060175
1128.49	0.096825
1138.13	0.164615
1147.78	0.239115
1157.42	0.250425
1167.07	0.188415
1176.71	0.121805
1186.36	0.077075
1196	0.056025
1205.64	0.058325
1215.29	0.060065
1224.93	0.104525
1234.58	0.216795
1244.22	0.157145
1253.87	0.040995
1263.51	0.028455
1273.16	0.026865
1282.8	0.025295
1292.45	0.020745
1302.09	0.014405
1311.74	0.012785
1321.38	0.014435
1331.03	0.018035
1340.67	0.024875
1350.32	0.040825
1359.96	0.078795
1369.61	0.149905
1379.25	0.209935
1388.9	0.164335
1398.54	0.092255
1408.18	0.064735
1417.83	0.056685
1427.47	0.054395
1437.12	0.114965
1446.76	0.166585
1456.41	0.102765
1466.05	0.053415
1475.7	0.041495
1485.34	0.032455
1494.99	0.029005
1504.63	0.028495
1514.28	0.024705
1523.92	0.022405
1533.57	0.020285
1543.21	0.017695
1552.86	0.017035
1562.5	0.026235
1572.15	0.047805
1581.79	0.029545
1591.44	0.010405
1601.08	0.008325
1610.73	0.008165
1620.37	0.007505
1630.01	0.006685
1639.66	0.006995
1649.3	0.008845
1658.95	0.007505
1668.59	0.005795
1678.24	0.005805
1687.88	0.007465
1697.53	0.010345
1707.17	0.012215
1716.82	0.018775
1726.46	0.024965
1736.11	0.029135
1745.75	0.062835
1755.4	0.220935
1765.04	0.512745
1774.69	0.292565
1784.33	0.064045
1793.98	0.029825
1803.62	0.023145
1813.27	0.014865
1822.91	0.009585
1832.55	0.008435
1842.2	0.008325
1851.84	0.006665
1861.49	0.004635
1871.13	0.004455
1880.78	0.004855
1890.42	0.004205
1900.07	0.003685
1909.71	0.004315
1919.36	0.004775
1929	0.003295
1938.65	0.002695
1948.29	0.002485
1957.94	0.002595
1967.58	0.002545
1977.23	0.002695
1986.87	0.003365
1996.52	0.003475
2006.16	0.003225
2015.81	0.002815
2025.45	0.002545
2035.1	0.002225
2044.74	0.001785
2054.38	0.002025
2064.03	0.002155
2073.67	0.002585
2083.32	0.003565
2092.96	0.003545
2102.61	0.002545
2112.25	0.002395
2121.9	0.002215
2131.54	0.002465
2141.19	0.002285
2150.83	0.001755
2160.48	0.0015123
2170.12	0.0012265
2179.77	0.0012637
2189.41	0.0013671
2199.06	0.0012593
2208.7	0.0012623
2218.35	0.0013711
2227.99	0.0015219
2237.64	0.0016178
2247.28	0.0013163
2256.92	0.0013458
2266.57	0.001434
2276.21	0.0017727
2285.86	0.001935
2295.5	0.002265
2305.15	0.002625
2314.79	0.002105
2324.44	0.0017656
2334.08	0.0016498
2343.73	0.0015256
2353.37	0.0012406
2363.02	0.0012194
2372.66	0.0014653
2382.31	0.0015319
2391.95	0.0014356
2401.6	0.0013359
2411.24	0.0015636
2420.89	0.001232
2430.53	0.0012845
2440.18	0.0014465
2449.82	0.0012343
2459.47	0.002035
2469.11	0.002585
2478.75	0.002795
2488.4	0.002085
2498.04	0.002205
2507.69	0.001835
2517.33	0.002355
2526.98	0.002295
2536.62	0.002245
2546.27	0.0016524
2555.91	0.0017758
2565.56	0.0013743
2575.2	0.0012855
2584.85	0.0015809
2594.49	0.001613
2604.14	0.0014655
2613.78	0.0017792
2623.43	0.001785
2633.07	0.0011475
2642.72	0.0013314
2652.36	0.0017665
2662.01	0.001555
2671.65	0.0017279
2681.29	0.0017411
2690.94	0.0017653
2700.58	0.001805
2710.23	0.001795
2719.87	0.001795
2729.52	0.0016817
2739.16	0.002005
2748.81	0.002455
2758.45	0.002475
2768.1	0.002875
2777.74	0.002845
2787.39	0.003775
2797.03	0.004795
2806.68	0.007575
2816.32	0.010345
2825.97	0.009775
2835.61	0.010555
2845.26	0.011325
2854.9	0.013145
2864.55	0.016935
2874.19	0.019035
2883.84	0.020315
2893.48	0.024075
2903.12	0.027655
2912.77	0.030015
2922.41	0.035325
2932.06	0.045275
2941.7	0.053825
2951.35	0.048925
2960.99	0.034065
2970.64	0.021885
2980.28	0.014905
2989.93	0.011735
2999.57	0.010105
3009.22	0.009185
3018.86	0.008615
3028.51	0.008985
3038.15	0.009765
3047.8	0.009485
3057.44	0.008735
3067.09	0.010655
3076.73	0.013805
3086.38	0.010785
3096.02	0.004175
3105.67	0.002795
3115.31	0.002475
3124.95	0.002685
3134.6	0.002475
3144.24	0.002855
3153.89	0.002205
3163.53	0.001382
3173.18	0.0012322
3182.82	0.0010185
3192.47	0.0009758
3202.11	0.00085388
3211.76	0.0011464
3221.4	0.0009649
3231.05	0.0010397
3240.69	0.0009847
3250.34	0.000347
3259.98	0.00080816
3269.63	0.00085684
3279.27	0.000521
3288.92	0.000626
3298.56	0.00052
3308.21	0.000598
3317.85	0.0009681
3327.49	0.000546
3337.14	0.000613
3346.78	0.0009025
3356.43	0.000172
3366.07	0.0006889
3375.72	0.000539
3385.36	0.000651
3395.01	0.0012785
3404.65	0.000344
3414.3	0.000415
3423.94	9.5e-05
3433.59	0.000367
3443.23	0.000375
3452.88	0.000362
3462.52	0.0006968
3472.17	0.000407
3481.81	0.000294
3491.46	0.0011098
3501.1	0.0016106
3510.75	0.002625
3520.39	0.002405
3530.04	0.0015044
3539.68	0.0012036
3549.32	0.00122
3558.97	0.0011641
3568.61	0.0007445
3578.26	0.000219
3587.9	7.2e-05
3597.55	0.000593
3607.19	0.000363
3616.84	0.0007621
3626.48	0.000645
3636.13	0.000528
3645.77	0.000359
3655.42	0.000648
3665.06	0.000367
3674.71	0.0009739
3684.35	0.000346
3694	0.0011546
3703.64	0.0007078
3713.29	0.000412
3722.93	0.000386
3732.58	0.000881
3742.22	0.0007147
3751.86	0.000276
3761.51	0.000315
3771.15	0.00084515
3780.8	0.00082717
3790.44	0.000266
3800.09	0.000395
3809.73	0.0010143
3819.38	0.001014
3829.02	0.0007025
3838.67	0.0012876
3848.31	0.00034
3857.96	0.00086543
3867.6	0.001048
3877.25	0.00083883
3886.89	0.00084453
3896.54	0.001058
3906.18	0.0002
3915.83	0.0010538
3925.47	0.00084942
3935.12	0.0006996
3944.76	0.000445
3954.41	8e-05
3964.05	0.00055
3973.69	0.000523
3983.34	0.0011065
3992.98	0.00077501
