Infrared Spectrum: PHOSPHONIC ACID, CHLOROMETHYL-, BIS(4-CHLOROPHENYL) ESTER
Formula: C13 H10 Cl3 O3 P
CAS: 66392-83-4
Class: COBLENTZ
Instrument: Not specified, most likely a prism, grating, or hybrid spectrometer.
Sampling: TRANSMISSION
Path length: SMEAR
Resolution: 4
Origin: TENNESSEE EASTMAN COMPANY, RESEARCH LABORATORIES
MICROMETERS	TRANSMITTANCE
2.127	0.986
2.167	0.983
2.207	0.984
2.24699	0.983
2.28699	0.981
2.32699	0.974
2.36699	0.973
2.40699	0.966
2.44698	0.951
2.48698	0.921
2.52698	0.936
2.56698	0.951
2.60698	0.953
2.64697	0.953
2.68697	0.951
2.72697	0.948
2.76697	0.946
2.80697	0.944
2.84696	0.931
2.88696	0.891
2.92696	0.85
2.96696	0.797
3.00696	0.715
3.04695	0.654
3.08695	0.656
3.12695	0.686
3.16695	0.701
3.20695	0.688
3.24694	0.552
3.28694	0.445
3.32694	0.547
3.36694	0.445
3.40694	0.43
3.44693	0.649
3.48693	0.703
3.52693	0.691
3.56693	0.715
3.60693	0.708
3.64692	0.728
3.68692	0.758
3.72692	0.762
3.76692	0.762
3.80692	0.763
3.84691	0.77
3.88691	0.782
3.92691	0.777
3.96691	0.772
4.00691	0.797
4.0469	0.804
4.0869	0.805
4.1269	0.805
4.1669	0.79
4.2069	0.765
4.24689	0.753
4.28689	0.757
4.32689	0.76
4.36689	0.772
4.40689	0.782
4.44688	0.763
4.48688	0.782
4.52688	0.785
4.56688	0.814
4.60687	0.824
4.64687	0.83
4.68687	0.83
4.72687	0.832
4.76687	0.834
4.80686	0.839
4.84686	0.837
4.88686	0.834
4.92686	0.82
4.96686	0.819
5.00685	0.807
5.04685	0.798
5.08685	0.793
5.12685	0.78
5.16685	0.765
5.20684	0.757
5.24684	0.69
5.28684	0.606
5.32684	0.562
5.36684	0.656
5.40683	0.713
5.44683	0.716
5.48683	0.716
5.52683	0.716
5.56683	0.718
5.60682	0.718
5.64682	0.716
5.68682	0.71
5.72682	0.711
5.76682	0.716
5.80681	0.716
5.84681	0.708
5.88681	0.7
5.92681	0.701
5.96681	0.703
6.0068	0.691
6.0468	0.663
6.0868	0.614
6.1268	0.572
6.1668	0.601
6.20679	0.636
6.24679	0.594
6.28679	0.246
6.32679	0.232
6.36679	0.467
6.40678	0.515
6.44678	0.534
6.48678	0.539
6.52678	0.537
6.56678	0.525
6.60677	0.47
6.64677	0.279
6.68677	0.073
6.72677	0.016
6.76677	0.015
6.80676	0.123
6.84676	0.222
6.88676	0.321
6.92676	0.371
6.96676	0.432
7.00675	0.52
7.04675	0.541
7.08675	0.338
7.12675	0.155
7.16675	0.179
7.20674	0.398
7.24674	0.599
7.28674	0.634
7.32674	0.653
7.36674	0.653
7.40673	0.653
7.44673	0.653
7.48673	0.653
7.52673	0.651
7.56673	0.651
7.60672	0.651
7.64672	0.651
7.68672	0.443
7.72672	0.358
7.76672	0.323
7.80671	0.273
7.84671	0.301
7.88671	0.393
7.92671	0.484
7.96671	0.539
8.0067	0.536
8.0467	0.455
8.0867	0.323
8.1267	0.236
8.1667	0.232
8.20669	0.234
8.24669	0.214
8.28669	0.19
8.32669	0.172
8.36669	0.122
8.40668	0.118
8.44668	0.249
8.48668	0.433
8.52668	0.463
8.56668	0.343
8.60667	0.395
8.64667	0.574
8.68667	0.624
8.72667	0.634
8.76667	0.626
8.80666	0.594
8.84666	0.571
8.88666	0.566
8.92666	0.569
8.96666	0.603
9.00665	0.611
9.04665	0.579
9.08665	0.402
9.12665	0.247
9.16664	0.249
9.20664	0.5
9.24664	0.616
9.28664	0.654
9.32664	0.668
9.36663	0.675
9.40663	0.681
9.44663	0.688
9.48663	0.706
9.52663	0.711
9.56662	0.715
9.60662	0.715
9.64662	0.715
9.68662	0.713
9.72662	0.711
9.76661	0.678
9.80661	0.489
9.84661	0.413
9.88661	0.601
9.92661	0.639
9.9666	0.654
10.0066	0.656
10.0466	0.651
10.0866	0.629
10.1266	0.603
10.1666	0.562
10.2066	0.499
10.2466	0.435
10.2866	0.368
10.3266	0.321
10.3666	0.283
10.4066	0.237
10.4466	0.202
10.4866	0.185
10.5266	0.174
10.5666	0.15
10.6066	0.12
10.6466	0.122
10.6866	0.144
10.7266	0.142
10.7666	0.162
10.8066	0.231
10.8466	0.309
10.8866	0.385
10.9266	0.462
10.9666	0.509
11.0066	0.559
11.0466	0.589
11.0865	0.613
11.1265	0.626
11.1665	0.638
11.2065	0.653
11.2465	0.663
11.2865	0.673
11.3265	0.678
11.3665	0.683
11.4065	0.685
11.4465	0.688
11.4865	0.693
11.5265	0.693
11.5665	0.695
11.6065	0.696
11.6465	0.696
11.6865	0.696
11.7265	0.678
11.7665	0.639
11.8065	0.552
11.8465	0.427
11.8865	0.313
11.9265	0.251
11.9665	0.199
12.0065	0.152
12.0465	0.169
12.0865	0.293
12.1265	0.407
12.1665	0.472
12.2065	0.507
12.2465	0.527
12.2865	0.527
12.3265	0.549
12.3665	0.576
12.4065	0.604
12.4465	0.618
12.4865	0.633
12.5265	0.644
12.5665	0.654
12.6065	0.666
12.6465	0.67
12.6865	0.67
12.7265	0.664
12.7665	0.619
12.8065	0.576
12.8465	0.577
12.8865	0.613
12.9265	0.626
12.9665	0.638
13.0065	0.643
13.0464	0.643
13.0864	0.641
13.1264	0.633
13.1664	0.601
13.2064	0.539
13.2464	0.492
13.2864	0.504
13.3264	0.576
13.3664	0.618
13.4064	0.641
13.4464	0.653
13.4864	0.663
13.5264	0.671
13.5664	0.673
13.6064	0.675
13.6464	0.676
13.6864	0.676
13.7264	0.676
13.7664	0.676
13.8064	0.666
13.8464	0.631
13.8864	0.574
13.9264	0.509
13.9664	0.489
14.0064	0.517
14.0464	0.554
14.0864	0.584
14.1264	0.597
14.1664	0.603
14.2064	0.608
14.2464	0.609
14.2864	0.611
14.3264	0.611
14.3664	0.611
14.4064	0.613
14.4464	0.614
14.4864	0.621
14.5264	0.624
14.5664	0.624
14.6064	0.624
14.6464	0.623
14.6864	0.623
14.7264	0.623
14.7664	0.623
14.8064	0.623
14.8464	0.619
14.8864	0.614
14.9264	0.606
14.9664	0.597
15.0064	0.596
15.0463	0.594
15.0863	0.592
15.1263	0.592
15.1663	0.594
15.2063	0.592
15.2463	0.589
15.2863	0.584
15.3263	0.577
15.3663	0.574
15.4063	0.571
15.4463	0.567
15.4863	0.561
15.5263	0.556
15.5663	0.549
15.6063	0.541
15.6463	0.53
15.6863	0.527
15.7263	0.525
15.7663	0.525
15.8063	0.524
15.8463	0.524
15.8863	0.525
15.9263	0.525
15.9663	0.525
16.0063	0.525
