Infrared Spectrum: 4-Chlorophenyl cyclopropyl ketone
Formula: C 10 H 9 Cl O
CAS: 6640-25-1
State: gas
Instrument: HP-GC/MS/IRD
Origin: NIST Mass Spectrometry Data Center
1/CM	ABSORBANCE
550	0.0017388
562	0.0006762
574	0.0002622
586	1.38e-05
598	0.0001794
610	0.0001104
622	0.0003312
634	0.0003864
646	0.0002898
658	0.0009798
670	0.002691
682	0.0047748
694	0.0030774
706	0.0016836
718	0.0017388
730	0.0055614
742	0.0168222
754	0.0194166
766	0.0045954
778	0.003105
790	0.004002
802	0.0074658
814	0.0162978
826	0.024633
838	0.0232806
850	0.0132204
862	0.0063894
874	0.004347
886	0.003381
898	0.003588
910	0.00483
922	0.0053268
934	0.005934
946	0.0064584
958	0.0089976
970	0.0180504
982	0.0538062
994	0.138
1006	0.0422694
1018	0.0172776
1030	0.0158838
1042	0.0217074
1054	0.0096876
1066	0.010488
1078	0.0187128
1090	0.0810888
1102	0.0401442
1114	0.0105432
1126	0.005451
1138	0.0036294
1150	0.0039744
1162	0.0070656
1174	0.0180228
1186	0.0119232
1198	0.026703
1210	0.0938262
1222	0.0879336
1234	0.0343068
1246	0.0110814
1258	0.007314
1270	0.007521
1282	0.0060444
1294	0.0039192
1306	0.0028566
1318	0.0026772
1330	0.0039054
1342	0.007728
1354	0.0171672
1366	0.039675
1378	0.0763278
1390	0.0451398
1402	0.054579
1414	0.0278898
1426	0.0123786
1438	0.0092046
1450	0.0105156
1462	0.0102258
1474	0.0121992
1486	0.0167532
1498	0.0074658
1510	0.003588
1522	0.002829
1534	0.0029118
1546	0.0043746
1558	0.0078522
1570	0.0159942
1582	0.0345966
1594	0.0597954
1606	0.0178434
1618	0.0071622
1630	0.0061548
1642	0.0065688
1654	0.0087078
1666	0.0150282
1678	0.044919
1690	0.09384
1702	0.0577254
1714	0.0171258
1726	0.0081972
1738	0.0051474
1750	0.0034362
1762	0.0031602
1774	0.0026772
1786	0.0026634
1798	0.0021528
1810	0.0012834
1822	0.0009522
1834	0.001173
1846	0.0014628
1858	0.0013662
1870	0.001173
1882	0.0014628
1894	0.0020148
1906	0.0021942
1918	0.0017664
1930	0.0013662
1942	0.0009522
1954	0.00069
1966	0.0006348
1978	0.0005934
1990	0.000414
2002	0.000207
2014	0.0001518
2026	0.0003036
2038	0.0003726
2050	0.000345
2062	0.0004416
2074	0.0006762
2086	0.0008142
2098	0.000828
2110	0.0006762
2122	0.00069
2134	0.0006072
2146	0.0002622
2158	0.0001518
2170	0.0001104
2182	6.9e-05
2194	0
2206	4.14e-05
2218	6.9e-05
2230	0.0001794
2242	0.0001794
2254	0.0001656
2266	0.000207
2278	0.0003312
2290	0.000345
2302	0.0003174
2314	0.000276
2326	0.0001932
2338	0.0002346
2350	0.000345
2362	0.0005106
2374	0.000552
2386	0.0004278
2398	0.0003588
2410	0.000345
2422	0.0004278
2434	0.0004968
2446	0.0003726
2458	0.0003726
2470	0.0004968
2482	0.0007314
2494	0.0006762
2506	0.000345
2518	0.0003726
2530	0.0005796
2542	0.000759
2554	0.000759
2566	0.0005934
2578	0.0004278
2590	0.0003312
2602	0.0003864
2614	0.0002346
2626	5.52e-05
2638	0
2650	6.9e-05
2662	6.9e-05
2674	8.28e-05
2686	5.52e-05
2698	6.9e-05
2710	5.52e-05
2722	8.28e-05
2734	1.38e-05
2746	5.52e-05
2758	0.0001104
2770	0.0001656
2782	0.0001794
2794	0.0003174
2806	0.000414
2818	0.0002622
2830	0.0001656
2842	0.000207
2854	0.0002208
2866	0.0002898
2878	0.0002622
2890	0.0002346
2902	0.0002898
2914	0.0001932
2926	0.0001518
2938	0.0002208
2950	0.0003312
2962	0.0005658
2974	0.0011178
2986	0.002208
2998	0.003588
3010	0.0098256
3022	0.0192786
3034	0.0098256
3046	0.0068172
3058	0.006969
3070	0.0056304
3082	0.0064584
3094	0.0088182
3106	0.0073416
3118	0.0028014
3130	0.0012834
3142	0.0008832
3154	0.0003864
3166	0.0002898
3178	0.0001794
3190	0.0001518
3202	8.28e-05
3214	1.38e-05
3226	4.14e-05
3238	4.14e-05
3250	5.52e-05
3262	6.9e-05
3274	9.66e-05
3286	8.28e-05
3298	0.0001104
3310	0.000138
3322	0.0002622
3334	0.0003864
3346	0.000759
3358	0.0015594
3370	0.001656
3382	0.000897
3394	0.0004002
3406	0.0002622
3418	0.0001518
3430	0.0001242
3442	8.28e-05
3454	5.52e-05
3466	8.28e-05
3478	0.0001242
3490	4.14e-05
3502	9.66e-05
3514	9.66e-05
3526	6.9e-05
3538	0.0001104
3550	4.14e-05
3562	0
3574	0.0001656
3586	0.0001518
3598	8.28e-05
3610	8.28e-05
3622	9.66e-05
3634	0.0001104
3646	0.0001242
3658	0.0001932
3670	0.0001518
3682	0.0001656
3694	9.66e-05
3706	0.0001932
3718	0.0003726
3730	0.0003312
3742	0.000207
3754	0.0001518
3766	0.0002208
3778	0.000207
3790	0.0002484
3802	0.0001794
3814	0.0002484
3826	0.0003174
3838	0.0003726
