Infrared Spectrum: 2-Chloro-4-methylphenol
Formula: C 7 H 7 Cl O
CAS: 6640-27-3
State: gas
Origin: EPA-IR VAPOR PHASE LIBRARY
1/CM	ABSORBANCE
549.8	0.00756426
559.445	0.00875426
569.09	0.00620426
578.734	0.00263426
588.379	0.00150426
598.024	0.00137426
607.669	0.00213426
617.313	0.00262426
626.958	0.00263426
636.603	0.00166426
646.248	0.00137426
655.893	0.00128426
665.537	0.00239426
675.182	0.00779426
684.827	0.0124543
694.472	0.0115043
704.116	0.00583426
713.761	0.00280426
723.406	0.00270426
733.051	0.00440426
742.695	0.00880426
752.34	0.0205143
761.985	0.0293743
771.63	0.0274843
781.275	0.0149843
790.919	0.0111543
800.564	0.0219943
810.209	0.0388743
819.854	0.0286343
829.498	0.0158143
839.143	0.00589426
848.788	0.00637426
858.433	0.0110543
868.078	0.0146743
877.722	0.0161743
887.367	0.0146443
897.012	0.0103043
906.657	0.00394426
916.301	0.00226426
925.946	0.00206426
935.591	0.00262426
945.236	0.00295426
954.88	0.00277426
964.525	0.00292426
974.17	0.00391426
983.815	0.00543426
993.46	0.00632426
1003.1	0.00545426
1012.75	0.00329426
1022.39	0.00333426
1032.04	0.00609426
1041.68	0.0184943
1051.33	0.0264643
1060.97	0.0200443
1070.62	0.00765426
1080.26	0.00592426
1089.91	0.00580426
1099.55	0.00490426
1109.2	0.00418426
1118.84	0.00440426
1128.49	0.00616426
1138.13	0.00932426
1147.78	0.00930426
1157.42	0.0132343
1167.07	0.0335643
1176.71	0.0804243
1186.36	0.0952843
1196	0.0745743
1205.64	0.0636243
1215.29	0.0567943
1224.93	0.0446643
1234.58	0.0239443
1244.22	0.0363243
1253.87	0.0522843
1263.51	0.0583443
1273.16	0.0761943
1282.8	0.0813943
1292.45	0.0436743
1302.09	0.0124543
1311.74	0.00940426
1321.38	0.0141043
1331.03	0.0219143
1340.67	0.0207143
1350.32	0.00924426
1359.96	0.00537426
1369.61	0.00538426
1379.25	0.00552426
1388.9	0.00621426
1398.54	0.00887426
1408.18	0.0133843
1417.83	0.0143443
1427.47	0.0105843
1437.12	0.00793426
1446.76	0.00758426
1456.41	0.00799426
1466.05	0.00951426
1475.7	0.0203143
1485.34	0.0664643
1494.99	0.161544
1504.63	0.178394
1514.28	0.0915743
1523.92	0.0202643
1533.57	0.00773426
1543.21	0.00587426
1552.86	0.00643426
1562.5	0.00771426
1572.15	0.00895426
1581.79	0.0114643
1591.44	0.0130943
1601.08	0.0137643
1610.73	0.0130543
1620.37	0.0107143
1630.01	0.00542426
1639.66	0.00336426
1649.3	0.00216426
1658.95	0.00140426
1668.59	0.00121426
1678.24	0.00115426
1687.88	0.00110426
1697.53	0.00129426
1707.17	0.00188426
1716.82	0.00292426
1726.46	0.00326426
1736.11	0.00295426
1745.75	0.00246426
1755.4	0.00188426
1765.04	0.00096856
1774.69	0.00073946
1784.33	0.00088036
1793.98	0.00133426
1803.62	0.00150426
1813.27	0.00122426
1822.91	0.00080626
1832.55	0.00065866
1842.2	0.00070866
1851.84	0.00099686
1861.49	0.00154426
1871.13	0.00259426
1880.78	0.00271426
1890.42	0.00189426
1900.07	0.00097186
1909.71	0.00070036
1919.36	0.00059536
1929	0.00060626
1938.65	0.00062586
1948.29	0.00069176
1957.94	0.00065486
1967.58	0.00063376
1977.23	0.00054946
1986.87	0.00044606
1996.52	0.00056726
2006.16	0.00070206
2015.81	0.00087386
2025.45	0.00111426
2035.1	0.00113426
2044.74	0.00121426
2054.38	0.00100426
2064.03	0.00071686
2073.67	0.00047516
2083.32	0.00043936
2092.96	0.00044456
2102.61	0.00044876
2112.25	0.00040016
2121.9	0.00023876
2131.54	0.00032576
2141.19	0.00030156
2150.83	0.00038976
2160.48	0.00039406
2170.12	0.00043746
2179.77	0.00038676
2189.41	0.00026196
2199.06	0.00018146
2208.7	0.00014876
2218.35	0.00019416
2227.99	0.00032696
2237.64	0.00048416
2247.28	0.00058146
2256.92	0.00081216
2266.57	0.00088106
2276.21	0.00069416
2285.86	0.00047876
2295.5	0.00039006
2305.15	0.00040086
2314.79	0.00033626
2324.44	0.00042686
2334.08	0.00037076
2343.73	0.00051436
2353.37	0.00078906
2363.02	0.00111426
2372.66	0.00141426
2382.31	0.00134426
2391.95	0.00123426
2401.6	0.00080556
2411.24	0.00057096
2420.89	0.00052356
2430.53	0.00050116
2440.18	0.00053506
2449.82	0.00089846
2459.47	0.00125426
2469.11	0.00155426
2478.75	0.00137426
2488.4	0.00124426
2498.04	0.00124426
2507.69	0.00122426
2517.33	0.00106426
2526.98	0.00120426
2536.62	0.00123426
2546.27	0.00106426
2555.91	0.00073786
2565.56	0.00041506
2575.2	0.00050746
2584.85	0.00054206
2594.49	0.00073766
2604.14	0.00064426
2613.78	0.00067406
2623.43	0.00066396
2633.07	0.00049986
2642.72	0.00035736
2652.36	0.00060486
2662.01	0.00060066
2671.65	0.00075396
2681.29	0.00052396
2690.94	0.00048716
2700.58	0.00039126
2710.23	0.00044326
2719.87	0.00040736
2729.52	0.00057096
2739.16	0.00102426
2748.81	0.00146426
2758.45	0.00124426
2768.1	0.00083676
2777.74	0.00087086
2787.39	0.00078396
2797.03	0.00083826
2806.68	0.00073746
2816.32	0.00111426
2825.97	0.00124426
2835.61	0.00176426
2845.26	0.00263426
2854.9	0.00473426
2864.55	0.00880426
2874.19	0.0122043
2883.84	0.0119543
2893.48	0.0102343
2903.12	0.0103743
2912.77	0.0127243
2922.41	0.0189243
2932.06	0.0253243
2941.7	0.0227443
2951.35	0.0134343
2960.99	0.00824426
2970.64	0.00632426
2980.28	0.00593426
2989.93	0.00702426
2999.57	0.00865426
3009.22	0.0103543
3018.86	0.0114043
3028.51	0.0135943
3038.15	0.0171743
3047.8	0.0166343
3057.44	0.0122943
3067.09	0.0100043
3076.73	0.00737426
3086.38	0.00508426
3096.02	0.00347426
3105.67	0.00228426
3115.31	0.00150426
3124.95	0.00106426
3134.6	0.00065796
3144.24	0.00034176
3153.89	0.00044566
3163.53	0.00048156
3173.18	0.00076446
3182.82	0.00071916
3192.47	0.00071706
3202.11	0.00063576
3211.76	0.00043146
3221.4	0.00061616
3231.05	0.00039316
3240.69	0.00042026
3250.34	0.00054366
3259.98	0.00039466
3269.63	0.00077446
3279.27	0.00079036
3288.92	0.00078446
3298.56	0.00071646
3308.21	0.00039086
3317.85	0.00019806
3327.49	0.00027386
3337.14	0.00039786
3346.78	0.00059706
3356.43	0.00075736
3366.07	0.00071246
3375.72	0.00046316
3385.36	0.00039816
3395.01	0.00042716
3404.65	0.00019906
3414.3	0.00023326
3423.94	0.00019156
3433.59	0.00023486
3443.23	0.00037576
3452.88	0.00011386
3462.52	0.00017166
3472.17	0.00015856
3481.81	0.00032736
3491.46	0.00024186
3501.1	0.00043486
3510.75	0.00056576
3520.39	0.00056666
3530.04	0.00096826
3539.68	0.00126426
3549.32	0.00238426
3558.97	0.00590426
3568.61	0.0321343
3578.26	0.0895343
3587.9	0.0893343
3597.55	0.0242743
3607.19	0.00485426
3616.84	0.00219426
3626.48	0.00180426
3636.13	0.00225426
3645.77	0.00498426
3655.42	0.00463426
3665.06	0.00250426
3674.71	0.00078196
3684.35	0.00040696
3694	0.00028366
3703.64	0.00049386
3713.29	0.00051726
3722.93	0.00055516
3732.58	0.00060966
3742.22	0.00030176
3751.86	0.00023596
3761.51	0.00051376
3771.15	0.00030416
3780.8	0.00012136
3790.44	0.00047866
3800.09	0.00054756
3809.73	0.00061606
3819.38	0.00060236
3829.02	0.00056556
3838.67	0.00041016
3848.31	0.00058066
3857.96	0.00058466
3867.6	0.00081646
3877.25	0.00097336
3886.89	0.00098716
3896.54	0.00076066
3906.18	0.00055286
3915.83	0.00069626
3925.47	0.00070806
3935.12	0.00078026
3944.76	0.00058886
3954.41	0.00064956
3964.05	0.00067446
3973.69	0.00053326
3983.34	0.00076196
3992.98	0.00045936
