Infrared Spectrum: 6-CHLORO-3-CYCLOHEXYL-3,4-DIHYDRO-8-METHYL-2H-1,3-BENZOXAZINE
Formula: C15 H20 Cl N O
CAS: 6640-34-2
State: SOLUTION (10% IN CCl4 FOR 5000-1350 CM^-^1, 10% IN CS2 FOR 1350-625 CM^-^1)
Class: COBLENTZ
Instrument: Not specified, most likely a prism, grating, or hybrid spectrometer.
Sampling: TRANSMISSION
Path length: 0.01 CM, 0.01 CM
Resolution: 4
Origin: DOW CHEMICAL COMPANY
MICROMETERS	TRANSMITTANCE
2.034	0.878
2.07318	0.881
2.11235	0.883
2.15153	0.883
2.1907	0.889
2.22988	0.886
2.26905	0.876
2.30823	0.873
2.3474	0.878
2.38658	0.886
2.42576	0.889
2.46493	0.897
2.50411	0.902
2.54328	0.902
2.58246	0.902
2.62163	0.907
2.66081	0.912
2.69999	0.913
2.73916	0.912
2.77834	0.905
2.81751	0.9
2.85669	0.894
2.89586	0.889
2.93504	0.883
2.97421	0.881
3.01339	0.876
3.05257	0.878
3.09174	0.879
3.13092	0.875
3.17009	0.873
3.20927	0.871
3.24844	0.855
3.28762	0.803
3.3268	0.686
3.36597	0.496
3.40515	0.115
3.44432	0.253
3.4835	0.31
3.52267	0.462
3.56185	0.701
3.60102	0.756
3.6402	0.792
3.67938	0.823
3.71855	0.823
3.75773	0.813
3.7969	0.847
3.83608	0.866
3.87525	0.878
3.91443	0.894
3.95361	0.897
3.99278	0.902
4.03196	0.91
4.07113	0.913
4.11031	0.925
4.14948	0.926
4.18866	0.918
4.22783	0.902
4.26701	0.896
4.30619	0.907
4.34536	0.925
4.38454	0.93
4.42371	0.933
4.46289	0.939
4.50206	0.941
4.54124	0.946
4.58042	0.946
4.61959	0.946
4.65877	0.948
4.69794	0.949
4.73712	0.949
4.77629	0.949
4.81547	0.949
4.85464	0.949
4.89382	0.948
4.933	0.948
4.97217	0.944
5.01135	0.941
5.05052	0.946
5.0897	0.943
5.12887	0.948
5.16805	0.948
5.20723	0.941
5.2464	0.938
5.28558	0.936
5.32475	0.936
5.36393	0.939
5.4031	0.933
5.44228	0.936
5.48145	0.939
5.52063	0.941
5.55981	0.939
5.59898	0.938
5.63816	0.939
5.67733	0.939
5.71651	0.923
5.75568	0.897
5.79486	0.871
5.83404	0.883
5.87321	0.899
5.91239	0.909
5.95156	0.899
5.99074	0.889
6.02991	0.886
6.06909	0.883
6.10826	0.878
6.14744	0.863
6.18662	0.81
6.22579	0.717
6.26497	0.605
6.30414	0.597
6.34332	0.587
6.38249	0.542
6.42167	0.47
6.46085	0.464
6.50002	0.556
6.5392	0.59
6.57837	0.616
6.61755	0.641
6.65672	0.634
6.6959	0.504
6.73507	0.198
6.77425	0.073
6.81343	0.176
6.8526	0.211
6.89178	0.277
6.93095	0.456
6.97013	0.581
7.0093	0.66
7.04848	0.748
7.08766	0.771
7.12683	0.758
7.16601	0.715
7.20518	0.597
7.24436	0.491
7.28353	0.616
7.32271	0.639
7.36188	0.602
7.40106	0.634
7.44024	0.706
7.47941	0.73
7.51859	0.672
7.55776	0.608
7.59694	0.689
7.63611	0.759
7.67529	0.792
7.71447	0.797
7.75364	0.798
7.79282	0.803
7.83199	0.758
7.87117	0.633
7.91034	0.547
7.94952	0.6
7.98869	0.605
8.02787	0.435
8.06705	0.384
8.10622	0.25
8.1454	0.087
8.18457	0.118
8.22375	0.4
8.26292	0.615
8.3021	0.616
8.34128	0.392
8.38045	0.316
8.41963	0.556
8.4588	0.631
8.49798	0.618
8.53715	0.673
8.57633	0.698
8.6155	0.641
8.65468	0.537
8.69386	0.438
8.73303	0.467
8.77221	0.569
8.81138	0.522
8.85056	0.483
8.88973	0.472
8.92891	0.501
8.96809	0.631
9.00726	0.728
9.04644	0.745
9.08561	0.748
9.12479	0.785
9.16396	0.803
9.20314	0.797
9.24231	0.79
9.28149	0.784
9.32067	0.805
9.35984	0.836
9.39902	0.831
9.43819	0.73
9.47737	0.641
9.51654	0.646
9.55572	0.652
9.5949	0.62
9.63407	0.631
9.67325	0.668
9.71242	0.714
9.7516	0.748
9.79077	0.756
9.82995	0.8
9.86912	0.834
9.9083	0.84
9.94748	0.81
9.98665	0.759
10.0258	0.696
10.065	0.694
10.1042	0.741
10.1434	0.717
10.1825	0.66
10.2217	0.602
10.2609	0.65
10.3001	0.758
10.3392	0.779
10.3784	0.771
10.4176	0.805
10.4568	0.832
10.4959	0.831
10.5351	0.8
10.5743	0.753
10.6135	0.668
10.6526	0.545
10.6918	0.381
10.731	0.204
10.7702	0.131
10.8093	0.108
10.8485	0.087
10.8877	0.131
10.9269	0.272
10.966	0.405
11.0052	0.472
11.0444	0.511
11.0836	0.576
11.1227	0.608
11.1619	0.574
11.2011	0.516
11.2403	0.521
11.2794	0.55
11.3186	0.534
11.3578	0.532
11.397	0.519
11.4361	0.436
11.4753	0.277
11.5145	0.107
11.5537	0.038
11.5929	0.053
11.632	0.073
11.6712	0.11
11.7104	0.272
11.7496	0.449
11.7887	0.577
11.8279	0.641
11.8671	0.704
11.9063	0.74
11.9454	0.777
11.9846	0.798
12.0238	0.816
12.063	0.827
12.1021	0.836
12.1413	0.842
12.1805	0.845
12.2197	0.847
12.2588	0.849
12.298	0.845
12.3372	0.844
12.3764	0.842
12.4155	0.842
12.4547	0.839
12.4939	0.831
12.5331	0.819
12.5722	0.813
12.6114	0.806
12.6506	0.788
12.6898	0.782
12.7289	0.777
12.7681	0.769
12.8073	0.767
12.8465	0.803
12.8856	0.829
12.9248	0.837
12.964	0.834
13.0032	0.824
13.0424	0.803
13.0815	0.769
13.1207	0.724
13.1599	0.663
13.1991	0.631
13.2382	0.615
13.2774	0.639
13.3166	0.688
13.3558	0.719
13.3949	0.733
13.4341	0.738
13.4733	0.72
13.5125	0.694
13.5516	0.659
13.5908	0.629
13.63	0.605
13.6692	0.582
13.7083	0.55
13.7475	0.517
13.7867	0.48
13.8259	0.443
13.865	0.451
13.9042	0.543
13.9434	0.625
13.9826	0.675
14.0217	0.696
14.0609	0.701
14.1001	0.704
14.1393	0.698
14.1784	0.67
14.2176	0.621
14.2568	0.563
14.296	0.519
14.3351	0.496
14.3743	0.506
14.4135	0.545
14.4527	0.582
14.4918	0.615
14.531	0.639
14.5702	0.657
14.6094	0.659
14.6486	0.657
14.6877	0.649
14.7269	0.639
14.7661	0.633
14.8053	0.628
14.8444	0.623
14.8836	0.615
14.9228	0.608
14.962	0.607
15.0011	0.605
15.0403	0.597
15.0795	0.589
15.1187	0.581
15.1578	0.569
15.197	0.56
15.2362	0.548
15.2754	0.538
15.3145	0.53
15.3537	0.525
15.3929	0.521
15.4321	0.514
15.4712	0.506
15.5104	0.5
15.5496	0.493
15.5888	0.487
15.6279	0.482
15.6671	0.475
15.7063	0.469
15.7455	0.462
15.7846	0.457
15.8238	0.449
15.863	0.443
15.9022	0.449
