Infrared Spectrum: 5-Benzyloxyindole-2-carboxylic acid
Formula: C 16 H 13 N O 3
CAS: 6640-09-1
State: gas
Origin: EPA-IR VAPOR PHASE LIBRARY
1/CM	ABSORBANCE
549.8	0.0015549
559.445	0.0012664
569.09	0.00228
578.734	0.00238
588.379	0.0037
598.024	0.00377
607.669	0.00232
617.313	0.00269
626.958	0.00221
636.603	0.00256
646.248	0.00227
655.893	0.0019456
665.537	0.00232
675.182	0.00434
684.827	0.00764
694.472	0.01163
704.116	0.01593
713.761	0.02131
723.406	0.01754
733.051	0.01545
742.695	0.01711
752.34	0.01506
761.985	0.00821
771.63	0.00837
781.275	0.0112
790.919	0.01445
800.564	0.01218
810.209	0.00873
819.854	0.00739
829.498	0.00791
839.143	0.00681
848.788	0.00637
858.433	0.0057
868.078	0.00496
877.722	0.00338
887.367	0.00374
897.012	0.0095
906.657	0.00795
916.301	0.0047
925.946	0.00355
935.591	0.00373
945.236	0.00475
954.88	0.00419
964.525	0.00362
974.17	0.00357
983.815	0.00526
993.46	0.00822
1003.1	0.0107
1012.75	0.01327
1022.39	0.01636
1032.04	0.01294
1041.68	0.00778
1051.33	0.00465
1060.97	0.00546
1070.62	0.00521
1080.26	0.00438
1089.91	0.00253
1099.55	0.0048
1109.2	0.00518
1118.84	0.01045
1128.49	0.01444
1138.13	0.02201
1147.78	0.04301
1157.42	0.03141
1167.07	0.00892
1176.71	0.00552
1186.36	0.00554
1196	0.00546
1205.64	0.01852
1215.29	0.0352
1224.93	0.02441
1234.58	0.01238
1244.22	0.01156
1253.87	0.00708
1263.51	0.01079
1273.16	0.02549
1282.8	0.01868
1292.45	0.00817
1302.09	0.00765
1311.74	0.00894
1321.38	0.00797
1331.03	0.0063
1340.67	0.00489
1350.32	0.0044
1359.96	0.00476
1369.61	0.00762
1379.25	0.00839
1388.9	0.00514
1398.54	0.00498
1408.18	0.00578
1417.83	0.005
1427.47	0.00499
1437.12	0.00774
1446.76	0.01859
1456.41	0.0233
1466.05	0.02739
1475.7	0.03493
1485.34	0.01609
1494.99	0.00869
1504.63	0.00704
1514.28	0.00865
1523.92	0.00704
1533.57	0.00411
1543.21	0.00491
1552.86	0.0066
1562.5	0.0067
1572.15	0.00783
1581.79	0.00982
1591.44	0.00648
1601.08	0.00468
1610.73	0.00508
1620.37	0.00746
1630.01	0.00711
1639.66	0.00351
1649.3	0.00266
1658.95	0.00244
1668.59	0.00255
1678.24	0.00291
1687.88	0.00298
1697.53	0.00261
1707.17	0.00243
1716.82	0.00231
1726.46	0.0020181
1736.11	0.0016671
1745.75	0.0017505
1755.4	0.0014679
1765.04	0.0013629
1774.69	0.00146
1784.33	0.0016504
1793.98	0.00214
1803.62	0.0019377
1813.27	0.0015581
1822.91	0.0017443
1832.55	0.0018263
1842.2	0.0018671
1851.84	0.0018757
1861.49	0.0020151
1871.13	0.0018317
1880.78	0.0015772
1890.42	0.0016011
1900.07	0.0013825
1909.71	0.0015678
1919.36	0.0012796
1929	0.0016364
1938.65	0.0018222
1948.29	0.0019341
1957.94	0.0020152
1967.58	0.0014883
1977.23	0.0016464
1986.87	0.0013196
1996.52	0.0013889
2006.16	0.0015392
2015.81	0.0013318
2025.45	0.0014433
2035.1	0.0014717
2044.74	0.0014228
2054.38	0.0013522
2064.03	0.001378
2073.67	0.0011791
2083.32	0.0014242
2092.96	0.00120713
2102.61	0.0010472
2112.25	0.0012485
2121.9	0.0011056
2131.54	0.00112776
2141.19	0.000997
2150.83	0.0013958
2160.48	0.00121947
2170.12	0.00116782
2179.77	0.0013738
2189.41	0.00118881
2199.06	0.0013395
2208.7	0.0014134
2218.35	0.0013811
2227.99	0.0012697
2237.64	0.00115218
2247.28	0.00118741
2256.92	0.00112694
2266.57	0.00119669
2276.21	0.00117882
2285.86	0.0013418
2295.5	0.00122715
2305.15	0.0012457
2314.79	0.0013285
2324.44	0.0010985
2334.08	0.0012996
2343.73	0.001526
2353.37	0.0013537
2363.02	0.0012585
2372.66	0.0014566
2382.31	0.001101
2391.95	0.0013654
2401.6	0.0014681
2411.24	0.0014857
2420.89	0.0010447
2430.53	0.00117957
2440.18	0.00114343
2449.82	0.00114325
2459.47	0.0014199
2469.11	0.0015101
2478.75	0.0014135
2488.4	0.0014239
2498.04	0.0013269
2507.69	0.000969
2517.33	0.0012421
2526.98	0.00118505
2536.62	0.0012311
2546.27	0.0012814
2555.91	0.00113104
2565.56	0.000872
2575.2	0.000933
2584.85	0.0012528
2594.49	0.0013044
2604.14	0.0014775
2613.78	0.000994
2623.43	0.0013872
2633.07	0.00118762
2642.72	0.0013743
2652.36	0.0013241
2662.01	0.0015988
2671.65	0.00119439
2681.29	0.00112472
2690.94	0.00116416
2700.58	0.0013397
2710.23	0.0012718
2719.87	0.001002
2729.52	0.0012594
2739.16	0.0013004
2748.81	0.001006
2758.45	0.0012664
2768.1	0.0012559
2777.74	0.000737
2787.39	0.0010462
2797.03	0.00114083
2806.68	0.001351
2816.32	0.0014538
2825.97	0.0020972
2835.61	0.00218
2845.26	0.0019278
2854.9	0.00279
2864.55	0.00388
2874.19	0.0051
2883.84	0.0052
2893.48	0.00433
2903.12	0.00447
2912.77	0.00387
2922.41	0.00439
2932.06	0.00425
2941.7	0.00501
2951.35	0.00425
2960.99	0.00328
2970.64	0.00268
2980.28	0.002025
2989.93	0.0016942
2999.57	0.0020192
3009.22	0.00265
3018.86	0.00461
3028.51	0.00829
3038.15	0.00983
3047.8	0.00728
3057.44	0.00673
3067.09	0.01025
3076.73	0.00933
3086.38	0.00621
3096.02	0.00461
3105.67	0.00388
3115.31	0.00303
3124.95	0.0018894
3134.6	0.00323
3144.24	0.00239
3153.89	0.0011117
3163.53	0.0010655
3173.18	0.0011019
3182.82	0.0016208
3192.47	0.000777
3202.11	0.00119823
3211.76	0.000834
3221.4	0.000798
3231.05	0.000954
3240.69	0.000605
3250.34	0.000857
3259.98	0.000899
3269.63	0.00092
3279.27	0.000777
3288.92	0.000559
3298.56	0.000666
3308.21	0.000609
3317.85	0.001269
3327.49	0.00118742
3337.14	0.001015
3346.78	0.000658
3356.43	0.0010972
3366.07	0.00078
3375.72	0.000491
3385.36	0.001021
3395.01	0.0010335
3404.65	0.0013673
3414.3	0.0013299
3423.94	0.000546
3433.59	0.00112263
3443.23	0.0014825
3452.88	0.0013385
3462.52	0.0015199
3472.17	0.0020493
3481.81	0.00285
3491.46	0.00513
3501.1	0.0061
3510.75	0.00808
3520.39	0.01561
3530.04	0.00745
3539.68	0.00216
3549.32	0.0010898
3558.97	0.0012953
3568.61	0.000945
3578.26	0.000485
3587.9	0.001002
3597.55	0.001008
3607.19	0.0010789
3616.84	0.000711
3626.48	0.000834
3636.13	0.000707
3645.77	0.000897
3655.42	0.000943
3665.06	0.000857
3674.71	0.000585
3684.35	0.00091
3694	0.000985
3703.64	0.00046
3713.29	0.0010643
3722.93	0.0013751
3732.58	0.000866
3742.22	0.000679
3751.86	0.00106
3761.51	0.0010565
3771.15	0.000966
3780.8	0.00119659
3790.44	0.000683
3800.09	0.00093
3809.73	0.000893
3819.38	0.0010717
3829.02	0.000535
3838.67	0.000821
3848.31	0.00079
3857.96	0.001236
3867.6	0.000824
3877.25	0.000628
3886.89	0.00120504
3896.54	0.000874
3906.18	0.000749
3915.83	0.000839
3925.47	0.000872
3935.12	0.000536
3944.76	0.0010814
3954.41	0.000963
3964.05	0.0013366
3973.69	0.000941
3983.34	0.0010794
3992.98	0.00095
