Infrared Spectrum: Pyruvic acid, 9H-purin-6-yl-hydrazone
Formula: C8 H8 N6 O2
CAS: 6642-25-7
State: SOLID (0.7 mg / 650 mg KBr DISC)
Class: COBLENTZ III
Instrument: PERKIN-ELMER 21 (GRATING)
Instrument parameters: FILTER CHANGE ABOUT 1020 CM^-^1
Sampling: TRANSMISSION
Resolution: 2
Origin: SOUTHERN RESEARCH INSTITUTE
1/CM	TRANSMITTANCE
602	0.5882
611.034	0.5863
620.069	0.5806
629.103	0.5659
638.138	0.5015
647.172	0.4962
656.207	0.5965
665.241	0.5867
674.275	0.6144
683.31	0.6383
692.344	0.6361
701.379	0.6143
710.413	0.5995
719.448	0.5628
728.482	0.4702
737.516	0.5237
746.551	0.6372
755.585	0.6212
764.62	0.5556
773.654	0.5692
782.689	0.5659
791.723	0.6114
800.758	0.6013
809.792	0.5605
818.826	0.4594
827.861	0.3505
836.895	0.2881
845.93	0.3242
854.964	0.4328
863.999	0.6013
873.033	0.6038
882.067	0.6586
891.102	0.6764
900.136	0.6463
909.171	0.6142
918.205	0.581
927.24	0.602
936.274	0.6366
945.308	0.6264
954.343	0.595
963.377	0.678
972.412	0.6798
981.446	0.664
990.481	0.6558
999.515	0.6277
1008.55	0.5964
1017.58	0.567
1026.62	0.534
1035.65	0.4789
1044.69	0.333
1053.72	0.5386
1062.76	0.5756
1071.79	0.5492
1080.82	0.4734
1089.86	0.3619
1098.89	0.2485
1107.93	0.0762
1116.96	0.0865
1126	0.1736
1135.03	0.2951
1144.07	0.2895
1153.1	0.4053
1162.13	0.4904
1171.17	0.3936
1180.2	0.1999
1189.24	0.2739
1198.27	0.4939
1207.31	0.574
1216.34	0.5744
1225.38	0.5612
1234.41	0.5635
1243.44	0.5365
1252.48	0.5267
1261.51	0.432
1270.55	0.1952
1279.58	0.4344
1288.62	0.5402
1297.65	0.4142
1306.69	0.2777
1315.72	0.1448
1324.75	0.1062
1333.79	0.2638
1342.82	0.3794
1351.86	0.4479
1360.89	0.2795
1369.93	0.3106
1378.96	0.1756
1388	0.2955
1397.03	0.3795
1406.06	0.3213
1415.1	0.3113
1424.13	0.3754
1433.17	0.5065
1442.2	0.5289
1451.24	0.4676
1460.27	0.4377
1469.31	0.5323
1478.34	0.5894
1487.37	0.5772
1496.41	0.5143
1505.44	0.3988
1514.48	0.3053
1523.51	0.2919
1532.55	0.3051
1541.58	0.2498
1550.62	0.1178
1559.65	0.1018
1568.68	0.2014
1577.72	0.2825
1586.75	0.32
1595.79	0.4716
1604.82	0.454
1613.86	0.3715
1622.89	0.2895
1631.93	0.2063
1640.96	0.1149
1649.99	0.0242
1659.03	0.0416
1668.06	0.16
1677.1	0.3342
1686.13	0.3133
1695.17	0.2163
1704.2	0.218
1713.24	0.4302
1722.27	0.6181
1731.3	0.693
1740.34	0.722
1749.37	0.7348
1758.41	0.7464
1767.44	0.7759
1776.48	0.7836
1785.51	0.7876
1794.55	0.7909
1803.58	0.7894
1812.61	0.789
1821.65	0.7904
1830.68	0.794
1839.72	0.7987
1848.75	0.7993
1857.79	0.7993
1866.82	0.7965
1875.85	0.7865
1884.89	0.7757
1893.92	0.7788
1902.96	0.7974
1911.99	0.8016
1921.03	0.8027
1930.06	0.803
1939.1	0.8029
1948.13	0.8025
1957.16	0.8032
1966.2	0.8034
1975.23	0.8033
1984.27	0.8027
1993.3	0.8021
2002.34	0.8013
2011.37	0.7999
2020.41	0.7984
2029.44	0.7966
2038.47	0.7949
2047.51	0.7933
2056.54	0.7919
2065.58	0.7908
2074.61	0.7882
2083.65	0.7809
2092.68	0.776
2101.72	0.7719
2110.75	0.7674
2119.78	0.7623
2128.82	0.7574
2137.85	0.7512
2146.89	0.7446
2155.92	0.7379
2164.96	0.732
2173.99	0.7275
2183.03	0.7235
2192.06	0.72
2201.09	0.717
2210.13	0.713
2219.16	0.7058
2228.2	0.6996
2237.23	0.6938
2246.27	0.6877
2255.3	0.6804
2264.34	0.6696
2273.37	0.6542
2282.4	0.6368
2291.44	0.6191
2300.47	0.6051
2309.51	0.5958
2318.54	0.5882
2327.58	0.5833
2336.61	0.581
2345.65	0.579
2354.68	0.5806
2363.71	0.5808
2372.75	0.5731
2381.78	0.5639
2390.82	0.5544
2399.85	0.5421
2408.89	0.5312
2417.92	0.5247
2426.96	0.5193
2435.99	0.5097
2445.02	0.4922
2454.06	0.479
2463.09	0.4692
2472.13	0.4612
2481.16	0.4544
2490.2	0.4481
2499.23	0.4422
2508.27	0.433
2517.3	0.4231
2526.33	0.4139
2535.37	0.4068
2544.4	0.4051
2553.44	0.4055
2562.47	0.406
2571.51	0.4057
2580.54	0.4055
2589.58	0.4052
2598.61	0.4047
2607.64	0.4042
2616.68	0.4037
2625.71	0.4042
2634.75	0.4069
2643.78	0.4111
2652.82	0.4119
2661.85	0.4062
2670.88	0.3988
2679.92	0.3912
2688.95	0.3833
2697.99	0.3783
2707.02	0.3759
2716.06	0.3716
2725.09	0.3641
2734.13	0.3538
2743.16	0.3468
2752.19	0.3431
2761.23	0.3405
2770.26	0.3388
2779.3	0.339
2788.33	0.3474
2797.37	0.3614
2806.4	0.3816
2815.44	0.403
2824.47	0.4187
2833.5	0.4298
2842.54	0.4346
2851.57	0.4355
2860.61	0.434
2869.64	0.4311
2878.68	0.4192
2887.71	0.3974
2896.75	0.3681
2905.78	0.3624
2914.81	0.3615
2923.85	0.3623
2932.88	0.3566
2941.92	0.3492
2950.95	0.3464
2959.99	0.3431
2969.02	0.3408
2978.06	0.3392
2987.09	0.3414
2996.12	0.339
3005.16	0.3336
3014.19	0.3265
3023.23	0.3219
3032.26	0.3177
3041.3	0.3149
3050.33	0.3135
3059.37	0.3124
3068.4	0.3089
3077.43	0.3015
3086.47	0.2918
3095.5	0.2857
3104.54	0.2861
3113.57	0.2915
3122.61	0.3008
3131.64	0.3077
3140.68	0.3083
3149.71	0.3092
3158.74	0.319
3167.78	0.3431
3176.81	0.3709
3185.85	0.3893
3194.88	0.3936
3203.92	0.393
3212.95	0.3824
3221.99	0.3645
3231.02	0.3439
3240.05	0.3258
3249.09	0.3164
3258.12	0.3195
3267.16	0.3415
3276.19	0.3909
3285.23	0.4337
3294.26	0.4741
3303.3	0.5114
3312.33	0.5239
3321.36	0.5288
3330.4	0.5276
3339.43	0.5237
3348.47	0.5154
3357.5	0.5091
3366.54	0.4972
3375.57	0.4829
3384.61	0.4756
3393.64	0.47
3402.67	0.4659
3411.71	0.4637
3420.74	0.4632
3429.78	0.4629
3438.81	0.4636
3447.85	0.4645
3456.88	0.4664
3465.91	0.4685
3474.95	0.4708
3483.98	0.4762
3493.02	0.483
3502.05	0.4891
3511.09	0.4966
3520.12	0.5042
3529.16	0.5135
3538.19	0.5228
3547.22	0.5336
3556.26	0.5445
3565.29	0.5538
3574.33	0.5569
3583.36	0.5594
3592.4	0.5629
3601.43	0.5683
3610.47	0.5753
3619.5	0.5828
3628.53	0.5863
3637.57	0.5885
3646.6	0.5891
3655.64	0.5894
3664.67	0.5896
3673.71	0.5897
3682.74	0.5898
3691.78	0.589
3700.81	0.5882
3709.84	0.5877
3718.88	0.5873
3727.91	0.5869
3736.95	0.5866
3745.98	0.5869
3755.02	0.5865
3764.05	0.5857
3773.09	0.5843
3782.12	0.5823
3791.15	0.5801
3800.19	0.5774
3809.22	0.575
3818.26	0.5727
3827.29	0.5717
3836.33	0.5709
3845.36	0.5694
3854.4	0.564
3863.43	0.5614
3872.46	0.5604
3881.5	0.5612
3890.53	0.5619
3899.57	0.5607
3908.6	0.5581
3917.64	0.5544
3926.67	0.5494
3935.71	0.5429
3944.74	0.5367
3953.77	0.5334
3962.81	0.532
3971.84	0.532
3980.88	0.5303
3989.91	0.5274
3998.95	0.5234
4007.98	0.5191
