Infrared Spectrum: Purine-8-methanol
Formula: C6 H6 N4 O
CAS: 6642-26-8
State: SOLID (0.9 mg / 650 mg KBr DISC)
Class: COBLENTZ III
Instrument: PERKIN-ELMER 21 (GRATING)
Instrument parameters: FILTER CHANGE ABOUT 1020 CM^-^1
Sampling: TRANSMISSION
Resolution: 2
Origin: SOUTHERN RESEARCH INSTITUTE
1/CM	TRANSMITTANCE
603	0.5519
612	0.5513
621	0.5428
630	0.5257
639	0.4965
648	0.4569
657	0.4959
666	0.5423
675	0.5463
684	0.537
693	0.5239
702	0.5106
711	0.4972
720	0.5037
729	0.5126
738	0.5186
747	0.5239
756	0.5332
765	0.5527
774	0.5702
783	0.567
792	0.502
801	0.4424
810	0.5671
819	0.5481
828	0.5128
837	0.4457
846	0.4175
855	0.4861
864	0.5006
873	0.5066
882	0.5503
891	0.6102
900	0.6082
909	0.5771
918	0.4789
927	0.4074
936	0.6746
945	0.6949
954	0.6893
963	0.6662
972	0.6063
981	0.5375
990	0.556
999	0.6664
1008	0.6905
1017	0.6894
1026	0.6803
1035	0.6432
1044	0.606
1053	0.5719
1062	0.4974
1071	0.3676
1080	0.2295
1089	0.4348
1098	0.6137
1107	0.5713
1116	0.7511
1125	0.7471
1134	0.7289
1143	0.7101
1152	0.691
1161	0.672
1170	0.6427
1179	0.6006
1188	0.5103
1197	0.3325
1206	0.6037
1215	0.6141
1224	0.5522
1233	0.5717
1242	0.5751
1251	0.562
1260	0.507
1269	0.4129
1278	0.3165
1287	0.2236
1296	0.2831
1305	0.3965
1314	0.449
1323	0.3524
1332	0.4587
1341	0.5951
1350	0.6087
1359	0.5873
1368	0.5451
1377	0.4355
1386	0.1899
1395	0.1701
1404	0.4146
1413	0.4665
1422	0.2952
1431	0.1831
1440	0.3085
1449	0.4624
1458	0.5188
1467	0.4759
1476	0.504
1485	0.5849
1494	0.6501
1503	0.6555
1512	0.6054
1521	0.5295
1530	0.3443
1539	0.4867
1548	0.6154
1557	0.4858
1566	0.336
1575	0.5874
1584	0.6169
1593	0.6112
1602	0.4968
1611	0.3254
1620	0.4466
1629	0.6776
1638	0.6922
1647	0.7071
1656	0.7139
1665	0.7127
1674	0.704
1683	0.6958
1692	0.6952
1701	0.6992
1710	0.7045
1719	0.7112
1728	0.7219
1737	0.7323
1746	0.7393
1755	0.7446
1764	0.7543
1773	0.7578
1782	0.7608
1791	0.765
1800	0.7609
1809	0.7595
1818	0.7576
1827	0.7559
1836	0.7561
1845	0.7614
1854	0.7649
1863	0.7593
1872	0.7442
1881	0.7283
1890	0.741
1899	0.7621
1908	0.773
1917	0.7709
1926	0.7633
1935	0.7604
1944	0.766
1953	0.7672
1962	0.7673
1971	0.7669
1980	0.7664
1989	0.7646
1998	0.7609
2007	0.7564
2016	0.7538
2025	0.7514
2034	0.7504
2043	0.75
2052	0.7487
2061	0.7463
2070	0.7418
2079	0.7355
2088	0.7307
2097	0.7255
2106	0.7194
2115	0.7127
2124	0.7075
2133	0.7025
2142	0.6982
2151	0.6957
2160	0.6941
2169	0.6934
2178	0.6915
2187	0.6872
2196	0.6809
2205	0.6745
2214	0.6702
2223	0.6664
2232	0.6618
2241	0.6578
2250	0.655
2259	0.6534
2268	0.6506
2277	0.6452
2286	0.638
2295	0.627
2304	0.6076
2313	0.5947
2322	0.587
2331	0.5818
2340	0.5801
2349	0.5798
2358	0.5792
2367	0.576
2376	0.5704
2385	0.5629
2394	0.5538
2403	0.5434
2412	0.5325
2421	0.5125
2430	0.4955
2439	0.4838
2448	0.4752
2457	0.4688
2466	0.4611
2475	0.4512
2484	0.4396
2493	0.4283
2502	0.4161
2511	0.4041
2520	0.3935
2529	0.3861
2538	0.3793
2547	0.3726
2556	0.3649
2565	0.3575
2574	0.3503
2583	0.3436
2592	0.3373
2601	0.3328
2610	0.3274
2619	0.3206
2628	0.3118
2637	0.3021
2646	0.2893
2655	0.2763
2664	0.2674
2673	0.2622
2682	0.2585
2691	0.2563
2700	0.255
2709	0.2544
2718	0.254
2727	0.2569
2736	0.2572
2745	0.2536
2754	0.2466
2763	0.2357
2772	0.2274
2781	0.2256
2790	0.225
2799	0.2235
2808	0.2162
2817	0.2122
2826	0.2121
2835	0.2131
2844	0.2158
2853	0.2185
2862	0.221
2871	0.2224
2880	0.2233
2889	0.2224
2898	0.2241
2907	0.2247
2916	0.2271
2925	0.2344
2934	0.2412
2943	0.2384
2952	0.2352
2961	0.2333
2970	0.2342
2979	0.2347
2988	0.2338
2997	0.2311
3006	0.2268
3015	0.2231
3024	0.2217
3033	0.2209
3042	0.2186
3051	0.2152
3060	0.2107
3069	0.2063
3078	0.2061
3087	0.2067
3096	0.2077
3105	0.209
3114	0.2103
3123	0.2137
3132	0.2181
3141	0.2262
3150	0.2364
3159	0.2513
3168	0.2715
3177	0.2945
3186	0.3093
3195	0.32
3204	0.3294
3213	0.3469
3222	0.3638
3231	0.3789
3240	0.3986
3249	0.4179
3258	0.4338
3267	0.4563
3276	0.477
3285	0.4907
3294	0.5053
3303	0.5162
3312	0.5239
3321	0.5288
3330	0.5325
3339	0.5353
3348	0.5373
3357	0.538
3366	0.5381
3375	0.5387
3384	0.5397
3393	0.5409
3402	0.5432
3411	0.5449
3420	0.5479
3429	0.5523
3438	0.5586
3447	0.5666
3456	0.5747
3465	0.5835
3474	0.5948
3483	0.6074
3492	0.6245
3501	0.6347
3510	0.6465
3519	0.6583
3528	0.6697
3537	0.6795
3546	0.6891
3555	0.7
3564	0.7147
3573	0.7307
3582	0.7428
3591	0.7554
3600	0.7707
3609	0.7776
3618	0.7829
3627	0.7859
3636	0.7876
3645	0.7886
3654	0.7893
3663	0.7897
3672	0.7903
3681	0.7908
3690	0.7903
3699	0.7899
3708	0.7895
3717	0.7894
3726	0.7894
3735	0.7895
3744	0.7905
3753	0.7908
3762	0.7908
3771	0.7908
3780	0.7872
3789	0.7815
3798	0.7781
3807	0.7758
3816	0.7753
3825	0.7736
3834	0.7701
3843	0.7634
3852	0.7606
3861	0.761
3870	0.7613
3879	0.7615
3888	0.7615
3897	0.7607
