Infrared Spectrum: 1-ADAMANTANAMINE, HYDROCHLORIDE
Formula: C10 H18 Cl N
CAS: 665-66-7
State: SOLID (OIL MULL)
Class: COBLENTZ III
Instrument: PERKIN-ELMER 21 (GRATING)
Instrument parameters: NaCl PRISM
Sampling: TRANSMISSION
Resolution: 2
Origin: SMITH KLINE & FRENCH LABS.
MICROMETERS	TRANSMITTANCE
1.992	0.833
2.02626	0.83
2.06051	0.828
2.09477	0.828
2.12903	0.832
2.16328	0.838
2.19754	0.839
2.23179	0.834
2.26605	0.835
2.30031	0.832
2.33456	0.826
2.36882	0.801
2.40308	0.791
2.43733	0.789
2.47159	0.806
2.50585	0.819
2.5401	0.817
2.57436	0.832
2.60861	0.843
2.64287	0.844
2.67713	0.844
2.71138	0.854
2.74564	0.854
2.7799	0.86
2.81415	0.862
2.84841	0.86
2.88267	0.855
2.91692	0.849
2.95118	0.841
2.98543	0.84
3.01969	0.824
3.05395	0.817
3.0882	0.818
3.12246	0.822
3.15672	0.782
3.19097	0.728
3.22523	0.675
3.25949	0.571
3.29374	0.45
3.328	0.315
3.36226	0.125
3.39651	0.069
3.43077	0.054
3.46502	0.053
3.49928	0.048
3.53354	0.045
3.56779	0.045
3.60205	0.071
3.63631	0.098
3.67056	0.26
3.70482	0.316
3.73908	0.349
3.77333	0.313
3.80759	0.369
3.84184	0.496
3.8761	0.422
3.91036	0.346
3.94461	0.451
3.97887	0.54
4.01313	0.497
4.04738	0.625
4.08164	0.653
4.1159	0.639
4.15015	0.7
4.18441	0.666
4.21866	0.731
4.25292	0.756
4.28718	0.776
4.32143	0.799
4.35569	0.795
4.38995	0.781
4.4242	0.776
4.45846	0.793
4.49272	0.798
4.52697	0.788
4.56123	0.784
4.59548	0.77
4.62974	0.791
4.664	0.765
4.69825	0.774
4.73251	0.755
4.76677	0.704
4.80102	0.671
4.83528	0.636
4.86954	0.59
4.90379	0.545
4.93805	0.564
4.9723	0.667
5.00656	0.709
5.04082	0.736
5.07507	0.737
5.10933	0.755
5.14359	0.765
5.17784	0.765
5.2121	0.776
5.24636	0.776
5.28061	0.771
5.31487	0.738
5.34913	0.759
5.38338	0.771
5.41764	0.776
5.45189	0.779
5.48615	0.781
5.52041	0.787
5.55466	0.79
5.58892	0.784
5.62318	0.768
5.65743	0.765
5.69169	0.771
5.72595	0.773
5.7602	0.777
5.79446	0.785
5.82871	0.789
5.86297	0.796
5.89723	0.789
5.93148	0.793
5.96574	0.77
6	0.761
6.03425	0.753
6.06851	0.753
6.10277	0.76
6.13702	0.756
6.17128	0.704
6.20553	0.673
6.23979	0.531
6.27405	0.278
6.3083	0.375
6.34256	0.558
6.37682	0.626
6.41107	0.644
6.44533	0.665
6.47959	0.67
6.51384	0.681
6.5481	0.667
6.58235	0.615
6.61661	0.512
6.65087	0.166
6.68512	0.267
6.71938	0.268
6.75364	0.587
6.78789	0.591
6.82215	0.52
6.85641	0.409
6.89066	0.31
6.92492	0.169
6.95917	0.34
6.99343	0.459
7.02769	0.598
7.06194	0.636
7.0962	0.687
7.13046	0.711
7.16471	0.708
7.19897	0.701
7.23323	0.68
7.26748	0.583
7.30174	0.362
7.336	0.364
7.37025	0.139
7.40451	0.485
7.43876	0.543
7.47302	0.482
7.50728	0.669
7.54153	0.68
7.57579	0.602
7.61005	0.445
7.6443	0.519
7.67856	0.281
7.71282	0.566
7.74707	0.672
7.78133	0.706
7.81558	0.697
7.84984	0.684
7.8841	0.717
7.91835	0.726
7.95261	0.733
7.98687	0.737
8.02112	0.739
8.05538	0.742
8.08964	0.743
8.12389	0.744
8.15815	0.743
8.1924	0.744
8.22666	0.744
8.26092	0.726
8.29517	0.74
8.32943	0.729
8.36369	0.688
8.39794	0.663
8.4322	0.725
8.46646	0.738
8.50071	0.744
8.53497	0.736
8.56922	0.739
8.60348	0.733
8.63774	0.732
8.67199	0.732
8.70625	0.718
8.74051	0.721
8.77476	0.72
8.80902	0.721
8.84328	0.721
8.87753	0.716
8.91179	0.647
8.94604	0.484
8.9803	0.587
9.01456	0.566
9.04881	0.507
9.08307	0.659
9.11733	0.7
9.15158	0.704
9.18584	0.615
9.2201	0.371
9.25435	0.295
9.28861	0.44
9.32286	0.637
9.35712	0.694
9.39138	0.714
9.42563	0.725
9.45989	0.732
9.49415	0.736
9.5284	0.738
9.56266	0.742
9.59692	0.746
9.63117	0.743
9.66543	0.74
9.69969	0.739
9.73394	0.739
9.7682	0.739
9.80245	0.739
9.83671	0.739
9.87097	0.744
9.90522	0.744
9.93948	0.744
9.97374	0.744
10.008	0.744
10.0422	0.738
10.0765	0.74
10.1108	0.738
10.145	0.742
10.1793	0.738
10.2135	0.715
10.2478	0.664
10.282	0.625
10.3163	0.562
10.3506	0.607
10.3848	0.693
10.4191	0.709
10.4533	0.689
10.4876	0.675
10.5218	0.711
10.5561	0.715
10.5904	0.721
10.6246	0.722
10.6589	0.721
10.6931	0.722
10.7274	0.726
10.7616	0.726
10.7959	0.72
10.8301	0.7
10.8644	0.709
10.8987	0.721
10.9329	0.723
10.9672	0.695
11.0014	0.614
11.0357	0.663
11.0699	0.699
11.1042	0.728
11.1385	0.734
11.1727	0.738
11.207	0.74
11.2412	0.739
11.2755	0.743
11.3097	0.74
11.344	0.732
11.3782	0.727
11.4125	0.738
11.4468	0.748
11.481	0.75
11.5153	0.749
11.5495	0.751
11.5838	0.749
11.618	0.749
11.6523	0.751
11.6866	0.75
11.7208	0.75
11.7551	0.751
11.7893	0.75
11.8236	0.753
11.8578	0.753
11.8921	0.753
11.9263	0.753
11.9606	0.753
11.9949	0.754
12.0291	0.754
12.0634	0.753
12.0976	0.753
12.1319	0.754
12.1661	0.755
12.2004	0.759
12.2347	0.757
12.2689	0.754
12.3032	0.751
12.3374	0.716
12.3717	0.699
12.4059	0.628
12.4402	0.72
12.4745	0.749
12.5087	0.753
12.543	0.754
12.5772	0.755
12.6115	0.756
12.6457	0.756
12.68	0.756
12.7142	0.756
12.7485	0.755
12.7828	0.755
12.817	0.755
12.8513	0.753
12.8855	0.75
12.9198	0.748
12.954	0.734
12.9883	0.737
13.0226	0.74
13.0568	0.743
13.0911	0.743
13.1253	0.743
13.1596	0.74
13.1938	0.738
13.2281	0.74
13.2623	0.74
13.2966	0.737
13.3309	0.737
13.3651	0.732
13.3994	0.731
13.4336	0.726
13.4679	0.726
13.5021	0.727
13.5364	0.725
13.5707	0.717
13.6049	0.715
13.6392	0.714
13.6734	0.71
13.7077	0.706
13.7419	0.705
13.7762	0.701
13.8105	0.699
13.8447	0.697
13.879	0.693
13.9132	0.689
13.9475	0.686
13.9817	0.683
14.016	0.688
14.0502	0.698
14.0845	0.701
14.1188	0.7
14.153	0.701
14.1873	0.703
14.2215	0.699
14.2558	0.699
14.29	0.699
14.3243	0.698
14.3586	0.695
14.3928	0.692
14.4271	0.689
14.4613	0.687
14.4956	0.684
14.5298	0.682
14.5641	0.681
14.5983	0.678
14.6326	0.676
14.6669	0.672
14.7011	0.669
14.7354	0.666
14.7696	0.665
14.8039	0.663
14.8381	0.658
14.8724	0.654
14.9067	0.653
14.9409	0.65
14.9752	0.649
15.0094	0.647
15.0437	0.647
15.0779	0.637
15.1122	0.63
15.1464	0.63
15.1807	0.63
15.215	0.626
15.2492	0.62
15.2835	0.619
15.3177	0.619
