Infrared Spectrum: 2-ETHYL-1,10-DICHLORO DECANE
Formula: C12 H24 Cl2
CAS: 66553-32-0
State: LIQUID
Class: COBLENTZ
Instrument: Not specified, most likely a grating spectrometer.
Sampling: TRANSMISSION
Path length: 0.0025 CM
Resolution: 4
Origin: US INDUSTRIAL CHEMICALS COMPANY, CINCINNATI, OHIO
MICROMETERS	TRANSMITTANCE
2.048	0.964
2.08889	0.955
2.12979	0.933
2.17068	0.919
2.21158	0.923
2.25247	0.921
2.29337	0.935
2.33426	0.94
2.37515	0.947
2.41605	0.95
2.45694	0.957
2.49784	0.957
2.53873	0.962
2.57963	0.959
2.62052	0.965
2.66141	0.959
2.70231	0.967
2.7432	0.971
2.7841	0.971
2.82499	0.964
2.86589	0.964
2.90678	0.959
2.94767	0.96
2.98857	0.971
3.02946	0.964
3.07036	0.957
3.11125	0.955
3.15215	0.95
3.19304	0.935
3.23393	0.894
3.27483	0.621
3.31572	0.304
3.35662	0.035
3.39751	0.103
3.43841	0.141
3.4793	0.393
3.52019	0.804
3.56109	0.89
3.60198	0.909
3.64288	0.906
3.68377	0.919
3.72467	0.923
3.76556	0.935
3.80645	0.947
3.84735	0.957
3.88824	0.962
3.92914	0.971
3.97003	0.974
4.01093	0.974
4.05182	0.981
4.09271	0.974
4.13361	0.974
4.1745	0.974
4.2154	0.976
4.25629	0.977
4.29719	0.979
4.33808	0.979
4.37897	0.981
4.41987	0.982
4.46076	0.986
4.50166	0.979
4.54255	0.984
4.58345	0.984
4.62434	0.984
4.66523	0.991
4.70613	0.991
4.74702	0.986
4.78792	0.986
4.82881	0.982
4.86971	0.984
4.9106	0.984
4.95149	0.991
4.99239	0.994
5.03328	1.001
5.07418	0.996
5.11507	0.996
5.15597	0.993
5.19686	0.998
5.23775	0.994
5.27865	0.993
5.31954	0.994
5.36044	0.996
5.40133	0.991
5.44223	0.994
5.48312	0.996
5.52401	0.998
5.56491	0.998
5.6058	1
5.6467	1
5.68759	0.993
5.72849	0.996
5.76938	1.003
5.81027	1.003
5.85117	0.998
5.89206	0.994
5.93296	0.996
5.97385	0.993
6.01475	0.988
6.05564	0.991
6.09653	0.984
6.13743	0.986
6.17832	0.986
6.21922	0.982
6.26011	0.982
6.30101	0.974
6.3419	0.976
6.38279	0.982
6.42369	0.972
6.46458	0.984
6.50548	0.967
6.54637	0.964
6.58727	0.952
6.62816	0.945
6.66905	0.925
6.70995	0.875
6.75084	0.669
6.79174	0.298
6.83263	0.32
6.87353	0.424
6.91442	0.592
6.95531	0.683
6.99621	0.85
7.0371	0.914
7.078	0.926
7.11889	0.933
7.15979	0.909
7.20068	0.683
7.24157	0.756
7.28247	0.783
7.32336	0.793
7.36426	0.807
7.40515	0.793
7.44605	0.797
7.48694	0.778
7.52783	0.703
7.56873	0.638
7.60962	0.596
7.65052	0.591
7.69141	0.579
7.73231	0.541
7.7732	0.567
7.81409	0.666
7.85499	0.713
7.89588	0.761
7.93678	0.8
7.97767	0.831
8.01857	0.843
8.05946	0.868
8.10035	0.892
8.14125	0.916
8.18214	0.936
8.22304	0.952
8.26393	0.96
8.30483	0.967
8.34572	0.967
8.38661	0.962
8.42751	0.965
8.4684	0.952
8.5093	0.967
8.55019	0.974
8.59109	0.979
8.63198	0.991
8.67287	0.989
8.71377	0.989
8.75466	0.993
8.79556	0.994
8.83645	0.991
8.87735	0.996
8.91824	0.989
8.95913	0.989
9.00003	0.993
9.04092	0.988
9.08182	0.982
9.12271	0.982
9.16361	0.982
9.2045	0.979
9.2454	0.976
9.28629	0.972
9.32718	0.962
9.36808	0.954
9.40897	0.942
9.44987	0.933
9.49076	0.925
9.53166	0.908
9.57255	0.899
9.61344	0.896
9.65434	0.896
9.69523	0.902
9.73613	0.894
9.77702	0.904
9.81792	0.913
9.85881	0.918
9.8997	0.921
9.9406	0.925
9.98149	0.926
10.0224	0.93
10.0633	0.931
10.1042	0.931
10.1451	0.928
10.186	0.925
10.2269	0.916
10.2678	0.909
10.3086	0.909
10.3495	0.906
10.3904	0.904
10.4313	0.904
10.4722	0.902
10.5131	0.906
10.554	0.919
10.5949	0.919
10.6358	0.911
10.6767	0.906
10.7176	0.899
10.7585	0.889
10.7994	0.88
10.8403	0.877
10.8812	0.872
10.9221	0.873
10.963	0.872
11.0038	0.877
11.0447	0.884
11.0856	0.884
11.1265	0.88
11.1674	0.882
11.2083	0.875
11.2492	0.877
11.2901	0.868
11.331	0.87
11.3719	0.872
11.4128	0.865
11.4537	0.87
11.4946	0.872
11.5355	0.873
11.5764	0.873
11.6173	0.875
11.6582	0.877
11.6991	0.882
11.7399	0.889
11.7808	0.89
11.8217	0.882
11.8626	0.88
11.9035	0.877
11.9444	0.88
11.9853	0.872
12.0262	0.868
12.0671	0.867
12.108	0.862
12.1489	0.863
12.1898	0.86
12.2307	0.86
12.2716	0.855
12.3125	0.853
12.3534	0.851
12.3943	0.85
12.4351	0.853
12.476	0.848
12.5169	0.836
12.5578	0.834
12.5987	0.826
12.6396	0.814
12.6805	0.804
12.7214	0.79
12.7623	0.787
12.8032	0.781
12.8441	0.773
12.885	0.771
12.9259	0.773
12.9668	0.768
13.0077	0.763
13.0486	0.756
13.0895	0.744
13.1304	0.72
13.1712	0.7
13.2121	0.693
13.253	0.683
13.2939	0.674
13.3348	0.667
13.3757	0.655
13.4166	0.632
13.4575	0.601
13.4984	0.572
13.5393	0.54
13.5802	0.5
13.6211	0.465
13.662	0.413
13.7029	0.376
13.7438	0.362
13.7847	0.347
13.8256	0.359
13.8664	0.386
13.9073	0.424
13.9482	0.468
13.9891	0.522
14.03	0.558
14.0709	0.603
14.1118	0.649
14.1527	0.691
14.1936	0.739
14.2345	0.77
14.2754	0.793
14.3163	0.817
14.3572	0.841
14.3981	0.87
14.439	0.877
14.4799	0.882
14.5208	0.89
14.5617	0.89
14.6025	0.892
14.6434	0.894
14.6843	0.901
14.7252	0.89
14.7661	0.887
14.807	0.887
14.8479	0.882
14.8888	0.872
14.9297	0.856
14.9706	0.831
15.0115	0.776
15.0524	0.72
15.0933	0.652
15.1342	0.577
15.1751	0.5
15.216	0.473
15.2569	0.437
15.2977	0.429
15.3386	0.434
15.3795	0.463
15.4204	0.521
15.4613	0.574
15.5022	0.621
15.5431	0.686
15.584	0.725
15.6249	0.756
15.6658	0.778
15.7067	0.804
15.7476	0.816
15.7885	0.831
15.8294	0.843
15.8703	0.851
15.9112	0.856
15.9521	0.853
15.993	0.855
