Infrared Spectrum: 2-Ethyl-6-(1-methylpropyl)phenyl isothiocyanate
Formula: C 13 H 17 N S
CAS: 66609-02-7
State: gas
Origin: EPA-IR VAPOR PHASE LIBRARY
1/CM	ABSORBANCE
549.8	0.007525
559.445	0.008705
569.09	0.008555
578.734	0.007355
588.379	0.005575
598.024	0.004705
607.669	0.004415
617.313	0.003895
626.958	0.003665
636.603	0.003775
646.248	0.004145
655.893	0.004475
665.537	0.002545
675.182	0.001825
684.827	0.001915
694.472	0.002635
704.116	0.004495
713.761	0.007435
723.406	0.016735
733.051	0.033885
742.695	0.053135
752.34	0.028455
761.985	0.011255
771.63	0.012035
781.275	0.018735
790.919	0.021345
800.564	0.017225
810.209	0.009545
819.854	0.005745
829.498	0.003935
839.143	0.002605
848.788	0.002035
858.433	0.001805
868.078	0.003095
877.722	0.006055
887.367	0.010045
897.012	0.009935
906.657	0.009795
916.301	0.014065
925.946	0.028745
935.591	0.048955
945.236	0.036535
954.88	0.016295
964.525	0.010405
974.17	0.006895
983.815	0.005185
993.46	0.004375
1003.1	0.004835
1012.75	0.006085
1022.39	0.003835
1032.04	0.002375
1041.68	0.002745
1051.33	0.004315
1060.97	0.007515
1070.62	0.005635
1080.26	0.003525
1089.91	0.002385
1099.55	0.002885
1109.2	0.002845
1118.84	0.001855
1128.49	0.000957
1138.13	0.001265
1147.78	0.001365
1157.42	0.001195
1167.07	0.001835
1176.71	0.001665
1186.36	0.001605
1196	0.002295
1205.64	0.002195
1215.29	0.002725
1224.93	0.002805
1234.58	0.003215
1244.22	0.005075
1253.87	0.007875
1263.51	0.007895
1273.16	0.006305
1282.8	0.007095
1292.45	0.006575
1302.09	0.005945
1311.74	0.006485
1321.38	0.008155
1331.03	0.007945
1340.67	0.008235
1350.32	0.010715
1359.96	0.009375
1369.61	0.008645
1379.25	0.016635
1388.9	0.013975
1398.54	0.006595
1408.18	0.005955
1417.83	0.007895
1427.47	0.014655
1437.12	0.032575
1446.76	0.040785
1456.41	0.035525
1466.05	0.035085
1475.7	0.024335
1485.34	0.010135
1494.99	0.005965
1504.63	0.004245
1514.28	0.003475
1523.92	0.003385
1533.57	0.003615
1543.21	0.003735
1552.86	0.004195
1562.5	0.004695
1572.15	0.006815
1581.79	0.011095
1591.44	0.010175
1601.08	0.005575
1610.73	0.004295
1620.37	0.003755
1630.01	0.003345
1639.66	0.003345
1649.3	0.002905
1658.95	0.002365
1668.59	0.002435
1678.24	0.002725
1687.88	0.003255
1697.53	0.003475
1707.17	0.003675
1716.82	0.002835
1726.46	0.002455
1736.11	0.002385
1745.75	0.002505
1755.4	0.002415
1765.04	0.002375
1774.69	0.002405
1784.33	0.002955
1793.98	0.003835
1803.62	0.003385
1813.27	0.002765
1822.91	0.003025
1832.55	0.003315
1842.2	0.003955
1851.84	0.005485
1861.49	0.006995
1871.13	0.005815
1880.78	0.004885
1890.42	0.004455
1900.07	0.004445
1909.71	0.005155
1919.36	0.008095
1929	0.009825
1938.65	0.007685
1948.29	0.008685
1957.94	0.011345
1967.58	0.015395
1977.23	0.020895
1986.87	0.028435
1996.52	0.038295
2006.16	0.051445
2015.81	0.069295
2025.45	0.094745
2035.1	0.132595
2044.74	0.188875
2054.38	0.268695
2064.03	0.375175
2073.67	0.486395
2083.32	0.551215
2092.96	0.540465
2102.61	0.443605
2112.25	0.309365
2121.9	0.228165
2131.54	0.205255
2141.19	0.210055
2150.83	0.200665
2160.48	0.144495
2170.12	0.090315
2179.77	0.060775
2189.41	0.045615
2199.06	0.034635
2208.7	0.024465
2218.35	0.017485
2227.99	0.012635
2237.64	0.009355
2247.28	0.007315
2256.92	0.005905
2266.57	0.005055
2276.21	0.004425
2285.86	0.003975
2295.5	0.003695
2305.15	0.003815
2314.79	0.003875
2324.44	0.003535
2334.08	0.003185
2343.73	0.003425
2353.37	0.003245
2363.02	0.003255
2372.66	0.003335
2382.31	0.003485
2391.95	0.004065
2401.6	0.004625
2411.24	0.004625
2420.89	0.004165
2430.53	0.004285
2440.18	0.004565
2449.82	0.004805
2459.47	0.004695
2469.11	0.004465
2478.75	0.004185
2488.4	0.004355
2498.04	0.004275
2507.69	0.004485
2517.33	0.004315
2526.98	0.004285
2536.62	0.004515
2546.27	0.004525
2555.91	0.004735
2565.56	0.004625
2575.2	0.004345
2584.85	0.004075
2594.49	0.003695
2604.14	0.003615
2613.78	0.003525
2623.43	0.003385
2633.07	0.003275
2642.72	0.003025
2652.36	0.002835
2662.01	0.002665
2671.65	0.002675
2681.29	0.002555
2690.94	0.002765
2700.58	0.002955
2710.23	0.003025
2719.87	0.003335
2729.52	0.003645
2739.16	0.004325
2748.81	0.004355
2758.45	0.003715
2768.1	0.003715
2777.74	0.004125
2787.39	0.004695
2797.03	0.005315
2806.68	0.005915
2816.32	0.006345
2825.97	0.007235
2835.61	0.008375
2845.26	0.009525
2854.9	0.012455
2864.55	0.022345
2874.19	0.040055
2883.84	0.056375
2893.48	0.047285
2903.12	0.037075
2912.77	0.040465
2922.41	0.051025
2932.06	0.072245
2941.7	0.087995
2951.35	0.070135
2960.99	0.079905
2970.64	0.158605
2980.28	0.130225
2989.93	0.047495
2999.57	0.023345
3009.22	0.018485
3018.86	0.017365
3028.51	0.016955
3038.15	0.014935
3047.8	0.014465
3057.44	0.020895
3067.09	0.028755
3076.73	0.026675
3086.38	0.014005
3096.02	0.006595
3105.67	0.004895
3115.31	0.004145
3124.95	0.003425
3134.6	0.003195
3144.24	0.002895
3153.89	0.002915
3163.53	0.002745
3173.18	0.002485
3182.82	0.002115
3192.47	0.001525
3202.11	0.001425
3211.76	0.001195
3221.4	0.0005986
3231.05	0.000762
3240.69	0.0004434
3250.34	0.0006576
3259.98	0.0002928
3269.63	0.0005235
3279.27	0.0004854
3288.92	0.0005289
3298.56	0.0003978
3308.21	0.00021328
3317.85	0.0003991
3327.49	0.00023434
3337.14	0.0002503
3346.78	0.0005103
3356.43	0.0003099
3366.07	0.0003064
3375.72	0.0002683
3385.36	0.0003403
3395.01	0.0003032
3404.65	0.000521
3414.3	0.0003166
3423.94	0.0004767
3433.59	0.0003949
3443.23	0.0003145
3452.88	0.00015585
3462.52	0.00023236
3472.17	0.0003022
3481.81	0.00022913
3491.46	0.0006357
3501.1	0.000389
3510.75	0.0003718
3520.39	0.00019739
3530.04	0.0003587
3539.68	0.00022977
3549.32	0.0004286
3558.97	0.00017516
3568.61	0.0002891
3578.26	8.32e-05
3587.9	0.00019336
3597.55	0.00020966
3607.19	0.00015653
3616.84	0.0006284
3626.48	0.00023428
3636.13	0.00020019
3645.77	0.00023377
3655.42	0.0003767
3665.06	0.0002527
3674.71	0.0002461
3684.35	0.000293
3694	0.0001246
3703.64	0.000154005
3713.29	0.0003803
3722.93	0.0003053
3732.58	0.0003963
3742.22	0.0005984
3751.86	0.0005586
3761.51	0.0006225
3771.15	0.0004163
3780.8	0.0006405
3790.44	0.0004117
3800.09	0.0005195
3809.73	0.0008404
3819.38	0.0006739
3829.02	0.0006374
3838.67	0.0004448
3848.31	0.0005782
3857.96	0.0005489
3867.6	0.0006886
3877.25	0.0006891
3886.89	0.0005548
3896.54	0.0008436
3906.18	0.000466
3915.83	0.0008184
3925.47	0.0006943
3935.12	0.001119
3944.76	0.001205
3954.41	0.0010733
3964.05	0.0009297
3973.69	0.0010015
3983.34	0.001275
3992.98	0.001225
