Infrared Spectrum: 2-Ethyl-6-methylphenyl isothiocyanate
Formula: C 10 H 11 N S
CAS: 66609-04-9
State: gas
Origin: EPA-IR VAPOR PHASE LIBRARY
1/CM	ABSORBANCE
549.8	0.006987
559.445	0.007407
569.09	0.009297
578.734	0.008457
588.379	0.005637
598.024	0.003377
607.669	0.001937
617.313	0.001617
626.958	0.001587
636.603	0.001677
646.248	0.0012419
655.893	0.0010914
665.537	0.0011727
675.182	0.001567
684.827	0.002647
694.472	0.003567
704.116	0.003817
713.761	0.004447
723.406	0.008747
733.051	0.025887
742.695	0.047487
752.34	0.030197
761.985	0.019717
771.63	0.029497
781.275	0.025877
790.919	0.013447
800.564	0.007087
810.209	0.003477
819.854	0.002017
829.498	0.0014206
839.143	0.0011448
848.788	0.0010421
858.433	0.001647
868.078	0.002317
877.722	0.004767
887.367	0.009597
897.012	0.010947
906.657	0.010777
916.301	0.017397
925.946	0.034457
935.591	0.047007
945.236	0.031637
954.88	0.013317
964.525	0.006867
974.17	0.004617
983.815	0.003577
993.46	0.003177
1003.1	0.002867
1012.75	0.002547
1022.39	0.001627
1032.04	0.0012034
1041.68	0.002327
1051.33	0.003587
1060.97	0.004507
1070.62	0.002827
1080.26	0.001787
1089.91	0.0013136
1099.55	0.001837
1109.2	0.0013329
1118.84	0.0009112
1128.49	0.0010333
1138.13	0.000632
1147.78	0.0009932
1157.42	0.0009697
1167.07	0.001617
1176.71	0.0010616
1186.36	0.0010905
1196	0.001877
1205.64	0.002737
1215.29	0.002997
1224.93	0.003357
1234.58	0.003997
1244.22	0.003577
1253.87	0.003727
1263.51	0.003907
1273.16	0.003257
1282.8	0.003297
1292.45	0.003677
1302.09	0.003647
1311.74	0.003767
1321.38	0.004327
1331.03	0.004217
1340.67	0.003557
1350.32	0.002987
1359.96	0.002827
1369.61	0.003477
1379.25	0.005697
1388.9	0.006197
1398.54	0.004477
1408.18	0.004517
1417.83	0.007047
1427.47	0.013307
1437.12	0.021377
1446.76	0.027067
1456.41	0.033177
1466.05	0.033427
1475.7	0.025567
1485.34	0.014507
1494.99	0.007647
1504.63	0.005447
1514.28	0.004777
1523.92	0.004187
1533.57	0.003977
1543.21	0.004597
1552.86	0.005137
1562.5	0.005017
1572.15	0.005947
1581.79	0.010827
1591.44	0.013957
1601.08	0.008527
1610.73	0.004687
1620.37	0.003987
1630.01	0.003677
1639.66	0.003077
1649.3	0.002797
1658.95	0.002927
1668.59	0.002987
1678.24	0.002527
1687.88	0.002297
1697.53	0.002367
1707.17	0.002407
1716.82	0.002177
1726.46	0.002297
1736.11	0.002377
1745.75	0.002267
1755.4	0.002177
1765.04	0.002447
1774.69	0.003477
1784.33	0.004167
1793.98	0.003307
1803.62	0.002967
1813.27	0.003217
1822.91	0.003657
1832.55	0.004147
1842.2	0.004987
1851.84	0.006197
1861.49	0.005957
1871.13	0.005047
1880.78	0.004587
1890.42	0.004247
1900.07	0.004347
1909.71	0.005627
1919.36	0.008787
1929	0.009437
1938.65	0.008467
1948.29	0.010557
1957.94	0.014127
1967.58	0.018897
1977.23	0.025257
1986.87	0.033427
1996.52	0.043807
2006.16	0.057927
2015.81	0.078547
2025.45	0.110457
2035.1	0.158317
2044.74	0.225587
2054.38	0.316127
2064.03	0.424207
2073.67	0.517627
2083.32	0.549787
2092.96	0.484527
2102.61	0.348427
2112.25	0.226697
2121.9	0.163757
2131.54	0.147587
2141.19	0.154637
2150.83	0.167687
2160.48	0.147447
2170.12	0.091447
2179.77	0.053397
2189.41	0.038737
2199.06	0.029827
2208.7	0.020517
2218.35	0.014177
2227.99	0.010837
2237.64	0.007997
2247.28	0.005917
2256.92	0.004557
2266.57	0.003757
2276.21	0.003277
2285.86	0.002967
2295.5	0.002847
2305.15	0.003037
2314.79	0.003397
2324.44	0.003537
2334.08	0.003787
2343.73	0.003647
2353.37	0.003597
2363.02	0.003387
2372.66	0.003007
2382.31	0.002727
2391.95	0.002697
2401.6	0.003097
2411.24	0.003877
2420.89	0.004647
2430.53	0.004727
2440.18	0.003877
2449.82	0.003527
2459.47	0.003877
2469.11	0.004497
2478.75	0.004497
2488.4	0.004227
2498.04	0.004187
2507.69	0.004027
2517.33	0.003917
2526.98	0.003937
2536.62	0.003977
2546.27	0.004127
2555.91	0.004297
2565.56	0.004067
2575.2	0.003707
2584.85	0.003127
2594.49	0.002627
2604.14	0.002497
2613.78	0.002507
2623.43	0.002637
2633.07	0.002917
2642.72	0.002997
2652.36	0.002997
2662.01	0.003087
2671.65	0.003137
2681.29	0.003437
2690.94	0.003457
2700.58	0.003097
2710.23	0.002657
2719.87	0.002207
2729.52	0.002157
2739.16	0.002177
2748.81	0.002577
2758.45	0.002507
2768.1	0.002277
2777.74	0.002407
2787.39	0.002607
2797.03	0.003087
2806.68	0.003457
2816.32	0.003887
2825.97	0.004397
2835.61	0.004997
2845.26	0.005897
2854.9	0.007067
2864.55	0.010257
2874.19	0.015817
2883.84	0.021197
2893.48	0.019727
2903.12	0.016807
2912.77	0.017077
2922.41	0.020527
2932.06	0.028657
2941.7	0.036397
2951.35	0.034537
2960.99	0.029897
2970.64	0.044887
2980.28	0.055467
2989.93	0.032617
2999.57	0.017307
3009.22	0.013607
3018.86	0.014407
3028.51	0.015657
3038.15	0.015227
3047.8	0.015827
3057.44	0.020767
3067.09	0.024777
3076.73	0.019847
3086.38	0.012237
3096.02	0.005537
3105.67	0.003247
3115.31	0.002527
3124.95	0.002037
3134.6	0.001887
3144.24	0.001607
3153.89	0.001697
3163.53	0.001657
3173.18	0.001617
3182.82	0.0011303
3192.47	0.0006009
3202.11	0.0006437
3211.76	0.00055184
3221.4	0.0003898
3231.05	0.0003974
3240.69	0.00052826
3250.34	0.00054616
3259.98	0.000272
3269.63	0.00050312
3279.27	0.000335
3288.92	0.0003824
3298.56	0.0004243
3308.21	0.000186
3317.85	0.000266
3327.49	0
3337.14	0.000298
3346.78	0.000267
3356.43	0.00035
3366.07	0.00029
3375.72	0.000345
3385.36	8.2e-05
3395.01	0.000242
3404.65	0.000465164
3414.3	0.000103
3423.94	0.000253
3433.59	0.000245
3443.23	0.000333
3452.88	0.0003743
3462.52	0.000313
3472.17	0.000264
3481.81	0.000215
3491.46	0.000352
3501.1	0.000308
3510.75	0.000284
3520.39	0.000234
3530.04	0.0004373
3539.68	0.000286
3549.32	0.0003609
3558.97	0.00049
3568.61	0.000348
3578.26	0.000322
3587.9	0.000313
3597.55	0.000324
3607.19	0.000345
3616.84	0.000343
3626.48	0.0003596
3636.13	0.000286
3645.77	0.000235
3655.42	0.0004285
3665.06	0.000306
3674.71	0.000401
3684.35	0.0003943
3694	0.00047799
3703.64	0.00054804
3713.29	0.0004344
3722.93	0.000417
3732.58	0.00055173
3742.22	0.00049425
3751.86	0.0005587
3761.51	0.00052146
3771.15	0.0006278
3780.8	0.0007409
3790.44	0.0007606
3800.09	0.0005941
3809.73	0.0007232
3819.38	0.0006852
3829.02	0.0006569
3838.67	0.00054046
3848.31	0.0007545
3857.96	0.0005386
3867.6	0.0005602
3877.25	0.00055213
3886.89	0.0006324
3896.54	0.0009718
3906.18	0.0007525
3915.83	0.0009019
3925.47	0.0009593
3935.12	0.0009441
3944.76	0.0011273
3954.41	0.0011597
3964.05	0.0012574
3973.69	0.0012914
3983.34	0.0011941
3992.98	0.0012028
