Infrared Spectrum: 4-Methyl-1-phenyl-1-pentyn-3-ol
Formula: C 12 H 14 O
CAS: 6662-56-2
State: gas
Instrument: HP-GC/MS/IRD
Origin: NIST Mass Spectrometry Data Center
1/CM	ABSORBANCE
550	0.0011101
562	0.0004981
574	0.0001683
586	0.0003825
598	0.0004913
610	0.0004573
622	0.0003196
634	0.0001428
646	3.91e-05
658	0.0005389
670	0.001887
682	0.0039389
694	0.004437
706	0.0026027
718	0.0012852
730	0.0020417
742	0.0050813
754	0.0076364
766	0.0045764
778	0.001309
790	0.000476
802	0.0004216
814	0.0002006
826	0.0001921
838	0.0001462
850	0.0001003
862	0.0001666
874	0.0002312
886	0.0005304
898	0.0010778
910	0.00136
922	0.0009996
934	0.0008942
946	0.0012614
958	0.002397
970	0.0041293
982	0.0061506
994	0.0065977
1006	0.0067439
1018	0.010336
1030	0.0128605
1042	0.0077486
1054	0.0034816
1066	0.00204
1078	0.0016592
1090	0.0015623
1102	0.0013923
1114	0.001275
1126	0.0017374
1138	0.0012291
1150	0.0010591
1162	0.0015079
1174	0.0016184
1186	0.0010897
1198	0.0011424
1210	0.0016201
1222	0.0020315
1234	0.0022389
1246	0.0026486
1258	0.0025347
1270	0.002516
1282	0.0027625
1294	0.0030736
1306	0.0032793
1318	0.0033541
1330	0.0040528
1342	0.004471
1354	0.0073933
1366	0.0089046
1378	0.0064413
1390	0.0054519
1402	0.0031433
1414	0.0018581
1426	0.0016507
1438	0.0018071
1450	0.0020859
1462	0.002584
1474	0.0035445
1486	0.0067949
1498	0.004488
1510	0.0014824
1522	0.0006834
1534	0.0004182
1546	0.0003043
1558	0.0003842
1570	0.0005355
1582	0.0011033
1594	0.0025806
1606	0.0017612
1618	0.0003451
1630	0.0001394
1642	0.0001105
1654	0.0002975
1666	0.0003604
1678	9.86e-05
1690	4.08e-05
1702	2.55e-05
1714	3.23e-05
1726	0.0001105
1738	0.000153
1750	0.0001513
1762	7.82e-05
1774	0.0001122
1786	0.0002193
1798	0.0003621
1810	0.0001003
1822	8.67e-05
1834	2.72e-05
1846	3.57e-05
1858	0.0001258
1870	0.0002448
1882	0.0004233
1894	0.0002907
1906	8.67e-05
1918	0.0001326
1930	0.0002805
1942	0.000374
1954	0.0005134
1966	0.0002669
1978	6.46e-05
1990	3.91e-05
2002	4.93e-05
2014	3.91e-05
2026	5.27e-05
2038	6.8e-05
2050	7.65e-05
2062	5.61e-05
2074	4.76e-05
2086	2.89e-05
2098	4.76e-05
2110	3.91e-05
2122	3.06e-05
2134	4.76e-05
2146	6.29e-05
2158	8.33e-05
2170	0.0001105
2182	0.0001598
2194	0.0002652
2206	0.0004947
2218	0.0005576
2230	0.0004216
2242	0.0002703
2254	0.0001479
2266	0.00017
2278	8.67e-05
2290	7.99e-05
2302	6.46e-05
2314	0.0001581
2326	0.0001445
2338	0.0001326
2350	9.18e-05
2362	8.84e-05
2374	5.61e-05
2386	6.63e-05
2398	2.38e-05
2410	7.14e-05
2422	9.69e-05
2434	6.63e-05
2446	6.8e-05
2458	7.82e-05
2470	7.14e-05
2482	8.33e-05
2494	8.67e-05
2506	8.84e-05
2518	6.63e-05
2530	8.84e-05
2542	8.84e-05
2554	0.0001394
2566	0.0001683
2578	0.0001479
2590	0.0001564
2602	0.000204
2614	0.0002176
2626	0.0001819
2638	0.0001496
2650	0.0001887
2662	0.0001666
2674	0.0001666
2686	0.0001955
2698	0.0002244
2710	0.0002057
2722	0.0002635
2734	0.0003519
2746	0.0003723
2758	0.0004029
2770	0.000374
2782	0.0003638
2794	0.0004726
2806	0.0004964
2818	0.000629
2830	0.0007735
2842	0.0010982
2854	0.0017765
2866	0.0033643
2878	0.0064175
2890	0.0072131
2902	0.0068255
2914	0.0074018
2926	0.0065739
2938	0.0069921
2950	0.0072369
2962	0.0121023
2974	0.017
2986	0.0079118
2998	0.0027608
3010	0.0017459
3022	0.0019873
3034	0.0027319
3046	0.0026231
3058	0.0035768
3070	0.0056814
3082	0.0038896
3094	0.0032929
3106	0.0021811
3118	0.000952
3130	0.0005474
3142	0.0004437
3154	0.0004114
3166	0.0003179
3178	0.0003196
3190	0.0002737
3202	0.0002295
3214	0.0001751
3226	9.52e-05
3238	0.0001122
3250	0.0001207
3262	7.48e-05
3274	3.23e-05
3286	0.0001037
3298	6.46e-05
3310	9.35e-05
3322	7.31e-05
3334	9.52e-05
3346	0.0001088
3358	0.0001088
3370	6.12e-05
3382	0.0001258
3394	0.0001037
3406	9.35e-05
3418	4.25e-05
3430	7.99e-05
3442	6.29e-05
3454	0.0001479
3466	0.0002108
3478	0.0001241
3490	0.00017
3502	0.0001496
3514	0.000153
3526	9.86e-05
3538	7.48e-05
3550	0.0001649
3562	0.0001139
3574	0.0001309
3586	0.0001292
3598	0.0001105
3610	0.0001853
3622	0.0004114
3634	0.0013141
3646	0.0029682
3658	0.002652
3670	0.0009809
3682	0.0003145
3694	0.0002227
3706	0.0002278
3718	0.0001513
3730	0.0001598
3742	0.0001581
3754	0.0002091
3766	0.0002295
3778	0.0002074
3790	0.0002499
3802	0.0003009
3814	0.0002431
3826	0.0001649
3838	0.0002125
