Infrared Spectrum: 5-Methoxy-3-nitrosalicylaldehyde
Formula: C8 H7 N O5
CAS: 66620-31-3
State: gas
Origin: EPA-IR VAPOR PHASE LIBRARY
1/CM	ABSORBANCE
549.8	0.001623
559.445	0.001503
569.09	0.002443
578.734	0.002853
588.379	0.003683
598.024	0.005053
607.669	0.005873
617.313	0.005753
626.958	0.005013
636.603	0.004043
646.248	0.003993
655.893	0.004043
665.537	0.004443
675.182	0.004373
684.827	0.004523
694.472	0.004163
704.116	0.003423
713.761	0.002523
723.406	0.002253
733.051	0.002413
742.695	0.002903
752.34	0.005253
761.985	0.008433
771.63	0.008203
781.275	0.005573
790.919	0.003593
800.564	0.002173
810.209	0.001673
819.854	0.0013264
829.498	0.0010871
839.143	0.0011753
848.788	0.0011539
858.433	0.001683
868.078	0.002173
877.722	0.002953
887.367	0.003443
897.012	0.003273
906.657	0.004353
916.301	0.008433
925.946	0.009583
935.591	0.005673
945.236	0.004973
954.88	0.005383
964.525	0.004083
974.17	0.002393
983.815	0.0014148
993.46	0.0013903
1003.1	0.001603
1012.75	0.001543
1022.39	0.002003
1032.04	0.004693
1041.68	0.010033
1051.33	0.012123
1060.97	0.006433
1070.62	0.002843
1080.26	0.002473
1089.91	0.001903
1099.55	0.002173
1109.2	0.003163
1118.84	0.004553
1128.49	0.004203
1138.13	0.004683
1147.78	0.004013
1157.42	0.004263
1167.07	0.006043
1176.71	0.008883
1186.36	0.009733
1196	0.008153
1205.64	0.005773
1215.29	0.005793
1224.93	0.008663
1234.58	0.017513
1244.22	0.025633
1253.87	0.025233
1263.51	0.022653
1273.16	0.019503
1282.8	0.016803
1292.45	0.015893
1302.09	0.015653
1311.74	0.017943
1321.38	0.022013
1331.03	0.020483
1340.67	0.013933
1350.32	0.010583
1359.96	0.009823
1369.61	0.008643
1379.25	0.008173
1388.9	0.011253
1398.54	0.012273
1408.18	0.010123
1417.83	0.015943
1427.47	0.031133
1437.12	0.037353
1446.76	0.022953
1456.41	0.016693
1466.05	0.024533
1475.7	0.026083
1485.34	0.014353
1494.99	0.006883
1504.63	0.005413
1514.28	0.005823
1523.92	0.008603
1533.57	0.015973
1543.21	0.031163
1552.86	0.036863
1562.5	0.019753
1572.15	0.008873
1581.79	0.008163
1591.44	0.009313
1601.08	0.007613
1610.73	0.005413
1620.37	0.004763
1630.01	0.004773
1639.66	0.004073
1649.3	0.003093
1658.95	0.002743
1668.59	0.003413
1678.24	0.006833
1687.88	0.009823
1697.53	0.011833
1707.17	0.027463
1716.82	0.021903
1726.46	0.006203
1736.11	0.003553
1745.75	0.002453
1755.4	0.001663
1765.04	0.001523
1774.69	0.0014171
1784.33	0.001573
1793.98	0.001242
1803.62	0.0010598
1813.27	0.0010163
1822.91	0.000995
1832.55	0.0008519
1842.2	0.0008066
1851.84	0.0008283
1861.49	0.000897
1871.13	0.0008249
1880.78	0.0008493
1890.42	0.0007612
1900.07	0.0008098
1909.71	0.0007162
1919.36	0.0007551
1929	0.0006607
1938.65	0.0006054
1948.29	0.00051906
1957.94	0.0006331
1967.58	0.0006412
1977.23	0.0005995
1986.87	0.0006921
1996.52	0.0006839
2006.16	0.0007049
2015.81	0.0006976
2025.45	0.0006216
2035.1	0.0006707
2044.74	0.0008175
2054.38	0.0008219
2064.03	0.0008528
2073.67	0.0008888
2083.32	0.0009028
2092.96	0.0007339
2102.61	0.0007142
2112.25	0.0006252
2121.9	0.000477856
2131.54	0.00049718
2141.19	0.0005773
2150.83	0.0005739
2160.48	0.0006431
2170.12	0.00052039
2179.77	0.000596
2189.41	0.0006464
2199.06	0.0006204
2208.7	0.00055972
2218.35	0.00051032
2227.99	0.0005845
2237.64	0.000599
2247.28	0.000623
2256.92	0.0005879
2266.57	0.00055396
2276.21	0.00053416
2285.86	0.0005939
2295.5	0.00056064
2305.15	0.0006138
2314.79	0.00050102
2324.44	0.00051591
2334.08	0.00051837
2343.73	0.0004285
2353.37	0.00053513
2363.02	0.00054672
2372.66	0.000586
2382.31	0.0005556
2391.95	0.00052529
2401.6	0.0006107
2411.24	0.0007173
2420.89	0.00056586
2430.53	0.000679
2440.18	0.0006692
2449.82	0.0006324
2459.47	0.00065
2469.11	0.0006289
2478.75	0.0006703
2488.4	0.0007097
2498.04	0.000664
2507.69	0.0006907
2517.33	0.0006391
2526.98	0.0006756
2536.62	0.0008151
2546.27	0.0006822
2555.91	0.0007267
2565.56	0.000721
2575.2	0.00069
2584.85	0.0007181
2594.49	0.0007906
2604.14	0.0007817
2613.78	0.0007057
2623.43	0.0006784
2633.07	0.0008332
2642.72	0.0008667
2652.36	0.0008038
2662.01	0.0007454
2671.65	0.0007111
2681.29	0.0007753
2690.94	0.0009213
2700.58	0.0010886
2710.23	0.0011082
2719.87	0.0011642
2729.52	0.0011013
2739.16	0.001419
2748.81	0.0013991
2758.45	0.001753
2768.1	0.001753
2777.74	0.0012729
2787.39	0.0012209
2797.03	0.0013572
2806.68	0.0013538
2816.32	0.001523
2825.97	0.002133
2835.61	0.003143
2845.26	0.004453
2854.9	0.004193
2864.55	0.004533
2874.19	0.006933
2883.84	0.006113
2893.48	0.003193
2903.12	0.002713
2912.77	0.002563
2922.41	0.002813
2932.06	0.002963
2941.7	0.003933
2951.35	0.004733
2960.99	0.004193
2970.64	0.003393
2980.28	0.002623
2989.93	0.002063
2999.57	0.002103
3009.22	0.003173
3018.86	0.003833
3028.51	0.002303
3038.15	0.0014252
3047.8	0.0013065
3057.44	0.001334
3067.09	0.001493
3076.73	0.0014718
3086.38	0.001733
3096.02	0.001993
3105.67	0.001883
3115.31	0.001623
3124.95	0.0013849
3134.6	0.0013091
3144.24	0.0012916
3153.89	0.001583
3163.53	0.001703
3173.18	0.002003
3182.82	0.002433
3192.47	0.002523
3202.11	0.002813
3211.76	0.003293
3221.4	0.003733
3231.05	0.003963
3240.69	0.004203
3250.34	0.004253
3259.98	0.004153
3269.63	0.004043
3279.27	0.003623
3288.92	0.003573
3298.56	0.003463
3308.21	0.003313
3317.85	0.003263
3327.49	0.003173
3337.14	0.003043
3346.78	0.002883
3356.43	0.002703
3366.07	0.002443
3375.72	0.002413
3385.36	0.002353
3395.01	0.002523
3404.65	0.002263
3414.3	0.001753
3423.94	0.001913
3433.59	0.001583
3443.23	0.0014067
3452.88	0.001513
3462.52	0.0010998
3472.17	0.0014535
3481.81	0.001301
3491.46	0.0012197
3501.1	0.001067
3510.75	0.0008674
3520.39	0.001009
3530.04	0.0010393
3539.68	0.0009564
3549.32	0.0010538
3558.97	0.0008037
3568.61	0.0007844
3578.26	0.0007328
3587.9	0.0007961
3597.55	0.0006391
3607.19	0.00056172
3616.84	0.0006185
3626.48	0.00037
3636.13	0.00056679
3645.77	0.00049163
3655.42	0.00051764
3665.06	0.0004011
3674.71	0.0005756
3684.35	0.0004102
3694	0.000342
3703.64	0.000323
3713.29	0.0004287
3722.93	0.000117
3732.58	0.0003787
3742.22	0.000259
3751.86	0.00035
3761.51	0.000126
3771.15	0.000296
3780.8	0.000301
3790.44	0.000345
3800.09	0.000193
3809.73	0.000243
3819.38	0.000197
3829.02	0.000249
3838.67	0.000369
3848.31	0.00018
3857.96	0.0003838
3867.6	0.000227
3877.25	0.0003881
3886.89	0.00026
3896.54	0.000314
3906.18	0.000211
3915.83	0.000239
3925.47	0.000319
3935.12	0.000257
3944.76	0.0004078
3954.41	0.000285
3964.05	0.000311
3973.69	0.000224
3983.34	0.000184
3992.98	0.000175
