Infrared Spectrum: N-2-(1,3-DIHYDROXY-2-METHYLPROPYL) ACETAMIDE
Formula: C6 H13 N O3
CAS: 66671-83-8
State: SOLID (KBr PELLET)
Melting point: 112.5-113.5 C
Class: COBLENTZ
Instrument: Not specified, most likely a prism, grating, or hybrid spectrometer.
Sampling: TRANSMISSION
Resolution: 4
Origin: ARTHUR D. LITTLE, INC.
1/CM	TRANSMITTANCE
652.004	0.427
660.356	0.417
668.708	0.416
677.06	0.385
685.412	0.344
693.764	0.27
702.115	0.181
710.467	0.135
718.819	0.171
727.171	0.259
735.523	0.337
743.875	0.409
752.227	0.423
760.579	0.419
768.931	0.423
777.283	0.476
785.635	0.541
793.986	0.589
802.338	0.636
810.69	0.66
819.042	0.678
827.394	0.693
835.746	0.717
844.098	0.727
852.45	0.731
860.802	0.732
869.154	0.724
877.506	0.704
885.857	0.678
894.209	0.674
902.561	0.66
910.913	0.731
919.265	0.728
927.617	0.64
935.969	0.409
944.321	0.614
952.673	0.678
961.025	0.596
969.376	0.437
977.728	0.502
986.08	0.655
994.432	0.64
1002.78	0.58
1011.14	0.527
1019.49	0.398
1027.84	0.292
1036.19	0.133
1044.54	0.04
1052.9	0.077
1061.25	0.214
1069.6	0.462
1077.95	0.586
1086.3	0.628
1094.66	0.64
1103.01	0.64
1111.36	0.633
1119.71	0.618
1128.06	0.566
1136.41	0.483
1144.77	0.547
1153.12	0.502
1161.47	0.36
1169.82	0.364
1178.17	0.527
1186.53	0.577
1194.88	0.664
1203.23	0.671
1211.58	0.662
1219.93	0.657
1228.29	0.644
1236.64	0.591
1244.99	0.493
1253.34	0.494
1261.69	0.547
1270.05	0.469
1278.4	0.431
1286.75	0.498
1295.1	0.451
1303.45	0.353
1311.8	0.317
1320.16	0.396
1328.51	0.388
1336.86	0.292
1345.21	0.16
1353.56	0.147
1361.92	0.151
1370.27	0.175
1378.62	0.242
1386.97	0.256
1395.32	0.247
1403.68	0.218
1412.03	0.176
1420.38	0.155
1428.73	0.151
1437.08	0.15
1445.44	0.153
1453.79	0.167
1462.14	0.203
1470.49	0.236
1478.84	0.267
1487.19	0.267
1495.55	0.257
1503.9	0.245
1512.25	0.235
1520.6	0.201
1528.95	0.182
1537.31	0.13
1545.66	0.089
1554.01	0.064
1562.36	0.059
1570.71	0.084
1579.07	0.161
1587.42	0.254
1595.77	0.274
1604.12	0.247
1612.47	0.21
1620.83	0.149
1629.18	0.098
1637.53	0.091
1645.88	0.116
1654.23	0.192
1662.58	0.282
1670.94	0.448
1679.29	0.525
1687.64	0.598
1695.99	0.607
1704.34	0.633
1712.7	0.633
1721.05	0.644
1729.4	0.635
1737.75	0.658
1746.1	0.668
1754.46	0.685
1762.81	0.688
1771.16	0.694
1779.51	0.714
1787.86	0.714
1796.22	0.727
1804.57	0.735
1812.92	0.736
1821.27	0.738
1829.62	0.74
1837.97	0.747
1846.33	0.752
1854.68	0.756
1863.03	0.753
1871.38	0.76
1879.73	0.759
1888.09	0.756
1896.44	0.761
1904.79	0.761
1913.14	0.763
1921.49	0.764
1929.85	0.766
1938.2	0.763
1946.55	0.768
1954.9	0.764
1963.25	0.774
1971.61	0.788
1979.96	0.789
1988.31	0.789
1996.66	0.791
2005.01	0.793
2013.36	0.791
2021.72	0.792
2030.07	0.789
2038.42	0.791
2046.77	0.791
2055.12	0.792
2063.48	0.792
2071.83	0.792
2080.18	0.789
2088.53	0.788
2096.88	0.786
2105.24	0.786
2113.59	0.789
2121.94	0.789
2130.29	0.793
2138.64	0.795
2147	0.795
2155.35	0.796
2163.7	0.793
2172.05	0.791
2180.4	0.792
2188.76	0.792
2197.11	0.792
2205.46	0.792
2213.81	0.791
2222.16	0.792
2230.51	0.791
2238.87	0.792
2247.22	0.796
2255.57	0.796
2263.92	0.795
2272.27	0.793
2280.63	0.793
2288.98	0.792
2297.33	0.789
2305.68	0.789
2314.03	0.791
2322.39	0.788
2330.74	0.791
2339.09	0.799
2347.44	0.8
2355.79	0.8
2364.15	0.805
2372.5	0.811
2380.85	0.811
2389.2	0.799
2397.55	0.772
2405.9	0.767
2414.26	0.763
2422.61	0.76
2430.96	0.761
2439.31	0.766
2447.66	0.767
2456.02	0.767
2464.37	0.766
2472.72	0.766
2481.07	0.763
2489.42	0.759
2497.78	0.754
2506.13	0.749
2514.48	0.742
2522.83	0.738
2531.18	0.727
2539.54	0.718
2547.89	0.701
2556.24	0.689
2564.59	0.669
2572.94	0.639
2581.29	0.619
2589.65	0.608
2598	0.608
2606.35	0.608
2614.7	0.605
2623.05	0.61
2631.41	0.616
2639.76	0.615
2648.11	0.61
2656.46	0.6
2664.81	0.594
2673.17	0.58
2681.52	0.555
2689.87	0.534
2698.22	0.519
2706.57	0.508
2714.93	0.508
2723.28	0.506
2731.63	0.5
2739.98	0.497
2748.33	0.494
2756.68	0.483
2765.04	0.467
2773.39	0.448
2781.74	0.428
2790.09	0.394
2798.44	0.346
2806.8	0.295
2815.15	0.239
2823.5	0.194
2831.85	0.176
2840.2	0.164
2848.56	0.154
2856.91	0.15
2865.26	0.147
2873.61	0.135
2881.96	0.123
2890.32	0.146
2898.67	0.168
2907.02	0.175
2915.37	0.168
2923.72	0.16
2932.07	0.157
2940.43	0.16
2948.78	0.174
2957.13	0.178
2965.48	0.175
2973.83	0.167
2982.19	0.164
2990.54	0.178
2998.89	0.183
3007.24	0.203
3015.59	0.193
3023.95	0.182
3032.3	0.168
3040.65	0.15
3049	0.135
3057.35	0.103
3065.71	0.072
3074.06	0.051
3082.41	0.04
3090.76	0.032
3099.11	0.025
3107.46	0.022
3115.82	0.023
3124.17	0.026
3132.52	0.025
3140.87	0.025
3149.22	0.026
3157.58	0.029
3165.93	0.03
3174.28	0.03
3182.63	0.032
3190.98	0.033
3199.34	0.033
3207.69	0.032
3216.04	0.027
3224.39	0.027
3232.74	0.026
3241.1	0.022
3249.45	0.02
3257.8	0.022
3266.15	0.022
3274.5	0.022
3282.85	0.022
3291.21	0.022
3299.56	0.023
3307.91	0.03
3316.26	0.061
3324.61	0.105
3332.97	0.15
3341.32	0.199
3349.67	0.229
3358.02	0.266
3366.37	0.298
3374.73	0.324
3383.08	0.349
3391.43	0.38
3399.78	0.401
3408.13	0.419
3416.49	0.435
3424.84	0.448
3433.19	0.461
3441.54	0.467
3449.89	0.481
3458.24	0.49
3466.6	0.506
3474.95	0.527
3483.3	0.547
3491.65	0.562
3500	0.584
3508.36	0.6
3516.71	0.626
3525.06	0.637
3533.41	0.66
3541.76	0.675
