Infrared Spectrum: t-Butyl phenyl ether
Formula: C 10 H 14 O
CAS: 6669-13-2
State: gas
Origin: EPA-IR VAPOR PHASE LIBRARY
1/CM	ABSORBANCE
549.8	0.000402
559.445	0.0009397
569.09	0.0008711
578.734	0.0009162
588.379	0.000672
598.024	0.001993
607.669	0.002313
617.313	0.0010762
626.958	0.0012161
636.603	0.001613
646.248	0.0014799
655.893	0.001813
665.537	0.003013
675.182	0.006213
684.827	0.011993
694.472	0.018883
704.116	0.013713
713.761	0.008283
723.406	0.004923
733.051	0.004613
742.695	0.006033
752.34	0.007963
761.985	0.009793
771.63	0.011323
781.275	0.009703
790.919	0.006123
800.564	0.005943
810.209	0.005913
819.854	0.004433
829.498	0.002963
839.143	0.002563
848.788	0.002483
858.433	0.003453
868.078	0.005933
877.722	0.011643
887.367	0.020943
897.012	0.023543
906.657	0.021473
916.301	0.022943
925.946	0.019593
935.591	0.010403
945.236	0.004383
954.88	0.002643
964.525	0.002273
974.17	0.002063
983.815	0.002263
993.46	0.002043
1003.1	0.003313
1012.75	0.004573
1022.39	0.007503
1032.04	0.005013
1041.68	0.002213
1051.33	0.002963
1060.97	0.004263
1070.62	0.004893
1080.26	0.003753
1089.91	0.002573
1099.55	0.001993
1109.2	0.002753
1118.84	0.003903
1128.49	0.006373
1138.13	0.013443
1147.78	0.029573
1157.42	0.054423
1167.07	0.069873
1176.71	0.075003
1186.36	0.060363
1196	0.032583
1205.64	0.020113
1215.29	0.023683
1224.93	0.040113
1234.58	0.059923
1244.22	0.060383
1253.87	0.037793
1263.51	0.019203
1273.16	0.012423
1282.8	0.009593
1292.45	0.007403
1302.09	0.005443
1311.74	0.003813
1321.38	0.003303
1331.03	0.003433
1340.67	0.004183
1350.32	0.007063
1359.96	0.014833
1369.61	0.021763
1379.25	0.017993
1388.9	0.016253
1398.54	0.012813
1408.18	0.005223
1417.83	0.003343
1427.47	0.003233
1437.12	0.003893
1446.76	0.005493
1456.41	0.007343
1466.05	0.012123
1475.7	0.025613
1485.34	0.050393
1494.99	0.050193
1504.63	0.020703
1514.28	0.007143
1523.92	0.005523
1533.57	0.004903
1543.21	0.004133
1552.86	0.004233
1562.5	0.005813
1572.15	0.010973
1581.79	0.022943
1591.44	0.036783
1601.08	0.026823
1610.73	0.010203
1620.37	0.004523
1630.01	0.002903
1639.66	0.002083
1649.3	0.001753
1658.95	0.001553
1668.59	0.0014509
1678.24	0.001553
1687.88	0.001583
1697.53	0.001583
1707.17	0.001753
1716.82	0.001843
1726.46	0.001743
1736.11	0.0014902
1745.75	0.0014661
1755.4	0.001347
1765.04	0.001553
1774.69	0.001873
1784.33	0.001873
1793.98	0.0014704
1803.62	0.0013744
1813.27	0.0013072
1822.91	0.0012238
1832.55	0.0011956
1842.2	0.0013938
1851.84	0.0014137
1861.49	0.001553
1871.13	0.0014417
1880.78	0.0013372
1890.42	0.001158
1900.07	0.0013318
1909.71	0.001503
1919.36	0.001833
1929	0.002223
1938.65	0.002403
1948.29	0.001933
1957.94	0.0014056
1967.58	0.0013337
1977.23	0.0012009
1986.87	0.0010387
1996.52	0.0009408
2006.16	0.0008979
2015.81	0.0008711
2025.45	0.0009327
2035.1	0.0011147
2044.74	0.0012872
2054.38	0.0011054
2064.03	0.0008985
2073.67	0.0008403
2083.32	0.0007898
2092.96	0.0007883
2102.61	0.0007542
2112.25	0.00059703
2121.9	0.0006664
2131.54	0.0007473
2141.19	0.0007034
2150.83	0.0006043
2160.48	0.0006562
2170.12	0.000505593
2179.77	0.00069
2189.41	0.00057272
2199.06	0.0006033
2208.7	0.0005197
2218.35	0.00059504
2227.99	0.0004904
2237.64	0.00055427
2247.28	0.0004844
2256.92	0.00059454
2266.57	0.000653
2276.21	0.0008249
2285.86	0.0009461
2295.5	0.0009118
2305.15	0.0007502
2314.79	0.0008533
2324.44	0.000761
2334.08	0.0006597
2343.73	0.00059144
2353.37	0.0006581
2363.02	0.00053622
2372.66	0.0008061
2382.31	0.0010095
2391.95	0.0011566
2401.6	0.0011035
2411.24	0.0010491
2420.89	0.0009366
2430.53	0.0009823
2440.18	0.0009478
2449.82	0.0009285
2459.47	0.0013548
2469.11	0.0013576
2478.75	0.0012267
2488.4	0.0010323
2498.04	0.0009252
2507.69	0.0010073
2517.33	0.0009096
2526.98	0.0009478
2536.62	0.0008677
2546.27	0.0008309
2555.91	0.0006543
2565.56	0.0006114
2575.2	0.0007897
2584.85	0.0006172
2594.49	0.0007098
2604.14	0.00060192
2613.78	0.0008449
2623.43	0.0008121
2633.07	0.0007245
2642.72	0.0007058
2652.36	0.0006881
2662.01	0.0006299
2671.65	0.0006235
2681.29	0.0006117
2690.94	0.0006596
2700.58	0.0008303
2710.23	0.0008211
2719.87	0.0008546
2729.52	0.0009416
2739.16	0.0009742
2748.81	0.0008914
2758.45	0.0009622
2768.1	0.000978
2777.74	0.0008491
2787.39	0.0009921
2797.03	0.0010673
2806.68	0.0011621
2816.32	0.0011946
2825.97	0.001563
2835.61	0.001793
2845.26	0.002103
2854.9	0.002683
2864.55	0.004283
2874.19	0.005793
2883.84	0.007353
2893.48	0.007973
2903.12	0.008943
2912.77	0.010273
2922.41	0.012063
2932.06	0.014983
2941.7	0.017403
2951.35	0.017203
2960.99	0.018803
2970.64	0.032983
2980.28	0.058913
2989.93	0.053463
2999.57	0.023903
3009.22	0.011013
3018.86	0.007763
3028.51	0.008713
3038.15	0.010933
3047.8	0.010353
3057.44	0.009713
3067.09	0.014253
3076.73	0.015203
3086.38	0.010843
3096.02	0.008673
3105.67	0.006273
3115.31	0.003513
3124.95	0.002103
3134.6	0.0014301
3144.24	0.0012565
3153.89	0.001061
3163.53	0.0011243
3173.18	0.0010497
3182.82	0.0011515
3192.47	0.0009969
3202.11	0.0013029
3211.76	0.0010484
3221.4	0.0008183
3231.05	0.0008456
3240.69	0.0011783
3250.34	0.0011151
3259.98	0.0008299
3269.63	0.0008921
3279.27	0.0006484
3288.92	0.0004798
3298.56	0.0007428
3308.21	0.00058215
3317.85	0.00053966
3327.49	0.00049548
3337.14	0.0006949
3346.78	0.000226
3356.43	0.00055154
3366.07	0.0006523
3375.72	0.0006429
3385.36	0.0004102
3395.01	0.00056967
3404.65	0.0006143
3414.3	0.00052461
3423.94	0.00049607
3433.59	0.00057158
3443.23	0.0006468
3452.88	0.0005212
3462.52	0.0004563
3472.17	0.00051973
3481.81	0.00054868
3491.46	0.000679
3501.1	0.000286
3510.75	0.000357
3520.39	0.000396
3530.04	0.00058795
3539.68	0.000510502
3549.32	0.00059439
3558.97	0.0004868
3568.61	0.000317
3578.26	0.0004273
3587.9	0.00055896
3597.55	0.000277
3607.19	0.0004918
3616.84	0.0004178
3626.48	0.0006177
3636.13	0.00056624
3645.77	0.0004344
3655.42	0.000383
3665.06	0.000334
3674.71	0.0004158
3684.35	0.00059437
3694	0.000396
3703.64	0.0007654
3713.29	0.0007498
3722.93	0.0004901
3732.58	0.00050153
3742.22	0.00057807
3751.86	0.0005477
3761.51	0.000801
3771.15	0.0006634
3780.8	0.00059969
3790.44	0.0006969
3800.09	0.00060007
3809.73	0.000506411
3819.38	0.0006857
3829.02	0.000277
3838.67	0.0007822
3848.31	0.00056863
3857.96	0.000392
3867.6	0.0006062
3877.25	0.0006083
3886.89	0.000388
3896.54	0.00049582
3906.18	0.0006567
3915.83	0.000387
3925.47	0.0006746
3935.12	0.00050076
3944.76	0.0007564
3954.41	0.0004856
3964.05	0.0006805
3973.69	0.001001
3983.34	0.0006943
3992.98	0.0004858
