Infrared Spectrum: Phenetole: Beta-bromo-2,3,4,5,6-pentafluoro-
Formula: C8 H4 Br F5 O
CAS: 6669-01-8
State: SOLUTION (10% CCl4 FOR 3800-1330, 10% CS2 FOR 1330-470 CM^-^1) VS SOLVENT
Class: COBLENTZ III
Instrument: DOW KBr FOREPRISM-GRATING
Instrument parameters: BLAZED AT 3.5, 12.0, 20.0 MICRON AND CHANGED AT 5.0, 7.5, 14.9 MICRON
Sampling: TRANSMISSION
Path length: 0.010 CM, 0.011 CM
Resolution: 2
Origin: DOW CHEMICAL COMPANY
1/CM	TRANSMITTANCE
472	0.896
481	0.8943
490	0.8952
499	0.8978
508	0.8984
517	0.8989
526	0.8989
535	0.8951
544	0.8862
553	0.8647
562	0.84
571	0.8361
580	0.7533
589	0.8555
598	0.8233
607	0.8692
616	0.8771
625	0.8823
634	0.8811
643	0.8737
652	0.8618
661	0.8499
670	0.8431
679	0.8204
688	0.8101
697	0.8178
706	0.8455
715	0.8628
724	0.864
733	0.8473
742	0.8578
751	0.8617
760	0.8543
769	0.8412
778	0.8286
787	0.822
796	0.8616
805	0.8591
814	0.8386
823	0.845
832	0.8637
841	0.8736
850	0.8778
859	0.8721
868	0.8633
877	0.857
886	0.8508
895	0.8423
904	0.8325
913	0.7871
922	0.6383
931	0.6594
940	0.6651
949	0.6511
958	0.6189
967	0.5587
976	0.3629
985	0.2908
994	0.0347
1003	0.0159
1012	0.075
1021	0.0398
1030	0.0036
1039	0.2242
1048	0.369
1057	0.329
1066	0.1334
1075	0.4125
1084	0.6235
1093	0.7442
1102	0.773
1111	0.7861
1120	0.7814
1129	0.7931
1138	0.7396
1147	0.5077
1156	0.4287
1165	0.5701
1174	0.6789
1183	0.7518
1192	0.7574
1201	0.7719
1210	0.7556
1219	0.7488
1228	0.7628
1237	0.8099
1246	0.8136
1255	0.8095
1264	0.7842
1273	0.5542
1282	0.6558
1291	0.728
1300	0.7828
1309	0.5745
1318	0.7967
1327	0.8186
1336	0.8228
1345	0.8196
1354	0.8075
1363	0.7732
1372	0.6487
1381	0.4951
1390	0.7587
1399	0.813
1408	0.8135
1417	0.7526
1426	0.7469
1435	0.7499
1444	0.5597
1453	0.5254
1462	0.5084
1471	0.359
1480	0.5804
1489	0.5666
1498	0.2173
1507	0.0385
1516	0.0001
1525	0.0195
1534	0.3336
1543	0.6422
1552	0.7195
1561	0.7771
1570	0.8021
1579	0.81
1588	0.8018
1597	0.8363
1606	0.8467
1615	0.8465
1624	0.837
1633	0.8053
1642	0.8078
1651	0.8267
1660	0.8456
1669	0.8558
1678	0.8548
1687	0.8517
1696	0.8491
1705	0.8504
1714	0.8506
1723	0.85
1732	0.8433
1741	0.8203
1750	0.8197
1759	0.8334
1768	0.8457
1777	0.8427
1786	0.845
1795	0.8514
1804	0.859
1813	0.8656
1822	0.8678
1831	0.8687
1840	0.8703
1849	0.8706
1858	0.8708
1867	0.87
1876	0.8668
1885	0.8657
1894	0.8678
1903	0.8715
1912	0.8727
1921	0.8731
1930	0.8733
1939	0.8728
1948	0.8715
1957	0.8714
1966	0.8718
1975	0.8725
1984	0.8733
1993	0.8703
2002	0.8721
2011	0.8747
2020	0.8774
2029	0.8788
2038	0.8777
2047	0.8753
2056	0.8708
2065	0.864
2074	0.8546
2083	0.8467
2092	0.8528
2101	0.8645
2110	0.8704
2119	0.8715
2128	0.8706
2137	0.8675
2146	0.8644
2155	0.862
2164	0.8632
2173	0.8651
2182	0.8674
2191	0.8682
2200	0.8683
2209	0.8673
2218	0.8658
2227	0.8639
2236	0.8621
2245	0.8613
2254	0.8624
2263	0.8635
2272	0.8647
2281	0.8666
2290	0.8671
2299	0.865
2308	0.8627
2317	0.8603
2326	0.858
2335	0.8564
2344	0.8549
2353	0.8533
2362	0.8518
2371	0.8503
2380	0.8489
2389	0.8474
2398	0.8431
2407	0.838
2416	0.8368
2425	0.8375
2434	0.8381
2443	0.8357
2452	0.8194
2461	0.7878
2470	0.7924
2479	0.8158
2488	0.8287
2497	0.8356
2506	0.8377
2515	0.8403
2524	0.8418
2533	0.8428
2542	0.8442
2551	0.8457
2560	0.8462
2569	0.8465
2578	0.8461
2587	0.8453
2596	0.8442
2605	0.8425
2614	0.84
2623	0.8363
2632	0.8325
2641	0.8285
2650	0.8207
2659	0.7961
2668	0.7818
2677	0.7971
2686	0.8197
2695	0.8352
2704	0.8417
2713	0.8427
2722	0.8432
2731	0.8432
2740	0.8424
2749	0.8414
2758	0.8407
2767	0.8405
2776	0.8421
2785	0.843
2794	0.8424
2803	0.8401
2812	0.8377
2821	0.8346
2830	0.8316
2839	0.8274
2848	0.8218
2857	0.8148
2866	0.804
2875	0.7771
2884	0.7812
2893	0.7906
2902	0.7915
2911	0.7894
2920	0.7828
2929	0.7683
2938	0.7561
2947	0.7462
2956	0.7391
2965	0.7121
2974	0.7049
2983	0.7282
2992	0.7583
3001	0.7868
3010	0.816
3019	0.8294
3028	0.8325
3037	0.8357
3046	0.8384
3055	0.8413
3064	0.8434
3073	0.8434
3082	0.8431
3091	0.8428
3100	0.8428
3109	0.8427
3118	0.8428
3127	0.8431
3136	0.8433
3145	0.8428
3154	0.8427
3163	0.8434
3172	0.8448
3181	0.8468
3190	0.8485
3199	0.8489
3208	0.8494
3217	0.8492
3226	0.8491
3235	0.8488
3244	0.8487
3253	0.8485
3262	0.8483
3271	0.8481
3280	0.848
3289	0.8478
3298	0.8477
3307	0.8475
3316	0.8475
3325	0.8474
3334	0.8473
3343	0.8471
3352	0.8471
3361	0.8471
3370	0.8475
3379	0.8478
3388	0.8484
3397	0.8488
3406	0.8493
3415	0.8497
3424	0.85
3433	0.8503
3442	0.8506
3451	0.8508
3460	0.8511
3469	0.8514
3478	0.8517
3487	0.852
3496	0.8521
3505	0.852
3514	0.852
3523	0.8518
3532	0.8518
3541	0.8518
3550	0.8518
3559	0.8521
3568	0.8524
3577	0.8527
3586	0.8528
3595	0.8528
3604	0.8527
3613	0.8527
3622	0.8528
3631	0.853
3640	0.8535
3649	0.8542
3658	0.855
3667	0.8557
3676	0.8565
3685	0.857
3694	0.8571
3703	0.8574
3712	0.8575
3721	0.8574
3730	0.8571
3739	0.857
3748	0.8563
3757	0.8554
3766	0.8546
3775	0.8541
3784	0.8537
3793	0.8533
3802	0.8528
