Infrared Spectrum: 4,5-Diphenylimidazole
Formula: C 15 H 12 N 2
CAS: 668-94-0
State: gas
Origin: EPA-IR VAPOR PHASE LIBRARY
1/CM	ABSORBANCE
501.5	0.0041499
513.074	0.0122199
524.648	0.0203099
536.222	0.0065099
547.796	0.0034199
559.37	0.0047899
570.944	0.0018499
582.518	0.0008586
594.092	0.0006569
605.666	0.0005422
617.24	0.0008051
628.814	0.0011099
640.388	0.0011699
651.962	0.0021099
663.536	0.0046899
675.11	0.0083999
686.684	0.0132499
698.258	0.0213899
709.832	0.0096499
721.406	0.0067899
732.98	0.0042999
744.554	0.0061099
756.128	0.0152899
767.702	0.0131199
779.276	0.0049399
790.85	0.0024199
802.423	0.0041499
813.997	0.0053899
825.571	0.0012899
837.145	0.0008186
848.719	0.0006696
860.293	0.0007969
871.867	0.0011799
883.441	0.0010643
895.015	0.0012099
906.589	0.0027599
918.163	0.0026599
929.737	0.0023799
941.311	0.0018799
952.885	0.0048299
964.459	0.0095099
976.033	0.0022899
987.607	0.0015399
999.181	0.0023599
1010.76	0.0026899
1022.33	0.0054799
1033.9	0.0065199
1045.48	0.0071799
1057.05	0.0039899
1068.63	0.0037199
1080.2	0.0021799
1091.77	0.0026499
1103.35	0.0035999
1114.92	0.0012399
1126.49	0.0012899
1138.07	0.0048699
1149.64	0.0031399
1161.22	0.0009609
1172.79	0.0009936
1184.36	0.0008397
1195.94	0.0004571
1207.51	0.0005051
1219.09	0.0009956
1230.66	0.0020899
1242.23	0.0015699
1253.81	0.0008922
1265.38	0.0007161
1276.96	0.0008583
1288.53	0.0014799
1300.1	0.0014299
1311.68	0.0011899
1323.25	0.0011499
1334.83	0.0013699
1346.4	0.0036399
1357.97	0.0046999
1369.55	0.0017199
1381.12	0.0011899
1392.7	0.0011999
1404.27	0.0022299
1415.84	0.0064299
1427.42	0.0085399
1438.99	0.0054899
1450.57	0.0043299
1462.14	0.0032299
1473.71	0.0041199
1485.29	0.0063199
1496.86	0.0088899
1508.44	0.0099899
1520.01	0.0022199
1531.58	0.0014499
1543.16	0.0012599
1554.73	0.0018699
1566.31	0.0025499
1577.88	0.0030399
1589.45	0.0043799
1601.03	0.0083099
1612.6	0.0079099
1624.18	0.0041199
1635.75	0.0013599
1647.32	0.0008217
1658.9	0.0007365
1670.47	0.0007745
1682.05	0.0006544
1693.62	0.0004149
1705.19	0.0003646
1716.77	0.0004285
1728.34	0.0005779
1739.92	0.0007671
1751.49	0.000785
1763.06	0.0005153
1774.64	0.0005175
1786.21	0.0006972
1797.79	0.0013299
1809.36	0.0009688
1820.93	0.0007536
1832.51	0.0004423
1844.08	0.0003635
1855.66	0.0005214
1867.23	0.0008707
1878.8	0.0012399
1890.38	0.0011499
1901.95	0.000593
1913.53	0.0004569
1925.1	0.0006784
1936.67	0.0011899
1948.25	0.0014099
1959.82	0.0010999
1971.4	0.0004253
1982.97	0.00029
1994.54	0.0002418
2006.12	0.0002115
2017.69	0.000211
2029.27	0.0002248
2040.84	0.0001962
2052.41	0.0002096
2063.99	0.00017372
2075.56	0.00016401
2087.14	0.0001494
2098.71	0.0001195
2110.28	0.00016367
2121.86	0.00014901
2133.43	0.00016685
2145.01	0.00018095
2156.58	0.0001908
2168.15	0.0002342
2179.73	0.0002301
2191.3	0.0002264
2202.88	0.0002115
2214.45	0.00018911
2226.02	0.0002093
2237.6	0.0002548
2249.17	0.0002581
2260.74	0.0002804
2272.32	0.0002388
2283.89	0.0002921
2295.47	0.0002786
2307.04	0.000362
2318.61	0.0004259
2330.19	0.0003678
2341.76	0.000377
2353.34	0.0003341
2364.91	0.0003652
2376.48	0.0003492
2388.06	0.0003327
2399.63	0.0003104
2411.21	0.000343
2422.78	0.0003833
2434.35	0.000376
2445.93	0.0003662
2457.5	0.0003749
2469.08	0.0003347
2480.65	0.0003427
2492.22	0.0004186
2503.8	0.0004781
2515.37	0.0005505
2526.95	0.0004702
2538.52	0.0003738
2550.09	0.0003707
2561.67	0.0004626
2573.24	0.0004126
2584.82	0.0002983
2596.39	0.0003024
2607.96	0.0003181
2619.54	0.0002502
2631.11	0.0002611
2642.69	0.0002985
2654.26	0.0003619
2665.83	0.0003179
2677.41	0.0003061
2688.98	0.0002931
2700.56	0.0003257
2712.13	0.0003211
2723.7	0.0002559
2735.28	0.0002498
2746.85	0.0003071
2758.43	0.0002999
2770	0.0003389
2781.57	0.0003196
2793.15	0.0002316
2804.72	0.000235
2816.3	0.0002798
2827.87	0.0003104
2839.44	0.0003739
2851.02	0.0003658
2862.59	0.0004257
2874.17	0.0004415
2885.74	0.0005029
2897.31	0.0004983
2908.89	0.0004836
2920.46	0.0005066
2932.04	0.0004942
2943.61	0.0005591
2955.18	0.0005822
2966.76	0.0005786
2978.33	0.0007516
2989.91	0.0010082
3001.48	0.0016399
3013.05	0.0027099
3024.63	0.0049399
3036.2	0.0071799
3047.78	0.0080499
3059.35	0.0123299
3070.92	0.0158499
3082.5	0.0099299
3094.07	0.0061999
3105.65	0.0034299
3117.22	0.0025799
3128.79	0.0019599
3140.37	0.0007557
3151.94	0.0005792
3163.52	0.0004097
3175.09	0.0003279
3186.66	0.0002496
3198.24	0.0002281
3209.81	0.0002163
3221.39	0.00017116
3232.96	0.00015992
3244.53	0.00016132
3256.11	0.00017958
3267.68	0.00015767
3279.26	0.0001956
3290.83	0.000151
3302.4	0.00015877
3313.98	0.00017014
3325.55	0.00012909
3337.13	0.0002197
3348.7	0.00015068
3360.27	0.0002096
3371.85	0.0002162
3383.42	0.0002084
3395	0.0002253
3406.57	0.0001618
3418.14	0.0002647
3429.72	0.0003389
3441.29	0.000603
3452.86	0.0010546
3464.44	0.0020299
3476.01	0.0048399
3487.59	0.0133699
3499.16	0.0125099
3510.73	0.0018799
3522.31	0.000591
3533.88	0.0003417
3545.46	0.0002771
3557.03	0.00017041
3568.6	0.00012991
3580.18	0.00017222
3591.75	0.00012163
3603.33	0.00018275
3614.9	0.00016056
3626.47	0.00011911
3638.05	0.0002341
3649.62	0.00011558
3661.2	0.0002249
3672.77	0.00017336
3684.34	0.0001916
3695.92	0.0002905
3707.49	0.0002046
3719.07	0.00014375
3730.64	0.0002126
3742.21	0.00016956
3753.79	0.0001927
3765.36	0.0001899
3776.94	0.0002023
3788.51	0.00015379
3800.08	0.00017547
3811.66	0.00012012
3823.23	0.00016421
3834.81	8.265e-05
3846.38	0.00014616
3857.95	8.42e-05
3869.53	0.00011268
3881.1	8.155e-05
3892.68	0.00013374
3904.25	0.00012913
3915.82	0.00013057
3927.4	0.00013847
3938.97	0.00013329
3950.55	0.00017345
3962.12	0.00017965
3973.69	0.0002385
3985.27	0.0002083
3996.84	0.0002887
