Infrared Spectrum: Ethyl-2,3-Dichloropropionate
Formula: C 5 H 8 Cl 2 O 2
CAS: 668-21-3
State: gas
Origin: EPA-IR VAPOR PHASE LIBRARY
1/CM	ABSORBANCE
501.5	0.003019
513.074	0.001789
524.648	0.001379
536.222	0.0013545
547.796	0.0011612
559.37	0.0013148
570.944	0.001409
582.518	0.001749
594.092	0.002399
605.666	0.003209
617.24	0.003729
628.814	0.004249
640.388	0.004199
651.962	0.003719
663.536	0.003839
675.11	0.005369
686.684	0.011549
698.258	0.024409
709.832	0.023309
721.406	0.012909
732.98	0.014789
744.554	0.016479
756.128	0.008419
767.702	0.004979
779.276	0.004779
790.85	0.005049
802.423	0.004949
813.997	0.004809
825.571	0.005469
837.145	0.005399
848.719	0.007119
860.293	0.009549
871.867	0.007019
883.441	0.004679
895.015	0.003489
906.589	0.003019
918.163	0.003449
929.737	0.004099
941.311	0.004959
952.885	0.006439
964.459	0.007949
976.033	0.008309
987.607	0.007659
999.181	0.011099
1010.76	0.021459
1022.33	0.030499
1033.9	0.028679
1045.48	0.019189
1057.05	0.014399
1068.63	0.014769
1080.2	0.013109
1091.77	0.014299
1103.35	0.015959
1114.92	0.015179
1126.49	0.015469
1138.07	0.023519
1149.64	0.052659
1161.22	0.077369
1172.79	0.069729
1184.36	0.064489
1195.94	0.044059
1207.51	0.037349
1219.09	0.046309
1230.66	0.045999
1242.23	0.042459
1253.81	0.058569
1265.38	0.054149
1276.96	0.048719
1288.53	0.047529
1300.1	0.031129
1311.68	0.023239
1323.25	0.024379
1334.83	0.026639
1346.4	0.025839
1357.97	0.015759
1369.55	0.018979
1381.12	0.017819
1392.7	0.010389
1404.27	0.008209
1415.84	0.007359
1427.42	0.010059
1438.99	0.014409
1450.57	0.011329
1462.14	0.008879
1473.71	0.008769
1485.29	0.006039
1496.86	0.003659
1508.44	0.002679
1520.01	0.002319
1531.58	0.002209
1543.16	0.002109
1554.73	0.001979
1566.31	0.001849
1577.88	0.001689
1589.45	0.001669
1601.03	0.001829
1612.6	0.001879
1624.18	0.001649
1635.75	0.001549
1647.32	0.001589
1658.9	0.001729
1670.47	0.001949
1682.05	0.002439
1693.62	0.003359
1705.19	0.005119
1716.77	0.008719
1728.34	0.016269
1739.92	0.033219
1751.49	0.066999
1763.06	0.106759
1774.64	0.079619
1786.21	0.030139
1797.79	0.012819
1809.36	0.006459
1820.93	0.003919
1832.51	0.002819
1844.08	0.002269
1855.66	0.002019
1867.23	0.001809
1878.8	0.001639
1890.38	0.001479
1901.95	0.0012757
1913.53	0.001165
1925.1	0.0010816
1936.67	0.0009993
1948.25	0.0009491
1959.82	0.0009154
1971.4	0.0008602
1982.97	0.0008435
1994.54	0.0008782
2006.12	0.0010268
2017.69	0.0010859
2029.27	0.0010274
2040.84	0.0009886
2052.41	0.0008992
2063.99	0.0008735
2075.56	0.0009143
2087.14	0.000949
2098.71	0.000911
2110.28	0.0008335
2121.86	0.0008006
2133.43	0.0007493
2145.01	0.0007207
2156.58	0.0006424
2168.15	0.0005923
2179.73	0.0005707
2191.3	0.0005588
2202.88	0.0005646
2214.45	0.0005728
2226.02	0.00058
2237.6	0.0005309
2249.17	0.0005554
2260.74	0.0005621
2272.32	0.0005529
2283.89	0.0005514
2295.47	0.0005898
2307.04	0.0006639
2318.61	0.0007175
2330.19	0.0006984
2341.76	0.0006718
2353.34	0.0006537
2364.91	0.0006225
2376.48	0.0006179
2388.06	0.0006554
2399.63	0.0007363
2411.21	0.0007557
2422.78	0.0006301
2434.35	0.0005887
2445.93	0.000576
2457.5	0.0005788
2469.08	0.0005912
2480.65	0.0005972
2492.22	0.0005739
2503.8	0.0005052
2515.37	0.00046727
2526.95	0.00042687
2538.52	0.00046044
2550.09	0.00043049
2561.67	0.00038277
2573.24	0.000356
2584.82	0.0003534
2596.39	0.0003411
2607.96	0.000341
2619.54	0.0003812
2631.11	0.0003386
2642.69	0.0003142
2654.26	0.0002741
2665.83	0.000244
2677.41	0.000219
2688.98	0.0002781
2700.56	0.0002859
2712.13	0.0002944
2723.7	0.0003965
2735.28	0.00046131
2746.85	0.00046404
2758.43	0.0004729
2770	0.0005114
2781.57	0.0005722
2793.15	0.0006327
2804.72	0.000689
2816.3	0.0008196
2827.87	0.0009894
2839.44	0.0011701
2851.02	0.001499
2862.59	0.001999
2874.17	0.002829
2885.74	0.003949
2897.31	0.004409
2908.89	0.005279
2920.46	0.006049
2932.04	0.007449
2943.61	0.011379
2955.18	0.011699
2966.76	0.013319
2978.33	0.021169
2989.91	0.026629
3001.48	0.018359
3013.05	0.011029
3024.63	0.006189
3036.2	0.003469
3047.78	0.002109
3059.35	0.001419
3070.92	0.0010535
3082.5	0.0008973
3094.07	0.0007906
3105.65	0.0007477
3117.22	0.0007046
3128.79	0.0006151
3140.37	0.0006292
3151.94	0.0005142
3163.52	0.0004908
3175.09	0.0003326
3186.66	0.000264
3198.24	0.0003107
3209.81	0.000237
3221.39	0.000192
3232.96	0.000206
3244.53	0.00018
3256.11	0.000158
3267.68	8.4e-05
3279.26	2.3e-05
3290.83	5.6e-05
3302.4	3.1e-05
3313.98	0
3325.55	7.1e-05
3337.13	2.3e-05
3348.7	4.2e-05
3360.27	6.5e-05
3371.85	9.4e-05
3383.42	7.1e-05
3395	9.1e-05
3406.57	8.8e-05
3418.14	0.000126
3429.72	0.000194
3441.29	0.000209
3452.86	0.000215
3464.44	0.000358
3476.01	0.0005297
3487.59	0.0006254
3499.16	0.0008996
3510.73	0.0011852
3522.31	0.0010809
3533.88	0.0007227
3545.46	0.00046791
3557.03	0.000358
3568.6	0.000166
3580.18	0.000211
3591.75	0.000205
3603.33	0.00017
3614.9	9.7e-05
3626.47	0.000129
3638.05	8.8e-05
3649.62	9.1e-05
3661.2	0.000103
3672.77	0.000154
3684.34	0.000154
3695.92	0.000185
3707.49	0.000118
3719.07	0.000215
3730.64	0.000233
3742.21	0.000152
3753.79	0.000215
3765.36	0.000231
3776.94	0.000233
3788.51	0.000192
3800.08	0.0002961
3811.66	0.000215
3823.23	0.000224
3834.81	0.000177
3846.38	0.000258
3857.95	0.000221
3869.53	0.000233
3881.1	0.000143
3892.68	0.0002772
3904.25	0.000197
3915.82	0.000117
3927.4	0.000214
3938.97	0.000236
3950.55	0.000102
3962.12	0.000129
3973.69	0.000209
3985.27	0.000211
3996.84	0.000252
