Infrared Spectrum: ALLOCOCAINE
Formula: C17 H21 N O4
CAS: 668-19-9
State: SOLID (1.2 mg / 125 mg KBr DISC)
Melting point: 98 C
Boiling point: 187-188 C AT 0.1 mmHg
Class: COBLENTZ III
Instrument: PERKIN-ELMER 21 (GRATING)
Instrument parameters: FILTER AT ABOUT 10 MICRONS
Sampling: TRANSMISSION
Resolution: 2
Origin: BUREAU OF CUSTOMS
1/CM	TRANSMITTANCE
4000	0.9034
3991	0.9046
3982	0.9059
3973	0.9071
3964	0.9084
3955	0.9096
3946	0.9107
3937	0.9117
3928	0.9125
3919	0.9135
3910	0.9144
3901	0.9151
3892	0.9154
3883	0.9157
3874	0.916
3865	0.9163
3856	0.9166
3847	0.9168
3838	0.9171
3829	0.9175
3820	0.9178
3811	0.9181
3802	0.9183
3793	0.9185
3784	0.9186
3775	0.9187
3766	0.9188
3757	0.9189
3748	0.9191
3739	0.9191
3730	0.9193
3721	0.9192
3712	0.919
3703	0.9189
3694	0.9186
3685	0.9174
3676	0.9161
3667	0.9147
3658	0.9128
3649	0.9106
3640	0.9084
3631	0.9062
3622	0.9041
3613	0.9017
3604	0.8982
3595	0.8946
3586	0.8911
3577	0.8875
3568	0.8838
3559	0.8801
3550	0.8764
3541	0.8725
3532	0.8681
3523	0.8637
3514	0.8587
3505	0.8518
3496	0.8456
3487	0.8393
3478	0.837
3469	0.8374
3460	0.8382
3451	0.839
3442	0.8412
3433	0.8438
3424	0.8465
3415	0.8516
3406	0.8575
3397	0.8635
3388	0.8689
3379	0.8728
3370	0.8767
3361	0.8807
3352	0.8846
3343	0.8886
3334	0.8925
3325	0.8953
3316	0.8978
3307	0.9005
3298	0.9032
3289	0.9059
3280	0.9083
3271	0.9106
3262	0.9128
3253	0.9151
3244	0.9175
3235	0.9198
3226	0.9221
3217	0.9242
3208	0.9263
3199	0.9284
3190	0.9298
3181	0.931
3172	0.9321
3163	0.9313
3154	0.9247
3145	0.9166
3136	0.9135
3127	0.9108
3118	0.9088
3109	0.9075
3100	0.9062
3091	0.9041
3082	0.9008
3073	0.8951
3064	0.8871
3055	0.8763
3046	0.8606
3037	0.8432
3028	0.8165
3019	0.7265
3010	0.6231
3001	0.5697
2992	0.563
2983	0.496
2974	0.45
2965	0.491
2956	0.5493
2947	0.6079
2938	0.6668
2929	0.7085
2920	0.7032
2911	0.6901
2902	0.6954
2893	0.7121
2884	0.7238
2875	0.7692
2866	0.8164
2857	0.8639
2848	0.8887
2839	0.856
2830	0.8193
2821	0.831
2812	0.8688
2803	0.8958
2794	0.9134
2785	0.9262
2776	0.9382
2767	0.9471
2758	0.952
2749	0.9548
2740	0.9571
2731	0.9589
2722	0.9597
2713	0.9604
2704	0.9612
2695	0.9617
2686	0.9621
2677	0.9627
2668	0.9633
2659	0.9637
2650	0.9638
2641	0.9639
2632	0.964
2623	0.9641
2614	0.9642
2605	0.9648
2596	0.9654
2587	0.966
2578	0.9666
2569	0.9673
2560	0.9683
2551	0.9695
2542	0.9707
2533	0.9718
2524	0.9731
2515	0.9743
2506	0.9751
2497	0.9759
2488	0.9771
2479	0.9786
2470	0.982
2461	0.9854
2452	0.9858
2443	0.9858
2434	0.9844
2425	0.9828
2416	0.9785
2407	0.9739
2398	0.9683
2389	0.9582
2380	0.9473
2371	0.951
2362	0.955
2353	0.9573
2344	0.9624
2335	0.9693
2326	0.9774
2317	0.9837
2308	0.9888
2299	0.9894
2290	0.9892
2281	0.989
2272	0.9891
2263	0.9893
2254	0.9895
2245	0.9893
2236	0.9897
2227	0.9909
2218	0.9925
2209	0.9941
2200	0.9957
2191	0.9964
2182	0.9967
2173	0.9966
2164	0.9957
2155	0.9933
2146	0.9843
2137	0.9755
2128	0.9738
2119	0.974
2110	0.9786
2101	0.9834
2092	0.9856
2083	0.9867
2074	0.9856
2065	0.9871
2056	0.9868
2047	0.9828
2038	0.9783
2029	0.9746
2020	0.9711
2011	0.9698
2002	0.97
1993	0.9703
1984	0.9714
1975	0.9724
1966	0.9735
1957	0.9744
1948	0.9744
1939	0.9738
1930	0.974
1921	0.9789
1912	0.9847
1903	0.9871
1894	0.9875
1885	0.9856
1876	0.9784
1867	0.9693
1858	0.9609
1849	0.9532
1840	0.9458
1831	0.9383
1822	0.9255
1813	0.9045
1804	0.8689
1795	0.8564
1786	0.8139
1777	0.7068
1768	0.4331
1759	0.2146
1750	0.1104
1741	0.3637
1732	0.3599
1723	0.1044
1714	0.3254
1705	0.5654
1696	0.7326
1687	0.781
1678	0.8211
1669	0.8543
1660	0.8825
1651	0.8988
1642	0.9035
1633	0.8888
1624	0.8609
1615	0.7362
1606	0.8673
1597	0.7885
1588	0.891
1579	0.9193
1570	0.9262
1561	0.9432
1552	0.9458
1543	0.942
1534	0.9366
1525	0.9421
1516	0.9399
1507	0.8527
1498	0.8589
1489	0.6769
1480	0.7688
1471	0.7018
1462	0.3654
1453	0.5982
1444	0.6467
1435	0.8668
1426	0.8502
1417	0.8784
1408	0.853
1399	0.7554
1390	0.724
1381	0.6355
1372	0.7678
1363	0.7201
1354	0.7064
1345	0.8078
1336	0.7275
1327	0.3943
1318	0.5454
1309	0.4531
1300	0.431
1291	0.2545
1282	0.0644
1273	0.145
1264	0.2398
1255	0.3452
1246	0.447
1237	0.3158
1228	0.3974
1219	0.3799
1210	0.678
1201	0.574
1192	0.2866
1183	0.2827
1174	0.5582
1165	0.587
1156	0.3623
1147	0.4924
1138	0.4781
1129	0.4881
1120	0.2387
1111	0.1182
1102	0.3718
1093	0.6015
1084	0.7184
1075	0.442
1066	0.6633
1057	0.7692
1048	0.5041
1039	0.1996
1030	0.5262
1021	0.4685
1012	0.6382
1003	0.7257
994	0.6143
985	0.7078
976	0.6398
967	0.804
958	0.859
949	0.8821
940	0.85
931	0.8895
922	0.9073
913	0.9206
904	0.934
895	0.9239
886	0.939
877	0.7851
868	0.8871
859	0.925
850	0.8828
841	0.8709
832	0.9367
823	0.9543
814	0.9394
805	0.8436
796	0.9531
787	0.9059
778	0.4578
769	0.8525
760	0.9097
751	0.7737
742	0.8893
733	0.7348
724	0.2803
715	0.2182
706	0.568
697	0.7868
688	0.6469
679	0.6482
670	0.7857
661	0.8082
652	0.6665
