Infrared Spectrum: DIETHYL 2,5-DIETHYLADIPATE
Formula: C14 H26 O4
CAS: 66827-00-7
Class: COBLENTZ
Instrument: Not specified, most likely a prism, grating, or hybrid spectrometer.
Sampling: TRANSMISSION
Path length: 0.0026 CM CELL
Resolution: 4
MICROMETERS	TRANSMITTANCE
2.027	0.916
2.06697	0.914
2.10695	0.916
2.14692	0.901
2.18689	0.863
2.22687	0.851
2.26684	0.876
2.30681	0.888
2.34679	0.883
2.38676	0.888
2.42673	0.898
2.46671	0.916
2.50668	0.921
2.54665	0.924
2.58663	0.923
2.6266	0.929
2.66657	0.928
2.70655	0.926
2.74652	0.931
2.78649	0.934
2.82647	0.929
2.86644	0.851
2.90641	0.918
2.94639	0.926
2.98636	0.929
3.02633	0.931
3.06631	0.929
3.10628	0.909
3.14625	0.904
3.18623	0.898
3.2262	0.874
3.26618	0.797
3.30615	0.429
3.34612	0.07
3.3861	0.036
3.42607	0.136
3.46604	0.222
3.50602	0.527
3.54599	0.786
3.58596	0.851
3.62594	0.878
3.66591	0.879
3.70588	0.918
3.74586	0.923
3.78583	0.933
3.8258	0.941
3.86578	0.934
3.90575	0.944
3.94572	0.948
3.9857	0.949
4.02567	0.954
4.06564	0.956
4.10562	0.956
4.14559	0.953
4.18556	0.954
4.22554	0.956
4.26551	0.958
4.30548	0.959
4.34546	0.961
4.38543	0.963
4.4254	0.964
4.46538	0.966
4.50535	0.966
4.54532	0.966
4.5853	0.966
4.62527	0.966
4.66524	0.964
4.70522	0.959
4.74519	0.959
4.78516	0.954
4.82514	0.944
4.86511	0.941
4.90508	0.933
4.94506	0.933
4.98503	0.943
5.025	0.941
5.06498	0.949
5.10495	0.943
5.14492	0.941
5.1849	0.949
5.22487	0.946
5.26484	0.933
5.30482	0.929
5.34479	0.933
5.38476	0.936
5.42474	0.933
5.46471	0.921
5.50468	0.903
5.54466	0.863
5.58463	0.787
5.62461	0.691
5.66458	0.544
5.70455	0.313
5.74453	0.04
5.7845	0.016
5.82447	0.021
5.86445	0.315
5.90442	0.512
5.94439	0.604
5.98437	0.749
6.02434	0.828
6.06431	0.851
6.10429	0.883
6.14426	0.894
6.18423	0.906
6.22421	0.911
6.26418	0.916
6.30415	0.916
6.34413	0.911
6.3841	0.899
6.42407	0.876
6.46405	0.881
6.50402	0.871
6.54399	0.866
6.58397	0.848
6.62394	0.824
6.66391	0.797
6.70389	0.697
6.74386	0.482
6.78383	0.317
6.82381	0.1
6.86378	0.138
6.90375	0.242
6.94373	0.507
6.9837	0.647
7.02367	0.681
7.06365	0.661
7.10362	0.55
7.14359	0.352
7.18357	0.263
7.22354	0.126
7.26351	0.11
7.30349	0.257
7.34346	0.459
7.38343	0.407
7.42341	0.425
7.46338	0.477
7.50335	0.509
7.54333	0.504
7.5833	0.455
7.62327	0.4
7.66325	0.32
7.70322	0.285
7.74319	0.302
7.78317	0.3
7.82314	0.237
7.86312	0.128
7.90309	0.09
7.94306	0.116
7.98304	0.16
8.02301	0.143
8.06298	0.121
8.10296	0.153
8.14293	0.141
8.1829	0.128
8.22288	0.141
8.26285	0.11
8.30282	0.075
8.3428	0.04
8.38277	0.041
8.42274	0.028
8.46272	0.02
8.50269	0.016
8.54266	0.016
8.58264	0.018
8.62261	0.02
8.66258	0.03
8.70256	0.048
8.74253	0.06
8.7825	0.081
8.82248	0.143
8.86245	0.195
8.90242	0.23
8.9424	0.235
8.98237	0.232
9.02234	0.222
9.06232	0.176
9.10229	0.13
9.14226	0.153
9.18224	0.233
9.22221	0.318
9.26218	0.397
9.30216	0.442
9.34213	0.477
9.3821	0.515
9.42208	0.515
9.46205	0.467
9.50202	0.405
9.542	0.358
9.58197	0.292
9.62194	0.203
9.66192	0.125
9.70189	0.098
9.74186	0.13
9.78184	0.245
9.82181	0.398
9.86178	0.49
9.90176	0.572
9.94173	0.651
9.9817	0.712
10.0217	0.751
10.0617	0.779
10.1016	0.799
10.1416	0.814
10.1816	0.829
10.2215	0.848
10.2615	0.868
10.3015	0.881
10.3415	0.888
10.3814	0.898
10.4214	0.901
10.4614	0.906
10.5014	0.901
10.5413	0.879
10.5813	0.848
10.6213	0.784
10.6613	0.737
10.7012	0.721
10.7412	0.717
10.7812	0.736
10.8211	0.759
10.8611	0.781
10.9011	0.796
10.9411	0.819
10.981	0.853
11.021	0.883
11.061	0.903
11.101	0.913
11.1409	0.918
11.1809	0.916
11.2209	0.924
11.2609	0.926
11.3008	0.926
11.3408	0.921
11.3808	0.906
11.4207	0.891
11.4607	0.846
11.5007	0.782
11.5407	0.742
11.5806	0.717
11.6206	0.722
11.6606	0.747
11.7006	0.766
11.7405	0.772
11.7805	0.772
11.8205	0.801
11.8605	0.833
11.9004	0.868
11.9404	0.889
11.9804	0.893
12.0203	0.883
12.0603	0.851
12.1003	0.799
12.1403	0.767
12.1802	0.752
12.2202	0.744
12.2602	0.742
12.3002	0.751
12.3401	0.741
12.3801	0.741
12.4201	0.746
12.4601	0.752
12.5	0.762
12.54	0.766
12.58	0.759
12.6199	0.741
12.6599	0.716
12.6999	0.701
12.7399	0.681
12.7798	0.664
12.8198	0.646
12.8598	0.636
12.8998	0.652
12.9397	0.689
12.9797	0.726
13.0197	0.752
13.0597	0.769
13.0996	0.776
13.1396	0.764
13.1796	0.759
13.2195	0.744
13.2595	0.732
13.2995	0.742
13.3395	0.759
13.3794	0.784
13.4194	0.796
13.4594	0.804
13.4994	0.818
13.5393	0.834
13.5793	0.849
13.6193	0.868
13.6593	0.891
13.6992	0.914
13.7392	0.928
13.7792	0.943
13.8192	0.956
13.8591	0.968
13.8991	0.976
13.9391	0.979
13.979	0.981
14.019	0.983
14.059	0.983
14.099	0.986
14.1389	0.988
14.1789	0.988
14.2189	0.989
14.2589	0.981
14.2988	0.979
14.3388	0.974
14.3788	0.971
14.4188	0.968
14.4587	0.961
14.4987	0.966
14.5387	0.961
14.5786	0.956
14.6186	0.953
14.6586	0.938
14.6986	0.933
14.7385	0.931
14.7785	0.926
14.8185	0.918
14.8585	0.913
14.8984	0.908
14.9384	0.901
14.9784	0.896
15.0184	0.889
15.0583	0.883
15.0983	0.878
15.1383	0.871
15.1782	0.861
15.2182	0.851
15.2582	0.839
15.2982	0.836
15.3381	0.831
15.3781	0.821
15.4181	0.811
15.4581	0.801
15.498	0.792
15.538	0.777
15.578	0.774
15.618	0.769
15.6579	0.761
15.6979	0.757
15.7379	0.752
15.7778	0.746
15.8178	0.739
15.8578	0.734
15.8978	0.724
15.9377	0.714
15.9777	0.716
