Infrared Spectrum: DIETHYL 2-ETHYL SUBERATE
Formula: C14 H26 O4
CAS: 66827-01-8
State: LIQUID
Class: COBLENTZ
Instrument: Not specified, most likely a prism, grating, or hybrid spectrometer.
Sampling: TRANSMISSION
Path length: 0.0009 CM
Resolution: 4
Origin: US INDUSTRIAL CHEMICAL COMPANY, CINCINNATI, OHIO
MICROMETERS	TRANSMITTANCE
2.048	0.923
2.08901	0.923
2.13003	0.926
2.17104	0.912
2.21206	0.897
2.25307	0.902
2.29409	0.907
2.3351	0.909
2.37612	0.905
2.41713	0.902
2.45815	0.909
2.49916	0.919
2.54018	0.914
2.58119	0.909
2.62221	0.921
2.66322	0.909
2.70424	0.909
2.74525	0.9
2.78626	0.873
2.82728	0.871
2.86829	0.871
2.90931	0.859
2.95032	0.88
2.99134	0.87
3.03235	0.854
3.07337	0.847
3.11438	0.844
3.1554	0.849
3.19641	0.864
3.23743	0.861
3.27844	0.83
3.31946	0.716
3.36047	0.263
3.40149	0.16
3.4425	0.312
3.48351	0.427
3.52453	0.588
3.56554	0.805
3.60656	0.858
3.64757	0.875
3.68859	0.88
3.7296	0.885
3.77062	0.89
3.81163	0.9
3.85265	0.9
3.89366	0.904
3.93468	0.907
3.97569	0.902
4.01671	0.912
4.05772	0.911
4.09874	0.912
4.13975	0.911
4.18076	0.905
4.22178	0.887
4.26279	0.858
4.30381	0.863
4.34482	0.894
4.38584	0.911
4.42685	0.912
4.46787	0.916
4.50888	0.919
4.5499	0.921
4.59091	0.923
4.63193	0.923
4.67294	0.921
4.71396	0.911
4.75497	0.911
4.79599	0.907
4.837	0.905
4.87801	0.904
4.91903	0.9
4.96004	0.911
5.00106	0.914
5.04207	0.912
5.08309	0.909
5.1241	0.904
5.16512	0.904
5.20613	0.902
5.24715	0.911
5.28816	0.902
5.32918	0.897
5.37019	0.899
5.41121	0.909
5.45222	0.897
5.49324	0.89
5.53425	0.871
5.57526	0.837
5.61628	0.767
5.65729	0.683
5.69831	0.56
5.73932	0.275
5.78034	0.037
5.82135	0.097
5.86237	0.353
5.90338	0.492
5.9444	0.644
5.98541	0.772
6.02643	0.822
6.06744	0.837
6.10846	0.866
6.14947	0.878
6.19049	0.882
6.2315	0.892
6.27251	0.899
6.31353	0.897
6.35454	0.883
6.39556	0.875
6.43657	0.887
6.47759	0.868
6.5186	0.882
6.55962	0.868
6.60063	0.871
6.64165	0.854
6.68266	0.837
6.72368	0.75
6.76469	0.622
6.80571	0.422
6.84672	0.343
6.88774	0.452
6.92875	0.543
6.96976	0.652
7.01078	0.647
7.05179	0.663
7.09281	0.687
7.13382	0.613
7.17484	0.517
7.21585	0.434
7.25687	0.333
7.29788	0.374
7.3389	0.584
7.37991	0.574
7.42093	0.547
7.46194	0.581
7.50296	0.598
7.54397	0.586
7.58499	0.56
7.626	0.523
7.66701	0.458
7.70803	0.444
7.74904	0.485
7.79006	0.487
7.83107	0.442
7.87209	0.367
7.9131	0.312
7.95412	0.292
7.99513	0.292
8.03615	0.3
8.07716	0.317
8.11818	0.316
8.15919	0.305
8.20021	0.305
8.24122	0.302
8.28224	0.29
8.32325	0.244
8.36426	0.198
8.40528	0.147
8.44629	0.117
8.48731	0.088
8.52832	0.09
8.56934	0.123
8.61035	0.138
8.65137	0.155
8.69238	0.179
8.7334	0.232
8.77441	0.319
8.81543	0.427
8.85644	0.47
8.89746	0.473
8.93847	0.447
8.97949	0.441
9.0205	0.449
9.06151	0.423
9.10253	0.386
9.14354	0.394
9.18456	0.435
9.22557	0.519
9.26659	0.582
9.3076	0.608
9.34862	0.623
9.38963	0.618
9.43065	0.589
9.47166	0.579
9.51268	0.564
9.55369	0.535
9.59471	0.476
9.63572	0.403
9.67674	0.357
9.71775	0.355
9.75876	0.398
9.79978	0.505
9.84079	0.613
9.88181	0.682
9.92282	0.743
9.96384	0.781
10.0049	0.808
10.0459	0.827
10.0869	0.839
10.1279	0.859
10.1689	0.876
10.2099	0.876
10.2509	0.878
10.292	0.878
10.333	0.87
10.374	0.863
10.415	0.861
10.456	0.856
10.497	0.852
10.538	0.847
10.5791	0.83
10.6201	0.829
10.6611	0.829
10.7021	0.829
10.7431	0.829
10.7841	0.825
10.8251	0.818
10.8662	0.815
10.9072	0.822
10.9482	0.837
10.9892	0.847
11.0302	0.858
11.0712	0.868
11.1122	0.873
11.1533	0.875
11.1943	0.875
11.2353	0.871
11.2763	0.863
11.3173	0.863
11.3583	0.861
11.3994	0.854
11.4404	0.844
11.4814	0.827
11.5224	0.798
11.5634	0.776
11.6044	0.75
11.6454	0.736
11.6865	0.731
11.7275	0.736
11.7685	0.758
11.8095	0.774
11.8505	0.786
11.8915	0.794
11.9325	0.805
11.9736	0.815
12.0146	0.827
12.0556	0.835
12.0966	0.837
12.1376	0.835
12.1786	0.83
12.2196	0.82
12.2607	0.811
12.3017	0.805
12.3427	0.798
12.3837	0.786
12.4247	0.781
12.4657	0.779
12.5068	0.779
12.5478	0.784
12.5888	0.789
12.6298	0.793
12.6708	0.791
12.7118	0.781
12.7528	0.77
12.7939	0.767
12.8349	0.764
12.8759	0.776
12.9169	0.789
12.9579	0.8
12.9989	0.808
13.0399	0.82
13.081	0.823
13.122	0.829
13.163	0.829
13.204	0.822
13.245	0.817
13.286	0.813
13.327	0.813
13.3681	0.825
13.4091	0.818
13.4501	0.832
13.4911	0.835
13.5321	0.834
13.5731	0.825
13.6141	0.818
13.6552	0.815
13.6962	0.818
13.7372	0.825
13.7782	0.844
13.8192	0.861
13.8602	0.876
13.9012	0.887
13.9423	0.897
13.9833	0.9
14.0243	0.905
14.0653	0.907
14.1063	0.909
14.1473	0.911
14.1884	0.914
14.2294	0.916
14.2704	0.917
14.3114	0.919
14.3524	0.921
14.3934	0.912
14.4344	0.912
14.4755	0.923
14.5165	0.921
14.5575	0.909
14.5985	0.909
14.6395	0.909
14.6805	0.912
14.7215	0.909
14.7626	0.907
14.8036	0.905
14.8446	0.905
14.8856	0.907
14.9266	0.902
14.9676	0.887
15.0086	0.88
15.0497	0.897
15.0907	0.897
15.1317	0.888
15.1727	0.887
15.2137	0.885
15.2547	0.88
15.2957	0.875
15.3368	0.873
15.3778	0.864
15.4188	0.849
15.4598	0.847
15.5008	0.846
15.5418	0.841
15.5829	0.835
15.6239	0.827
15.6649	0.822
15.7059	0.817
15.7469	0.81
15.7879	0.805
15.8289	0.793
15.87	0.781
15.911	0.777
15.952	0.767
15.993	0.762
