Infrared Spectrum: 2-Methyl-4-phenyl-1-butene
Formula: C 11 H 14
CAS: 6683-51-8
State: gas
Instrument: HP-GC/MS/IRD
Origin: NIST Mass Spectrometry Data Center
1/CM	ABSORBANCE
550	0.0012046
562	0.0013794
574	0.0016625
586	0.0008075
598	0.0003344
610	4.56e-05
622	8.17e-05
634	1.9e-06
646	0.0002413
658	0.0007942
670	0.0023047
682	0.0059869
694	0.012483
706	0.011248
718	0.0075107
730	0.0075468
742	0.0077349
754	0.0055157
766	0.003458
778	0.001558
790	0.000646
802	0.0004047
814	0.0003838
826	0.0004389
838	0.0005681
850	0.0009861
862	0.0019874
874	0.0050673
886	0.0113601
898	0.0105697
910	0.0044251
922	0.0019038
934	0.0010488
946	0.000684
958	0.0005453
970	0.0005092
982	0.000494
994	0.0005358
1006	0.0006555
1018	0.0012426
1030	0.0024909
1042	0.0011894
1054	0.0007524
1066	0.0011951
1078	0.0013072
1090	0.0007733
1102	0.0004028
1114	0.0002831
1126	0.0001615
1138	0.0001748
1150	0.000304
1162	0.0003781
1174	0.0003629
1186	0.0004883
1198	0.0006289
1210	0.0006574
1222	0.0008075
1234	0.0008075
1246	0.0007771
1258	0.0009405
1270	0.0012521
1282	0.0012654
1294	0.0010488
1306	0.0008949
1318	0.0008569
1330	0.001045
1342	0.0013148
1354	0.001406
1366	0.0022059
1378	0.0038114
1390	0.0026125
1402	0.0016834
1414	0.0019266
1426	0.0028595
1438	0.0051167
1450	0.0074822
1462	0.0061199
1474	0.0034466
1486	0.0044213
1498	0.0064486
1510	0.0022401
1522	0.0009139
1534	0.0007923
1546	0.0007106
1558	0.0007676
1570	0.0011324
1582	0.0020558
1594	0.0035093
1606	0.0042313
1618	0.0025574
1630	0.003097
1642	0.0051053
1654	0.0048355
1666	0.002185
1678	0.0008911
1690	0.0004883
1702	0.0003116
1714	0.0003192
1726	0.0003838
1738	0.0003591
1750	0.0003515
1762	0.0004351
1774	0.0008398
1786	0.0015846
1798	0.0015124
1810	0.0007144
1822	0.0004009
1834	0.0003249
1846	0.0004351
1858	0.0005605
1870	0.0005795
1882	0.0004066
1894	0.0002052
1906	0.0002147
1918	0.0003952
1930	0.0007201
1942	0.0008835
1954	0.0006802
1966	0.0001653
1978	7.41e-05
1990	4.18e-05
2002	3.8e-05
2014	4.37e-05
2026	4.37e-05
2038	3.99e-05
2050	3.61e-05
2062	1.9e-05
2074	1.71e-05
2086	2.85e-05
2098	3.04e-05
2110	3.04e-05
2122	1.14e-05
2134	4.18e-05
2146	1.9e-05
2158	7.6e-06
2170	9.5e-06
2182	2.47e-05
2194	2.28e-05
2206	3.61e-05
2218	2.47e-05
2230	1.9e-06
2242	1.71e-05
2254	2.66e-05
2266	4.18e-05
2278	3.04e-05
2290	5.32e-05
2302	7.22e-05
2314	0.000133
2326	0.0001102
2338	7.79e-05
2350	9.12e-05
2362	2.09e-05
2374	5.51e-05
2386	3.42e-05
2398	4.18e-05
2410	5.89e-05
2422	6.27e-05
2434	5.51e-05
2446	3.99e-05
2458	3.61e-05
2470	2.85e-05
2482	2.66e-05
2494	3.04e-05
2506	1.14e-05
2518	3.8e-05
2530	7.6e-06
2542	1.33e-05
2554	5.32e-05
2566	6.08e-05
2578	8.93e-05
2590	0.0001083
2602	0.0001349
2614	0.0001216
2626	0.0001444
2638	0.0001197
2650	0.0001615
2662	0.000171
2674	0.0001862
2686	0.00019
2698	0.0001767
2710	0.0002147
2722	0.0002489
2734	0.0003724
2746	0.0003857
2758	0.000323
2770	0.0004332
2782	0.0005966
2794	0.0007714
2806	0.0009329
2818	0.0012445
2830	0.0019627
2842	0.0034751
2854	0.0059071
2866	0.0074898
2878	0.0069768
2890	0.0073853
2902	0.0098914
2914	0.0132164
2926	0.0165053
2938	0.0189582
2950	0.0167428
2962	0.0109516
2974	0.0113677
2986	0.0094772
2998	0.0064144
3010	0.0064847
3022	0.0097128
3034	0.0134102
3046	0.0092036
3058	0.0096197
3070	0.0160094
3082	0.0154508
3094	0.0089623
3106	0.004465
3118	0.0022002
3130	0.0009424
3142	0.0005548
3154	0.0004313
3166	0.0003591
3178	0.0002261
3190	0.0001444
3202	0.0001102
3214	8.17e-05
3226	4.94e-05
3238	7.41e-05
3250	3.61e-05
3262	6.08e-05
3274	7.41e-05
3286	0.0001121
3298	0.0001064
3310	5.89e-05
3322	9.31e-05
3334	3.61e-05
3346	4.37e-05
3358	5.13e-05
3370	6.27e-05
3382	5.89e-05
3394	4.94e-05
3406	3.8e-06
3418	5.13e-05
3430	6.27e-05
3442	6.46e-05
3454	4.75e-05
3466	4.75e-05
3478	4.75e-05
3490	7.6e-05
3502	8.36e-05
3514	9.88e-05
3526	3.42e-05
3538	9.5e-05
3550	4.37e-05
3562	5.13e-05
3574	7.41e-05
3586	6.27e-05
3598	5.89e-05
3610	0.0001083
3622	9.12e-05
3634	9.5e-05
3646	0.0001311
3658	0.0001805
3670	0.0001045
3682	0.0001292
3694	0.000114
3706	0.0001083
3718	0.0001273
3730	9.69e-05
3742	6.46e-05
3754	8.36e-05
3766	0.0001387
3778	0.0001539
3790	0.000152
3802	0.000133
3814	0.0001672
3826	0.0001501
3838	0.0001368
