Infrared Spectrum: BUTYRAMIDE, 4-HYDROXY-N-(2-HYDROXYETHYL)-
Formula: C6 H13 N O3
CAS: 66857-17-8
State: SOLID (NUJOL MULL)
Class: COBLENTZ
Instrument: Not specified, most likely a prism, grating, or hybrid spectrometer.
Sampling: TRANSMISSION
Resolution: 4
Origin: TENNESSEE EASTMAN COMPANY, RESEARCH LABORATORIES
MICROMETERS	TRANSMITTANCE
2.05	0.867
2.08727	0.867
2.12453	0.868
2.1618	0.868
2.19907	0.868
2.23633	0.864
2.2736	0.835
2.31087	0.817
2.34814	0.814
2.3854	0.817
2.42267	0.828
2.45994	0.834
2.4972	0.837
2.53447	0.84
2.57174	0.86
2.609	0.862
2.64627	0.862
2.68354	0.87
2.72081	0.859
2.75807	0.796
2.79534	0.704
2.83261	0.585
2.86987	0.425
2.90714	0.278
2.94441	0.176
2.98167	0.109
3.01894	0.042
3.05621	0.012
3.09348	0.012
3.13074	0.023
3.16801	0.051
3.20528	0.115
3.24254	0.164
3.27981	0.243
3.31708	0.325
3.35434	0.185
3.39161	0.015
3.42888	0.007
3.46615	0.004
3.50341	0.01
3.54068	0.231
3.57795	0.389
3.61521	0.493
3.65248	0.54
3.68975	0.562
3.72701	0.607
3.76428	0.629
3.80155	0.632
3.83881	0.673
3.87608	0.7
3.91335	0.712
3.95062	0.748
3.98788	0.764
4.02515	0.767
4.06242	0.779
4.09968	0.807
4.13695	0.812
4.17422	0.831
4.21148	0.848
4.24875	0.864
4.28602	0.865
4.32329	0.867
4.36055	0.868
4.39782	0.871
4.43509	0.871
4.47235	0.875
4.50962	0.884
4.54689	0.885
4.58415	0.885
4.62142	0.887
4.65869	0.889
4.69596	0.889
4.73322	0.89
4.77049	0.89
4.80776	0.892
4.84502	0.892
4.88229	0.893
4.91956	0.893
4.95682	0.893
4.99409	0.904
5.03136	0.912
5.06863	0.912
5.10589	0.906
5.14316	0.9
5.18043	0.903
5.21769	0.904
5.25496	0.904
5.29223	0.904
5.32949	0.904
5.36676	0.903
5.40403	0.901
5.44129	0.896
5.47856	0.89
5.51583	0.881
5.5531	0.871
5.59036	0.867
5.62763	0.851
5.6649	0.834
5.70216	0.801
5.73943	0.776
5.7767	0.732
5.81396	0.703
5.85123	0.657
5.8885	0.612
5.92577	0.532
5.96303	0.401
6.0003	0.237
6.03757	0.101
6.07483	0.056
6.1121	0.032
6.14937	0.02
6.18663	0.079
6.2239	0.193
6.26117	0.32
6.29844	0.342
6.3357	0.285
6.37297	0.167
6.41024	0.11
6.4475	0.071
6.48477	0.128
6.52204	0.234
6.5593	0.328
6.59657	0.385
6.63384	0.439
6.67111	0.442
6.70837	0.42
6.74564	0.317
6.78291	0.173
6.82017	0.087
6.85744	0.084
6.89471	0.079
6.93197	0.106
6.96924	0.156
7.00651	0.126
7.04377	0.109
7.08104	0.164
7.11831	0.215
7.15558	0.248
7.19284	0.231
7.23011	0.143
7.26738	0.093
7.30464	0.123
7.34191	0.15
7.37918	0.203
7.41644	0.273
7.45371	0.314
7.49098	0.335
7.52825	0.364
7.56551	0.384
7.60278	0.404
7.64005	0.417
7.67731	0.407
7.71458	0.384
7.75185	0.287
7.78911	0.235
7.82638	0.254
7.86365	0.3
7.90092	0.314
7.93818	0.353
7.97545	0.398
8.01272	0.464
8.04998	0.5
8.08725	0.518
8.12452	0.506
8.16178	0.45
8.19905	0.403
8.23632	0.421
8.27359	0.504
8.31085	0.553
8.34812	0.598
8.38539	0.607
8.42265	0.618
8.45992	0.598
8.49719	0.565
8.53445	0.448
8.57172	0.454
8.60899	0.535
8.64625	0.596
8.68352	0.635
8.72079	0.659
8.75806	0.675
8.79532	0.679
8.83259	0.679
8.86986	0.673
8.90712	0.654
8.94439	0.626
8.98166	0.609
9.01892	0.596
9.05619	0.575
9.09346	0.543
9.13073	0.45
9.16799	0.332
9.20526	0.254
9.24253	0.2
9.27979	0.175
9.31706	0.129
9.35433	0.07
9.39159	0.042
9.42886	0.042
9.46613	0.059
9.5034	0.078
9.54066	0.078
9.57793	0.109
9.6152	0.182
9.65246	0.217
9.68973	0.253
9.727	0.248
9.76426	0.221
9.80153	0.204
9.8388	0.265
9.87607	0.371
9.91333	0.435
9.9506	0.49
9.98787	0.525
10.0251	0.551
10.0624	0.584
10.0997	0.6
10.1369	0.612
10.1742	0.615
10.2115	0.615
10.2487	0.618
10.286	0.618
10.3233	0.617
10.3605	0.603
10.3978	0.579
10.4351	0.546
10.4723	0.473
10.5096	0.365
10.5469	0.329
10.5841	0.393
10.6214	0.503
10.6587	0.553
10.6959	0.592
10.7332	0.604
10.7705	0.62
10.8077	0.631
10.845	0.634
10.8823	0.634
10.9195	0.634
10.9568	0.637
10.9941	0.643
11.0313	0.651
11.0686	0.659
11.1059	0.664
11.1431	0.665
11.1804	0.665
11.2177	0.657
11.2549	0.634
11.2922	0.614
11.3295	0.615
11.3667	0.618
11.404	0.62
11.4413	0.615
11.4785	0.6
11.5158	0.568
11.5531	0.506
11.5903	0.442
11.6276	0.443
11.6649	0.507
11.7021	0.537
11.7394	0.534
11.7767	0.518
11.8139	0.517
11.8512	0.546
11.8885	0.564
11.9257	0.593
11.963	0.598
12.0003	0.6
12.0375	0.601
12.0748	0.601
12.1121	0.601
12.1494	0.603
12.1866	0.601
12.2239	0.6
12.2612	0.593
12.2984	0.585
12.3357	0.581
12.373	0.578
12.4102	0.573
12.4475	0.562
12.4848	0.55
12.522	0.55
12.5593	0.546
12.5966	0.543
12.6338	0.54
12.6711	0.539
12.7084	0.537
12.7456	0.531
12.7829	0.523
12.8202	0.514
12.8574	0.51
12.8947	0.506
12.932	0.5
12.9692	0.498
13.0065	0.495
13.0438	0.49
13.081	0.485
13.1183	0.481
13.1556	0.473
13.1928	0.467
13.2301	0.457
13.2674	0.45
13.3046	0.443
13.3419	0.435
13.3792	0.429
13.4164	0.42
13.4537	0.406
13.491	0.396
13.5282	0.378
13.5655	0.368
13.6028	0.354
13.64	0.346
13.6773	0.331
13.7146	0.32
13.7518	0.304
13.7891	0.292
13.8264	0.281
13.8636	0.271
13.9009	0.26
13.9382	0.254
13.9754	0.253
14.0127	0.25
14.05	0.248
14.0872	0.248
14.1245	0.248
14.1618	0.248
14.199	0.248
14.2363	0.248
14.2736	0.248
14.3108	0.248
14.3481	0.246
14.3854	0.245
14.4226	0.24
14.4599	0.24
14.4972	0.24
14.5344	0.24
14.5717	0.242
14.609	0.242
14.6462	0.245
14.6835	0.25
14.7208	0.259
14.758	0.268
14.7953	0.278
14.8326	0.292
14.8698	0.292
14.9071	0.303
14.9444	0.314
14.9816	0.321
15.0189	0.328
15.0562	0.331
15.0934	0.331
15.1307	0.331
15.168	0.334
15.2052	0.337
15.2425	0.342
15.2798	0.346
15.317	0.351
15.3543	0.354
15.3916	0.359
