Infrared Spectrum: Disiloxane, 1,3-dimethyl-1,3-diphenyl-,
Formula: C14 H18 O Si2
CAS: 6689-22-1
State: SOLUTION (10% CCl4 FOR 3800-1300, 10% CS2 FOR 1300-650, AND 10% CCl4 FOR 650-250)
Class: COBLENTZ III
Instrument: PERKIN-ELMER 521 (GRATING)
Instrument parameters: FILTERS AT 3150, 2500, 2000, 1150, 700, 410. GRATING CHANGES: 2000, 630
Path length: 0.011 CM, 0.011 CM, AND 0.021 CM
Resolution: 2
Origin: DOW CORNING CORP.
1/CM	TRANSMITTANCE
246	0.7792
255	0.7654
264	0.7522
273	0.737
282	0.7222
291	0.7025
300	0.6794
309	0.6526
318	0.6234
327	0.5891
336	0.5584
345	0.6445
354	0.7589
363	0.7582
372	0.7295
381	0.6183
390	0.4145
399	0.2679
408	0.1945
417	0.5069
426	0.679
435	0.739
444	0.743
453	0.6075
462	0.3574
471	0.178
480	0.3794
489	0.7286
498	0.8003
507	0.8183
516	0.824
525	0.8259
534	0.8266
543	0.823
552	0.8126
561	0.7928
570	0.768
579	0.7358
588	0.7108
597	0.7292
606	0.7619
615	0.7861
624	0.7536
633	0.726
642	0.7751
651	0.815
660	0.7843
669	0.7375
678	0.683
687	0.5915
696	0.2519
705	0.0319
714	0.1941
723	0.0565
732	0.0861
741	0.2157
750	0.1851
759	0.0984
768	0.2443
777	0.5668
786	0.6121
795	0.6294
804	0.6353
813	0.5645
822	0.3995
831	0.1515
840	0.0058
849	0.0048
858	0.0602
867	0.0738
876	0.0073
885	0.0047
894	0.0431
903	0.13
912	0.3617
921	0.5114
930	0.6546
939	0.7229
948	0.7503
957	0.7388
966	0.7207
975	0.7117
984	0.67
993	0.5921
1002	0.5373
1011	0.4333
1020	0.2903
1029	0.1333
1038	0.1054
1047	0.0305
1056	0.0162
1065	0.0132
1074	0.0252
1083	0.0508
1092	0.0965
1101	0.2061
1110	0.2216
1119	0.0037
1128	0.2145
1137	0.5265
1146	0.6622
1155	0.7029
1164	0.7348
1173	0.7723
1182	0.7619
1191	0.7957
1200	0.8345
1209	0.8439
1218	0.8321
1227	0.8006
1236	0.7312
1245	0.4739
1254	0.0808
1263	0.5647
1272	0.7672
1281	0.8142
1290	0.8
1299	0.7094
1308	0.7568
1317	0.7643
1326	0.8056
1335	0.783
1344	0.8411
1353	0.8424
1362	0.8272
1371	0.771
1380	0.7946
1389	0.7773
1398	0.7272
1407	0.6804
1416	0.7151
1425	0.5464
1434	0.5788
1443	0.7902
1452	0.8184
1461	0.8289
1470	0.8367
1479	0.8307
1488	0.67
1497	0.8516
1506	0.8466
1515	0.8361
1524	0.827
1533	0.8097
1542	0.786
1551	0.7891
1560	0.7989
1569	0.7975
1578	0.7763
1587	0.7106
1596	0.715
1605	0.8252
1614	0.8186
1623	0.8214
1632	0.8035
1641	0.7803
1650	0.7737
1659	0.8193
1668	0.8324
1677	0.8495
1686	0.8601
1695	0.8611
1704	0.8693
1713	0.8668
1722	0.863
1731	0.8634
1740	0.857
1749	0.8455
1758	0.8366
1767	0.8278
1776	0.8422
1785	0.8616
1794	0.8604
1803	0.8554
1812	0.8146
1821	0.7857
1830	0.8367
1839	0.8541
1848	0.8703
1857	0.8704
1866	0.8692
1875	0.8433
1884	0.7896
1893	0.8313
1902	0.8193
1911	0.8678
1920	0.8689
1929	0.873
1938	0.8698
1947	0.8388
1956	0.7754
1965	0.8348
1974	0.8355
1983	0.8631
1992	0.8733
2001	0.9431
2010	0.876
2019	0.8757
2028	0.8753
2037	0.8736
2046	0.8699
2055	0.8642
2064	0.8502
2073	0.831
2082	0.8052
2091	0.7552
2100	0.6965
2109	0.4652
2118	0.2787
2127	0.0954
2136	0.028
2145	0.0429
2154	0.096
2163	0.2321
2172	0.3681
2181	0.5992
2190	0.6712
2199	0.7342
2208	0.7899
2217	0.8208
2226	0.8306
2235	0.8389
2244	0.8467
2253	0.8524
2262	0.8597
2271	0.8632
2280	0.8638
2289	0.8678
2298	0.8744
2307	0.8725
2316	0.8708
2325	0.8738
2334	0.8751
2343	0.8751
2352	0.8764
2361	0.8782
2370	0.8791
2379	0.8767
2388	0.8779
2397	0.8795
2406	0.8803
2415	0.8804
2424	0.8805
2433	0.8801
2442	0.8798
2451	0.8793
2460	0.8788
2469	0.8783
2478	0.8779
2487	0.878
2496	0.8781
2505	0.8781
2514	0.8781
2523	0.8781
2532	0.878
2541	0.878
2550	0.878
2559	0.8779
2568	0.8777
2577	0.8773
2586	0.8768
2595	0.876
2604	0.8757
2613	0.8754
2622	0.8752
2631	0.8749
2640	0.8747
2649	0.8745
2658	0.8746
2667	0.8746
2676	0.8746
2685	0.8736
2694	0.8701
2703	0.8645
2712	0.8611
2721	0.8674
2730	0.8766
2739	0.8756
2748	0.8748
2757	0.874
2766	0.8707
2775	0.8656
2784	0.8611
2793	0.8568
2802	0.8538
2811	0.8514
2820	0.8492
2829	0.8486
2838	0.848
2847	0.8446
2856	0.8365
2865	0.8324
2874	0.8303
2883	0.8236
2892	0.8116
2901	0.7825
2910	0.7684
2919	0.7731
2928	0.7873
2937	0.7916
2946	0.7815
2955	0.7541
2964	0.643
2973	0.4342
2982	0.524
2991	0.6972
3000	0.7265
3009	0.5847
3018	0.5214
3027	0.524
3036	0.5796
3045	0.6833
3054	0.5947
3063	0.445
3072	0.5108
3081	0.3776
3090	0.4935
3099	0.6802
3108	0.7526
3117	0.841
3126	0.8459
3135	0.8468
3144	0.8233
3153	0.8391
3162	0.8686
3171	0.871
3180	0.8723
3189	0.8737
3198	0.8748
3207	0.8756
3216	0.8765
3225	0.8774
3234	0.8784
3243	0.8791
3252	0.8793
3261	0.8795
3270	0.8797
3279	0.8792
3288	0.8788
3297	0.8783
3306	0.8778
3315	0.8771
3324	0.8764
3333	0.8764
3342	0.8765
3351	0.8767
3360	0.8774
3369	0.878
3378	0.8787
3387	0.879
3396	0.8793
3405	0.8796
3414	0.8799
3423	0.8803
3432	0.8808
3441	0.8812
3450	0.8823
3459	0.8833
3468	0.8843
3477	0.8845
3486	0.8849
3495	0.8852
3504	0.8857
3513	0.8861
3522	0.8866
3531	0.8871
3540	0.8878
3549	0.8883
3558	0.8891
3567	0.8899
3576	0.8907
3585	0.8915
3594	0.8923
3603	0.8913
3612	0.886
3621	0.8832
3630	0.8817
3639	0.8803
3648	0.8797
3657	0.8836
3666	0.8831
3675	0.8826
3684	0.8824
3693	0.8816
3702	0.8813
3711	0.8814
3720	0.8822
3729	0.8837
3738	0.8872
3747	0.8914
3756	0.8937
3765	0.893
3774	0.8915
3783	0.8908
3792	0.8909
3801	0.8928
3810	0.8963
3819	0.8996
