Infrared Spectrum: 2-(2',6'-DIMETHYLPHENOXY)ETHYLTRIMETHYLAMMONIUM BROMIDE
Formula: C13 H22 Br N O
CAS: 669-49-8
State: SOLID (OIL MULL)
Class: COBLENTZ III
Instrument: PERKIN-ELMER 21 (GRATING)
Instrument parameters: NaCl PRISM
Sampling: TRANSMISSION
Resolution: 2
Origin: SMITH KLINE & FRENCH LABS.
MICROMETERS	TRANSMITTANCE
2.016	0.508
2.05026	0.515
2.08452	0.52
2.11877	0.525
2.15303	0.531
2.18729	0.537
2.22155	0.543
2.25581	0.548
2.29006	0.526
2.32432	0.518
2.35858	0.521
2.39284	0.526
2.4271	0.537
2.46135	0.548
2.49561	0.557
2.52987	0.565
2.56413	0.571
2.59838	0.581
2.63264	0.586
2.6669	0.592
2.70116	0.597
2.73542	0.607
2.76967	0.608
2.80393	0.609
2.83819	0.615
2.87245	0.615
2.90671	0.613
2.94096	0.613
2.97522	0.614
3.00948	0.615
3.04374	0.611
3.078	0.619
3.11225	0.62
3.14651	0.611
3.18077	0.604
3.21503	0.597
3.24929	0.582
3.28354	0.546
3.3178	0.503
3.35206	0.412
3.38632	0.211
3.42057	0.114
3.45483	0.11
3.48909	0.111
3.52335	0.116
3.55761	0.152
3.59186	0.478
3.62612	0.65
3.66038	0.693
3.69464	0.683
3.7289	0.684
3.76315	0.693
3.79741	0.701
3.83167	0.701
3.86593	0.717
3.90019	0.726
3.93444	0.728
3.9687	0.736
4.00296	0.746
4.03722	0.75
4.07148	0.753
4.10573	0.76
4.13999	0.763
4.17425	0.768
4.20851	0.762
4.24277	0.768
4.27702	0.757
4.31128	0.76
4.34554	0.772
4.3798	0.782
4.41405	0.784
4.44831	0.791
4.48257	0.798
4.51683	0.8
4.55109	0.802
4.58534	0.804
4.6196	0.805
4.65386	0.809
4.68812	0.81
4.72238	0.813
4.75663	0.813
4.79089	0.812
4.82515	0.813
4.85941	0.813
4.89367	0.819
4.92792	0.819
4.96218	0.821
4.99644	0.821
5.0307	0.801
5.06496	0.813
5.09921	0.827
5.13347	0.83
5.16773	0.83
5.20199	0.828
5.23625	0.823
5.2705	0.819
5.30476	0.83
5.33902	0.834
5.37328	0.829
5.40753	0.833
5.44179	0.832
5.47605	0.83
5.51031	0.83
5.54457	0.829
5.57882	0.819
5.61308	0.821
5.64734	0.824
5.6816	0.823
5.71586	0.821
5.75011	0.818
5.78437	0.818
5.81863	0.802
5.85289	0.8
5.88715	0.817
5.9214	0.824
5.95566	0.828
5.98992	0.83
6.02418	0.833
6.05844	0.84
6.09269	0.844
6.12695	0.844
6.16121	0.844
6.19547	0.839
6.22972	0.826
6.26398	0.813
6.29824	0.806
6.3325	0.818
6.36676	0.828
6.40101	0.834
6.43527	0.835
6.46953	0.834
6.50379	0.83
6.53805	0.822
6.5723	0.812
6.60656	0.798
6.64082	0.781
6.67508	0.711
6.70934	0.506
6.74359	0.294
6.77785	0.244
6.81211	0.163
6.84637	0.158
6.88063	0.18
6.91488	0.253
6.94914	0.3
6.9834	0.428
7.01766	0.56
7.05192	0.538
7.08617	0.62
7.12043	0.7
7.15469	0.67
7.18895	0.682
7.2232	0.593
7.25746	0.412
7.29172	0.307
7.32598	0.362
7.36024	0.448
7.39449	0.632
7.42875	0.66
7.46301	0.686
7.49727	0.666
7.53153	0.582
7.56578	0.694
7.60004	0.728
7.6343	0.739
7.66856	0.744
7.70282	0.748
7.73707	0.751
7.77133	0.748
7.80559	0.731
7.83985	0.725
7.87411	0.682
7.90836	0.531
7.94262	0.5
7.97688	0.61
8.01114	0.716
8.0454	0.736
8.07965	0.732
8.11391	0.76
8.14817	0.779
8.18243	0.785
8.21668	0.742
8.25094	0.683
8.2852	0.714
8.31946	0.591
8.35372	0.333
8.38797	0.245
8.42223	0.36
8.45649	0.542
8.49075	0.609
8.52501	0.639
8.55926	0.622
8.59352	0.656
8.62778	0.699
8.66204	0.722
8.6963	0.729
8.73055	0.714
8.76481	0.711
8.79907	0.759
8.83333	0.781
8.86759	0.79
8.90184	0.795
8.9361	0.8
8.97036	0.804
9.00462	0.807
9.03887	0.804
9.07313	0.79
9.10739	0.742
9.14165	0.621
9.17591	0.521
9.21016	0.602
9.24442	0.593
9.27868	0.591
9.31294	0.681
9.3472	0.723
9.38145	0.751
9.41571	0.743
9.44997	0.613
9.48423	0.422
9.51849	0.495
9.55274	0.653
9.587	0.701
9.62126	0.689
9.65552	0.649
9.68978	0.67
9.72403	0.71
9.75829	0.723
9.79255	0.631
9.82681	0.47
9.86107	0.572
9.89532	0.699
9.92958	0.742
9.96384	0.771
9.9981	0.787
10.0324	0.788
10.0666	0.787
10.1009	0.785
10.1351	0.76
10.1694	0.753
10.2036	0.76
10.2379	0.761
10.2722	0.754
10.3064	0.733
10.3407	0.705
10.3749	0.613
10.4092	0.43
10.4434	0.352
10.4777	0.429
10.512	0.45
10.5462	0.339
10.5805	0.417
10.6147	0.559
10.649	0.641
10.6833	0.692
10.7175	0.721
10.7518	0.742
10.786	0.759
10.8203	0.772
10.8545	0.779
10.8888	0.777
10.9231	0.759
10.9573	0.744
10.9916	0.751
11.0258	0.77
11.0601	0.785
11.0944	0.762
11.1286	0.652
11.1629	0.552
11.1971	0.625
11.2314	0.711
11.2656	0.748
11.2999	0.779
11.3342	0.787
11.3684	0.781
11.4027	0.678
11.4369	0.51
11.4712	0.492
11.5054	0.62
11.5397	0.71
11.574	0.759
11.6082	0.798
11.6425	0.806
11.6767	0.821
11.711	0.824
11.7453	0.828
11.7795	0.829
11.8138	0.829
11.848	0.83
11.8823	0.832
11.9165	0.833
11.9508	0.834
11.9851	0.835
12.0193	0.841
12.0536	0.841
12.0878	0.84
12.1221	0.839
12.1563	0.832
12.1906	0.823
12.2249	0.81
12.2591	0.75
12.2934	0.611
12.3276	0.44
12.3619	0.361
12.3962	0.53
12.4304	0.579
12.4647	0.49
12.4989	0.422
12.5332	0.537
12.5674	0.65
12.6017	0.72
12.636	0.754
12.6702	0.785
12.7045	0.8
12.7387	0.81
12.773	0.819
12.8072	0.824
12.8415	0.826
12.8758	0.828
12.91	0.83
12.9443	0.829
12.9785	0.828
13.0128	0.826
13.0471	0.824
13.0813	0.829
13.1156	0.832
13.1498	0.834
13.1841	0.836
13.2183	0.839
13.2526	0.833
13.2869	0.819
13.3211	0.791
13.3554	0.8
13.3896	0.819
13.4239	0.824
13.4581	0.828
13.4924	0.823
13.5267	0.818
13.5609	0.812
13.5952	0.809
13.6294	0.805
13.6637	0.805
13.698	0.805
13.7322	0.802
13.7665	0.8
13.8007	0.802
13.835	0.795
13.8692	0.791
13.9035	0.788
13.9378	0.789
13.972	0.8
14.0063	0.802
14.0405	0.804
14.0748	0.806
14.109	0.804
14.1433	0.81
14.1776	0.824
14.2118	0.828
14.2461	0.828
14.2803	0.83
14.3146	0.83
14.3489	0.828
14.3831	0.828
14.4174	0.83
14.4516	0.827
14.4859	0.822
14.5201	0.821
14.5544	0.819
14.5887	0.812
14.6229	0.81
14.6572	0.809
14.6914	0.801
14.7257	0.794
14.7599	0.779
14.7942	0.759
14.8285	0.739
14.8627	0.72
14.897	0.725
14.9312	0.733
14.9655	0.74
14.9998	0.75
15.034	0.734
