Infrared Spectrum: UREA, 1-CYCLOHEXYL-3-HYDROXYETHYL-
Formula: C9 H18 N2 O2
CAS: 66929-46-2
State: SOLID (1 mg / 650 mg KBr DISC)
Class: COBLENTZ III
Instrument: PERKIN-ELMER 521 (GRATING)
Sampling: TRANSMISSION
Resolution: 4
Origin: SOUTHERN RESEARCH INSTITUTE
1/CM	TRANSMITTANCE
254.902	0.215
264.01	0.2576
273.118	0.3255
282.225	0.3959
291.333	0.4429
300.441	0.4943
309.549	0.5398
318.657	0.5728
327.764	0.5947
336.872	0.6199
345.98	0.6497
355.088	0.6716
364.196	0.6862
373.303	0.6996
382.411	0.7136
391.519	0.7245
400.627	0.7498
409.734	0.7538
418.842	0.769
427.95	0.771
437.058	0.7573
446.166	0.7363
455.273	0.7528
464.381	0.763
473.489	0.764
482.597	0.755
491.705	0.7542
500.812	0.758
509.92	0.7459
519.028	0.7289
528.136	0.7321
537.244	0.746
546.351	0.745
555.459	0.7382
564.567	0.7302
573.675	0.723
582.783	0.7072
591.89	0.6859
600.998	0.6512
610.106	0.6109
619.214	0.6275
628.321	0.5754
637.429	0.5694
646.537	0.5582
655.645	0.5434
664.753	0.531
673.86	0.548
682.968	0.5663
692.076	0.6035
701.184	0.6504
710.292	0.6854
719.399	0.711
728.507	0.7429
737.615	0.7713
746.723	0.7894
755.831	0.7998
764.938	0.7986
774.046	0.7954
783.154	0.8334
792.262	0.846
801.37	0.849
810.477	0.862
819.585	0.864
828.693	0.867
837.801	0.8591
846.909	0.8492
856.016	0.8373
865.124	0.7978
874.232	0.8371
883.34	0.8282
892.447	0.6955
901.555	0.7987
910.663	0.8439
919.771	0.858
928.879	0.8666
937.986	0.866
947.094	0.863
956.202	0.85
965.31	0.8213
974.418	0.8473
983.525	0.8426
992.633	0.8172
1001.74	0.801
1010.85	0.7785
1019.96	0.7314
1029.06	0.6548
1038.17	0.6426
1047.28	0.5537
1056.39	0.4883
1065.5	0.5178
1074.6	0.5523
1083.71	0.5329
1092.82	0.5651
1101.93	0.6993
1111.03	0.7459
1120.14	0.7679
1129.25	0.7769
1138.36	0.78
1147.47	0.7688
1156.57	0.7486
1165.68	0.764
1174.79	0.7554
1183.9	0.7306
1193	0.7244
1202.11	0.7119
1211.22	0.6557
1220.33	0.6153
1229.44	0.5448
1238.54	0.5452
1247.65	0.4408
1256.76	0.5426
1265.87	0.5797
1274.97	0.5174
1284.08	0.5999
1293.19	0.671
1302.3	0.5432
1311.41	0.5247
1320.51	0.6389
1329.62	0.6842
1338.73	0.6846
1347.84	0.6735
1356.94	0.7071
1366.05	0.7171
1375.16	0.741
1384.27	0.75
1393.38	0.756
1402.48	0.7461
1411.59	0.739
1420.7	0.7088
1429.81	0.6374
1438.92	0.5851
1448.02	0.5969
1457.13	0.6956
1466.24	0.6793
1475.35	0.7179
1484.45	0.725
1493.56	0.7069
1502.67	0.6552
1511.78	0.6014
1520.89	0.5244
1529.99	0.4685
1539.1	0.4516
1548.21	0.4202
1557.32	0.2992
1566.42	0.2079
1575.53	0.1514
1584.64	0.1552
1593.75	0.217
1602.86	0.2329
1611.96	0.2099
1621.07	0.168
1630.18	0.1403
1639.29	0.2197
1648.39	0.3314
1657.5	0.4288
1666.61	0.5028
1675.72	0.575
1684.83	0.6472
1693.93	0.6989
1703.04	0.7285
1712.15	0.7514
1721.26	0.7728
1730.36	0.7872
1739.47	0.8017
1748.58	0.81
1757.69	0.8183
1766.8	0.8262
1775.9	0.8326
1785.01	0.8375
1794.12	0.844
1803.23	0.851
1812.33	0.8569
1821.44	0.86
1830.55	0.86
1839.66	0.863
1848.77	0.866
1857.87	0.8698
1866.98	0.875
1876.09	0.875
1885.2	0.876
1894.3	0.8773
1903.41	0.8791
1912.52	0.88
1921.63	0.881
1930.74	0.882
1939.84	0.881
1948.95	0.881
1958.06	0.884
1967.17	0.8877
1976.27	0.886
1985.38	0.888
1994.49	0.889
2003.6	0.8898
2012.71	0.89
2021.81	0.8892
2030.92	0.889
2040.03	0.889
2049.14	0.888
2058.24	0.889
2067.35	0.8888
2076.46	0.89
2085.57	0.889
2094.68	0.889
2103.78	0.888
2112.89	0.889
2122	0.8898
2131.11	0.89
2140.22	0.89
2149.32	0.89
2158.43	0.889
2167.54	0.89
2176.65	0.89
2185.75	0.89
2194.86	0.89
2203.97	0.892
2213.08	0.89
2222.19	0.889
2231.29	0.886
2240.4	0.888
2249.51	0.8882
2258.62	0.888
2267.72	0.886
2276.83	0.886
2285.94	0.89
2295.05	0.8905
2304.16	0.8915
2313.26	0.8882
2322.37	0.8842
2331.48	0.8858
2340.59	0.8875
2349.69	0.885
2358.8	0.886
2367.91	0.888
2377.02	0.888
2386.13	0.8888
2395.23	0.886
2404.34	0.886
2413.45	0.885
2422.56	0.886
2431.66	0.886
2440.77	0.886
2449.88	0.8812
2458.99	0.88
2468.1	0.8785
2477.2	0.8805
2486.31	0.877
2495.42	0.876
2504.53	0.877
2513.63	0.872
2522.74	0.872
2531.85	0.8728
2540.96	0.873
2550.07	0.872
2559.17	0.871
2568.28	0.869
2577.39	0.8672
2586.5	0.864
2595.6	0.863
2604.71	0.862
2613.82	0.862
2622.93	0.859
2632.04	0.8552
2641.14	0.851
2650.25	0.8452
2659.36	0.8372
2668.47	0.8428
2677.57	0.847
2686.68	0.845
2695.79	0.845
2704.9	0.843
2714.01	0.8458
2723.11	0.846
2732.22	0.845
2741.33	0.841
2750.44	0.8332
2759.54	0.8282
2768.65	0.8129
2777.76	0.799
2786.87	0.7812
2795.98	0.7772
2805.08	0.7647
2814.19	0.7475
2823.3	0.7257
2832.41	0.6663
2841.52	0.5059
2850.62	0.34
2859.73	0.522
2868.84	0.6015
2877.95	0.5949
2887.05	0.538
2896.16	0.4922
2905.27	0.4131
2914.38	0.2806
2923.49	0.2404
2932.59	0.2451
2941.7	0.3465
2950.81	0.5059
2959.92	0.6117
2969.02	0.6716
2978.13	0.7158
2987.24	0.7528
2996.35	0.7718
3005.46	0.777
3014.56	0.771
3023.67	0.7605
3032.78	0.758
3041.89	0.76
3050.99	0.764
3060.1	0.7678
3069.21	0.773
3078.32	0.7722
3087.43	0.771
3096.53	0.7592
3105.64	0.7439
3114.75	0.736
3123.86	0.7089
3132.96	0.7
3142.07	0.6982
3151.18	0.6972
3160.29	0.6902
3169.4	0.684
3178.5	0.6722
3187.61	0.6607
3196.72	0.65
3205.83	0.639
3214.93	0.6172
3224.04	0.5997
3233.15	0.5797
3242.26	0.5521
3251.37	0.5269
3260.47	0.493
3269.58	0.4589
3278.69	0.4262
3287.8	0.3869
3296.9	0.3324
3306.01	0.2844
3315.12	0.2579
3324.23	0.247
3333.34	0.244
3342.44	0.2535
3351.55	0.266
3360.66	0.2903
3369.77	0.3211
3378.87	0.3587
3387.98	0.3953
3397.09	0.4251
3406.2	0.4605
3415.31	0.4858
3424.41	0.5008
3433.52	0.5203
3442.63	0.5365
3451.74	0.5543
3460.84	0.5713
3469.95	0.5898
3479.06	0.608
3488.17	0.6295
3497.28	0.6468
3506.38	0.6663
3515.49	0.6881
3524.6	0.702
3533.71	0.7133
3542.82	0.7335
3551.92	0.7443
3561.03	0.7588
3570.14	0.773
3579.25	0.7808
3588.35	0.7908
3597.46	0.8003
3606.57	0.8055
3615.68	0.8143
3624.79	0.82
3633.89	0.827
3643	0.83
3652.11	0.8328
3661.22	0.8355
3670.32	0.8395
3679.43	0.841
3688.54	0.843
3697.65	0.846
3706.76	0.847
3715.86	0.85
3724.97	0.85
3734.08	0.851
3743.19	0.853
3752.29	0.8525
3761.4	0.853
3770.51	0.8532
3779.62	0.853
3788.73	0.854
3797.83	0.854
