Infrared Spectrum: 5-ETHYL-5(2-METHYLBUTYL)-2-THIOBARBITURIC ACID
Formula: C11 H18 N2 O2 S
CAS: 66968-75-0
State: SOLUTION (3.3% CHCl3)
Class: COBLENTZ
Instrument: Not specified, most likely a prism, grating, or hybrid spectrometer.
Sampling: TRANSMISSION
Path length: 0.010 CM
Resolution: 4
MICROMETERS	TRANSMITTANCE
2.064	0.927
2.10057	0.924
2.13714	0.922
2.17371	0.918
2.21028	0.915
2.24686	0.917
2.28343	0.915
2.32	0.911
2.35657	0.908
2.39314	0.906
2.42971	0.906
2.46628	0.904
2.50285	0.904
2.53942	0.902
2.57599	0.9
2.61257	0.902
2.64914	0.904
2.68571	0.904
2.72228	0.9
2.75885	0.902
2.79542	0.9
2.83199	0.877
2.86856	0.87
2.90513	0.863
2.9417	0.841
2.97828	0.63
3.01485	0.58
3.05142	0.785
3.08799	0.769
3.12456	0.74
3.16113	0.702
3.1977	0.684
3.23427	0.69
3.27084	0.713
3.30741	0.726
3.34399	0.686
3.38056	0.526
3.41713	0.527
3.4537	0.567
3.49027	0.618
3.52684	0.648
3.56341	0.785
3.59998	0.823
3.63655	0.845
3.67312	0.863
3.7097	0.866
3.74627	0.872
3.78284	0.873
3.81941	0.879
3.85598	0.879
3.89255	0.881
3.92912	0.879
3.96569	0.881
4.00226	0.881
4.03883	0.882
4.07541	0.882
4.11198	0.882
4.14855	0.882
4.18512	0.888
4.22169	0.891
4.25826	0.891
4.29483	0.895
4.3314	0.893
4.36797	0.897
4.40454	0.895
4.44112	0.897
4.47769	0.895
4.51426	0.895
4.55083	0.897
4.5874	0.893
4.62397	0.893
4.66054	0.895
4.69711	0.893
4.73368	0.895
4.77025	0.895
4.80683	0.899
4.8434	0.895
4.87997	0.893
4.91654	0.893
4.95311	0.893
4.98968	0.893
5.02625	0.893
5.06282	0.895
5.09939	0.893
5.13596	0.891
5.17254	0.891
5.20911	0.89
5.24568	0.888
5.28225	0.89
5.31882	0.888
5.35539	0.884
5.39196	0.882
5.42853	0.879
5.4651	0.877
5.50167	0.873
5.53825	0.864
5.57482	0.854
5.61139	0.839
5.64796	0.809
5.68453	0.749
5.7211	0.587
5.75767	0.245
5.79424	0.225
5.83081	0.227
5.86738	0.104
5.90396	0.102
5.94053	0.227
5.9771	0.542
6.01367	0.726
6.05024	0.762
6.08681	0.781
6.12338	0.816
6.15995	0.819
6.19652	0.818
6.23309	0.818
6.26967	0.819
6.30624	0.821
6.34281	0.796
6.37938	0.769
6.41595	0.747
6.45252	0.645
6.48909	0.545
6.52566	0.418
6.56223	0.293
6.5988	0.243
6.63538	0.167
6.67195	0.239
6.70852	0.544
6.74509	0.65
6.78166	0.682
6.81823	0.628
6.8548	0.553
6.89137	0.565
6.92794	0.565
6.96451	0.544
7.00109	0.549
7.03766	0.495
7.07423	0.427
7.1108	0.398
7.14737	0.403
7.18394	0.427
7.22051	0.436
7.25708	0.472
7.29365	0.454
7.33022	0.437
7.3668	0.463
7.40337	0.517
7.43994	0.473
7.47651	0.47
7.51308	0.479
7.54965	0.432
7.58622	0.412
7.62279	0.419
7.65936	0.4
7.69593	0.324
7.73251	0.214
7.76908	0.162
7.80565	0.209
7.84222	0.365
7.87879	0.432
7.91536	0.616
7.95193	0.67
7.9885	0.69
8.02507	0.673
8.06164	0.668
8.09822	0.682
8.13479	0.699
8.17136	0.7
8.20793	0.697
8.2445	0.697
8.28107	0.697
8.31764	0.697
8.35421	0.7
8.39078	0.717
8.42735	0.765
8.46393	0.785
8.5005	0.744
8.53707	0.621
8.57364	0.463
8.61021	0.372
8.64678	0.324
8.68335	0.286
8.71992	0.309
8.75649	0.398
8.79306	0.419
8.82964	0.392
8.86621	0.423
8.90278	0.513
8.93935	0.58
8.97592	0.618
9.01249	0.666
9.04906	0.697
9.08563	0.731
9.1222	0.767
9.15877	0.796
9.19535	0.816
9.23192	0.834
9.26849	0.843
9.30506	0.85
9.34163	0.855
9.3782	0.859
9.41477	0.864
9.45134	0.87
9.48791	0.873
9.52448	0.872
9.56106	0.864
9.59763	0.846
9.6342	0.836
9.67077	0.837
9.70734	0.857
9.74391	0.864
9.78048	0.864
9.81705	0.852
9.85362	0.839
9.89019	0.837
9.92677	0.841
9.96334	0.846
9.99991	0.85
10.0365	0.859
10.073	0.863
10.1096	0.866
10.1462	0.87
10.1828	0.87
10.2193	0.863
10.2559	0.857
10.2925	0.859
10.329	0.863
10.3656	0.866
10.4022	0.872
10.4388	0.875
10.4753	0.873
10.5119	0.875
10.5485	0.875
10.585	0.873
10.6216	0.872
10.6582	0.873
10.6948	0.875
10.7313	0.882
10.7679	0.888
10.8045	0.888
10.841	0.888
10.8776	0.886
10.9142	0.881
10.9508	0.877
10.9873	0.872
11.0239	0.866
11.0605	0.863
11.097	0.857
11.1336	0.854
11.1702	0.852
11.2068	0.85
11.2433	0.846
11.2799	0.846
11.3165	0.846
11.353	0.846
11.3896	0.845
11.4262	0.843
11.4627	0.841
11.4993	0.839
11.5359	0.834
11.5725	0.832
11.609	0.83
11.6456	0.83
11.6822	0.832
11.7187	0.834
11.7553	0.839
11.7919	0.839
11.8285	0.839
11.865	0.836
11.9016	0.832
11.9382	0.83
11.9747	0.83
12.0113	0.832
12.0479	0.83
12.0845	0.832
12.121	0.834
12.1576	0.836
12.1942	0.837
12.2307	0.841
12.2673	0.843
12.3039	0.848
12.3405	0.852
12.377	0.857
12.4136	0.861
12.4502	0.866
12.4867	0.868
12.5233	0.872
12.5599	0.872
12.5964	0.872
12.633	0.87
12.6696	0.868
12.7062	0.864
12.7427	0.859
12.7793	0.859
12.8159	0.855
12.8524	0.852
12.889	0.848
12.9256	0.845
12.9622	0.843
12.9987	0.839
13.0353	0.836
13.0719	0.834
13.1084	0.83
13.145	0.827
13.1816	0.821
13.2182	0.819
13.2547	0.818
13.2913	0.814
13.3279	0.814
13.3644	0.812
13.401	0.812
13.4376	0.81
13.4742	0.812
13.5107	0.812
13.5473	0.812
13.5839	0.812
13.6204	0.812
13.657	0.81
13.6936	0.807
13.7301	0.803
13.7667	0.8
13.8033	0.8
13.8399	0.803
13.8764	0.805
13.913	0.805
13.9496	0.801
13.9861	0.794
14.0227	0.781
14.0593	0.769
14.0959	0.763
14.1324	0.763
14.169	0.765
14.2056	0.765
14.2421	0.769
14.2787	0.767
14.3153	0.763
14.3519	0.76
14.3884	0.753
14.425	0.74
14.4616	0.733
14.4981	0.731
14.5347	0.733
14.5713	0.738
14.6079	0.744
14.6444	0.76
14.681	0.771
14.7176	0.783
14.7541	0.787
14.7907	0.787
14.8273	0.783
14.8639	0.776
14.9004	0.772
14.937	0.767
14.9736	0.767
15.0101	0.76
15.0467	0.753
15.0833	0.754
15.1198	0.765
15.1564	0.792
15.193	0.8
15.2296	0.816
15.2661	0.837
15.3027	0.845
15.3393	0.854
15.3758	0.857
15.4124	0.857
15.449	0.859
15.4856	0.859
