Infrared Spectrum: Benzyl 2-chloroethyl sulphone
Formula: C 9 H 11 Cl O 2 S
CAS: 66998-67-2
State: gas
Origin: EPA-IR VAPOR PHASE LIBRARY
1/CM	ABSORBANCE
549.8	0.002746
559.445	0.0014689
569.09	0.002016
578.734	0.002536
588.379	0.003086
598.024	0.002216
607.669	0.0018574
617.313	0.002236
626.958	0.002576
636.603	0.003276
646.248	0.003116
655.893	0.002626
665.537	0.003736
675.182	0.004446
684.827	0.005396
694.472	0.009946
704.116	0.008726
713.761	0.004066
723.406	0.004516
733.051	0.004136
742.695	0.004526
752.34	0.004596
761.985	0.005326
771.63	0.006326
781.275	0.007116
790.919	0.006616
800.564	0.004756
810.209	0.003806
819.854	0.003866
829.498	0.003226
839.143	0.003246
848.788	0.002666
858.433	0.003256
868.078	0.005076
877.722	0.005886
887.367	0.004076
897.012	0.002746
906.657	0.002636
916.301	0.003306
925.946	0.0017291
935.591	0.0015966
945.236	0.0017993
954.88	0.0016817
964.525	0.002476
974.17	0.002666
983.815	0.0018876
993.46	0.0018618
1003.1	0.0015785
1012.75	0.0019417
1022.39	0.002706
1032.04	0.004156
1041.68	0.002706
1051.33	0.0016025
1060.97	0.001986
1070.62	0.002276
1080.26	0.0018894
1089.91	0.0010671
1099.55	0.0016954
1109.2	0.006356
1118.84	0.011896
1128.49	0.016336
1138.13	0.012246
1147.78	0.017936
1157.42	0.013396
1167.07	0.006876
1176.71	0.004306
1186.36	0.005866
1196	0.005966
1205.64	0.006706
1215.29	0.005066
1224.93	0.004206
1234.58	0.004306
1244.22	0.005146
1253.87	0.005406
1263.51	0.006106
1273.16	0.004626
1282.8	0.004246
1292.45	0.005176
1302.09	0.007146
1311.74	0.006486
1321.38	0.005796
1331.03	0.009746
1340.67	0.024306
1350.32	0.036586
1359.96	0.016256
1369.61	0.004906
1379.25	0.003066
1388.9	0.002946
1398.54	0.003216
1408.18	0.004026
1417.83	0.003666
1427.47	0.002476
1437.12	0.002316
1446.76	0.002816
1456.41	0.003516
1466.05	0.002376
1475.7	0.001996
1485.34	0.002436
1494.99	0.003626
1504.63	0.002966
1514.28	0.0015794
1523.92	0.0013936
1533.57	0.0012818
1543.21	0.0013732
1552.86	0.0014379
1562.5	0.0011504
1572.15	0.0013306
1581.79	0.0017888
1591.44	0.0019115
1601.08	0.002156
1610.73	0.0018231
1620.37	0.0013379
1630.01	0.0012515
1639.66	0.0012443
1649.3	0.0015806
1658.95	0.0014676
1668.59	0.00141
1678.24	0.0015304
1687.88	0.0013745
1697.53	0.001362
1707.17	0.0011672
1716.82	0.0012691
1726.46	0.0013187
1736.11	0.0013303
1745.75	0.0013499
1755.4	0.0015401
1765.04	0.0014739
1774.69	0.001409
1784.33	0.0012716
1793.98	0.0014566
1803.62	0.0012763
1813.27	0.0014271
1822.91	0.0013683
1832.55	0.001216
1842.2	0.0013942
1851.84	0.0012398
1861.49	0.0014318
1871.13	0.0014376
1880.78	0.0013361
1890.42	0.0013246
1900.07	0.0015561
1909.71	0.0013384
1919.36	0.0014642
1929	0.0012779
1938.65	0.001451
1948.29	0.0014992
1957.94	0.0014645
1967.58	0.0012884
1977.23	0.0014382
1986.87	0.0011738
1996.52	0.00097321
2006.16	0.0010814
2015.81	0.0012014
2025.45	0.00098805
2035.1	0.0010719
2044.74	0.0011553
2054.38	0.000839
2064.03	0.0009383
2073.67	0.00095949
2083.32	0.00095256
2092.96	0.0010894
2102.61	0.0012343
2112.25	0.00097646
2121.9	0.0010963
2131.54	0.00095421
2141.19	0.0011232
2150.83	0.00103362
2160.48	0.0010979
2170.12	0.0011383
2179.77	0.000793
2189.41	0.0008685
2199.06	0.000821
2208.7	0.0010867
2218.35	0.000805
2227.99	0.0011786
2237.64	0.0010964
2247.28	0.0011527
2256.92	0.00097465
2266.57	0.0010941
2276.21	0.0011916
2285.86	0.0010791
2295.5	0.0011962
2305.15	0.0011407
2314.79	0.0009309
2324.44	0.00103929
2334.08	0.00103372
2343.73	0.0011846
2353.37	0.0012278
2363.02	0.0011645
2372.66	0.0011158
2382.31	0.000752
2391.95	0.00098655
2401.6	0.00099382
2411.24	0.00085
2420.89	0.000686
2430.53	0.000799
2440.18	0.0010923
2449.82	0.0012875
2459.47	0.00103647
2469.11	0.0009176
2478.75	0.000821
2488.4	0.000823
2498.04	0.0012804
2507.69	0.0009077
2517.33	0.00098323
2526.98	0.0011248
2536.62	0.0010658
2546.27	0.000717
2555.91	0.0010184
2565.56	0.0008996
2575.2	0.0011463
2584.85	0.000827
2594.49	0.0012997
2604.14	0.0011287
2613.78	0.000852
2623.43	0.00101123
2633.07	0.000641
2642.72	0.0008875
2652.36	0.0010461
2662.01	0.000661
2671.65	0.0007
2681.29	0.000877
2690.94	0.0011371
2700.58	0.00095363
2710.23	0.000747
2719.87	0.000404
2729.52	0.000652
2739.16	0.0009191
2748.81	0.00102037
2758.45	0.00097128
2768.1	0.0009374
2777.74	0.00103726
2787.39	0.000729
2797.03	0.0011944
2806.68	0.000798
2816.32	0.00102638
2825.97	0.00096635
2835.61	0.0011078
2845.26	0.000768
2854.9	0.0009145
2864.55	0.0010604
2874.19	0.00098189
2883.84	0.0010846
2893.48	0.0011176
2903.12	0.0012483
2912.77	0.000847
2922.41	0.0014214
2932.06	0.002136
2941.7	0.0019308
2951.35	0.00154
2960.99	0.0016391
2970.64	0.0019146
2980.28	0.0016269
2989.93	0.0013749
2999.57	0.0014442
3009.22	0.0011384
3018.86	0.002426
3028.51	0.002696
3038.15	0.003856
3047.8	0.003126
3057.44	0.002266
3067.09	0.003796
3076.73	0.004596
3086.38	0.003096
3096.02	0.002666
3105.67	0.002306
3115.31	0.0014593
3124.95	0.0012361
3134.6	0.0013782
3144.24	0.0013279
3153.89	0.00096032
3163.53	0.0014293
3173.18	0.00097351
3182.82	0.0013096
3192.47	0.0012277
3202.11	0.0009753
3211.76	0.0010592
3221.4	0.000776
3231.05	0.000172
3240.69	0.0012391
3250.34	0.00095446
3259.98	0.0012736
3269.63	0.00098645
3279.27	0.000688
3288.92	0.000769
3298.56	0.0011679
3308.21	0.0010954
3317.85	0.0013054
3327.49	0.00103114
3337.14	0.0008941
3346.78	0.0009284
3356.43	0.0014187
3366.07	0.001231
3375.72	0.000732
3385.36	0.000785
3395.01	0.0008677
3404.65	0.0013619
3414.3	0.001144
3423.94	0.0010013
3433.59	0.0011447
3443.23	0.0009364
3452.88	0.0012894
3462.52	0.0011939
3472.17	0.0013329
3481.81	0.00101252
3491.46	0.0012018
3501.1	0.0011517
3510.75	0.0009342
3520.39	0.0012957
3530.04	0.000841
3539.68	0.0013289
3549.32	0.0009112
3558.97	0.000799
3568.61	0.00104955
3578.26	0.0012672
3587.9	0.0013836
3597.55	0.000744
3607.19	0.0010192
3616.84	0.0012451
3626.48	0.00098995
3636.13	0.0012423
3645.77	0.000538
3655.42	0.0010759
3665.06	0.00101138
3674.71	0.000774
3684.35	0.00034
3694	0.0014112
3703.64	0.000803
3713.29	0.000812
3722.93	0.0011716
3732.58	0.0008763
3742.22	0.000672
3751.86	0.00097015
3761.51	0.000821
3771.15	0.0008695
3780.8	0.0013386
3790.44	0.00099391
3800.09	0.000716
3809.73	0.0012247
3819.38	0.0013521
3829.02	0.0008981
3838.67	0.00104437
3848.31	0.00104987
3857.96	0.000665
3867.6	0.0015407
3877.25	0.001209
3886.89	0.000649
3896.54	0.000841
3906.18	0.000698
3915.83	0.000797
3925.47	0.000777
3935.12	0.0011164
3944.76	0.000788
3954.41	0.00104993
3964.05	0.0009697
3973.69	0.000773
3983.34	0.000488
3992.98	0.0011908
