Infrared Spectrum: HYDANTOIN, N-(5-NITRO-2-FURFURYLIDENE)-1-AMINO-
Formula: C8 H6 N4 O5
CAS: 67-20-9
State: SOLID (1 mg / 200 mg KBr DISC)
Melting point: 251-253 C DECOMP.
Class: COBLENTZ III
Instrument: PERKIN-ELMER 21 (GRATING)
Instrument parameters: FILTER AT ABOUT 10 MICRONS
Sampling: TRANSMISSION
Resolution: 2
1/CM	TRANSMITTANCE
4000	0.6109
3991	0.6119
3982	0.613
3973	0.6141
3964	0.6156
3955	0.6174
3946	0.6193
3937	0.6212
3928	0.6231
3919	0.6254
3910	0.6275
3901	0.6292
3892	0.6299
3883	0.6305
3874	0.631
3865	0.6314
3856	0.6316
3847	0.6318
3838	0.6322
3829	0.6325
3820	0.6328
3811	0.6331
3802	0.6347
3793	0.6365
3784	0.6387
3775	0.6425
3766	0.6457
3757	0.6483
3748	0.6507
3739	0.6507
3730	0.6505
3721	0.6503
3712	0.6504
3703	0.6511
3694	0.6525
3685	0.6544
3676	0.6561
3667	0.6582
3658	0.6599
3649	0.6611
3640	0.6632
3631	0.663
3622	0.6625
3613	0.6601
3604	0.6543
3595	0.6462
3586	0.6381
3577	0.6292
3568	0.6193
3559	0.6096
3550	0.6008
3541	0.592
3532	0.5783
3523	0.5672
3514	0.5603
3505	0.5534
3496	0.5469
3487	0.5408
3478	0.5352
3469	0.5307
3460	0.5264
3451	0.522
3442	0.5176
3433	0.5139
3424	0.5103
3415	0.5069
3406	0.504
3397	0.501
3388	0.498
3379	0.4947
3370	0.4875
3361	0.4764
3352	0.4582
3343	0.3964
3334	0.3151
3325	0.2334
3316	0.1692
3307	0.1581
3298	0.1444
3289	0.135
3280	0.1533
3271	0.1984
3262	0.2452
3253	0.2949
3244	0.3222
3235	0.3436
3226	0.3578
3217	0.3787
3208	0.3953
3199	0.4066
3190	0.418
3181	0.4294
3172	0.4305
3163	0.4068
3154	0.391
3145	0.4044
3136	0.4293
3127	0.4543
3118	0.4706
3109	0.4803
3100	0.4884
3091	0.4955
3082	0.5035
3073	0.5119
3064	0.5206
3055	0.5274
3046	0.5308
3037	0.5323
3028	0.5262
3019	0.5135
3010	0.5188
3001	0.5348
2992	0.5462
2983	0.5469
2974	0.5449
2965	0.54
2956	0.5389
2947	0.5401
2938	0.5412
2929	0.539
2920	0.5356
2911	0.5351
2902	0.537
2893	0.5471
2884	0.5633
2875	0.5721
2866	0.5797
2857	0.5877
2848	0.5972
2839	0.606
2830	0.6143
2821	0.622
2812	0.6316
2803	0.6373
2794	0.6405
2785	0.6428
2776	0.6443
2767	0.645
2758	0.6439
2749	0.6412
2740	0.6403
2731	0.6415
2722	0.6442
2713	0.6487
2704	0.6543
2695	0.6606
2686	0.6675
2677	0.6747
2668	0.6834
2659	0.6912
2650	0.6988
2641	0.7044
2632	0.7086
2623	0.7108
2614	0.7108
2605	0.7108
2596	0.7108
2587	0.7114
2578	0.7125
2569	0.7187
2560	0.7275
2551	0.734
2542	0.7386
2533	0.739
2524	0.7378
2515	0.7368
2506	0.7362
2497	0.7357
2488	0.7351
2479	0.735
2470	0.7353
2461	0.7356
2452	0.7362
2443	0.7398
2434	0.7468
2425	0.7578
2416	0.7621
2407	0.7647
2398	0.7668
2389	0.7693
2380	0.7726
2371	0.7758
2362	0.7757
2353	0.7731
2344	0.7701
2335	0.7687
2326	0.7686
2317	0.7707
2308	0.7746
2299	0.7793
2290	0.7845
2281	0.7864
2272	0.7865
2263	0.7847
2254	0.785
2245	0.7868
2236	0.7922
2227	0.7958
2218	0.7945
2209	0.7939
2200	0.7936
2191	0.7935
2182	0.7935
2173	0.7951
2164	0.7971
2155	0.7999
2146	0.8021
2137	0.804
2128	0.8054
2119	0.8068
2110	0.8082
2101	0.8075
2092	0.8068
2083	0.8065
2074	0.8062
2065	0.8076
2056	0.8107
2047	0.8058
2038	0.8021
2029	0.8004
2020	0.7994
2011	0.7974
2002	0.7868
1993	0.7771
1984	0.7757
1975	0.7815
1966	0.7883
1957	0.7885
1948	0.7869
1939	0.7911
1930	0.7943
1921	0.7957
1912	0.7936
1903	0.7784
1894	0.7726
1885	0.7706
1876	0.7661
1867	0.7555
1858	0.7326
1849	0.6968
1840	0.6585
1831	0.6119
1822	0.4327
1813	0.2915
1804	0.2501
1795	0.2088
1786	0.074
1777	0.1263
1768	0.1679
1759	0.0548
1750	0.0492
1741	0.0473
1732	0.0491
1723	0.0935
1714	0.2798
1705	0.4352
1696	0.5737
1687	0.5973
1678	0.6385
1669	0.6568
1660	0.64
1651	0.6444
1642	0.6801
1633	0.6978
1624	0.696
1615	0.5943
1606	0.6478
1597	0.701
1588	0.7161
1579	0.7001
1570	0.4729
1561	0.5687
1552	0.6811
1543	0.6736
1534	0.3605
1525	0.1677
1516	0.3008
1507	0.461
1498	0.3073
1489	0.3794
1480	0.4708
1471	0.5545
1462	0.6159
1453	0.5614
1444	0.3165
1435	0.0639
1426	0.231
1417	0.3984
1408	0.1629
1399	0.2162
1390	0.1358
1381	0.1207
1372	0.3023
1363	0.1933
1354	0.0454
1345	0.0471
1336	0.0709
1327	0.1442
1318	0.2593
1309	0.4327
1300	0.518
1291	0.597
1282	0.6331
1273	0.6405
1264	0.5412
1255	0.1813
1246	0.0601
1237	0.2668
1228	0.2832
1219	0.4049
1210	0.1101
1201	0.3392
1192	0.5164
1183	0.5736
1174	0.594
1165	0.6187
1156	0.671
1147	0.6721
1138	0.6
1129	0.4097
1120	0.2696
1111	0.1207
1102	0.4427
1093	0.5732
1084	0.6172
1075	0.6544
1066	0.6847
1057	0.6654
1048	0.5868
1039	0.6457
1030	0.6922
1021	0.2778
1012	0.5272
1003	0.7144
994	0.7467
985	0.7261
976	0.4393
967	0.6137
958	0.5924
949	0.7314
940	0.748
931	0.4928
922	0.6853
913	0.7396
904	0.5733
895	0.7115
886	0.7339
877	0.6545
868	0.5777
859	0.7701
850	0.7806
841	0.7597
832	0.5871
823	0.4831
814	0.6792
805	0.6645
796	0.6869
787	0.425
778	0.5441
769	0.6753
760	0.6876
751	0.6411
742	0.4346
733	0.4548
724	0.2634
715	0.3188
706	0.4942
697	0.6193
688	0.5456
679	0.66
670	0.6888
