Infrared Spectrum: DL-ETHIONINE
Formula: C6 H13 N O2 S
CAS: 67-21-0
State: SOLID (NUJOL MULL)
Class: COBLENTZ
Instrument: Not specified, most likely a prism, grating, or hybrid spectrometer.
Sampling: TRANSMISSION
Resolution: 4
Origin: DOW CHEMICAL COMPANY
MICROMETERS	TRANSMITTANCE
2.041	0.892
2.08204	0.887
2.12307	0.882
2.16411	0.878
2.20514	0.877
2.24618	0.854
2.28722	0.843
2.32825	0.848
2.36929	0.853
2.41032	0.865
2.45136	0.866
2.4924	0.868
2.53343	0.868
2.57447	0.865
2.6155	0.86
2.65654	0.86
2.69758	0.846
2.73861	0.834
2.77965	0.802
2.82068	0.769
2.86172	0.752
2.90276	0.713
2.94379	0.699
2.98483	0.687
3.02586	0.656
3.0669	0.631
3.10793	0.598
3.14897	0.525
3.19001	0.443
3.23104	0.351
3.27208	0.259
3.31311	0.182
3.35415	0.117
3.39519	0.073
3.43622	0.08
3.47726	0.117
3.51829	0.162
3.55933	0.242
3.60037	0.296
3.6414	0.298
3.68244	0.291
3.72347	0.337
3.76451	0.378
3.80555	0.382
3.84658	0.464
3.88762	0.532
3.92865	0.564
3.96969	0.581
4.01073	0.65
4.05176	0.686
4.0928	0.709
4.13383	0.728
4.17487	0.74
4.21591	0.744
4.25694	0.737
4.29798	0.732
4.33901	0.769
4.38005	0.776
4.42109	0.776
4.46212	0.779
4.50316	0.774
4.54419	0.774
4.58523	0.779
4.62627	0.776
4.6673	0.764
4.70834	0.738
4.74937	0.701
4.79041	0.67
4.83145	0.696
4.87248	0.73
4.91352	0.755
4.95455	0.778
4.99559	0.795
5.03662	0.802
5.07766	0.807
5.1187	0.813
5.15973	0.813
5.20077	0.813
5.2418	0.813
5.28284	0.813
5.32388	0.813
5.36491	0.812
5.40595	0.805
5.44698	0.807
5.48802	0.807
5.52906	0.805
5.57009	0.798
5.61113	0.79
5.65216	0.778
5.6932	0.771
5.73424	0.762
5.77527	0.754
5.81631	0.744
5.85734	0.715
5.89838	0.672
5.93942	0.598
5.98045	0.428
6.02149	0.192
6.06252	0.187
6.10356	0.203
6.1446	0.129
6.18563	0.117
6.22667	0.092
6.2677	0.075
6.30874	0.054
6.34978	0.1
6.39081	0.177
6.43185	0.308
6.47288	0.334
6.51392	0.343
6.55496	0.312
6.59599	0.264
6.63703	0.317
6.67806	0.424
6.7191	0.452
6.76014	0.416
6.80117	0.343
6.84221	0.302
6.88324	0.245
6.92428	0.286
6.96532	0.346
7.00635	0.257
7.04739	0.102
7.08842	0.122
7.12946	0.36
7.17049	0.517
7.21153	0.489
7.25257	0.433
7.2936	0.433
7.33464	0.358
7.37567	0.288
7.41671	0.117
7.45775	0.117
7.49878	0.337
7.53982	0.433
7.58085	0.544
7.62189	0.576
7.66293	0.595
7.70396	0.588
7.745	0.498
7.78603	0.337
7.82707	0.404
7.86811	0.554
7.90914	0.605
7.95018	0.66
7.99121	0.672
8.03225	0.663
8.07329	0.629
8.11432	0.585
8.15536	0.537
8.19639	0.518
8.23743	0.636
8.27847	0.656
8.3195	0.672
8.36054	0.72
8.40157	0.726
8.44261	0.73
8.48365	0.718
8.52468	0.686
8.56572	0.639
8.60675	0.604
8.64779	0.612
8.68883	0.65
8.72986	0.662
8.7709	0.691
8.81193	0.711
8.85297	0.72
8.89401	0.721
8.93504	0.72
8.97608	0.699
9.01711	0.651
9.05815	0.598
9.09918	0.617
9.14022	0.658
9.18126	0.627
9.22229	0.511
9.26333	0.424
9.30436	0.503
9.3454	0.6
9.38644	0.614
9.42747	0.616
9.46851	0.641
9.50954	0.653
9.55058	0.655
9.59162	0.655
9.63265	0.638
9.67369	0.626
9.71472	0.624
9.75576	0.627
9.7968	0.634
9.83783	0.636
9.87887	0.643
9.9199	0.645
9.96094	0.638
10.002	0.604
10.043	0.568
10.084	0.585
10.1251	0.592
10.1661	0.583
10.2072	0.576
10.2482	0.6
10.2892	0.616
10.3303	0.634
10.3713	0.655
10.4123	0.67
10.4534	0.682
10.4944	0.692
10.5354	0.701
10.5765	0.708
10.6175	0.699
10.6586	0.658
10.6996	0.592
10.7406	0.556
10.7817	0.581
10.8227	0.639
10.8637	0.67
10.9048	0.696
10.9458	0.715
10.9868	0.723
11.0279	0.735
11.0689	0.735
11.1099	0.737
11.151	0.73
11.192	0.709
11.2331	0.667
11.2741	0.609
11.3151	0.549
11.3562	0.52
11.3972	0.576
11.4382	0.648
11.4793	0.684
11.5203	0.694
11.5613	0.704
11.6024	0.72
11.6434	0.728
11.6845	0.716
11.7255	0.72
11.7665	0.752
11.8076	0.773
11.8486	0.783
11.8896	0.79
11.9307	0.795
11.9717	0.798
12.0127	0.802
12.0538	0.796
12.0948	0.779
12.1358	0.769
12.1769	0.769
12.2179	0.784
12.259	0.798
12.3	0.803
12.341	0.805
12.3821	0.805
12.4231	0.802
12.4641	0.796
12.5052	0.788
12.5462	0.773
12.5872	0.755
12.6283	0.735
12.6693	0.713
12.7103	0.696
12.7514	0.667
12.7924	0.634
12.8335	0.627
12.8745	0.665
12.9155	0.701
12.9566	0.726
12.9976	0.74
13.0386	0.742
13.0797	0.73
13.1207	0.703
13.1617	0.67
13.2028	0.641
13.2438	0.621
13.2849	0.624
13.3259	0.653
13.3669	0.67
13.408	0.679
13.449	0.696
13.49	0.711
13.5311	0.73
13.5721	0.747
13.6131	0.755
13.6542	0.759
13.6952	0.762
13.7362	0.764
13.7773	0.762
13.8183	0.761
13.8594	0.759
13.9004	0.759
13.9414	0.762
13.9825	0.766
14.0235	0.771
14.0645	0.767
14.1056	0.761
14.1466	0.75
14.1876	0.733
14.2287	0.703
14.2697	0.662
14.3108	0.616
14.3518	0.569
14.3928	0.523
14.4339	0.484
14.4749	0.462
14.5159	0.465
14.557	0.505
14.598	0.554
14.639	0.598
14.6801	0.638
14.7211	0.668
14.7621	0.689
14.8032	0.699
14.8442	0.708
14.8853	0.709
14.9263	0.708
14.9673	0.706
15.0084	0.715
15.0494	0.72
15.0904	0.718
15.1315	0.718
15.1725	0.716
15.2135	0.713
15.2546	0.706
15.2956	0.701
15.3367	0.691
15.3777	0.68
15.4187	0.674
15.4598	0.667
15.5008	0.662
15.5418	0.658
15.5829	0.655
15.6239	0.653
15.6649	0.65
15.706	0.646
15.747	0.645
15.788	0.645
15.8291	0.639
