Infrared Spectrum: FURAZOLIDONE
Formula: C8 H7 N3 O5
CAS: 67-45-8
State: SOLID (KBr DISC)
Melting point: 275 C DECOMP.
Class: COBLENTZ III
Instrument: PERKIN-ELMER 21 (GRATING)
Instrument parameters: FILTER AT ABOUT 10 MICRONS
Sampling: TRANSMISSION
Resolution: 2
1/CM	TRANSMITTANCE
4000	0.8291
3991	0.8308
3982	0.8325
3973	0.8342
3964	0.8357
3955	0.8364
3946	0.837
3937	0.8377
3928	0.8378
3919	0.8378
3910	0.8378
3901	0.838
3892	0.838
3883	0.8381
3874	0.8382
3865	0.8383
3856	0.8384
3847	0.8384
3838	0.8386
3829	0.8387
3820	0.8391
3811	0.8395
3802	0.84
3793	0.8404
3784	0.8408
3775	0.8411
3766	0.8415
3757	0.8418
3748	0.8423
3739	0.8425
3730	0.8428
3721	0.8433
3712	0.8436
3703	0.844
3694	0.8442
3685	0.8444
3676	0.8448
3667	0.845
3658	0.8456
3649	0.8463
3640	0.8468
3631	0.8475
3622	0.8482
3613	0.8489
3604	0.8496
3595	0.8502
3586	0.8508
3577	0.8514
3568	0.8521
3559	0.8527
3550	0.8533
3541	0.8539
3532	0.8544
3523	0.8549
3514	0.8555
3505	0.856
3496	0.8565
3487	0.8566
3478	0.8568
3469	0.8568
3460	0.8571
3451	0.8573
3442	0.8575
3433	0.8575
3424	0.8577
3415	0.8578
3406	0.8578
3397	0.858
3388	0.8587
3379	0.8594
3370	0.86
3361	0.8607
3352	0.8612
3343	0.8616
3334	0.862
3325	0.8624
3316	0.8628
3307	0.8632
3298	0.8638
3289	0.8643
3280	0.8649
3271	0.8654
3262	0.8663
3253	0.8673
3244	0.8684
3235	0.8694
3226	0.8704
3217	0.871
3208	0.8714
3199	0.8718
3190	0.8721
3181	0.8721
3172	0.8545
3163	0.8294
3154	0.8041
3145	0.7787
3136	0.755
3127	0.7543
3118	0.7593
3109	0.7701
3100	0.7761
3091	0.7787
3082	0.7854
3073	0.795
3064	0.8047
3055	0.8106
3046	0.8049
3037	0.7674
3028	0.7387
3019	0.7385
3010	0.7465
3001	0.7588
2992	0.7689
2983	0.7769
2974	0.7841
2965	0.7896
2956	0.7908
2947	0.7899
2938	0.7883
2929	0.7864
2920	0.7848
2911	0.7836
2902	0.7833
2893	0.786
2884	0.7949
2875	0.8038
2866	0.813
2857	0.8198
2848	0.822
2839	0.8224
2830	0.822
2821	0.8231
2812	0.8285
2803	0.8355
2794	0.8399
2785	0.8442
2776	0.8478
2767	0.851
2758	0.8536
2749	0.8542
2740	0.8535
2731	0.8516
2722	0.8499
2713	0.8489
2704	0.8504
2695	0.8537
2686	0.857
2677	0.8601
2668	0.8632
2659	0.8656
2650	0.8675
2641	0.8682
2632	0.8668
2623	0.8656
2614	0.8646
2605	0.8639
2596	0.8639
2587	0.864
2578	0.8649
2569	0.866
2560	0.8668
2551	0.8673
2542	0.8677
2533	0.868
2524	0.8682
2515	0.8684
2506	0.8684
2497	0.8678
2488	0.8651
2479	0.8624
2470	0.8601
2461	0.8609
2452	0.863
2443	0.8657
2434	0.8682
2425	0.8707
2416	0.8732
2407	0.8754
2398	0.8775
2389	0.8793
2380	0.8811
2371	0.8828
2362	0.884
2353	0.8828
2344	0.8812
2335	0.8795
2326	0.879
2317	0.8791
2308	0.88
2299	0.8811
2290	0.8821
2281	0.8834
2272	0.8845
2263	0.8857
2254	0.8867
2245	0.8874
2236	0.8878
2227	0.8878
2218	0.8864
2209	0.8837
2200	0.8813
2191	0.8807
2182	0.8828
2173	0.8851
2164	0.8871
2155	0.8883
2146	0.8892
2137	0.8902
2128	0.8912
2119	0.8921
2110	0.893
2101	0.8934
2092	0.8938
2083	0.8935
2074	0.8928
2065	0.892
2056	0.8914
2047	0.8907
2038	0.8895
2029	0.8881
2020	0.8862
2011	0.8836
2002	0.8809
1993	0.8793
1984	0.8814
1975	0.8853
1966	0.8873
1957	0.888
1948	0.8884
1939	0.8887
1930	0.8888
1921	0.8889
1912	0.8889
1903	0.8888
1894	0.8891
1885	0.8888
1876	0.8859
1867	0.8814
1858	0.8774
1849	0.872
1840	0.863
1831	0.851
1822	0.8328
1813	0.8107
1804	0.7807
1795	0.7128
1786	0.6114
1777	0.3244
1768	0.1122
1759	0.0561
1750	0.1096
1741	0.4762
1732	0.6547
1723	0.7031
1714	0.7511
1705	0.784
1696	0.8044
1687	0.8142
1678	0.8249
1669	0.8305
1660	0.8291
1651	0.813
1642	0.7919
1633	0.7944
1624	0.7682
1615	0.7031
1606	0.7545
1597	0.8275
1588	0.8339
1579	0.8318
1570	0.8143
1561	0.7011
1552	0.7408
1543	0.7936
1534	0.7707
1525	0.638
1516	0.4156
1507	0.4547
1498	0.5736
1489	0.6198
1480	0.4284
1471	0.1966
1462	0.3545
1453	0.725
1444	0.7543
1435	0.7442
1426	0.7078
1417	0.5133
1408	0.2802
1399	0.3903
1390	0.0901
1381	0.4615
1372	0.621
1363	0.391
1354	0.1522
1345	0.102
1336	0.4224
1327	0.6122
1318	0.6367
1309	0.7572
1300	0.7815
1291	0.765
1282	0.7337
1273	0.635
1264	0.1504
1255	0.1813
1246	0.2299
1237	0.0721
1228	0.0722
1219	0.22
1210	0.4187
1201	0.592
1192	0.6819
1183	0.7243
1174	0.6661
1165	0.6218
1156	0.7521
1147	0.7565
1138	0.7465
1129	0.6904
1120	0.5682
1111	0.3857
1102	0.2867
1093	0.5322
1084	0.6968
1075	0.7767
1066	0.796
1057	0.7912
1048	0.7591
1039	0.4784
1030	0.5154
1021	0.2452
1012	0.7572
1003	0.7999
994	0.8192
985	0.7778
976	0.6016
967	0.7297
958	0.637
949	0.8082
940	0.593
931	0.8065
922	0.8371
913	0.846
904	0.847
895	0.8505
886	0.8551
877	0.8516
868	0.8405
859	0.6372
850	0.828
841	0.845
832	0.8088
823	0.4469
814	0.7725
805	0.648
796	0.8453
787	0.8449
778	0.7611
769	0.7189
760	0.8053
751	0.5246
742	0.6275
733	0.8085
724	0.84
715	0.8461
706	0.8228
697	0.7751
688	0.8211
679	0.8431
670	0.8341
661	0.7248
