Infrared Spectrum: CHOLINE CHLORIDE
Formula: C5 H14 Cl N O
CAS: 67-48-1
State: SOLID (MINERAL OIL MULL)
Class: COBLENTZ
Instrument: Not specified, most likely a prism, grating, or hybrid spectrometer.
Sampling: TRANSMISSION
Resolution: 4
Origin: WYANDOTTE CHEMICALS CORP., WYANDOTTE, MICHIGAN, USA
MICROMETERS	TRANSMITTANCE
2.041	0.744
2.08184	0.708
2.12267	0.522
2.16351	0.528
2.20434	0.555
2.24518	0.608
2.28601	0.637
2.32685	0.669
2.36768	0.671
2.40852	0.666
2.44935	0.679
2.49019	0.684
2.53102	0.71
2.57186	0.684
2.61269	0.7
2.65353	0.66
2.69436	0.572
2.7352	0.413
2.77603	0.281
2.81687	0.168
2.8577	0.119
2.89854	0.078
2.93937	0.068
2.98021	0.047
3.02104	0.035
3.06188	0.03
3.10271	0.03
3.14355	0.032
3.18438	0.027
3.22522	0.056
3.26605	0.037
3.30689	0.059
3.34772	0.032
3.38856	0.035
3.42939	0.049
3.47023	0.04
3.51106	0.1
3.5519	0.173
3.59273	0.199
3.63357	0.275
3.6744	0.299
3.71524	0.311
3.75607	0.376
3.79691	0.5
3.83774	0.494
3.87858	0.49
3.91941	0.572
3.96025	0.591
4.00109	0.57
4.04192	0.655
4.08276	0.632
4.12359	0.696
4.16443	0.751
4.20526	0.72
4.2461	0.662
4.28693	0.712
4.32777	0.751
4.3686	0.809
4.40944	0.798
4.45027	0.81
4.49111	0.868
4.53194	0.86
4.57278	0.86
4.61361	0.868
4.65445	0.85
4.69528	0.824
4.73612	0.809
4.77695	0.844
4.81779	0.879
4.85862	0.923
4.89946	0.919
4.94029	0.93
4.98113	0.954
5.02196	0.957
5.0628	0.957
5.10363	0.911
5.14447	0.943
5.1853	0.933
5.22614	0.945
5.26697	0.952
5.30781	1.003
5.34864	0.959
5.38948	0.945
5.43031	0.904
5.47115	0.824
5.51198	0.795
5.55282	0.751
5.59365	0.771
5.63449	0.749
5.67532	0.764
5.71616	0.778
5.75699	0.759
5.79783	0.781
5.83866	0.754
5.8795	0.754
5.92033	0.71
5.96117	0.657
6.00201	0.599
6.04284	0.62
6.08368	0.643
6.12451	0.705
6.16535	0.77
6.20618	0.795
6.24702	0.768
6.28785	0.744
6.32869	0.715
6.36952	0.734
6.41036	0.681
6.45119	0.708
6.49203	0.66
6.53286	0.563
6.5737	0.356
6.61453	0.042
6.65537	0.035
6.6962	0.028
6.73704	0.04
6.77787	0.042
6.81871	0.057
6.85954	0.066
6.90038	0.063
6.94121	0.088
6.98205	0.12
7.02288	0.073
7.06372	0.226
7.10455	0.374
7.14539	0.364
7.18622	0.235
7.22706	0.097
7.26789	0.219
7.30873	0.166
7.34956	0.066
7.3904	0.057
7.43123	0.11
7.47207	0.1
7.5129	0.224
7.55374	0.318
7.59457	0.362
7.63541	0.385
7.67624	0.369
7.71708	0.325
7.75791	0.284
7.79875	0.226
7.83958	0.236
7.88042	0.359
7.92126	0.378
7.96209	0.335
8.00293	0.267
8.04376	0.284
8.0846	0.359
8.12543	0.333
8.16627	0.255
8.2071	0.306
8.24794	0.356
8.28877	0.388
8.32961	0.424
8.37044	0.456
8.41128	0.477
8.45211	0.487
8.49295	0.488
8.53378	0.477
8.57462	0.459
8.61545	0.381
8.65629	0.223
8.69712	0.172
8.73796	0.175
8.77879	0.332
8.81963	0.442
8.86046	0.488
8.9013	0.488
8.94213	0.458
8.98297	0.383
9.0238	0.291
9.06464	0.158
9.10547	0.08
9.14631	0.042
9.18714	0.037
9.22798	0.074
9.26881	0.136
9.30965	0.163
9.35048	0.139
9.39132	0.095
9.43215	0.088
9.47299	0.117
9.51382	0.195
9.55466	0.291
9.59549	0.388
9.63633	0.454
9.67716	0.468
9.718	0.429
9.75883	0.293
9.79967	0.107
9.84051	0.032
9.88134	0.034
9.92218	0.107
9.96301	0.221
10.0038	0.364
10.0447	0.461
10.0855	0.519
10.1264	0.536
10.1672	0.512
10.208	0.437
10.2489	0.33
10.2897	0.173
10.3305	0.049
10.3714	0.027
10.4122	0.027
10.453	0.03
10.4939	0.03
10.5347	0.028
10.5755	0.044
10.6164	0.107
10.6572	0.211
10.698	0.308
10.7389	0.369
10.7797	0.398
10.8205	0.422
10.8614	0.458
10.9022	0.502
10.9431	0.538
10.9839	0.538
11.0247	0.49
11.0656	0.347
11.1064	0.182
11.1472	0.047
11.1881	0.03
11.2289	0.049
11.2697	0.139
11.3106	0.279
11.3514	0.405
11.3922	0.451
11.4331	0.437
11.4739	0.34
11.5147	0.119
11.5556	0.066
11.5964	0.136
11.6372	0.321
11.6781	0.5
11.7189	0.611
11.7598	0.65
11.8006	0.684
11.8414	0.712
11.8823	0.73
11.9231	0.741
11.9639	0.747
12.0048	0.756
12.0456	0.759
12.0864	0.761
12.1273	0.759
12.1681	0.756
12.2089	0.752
12.2498	0.741
12.2906	0.735
12.3314	0.735
12.3723	0.73
12.4131	0.727
12.454	0.725
12.4948	0.722
12.5356	0.717
12.5765	0.715
12.6173	0.713
12.6581	0.705
12.699	0.7
12.7398	0.695
12.7806	0.689
12.8215	0.681
12.8623	0.669
12.9031	0.662
12.944	0.652
12.9848	0.65
13.0256	0.637
13.0665	0.63
13.1073	0.625
13.1481	0.608
13.189	0.603
13.2298	0.596
13.2707	0.584
13.3115	0.574
13.3523	0.567
13.3932	0.56
13.434	0.543
13.4748	0.534
13.5157	0.524
13.5565	0.507
13.5973	0.499
13.6382	0.49
13.679	0.483
13.7198	0.465
13.7607	0.454
13.8015	0.431
13.8423	0.405
13.8832	0.352
13.924	0.31
13.9649	0.299
14.0057	0.34
14.0465	0.366
14.0874	0.376
14.1282	0.39
14.169	0.391
14.2099	0.383
14.2507	0.383
14.2915	0.381
14.3324	0.367
14.3732	0.367
14.414	0.361
14.4549	0.352
14.4957	0.349
14.5365	0.35
14.5774	0.344
14.6182	0.337
14.659	0.332
14.6999	0.323
14.7407	0.332
14.7816	0.325
14.8224	0.323
14.8632	0.32
14.9041	0.313
14.9449	0.313
14.9857	0.318
15.0266	0.335
15.0674	0.316
15.1082	0.291
15.1491	0.275
15.1899	0.277
15.2307	0.291
15.2716	0.287
15.3124	0.286
15.3532	0.291
15.3941	0.289
15.4349	0.286
15.4757	0.287
15.5166	0.294
15.5574	0.299
15.5983	0.304
15.6391	0.315
15.6799	0.31
15.7208	0.332
15.7616	0.33
15.8024	0.349
15.8433	0.352
15.8841	0.362
15.9249	0.374
15.9658	0.385
