Infrared Spectrum: Barbituric acid
Formula: C4 H4 N2 O3
CAS: 67-52-7
State: SOLID (SPLIT MULL)
Class: COBLENTZ III
Instrument: DOW KBr FOREPRISM-GRATING
Instrument parameters: BLAZED AT 3.5, 12.0, 20.0 MICRON AND CHANGED AT 5.0, 7.5, 14.9 MICRON
Sampling: TRANSMISSION
Resolution: 2
Origin: DOW CHEMICAL COMPANY
1/CM	TRANSMITTANCE
3816	0.7842
3807	0.7826
3798	0.7948
3789	0.7933
3780	0.7915
3771	0.7925
3762	0.7949
3753	0.7988
3744	0.8028
3735	0.8012
3726	0.8001
3717	0.8015
3708	0.8051
3699	0.8058
3690	0.8081
3681	0.8092
3672	0.8096
3663	0.8098
3654	0.8139
3645	0.813
3636	0.8119
3627	0.8139
3618	0.814
3609	0.8137
3600	0.8135
3591	0.8114
3582	0.8093
3573	0.8092
3564	0.8091
3555	0.8061
3546	0.8078
3537	0.8095
3528	0.8119
3519	0.8142
3510	0.8155
3501	0.8151
3492	0.8144
3483	0.814
3474	0.8153
3465	0.8171
3456	0.8187
3447	0.8202
3438	0.8217
3429	0.8232
3420	0.825
3411	0.8278
3402	0.8309
3393	0.8343
3384	0.8371
3375	0.8387
3366	0.8374
3357	0.8354
3348	0.8318
3339	0.8198
3330	0.8028
3321	0.7833
3312	0.7506
3303	0.7112
3294	0.6728
3285	0.6198
3276	0.5721
3267	0.5082
3258	0.4431
3249	0.3928
3240	0.3659
3231	0.3366
3222	0.3159
3213	0.3072
3204	0.3075
3195	0.3179
3186	0.3334
3177	0.3475
3168	0.3628
3159	0.378
3150	0.385
3141	0.3843
3132	0.3657
3123	0.3354
3114	0.2931
3105	0.2714
3096	0.2719
3087	0.2875
3078	0.3091
3069	0.3491
3060	0.385
3051	0.4265
3042	0.4601
3033	0.496
3024	0.5305
3015	0.5518
3006	0.5681
2997	0.5831
2988	0.5951
2979	0.5988
2970	0.6018
2961	0.623
2952	0.6395
2943	0.651
2934	0.6594
2925	0.6672
2916	0.6694
2907	0.6645
2898	0.6428
2889	0.581
2880	0.5425
2871	0.5428
2862	0.5717
2853	0.591
2844	0.6026
2835	0.6169
2826	0.6352
2817	0.6541
2808	0.6714
2799	0.6867
2790	0.7028
2781	0.7172
2772	0.7298
2763	0.7412
2754	0.7525
2745	0.7628
2736	0.7715
2727	0.779
2718	0.7853
2709	0.7905
2700	0.7954
2691	0.7982
2682	0.8011
2673	0.7994
2664	0.7993
2655	0.7995
2646	0.8021
2637	0.8075
2628	0.8126
2619	0.8168
2610	0.8184
2601	0.821
2592	0.8232
2583	0.8253
2574	0.8274
2565	0.83
2556	0.8327
2547	0.8352
2538	0.8374
2529	0.8393
2520	0.841
2511	0.8416
2502	0.8381
2493	0.8345
2484	0.8309
2475	0.8283
2466	0.8258
2457	0.8244
2448	0.8252
2439	0.8301
2430	0.8348
2421	0.8377
2412	0.8385
2403	0.8386
2394	0.8384
2385	0.8387
2376	0.8414
2367	0.846
2358	0.8468
2349	0.8463
2340	0.8409
2331	0.8462
2322	0.849
2313	0.8458
2304	0.8459
2295	0.8475
2286	0.8498
2277	0.8524
2268	0.8553
2259	0.8581
2250	0.861
2241	0.8635
2232	0.8661
2223	0.8686
2214	0.8695
2205	0.8707
2196	0.8711
2187	0.8721
2178	0.8735
2169	0.8749
2160	0.8784
2151	0.8831
2142	0.8857
2133	0.8883
2124	0.8892
2115	0.8896
2106	0.8895
2097	0.8878
2088	0.8844
2079	0.8806
2070	0.8778
2061	0.8797
2052	0.8844
2043	0.8895
2034	0.8948
2025	0.898
2016	0.8991
2007	0.9
1998	0.9017
1989	0.8828
1980	0.8796
1971	0.8754
1962	0.8747
1953	0.8864
1944	0.8785
1935	0.8747
1926	0.8731
1917	0.8682
1908	0.8627
1899	0.8575
1890	0.855
1881	0.8534
1872	0.8406
1863	0.8263
1854	0.823
1845	0.8281
1836	0.827
1827	0.8203
1818	0.8098
1809	0.7932
1800	0.7641
1791	0.7219
1782	0.6561
1773	0.5038
1764	0.2138
1755	0.165
1746	0.1548
1737	0.1892
1728	0.1087
1719	0.0379
1710	0.0336
1701	0.0344
1692	0.0332
1683	0.0569
1674	0.1324
1665	0.3054
1656	0.3792
1647	0.4336
1638	0.5337
1629	0.5975
1620	0.638
1611	0.6675
1602	0.6912
1593	0.7041
1584	0.7225
1575	0.7378
1566	0.7455
1557	0.7636
1548	0.7407
1539	0.7369
1530	0.7396
1521	0.7626
1512	0.7688
1503	0.7806
1494	0.7974
1485	0.8133
1476	0.8015
1467	0.6938
1458	0.4828
1449	0.5246
1440	0.481
1431	0.3337
1422	0.2224
1413	0.2642
1404	0.4997
1395	0.5429
1386	0.2354
1377	0.2067
1368	0.1846
1359	0.2361
1350	0.2258
1341	0.219
1332	0.2881
1323	0.4534
1314	0.5672
1305	0.6125
1296	0.6243
1287	0.5614
1278	0.6315
1269	0.6481
1260	0.3439
1251	0.2763
1242	0.3548
1233	0.5198
1224	0.6098
1215	0.6701
1206	0.6784
1197	0.6504
1188	0.6517
1179	0.6385
1170	0.6309
1161	0.7048
1152	0.7218
1143	0.7357
1134	0.75
1125	0.7599
1116	0.766
1107	0.7662
1098	0.7668
1089	0.7718
1080	0.7711
1071	0.7736
1062	0.7784
1053	0.7767
1044	0.7538
1035	0.633
1026	0.6833
1017	0.7568
1008	0.7769
999	0.7828
990	0.7851
981	0.7868
972	0.7871
963	0.7867
954	0.771
945	0.7656
936	0.6928
927	0.704
918	0.7487
909	0.7785
900	0.7845
891	0.7808
882	0.7778
873	0.7655
864	0.7467
855	0.7251
846	0.6956
837	0.6649
828	0.6258
819	0.556
810	0.4753
801	0.4684
792	0.5039
783	0.5385
774	0.5846
765	0.651
756	0.7253
747	0.7335
738	0.7342
729	0.7331
720	0.7288
711	0.7735
702	0.8086
693	0.8203
684	0.8234
675	0.8266
666	0.8675
657	0.8178
648	0.8489
639	0.8057
630	0.7601
621	0.8697
612	0.8444
603	0.8708
594	0.8793
585	0.879
576	0.8771
567	0.8734
558	0.8463
549	0.714
540	0.7815
531	0.8115
522	0.7964
513	0.63
504	0.3938
495	0.7203
486	0.7751
477	0.6299
468	0.7078
459	0.7812
450	0.7881
