Infrared Spectrum: Hexachloroethane
Formula: C 2 Cl 6
CAS: 67-72-1
State: gas
Instrument: HP-GC/MS/IRD
Origin: NIST Mass Spectrometry Data Center
1/CM	ABSORBANCE
550	0.000869
562	0.0006636
574	0.0004898
586	0.0006004
598	0.0004582
610	0.000395
622	0.0003476
634	0.000316
646	0.0004582
658	0.0014378
670	0.0096854
682	0.0219462
694	0.0111706
706	0.006873
718	0.0031284
730	0.001738
742	0.0022752
754	0.0069678
766	0.032785
778	0.124141
790	0.119085
802	0.0172536
814	0.0051824
826	0.0014062
838	0.0006478
850	0.0005688
862	0.000316
874	0.0002528
886	0.0002844
898	0.0002686
910	0.0003318
922	0.0002054
934	0.000158
946	0.0001264
958	9.48e-05
970	0.000158
982	0.0004898
994	0.001106
1006	0.0016432
1018	0.0016748
1030	0.0010744
1042	0.000474
1054	0.0001422
1066	0.0001106
1078	0.0001264
1090	0.0001896
1102	0.0003318
1114	0.0007268
1126	0.0008216
1138	0.0006478
1150	0.0002212
1162	0.0001264
1174	9.48e-05
1186	0.0002054
1198	0.000316
1210	0.0004266
1222	0.0003002
1234	0.0001738
1246	0.0001264
1258	6.32e-05
1270	4.74e-05
1282	6.32e-05
1294	7.9e-05
1306	6.32e-05
1318	7.9e-05
1330	6.32e-05
1342	6.32e-05
1354	7.9e-05
1366	4.74e-05
1378	6.32e-05
1390	4.74e-05
1402	7.9e-05
1414	7.9e-05
1426	4.74e-05
1438	6.32e-05
1450	6.32e-05
1462	7.9e-05
1474	9.48e-05
1486	9.48e-05
1498	4.74e-05
1510	0.0001106
1522	0.0001264
1534	0.0001738
1546	0.0001422
1558	6.32e-05
1570	1.58e-05
1582	3.16e-05
1594	7.9e-05
1606	0.0001264
1618	0.0002054
1630	0.0003318
1642	0.0003476
1654	0.0003002
1666	0.0002054
1678	0.0001106
1690	0.0001264
1702	0.0001106
1714	0.0001422
1726	0.000158
1738	0.0001738
1750	0.0002844
1762	0.0002528
1774	0.0001264
1786	0.0001106
1798	9.48e-05
1810	9.48e-05
1822	7.9e-05
1834	9.48e-05
1846	0.0001106
1858	0.0001422
1870	0.0001264
1882	0.0001106
1894	0.0001106
1906	9.48e-05
1918	7.9e-05
1930	0.0001106
1942	0.0001264
1954	9.48e-05
1966	7.9e-05
1978	0.0001264
1990	0.0001422
2002	7.9e-05
2014	0.0001106
2026	9.48e-05
2038	0.0001106
2050	0.0001106
2062	7.9e-05
2074	0.0001106
2086	7.9e-05
2098	7.9e-05
2110	7.9e-05
2122	9.48e-05
2134	7.9e-05
2146	0.0001106
2158	9.48e-05
2170	7.9e-05
2182	6.32e-05
2194	0.0001264
2206	6.32e-05
2218	9.48e-05
2230	6.32e-05
2242	6.32e-05
2254	7.9e-05
2266	0.0001264
2278	6.32e-05
2290	9.48e-05
2302	6.32e-05
2314	0.0001264
2326	0.0001106
2338	0.0001264
2350	0.0001106
2362	0.0001264
2374	0.0001422
2386	7.9e-05
2398	0.0001106
2410	0.0001106
2422	0.0001106
2434	0.0001106
2446	0.0001106
2458	0.0001264
2470	9.48e-05
2482	7.9e-05
2494	0.0001422
2506	0.0001106
2518	3.16e-05
2530	7.9e-05
2542	7.9e-05
2554	7.9e-05
2566	7.9e-05
2578	7.9e-05
2590	9.48e-05
2602	7.9e-05
2614	7.9e-05
2626	6.32e-05
2638	0
2650	9.48e-05
2662	9.48e-05
2674	4.74e-05
2686	7.9e-05
2698	4.74e-05
2710	3.16e-05
2722	3.16e-05
2734	4.74e-05
2746	4.74e-05
2758	7.9e-05
2770	6.32e-05
2782	3.16e-05
2794	1.58e-05
2806	3.16e-05
2818	4.74e-05
2830	6.32e-05
2842	3.16e-05
2854	6.32e-05
2866	6.32e-05
2878	4.74e-05
2890	4.74e-05
2902	4.74e-05
2914	6.32e-05
2926	3.16e-05
2938	0
2950	0
2962	3.16e-05
2974	1.58e-05
2986	4.74e-05
2998	3.16e-05
3010	4.74e-05
3022	6.32e-05
3034	9.48e-05
3046	9.48e-05
3058	4.74e-05
3070	9.48e-05
3082	4.74e-05
3094	4.74e-05
3106	4.74e-05
3118	0.0001264
3130	6.32e-05
3142	3.16e-05
3154	7.9e-05
3166	6.32e-05
3178	6.32e-05
3190	9.48e-05
3202	0.0001264
3214	7.9e-05
3226	0.0001106
3238	7.9e-05
3250	7.9e-05
3262	9.48e-05
3274	9.48e-05
3286	0.0001106
3298	0.0001264
3310	0.0001738
3322	0.000158
3334	9.48e-05
3346	0.0001106
3358	0.0001106
3370	0.0001422
3382	0.000158
3394	6.32e-05
3406	9.48e-05
3418	0.0002212
3430	0.0001738
3442	0.000158
3454	0.0002212
3466	0.0001896
3478	0.0001738
3490	0.0001896
3502	0.0001264
3514	0.000237
3526	0.000158
3538	0.0001264
3550	0.000237
3562	0.0002054
3574	0.0002054
3586	0.0002528
3598	0.0002528
3610	0.0002054
3622	0.0002054
3634	0.000237
3646	0.0002844
3658	0.0002054
3670	0.0002528
3682	0.0002212
3694	0.0002212
3706	0.0003002
3718	0.0002686
3730	0.0003002
3742	0.0002054
3754	0.0002528
3766	0.000316
3778	0.0003002
3790	0.0003002
3802	0.0003002
3814	0.0001738
3826	0.0003634
3838	0.0002212
