Infrared Spectrum: Cholecalciferol
Formula: C 27 H 44 O
CAS: 67-97-0
State: solid
Instrument: Bruker Tensor 37 FTIR
Resolution: 0.96450084
Origin: Pacific Northwest National Laboratory Under IARPA Contract
1/cm	Reflectance
7498.99	0.75092
7481.63	0.75782
7464.27	0.751406
7446.91	0.740315
7429.55	0.701914
7412.19	0.67787
7394.84	0.662184
7377.48	0.639893
7360.12	0.619169
7342.76	0.615833
7325.4	0.626893
7308.04	0.62432
7290.68	0.631554
7273.32	0.642292
7255.96	0.648613
7238.6	0.64479
7221.24	0.652565
7203.88	0.659255
7186.52	0.664249
7169.16	0.664684
7151.8	0.658965
7134.44	0.657265
7117.08	0.648473
7099.72	0.638552
7082.36	0.631657
7065	0.621024
7047.64	0.622458
7030.28	0.619179
7012.92	0.616627
6995.56	0.613142
6978.2	0.611904
6960.84	0.60844
6943.48	0.60382
6926.12	0.60126
6908.76	0.596963
6891.4	0.595839
6874.04	0.591625
6856.68	0.589968
6839.32	0.584626
6821.96	0.54379
6804.6	0.47941
6787.24	0.590359
6769.88	0.608075
6752.52	0.586875
6735.16	0.52979
6717.8	0.47299
6700.44	0.380944
6683.08	0.350175
6665.72	0.340643
6648.36	0.348366
6631	0.38672
6613.64	0.37885
6596.28	0.392765
6578.92	0.420949
6561.56	0.43111
6544.2	0.455166
6526.85	0.465705
6509.49	0.471169
6492.13	0.467348
6474.77	0.469941
6457.41	0.489061
6440.05	0.504604
6422.69	0.513084
6405.33	0.51762
6387.97	0.52363
6370.61	0.524707
6353.25	0.528284
6335.89	0.52961
6318.53	0.533285
6301.17	0.532507
6283.81	0.536109
6266.45	0.537975
6249.09	0.53558
6231.73	0.537075
6214.37	0.539627
6197.01	0.538085
6179.65	0.50331
6162.29	0.48081
6144.93	0.45201
6127.57	0.44423
6110.21	0.38685
6092.85	0.43308
6075.49	0.45678
6058.13	0.44621
6040.77	0.4237
6023.41	0.4236
6006.05	0.42191
5988.69	0.33764
5971.33	0.30218
5953.97	0.230292
5936.61	0.193582
5919.25	0.165094
5901.89	0.172104
5884.53	0.177637
5867.17	0.171921
5849.81	0.191926
5832.45	0.198904
5815.09	0.206032
5797.73	0.200915
5780.37	0.202312
5763.01	0.220796
5745.65	0.233215
5728.29	0.251978
5710.93	0.258162
5693.57	0.2526
5676.21	0.268332
5658.86	0.258943
5641.5	0.277376
5624.14	0.292255
5606.78	0.297395
5589.42	0.318978
5572.06	0.32473
5554.7	0.320661
5537.34	0.26709
5519.98	0.20085
5502.62	0.14296
5485.26	0.09839
5467.9	0.06675
5450.54	0.04723
5433.18	0.03695
5415.82	0.03298
5398.46	0.03243
5381.1	0.03406
5363.74	0.0368
5346.38	0.04386
5329.02	0.05477
5311.66	0.06737
5294.3	0.06323
5276.94	0.06699
5259.58	0.06573
5242.22	0.03355
5224.86	0.0283
5207.5	0.03082
5190.14	0.0315
5172.78	0.03262
5155.42	0.06009
5138.06	0.07885
5120.7	0.08452
5103.34	0.08658
5085.98	0.08298
5068.62	0.0902
5051.26	0.11784
5033.9	0.14355
5016.54	0.12989
4999.18	0.14929
4981.82	0.19104
4964.46	0.19667
4947.1	0.2038
4929.74	0.21161
4912.38	0.21763
4895.02	0.23999
4877.66	0.24067
4860.3	0.26789
4842.94	0.25417
4825.58	0.26088
4808.22	0.28707
4790.86	0.2927
4773.51	0.28889
4756.15	0.30862
4738.79	0.30299
4721.43	0.29148
4704.07	0.28764
4686.71	0.2733
4669.35	0.26045
4651.99	0.13765
4634.63	0.16699
4617.27	0.14429
4599.91	0.14531
4582.55	0.13147
4565.19	0.06058
4547.83	0.10819
4530.47	0.16974
4513.11	0.14133
4495.75	0.08471
4478.39	0.02972
4461.03	0.04208
4443.67	0.04759
4426.31	0.03963
4408.95	0.04257
4391.59	0.05452
4374.23	0.0453
4356.87	0.04983
4339.51	0.06053
4322.15	0.07445
4304.79	0.07254
4287.43	0.04075
4270.07	0.05706
4252.71	0.06768
4235.35	0.04943
4217.99	0.06572
4200.63	0.03673
4183.27	0.05065
4165.91	0.05184
4148.55	0.10454
4131.19	0.07319
4113.83	0.04521
4096.47	0.04865
4079.11	0.04859
4061.75	0.0848
4044.39	0.754165
4027.03	0.757656
4009.67	0.749949
3992.31	0.724908
3974.95	0.698966
3957.59	0.680161
3940.23	0.660195
3922.87	0.632985
3905.52	0.622598
3888.16	0.626468
3870.8	0.628755
3853.44	0.633303
3836.08	0.639552
3818.72	0.650063
3801.36	0.654884
3784	0.650541
3766.64	0.658243
3749.28	0.664448
3731.92	0.668203
3714.56	0.665916
3697.2	0.66333
3679.84	0.659457
3662.48	0.647097
3645.12	0.640334
3627.76	0.636188
3610.4	0.628833
3593.04	0.627079
3575.68	0.626327
3558.32	0.623016
3540.96	0.619273
3523.6	0.617295
3506.24	0.615818
3488.88	0.610566
3471.52	0.606747
3454.16	0.605197
3436.8	0.601444
3419.44	0.597138
3402.08	0.59553
3384.72	0.588574
3367.36	0.5148
3350	0.538881
3332.64	0.604821
3315.28	0.609149
3297.92	0.584691
3280.56	0.524301
3263.2	0.454891
3245.84	0.369645
3228.48	0.355816
3211.12	0.351001
3193.76	0.371634
3176.4	0.396603
3159.04	0.376357
3141.68	0.419666
3124.32	0.435322
3106.96	0.447342
3089.6	0.458829
3072.24	0.483322
3054.88	0.477807
3037.53	0.477299
3020.17	0.484335
3002.81	0.504886
2985.45	0.514593
2968.09	0.526103
2950.73	0.530025
2933.37	0.530904
2916.01	0.534974
2898.65	0.536676
2881.29	0.538681
2863.93	0.540925
2846.57	0.542768
2829.21	0.543177
2811.85	0.545385
2794.49	0.543929
2777.13	0.545973
2759.77	0.548643
2742.41	0.539211
2725.05	0.502223
2707.69	0.479593
2690.33	0.456659
2672.97	0.448566
2655.61	0.399972
2638.25	0.449284
2620.89	0.467495
2603.53	0.440703
2586.17	0.438982
2568.81	0.422234
2551.45	0.419647
2534.09	0.348819
2516.73	0.303531
2499.37	0.210003
2482.01	0.182507
2464.65	0.167308
2447.29	0.180708
2429.93	0.184435
2412.57	0.183386
2395.21	0.204565
2377.85	0.203127
2360.49	0.216766
2343.13	0.20685
2325.77	0.203709
2308.41	0.237235
2291.05	0.247695
2273.69	0.259868
2256.33	0.264599
2238.97	0.265611
2221.61	0.27074
2204.25	0.275847
2186.89	0.291569
2169.53	0.308041
2152.18	0.305442
2134.82	0.323751
2117.46	0.333035
2100.1	0.31033
2082.74	0.25212
2065.38	0.184275
2048.02	0.130866
2030.66	0.0889195
2013.3	0.059826
1995.94	0.0430419
1978.58	0.0350136
1961.22	0.0319477
1943.86	0.0316991
1926.5	0.0343783
1909.14	0.0386226
1891.78	0.0469272
1874.42	0.0587488
1857.06	0.0727247
1839.7	0.0569442
1822.34	0.0679832
1804.98	0.0622105
1787.62	0.0302628
1770.26	0.0276113
1752.9	0.0305759
1735.54	0.0299222
1718.18	0.0346085
1700.82	0.0691433
1683.46	0.0858997
1666.1	0.0838466
1648.74	0.0872439
1631.38	0.089785
1614.02	0.102739
1596.66	0.124568
1579.3	0.14846
1561.94	0.138581
1544.58	0.158735
1527.22	0.198794
1509.86	0.199438
1492.5	0.209989
1475.14	0.219601
1457.78	0.218828
1440.42	0.239304
1423.06	0.244515
1405.7	0.269208
1388.34	0.245951
1370.98	0.277236
1353.62	0.289076
1336.26	0.307701
1318.9	0.284049
1301.54	0.301919
1284.19	0.303347
1266.83	0.275625
1249.47	0.291249
1232.11	0.269622
1214.75	0.240731
1197.39	0.140993
1180.03	0.1625
1162.67	0.125517
1145.31	0.152566
1127.95	0.0791695
1110.59	0.0880541
1093.23	0.15125
1075.87	0.161184
1058.51	0.126041
1041.15	0.0573033
1023.79	0.030981
1006.43	0.0539336
989.068	0.0322607
971.709	0.0441652
954.349	0.0559683
936.989	0.0412558
919.629	0.0518529
902.269	0.0642268
884.91	0.041578
867.55	0.0881093
850.19	0.0828614
832.83	0.0304746
815.47	0.0671546
798.111	0.045003
780.751	0.05119
763.391	0.0710399
746.031	0.0310546
728.671	0.051503
711.312	0.0816277
693.952	0.083644
676.592	0.0618699
659.232	0.0357869
641.872	0.0480044
624.513	0.0606177
607.153	0.0806426
