Infrared Spectrum: Tetracyanoethylene
Formula: C 6 N 4
CAS: 670-54-2
State: gas
Instrument: HP-GC/MS/IRD
Origin: NIST Mass Spectrometry Data Center
1/CM	ABSORBANCE
550	0.000428
562	0.000383
574	0.00035
586	0.000202
598	0.000107
610	0.000137
622	0.0001925
634	0.0001565
646	0.000227
658	0.000205
670	0.0002615
682	0.00027
694	0.0001825
706	0.0001395
718	8.75e-05
730	0.0001055
742	0.000136
754	0.000164
766	0.000178
778	0.0004405
790	0.000575
802	0.0003425
814	0.0003
826	0.0002685
838	0.0001615
850	9.8e-05
862	5e-05
874	5.4e-05
886	0.0001245
898	0.0003505
910	0.000361
922	0.000227
934	0.000224
946	0.000618
958	0.000831
970	0.0003835
982	9.05e-05
994	9.55e-05
1006	0.000126
1018	0.00012
1030	0.0001315
1042	0.00013
1054	0.0001465
1066	0.0002935
1078	0.0003275
1090	0.000276
1102	0.0005275
1114	0.0006035
1126	0.0004805
1138	0.0013015
1150	0.002191
1162	0.001324
1174	0.0004
1186	0.0002475
1198	0.000244
1210	0.000262
1222	0.0002695
1234	0.0002465
1246	0.0001855
1258	0.000134
1270	0.0001745
1282	0.000107
1294	0.0001025
1306	8.65e-05
1318	7.7e-05
1330	9.35e-05
1342	0.0001125
1354	0.0001095
1366	9.85e-05
1378	9.55e-05
1390	7.7e-05
1402	9.65e-05
1414	8e-05
1426	7.7e-05
1438	4.4e-05
1450	4.6e-05
1462	4.8e-05
1474	3.25e-05
1486	1.45e-05
1498	2.25e-05
1510	3.75e-05
1522	4.35e-05
1534	3.85e-05
1546	4.05e-05
1558	5.4e-05
1570	4.3e-05
1582	5.9e-05
1594	6.6e-05
1606	7.85e-05
1618	7.7e-05
1630	9.05e-05
1642	9.1e-05
1654	0.000102
1666	0.0001005
1678	0.0001185
1690	0.0001145
1702	0.0001395
1714	0.000108
1726	9.25e-05
1738	9.4e-05
1750	9.15e-05
1762	9.6e-05
1774	9.85e-05
1786	9.85e-05
1798	9.1e-05
1810	7.55e-05
1822	8.85e-05
1834	8.85e-05
1846	9.1e-05
1858	7.25e-05
1870	8.55e-05
1882	6.85e-05
1894	8.9e-05
1906	7.5e-05
1918	7.15e-05
1930	6.7e-05
1942	7.25e-05
1954	7.8e-05
1966	7.45e-05
1978	8.1e-05
1990	7.9e-05
2002	7.75e-05
2014	7.7e-05
2026	6.7e-05
2038	5.1e-05
2050	5.5e-05
2062	7e-05
2074	9.9e-05
2086	9.75e-05
2098	5.65e-05
2110	7.8e-05
2122	0.000113
2134	9.85e-05
2146	0.000112
2158	0.0001225
2170	0.000202
2182	0.0003995
2194	0.001014
2206	0.0025275
2218	0.00307
2230	0.003374
2242	0.0049975
2254	0.0034875
2266	0.0008025
2278	0.000186
2290	0.000118
2302	0.000136
2314	0.0001065
2326	0.0001115
2338	0.000105
2350	0.0001725
2362	0.00017
2374	0.000102
2386	6.2e-05
2398	6.8e-05
2410	6.6e-05
2422	6.65e-05
2434	5e-05
2446	5.2e-05
2458	7.75e-05
2470	7.05e-05
2482	7.85e-05
2494	6.95e-05
2506	4.7e-05
2518	4.1e-05
2530	1.35e-05
2542	3.35e-05
2554	2.35e-05
2566	4.25e-05
2578	2.65e-05
2590	6.1e-05
2602	6.2e-05
2614	2.55e-05
2626	3.4e-05
2638	4.15e-05
2650	6.95e-05
2662	6.6e-05
2674	4.35e-05
2686	2.75e-05
2698	3.3e-05
2710	4.15e-05
2722	1.4e-05
2734	2.75e-05
2746	3.05e-05
2758	4.3e-05
2770	5.1e-05
2782	3.7e-05
2794	5.5e-05
2806	2.15e-05
2818	0
2830	2.65e-05
2842	3.55e-05
2854	1.7e-05
2866	2.6e-05
2878	2.15e-05
2890	6.5e-06
2902	1.95e-05
2914	2.7e-05
2926	6.05e-05
2938	4.5e-05
2950	4.6e-05
2962	1.15e-05
2974	1.75e-05
2986	6.15e-05
2998	3.65e-05
3010	4.25e-05
3022	8.25e-05
3034	6.8e-05
3046	9.55e-05
3058	6.65e-05
3070	9.7e-05
3082	6.8e-05
3094	6.2e-05
3106	6.35e-05
3118	5.7e-05
3130	8.95e-05
3142	6.6e-05
3154	2.45e-05
3166	5.3e-05
3178	6.95e-05
3190	5.2e-05
3202	4.55e-05
3214	7.05e-05
3226	5.75e-05
3238	6.3e-05
3250	6.4e-05
3262	9.3e-05
3274	6.45e-05
3286	9.45e-05
3298	8.65e-05
3310	9.1e-05
3322	0.0001085
3334	0.0001045
3346	7.75e-05
3358	9.7e-05
3370	0.0001025
3382	0.0001065
3394	9.1e-05
3406	0.0001125
3418	9.35e-05
3430	0.0001205
3442	0.000132
3454	0.000117
3466	0.00013
3478	0.0001395
3490	0.000144
3502	0.000153
3514	0.0001515
3526	0.0001425
3538	0.0001865
3550	0.000116
3562	0.0001745
3574	0.000139
3586	0.0001475
3598	0.000155
3610	0.0001425
3622	0.0001375
3634	0.0001205
3646	0.0001325
3658	0.0001405
3670	0.000153
3682	0.000129
3694	0.0001475
3706	0.000124
3718	0.000127
3730	0.000113
3742	0.0001365
3754	0.0001605
3766	0.0001375
3778	0.0001195
3790	0.00015
3802	0.000117
3814	0.0001695
3826	0.000183
3838	0.000142
