Infrared Spectrum: 2-p-METHOXYPHENYL-3-PHENYLACRYLIC ACID, 3-TROPANYL ESTER, HYDROCHLORIDE
Formula: C24 H28 Cl N O3
CAS: 6701-70-8
State: SOLID (OIL MULL)
Class: COBLENTZ III
Instrument: Not specified, most likely a prism spectrometer.
Instrument parameters: NaCl PRISM
Sampling: TRANSMISSION
Resolution: 2
Origin: SMITH KLINE & FRENCH LABS.
MICROMETERS	TRANSMITTANCE
2.019	0.574
2.05316	0.581
2.08732	0.59
2.12148	0.598
2.15564	0.607
2.1898	0.613
2.22396	0.616
2.25812	0.63
2.29228	0.632
2.32644	0.632
2.3606	0.633
2.39477	0.638
2.42893	0.643
2.46309	0.652
2.49725	0.655
2.53141	0.66
2.56557	0.672
2.59973	0.672
2.63389	0.672
2.66805	0.681
2.70221	0.696
2.73637	0.69
2.77053	0.69
2.80469	0.69
2.83885	0.689
2.87301	0.672
2.90717	0.667
2.94133	0.665
2.97549	0.656
3.00965	0.654
3.04381	0.66
3.07797	0.669
3.11213	0.675
3.1463	0.681
3.18046	0.687
3.21462	0.692
3.24878	0.693
3.28294	0.689
3.3171	0.666
3.35126	0.642
3.38542	0.562
3.41958	0.329
3.45374	0.082
3.4879	0.064
3.52206	0.221
3.55622	0.233
3.59038	0.437
3.62454	0.653
3.6587	0.689
3.69286	0.689
3.72702	0.676
3.76118	0.654
3.79534	0.638
3.8295	0.636
3.86367	0.682
3.89783	0.659
3.93199	0.632
3.96615	0.619
4.00031	0.579
4.03447	0.56
4.06863	0.522
4.10279	0.49
4.13695	0.436
4.17111	0.449
4.20527	0.489
4.23943	0.562
4.27359	0.583
4.30775	0.62
4.34191	0.676
4.37607	0.705
4.41023	0.722
4.44439	0.743
4.47855	0.751
4.51271	0.758
4.54687	0.764
4.58103	0.769
4.6152	0.774
4.64936	0.778
4.68352	0.781
4.71768	0.785
4.75184	0.787
4.786	0.79
4.82016	0.79
4.85432	0.791
4.88848	0.791
4.92264	0.79
4.9568	0.786
4.99096	0.793
5.02512	0.792
5.05928	0.791
5.09344	0.789
5.1276	0.787
5.16176	0.787
5.19592	0.787
5.23008	0.787
5.26424	0.787
5.2984	0.785
5.33256	0.786
5.36673	0.791
5.40089	0.79
5.43505	0.792
5.46921	0.791
5.50337	0.789
5.53753	0.789
5.57169	0.792
5.60585	0.793
5.64001	0.792
5.67417	0.792
5.70833	0.792
5.74249	0.789
5.77665	0.783
5.81081	0.768
5.84497	0.68
5.87913	0.361
5.91329	0.489
5.94745	0.712
5.98161	0.743
6.01577	0.745
6.04993	0.75
6.0841	0.76
6.11826	0.744
6.15242	0.647
6.18658	0.539
6.22074	0.641
6.2549	0.618
6.28906	0.693
6.32322	0.743
6.35738	0.721
6.39154	0.706
6.4257	0.751
6.45986	0.76
6.49402	0.772
6.52818	0.787
6.56234	0.783
6.5965	0.692
6.63066	0.475
6.66482	0.585
6.69898	0.635
6.73314	0.614
6.7673	0.655
6.80146	0.615
6.83563	0.52
6.86979	0.442
6.90395	0.419
6.93811	0.456
6.97227	0.566
7.00643	0.632
7.04059	0.683
7.07475	0.713
7.10891	0.707
7.14307	0.673
7.17723	0.654
7.21139	0.667
7.24555	0.626
7.27971	0.578
7.31387	0.568
7.34803	0.641
7.38219	0.703
7.41635	0.712
7.45051	0.711
7.48467	0.738
7.51883	0.735
7.553	0.745
7.58716	0.743
7.62132	0.715
7.65548	0.74
7.68964	0.74
7.7238	0.74
7.75796	0.684
7.79212	0.631
7.82628	0.569
7.86044	0.661
7.8946	0.675
7.92876	0.663
7.96292	0.637
7.99708	0.493
8.03124	0.336
8.0654	0.241
8.09956	0.2
8.13372	0.243
8.16788	0.409
8.20204	0.449
8.2362	0.534
8.27036	0.412
8.30453	0.443
8.33869	0.629
8.37285	0.711
8.40701	0.734
8.44117	0.711
8.47533	0.66
8.50949	0.528
8.54365	0.562
8.57781	0.513
8.61197	0.318
8.64613	0.489
8.68029	0.546
8.71445	0.65
8.74861	0.693
8.78277	0.729
8.81693	0.75
8.85109	0.717
8.88525	0.755
8.91941	0.778
8.95357	0.786
8.98773	0.783
9.02189	0.722
9.05606	0.717
9.09022	0.755
9.12438	0.776
9.15854	0.79
9.1927	0.784
9.22686	0.741
9.26102	0.65
9.29518	0.573
9.32934	0.629
9.3635	0.699
9.39766	0.669
9.43182	0.699
9.46598	0.756
9.50014	0.772
9.5343	0.779
9.56846	0.78
9.60262	0.762
9.63678	0.729
9.67094	0.608
9.7051	0.384
9.73926	0.3
9.77343	0.38
9.80759	0.58
9.84175	0.665
9.87591	0.656
9.91007	0.751
9.94423	0.787
9.97839	0.785
10.0125	0.766
10.0467	0.798
10.0809	0.818
10.115	0.827
10.1492	0.827
10.1834	0.827
10.2175	0.827
10.2517	0.801
10.2858	0.728
10.32	0.736
10.3542	0.785
10.3883	0.806
10.4225	0.81
10.4566	0.8
10.4908	0.76
10.525	0.77
10.5591	0.793
10.5933	0.809
10.6274	0.83
10.6616	0.837
10.6958	0.844
10.7299	0.847
10.7641	0.848
10.7982	0.856
10.8324	0.861
10.8666	0.865
10.9007	0.865
10.9349	0.854
10.969	0.85
11.0032	0.846
11.0374	0.81
11.0715	0.813
11.1057	0.848
11.1398	0.865
11.174	0.872
11.2082	0.877
11.2423	0.877
11.2765	0.877
11.3106	0.881
11.3448	0.88
11.379	0.872
11.4131	0.867
11.4473	0.884
11.4814	0.892
11.5156	0.893
11.5498	0.894
11.5839	0.895
11.6181	0.893
11.6523	0.888
11.6864	0.883
11.7206	0.869
11.7547	0.835
11.7889	0.772
11.8231	0.779
11.8572	0.789
11.8914	0.781
11.9255	0.806
11.9597	0.835
11.9939	0.86
12.028	0.87
12.0622	0.882
12.0963	0.88
12.1305	0.873
12.1647	0.854
12.1988	0.833
12.233	0.832
12.2671	0.832
12.3013	0.825
12.3355	0.798
12.3696	0.789
12.4038	0.802
12.4379	0.821
12.4721	0.83
12.5063	0.826
12.5404	0.858
12.5746	0.865
12.6087	0.869
12.6429	0.869
12.6771	0.85
12.7112	0.847
12.7454	0.852
12.7795	0.86
12.8137	0.86
12.8479	0.856
12.882	0.835
12.9162	0.785
12.9503	0.704
12.9845	0.618
13.0187	0.606
13.0528	0.707
13.087	0.772
13.1212	0.803
13.1553	0.836
13.1895	0.842
13.2236	0.841
13.2578	0.767
13.292	0.721
13.3261	0.779
13.3603	0.808
13.3944	0.816
13.4286	0.819
13.4628	0.833
13.4969	0.847
13.5311	0.85
13.5652	0.85
13.5994	0.841
13.6336	0.826
13.6677	0.818
13.7019	0.827
13.736	0.826
13.7702	0.833
13.8044	0.833
13.8385	0.83
13.8727	0.826
13.9068	0.82
13.941	0.815
13.9752	0.815
14.0093	0.823
14.0435	0.826
14.0776	0.827
14.1118	0.825
14.146	0.823
14.1801	0.819
14.2143	0.814
14.2484	0.809
14.2826	0.802
14.3168	0.79
14.3509	0.778
14.3851	0.75
14.4192	0.704
14.4534	0.636
14.4876	0.543
14.5217	0.538
14.5559	0.608
14.5901	0.692
14.6242	0.729
14.6584	0.745
14.6925	0.744
14.7267	0.744
14.7609	0.744
14.795	0.735
14.8292	0.718
14.8633	0.711
14.8975	0.704
14.9317	0.698
14.9658	0.687
15	0.666
15.0341	0.655
15.0683	0.654
15.1025	0.68
15.1366	0.683
15.1708	0.682
15.2049	0.684
15.2391	0.672
15.2733	0.672
