Infrared Spectrum: 5-Methoxyanthranilic acid
Formula: C 8 H 9 N O 3
CAS: 6705-03-9
State: gas
Origin: EPA-IR VAPOR PHASE LIBRARY
1/CM	ABSORBANCE
549.8	0.008738
559.445	0.010538
569.09	0.011388
578.734	0.012398
588.379	0.012108
598.024	0.009708
607.669	0.007598
617.313	0.007138
626.958	0.005768
636.603	0.006578
646.248	0.008258
655.893	0.012378
665.537	0.011518
675.182	0.006648
684.827	0.004638
694.472	0.005018
704.116	0.007778
713.761	0.011918
723.406	0.007838
733.051	0.004128
742.695	0.003618
752.34	0.003658
761.985	0.004318
771.63	0.005468
781.275	0.007208
790.919	0.007108
800.564	0.006268
810.209	0.008958
819.854	0.011448
829.498	0.007078
839.143	0.004808
848.788	0.003138
858.433	0.003938
868.078	0.004168
877.722	0.003898
887.367	0.003768
897.012	0.003398
906.657	0.003558
916.301	0.003208
925.946	0.002838
935.591	0.002818
945.236	0.002308
954.88	0.002558
964.525	0.002428
974.17	0.002618
983.815	0.002628
993.46	0.003378
1003.1	0.004128
1012.75	0.004558
1022.39	0.007438
1032.04	0.014538
1041.68	0.021038
1051.33	0.020908
1060.97	0.015068
1070.62	0.016408
1080.26	0.018908
1089.91	0.016528
1099.55	0.011098
1109.2	0.006828
1118.84	0.007598
1128.49	0.010438
1138.13	0.016548
1147.78	0.031848
1157.42	0.045538
1167.07	0.044348
1176.71	0.028008
1186.36	0.015158
1196	0.008838
1205.64	0.008178
1215.29	0.010358
1224.93	0.015548
1234.58	0.028128
1244.22	0.032478
1253.87	0.019858
1263.51	0.014338
1273.16	0.013488
1282.8	0.012588
1292.45	0.013818
1302.09	0.014228
1311.74	0.012248
1321.38	0.010818
1331.03	0.010538
1340.67	0.011358
1350.32	0.011528
1359.96	0.010518
1369.61	0.008658
1379.25	0.007428
1388.9	0.005508
1398.54	0.003668
1408.18	0.004368
1417.83	0.007758
1427.47	0.010098
1437.12	0.007928
1446.76	0.006118
1456.41	0.006788
1466.05	0.008628
1475.7	0.010758
1485.34	0.019258
1494.99	0.036228
1504.63	0.032268
1514.28	0.012638
1523.92	0.005808
1533.57	0.004698
1543.21	0.005668
1552.86	0.009188
1562.5	0.014668
1572.15	0.016888
1581.79	0.016478
1591.44	0.019738
1601.08	0.022878
1610.73	0.017128
1620.37	0.010288
1630.01	0.006978
1639.66	0.004728
1649.3	0.003618
1658.95	0.003378
1668.59	0.003688
1678.24	0.004148
1687.88	0.004528
1697.53	0.005478
1707.17	0.010458
1716.82	0.031998
1726.46	0.062848
1736.11	0.045938
1745.75	0.020388
1755.4	0.013178
1765.04	0.006928
1774.69	0.004388
1784.33	0.004028
1793.98	0.003698
1803.62	0.002788
1813.27	0.001848
1822.91	0.0015849
1832.55	0.0014183
1842.2	0.0014166
1851.84	0.0013027
1861.49	0.001242
1871.13	0.0015605
1880.78	0.001591
1890.42	0.0012945
1900.07	0.0012489
1909.71	0.0011959
1919.36	0.0011461
1929	0.0011646
1938.65	0.0012122
1948.29	0.0011899
1957.94	0.0013211
1967.58	0.0013591
1977.23	0.0010922
1986.87	0.0010104
1996.52	0.0009105
2006.16	0.00080506
2015.81	0.0010121
2025.45	0.0011039
2035.1	0.0010545
2044.74	0.0012892
2054.38	0.0012798
2064.03	0.0012364
2073.67	0.0014841
2083.32	0.0013713
2092.96	0.0011329
2102.61	0.001043
2112.25	0.001101
2121.9	0.0010728
2131.54	0.0010705
2141.19	0.0010672
2150.83	0.0010292
2160.48	0.0008994
2170.12	0.0010987
2179.77	0.0009086
2189.41	0.00085348
2199.06	0.00082139
2208.7	0.0009938
2218.35	0.00084722
2227.99	0.0006915
2237.64	0.000574
2247.28	0.00081323
2256.92	0.000549
2266.57	0.0007316
2276.21	0.0007142
2285.86	0.000625
2295.5	0.0009808
2305.15	0.00084031
2314.79	0.0010092
2324.44	0.0006905
2334.08	0.0009282
2343.73	0.0008965
2353.37	0.0007103
2363.02	0.00084826
2372.66	0.0009971
2382.31	0.00082373
2391.95	0.0009754
2401.6	0.0010266
2411.24	0.0011264
2420.89	0.0010104
2430.53	0.0006879
2440.18	0.0007531
2449.82	0.0007539
2459.47	0.0010219
2469.11	0.000671
2478.75	0.00083846
2488.4	0.0006802
2498.04	0.000676
2507.69	0.000617
2517.33	0.000521
2526.98	0.0007645
2536.62	0.00051
2546.27	0.000483
2555.91	0.000652
2565.56	0.000366
2575.2	0.000434
2584.85	0.000566
2594.49	0.00077391
2604.14	0.000674
2613.78	0.0008891
2623.43	0.0007429
2633.07	0.0007143
2642.72	0.000581
2652.36	0.0010205
2662.01	0.00083772
2671.65	0.000517
2681.29	0.00024
2690.94	0.00084065
2700.58	0.000955
2710.23	0.0009666
2719.87	0.0009004
2729.52	0.0007466
2739.16	0.0009699
2748.81	0.0009634
2758.45	0.0009764
2768.1	0.0008949
2777.74	0.0010231
2787.39	0.0009772
2797.03	0.001176
2806.68	0.0013682
2816.32	0.001958
2825.97	0.002258
2835.61	0.003668
2845.26	0.004958
2854.9	0.002848
2864.55	0.002378
2874.19	0.002588
2883.84	0.002278
2893.48	0.002338
2903.12	0.003538
2912.77	0.004198
2922.41	0.004528
2932.06	0.004998
2941.7	0.006268
2951.35	0.006058
2960.99	0.004738
2970.64	0.002948
2980.28	0.003058
2989.93	0.003628
2999.57	0.005658
3009.22	0.005818
3018.86	0.003758
3028.51	0.003198
3038.15	0.003858
3047.8	0.003038
3057.44	0.002008
3067.09	0.002548
3076.73	0.002558
3086.38	0.001968
3096.02	0.0016833
3105.67	0.0013755
3115.31	0.00082476
3124.95	0.000648
3134.6	0.0014679
3144.24	0.000581
3153.89	0.0007614
3163.53	0.001062
3173.18	0.0006792
3182.82	0.0009306
3192.47	0.0007183
3202.11	0.000617
3211.76	0.0010132
3221.4	0.00083137
3231.05	0.000431
3240.69	0.000442
3250.34	0.0007491
3259.98	0.0006953
3269.63	0.0011087
3279.27	0.0011403
3288.92	0.00087687
3298.56	0.000499
3308.21	0.00084114
3317.85	0.0009095
3327.49	0.0012186
3337.14	0.0012661
3346.78	0.000434
3356.43	0.0009893
3366.07	0.0017356
3375.72	0.003658
3385.36	0.008168
3395.01	0.009698
3404.65	0.004898
3414.3	0.002508
3423.94	0.002148
3433.59	0.002318
3443.23	0.001898
3452.88	0.0017041
3462.52	0.001144
3472.17	0.002038
3481.81	0.002248
3491.46	0.003378
3501.1	0.004998
3510.75	0.006578
3520.39	0.005818
3530.04	0.003738
3539.68	0.001898
3549.32	0.0012189
3558.97	0.002008
3568.61	0.006438
3578.26	0.018848
3587.9	0.019008
3597.55	0.005758
3607.19	0.0017412
3616.84	0.0010309
3626.48	0.0014587
3636.13	0.0009132
3645.77	0.000481
3655.42	0.00079151
3665.06	0.0006876
3674.71	0.00086603
3684.35	0.00083242
3694	0.0008915
3703.64	0.000428
3713.29	0.000566
3722.93	0.000577
3732.58	0.000612
3742.22	0.00087151
3751.86	0.00019
3761.51	0.000541
3771.15	0.00077508
3780.8	0.000427
3790.44	0.0009076
3800.09	0.000515
3809.73	0.000517
3819.38	0.0008994
3829.02	0.00081245
3838.67	0.000556
3848.31	0.001004
3857.96	0.00081056
3867.6	0.0012729
3877.25	0.0007027
3886.89	0.001335
3896.54	0.000581
3906.18	0.0010226
3915.83	0.0009532
3925.47	0.00083396
3935.12	0.00086115
3944.76	0.0006882
3954.41	0.000433
3964.05	0.0009658
3973.69	0.0009284
3983.34	0.0007276
3992.98	0.001089
