Infrared Spectrum: Pyrazineethanol
Formula: C6 H8 N2 O
CAS: 6705-31-3
State: LIQUID (NEAT)
Class: COBLENTZ III
Instrument: BAIRD (GRATING)
Instrument parameters: NaCl PRISM
Path length: 0.003 CM
Resolution: 2
Origin: WYANDOTTE CHEMICALS CORP.
1/CM	TRANSMITTANCE
625	0.5452
634	0.5037
643	0.4657
652	0.4338
661	0.4166
670	0.4279
679	0.4345
688	0.4461
697	0.4603
706	0.4743
715	0.492
724	0.5133
733	0.5334
742	0.5253
751	0.4774
760	0.3976
769	0.5085
778	0.5839
787	0.6088
796	0.5821
805	0.53
814	0.3808
823	0.167
832	0.0884
841	0.2679
850	0.4278
859	0.3694
868	0.4659
877	0.5914
886	0.7328
895	0.7579
904	0.7584
913	0.7435
922	0.6991
931	0.6248
940	0.5803
949	0.5696
958	0.5484
967	0.5947
976	0.6006
985	0.5928
994	0.5263
1003	0.3114
1012	0.0351
1021	0.0167
1030	0.0106
1039	0.0091
1048	0.0082
1057	0.0055
1066	0.0121
1075	0.0421
1084	0.2385
1093	0.4335
1102	0.5043
1111	0.5054
1120	0.4435
1129	0.227
1138	0.054
1147	0.1022
1156	0.1625
1165	0.225
1174	0.2235
1183	0.2541
1192	0.277
1201	0.3379
1210	0.4295
1219	0.429
1228	0.3188
1237	0.2362
1246	0.3436
1255	0.4502
1264	0.4991
1273	0.4399
1282	0.3959
1291	0.3773
1300	0.2687
1309	0.2352
1318	0.2659
1327	0.2806
1336	0.2608
1345	0.2574
1354	0.2639
1363	0.2547
1372	0.192
1381	0.1768
1390	0.1346
1399	0.0302
1408	0.013
1417	0.0256
1426	0.0564
1435	0.0669
1444	0.11
1453	0.2108
1462	0.2981
1471	0.2711
1480	0.1284
1489	0.1012
1498	0.4049
1507	0.6247
1516	0.6184
1525	0.5023
1534	0.2513
1543	0.443
1552	0.7324
1561	0.7533
1570	0.7675
1579	0.7566
1588	0.6407
1597	0.5343
1606	0.721
1615	0.7993
1624	0.8098
1633	0.813
1642	0.816
1651	0.8112
1660	0.8051
1669	0.8076
1678	0.814
1687	0.8206
1696	0.8189
1705	0.7926
1714	0.7803
1723	0.7137
1732	0.7251
1741	0.8277
1750	0.844
1759	0.8438
1768	0.842
1777	0.8435
1786	0.848
1795	0.8561
1804	0.8675
1813	0.8802
1822	0.8934
1831	0.8919
1840	0.8902
1849	0.8895
1858	0.8911
1867	0.8868
1876	0.8775
1885	0.8671
1894	0.8573
1903	0.8428
1912	0.8236
1921	0.8249
1930	0.8403
1939	0.8685
1948	0.8883
1957	0.9031
1966	0.9103
1975	0.9172
1984	0.921
1993	0.9184
2002	0.9168
2011	0.9122
2020	0.9113
2029	0.9078
2038	0.902
2047	0.8946
2056	0.8903
2065	0.8904
2074	0.8918
2083	0.8953
2092	0.9017
2101	0.9126
2110	0.921
2119	0.9222
2128	0.9222
2137	0.9216
2146	0.9195
2155	0.9169
2164	0.9148
2173	0.9146
2182	0.9142
2191	0.9134
2200	0.9123
2209	0.9111
2218	0.9095
2227	0.9078
2236	0.9067
2245	0.9096
2254	0.9095
2263	0.9035
2272	0.8993
2281	0.8968
2290	0.8914
2299	0.8798
2308	0.8715
2317	0.8692
2326	0.8684
2335	0.868
2344	0.8672
2353	0.8654
2362	0.8612
2371	0.8553
2380	0.8494
2389	0.8411
2398	0.8331
2407	0.826
2416	0.82
2425	0.8158
2434	0.813
2443	0.8119
2452	0.8116
2461	0.8121
2470	0.8125
2479	0.8138
2488	0.8153
2497	0.8155
2506	0.8147
2515	0.8123
2524	0.8086
2533	0.8029
2542	0.7967
2551	0.7893
2560	0.7809
2569	0.7724
2578	0.7649
2587	0.7575
2596	0.7502
2605	0.7402
2614	0.7299
2623	0.7206
2632	0.7112
2641	0.702
2650	0.6939
2659	0.686
2668	0.6772
2677	0.6712
2686	0.6646
2695	0.6482
2704	0.6258
2713	0.5955
2722	0.5801
2731	0.5772
2740	0.5733
2749	0.5573
2758	0.5363
2767	0.5174
2776	0.5036
2785	0.4835
2794	0.4452
2803	0.4067
2812	0.3768
2821	0.3449
2830	0.2907
2839	0.2414
2848	0.2069
2857	0.1746
2866	0.102
2875	0.0903
2884	0.0938
2893	0.1086
2902	0.1138
2911	0.1124
2920	0.1038
2929	0.0916
2938	0.0857
2947	0.0836
2956	0.0844
2965	0.123
2974	0.1799
2983	0.2364
2992	0.2926
3001	0.3303
3010	0.3289
3019	0.3265
3028	0.3184
3037	0.2677
3046	0.2274
3055	0.2312
3064	0.2395
3073	0.2478
3082	0.256
3091	0.2599
3100	0.2429
3109	0.2106
3118	0.1795
3127	0.1623
3136	0.1435
3145	0.1101
3154	0.0955
3163	0.0837
3172	0.0726
3181	0.0623
3190	0.0537
3199	0.0454
3208	0.0386
3217	0.0327
3226	0.0284
3235	0.0242
3244	0.0218
3253	0.0198
3262	0.0181
3271	0.0167
3280	0.0152
3289	0.0137
3298	0.0134
3307	0.0131
3316	0.013
3325	0.013
3334	0.0132
3343	0.0134
3352	0.0135
3361	0.0141
3370	0.0148
3379	0.0158
3388	0.0172
3397	0.0191
3406	0.0217
3415	0.0248
3424	0.0303
3433	0.0386
3442	0.0517
3451	0.0648
3460	0.0858
3469	0.1316
3478	0.1844
3487	0.2149
3496	0.2313
3505	0.2497
3514	0.2755
3523	0.3132
3532	0.351
3541	0.3906
3550	0.4301
3559	0.4693
3568	0.5069
3577	0.5494
3586	0.6101
3595	0.7071
3604	0.7378
3613	0.756
3622	0.7811
3631	0.8107
3640	0.8434
3649	0.8764
3658	0.8881
3667	0.897
3676	0.9041
3685	0.9109
3694	0.9175
3703	0.9238
3712	0.9291
3721	0.9315
3730	0.9319
3739	0.932
3748	0.9319
3757	0.9318
3766	0.9318
3775	0.9319
3784	0.932
3793	0.9327
3802	0.9334
3811	0.9347
3820	0.936
3829	0.9374
3838	0.9379
3847	0.9382
3856	0.9378
3865	0.9374
3874	0.9369
3883	0.9363
3892	0.9351
3901	0.9339
3910	0.9327
3919	0.9316
3928	0.9304
3937	0.9293
3946	0.9281
3955	0.9269
3964	0.9258
3973	0.9247
3982	0.9236
3991	0.9225
4000	0.9215
