Infrared Spectrum: Bicyclo[2.2.2]oct-5-ene-2,3-dicarboxylic anhydride
Formula: C10 H10 O3
CAS: 6708-37-8
State: SOLUTION (10% CHCl3 FOR 4000-550 CM^-^1) VS SOLVENT
Class: COBLENTZ
Instrument: CARY 90 (GRATING)
Instrument parameters: ORDER CHANGES: 3000, 2000, 1200 CM^-^1
Path length: 0.010 CM
Resolution: 2
Origin: WESTERN REGIONAL RES. USDA
1/CM	TRANSMITTANCE
487	0.9883
496	0.9874
505	0.988
514	0.9894
523	0.9901
532	0.9903
541	0.9903
550	0.9901
559	0.9714
568	0.9165
577	0.8376
586	0.3642
595	0.6886
604	0.8732
613	0.7944
622	0.5923
631	0.9128
640	0.9499
649	0.938
658	0.9233
667	0.9136
676	0.904
685	0.8943
694	0.8847
703	0.875
712	0.8654
721	0.8557
730	0.846
739	0.8364
748	0.8267
757	0.8171
766	0.8074
775	0.7978
784	0.7881
793	0.7785
802	0.8169
811	0.854
820	0.8686
829	0.5458
838	0.7613
847	0.4857
856	0.7154
865	0.7892
874	0.8394
883	0.7824
892	0.6347
901	0.051
910	0.0095
919	0.5376
928	0.5577
937	0.0966
946	0.0045
955	0.353
964	0.6949
973	0.7461
982	0.4308
991	0.8102
1000	0.8256
1009	0.849
1018	0.8412
1027	0.8139
1036	0.7581
1045	0.7683
1054	0.6843
1063	0.6419
1072	0.2888
1081	0.0139
1090	0.0525
1099	0.3707
1108	0.5927
1117	0.6707
1126	0.753
1135	0.7614
1144	0.7616
1153	0.7748
1162	0.7409
1171	0.4653
1180	0.7264
1189	0.684
1198	0.5261
1207	0.3666
1216	0.2291
1225	0.0917
1234	0.0265
1243	0.1237
1252	0.2271
1261	0.5953
1270	0.687
1279	0.7175
1288	0.7079
1297	0.4659
1306	0.8181
1315	0.8267
1324	0.6301
1333	0.8276
1342	0.8125
1351	0.7769
1360	0.8519
1369	0.6293
1378	0.8004
1387	0.8256
1396	0.8513
1405	0.8642
1414	0.8534
1423	0.867
1432	0.8811
1441	0.8334
1450	0.82
1459	0.8176
1468	0.842
1477	0.872
1486	0.8606
1495	0.8565
1504	0.8589
1513	0.851
1522	0.8444
1531	0.8539
1540	0.8919
1549	0.9004
1558	0.8949
1567	0.8868
1576	0.8928
1585	0.8878
1594	0.8808
1603	0.854
1612	0.8274
1621	0.8216
1630	0.8079
1639	0.868
1648	0.8669
1657	0.8622
1666	0.8348
1675	0.8025
1684	0.8297
1693	0.8093
1702	0.763
1711	0.7119
1720	0.7359
1729	0.7309
1738	0.6648
1747	0.5074
1756	0.3071
1765	0.1036
1774	0.0016
1783	0.0014
1792	0.0772
1801	0.2792
1810	0.2752
1819	0.2518
1828	0.2787
1837	0.131
1846	0.1765
1855	0.2338
1864	0.2645
1873	0.176
1882	0.4728
1891	0.6489
1900	0.7495
1909	0.8069
1918	0.8347
1927	0.8465
1936	0.862
1945	0.8677
1954	0.8709
1963	0.8786
1972	0.8763
1981	0.8709
1990	0.8643
1999	0.8784
2008	0.8829
2017	0.8888
2026	0.9001
2035	0.909
2044	0.9151
2053	0.918
2062	0.9205
2071	0.9212
2080	0.9161
2089	0.9118
2098	0.915
2107	0.9141
2116	0.9101
2125	0.9
2134	0.8862
2143	0.8784
2152	0.8733
2161	0.8706
2170	0.8701
2179	0.8765
2188	0.8874
2197	0.8977
2206	0.9065
2215	0.913
2224	0.916
2233	0.9154
2242	0.9142
2251	0.9119
2260	0.9096
2269	0.914
2278	0.9134
2287	0.9036
2296	0.8952
2305	0.8883
2314	0.8852
2323	0.8861
2332	0.8936
2341	0.9029
2350	0.9137
2359	0.931
2368	0.9412
2377	0.9047
2386	0.8968
2395	0.8936
2404	0.8829
2413	0.87
2422	0.8661
2431	0.8632
2440	0.8614
2449	0.8663
2458	0.8719
2467	0.8804
2476	0.8887
2485	0.8935
2494	0.8971
2503	0.8995
2512	0.9012
2521	0.9029
2530	0.9041
2539	0.9047
2548	0.9054
2557	0.9049
2566	0.9043
2575	0.9037
2584	0.9035
2593	0.9032
2602	0.9029
2611	0.9034
2620	0.904
2629	0.9046
2638	0.9051
2647	0.9054
2656	0.9059
2665	0.9062
2674	0.9069
2683	0.9079
2692	0.9089
2701	0.9098
2710	0.9104
2719	0.9109
2728	0.9115
2737	0.9113
2746	0.9111
2755	0.9107
2764	0.9103
2773	0.9098
2782	0.9093
2791	0.9086
2800	0.9075
2809	0.9063
2818	0.9046
2827	0.9016
2836	0.8975
2845	0.8914
2854	0.8799
2863	0.8345
2872	0.6714
2881	0.3974
2890	0.7988
2899	0.8247
2908	0.8138
2917	0.5938
2926	0.7022
2935	0.6286
2944	0.4682
2953	0.3367
2962	0.3803
2971	0.2772
2980	0.3001
2989	0.4384
2998	0.684
3007	0.7511
3016	0.7329
3025	0.6686
3034	0.4267
3043	0.2948
3052	0.4217
3061	0.5638
3070	0.57
3079	0.6598
3088	0.7233
3097	0.7801
3106	0.8172
3115	0.8394
3124	0.8539
3133	0.8622
3142	0.8695
3151	0.874
3160	0.8776
3169	0.8812
3178	0.8843
3187	0.8866
3196	0.8891
3205	0.8907
3214	0.8923
3223	0.8939
3232	0.8952
3241	0.8961
3250	0.8972
3259	0.8983
3268	0.8995
3277	0.9006
3286	0.9012
3295	0.9015
3304	0.9019
3313	0.9023
3322	0.9027
3331	0.9026
3340	0.9019
3349	0.9012
3358	0.9006
3367	0.8998
3376	0.899
3385	0.8993
3394	0.9007
3403	0.902
3412	0.9039
3421	0.9054
3430	0.9063
3439	0.9072
3448	0.9074
3457	0.9074
3466	0.9074
3475	0.9074
3484	0.907
3493	0.9064
3502	0.9055
3511	0.9037
3520	0.8978
3529	0.8919
3538	0.8855
3547	0.8774
3556	0.8671
3565	0.8581
3574	0.8512
3583	0.8467
3592	0.839
3601	0.8268
3610	0.815
3619	0.8042
3628	0.7955
3637	0.8458
3646	0.8748
3655	0.8761
3664	0.8765
3673	0.877
3682	0.878
3691	0.8791
3700	0.8803
3709	0.8813
3718	0.8831
3727	0.8876
3736	0.8931
3745	0.8968
3754	0.8999
3763	0.9026
3772	0.905
3781	0.9067
3790	0.908
3799	0.9084
3808	0.9089
3817	0.9089
3826	0.9085
3835	0.908
3844	0.9077
3853	0.9074
3862	0.9075
3871	0.9077
3880	0.9082
3889	0.9089
3898	0.9095
3907	0.91
3916	0.9098
3925	0.9093
3934	0.908
3943	0.9062
3952	0.9042
3961	0.9025
3970	0.9001
3979	0.8971
3988	0.8935
3997	0.9
4006	0.9044
4015	0.9083
4024	0.9128
