Infrared Spectrum: UREA, 1,1'-ETHYLENEBIS[3-METHYL-3-NITROSO-
Formula: C6 H12 N6 O4
CAS: 67084-43-9
State: SOLID (1 mg / 650 mg KBr DISC)
Class: COBLENTZ
Instrument: PERKIN-ELMER 221 (GRATING)
Instrument parameters: FILTER CHANGE AT 2490, 980 CM^-^1, NaCl PRISM FOR 1428-650 CM^-^1
Sampling: TRANSMISSION
Resolution: 4
Origin: SOUTHERN RESEARCH INSTITUTE
1/CM	TRANSMITTANCE
658.333	0.644
667.544	0.675
676.754	0.748
685.965	0.78
695.175	0.788
704.386	0.793
713.596	0.787
722.807	0.692
732.017	0.605
741.228	0.775
750.438	0.786
759.649	0.758
768.859	0.796
778.07	0.772
787.281	0.708
796.491	0.471
805.702	0.408
814.912	0.853
824.123	0.885
833.333	0.865
842.544	0.824
851.754	0.791
860.965	0.761
870.175	0.698
879.386	0.531
888.597	0.723
897.807	0.781
907.018	0.724
916.228	0.676
925.439	0.634
934.649	0.574
943.86	0.494
953.07	0.421
962.281	0.304
971.491	0.292
980.702	0.448
989.912	0.662
999.123	0.755
1008.33	0.749
1017.54	0.648
1026.75	0.506
1035.97	0.416
1045.18	0.356
1054.39	0.391
1063.6	0.685
1072.81	0.783
1082.02	0.811
1091.23	0.809
1100.44	0.754
1109.65	0.702
1118.86	0.643
1128.07	0.584
1137.28	0.508
1146.49	0.427
1155.7	0.324
1164.91	0.25
1174.12	0.28
1183.33	0.406
1192.54	0.561
1201.75	0.7
1210.97	0.719
1220.18	0.658
1229.39	0.542
1238.6	0.467
1247.81	0.497
1257.02	0.512
1266.23	0.607
1275.44	0.703
1284.65	0.735
1293.86	0.725
1303.07	0.647
1312.28	0.538
1321.49	0.676
1330.7	0.666
1339.91	0.609
1349.12	0.724
1358.33	0.746
1367.54	0.741
1376.76	0.692
1385.97	0.634
1395.18	0.563
1404.39	0.534
1413.6	0.525
1422.81	0.47
1432.02	0.412
1441.23	0.357
1450.44	0.282
1459.65	0.295
1468.86	0.344
1478.07	0.311
1487.28	0.269
1496.49	0.345
1505.7	0.517
1514.91	0.489
1524.12	0.38
1533.33	0.282
1542.54	0.28
1551.76	0.297
1560.97	0.358
1570.18	0.46
1579.39	0.522
1588.6	0.564
1597.81	0.619
1607.02	0.676
1616.23	0.681
1625.44	0.679
1634.65	0.669
1643.86	0.644
1653.07	0.617
1662.28	0.544
1671.49	0.5
1680.7	0.478
1689.91	0.396
1699.12	0.329
1708.33	0.259
1717.55	0.288
1726.76	0.333
1735.97	0.349
1745.18	0.366
1754.39	0.423
1763.6	0.504
1772.81	0.554
1782.02	0.597
1791.23	0.642
1800.44	0.679
1809.65	0.7
1818.86	0.725
1828.07	0.744
1837.28	0.769
1846.49	0.778
1855.7	0.799
1864.91	0.82
1874.12	0.833
1883.33	0.847
1892.55	0.851
1901.76	0.857
1910.97	0.863
1920.18	0.871
1929.39	0.879
1938.6	0.888
1947.81	0.896
1957.02	0.899
1966.23	0.907
1975.44	0.908
1984.65	0.91
1993.86	0.912
2003.07	0.913
2012.28	0.915
2021.49	0.917
2030.7	0.917
2039.91	0.919
2049.12	0.92
2058.34	0.921
2067.55	0.922
2076.76	0.921
2085.97	0.92
2095.18	0.92
2104.39	0.921
2113.6	0.922
2122.81	0.923
2132.02	0.924
2141.23	0.924
2150.44	0.925
2159.65	0.923
2168.86	0.923
2178.07	0.923
2187.28	0.922
2196.49	0.922
2205.7	0.923
2214.91	0.923
2224.12	0.923
2233.34	0.922
2242.55	0.92
2251.76	0.916
2260.97	0.911
2270.18	0.909
2279.39	0.909
2288.6	0.909
2297.81	0.908
2307.02	0.906
2316.23	0.904
2325.44	0.904
2334.65	0.904
2343.86	0.904
2353.07	0.904
2362.28	0.904
2371.49	0.905
2380.7	0.905
2389.91	0.904
2399.13	0.903
2408.34	0.901
2417.55	0.901
2426.76	0.901
2435.97	0.901
2445.18	0.901
2454.39	0.9
2463.6	0.897
2472.81	0.894
2482.02	0.892
2491.23	0.894
2500.44	0.894
2509.65	0.894
2518.86	0.893
2528.07	0.891
2537.28	0.888
2546.49	0.885
2555.7	0.885
2564.91	0.885
2574.13	0.888
2583.34	0.889
2592.55	0.887
2601.76	0.885
2610.97	0.882
2620.18	0.881
2629.39	0.88
2638.6	0.879
2647.81	0.877
2657.02	0.875
2666.23	0.873
2675.44	0.873
2684.65	0.871
2693.86	0.87
2703.07	0.871
2712.28	0.872
2721.49	0.873
2730.7	0.871
2739.92	0.869
2749.13	0.866
2758.34	0.863
2767.55	0.863
2776.76	0.862
2785.97	0.861
2795.18	0.857
2804.39	0.852
2813.6	0.845
2822.81	0.834
2832.02	0.828
2841.23	0.819
2850.44	0.815
2859.65	0.804
2868.86	0.804
2878.07	0.803
2887.28	0.803
2896.49	0.8
2905.7	0.796
2914.92	0.778
2924.13	0.749
2933.34	0.739
2942.55	0.725
2951.76	0.698
2960.97	0.685
2970.18	0.717
2979.39	0.767
2988.6	0.768
2997.81	0.766
3007.02	0.771
3016.23	0.784
3025.44	0.789
3034.65	0.787
3043.86	0.784
3053.07	0.78
3062.28	0.779
3071.49	0.78
3080.71	0.79
3089.92	0.793
3099.13	0.795
3108.34	0.793
3117.55	0.79
3126.76	0.785
3135.97	0.778
3145.18	0.77
3154.39	0.766
3163.6	0.76
3172.81	0.754
3182.02	0.744
3191.23	0.737
3200.44	0.728
3209.65	0.719
3218.86	0.708
3228.07	0.696
3237.28	0.69
3246.49	0.672
3255.71	0.661
3264.92	0.646
3274.13	0.628
3283.34	0.602
3292.55	0.587
3301.76	0.549
3310.97	0.506
3320.18	0.485
3329.39	0.454
3338.6	0.414
3347.81	0.388
3357.02	0.349
3366.23	0.348
3375.44	0.395
3384.65	0.485
3393.86	0.528
3403.07	0.579
3412.28	0.609
3421.5	0.644
3430.71	0.666
3439.92	0.667
3449.13	0.677
3458.34	0.715
3467.55	0.749
3476.76	0.773
3485.97	0.78
3495.18	0.786
3504.39	0.802
3513.6	0.806
3522.81	0.809
3532.02	0.809
3541.23	0.81
3550.44	0.816
3559.65	0.821
3568.86	0.821
3578.07	0.822
3587.28	0.828
3596.5	0.831
3605.71	0.834
3614.92	0.837
3624.13	0.838
3633.34	0.839
3642.55	0.84
3651.76	0.838
3660.97	0.839
3670.18	0.839
3679.39	0.838
3688.6	0.838
3697.81	0.838
3707.02	0.837
3716.23	0.837
3725.44	0.836
3734.65	0.834
3743.86	0.833
3753.07	0.834
3762.29	0.834
3771.5	0.835
3780.71	0.835
3789.92	0.834
3799.13	0.832
3808.34	0.832
3817.55	0.831
3826.76	0.831
3835.97	0.83
3845.18	0.83
3854.39	0.83
3863.6	0.83
3872.81	0.83
3882.02	0.83
3891.23	0.83
3900.44	0.83
3909.65	0.83
3918.86	0.829
3928.07	0.829
3937.29	0.829
3946.5	0.829
3955.71	0.829
3964.92	0.828
3974.13	0.828
3983.34	0.828
3992.55	0.828
4001.76	0.827
4010.97	0.827
