Infrared Spectrum: 4-CHLORO-6-AMINOBENZENE-1,3-DISULFONYL CHLORIDE
Formula: C6 H4 Cl3 N O4 S2
CAS: 671-89-6
State: SOLID (NUJOL MULL)
Class: COBLENTZ
Instrument: PERKIN-ELMER
Sampling: TRANSMISSION
Resolution: 4
Origin: ABBOTT LABORATORIES - WASHBURN
MICROMETERS	TRANSMITTANCE
2.033	0.265
2.06722	0.272
2.10144	0.2769
2.13566	0.2908
2.16988	0.303
2.2041	0.3117
2.23832	0.32
2.27254	0.3307
2.30676	0.339
2.34098	0.337
2.37521	0.3486
2.40943	0.3597
2.44365	0.3674
2.47787	0.3785
2.51209	0.3917
2.54631	0.4024
2.58053	0.4173
2.61475	0.4265
2.64897	0.4391
2.68319	0.4464
2.71741	0.456
2.75163	0.4648
2.78585	0.4723
2.82007	0.4927
2.85429	0.5042
2.88851	0.3076
2.92273	0.4861
2.95695	0.2172
2.99118	0.2732
3.0254	0.3779
3.05962	0.4141
3.09384	0.419
3.12806	0.4261
3.16228	0.4366
3.1965	0.4446
3.23072	0.4071
3.26494	0.3983
3.29916	0.4002
3.33338	0.3419
3.3676	0.0887
3.40182	0.0072
3.43604	0.0137
3.47026	0.039
3.50448	0.0888
3.5387	0.4062
3.57292	0.5384
3.60715	0.5818
3.64137	0.5962
3.67559	0.5962
3.70981	0.596
3.74403	0.596
3.77825	0.596
3.81247	0.6033
3.84669	0.6101
3.88091	0.624
3.91513	0.634
3.94935	0.6382
3.98357	0.653
4.01779	0.656
4.05201	0.6629
4.08623	0.665
4.12045	0.668
4.15467	0.6699
4.18889	0.674
4.22312	0.677
4.25734	0.6792
4.29156	0.6816
4.32578	0.682
4.36	0.6919
4.39422	0.696
4.42844	0.7033
4.46266	0.7095
4.49688	0.713
4.5311	0.7158
4.56532	0.723
4.59954	0.723
4.63376	0.725
4.66798	0.728
4.7022	0.732
4.73642	0.7361
4.77064	0.74
4.80486	0.7432
4.83909	0.744
4.87331	0.7481
4.90753	0.752
4.94175	0.7534
4.97597	0.758
5.01019	0.762
5.04441	0.763
5.07863	0.7669
5.11285	0.7732
5.14707	0.775
5.18129	0.7775
5.21551	0.7809
5.24973	0.782
5.28395	0.785
5.31817	0.7909
5.35239	0.792
5.38661	0.794
5.42083	0.797
5.45506	0.799
5.48928	0.792
5.5235	0.798
5.55772	0.806
5.59194	0.807
5.62616	0.808
5.66038	0.816
5.6946	0.8201
5.72882	0.819
5.76304	0.8185
5.79726	0.8092
5.83148	0.8111
5.8657	0.8201
5.89992	0.8201
5.93414	0.818
5.96836	0.7935
6.00258	0.7373
6.0368	0.6768
6.07102	0.5495
6.10525	0.2494
6.13947	0.1205
6.17369	0.211
6.20791	0.4801
6.24213	0.5155
6.27635	0.1458
6.31057	0.2163
6.34479	0.3743
6.37901	0.4751
6.41323	0.499
6.44745	0.5383
6.48167	0.552
6.51589	0.3365
6.55011	0.27
6.58433	0.3978
6.61855	0.5191
6.65277	0.5925
6.68699	0.651
6.72122	0.663
6.75544	0.6457
6.78966	0.5377
6.82388	0.2587
6.8581	0.2389
6.89232	0.2841
6.92654	0.3775
6.96076	0.4723
6.99498	0.4787
7.0292	0.3784
7.06342	0.5478
7.09764	0.6903
7.13186	0.7301
7.16608	0.734
7.2003	0.6298
7.23452	0.2605
7.26874	0.0771
7.30296	0.1841
7.33719	0.3501
7.37141	0.3496
7.40563	0.128
7.43985	0.3291
7.47407	0.4479
7.50829	0.4624
7.54251	0.5184
7.57673	0.6007
7.61095	0.6363
7.64517	0.6578
7.67939	0.663
7.71361	0.5947
7.74783	0.554
7.78205	0.5592
7.81627	0.625
7.85049	0.6396
7.88471	0.5279
7.91893	0.483
7.95316	0.5882
7.98738	0.6607
8.0216	0.6953
8.05582	0.71
8.09004	0.7091
8.12426	0.708
8.15848	0.7069
8.1927	0.71
8.22692	0.6971
8.26114	0.687
8.29536	0.683
8.32958	0.6734
8.3638	0.637
8.39802	0.5385
8.43224	0.3677
8.46646	0.1462
8.50068	0.0894
8.5349	0.1274
8.56913	0.19
8.60335	0.1376
8.63757	0.085
8.67179	0.089
8.70601	0.1177
8.74023	0.2011
8.77445	0.3164
8.80867	0.3832
8.84289	0.416
8.87711	0.4128
8.91133	0.4571
8.94555	0.515
8.97977	0.5463
9.01399	0.5678
9.04821	0.5885
9.08243	0.6025
9.11665	0.607
9.15087	0.608
9.1851	0.61
9.21932	0.6129
9.25354	0.614
9.28776	0.6129
9.32198	0.5763
9.3562	0.5998
9.39042	0.6121
9.42464	0.614
9.45886	0.612
9.49308	0.6091
9.5273	0.5885
9.56152	0.581
9.59574	0.5732
9.62996	0.571
9.66418	0.569
9.6984	0.561
9.73262	0.55
9.76684	0.548
9.80107	0.547
9.83529	0.5545
9.86951	0.5665
9.90373	0.5821
9.93795	0.5939
9.97217	0.5969
10.0064	0.602
10.0406	0.6085
10.0748	0.6159
10.109	0.6279
10.1433	0.635
10.1775	0.647
10.2117	0.651
10.2459	0.653
10.2802	0.6579
10.3144	0.665
10.3486	0.6659
10.3828	0.6479
10.417	0.5639
10.4513	0.3814
10.4855	0.2546
10.5197	0.2215
10.5539	0.2572
10.5881	0.3698
10.6224	0.4617
10.6566	0.5301
10.6908	0.5717
10.725	0.6018
10.7592	0.625
10.7935	0.6525
10.8277	0.6626
10.8619	0.6674
10.8961	0.5866
10.9303	0.5081
10.9646	0.5904
10.9988	0.6704
11.033	0.6974
11.0672	0.7169
11.1014	0.7266
11.1357	0.7345
11.1699	0.739
11.2041	0.74
11.2383	0.742
11.2725	0.75
11.3068	0.753
11.341	0.7534
11.3752	0.754
11.4094	0.7655
11.4437	0.768
11.4779	0.766
11.5121	0.723
11.5463	0.58
11.5805	0.4794
11.6148	0.5321
11.649	0.6594
11.6832	0.7223
11.7174	0.7576
11.7516	0.768
11.7859	0.7719
11.8201	0.778
11.8543	0.778
11.8885	0.778
11.9227	0.7858
11.957	0.7882
11.9912	0.7895
12.0254	0.79
12.0596	0.794
12.0938	0.794
12.1281	0.794
12.1623	0.794
12.1965	0.794
12.2307	0.795
12.2649	0.795
12.2992	0.7979
12.3334	0.802
12.3676	0.801
12.4018	0.8029
12.436	0.8049
12.4703	0.804
12.5045	0.803
12.5387	0.804
12.5729	0.804
12.6072	0.804
12.6414	0.802
12.6756	0.802
12.7098	0.8015
12.744	0.7961
12.7783	0.794
12.8125	0.794
12.8467	0.793
12.8809	0.7841
12.9151	0.778
12.9494	0.778
12.9836	0.778
13.0178	0.7733
13.052	0.77
13.0862	0.765
13.1205	0.764
13.1547	0.7552
13.1889	0.7383
13.2231	0.7156
13.2573	0.6869
13.2916	0.6127
13.3258	0.5214
13.36	0.4365
13.3942	0.4063
13.4284	0.3803
13.4627	0.3554
13.4969	0.3602
13.5311	0.4313
13.5653	0.5286
13.5995	0.5835
13.6338	0.627
13.668	0.6527
13.7022	0.6625
13.7364	0.668
13.7706	0.67
13.8049	0.67
13.8391	0.67
13.8733	0.67
13.9075	0.67
13.9418	0.67
13.976	0.674
14.0102	0.6849
14.0444	0.687
14.0786	0.6865
14.1129	0.6645
14.1471	0.5726
14.1813	0.4775
14.2155	0.529
14.2497	0.623
14.284	0.6717
14.3182	0.6865
14.3524	0.695
14.3866	0.6985
14.4208	0.696
14.4551	0.698
14.4893	0.696
14.5235	0.6874
14.5577	0.6809
14.5919	0.6652
14.6262	0.6449
14.6604	0.5963
14.6946	0.5037
14.7288	0.3811
14.763	0.3181
14.7973	0.339
14.8315	0.4304
14.8657	0.4987
14.8999	0.5451
14.9341	0.5763
14.9684	0.5979
15.0026	0.608
15.0368	0.6059
15.071	0.598
15.1053	0.6025
15.1395	0.602
15.1737	0.601
15.2079	0.6
15.2421	0.5956
15.2764	0.589
15.3106	0.58
15.3448	0.571
15.379	0.5682
15.4132	0.5545
15.4475	0.55
