Infrared Spectrum: Indenone ethylene ketal
Formula: C 11 H 10 O 2
CAS: 6710-43-6
State: gas
Origin: EPA-IR VAPOR PHASE LIBRARY
1/CM	ABSORBANCE
549.8	0.0015491
559.445	0.00289
569.09	0.00297
578.734	0.00275
588.379	0.0017123
598.024	0.000906
607.669	0.0014658
617.313	0.000627
626.958	0.0015458
636.603	0.0013612
646.248	0.00208
655.893	0.00281
665.537	0.00273
675.182	0.00255
684.827	0.0012913
694.472	0.00208
704.116	0.0026
713.761	0.00534
723.406	0.0056
733.051	0.01677
742.695	0.04012
752.34	0.03954
761.985	0.01993
771.63	0.01096
781.275	0.00658
790.919	0.00374
800.564	0.0019367
810.209	0.0016547
819.854	0.0017714
829.498	0.0019001
839.143	0.0019626
848.788	0.0022
858.433	0.00232
868.078	0.00292
877.722	0.00243
887.367	0.00251
897.012	0.0025
906.657	0.00309
916.301	0.00531
925.946	0.00934
935.591	0.01537
945.236	0.01669
954.88	0.01088
964.525	0.01321
974.17	0.0242
983.815	0.04689
993.46	0.05765
1003.1	0.03464
1012.75	0.02084
1022.39	0.01851
1032.04	0.02887
1041.68	0.0549
1051.33	0.04431
1060.97	0.02677
1070.62	0.02909
1080.26	0.02484
1089.91	0.03202
1099.55	0.02844
1109.2	0.01636
1118.84	0.02045
1128.49	0.03115
1138.13	0.0366
1147.78	0.03376
1157.42	0.02169
1167.07	0.01406
1176.71	0.00995
1186.36	0.00835
1196	0.00817
1205.64	0.01156
1215.29	0.01558
1224.93	0.02112
1234.58	0.03271
1244.22	0.04275
1253.87	0.03726
1263.51	0.02661
1273.16	0.01679
1282.8	0.01255
1292.45	0.00826
1302.09	0.01348
1311.74	0.02822
1321.38	0.02559
1331.03	0.01397
1340.67	0.011
1350.32	0.01094
1359.96	0.0118
1369.61	0.00723
1379.25	0.00306
1388.9	0.00203
1398.54	0.0019659
1408.18	0.00226
1417.83	0.00241
1427.47	0.00242
1437.12	0.00285
1446.76	0.00486
1456.41	0.00692
1466.05	0.00725
1475.7	0.00562
1485.34	0.00486
1494.99	0.0038
1504.63	0.00222
1514.28	0.0017649
1523.92	0.00256
1533.57	0.0026
1543.21	0.00288
1552.86	0.00305
1562.5	0.0061
1572.15	0.00717
1581.79	0.00373
1591.44	0.00347
1601.08	0.00435
1610.73	0.00507
1620.37	0.00459
1630.01	0.00382
1639.66	0.00376
1649.3	0.00248
1658.95	0.00219
1668.59	0.00226
1678.24	0.0022
1687.88	0.00228
1697.53	0.00233
1707.17	0.0019236
1716.82	0.0015906
1726.46	0.0017211
1736.11	0.0017657
1745.75	0.001647
1755.4	0.0015791
1765.04	0.0014833
1774.69	0.0017217
1784.33	0.00224
1793.98	0.00248
1803.62	0.00203
1813.27	0.0016332
1822.91	0.0015586
1832.55	0.0019348
1842.2	0.00227
1851.84	0.00243
1861.49	0.00227
1871.13	0.0018949
1880.78	0.00214
1890.42	0.00283
1900.07	0.00275
1909.71	0.00229
1919.36	0.0019125
1929	0.00267
1938.65	0.00274
1948.29	0.00208
1957.94	0.0018887
1967.58	0.0023
1977.23	0.00208
1986.87	0.0019663
1996.52	0.0022
2006.16	0.00216
2015.81	0.00233
2025.45	0.00259
2035.1	0.00256
2044.74	0.00205
2054.38	0.0019677
2064.03	0.0018201
2073.67	0.0016872
2083.32	0.0019223
2092.96	0.0018012
2102.61	0.0013348
2112.25	0.0013057
2121.9	0.0016219
2131.54	0.0013861
2141.19	0.0013271
2150.83	0.0011418
2160.48	0.0014465
2170.12	0.0015376
2179.77	0.001278
2189.41	0.0016087
2199.06	0.0016282
2208.7	0.0014937
2218.35	0.0013024
2227.99	0.00110767
2237.64	0.0013514
2247.28	0.0014001
2256.92	0.001331
2266.57	0.0014275
2276.21	0.0017963
2285.86	0.0014976
2295.5	0.0017316
2305.15	0.0015834
2314.79	0.0015703
2324.44	0.0015198
2334.08	0.0013697
2343.73	0.0016817
2353.37	0.0011907
2363.02	0.0012306
2372.66	0.0013029
2382.31	0.0014005
2391.95	0.0014737
2401.6	0.0015268
2411.24	0.0014681
2420.89	0.0009486
2430.53	0.0014582
2440.18	0.0012489
2449.82	0.0013917
2459.47	0.0011217
2469.11	0.0013162
2478.75	0.00116
2488.4	0.0011907
2498.04	0.0009402
2507.69	0.0011879
2517.33	0.001157
2526.98	0.0013764
2536.62	0.0011809
2546.27	0.00103929
2555.91	0.00139
2565.56	0.000844
2575.2	0.0009173
2584.85	0.0009363
2594.49	0.000867
2604.14	0.000909
2613.78	0.00104078
2623.43	0.0009875
2633.07	0.0013626
2642.72	0.0013791
2652.36	0.0016446
2662.01	0.0018953
2671.65	0.0017945
2681.29	0.0015582
2690.94	0.0011559
2700.58	0.0016147
2710.23	0.001455
2719.87	0.0012465
2729.52	0.0011486
2739.16	0.0014679
2748.81	0.0012138
2758.45	0.0019354
2768.1	0.0018661
2777.74	0.0017144
2787.39	0.0017657
2797.03	0.0017972
2806.68	0.0017891
2816.32	0.00216
2825.97	0.00296
2835.61	0.00393
2845.26	0.00425
2854.9	0.00603
2864.55	0.00812
2874.19	0.01694
2883.84	0.03048
2893.48	0.02853
2903.12	0.01865
2912.77	0.01473
2922.41	0.01425
2932.06	0.01333
2941.7	0.01315
2951.35	0.01431
2960.99	0.01827
2970.64	0.01937
2980.28	0.01991
2989.93	0.01761
2999.57	0.01218
3009.22	0.00985
3018.86	0.00985
3028.51	0.01037
3038.15	0.01071
3047.8	0.01147
3057.44	0.0138
3067.09	0.01988
3076.73	0.02245
3086.38	0.01639
3096.02	0.00821
3105.67	0.00404
3115.31	0.00293
3124.95	0.0016366
3134.6	0.00209
3144.24	0.00122
3153.89	0.0016972
3163.53	0.000835
3173.18	0.0013421
3182.82	0.0011587
3192.47	0.0016563
3202.11	0.00109535
3211.76	0.000733
3221.4	0.000754
3231.05	0.000641
3240.69	0.0013834
3250.34	0.000822
3259.98	0.000714
3269.63	0.0013311
3279.27	0.000713
3288.92	0.000881
3298.56	0.000566
3308.21	0.00087
3317.85	0.000391
3327.49	0.000186
3337.14	0.000609
3346.78	0.00104992
3356.43	0.000868
3366.07	0.00064
3375.72	0.000363
3385.36	0.000988
3395.01	0.000481
3404.65	0.000659
3414.3	0.0010883
3423.94	0.000419
3433.59	0.00063
3443.23	0.000632
3452.88	0.0012445
3462.52	0.00101818
3472.17	0.000827
3481.81	0.0012658
3491.46	0.000675
3501.1	0.000662
3510.75	0.0011451
3520.39	0.0015822
3530.04	0.000783
3539.68	0.000658
3549.32	0.000631
3558.97	0.000907
3568.61	0.0010461
3578.26	0.000337
3587.9	0.000732
3597.55	0.000616
3607.19	0.000436
3616.84	0.000265
3626.48	0.00102487
3636.13	0.000595
3645.77	0.0009613
3655.42	0.000475
3665.06	0.0013298
3674.71	0.0009576
3684.35	0.000665
3694	0
3703.64	0.0014046
3713.29	0.000574
3722.93	0.000677
3732.58	0.0012062
3742.22	0.000821
3751.86	0.000808
3761.51	0.0011414
3771.15	0.000448
3780.8	0.0012378
3790.44	0.000824
3800.09	0.001302
3809.73	0.00109529
3819.38	0.00110709
3829.02	0.000873
3838.67	0.00101624
3848.31	0.0009734
3857.96	0.001338
3867.6	0.0011104
3877.25	0.0011488
3886.89	0.0011611
3896.54	0.000625
3906.18	0.0013255
3915.83	0.000784
3925.47	0.0011784
3935.12	0.0011184
3944.76	0.00105096
3954.41	0.0012473
3964.05	0.00103168
3973.69	0.0009619
3983.34	0.0009722
3992.98	0.0015499
