Infrared Spectrum: Ammonium compounds, substituted: (2,2-diethoxyethyl)trimethyl- iodide
Formula: C9 H22 I N O2
CAS: 6711-89-3
State: SOLID (SPLIT MULL), FLUOROLUBE FOR 3800-1330 CM^-^1, NUJOL FOR 1330-400 CM^-^1
Class: COBLENTZ III
Instrument: DOW KBr FOREPRISM-GRATING
Instrument parameters: BLAZED AT 3.5, 12.0, 20.0 MICRON AND CHANGED AT 5.0, 7.5, 14.9 MICRON
Sampling: TRANSMISSION
Resolution: 2
Origin: DOW CHEMICAL COMPANY
1/CM	TRANSMITTANCE
3800	0.6525
3791	0.6535
3782	0.6548
3773	0.656
3764	0.6574
3755	0.6591
3746	0.6611
3737	0.6641
3728	0.6668
3719	0.6683
3710	0.67
3701	0.6715
3692	0.6732
3683	0.6745
3674	0.6756
3665	0.6765
3656	0.6776
3647	0.6793
3638	0.6808
3629	0.6822
3620	0.6836
3611	0.6849
3602	0.686
3593	0.6868
3584	0.6875
3575	0.6883
3566	0.6889
3557	0.6894
3548	0.69
3539	0.6906
3530	0.691
3521	0.6914
3512	0.6918
3503	0.6922
3494	0.6928
3485	0.6926
3476	0.6919
3467	0.6914
3458	0.6908
3449	0.6904
3440	0.6904
3431	0.6912
3422	0.6922
3413	0.6934
3404	0.6948
3395	0.6961
3386	0.6975
3377	0.6988
3368	0.7
3359	0.701
3350	0.7024
3341	0.7021
3332	0.7003
3323	0.7003
3314	0.7028
3305	0.7058
3296	0.7084
3287	0.7105
3278	0.7124
3269	0.7143
3260	0.7158
3251	0.7175
3242	0.719
3233	0.7203
3224	0.7217
3215	0.7234
3206	0.7254
3197	0.7274
3188	0.7296
3179	0.7317
3170	0.7332
3161	0.7345
3152	0.7354
3143	0.7362
3134	0.7372
3125	0.7382
3116	0.7381
3107	0.738
3098	0.7369
3089	0.7344
3080	0.7311
3071	0.7267
3062	0.7215
3053	0.6581
3044	0.6967
3035	0.7135
3026	0.7144
3017	0.6504
3008	0.5627
2999	0.3472
2990	0.405
2981	0.301
2972	0.3562
2963	0.4574
2954	0.4871
2945	0.4547
2936	0.431
2927	0.4289
2918	0.4494
2909	0.467
2900	0.4578
2891	0.4491
2882	0.4464
2873	0.4647
2864	0.5273
2855	0.5674
2846	0.5971
2837	0.6176
2828	0.6329
2819	0.6438
2810	0.6565
2801	0.6687
2792	0.6801
2783	0.6906
2774	0.7
2765	0.7096
2756	0.715
2747	0.7172
2738	0.7197
2729	0.7234
2720	0.7287
2711	0.7347
2702	0.7405
2693	0.7458
2684	0.7507
2675	0.7549
2666	0.7588
2657	0.7635
2648	0.7694
2639	0.7733
2630	0.7738
2621	0.7736
2612	0.773
2603	0.773
2594	0.7732
2585	0.7736
2576	0.7742
2567	0.7745
2558	0.775
2549	0.7765
2540	0.7783
2531	0.7791
2522	0.7793
2513	0.7797
2504	0.7803
2495	0.7811
2486	0.7819
2477	0.7828
2468	0.7853
2459	0.7878
2450	0.7901
2441	0.7922
2432	0.7947
2423	0.7968
2414	0.7983
2405	0.7986
2396	0.7975
2387	0.7962
2378	0.7967
2369	0.7972
2360	0.7983
2351	0.7972
2342	0.7921
2333	0.7903
2324	0.7991
2315	0.8071
2306	0.8068
2297	0.7985
2288	0.7991
2279	0.7983
2270	0.7968
2261	0.805
2252	0.8078
2243	0.8118
2234	0.8169
2225	0.8217
2216	0.8266
2207	0.8318
2198	0.8347
2189	0.8346
2180	0.8344
2171	0.8347
2162	0.838
2153	0.8421
2144	0.8449
2135	0.8478
2126	0.8508
2117	0.8535
2108	0.8558
2099	0.8573
2090	0.859
2081	0.8607
2072	0.8625
2063	0.8644
2054	0.8663
2045	0.8681
2036	0.8696
2027	0.8707
2018	0.8713
2009	0.8702
2000	0.8667
1991	0.8663
1982	0.8685
1973	0.8699
1964	0.865
1955	0.8635
1946	0.8653
1937	0.8684
1928	0.874
1919	0.8797
1910	0.8836
1901	0.8844
1892	0.8803
1883	0.876
1874	0.8754
1865	0.8795
1856	0.8831
1847	0.8835
1838	0.8811
1829	0.8775
1820	0.8733
1811	0.8707
1802	0.8684
1793	0.8683
1784	0.8694
1775	0.8648
1766	0.8628
1757	0.8659
1748	0.8694
1739	0.8725
1730	0.8746
1721	0.8765
1712	0.8794
1703	0.8827
1694	0.8848
1685	0.887
1676	0.8892
1667	0.8907
1658	0.8913
1649	0.893
1640	0.8942
1631	0.8955
1622	0.8966
1613	0.8958
1604	0.8952
1595	0.8948
1586	0.8913
1577	0.887
1568	0.8841
1559	0.8805
1550	0.8768
1541	0.872
1532	0.8674
1523	0.8632
1514	0.8575
1505	0.7758
1496	0.6983
1487	0.4477
1478	0.4404
1469	0.586
1460	0.5817
1451	0.5653
1442	0.6274
1433	0.7311
1424	0.7261
1415	0.6112
1406	0.6678
1397	0.6792
1388	0.6521
1379	0.356
1370	0.6324
1361	0.6107
1352	0.4814
1343	0.6634
1334	0.6924
1325	0.544
1316	0.6899
1307	0.684
1298	0.6565
1289	0.6747
1280	0.6844
1271	0.6978
1262	0.7114
1253	0.7122
1244	0.6796
1235	0.6641
1226	0.5403
1217	0.6637
1208	0.6661
1199	0.6209
1190	0.5989
1181	0.5291
1172	0.4635
1163	0.4194
1154	0.3546
1145	0.3339
1136	0.388
1127	0.1324
1118	0.1487
1109	0.285
1100	0.3482
1091	0.368
1082	0.1772
1073	0.1266
1064	0.0535
1055	0.2089
1046	0.2079
1037	0.4125
1028	0.4373
1019	0.3706
1010	0.5821
1001	0.6028
992	0.5825
983	0.637
974	0.2669
965	0.2958
956	0.5502
947	0.5734
938	0.4471
929	0.6575
920	0.6642
911	0.5714
902	0.6958
893	0.624
884	0.6526
875	0.7441
866	0.7721
857	0.7758
848	0.7308
839	0.6971
830	0.7554
821	0.7568
812	0.7625
803	0.778
794	0.79
785	0.7965
776	0.7982
767	0.7958
758	0.8006
749	0.8041
740	0.7907
731	0.7711
722	0.7204
713	0.791
704	0.8205
695	0.8392
686	0.848
677	0.8492
668	0.8478
659	0.8483
650	0.8678
641	0.8628
632	0.856
623	0.8481
614	0.8407
605	0.8305
596	0.8275
587	0.824
578	0.8191
569	0.7978
560	0.7878
551	0.81
542	0.8161
533	0.8162
524	0.8011
515	0.8062
506	0.8098
497	0.8031
488	0.7918
479	0.7755
470	0.76
461	0.7531
452	0.7396
443	0.7493
434	0.7575
425	0.7658
416	0.77
407	0.771
398	0.7704
389	0.7712
