Infrared Spectrum: Metazachlor
Formula: C 14 H 16 Cl N 3 O
CAS: 67129-08-2
State: gas
Instrument: HP-GC/MS/IRD
Origin: NIST Mass Spectrometry Data Center
1/CM	ABSORBANCE
550	0.001596
562	0.0012654
574	0.0020064
586	0.0011894
598	0.0009006
610	0.00247
622	0.005149
634	0.0026828
646	0.0013946
658	0.0009766
670	0.0007942
682	0.0008474
694	0.0008512
706	0.0013338
718	0.0011552
730	0.00228
742	0.0100548
754	0.0201324
766	0.0115862
778	0.0062092
790	0.0031426
802	0.0029412
814	0.0017632
826	0.0009158
838	0.000665
850	0.000171
862	0.0001216
874	0.0011058
886	0.0009576
898	0.0012084
910	0.0017404
922	0.0023636
934	0.0009538
946	0.0010146
958	0.0030856
970	0.0015086
982	0.0007258
994	0.0006802
1006	0.0012388
1018	0.0032528
1030	0.004655
1042	0.0055062
1054	0.0068856
1066	0.0020862
1078	0.0070034
1090	0.008816
1102	0.002755
1114	0.0019
1126	0.0018468
1138	0.003667
1150	0.007676
1162	0.0068324
1174	0.0076304
1186	0.0077026
1198	0.0067146
1210	0.013034
1222	0.0108414
1234	0.0120346
1246	0.0105298
1258	0.008113
1270	0.0058368
1282	0.008322
1294	0.0147744
1306	0.0132088
1318	0.0072808
1330	0.01216
1342	0.0111264
1354	0.0072618
1366	0.0106096
1378	0.0122816
1390	0.0107122
1402	0.008417
1414	0.006593
1426	0.0091694
1438	0.0101308
1450	0.0083296
1462	0.0075544
1474	0.006707
1486	0.0047424
1498	0.0034732
1510	0.0043434
1522	0.0046702
1534	0.0017708
1546	0.0013186
1558	0.0010792
1570	0.0011324
1582	0.0013414
1594	0.0015884
1606	0.001159
1618	0.0010374
1630	0.001292
1642	0.0017328
1654	0.0030476
1666	0.0051034
1678	0.0103284
1690	0.0266798
1702	0.0371754
1714	0.0206112
1726	0.0080674
1738	0.0031616
1750	0.0020292
1762	0.0012958
1774	0.001026
1786	0.0006878
1798	0.000475
1810	0.0003154
1822	0.0002052
1834	0.00019
1846	0.0002508
1858	0.0002888
1870	8.36e-05
1882	4.18e-05
1894	4.18e-05
1906	0.000114
1918	0.0001862
1930	0.0003838
1942	0.000399
1954	7.6e-05
1966	2.66e-05
1978	3.8e-06
1990	3.04e-05
2002	4.56e-05
2014	1.9e-05
2026	3.04e-05
2038	9.88e-05
2050	9.88e-05
2062	0.0001292
2074	0.000152
2086	0.0001178
2098	8.74e-05
2110	3.8e-05
2122	5.32e-05
2134	6.84e-05
2146	7.22e-05
2158	4.94e-05
2170	1.52e-05
2182	4.94e-05
2194	7.6e-05
2206	3.8e-05
2218	8.74e-05
2230	6.84e-05
2242	9.12e-05
2254	9.5e-05
2266	0.0001596
2278	9.88e-05
2290	0.0001026
2302	8.74e-05
2314	9.5e-05
2326	0.0001292
2338	0.0001558
2350	0.0001672
2362	0.0001102
2374	0.0001178
2386	0.0001178
2398	0.0001178
2410	0.0001254
2422	0.0001216
2434	8.74e-05
2446	9.88e-05
2458	0.0001216
2470	0.0001026
2482	0.0001026
2494	0.0001178
2506	0.0001254
2518	9.5e-05
2530	9.5e-05
2542	6.08e-05
2554	0.0001064
2566	4.18e-05
2578	0.0001178
2590	9.5e-05
2602	0.0001102
2614	0.0001102
2626	8.74e-05
2638	5.7e-05
2650	8.74e-05
2662	7.98e-05
2674	2.28e-05
2686	4.18e-05
2698	5.7e-05
2710	8.36e-05
2722	0.0001406
2734	0.000209
2746	0.0003002
2758	0.0002166
2770	0.0002166
2782	0.0001786
2794	0.0002052
2806	0.0001976
2818	0.0003648
2830	0.000418
2842	0.000665
2854	0.000912
2866	0.0013566
2878	0.0016378
2890	0.0015504
2902	0.0015846
2914	0.0020634
2926	0.0034124
2938	0.0046398
2950	0.0038722
2962	0.0040622
2974	0.004294
2986	0.0029298
2998	0.0021698
3010	0.0021736
3022	0.002907
3034	0.0031388
3046	0.0030058
3058	0.0036328
3070	0.0037544
3082	0.0024244
3094	0.0010716
3106	0.000874
3118	0.0013756
3130	0.000684
3142	0.0007486
3154	0.000551
3166	0.0002584
3178	0.0001482
3190	0.0001976
3202	0.000133
3214	0.000114
3226	6.08e-05
3238	0.0001026
3250	4.56e-05
3262	3.42e-05
3274	0.0001064
3286	6.46e-05
3298	0.0001026
3310	5.7e-05
3322	6.84e-05
3334	3.42e-05
3346	0.0002014
3358	0.0002394
3370	0.0003648
3382	0.0003192
3394	0.0002888
3406	0.0002508
3418	0.000209
3430	0.0001824
3442	0.0001064
3454	0.0001824
3466	0.000152
3478	0.00019
3490	0.000133
3502	0.0001748
3514	0.000171
3526	0.0001368
3538	6.08e-05
3550	7.6e-05
3562	9.88e-05
3574	0.0001254
3586	0.0001672
3598	9.88e-05
3610	0.0001292
3622	5.32e-05
3634	7.22e-05
3646	6.08e-05
3658	9.12e-05
3670	0.0001444
3682	9.12e-05
3694	8.36e-05
3706	0.0001254
3718	7.6e-05
3730	0.0001026
3742	0.0001482
3754	0.0002014
3766	0.000247
3778	0.0002242
3790	0.000247
3802	0.0001824
3814	0.000171
3826	0.0002356
3838	0.0002166
