Infrared Spectrum: CYCLOPROPA[c]2H-1-BENZOPYRAN,3,4-DIHYDRO-4-PHENYL-
Formula: C16 H14 O
CAS: 6719-35-3
State: SOLUTION 7% (CHCl3 FOR 2.5-12.5 microns)
Class: COBLENTZ
Instrument: PERKIN-ELMER 21 (GRATING)
Instrument parameters: FILTER AT ABOUT 10 MICRONS
Path length: 0.01 CM
Resolution: 2
Origin: ABBOTT LABORATORIES
1/CM	TRANSMITTANCE
801	0.9275
809	0.9108
817	0.8847
825	0.8659
833	0.8244
841	0.6849
849	0.8518
857	0.8186
865	0.8349
873	0.8352
881	0.8102
889	0.7486
897	0.7555
905	0.8249
913	0.7945
921	0.7698
929	0.8439
937	0.8239
945	0.8413
953	0.8169
961	0.7443
969	0.4092
977	0.6305
985	0.7901
993	0.7834
1001	0.8178
1009	0.7991
1017	0.7738
1025	0.6642
1033	0.4274
1041	0.7287
1049	0.6706
1057	0.7918
1065	0.7717
1073	0.7051
1081	0.7273
1089	0.7672
1097	0.7194
1105	0.6942
1113	0.5338
1121	0.7565
1129	0.7761
1137	0.7304
1145	0.8123
1153	0.8262
1161	0.8395
1169	0.8446
1177	0.839
1185	0.8214
1193	0.7467
1201	0.6947
1209	0.6485
1217	0.6029
1225	0.5579
1233	0.5135
1241	0.5291
1249	0.5791
1257	0.3799
1265	0.7894
1273	0.8041
1281	0.7917
1289	0.7308
1297	0.7846
1305	0.8026
1313	0.8107
1321	0.834
1329	0.8498
1337	0.8579
1345	0.8529
1353	0.8297
1361	0.765
1369	0.8062
1377	0.8035
1385	0.8398
1393	0.8484
1401	0.844
1409	0.837
1417	0.8291
1425	0.8044
1433	0.7451
1441	0.5076
1449	0.4162
1457	0.7307
1465	0.7257
1473	0.6432
1481	0.2171
1489	0.4781
1497	0.7161
1505	0.8694
1513	0.8904
1521	0.8874
1529	0.8813
1537	0.8726
1545	0.8626
1553	0.85
1561	0.8234
1569	0.702
1577	0.6128
1585	0.757
1593	0.7831
1601	0.7286
1609	0.8405
1617	0.8524
1625	0.857
1633	0.8608
1641	0.8639
1649	0.8684
1657	0.878
1665	0.8773
1673	0.8759
1681	0.8775
1689	0.8819
1697	0.8862
1705	0.8904
1713	0.8917
1721	0.8928
1729	0.8925
1737	0.8901
1745	0.8864
1753	0.8894
1761	0.8931
1769	0.8966
1777	0.892
1785	0.8821
1793	0.8756
1801	0.875
1809	0.8779
1817	0.8828
1825	0.8883
1833	0.8932
1841	0.8984
1849	0.9009
1857	0.8973
1865	0.8862
1873	0.8804
1881	0.8785
1889	0.8777
1897	0.8779
1905	0.8935
1913	0.8986
1921	0.8932
1929	0.8842
1937	0.8801
1945	0.8863
1953	0.8954
1961	0.9001
1969	0.9028
1977	0.9051
1985	0.9066
1993	0.9079
2001	0.909
2009	0.9098
2017	0.9102
2025	0.9101
2033	0.9099
2041	0.9095
2049	0.9091
2057	0.9088
2065	0.9089
2073	0.909
2081	0.9092
2089	0.9101
2097	0.911
2105	0.9118
2113	0.9126
2121	0.9132
2129	0.9138
2137	0.9135
2145	0.9133
2153	0.9131
2161	0.9129
2169	0.9126
2177	0.9122
2185	0.9118
2193	0.9113
2201	0.911
2209	0.9106
2217	0.9103
2225	0.9101
2233	0.9099
2241	0.9103
2249	0.9107
2257	0.9111
2265	0.9115
2273	0.9121
2281	0.9125
2289	0.9128
2297	0.9134
2305	0.9188
2313	0.9232
2321	0.927
2329	0.9288
2337	0.9286
2345	0.9276
2353	0.9262
2361	0.9249
2369	0.9231
2377	0.9198
2385	0.9155
2393	0.9119
2401	0.9107
2409	0.91
2417	0.9099
2425	0.9099
2433	0.9099
2441	0.9102
2449	0.9106
2457	0.9109
2465	0.9113
2473	0.9117
2481	0.9115
2489	0.9113
2497	0.9112
2505	0.9108
2513	0.9098
2521	0.9089
2529	0.9076
2537	0.9062
2545	0.9047
2553	0.9036
2561	0.9027
2569	0.9021
2577	0.9024
2585	0.9028
2593	0.9036
2601	0.905
2609	0.9072
2617	0.9082
2625	0.907
2633	0.9048
2641	0.9025
2649	0.9002
2657	0.8979
2665	0.8958
2673	0.8936
2681	0.8915
2689	0.89
2697	0.8886
2705	0.8886
2713	0.8891
2721	0.8896
2729	0.8907
2737	0.8917
2745	0.8931
2753	0.8943
2761	0.8937
2769	0.8929
2777	0.8901
2785	0.8829
2793	0.8726
2801	0.8558
2809	0.8381
2817	0.8206
2825	0.8031
2833	0.7858
2841	0.7686
2849	0.7622
2857	0.7825
2865	0.8081
2873	0.8337
2881	0.8454
2889	0.8329
2897	0.8253
2905	0.8178
2913	0.8104
2921	0.8029
2929	0.7956
2937	0.7882
2945	0.782
2953	0.7789
2961	0.7778
2969	0.7774
2977	0.7742
2985	0.7497
2993	0.7308
3001	0.7328
3009	0.7604
3017	0.7735
3025	0.7742
3033	0.7741
3041	0.7736
3049	0.7737
3057	0.7775
3065	0.8047
3073	0.8576
3081	0.8754
3089	0.8881
3097	0.8961
3105	0.8996
3113	0.9029
3121	0.9057
3129	0.9065
3137	0.9072
3145	0.9079
3153	0.9086
3161	0.909
3169	0.9094
3177	0.9095
3185	0.9091
3193	0.9088
3201	0.908
3209	0.9056
3217	0.9032
3225	0.9016
3233	0.9001
3241	0.8993
3249	0.8986
3257	0.898
3265	0.8973
3273	0.8971
3281	0.8973
3289	0.8974
3297	0.8975
3305	0.8977
3313	0.8979
3321	0.8988
3329	0.8996
3337	0.9004
3345	0.9012
3353	0.902
3361	0.9029
3369	0.9038
3377	0.9047
3385	0.9056
3393	0.9062
3401	0.9068
3409	0.9074
3417	0.908
3425	0.9086
3433	0.909
3441	0.9089
3449	0.9088
3457	0.9088
3465	0.9087
3473	0.9085
3481	0.9081
3489	0.9077
3497	0.9073
3505	0.9069
3513	0.9064
3521	0.9059
3529	0.9054
3537	0.905
3545	0.905
3553	0.905
3561	0.905
3569	0.9052
3577	0.9058
3585	0.9063
3593	0.9069
3601	0.9074
3609	0.908
3617	0.9084
3625	0.9087
3633	0.909
3641	0.9094
3649	0.9097
3657	0.91
3665	0.91
3673	0.9098
3681	0.9098
3689	0.9096
3697	0.9095
3705	0.9094
3713	0.9089
3721	0.9079
3729	0.9068
3737	0.9058
3745	0.9048
3753	0.9038
3761	0.9026
3769	0.9014
3777	0.9002
3785	0.899
3793	0.8978
3801	0.8975
3809	0.8971
3817	0.8967
3825	0.8963
3833	0.8961
3841	0.8964
3849	0.8969
3857	0.8973
3865	0.8977
3873	0.8981
3881	0.8986
3889	0.899
3897	0.8994
3905	0.8999
3913	0.9003
3921	0.9004
3929	0.8996
3937	0.8987
3945	0.8972
3953	0.8958
3961	0.8949
3969	0.8944
3977	0.8938
3985	0.8932
3993	0.8927
