Infrared Spectrum: Dimethylphenylphosphine
Formula: C 8 H 11 P
CAS: 672-66-2
State: gas
Origin: EPA-IR VAPOR PHASE LIBRARY
1/CM	ABSORBANCE
501.5	0.002509
513.074	0.0012472
524.648	0.0005922
536.222	0.00034111
547.796	0.0002345
559.37	0.000101
570.944	0
582.518	0.0001597
594.092	0.0003593
605.666	0.0005175
617.24	0.0006386
628.814	0.0009621
640.388	0.001919
651.962	0.005169
663.536	0.008619
675.11	0.012539
686.684	0.023259
698.258	0.028829
709.832	0.022249
721.406	0.018279
732.98	0.022379
744.554	0.018369
756.128	0.009119
767.702	0.003139
779.276	0.001439
790.85	0.0010924
802.423	0.0012063
813.997	0.001429
825.571	0.001579
837.145	0.002139
848.719	0.003399
860.293	0.004819
871.867	0.006859
883.441	0.012429
895.015	0.020709
906.589	0.015749
918.163	0.008309
929.737	0.010749
941.311	0.012289
952.885	0.006839
964.459	0.003079
976.033	0.002069
987.607	0.002279
999.181	0.002369
1010.76	0.001799
1022.33	0.002589
1033.9	0.002189
1045.48	0.0011271
1057.05	0.001739
1068.63	0.002089
1080.2	0.002579
1091.77	0.003819
1103.35	0.005759
1114.92	0.003709
1126.49	0.0010906
1138.07	0.0006968
1149.64	0.0004843
1161.22	0.0004306
1172.79	0.0005542
1184.36	0.0006346
1195.94	0.0003674
1207.51	0.0002218
1219.09	0.00034548
1230.66	0.0004182
1242.23	0.0006751
1253.81	0.0012433
1265.38	0.002069
1276.96	0.003369
1288.53	0.004619
1300.1	0.004949
1311.68	0.004239
1323.25	0.003199
1334.83	0.002129
1346.4	0.001589
1357.97	0.001379
1369.55	0.001399
1381.12	0.001549
1392.7	0.002299
1404.27	0.004819
1415.84	0.010479
1427.42	0.017149
1438.99	0.014949
1450.57	0.007359
1462.14	0.003679
1473.71	0.003979
1485.29	0.005219
1496.86	0.002839
1508.44	0.0011588
1520.01	0.0010204
1531.58	0.0011205
1543.16	0.0012049
1554.73	0.001299
1566.31	0.001799
1577.88	0.002659
1589.45	0.002929
1601.03	0.001799
1612.6	0.000967
1624.18	0.0008752
1635.75	0.001174
1647.32	0.001269
1658.9	0.0008186
1670.47	0.0005753
1682.05	0.0004867
1693.62	0.0004828
1705.19	0.0004933
1716.77	0.0005347
1728.34	0.0006186
1739.92	0.0007284
1751.49	0.0007012
1763.06	0.000697
1774.64	0.0007403
1786.21	0.0011804
1797.79	0.001819
1809.36	0.001459
1820.93	0.0008745
1832.51	0.000691
1844.08	0.0007187
1855.66	0.0009659
1867.23	0.001339
1878.8	0.001669
1890.38	0.001339
1901.95	0.0007862
1913.53	0.0008148
1925.1	0.0012538
1936.67	0.001749
1948.25	0.002209
1959.82	0.001839
1971.4	0.0011001
1982.97	0.0008366
1994.54	0.0006652
2006.12	0.0005791
2017.69	0.0005058
2029.27	0.000456
2040.84	0.0003986
2052.41	0.000405
2063.99	0.0003875
2075.56	0.0004164
2087.14	0.0004467
2098.71	0.0004734
2110.28	0.000443
2121.86	0.0004444
2133.43	0.0004359
2145.01	0.0004196
2156.58	0.0003861
2168.15	0.0004021
2179.73	0.0004246
2191.3	0.0004101
2202.88	0.0004259
2214.45	0.0004739
2226.02	0.0005036
2237.6	0.0004978
2249.17	0.000478
2260.74	0.0004525
2272.32	0.0004623
2283.89	0.0004716
2295.47	0.0004548
2307.04	0.000606
2318.61	0.0006791
2330.19	0.0005293
2341.76	0.0005757
2353.34	0.0005345
2364.91	0.0005461
2376.48	0.0004451
2388.06	0.0004361
2399.63	0.0004412
2411.21	0.0004111
2422.78	0.0004285
2434.35	0.0003919
2445.93	0.0003872
2457.5	0.0004041
2469.08	0.0003831
2480.65	0.0003598
2492.22	0.0004037
2503.8	0.0004182
2515.37	0.0003877
2526.95	0.0004328
2538.52	0.0004696
2550.09	0.0005179
2561.67	0.0005206
2573.24	0.0004932
2584.82	0.0005313
2596.39	0.0005059
2607.96	0.0004772
2619.54	0.0004713
2631.11	0.0004533
2642.69	0.0004693
2654.26	0.0005163
2665.83	0.0004789
2677.41	0.0005863
2688.98	0.0006331
2700.56	0.0006394
2712.13	0.0006018
2723.7	0.000589
2735.28	0.0005715
2746.85	0.0005936
2758.43	0.0006081
2770	0.0007834
2781.57	0.0009233
2793.15	0.001309
2804.72	0.002089
2816.3	0.003519
2827.87	0.004559
2839.44	0.003939
2851.02	0.002779
2862.59	0.002129
2874.17	0.002369
2885.74	0.004649
2897.31	0.011549
2908.89	0.019579
2920.46	0.014539
2932.04	0.005889
2943.61	0.004509
2955.18	0.010499
2966.76	0.020099
2978.33	0.019079
2989.91	0.011409
3001.48	0.007499
3013.05	0.008339
3024.63	0.008809
3036.2	0.007679
3047.78	0.011079
3059.35	0.022449
3070.92	0.025319
3082.5	0.017579
3094.07	0.010609
3105.65	0.004379
3117.22	0.002189
3128.79	0.001979
3140.37	0.002029
3151.94	0.001639
3163.52	0.001309
3175.09	0.0010917
3186.66	0.0009652
3198.24	0.0008636
3209.81	0.0007491
3221.39	0.0008141
3232.96	0.0007967
3244.53	0.0006855
3256.11	0.0006148
3267.68	0.0005952
3279.26	0.0006251
3290.83	0.0005236
3302.4	0.0005511
3313.98	0.0005962
3325.55	0.0004531
3337.13	0.0004634
3348.7	0.0004526
3360.27	0.00043
3371.85	0.0004886
3383.42	0.0004007
3395	0.0004282
3406.57	0.0004217
3418.14	0.000368
3429.72	0.0005279
3441.29	0.0004215
3452.86	0.0004641
3464.44	0.00034344
3476.01	0.00032139
3487.59	0.0004289
3499.16	0.0003738
3510.73	0.00030168
3522.31	0.000363
3533.88	0.0003964
3545.46	0.000377
3557.03	0.0003334
3568.6	0.0003941
3580.18	0.00028795
3591.75	0.0003574
3603.33	0.0003932
3614.9	0.0004199
3626.47	0.0004642
3638.05	0.0006097
3649.62	0.0005016
3661.2	0.0005246
3672.77	0.0005722
3684.34	0.000638
3695.92	0.0007128
3707.49	0.0005533
3719.07	0.0005861
3730.64	0.0005782
3742.21	0.0005671
3753.79	0.0007457
3765.36	0.0006981
3776.94	0.0006545
3788.51	0.0005287
3800.08	0.0006602
3811.66	0.0005571
3823.23	0.000615
3834.81	0.0005913
3846.38	0.0005081
3857.95	0.0005242
3869.53	0.0004961
3881.1	0.0003977
3892.68	0.0005708
3904.25	0.0005325
3915.82	0.0005565
3927.4	0.0005627
3938.97	0.0004776
3950.55	0.0004707
3962.12	0.000423
3973.69	0.0004728
3985.27	0.0005539
3996.84	0.000469
