Infrared Spectrum: Toluene, 4-chloro-3-iodo-Alpha,Alpha,Alpha-trifluoro-
Formula: C7 H3 Cl F3 I
CAS: 672-57-1
State: SOLUTION (10% CCl4 FOR 3800-1330, 10% CS2 FOR 1330-450 CM^-^1)
Class: COBLENTZ III
Instrument: DOW KBr FOREPRISM-GRATING
Instrument parameters: BLAZED AT 3.5, 12.0, 20.0 MICRON AND CHANGED AT 5.0, 7.5, 14.9 MICRON
Sampling: TRANSMISSION
Path length: 0.010 CM, 0.010 CM
Resolution: 2
Origin: DOW CHEMICAL COMPANY
1/CM	TRANSMITTANCE
458	0.7332
467	0.7408
476	0.7501
485	0.7561
494	0.7584
503	0.7595
512	0.7581
521	0.7419
530	0.2618
539	0.7573
548	0.7744
557	0.7846
566	0.79
575	0.7927
584	0.7935
593	0.7953
602	0.7975
611	0.792
620	0.6813
629	0.8002
638	0.798
647	0.7696
656	0.5654
665	0.7819
674	0.8134
683	0.7694
692	0.7852
701	0.8106
710	0.4232
719	0.8164
728	0.8326
737	0.8362
746	0.8391
755	0.8342
764	0.8309
773	0.841
782	0.8322
791	0.7628
800	0.7717
809	0.5011
818	0.5746
827	0.311
836	0.7781
845	0.7567
854	0.6915
863	0.7113
872	0.7451
881	0.7354
890	0.2566
899	0.6457
908	0.8334
917	0.8461
926	0.8475
935	0.8419
944	0.8364
953	0.8391
962	0.8476
971	0.8536
980	0.8548
989	0.8461
998	0.8351
1007	0.7637
1016	0.3606
1025	0.4429
1034	0.7963
1043	0.8044
1052	0.7964
1061	0.7418
1070	0.1942
1079	0.5259
1088	0.7257
1097	0.7089
1106	0.6446
1115	0.2446
1124	0.1998
1133	0.0054
1142	0.0528
1151	0.4266
1160	0.3954
1169	0.0135
1178	0.2785
1187	0.4921
1196	0.7458
1205	0.7971
1214	0.8063
1223	0.7857
1232	0.7752
1241	0.7788
1250	0.5921
1259	0.2667
1268	0.6717
1277	0.7206
1286	0.7228
1295	0.6064
1304	0.2565
1313	0.0123
1322	0.2289
1331	0.3214
1340	0.2553
1349	0.7535
1358	0.8165
1367	0.8051
1376	0.4396
1385	0.5945
1394	0.695
1403	0.8471
1412	0.8476
1421	0.8219
1430	0.8379
1439	0.8518
1448	0.8468
1457	0.8363
1466	0.6991
1475	0.7532
1484	0.7967
1493	0.7914
1502	0.7562
1511	0.7031
1520	0.6646
1529	0.6332
1538	0.5564
1547	0.4666
1556	0.4822
1565	0.5495
1574	0.5974
1583	0.5862
1592	0.4707
1601	0.6381
1610	0.6835
1619	0.8323
1628	0.8462
1637	0.8487
1646	0.8451
1655	0.8346
1664	0.8636
1673	0.8713
1682	0.8702
1691	0.8654
1700	0.8756
1709	0.8827
1718	0.8835
1727	0.8827
1736	0.8816
1745	0.8791
1754	0.8751
1763	0.8685
1772	0.8484
1781	0.8364
1790	0.8528
1799	0.8776
1808	0.8776
1817	0.8763
1826	0.8734
1835	0.8699
1844	0.8675
1853	0.8723
1862	0.8761
1871	0.8767
1880	0.8758
1889	0.8729
1898	0.8588
1907	0.8333
1916	0.8737
1925	0.8773
1934	0.8755
1943	0.8751
1952	0.8794
1961	0.8781
1970	0.8743
1979	0.8722
1988	0.8732
1997	0.8832
2006	0.9037
2015	0.907
2024	0.9078
2033	0.9085
2042	0.9096
2051	0.9104
2060	0.9108
2069	0.911
2078	0.9112
2087	0.9117
2096	0.9117
2105	0.9116
2114	0.9099
2123	0.9027
2132	0.9045
2141	0.9126
2150	0.914
2159	0.9146
2168	0.9144
2177	0.9137
2186	0.9129
2195	0.9121
2204	0.9105
2213	0.9067
2222	0.9052
2231	0.9085
2240	0.9091
2249	0.9073
2258	0.9037
2267	0.8993
2276	0.8947
2285	0.8893
2294	0.8876
2303	0.8894
2312	0.8918
2321	0.8955
2330	0.9032
2339	0.9088
2348	0.9091
2357	0.9092
2366	0.9094
2375	0.9096
2384	0.9098
2393	0.9093
2402	0.9088
2411	0.9082
2420	0.9077
2429	0.9072
2438	0.9067
2447	0.9061
2456	0.9052
2465	0.905
2474	0.9068
2483	0.9075
2492	0.9059
2501	0.9051
2510	0.9041
2519	0.9029
2528	0.9006
2537	0.898
2546	0.8958
2555	0.8953
2564	0.9003
2573	0.9023
2582	0.9019
2591	0.9015
2600	0.9012
2609	0.8994
2618	0.8975
2627	0.8957
2636	0.8958
2645	0.8968
2654	0.8988
2663	0.8997
2672	0.899
2681	0.8982
2690	0.8974
2699	0.8965
2708	0.8956
2717	0.8947
2726	0.8939
2735	0.8932
2744	0.893
2753	0.8927
2762	0.8924
2771	0.8923
2780	0.8921
2789	0.8919
2798	0.8916
2807	0.8912
2816	0.8904
2825	0.889
2834	0.8877
2843	0.886
2852	0.884
2861	0.882
2870	0.8811
2879	0.8805
2888	0.8791
2897	0.8752
2906	0.8729
2915	0.8733
2924	0.8739
2933	0.8758
2942	0.8781
2951	0.8782
2960	0.8783
2969	0.8776
2978	0.8788
2987	0.8842
2996	0.8864
3005	0.8853
3014	0.8833
3023	0.8798
3032	0.8765
3041	0.8736
3050	0.8748
3059	0.8732
3068	0.8663
3077	0.8603
3086	0.8596
3095	0.8602
3104	0.8631
3113	0.8711
3122	0.877
3131	0.8804
3140	0.8817
3149	0.8824
3158	0.883
3167	0.8835
3176	0.8841
3185	0.8846
3194	0.8852
3203	0.885
3212	0.8852
3221	0.8854
3230	0.8853
3239	0.8846
3248	0.8833
3257	0.8817
3266	0.8806
3275	0.8795
3284	0.8785
3293	0.8774
3302	0.8764
3311	0.8755
3320	0.8746
3329	0.8737
3338	0.8729
3347	0.8722
3356	0.8717
3365	0.8711
3374	0.8705
3383	0.8702
3392	0.8699
3401	0.8696
3410	0.8693
3419	0.8695
3428	0.8697
3437	0.8699
3446	0.8701
3455	0.8703
3464	0.8705
3473	0.8706
3482	0.8709
3491	0.871
3500	0.8714
3509	0.8717
3518	0.872
3527	0.8723
3536	0.8726
3545	0.8729
3554	0.873
3563	0.8732
3572	0.8733
3581	0.8734
3590	0.8736
3599	0.8735
3608	0.8732
3617	0.8729
3626	0.8726
3635	0.8723
3644	0.872
3653	0.8718
3662	0.8718
3671	0.8718
3680	0.8717
3689	0.8717
3698	0.8717
3707	0.8711
3716	0.8707
3725	0.8705
3734	0.8712
3743	0.8718
3752	0.872
3761	0.8721
3770	0.8722
3779	0.8721
3788	0.8719
3797	0.8717
3806	0.8715
