Infrared Spectrum: Uracil, 6-(trifluoromethyl)-,
Formula: C5 H3 F3 N2 O2
CAS: 672-45-7
State: SOLID (0.8 mg / 650 mg KBr DISC)
Class: COBLENTZ III
Instrument: PERKIN-ELMER 21 (GRATING)
Instrument parameters: FILTER CHANGE ABOUT 1020 CM^-^1
Resolution: 2
Origin: SOUTHERN RESEARCH INSTITUTE
1/CM	TRANSMITTANCE
603	0.6806
612	0.6788
621	0.6761
630	0.6727
639	0.6699
648	0.6707
657	0.672
666	0.6736
675	0.6836
684	0.6816
693	0.6786
702	0.6656
711	0.6402
720	0.5609
729	0.4169
738	0.6686
747	0.6315
756	0.503
765	0.5729
774	0.5528
783	0.5237
792	0.4906
801	0.4908
810	0.5206
819	0.5588
828	0.5447
837	0.3194
846	0.5088
855	0.6458
864	0.6591
873	0.6447
882	0.609
891	0.5861
900	0.6197
909	0.6841
918	0.7445
927	0.7617
936	0.7648
945	0.7627
954	0.7519
963	0.7209
972	0.6566
981	0.4983
990	0.3747
999	0.6176
1008	0.7438
1017	0.7854
1026	0.7787
1035	0.7866
1044	0.7801
1053	0.7735
1062	0.7638
1071	0.7497
1080	0.73
1089	0.6861
1098	0.4068
1107	0.4702
1116	0.6821
1125	0.6183
1134	0.5504
1143	0.316
1152	0.1441
1161	0.0806
1170	0.2338
1179	0.3663
1188	0.3509
1197	0.1426
1206	0.0454
1215	0.0709
1224	0.2638
1233	0.4143
1242	0.51
1251	0.5825
1260	0.3158
1269	0.1181
1278	0.3195
1287	0.6103
1296	0.7119
1305	0.7417
1314	0.7396
1323	0.7176
1332	0.6584
1341	0.5678
1350	0.3629
1359	0.2003
1368	0.1639
1377	0.4264
1386	0.6033
1395	0.5998
1404	0.5772
1413	0.5174
1422	0.3802
1431	0.3768
1440	0.4167
1449	0.6248
1458	0.6516
1467	0.6599
1476	0.6573
1485	0.6402
1494	0.6009
1503	0.4845
1512	0.3917
1521	0.3719
1530	0.472
1539	0.6409
1548	0.653
1557	0.6467
1566	0.622
1575	0.5885
1584	0.5469
1593	0.5007
1602	0.43
1611	0.351
1620	0.2683
1629	0.1898
1638	0.1187
1647	0.088
1656	0.057
1665	0.0232
1674	0.0307
1683	0.0709
1692	0.1324
1701	0.1788
1710	0.1772
1719	0.1249
1728	0.0923
1737	0.1407
1746	0.1965
1755	0.2649
1764	0.3499
1773	0.4635
1782	0.5465
1791	0.5858
1800	0.6106
1809	0.6215
1818	0.63
1827	0.656
1836	0.7147
1845	0.7294
1854	0.7422
1863	0.7516
1872	0.756
1881	0.7589
1890	0.7606
1899	0.7611
1908	0.7603
1917	0.7598
1926	0.7669
1935	0.7795
1944	0.792
1953	0.7964
1962	0.8009
1971	0.8069
1980	0.8122
1989	0.8145
1998	0.8116
2007	0.8057
2016	0.8073
2025	0.8142
2034	0.8208
2043	0.8245
2052	0.8241
2061	0.8235
2070	0.8263
2079	0.8287
2088	0.8297
2097	0.8302
2106	0.8303
2115	0.8304
2124	0.8312
2133	0.833
2142	0.8355
2151	0.8378
2160	0.84
2169	0.8413
2178	0.8409
2187	0.841
2196	0.8418
2205	0.8418
2214	0.8419
2223	0.8417
2232	0.8406
2241	0.8378
2250	0.8354
2259	0.8358
2268	0.8358
2277	0.8358
2286	0.8359
2295	0.8366
2304	0.8371
2313	0.8374
2322	0.8373
2331	0.837
2340	0.8369
2349	0.8372
2358	0.837
2367	0.834
2376	0.8231
2385	0.8165
2394	0.8119
2403	0.8089
2412	0.8016
2421	0.7968
2430	0.7939
2439	0.794
2448	0.7935
2457	0.7932
2466	0.7963
2475	0.7976
2484	0.7978
2493	0.7936
2502	0.7832
2511	0.7782
2520	0.7712
2529	0.765
2538	0.7639
2547	0.7631
2556	0.7582
2565	0.7516
2574	0.7445
2583	0.7357
2592	0.7272
2601	0.7185
2610	0.7087
2619	0.6984
2628	0.6868
2637	0.6752
2646	0.6636
2655	0.6519
2664	0.6389
2673	0.6164
2682	0.5955
2691	0.572
2700	0.5523
2709	0.5415
2718	0.5363
2727	0.5312
2736	0.5165
2745	0.4761
2754	0.4383
2763	0.3982
2772	0.3643
2781	0.3351
2790	0.3124
2799	0.3011
2808	0.2946
2817	0.2897
2826	0.2871
2835	0.2875
2844	0.2955
2853	0.3143
2862	0.3257
2871	0.3268
2880	0.3246
2889	0.3166
2898	0.2945
2907	0.2794
2916	0.2718
2925	0.2674
2934	0.2645
2943	0.2622
2952	0.2614
2961	0.2536
2970	0.252
2979	0.2376
2988	0.2239
2997	0.2152
3006	0.2123
3015	0.2141
3024	0.2182
3033	0.2281
3042	0.2374
3051	0.2421
3060	0.2521
3069	0.2614
3078	0.2637
3087	0.2605
3096	0.2562
3105	0.2552
3114	0.255
3123	0.2554
3132	0.2564
3141	0.2648
3150	0.2707
3159	0.2776
3168	0.306
3177	0.3302
3186	0.3516
3195	0.3721
3204	0.3885
3213	0.4008
3222	0.4119
3231	0.4215
3240	0.4354
3249	0.4592
3258	0.4777
3267	0.4988
3276	0.5107
3285	0.5198
3294	0.5289
3303	0.5346
3312	0.5399
3321	0.5406
3330	0.5398
3339	0.5383
3348	0.5349
3357	0.5303
3366	0.5242
3375	0.5177
3384	0.5109
3393	0.5048
3402	0.5011
3411	0.4999
3420	0.4998
3429	0.501
3438	0.5014
3447	0.5021
3456	0.5045
3465	0.5156
3474	0.5197
3483	0.5245
3492	0.5308
3501	0.5364
3510	0.5499
3519	0.5639
3528	0.5736
3537	0.5825
3546	0.5955
3555	0.6109
3564	0.6214
3573	0.6322
3582	0.6422
3591	0.6525
3600	0.6688
3609	0.6812
3618	0.6927
3627	0.709
3636	0.7148
3645	0.7179
3654	0.7238
3663	0.7285
3672	0.7304
3681	0.7302
3690	0.7323
3699	0.7394
3708	0.7388
3717	0.7383
3726	0.7407
3735	0.7413
3744	0.7426
3753	0.7454
3762	0.7468
3771	0.7479
3780	0.7488
3789	0.7499
3798	0.7495
3807	0.7463
3816	0.7415
3825	0.7413
3834	0.7421
3843	0.7431
3852	0.7437
3861	0.7426
3870	0.7415
3879	0.7418
3888	0.7412
3897	0.7398
