Infrared Spectrum: Quinoline, 8,8'-(ethylenediimino)di-
Formula: C20 H18 N4
CAS: 67201-67-6
State: SOLID (SPLIT MULL), FLUOROLUBE FOR 3800-1330 CM^-^1, NUJOL FOR 1330-400 CM^-^1
Class: COBLENTZ III
Instrument: DOW KBr FOREPRISM-GRATING
Instrument parameters: BLAZED AT 3.5, 12.0, 20.0 MICRON AND CHANGED AT 5.0, 7.5, 14.9 MICRON
Sampling: TRANSMISSION
Resolution: 2
Origin: DOW CHEMICAL COMPANY
1/CM	TRANSMITTANCE
385	0.6378
394	0.6379
403	0.6395
412	0.6405
421	0.6408
430	0.6365
439	0.6406
448	0.6131
457	0.7049
466	0.6947
475	0.7251
484	0.7357
493	0.7664
502	0.7608
511	0.8141
520	0.8115
529	0.8058
538	0.7526
547	0.8177
556	0.8312
565	0.8359
574	0.8362
583	0.8413
592	0.8497
601	0.8447
610	0.8433
619	0.8414
628	0.7644
637	0.6798
646	0.8025
655	0.808
664	0.8252
673	0.8282
682	0.8289
691	0.8239
700	0.815
709	0.7544
718	0.7897
727	0.7631
736	0.7532
745	0.6394
754	0.3595
763	0.7541
772	0.8418
781	0.7703
790	0.2626
799	0.764
808	0.6159
817	0.6276
826	0.6071
835	0.841
844	0.8526
853	0.8549
862	0.8563
871	0.8587
880	0.8533
889	0.8323
898	0.8358
907	0.8342
916	0.8223
925	0.8162
934	0.7819
943	0.8198
952	0.8136
961	0.7714
970	0.8012
979	0.8113
988	0.8142
997	0.8114
1006	0.808
1015	0.7993
1024	0.7913
1033	0.7864
1042	0.7956
1051	0.7928
1060	0.7776
1069	0.7668
1078	0.6723
1087	0.7723
1096	0.7642
1105	0.7465
1114	0.6914
1123	0.5495
1132	0.6109
1141	0.7542
1150	0.7628
1159	0.7627
1168	0.7516
1177	0.7344
1186	0.7365
1195	0.7245
1204	0.729
1213	0.6854
1222	0.646
1231	0.6063
1240	0.7192
1249	0.7108
1258	0.6861
1267	0.5886
1276	0.6737
1285	0.66
1294	0.6102
1303	0.5427
1312	0.6039
1321	0.5867
1330	0.5539
1339	0.4236
1348	0.6957
1357	0.6094
1366	0.5675
1375	0.3771
1384	0.1181
1393	0.7246
1402	0.7313
1411	0.7094
1420	0.5527
1429	0.6216
1438	0.668
1447	0.5739
1456	0.6606
1465	0.5735
1474	0.3131
1483	0.4895
1492	0.6381
1501	0.4862
1510	0.3089
1519	0.0605
1528	0.2218
1537	0.5444
1546	0.7247
1555	0.7615
1564	0.6644
1573	0.2025
1582	0.6738
1591	0.7197
1600	0.7464
1609	0.6415
1618	0.8727
1627	0.8736
1636	0.8717
1645	0.8709
1654	0.8658
1663	0.8597
1672	0.862
1681	0.863
1690	0.8578
1699	0.8492
1708	0.8461
1717	0.854
1726	0.8557
1735	0.846
1744	0.839
1753	0.8361
1762	0.8384
1771	0.8345
1780	0.8285
1789	0.8261
1798	0.8204
1807	0.8123
1816	0.8194
1825	0.8179
1834	0.8144
1843	0.8107
1852	0.8068
1861	0.7812
1870	0.8034
1879	0.8009
1888	0.7965
1897	0.7896
1906	0.7724
1915	0.7676
1924	0.7841
1933	0.7812
1942	0.7717
1951	0.7762
1960	0.7841
1969	0.7816
1978	0.7767
1987	0.7698
1996	0.773
2005	0.7707
2014	0.7682
2023	0.7647
2032	0.7611
2041	0.758
2050	0.7552
2059	0.7525
2068	0.7499
2077	0.7474
2086	0.7449
2095	0.7422
2104	0.7393
2113	0.7364
2122	0.7331
2131	0.7297
2140	0.7263
2149	0.723
2158	0.7198
2167	0.7164
2176	0.7127
2185	0.709
2194	0.7053
2203	0.7016
2212	0.6979
2221	0.6941
2230	0.6904
2239	0.6867
2248	0.6838
2257	0.6811
2266	0.6782
2275	0.6751
2284	0.6721
2293	0.6684
2302	0.6644
2311	0.6597
2320	0.655
2329	0.6517
2338	0.6519
2347	0.6508
2356	0.6499
2365	0.6483
2374	0.6462
2383	0.644
2392	0.6418
2401	0.6397
2410	0.6376
2419	0.6356
2428	0.6336
2437	0.6318
2446	0.6303
2455	0.6296
2464	0.6292
2473	0.6279
2482	0.6267
2491	0.6252
2500	0.6233
2509	0.6212
2518	0.6192
2527	0.617
2536	0.6148
2545	0.6126
2554	0.6102
2563	0.6077
2572	0.6052
2581	0.6026
2590	0.5998
2599	0.597
2608	0.5942
2617	0.5913
2626	0.5885
2635	0.5849
2644	0.5813
2653	0.5783
2662	0.5761
2671	0.5738
2680	0.5723
2689	0.5707
2698	0.5692
2707	0.5673
2716	0.5653
2725	0.5634
2734	0.5604
2743	0.557
2752	0.5535
2761	0.5495
2770	0.5456
2779	0.5418
2788	0.5372
2797	0.5303
2806	0.52
2815	0.5103
2824	0.4976
2833	0.4619
2842	0.4581
2851	0.4514
2860	0.4687
2869	0.4334
2878	0.3928
2887	0.4884
2896	0.5274
2905	0.526
2914	0.5223
2923	0.5212
2932	0.5189
2941	0.5084
2950	0.4877
2959	0.5141
2968	0.5163
2977	0.5136
2986	0.509
2995	0.4941
3004	0.4862
3013	0.4957
3022	0.4903
3031	0.4417
3040	0.4453
3049	0.4799
3058	0.4691
3067	0.5112
3076	0.5131
3085	0.5131
3094	0.5133
3103	0.5123
3112	0.5108
3121	0.5089
3130	0.5065
3139	0.504
3148	0.5011
3157	0.4983
3166	0.4954
3175	0.493
3184	0.4909
3193	0.4879
3202	0.4846
3211	0.4818
3220	0.4791
3229	0.4764
3238	0.4734
3247	0.4704
3256	0.4673
3265	0.4638
3274	0.4605
3283	0.4573
3292	0.454
3301	0.4505
3310	0.4469
3319	0.4431
3328	0.439
3337	0.4347
3346	0.4287
3355	0.418
3364	0.3916
3373	0.3358
3382	0.2162
3391	0.3731
3400	0.3871
3409	0.4099
3418	0.4431
3427	0.4445
3436	0.4421
3445	0.44
3454	0.4382
3463	0.4363
3472	0.4343
3481	0.4323
3490	0.4301
3499	0.4279
3508	0.4257
3517	0.4235
3526	0.4212
3535	0.4189
3544	0.4166
3553	0.4146
3562	0.4128
3571	0.411
3580	0.4092
3589	0.4077
3598	0.4062
3607	0.4046
3616	0.4034
3625	0.4021
3634	0.401
3643	0.3997
3652	0.3983
3661	0.3969
3670	0.3955
3679	0.394
3688	0.3926
3697	0.391
3706	0.3895
3715	0.388
3724	0.3865
3733	0.385
3742	0.3835
3751	0.382
3760	0.3805
3769	0.3785
3778	0.3767
3787	0.3758
3796	0.3747
