Infrared Spectrum: 2-ACETYLAMINOHEPTANE
Formula: C9 H19 N O
CAS: 67282-69-3
State: LIQUID
Class: COBLENTZ
Instrument: Not specified, most likely a prism, grating, or hybrid spectrometer.
Sampling: TRANSMISSION
Path length: CAPILLARY
Resolution: 4
MICROMETERS	TRANSMITTANCE
1.973	0.895
2.00717	0.894
2.04135	0.894
2.07552	0.894
2.10969	0.894
2.14386	0.894
2.17804	0.892
2.21221	0.89
2.24638	0.885
2.28055	0.873
2.31473	0.87
2.3489	0.872
2.38307	0.873
2.41724	0.873
2.45142	0.875
2.48559	0.877
2.51976	0.882
2.55394	0.889
2.58811	0.892
2.62228	0.889
2.65645	0.89
2.69063	0.878
2.7248	0.863
2.75897	0.848
2.79314	0.789
2.82732	0.731
2.86149	0.692
2.89566	0.677
2.92983	0.65
2.96401	0.492
2.99818	0.275
3.03235	0.181
3.06652	0.253
3.1007	0.405
3.13487	0.549
3.16904	0.631
3.20322	0.554
3.23739	0.492
3.27156	0.596
3.30573	0.601
3.33991	0.379
3.37408	0.152
3.40825	0.152
3.44242	0.371
3.4766	0.295
3.51077	0.492
3.54494	0.71
3.57911	0.784
3.61329	0.825
3.64746	0.831
3.68163	0.835
3.71581	0.848
3.74998	0.853
3.78415	0.865
3.81832	0.86
3.8525	0.86
3.88667	0.862
3.92084	0.87
3.95501	0.873
3.98919	0.878
4.02336	0.877
4.05753	0.877
4.0917	0.882
4.12588	0.88
4.16005	0.882
4.19422	0.882
4.22839	0.894
4.26257	0.897
4.29674	0.892
4.33091	0.884
4.36509	0.88
4.39926	0.88
4.43343	0.88
4.4676	0.882
4.50178	0.88
4.53595	0.873
4.57012	0.875
4.60429	0.873
4.63847	0.875
4.67264	0.88
4.70681	0.882
4.74098	0.884
4.77516	0.884
4.80933	0.884
4.8435	0.882
4.87768	0.882
4.91185	0.882
4.94602	0.884
4.98019	0.882
5.01437	0.882
5.04854	0.882
5.08271	0.884
5.11688	0.884
5.15106	0.88
5.18523	0.884
5.2194	0.882
5.25357	0.884
5.28775	0.88
5.32192	0.882
5.35609	0.884
5.39026	0.884
5.42444	0.884
5.45861	0.884
5.49278	0.877
5.52696	0.877
5.56113	0.875
5.5953	0.873
5.62947	0.87
5.66365	0.867
5.69782	0.858
5.73199	0.853
5.76616	0.848
5.80034	0.838
5.83451	0.82
5.86868	0.801
5.90285	0.788
5.93703	0.726
5.9712	0.522
6.00537	0.287
6.03955	0.078
6.07372	0.02
6.10789	0.015
6.14206	0.047
6.17624	0.154
6.21041	0.322
6.24458	0.473
6.27875	0.495
6.31293	0.467
6.3471	0.349
6.38127	0.211
6.41544	0.127
6.44962	0.082
6.48379	0.085
6.51796	0.151
6.55213	0.236
6.58631	0.314
6.62048	0.388
6.65465	0.442
6.68883	0.487
6.723	0.519
6.75717	0.539
6.79134	0.549
6.82552	0.463
6.85969	0.331
6.89386	0.294
6.92803	0.3
6.96221	0.322
6.99638	0.357
7.03055	0.426
7.06472	0.49
7.0989	0.542
7.13307	0.581
7.16724	0.593
7.20142	0.598
7.23559	0.568
7.26976	0.45
7.30393	0.28
7.33811	0.218
7.37228	0.381
7.40645	0.551
7.44062	0.605
7.4748	0.636
7.50897	0.652
7.54314	0.65
7.57731	0.647
7.61149	0.628
7.64566	0.576
7.67983	0.505
7.71401	0.453
7.74818	0.426
7.78235	0.416
7.81652	0.458
7.8507	0.536
7.88487	0.589
7.91904	0.628
7.95321	0.657
7.98739	0.692
8.02156	0.721
8.05573	0.751
8.0899	0.757
8.12408	0.742
8.15825	0.742
8.19242	0.766
8.22659	0.779
8.26077	0.788
8.29494	0.778
8.32911	0.751
8.36329	0.741
8.39746	0.749
8.43163	0.783
8.4658	0.8
8.49998	0.801
8.53415	0.798
8.56832	0.781
8.60249	0.705
8.63667	0.598
8.67084	0.521
8.70501	0.514
8.73918	0.549
8.77336	0.606
8.80753	0.626
8.8417	0.65
8.87588	0.687
8.91005	0.702
8.94422	0.712
8.97839	0.715
9.01257	0.744
9.04674	0.786
9.08091	0.81
9.11508	0.82
9.14926	0.825
9.18343	0.826
9.2176	0.82
9.25177	0.805
9.28595	0.798
9.32012	0.784
9.35429	0.796
9.38846	0.8
9.42264	0.801
9.45681	0.803
9.49098	0.8
9.52516	0.798
9.55933	0.783
9.5935	0.759
9.62767	0.734
9.66185	0.714
9.69602	0.712
9.73019	0.741
9.76436	0.771
9.79854	0.789
9.83271	0.796
9.86688	0.796
9.90105	0.8
9.93523	0.8
9.9694	0.808
10.0036	0.82
10.0377	0.82
10.0719	0.825
10.1061	0.826
10.1403	0.826
10.1744	0.823
10.2086	0.798
10.2428	0.764
10.277	0.715
10.3111	0.697
10.3453	0.707
10.3795	0.731
10.4136	0.736
10.4478	0.747
10.482	0.749
10.5162	0.771
10.5503	0.779
10.5845	0.794
10.6187	0.8
10.6529	0.805
10.687	0.818
10.7212	0.828
10.7554	0.835
10.7895	0.84
10.8237	0.842
10.8579	0.836
10.8921	0.835
10.9262	0.826
10.9604	0.831
10.9946	0.835
11.0288	0.843
11.0629	0.842
11.0971	0.843
11.1313	0.845
11.1654	0.843
11.1996	0.842
11.2338	0.842
11.268	0.842
11.3021	0.848
11.3363	0.847
11.3705	0.848
11.4047	0.845
11.4388	0.847
11.473	0.85
11.5072	0.85
11.5413	0.847
11.5755	0.842
11.6097	0.842
11.6439	0.843
11.678	0.847
11.7122	0.84
11.7464	0.843
11.7806	0.843
11.8147	0.838
11.8489	0.838
11.8831	0.836
11.9172	0.831
11.9514	0.821
11.9856	0.8
12.0198	0.81
12.0539	0.811
12.0881	0.811
12.1223	0.813
12.1564	0.811
12.1906	0.81
12.2248	0.815
12.259	0.81
12.2931	0.81
12.3273	0.81
12.3615	0.806
12.3957	0.798
12.4298	0.798
12.464	0.794
12.4982	0.796
12.5323	0.791
12.5665	0.789
12.6007	0.786
12.6349	0.776
12.669	0.771
12.7032	0.768
12.7374	0.761
12.7716	0.752
12.8057	0.747
12.8399	0.739
12.8741	0.736
12.9082	0.722
12.9424	0.717
12.9766	0.699
13.0108	0.69
13.0449	0.689
13.0791	0.682
13.1133	0.678
13.1475	0.675
13.1816	0.673
13.2158	0.668
13.25	0.66
13.2841	0.662
13.3183	0.657
13.3525	0.645
13.3867	0.642
13.4208	0.64
13.455	0.631
13.4892	0.62
13.5234	0.618
13.5575	0.603
13.5917	0.6
13.6259	0.584
13.66	0.571
13.6942	0.564
13.7284	0.551
13.7626	0.546
13.7967	0.542
13.8309	0.542
13.8651	0.547
13.8993	0.564
13.9334	0.573
13.9676	0.581
14.0018	0.586
14.0359	0.591
14.0701	0.589
14.1043	0.593
14.1385	0.594
14.1726	0.594
14.2068	0.603
14.241	0.606
14.2752	0.608
14.3093	0.611
14.3435	0.613
14.3777	0.611
14.4118	0.613
14.446	0.613
14.4802	0.615
14.5144	0.616
14.5485	0.615
14.5827	0.615
14.6169	0.615
14.6511	0.615
14.6852	0.613
14.7194	0.62
14.7536	0.615
14.7877	0.615
14.8219	0.611
14.8561	0.613
14.8903	0.611
14.9244	0.613
14.9586	0.606
14.9928	0.611
15.027	0.61
15.0611	0.605
15.0953	0.601
15.1295	0.601
15.1636	0.601
15.1978	0.598
15.232	0.591
15.2662	0.588
15.3003	0.584
15.3345	0.583
15.3687	0.578
15.4029	0.573
15.437	0.568
15.4712	0.563
