Infrared Spectrum: trans-2-Hexenal
Formula: C 6 H 10 O
CAS: 6728-26-3
State: gas
Instrument: HP-GC/MS/IRD
Origin: NIST Mass Spectrometry Data Center
1/CM	ABSORBANCE
550	0.0002405
562	0.0004884
574	0.0004107
586	0.0001776
598	0.0001924
610	0.0001036
622	0.0001332
634	9.62e-05
646	2.22e-05
658	5.18e-05
670	0.0001406
682	0.000111
694	0.0002627
706	0.0005032
718	0.0006216
730	0.0005994
742	0.0004884
754	0.0003848
766	0.00037
778	0.0004033
790	0.0003996
802	0.0003034
814	0.0002035
826	0.0001998
838	0.0002257
850	0.0003219
862	0.0004662
874	0.0006327
886	0.0006068
898	0.000518
910	0.0005106
922	0.0006475
934	0.0010212
946	0.0017834
958	0.0027454
970	0.0035853
982	0.0036741
994	0.0028638
1006	0.0019758
1018	0.0014097
1030	0.00148
1042	0.0019684
1054	0.0020942
1066	0.0020794
1078	0.002886
1090	0.0035927
1102	0.0029896
1114	0.0023606
1126	0.0031672
1138	0.0047175
1150	0.0045288
1162	0.0021756
1174	0.0007881
1186	0.0004329
1198	0.0003663
1210	0.0002886
1222	0.0002257
1234	0.0001961
1246	0.0002627
1258	0.0003626
1270	0.000555
1282	0.0007252
1294	0.0008584
1306	0.0008917
1318	0.0007178
1330	0.0007844
1342	0.0008399
1354	0.0005735
1366	0.0004255
1378	0.0006364
1390	0.0008843
1402	0.0008029
1414	0.0006401
1426	0.0007807
1438	0.00111
1450	0.0013357
1462	0.0013542
1474	0.0010767
1486	0.0007215
1498	0.0004588
1510	0.0003293
1522	0.000259
1534	0.0002368
1546	0.0002516
1558	0.0003182
1570	0.0003885
1582	0.000481
1594	0.0007289
1606	0.0012654
1618	0.0029082
1630	0.0048544
1642	0.0044585
1654	0.0026714
1666	0.0023421
1678	0.003219
1690	0.0058756
1702	0.0219743
1714	0.0365227
1726	0.0184445
1738	0.004033
1750	0.0019277
1762	0.0010508
1774	0.0006623
1786	0.0004551
1798	0.0003182
1810	0.0002553
1822	0.0002109
1834	0.0001924
1846	0.0001961
1858	0.0001887
1870	0.0001813
1882	0.0001591
1894	0.0001295
1906	0.0001073
1918	9.25e-05
1930	7.4e-05
1942	6.66e-05
1954	8.14e-05
1966	8.88e-05
1978	0.0001147
1990	0.0001221
2002	9.62e-05
2014	6.29e-05
2026	5.92e-05
2038	4.81e-05
2050	4.07e-05
2062	4.81e-05
2074	4.81e-05
2086	6.29e-05
2098	5.55e-05
2110	4.44e-05
2122	6.29e-05
2134	7.77e-05
2146	0.0001036
2158	0.0001036
2170	0.0001221
2182	0.0001332
2194	0.0001073
2206	7.4e-05
2218	9.99e-05
2230	7.4e-05
2242	4.44e-05
2254	4.07e-05
2266	2.22e-05
2278	5.92e-05
2290	2.22e-05
2302	2.96e-05
2314	4.81e-05
2326	3.7e-05
2338	5.18e-05
2350	4.81e-05
2362	3.7e-05
2374	4.44e-05
2386	4.81e-05
2398	5.92e-05
2410	3.7e-05
2422	2.59e-05
2434	1.85e-05
2446	1.85e-05
2458	4.44e-05
2470	0
2482	1.11e-05
2494	3.7e-05
2506	6.29e-05
2518	3.33e-05
2530	6.66e-05
2542	8.88e-05
2554	7.4e-05
2566	0.000111
2578	0.0001295
2590	0.0001443
2602	0.0001924
2614	0.0002368
2626	0.0002923
2638	0.0003737
2650	0.000518
2662	0.0007511
2674	0.00111
2686	0.0016465
2698	0.0022977
2710	0.003071
2722	0.0037518
2734	0.0040404
2746	0.0033263
2758	0.0022644
2770	0.0019536
2782	0.0022977
2794	0.003071
2806	0.0036963
2818	0.0037851
2830	0.0033596
2842	0.0026936
2854	0.0024864
2866	0.0029378
2878	0.0040959
2890	0.0045473
2902	0.0041958
2914	0.0046287
2926	0.0059052
2938	0.0080253
2950	0.0085581
2962	0.0082954
2974	0.0089318
2986	0.006771
2998	0.0036371
3010	0.002257
3022	0.0016428
3034	0.001406
3046	0.0012099
3058	0.0009435
3070	0.0007178
3082	0.0005032
3094	0.0004181
3106	0.0003626
3118	0.0003293
3130	0.0002664
3142	0.000222
3154	0.0002035
3166	0.0001517
3178	0.0001887
3190	0.0001258
3202	0.0001369
3214	0.0001184
3226	0.0001295
3238	0.0001073
3250	0.0001036
3262	5.92e-05
3274	9.25e-05
3286	8.14e-05
3298	0.0001184
3310	8.14e-05
3322	0.0001221
3334	7.03e-05
3346	0.000148
3358	0.0001961
3370	0.0002109
3382	0.0002368
3394	0.0004366
3406	0.0007733
3418	0.0006327
3430	0.0002886
3442	0.0001887
3454	0.0001147
3466	0.0001036
3478	7.03e-05
3490	7.77e-05
3502	0
3514	0.0001036
3526	0.0001369
3538	4.07e-05
3550	5.55e-05
3562	8.88e-05
3574	8.51e-05
3586	5.55e-05
3598	1.85e-05
3610	0.0001036
3622	1.48e-05
3634	7.4e-05
3646	5.92e-05
3658	7.03e-05
3670	8.14e-05
3682	0.0001073
3694	5.18e-05
3706	9.62e-05
3718	9.99e-05
3730	9.62e-05
3742	6.66e-05
3754	0.0001221
3766	0.0001221
3778	0.0001295
3790	0.0001036
3802	0.0001221
3814	9.62e-05
3826	0.0001036
3838	9.25e-05
