Infrared Spectrum: 5-Chloro-5-methylnonane
Formula: C 10 H 21 Cl
CAS: 67282-24-0
State: gas
Instrument: HP-GC/MS/IRD
Origin: NIST Mass Spectrometry Data Center
1/CM	ABSORBANCE
550	0.0008976
562	0.0007378
574	0.0013498
586	0.0010846
598	0.0004556
610	0.00068
622	0.001462
634	0.0012716
646	0.0002856
658	2.38e-05
670	7.82e-05
682	3.4e-05
694	0.0001496
706	0.000136
718	0.0003332
730	0.0007174
742	0.0010132
754	0.0009418
766	0.0006834
778	0.0005882
790	0.0005814
802	0.0004658
814	0.000578
826	0.0007548
838	0.000731
850	0.0005032
862	0.0003298
874	0.000425
886	0.000527
898	0.0006596
910	0.0004998
922	0.0004182
934	0.000459
946	0.0005406
958	0.0003808
970	0.0001972
982	0.0001292
994	0.0002244
1006	0.0006494
1018	0.0013158
1030	0.00102
1042	0.0006392
1054	0.0007548
1066	0.000952
1078	0.001054
1090	0.0009622
1102	0.0009282
1114	0.0012852
1126	0.0021488
1138	0.0020094
1150	0.0015776
1162	0.0013804
1174	0.0011492
1186	0.000867
1198	0.0006086
1210	0.0006562
1222	0.0010506
1234	0.0012308
1246	0.0011526
1258	0.0011798
1270	0.0009758
1282	0.0007752
1294	0.0010132
1306	0.0011594
1318	0.0011526
1330	0.0013158
1342	0.0018156
1354	0.0014042
1366	0.0017102
1378	0.003893
1390	0.0035258
1402	0.0012342
1414	0.0009792
1426	0.0012342
1438	0.0021624
1450	0.0038896
1462	0.0052768
1474	0.0039066
1486	0.0014892
1498	0.0006868
1510	0.0004352
1522	0.0003026
1534	0.000187
1546	0.0001156
1558	9.18e-05
1570	7.14e-05
1582	7.48e-05
1594	9.52e-05
1606	0.0001088
1618	0.0001428
1630	0.0001904
1642	0.0002074
1654	0.0002516
1666	0.000204
1678	0.0001802
1690	0.0001598
1702	0.000153
1714	0.0001666
1726	0.0001462
1738	0.000153
1750	0.0001428
1762	0.0001224
1774	0.0001258
1786	0.0001122
1798	8.5e-05
1810	7.82e-05
1822	6.12e-05
1834	6.46e-05
1846	5.44e-05
1858	1.7e-05
1870	7.82e-05
1882	3.74e-05
1894	5.1e-05
1906	4.42e-05
1918	3.06e-05
1930	2.72e-05
1942	4.42e-05
1954	3.74e-05
1966	5.44e-05
1978	5.1e-05
1990	2.38e-05
2002	3.4e-05
2014	5.1e-05
2026	7.82e-05
2038	8.5e-05
2050	7.82e-05
2062	6.12e-05
2074	8.16e-05
2086	5.78e-05
2098	5.78e-05
2110	5.44e-05
2122	4.08e-05
2134	4.76e-05
2146	7.14e-05
2158	6.12e-05
2170	4.76e-05
2182	7.48e-05
2194	5.78e-05
2206	5.44e-05
2218	5.78e-05
2230	6.8e-05
2242	4.42e-05
2254	6.46e-05
2266	7.14e-05
2278	5.78e-05
2290	6.46e-05
2302	5.44e-05
2314	9.86e-05
2326	0.0001054
2338	8.84e-05
2350	9.52e-05
2362	0.0001462
2374	8.5e-05
2386	7.14e-05
2398	8.16e-05
2410	7.48e-05
2422	4.42e-05
2434	3.4e-05
2446	4.08e-05
2458	4.42e-05
2470	2.72e-05
2482	4.08e-05
2494	4.42e-05
2506	5.78e-05
2518	7.14e-05
2530	8.84e-05
2542	0.000102
2554	0.0001054
2566	0.000136
2578	0.0001598
2590	0.0001632
2602	0.0001598
2614	0.000187
2626	0.0002142
2638	0.0002244
2650	0.0002482
2662	0.0003332
2674	0.0003332
2686	0.0003468
2698	0.0003434
2710	0.0003706
2722	0.000442
2734	0.0005814
2746	0.0006732
2758	0.0006222
2770	0.0006528
2782	0.0008126
2794	0.001037
2806	0.0013532
2818	0.001768
2830	0.002431
2842	0.0038964
2854	0.0059296
2866	0.0107712
2878	0.0153544
2890	0.0138686
2902	0.0127228
2914	0.0153272
2926	0.020995
2938	0.0313004
2950	0.032793
2962	0.0319736
2974	0.0297194
2986	0.0142256
2998	0.0086564
3010	0.0042704
3022	0.0026792
3034	0.0019482
3046	0.0013906
3058	0.001156
3070	0.0010064
3082	0.0009248
3094	0.0008024
3106	0.0007446
3118	0.0006392
3130	0.0004726
3142	0.0004556
3154	0.0004114
3166	0.0003978
3178	0.000374
3190	0.0003536
3202	0.0003162
3214	0.000221
3226	0.0002346
3238	0.0001938
3250	0.0002074
3262	0.0001836
3274	0.000102
3286	8.84e-05
3298	0.0001156
3310	0.0001156
3322	0.000119
3334	8.84e-05
3346	9.18e-05
3358	0.0001054
3370	6.46e-05
3382	9.86e-05
3394	5.1e-05
3406	0.0001088
3418	7.82e-05
3430	3.06e-05
3442	2.72e-05
3454	4.42e-05
3466	8.16e-05
3478	5.44e-05
3490	7.14e-05
3502	2.72e-05
3514	6.8e-06
3526	0
3538	5.78e-05
3550	8.84e-05
3562	2.72e-05
3574	4.76e-05
3586	7.48e-05
3598	3.74e-05
3610	0.0001054
3622	3.4e-05
3634	6.46e-05
3646	8.5e-05
3658	7.14e-05
3670	7.14e-05
3682	6.12e-05
3694	8.16e-05
3706	4.76e-05
3718	7.48e-05
3730	9.52e-05
3742	0.0001156
3754	0.00017
3766	6.12e-05
3778	0.0001428
3790	9.52e-05
3802	0.0001428
3814	0.0001768
3826	0.0001394
3838	0.0001632
