Infrared Spectrum: CARBAMIC ACID, 3-PHENYLPROPYL ESTER
Formula: C10 H13 N O2
CAS: 673-31-4
State: SOLID (NUJOL MULL)
Class: COBLENTZ III
Instrument: PERKIN-ELMER 21 (GRATING)
Instrument parameters: NaCl PRISM
Sampling: TRANSMISSION
Resolution: 2
Origin: SMITH KLINE & FRENCH LABS.
MICROMETERS	TRANSMITTANCE
1.993	0.656
2.0272	0.661
2.06141	0.68
2.09561	0.672
2.12982	0.676
2.16402	0.691
2.19823	0.688
2.23243	0.698
2.26663	0.692
2.30084	0.683
2.33504	0.68
2.36925	0.682
2.40345	0.691
2.43765	0.684
2.47186	0.693
2.50606	0.706
2.54027	0.713
2.57447	0.72
2.60868	0.722
2.64288	0.738
2.67708	0.759
2.71129	0.755
2.74549	0.758
2.7797	0.764
2.8139	0.763
2.84811	0.752
2.88231	0.6
2.91651	0.3
2.95072	0.172
2.98492	0.203
3.01913	0.197
3.05333	0.224
3.08753	0.23
3.12174	0.297
3.15594	0.339
3.19015	0.477
3.22435	0.511
3.25856	0.518
3.29276	0.489
3.32696	0.439
3.36117	0.291
3.39537	0.07
3.42958	0.041
3.46378	0.04
3.49799	0.057
3.53219	0.061
3.56639	0.396
3.6006	0.597
3.6348	0.655
3.66901	0.665
3.70321	0.663
3.73741	0.694
3.77162	0.719
3.80582	0.727
3.84003	0.735
3.87423	0.75
3.90844	0.753
3.94264	0.759
3.97684	0.764
4.01105	0.768
4.04525	0.785
4.07946	0.793
4.11366	0.788
4.14787	0.793
4.18207	0.796
4.21627	0.799
4.25048	0.783
4.28468	0.783
4.31889	0.789
4.35309	0.799
4.38729	0.799
4.4215	0.8
4.4557	0.8
4.48991	0.796
4.52411	0.808
4.55832	0.804
4.59252	0.802
4.62672	0.8
4.66093	0.811
4.69513	0.811
4.72934	0.825
4.76354	0.83
4.79775	0.829
4.83195	0.83
4.86615	0.829
4.90036	0.822
4.93456	0.821
4.96877	0.81
5.00297	0.803
5.03717	0.798
5.07138	0.811
5.10558	0.809
5.13979	0.799
5.17399	0.83
5.2082	0.83
5.2424	0.822
5.2766	0.81
5.31081	0.802
5.34501	0.796
5.37922	0.808
5.41342	0.792
5.44762	0.771
5.48183	0.752
5.51603	0.724
5.55024	0.72
5.58444	0.702
5.61865	0.661
5.65285	0.623
5.68705	0.568
5.72126	0.542
5.75546	0.501
5.78967	0.428
5.82387	0.371
5.85808	0.301
5.89228	0.199
5.92648	0.12
5.96069	0.126
5.99489	0.229
6.0291	0.286
6.0633	0.351
6.0975	0.371
6.13171	0.313
6.16591	0.242
6.20012	0.201
6.23432	0.194
6.26853	0.36
6.30273	0.451
6.33693	0.482
6.37114	0.542
6.40534	0.579
6.43955	0.604
6.47375	0.609
6.50796	0.615
6.54216	0.632
6.57636	0.621
6.61057	0.62
6.64477	0.582
6.67898	0.428
6.71318	0.438
6.74738	0.35
6.78159	0.318
6.81579	0.164
6.85	0.092
6.8842	0.086
6.91841	0.129
6.95261	0.202
6.98681	0.213
7.02102	0.2
7.05522	0.192
7.08943	0.219
7.12363	0.378
7.15784	0.492
7.19204	0.484
7.22624	0.299
7.26045	0.199
7.29465	0.178
7.32886	0.148
7.36306	0.108
7.39726	0.186
7.43147	0.246
7.46567	0.222
7.49988	0.174
7.53408	0.178
7.56829	0.216
7.60249	0.241
7.63669	0.274
7.6709	0.316
7.7051	0.347
7.73931	0.366
7.77351	0.377
7.80772	0.404
7.84192	0.415
7.87612	0.416
7.91033	0.416
7.94453	0.421
7.97874	0.426
8.01294	0.438
8.04714	0.449
8.08135	0.457
8.11555	0.47
8.14976	0.487
8.18396	0.493
8.21817	0.5
8.25237	0.511
8.28657	0.504
8.32078	0.507
8.35498	0.516
8.38919	0.52
8.42339	0.501
8.4576	0.509
8.4918	0.512
8.526	0.514
8.56021	0.512
8.59441	0.521
8.62862	0.528
8.66282	0.518
8.69702	0.493
8.73123	0.499
8.76543	0.473
8.79964	0.423
8.83384	0.396
8.86805	0.44
8.90225	0.5
8.93645	0.561
8.97066	0.571
9.00486	0.561
9.03907	0.518
9.07327	0.39
9.10748	0.301
9.14168	0.186
9.17588	0.178
9.21009	0.181
9.24429	0.203
9.2785	0.247
9.3127	0.321
9.3469	0.288
9.38111	0.207
9.41531	0.217
9.44952	0.282
9.48372	0.322
9.51793	0.388
9.55213	0.432
9.58633	0.442
9.62054	0.482
9.65474	0.47
9.68895	0.49
9.72315	0.477
9.75736	0.532
9.79156	0.578
9.82576	0.595
9.85997	0.612
9.89417	0.62
9.92838	0.634
9.96258	0.634
9.99678	0.639
10.031	0.641
10.0652	0.663
10.0994	0.665
10.1336	0.664
10.1678	0.66
10.202	0.659
10.2362	0.664
10.2704	0.671
10.3046	0.667
10.3388	0.67
10.373	0.68
10.4072	0.695
10.4414	0.691
10.4756	0.698
10.5098	0.702
10.5441	0.711
10.5783	0.715
10.6125	0.721
10.6467	0.719
10.6809	0.72
10.7151	0.716
10.7493	0.715
10.7835	0.694
10.8177	0.652
10.8519	0.608
10.8861	0.61
10.9203	0.658
10.9545	0.669
10.9887	0.665
11.0229	0.702
11.0571	0.733
11.0913	0.752
11.1255	0.758
11.1597	0.76
11.1939	0.758
11.2281	0.764
11.2623	0.765
11.2965	0.765
11.3307	0.77
11.365	0.772
11.3992	0.775
11.4334	0.782
11.4676	0.776
11.5018	0.78
11.536	0.775
11.5702	0.772
11.6044	0.787
11.6386	0.778
11.6728	0.777
11.707	0.777
11.7412	0.78
11.7754	0.774
11.8096	0.774
11.8438	0.774
11.878	0.793
11.9122	0.793
11.9464	0.799
11.9806	0.799
12.0148	0.798
12.049	0.799
12.0832	0.8
12.1174	0.8
12.1516	0.8
12.1859	0.798
12.2201	0.791
12.2543	0.776
12.2885	0.777
12.3227	0.783
12.3569	0.78
12.3911	0.777
12.4253	0.754
12.4595	0.755
12.4937	0.758
12.5279	0.76
12.5621	0.759
12.5963	0.739
12.6305	0.671
12.6647	0.571
12.6989	0.5
12.7331	0.523
12.7673	0.622
12.8015	0.663
12.8357	0.704
12.8699	0.732
12.9041	0.749
12.9383	0.743
12.9726	0.742
13.0068	0.749
13.041	0.738
13.0752	0.728
13.1094	0.702
13.1436	0.645
13.1778	0.572
13.212	0.401
13.2462	0.249
13.2804	0.197
13.3146	0.196
13.3488	0.249
13.383	0.372
13.4172	0.488
13.4514	0.549
13.4856	0.6
13.5198	0.642
13.554	0.649
13.5882	0.663
13.6224	0.661
13.6566	0.665
13.6908	0.663
13.725	0.661
13.7592	0.667
13.7935	0.667
13.8277	0.658
13.8619	0.652
13.8961	0.648
13.9303	0.65
13.9645	0.66
13.9987	0.666
14.0329	0.66
14.0671	0.653
14.1013	0.611
14.1355	0.54
14.1697	0.429
14.2039	0.34
14.2381	0.218
14.2723	0.179
14.3065	0.175
14.3407	0.222
14.3749	0.283
14.4091	0.4
14.4433	0.454
14.4775	0.493
14.5117	0.514
14.5459	0.531
14.5801	0.543
14.6144	0.55
14.6486	0.553
14.6828	0.553
14.717	0.555
14.7512	0.553
14.7854	0.551
14.8196	0.545
14.8538	0.547
