Infrared Spectrum: 2-Ethyl-6-isopropylphenyl isothiocyanate
Formula: C 12 H 15 N S
CAS: 67330-54-5
State: gas
Origin: EPA-IR VAPOR PHASE LIBRARY
1/CM	ABSORBANCE
549.8	0.007505
559.445	0.008435
569.09	0.009575
578.734	0.007665
588.379	0.005425
598.024	0.004445
607.669	0.003865
617.313	0.004075
626.958	0.004215
636.603	0.002915
646.248	0.001455
655.893	0.001495
665.537	0.001385
675.182	0.001345
684.827	0.001545
694.472	0.002465
704.116	0.005065
713.761	0.006705
723.406	0.017455
733.051	0.043195
742.695	0.055135
752.34	0.026245
761.985	0.008415
771.63	0.007605
781.275	0.015465
790.919	0.021115
800.564	0.013145
810.209	0.005825
819.854	0.005015
829.498	0.006355
839.143	0.004655
848.788	0.002245
858.433	0.001765
868.078	0.001905
877.722	0.003055
887.367	0.006105
897.012	0.011065
906.657	0.017925
916.301	0.019355
925.946	0.027435
935.591	0.045815
945.236	0.038525
954.88	0.017155
964.525	0.009305
974.17	0.005715
983.815	0.003925
993.46	0.002595
1003.1	0.002175
1012.75	0.001505
1022.39	0.001505
1032.04	0.0011816
1041.68	0.002425
1051.33	0.005025
1060.97	0.006745
1070.62	0.003965
1080.26	0.001945
1089.91	0.002465
1099.55	0.003615
1109.2	0.004385
1118.84	0.002435
1128.49	0.001785
1138.13	0.0012333
1147.78	0.001725
1157.42	0.001865
1167.07	0.001835
1176.71	0.003015
1186.36	0.001765
1196	0.001715
1205.64	0.002195
1215.29	0.002445
1224.93	0.002985
1234.58	0.003425
1244.22	0.004725
1253.87	0.008575
1263.51	0.007895
1273.16	0.005415
1282.8	0.006685
1292.45	0.007145
1302.09	0.006085
1311.74	0.006695
1321.38	0.008515
1331.03	0.008905
1340.67	0.011405
1350.32	0.011725
1359.96	0.009255
1369.61	0.013925
1379.25	0.011035
1388.9	0.010965
1398.54	0.007205
1408.18	0.005875
1417.83	0.007865
1427.47	0.015185
1437.12	0.033565
1446.76	0.038805
1456.41	0.029265
1466.05	0.028355
1475.7	0.023895
1485.34	0.011495
1494.99	0.006015
1504.63	0.004205
1514.28	0.003335
1523.92	0.003175
1533.57	0.003625
1543.21	0.003515
1552.86	0.003675
1562.5	0.004275
1572.15	0.006725
1581.79	0.010815
1591.44	0.010455
1601.08	0.005625
1610.73	0.003945
1620.37	0.003665
1630.01	0.003385
1639.66	0.003305
1649.3	0.002615
1658.95	0.002185
1668.59	0.002245
1678.24	0.002665
1687.88	0.003285
1697.53	0.003425
1707.17	0.003595
1716.82	0.002875
1726.46	0.002395
1736.11	0.002265
1745.75	0.002405
1755.4	0.002395
1765.04	0.002275
1774.69	0.002295
1784.33	0.002905
1793.98	0.003665
1803.62	0.003025
1813.27	0.002615
1822.91	0.002885
1832.55	0.003315
1842.2	0.004005
1851.84	0.005475
1861.49	0.006675
1871.13	0.005555
1880.78	0.005025
1890.42	0.004635
1900.07	0.004615
1909.71	0.005215
1919.36	0.008205
1929	0.009835
1938.65	0.007805
1948.29	0.008905
1957.94	0.011695
1967.58	0.015925
1977.23	0.021755
1986.87	0.029415
1996.52	0.039265
2006.16	0.052485
2015.81	0.070505
2025.45	0.096825
2035.1	0.137185
2044.74	0.197285
2054.38	0.280385
2064.03	0.386325
2073.67	0.495575
2083.32	0.558185
2092.96	0.542525
2102.61	0.444465
2112.25	0.306825
2121.9	0.221595
2131.54	0.196135
2141.19	0.200945
2150.83	0.201365
2160.48	0.154635
2170.12	0.093945
2179.77	0.059315
2189.41	0.042755
2199.06	0.033205
2208.7	0.024075
2218.35	0.017395
2227.99	0.012785
2237.64	0.009265
2247.28	0.007015
2256.92	0.005745
2266.57	0.004985
2276.21	0.004425
2285.86	0.003985
2295.5	0.003655
2305.15	0.003625
2314.79	0.003715
2324.44	0.003325
2334.08	0.002875
2343.73	0.002895
2353.37	0.002995
2363.02	0.002885
2372.66	0.002975
2382.31	0.003155
2391.95	0.003425
2401.6	0.004265
2411.24	0.004545
2420.89	0.003955
2430.53	0.003935
2440.18	0.004305
2449.82	0.004705
2459.47	0.004825
2469.11	0.004425
2478.75	0.004295
2488.4	0.004235
2498.04	0.004325
2507.69	0.004415
2517.33	0.004465
2526.98	0.004415
2536.62	0.004335
2546.27	0.004535
2555.91	0.004435
2565.56	0.004325
2575.2	0.003975
2584.85	0.003825
2594.49	0.003575
2604.14	0.003115
2613.78	0.002975
2623.43	0.002855
2633.07	0.002835
2642.72	0.002795
2652.36	0.002565
2662.01	0.002375
2671.65	0.002435
2681.29	0.002575
2690.94	0.002725
2700.58	0.002875
2710.23	0.003015
2719.87	0.003095
2729.52	0.003425
2739.16	0.003485
2748.81	0.003215
2758.45	0.002905
2768.1	0.003245
2777.74	0.003635
2787.39	0.003825
2797.03	0.004485
2806.68	0.004925
2816.32	0.005645
2825.97	0.005885
2835.61	0.006315
2845.26	0.007075
2854.9	0.008975
2864.55	0.014145
2874.19	0.028895
2883.84	0.043255
2893.48	0.036685
2903.12	0.031085
2912.77	0.032515
2922.41	0.036535
2932.06	0.049525
2941.7	0.065525
2951.35	0.058655
2960.99	0.065885
2970.64	0.134555
2980.28	0.122455
2989.93	0.045945
2999.57	0.021465
3009.22	0.016935
3018.86	0.016085
3028.51	0.015235
3038.15	0.013455
3047.8	0.012965
3057.44	0.018515
3067.09	0.026475
3076.73	0.026355
3086.38	0.014165
3096.02	0.005645
3105.67	0.004045
3115.31	0.003565
3124.95	0.003075
3134.6	0.002785
3144.24	0.002805
3153.89	0.002565
3163.53	0.002225
3173.18	0.002215
3182.82	0.001905
3192.47	0.001535
3202.11	0.001275
3211.76	0.0010995
3221.4	0.0008503
3231.05	0.0008242
3240.69	0.0006273
3250.34	0.0005652
3259.98	0.0004181
3269.63	0.000469
3279.27	0.0005495
3288.92	0.0002296
3298.56	0.0001809
3308.21	0.0002159
3317.85	0.000176
3327.49	0.00014
3337.14	0.0001817
3346.78	0.00011
3356.43	0.000118
3366.07	0.0002023
3375.72	0.0002262
3385.36	0.000249
3395.01	0.0003652
3404.65	0.0001922
3414.3	0.0003731
3423.94	0.0001957
3433.59	0.00030372
3443.23	0.00035415
3452.88	0.0001708
3462.52	0.0001736
3472.17	0.00029745
3481.81	0.0002087
3491.46	0.000126
3501.1	0.0001926
3510.75	0.00031434
3520.39	0.000158
3530.04	0.0001764
3539.68	0.00027675
3549.32	0.000157
3558.97	0.00034321
3568.61	0.000105
3578.26	0.000129
3587.9	0.00025543
3597.55	0.000270249
3607.19	0.0002213
3616.84	0.0003772
3626.48	0.000134
3636.13	4.3e-05
3645.77	0.0002289
3655.42	0.0002065
3665.06	0.0002255
3674.71	0.0002275
3684.35	0.0003774
3694	0.000149
3703.64	0.00029477
3713.29	0.0003939
3722.93	0.0002264
3732.58	0.0004852
3742.22	0.0004609
3751.86	0.0004847
3761.51	0.0004741
3771.15	0.0004005
3780.8	0.0004046
3790.44	0.0003789
3800.09	0.0006302
3809.73	0.0006102
3819.38	0.0005493
3829.02	0.0004205
3838.67	0.00035603
3848.31	0.0004719
3857.96	0.0005611
3867.6	0.0005177
3877.25	0.0005088
3886.89	0.0006122
3896.54	0.0005489
3906.18	0.0005523
3915.83	0.0007263
3925.47	0.0007059
3935.12	0.0009058
3944.76	0.0008963
3954.41	0.0010181
3964.05	0.0008197
3973.69	0.0009915
3983.34	0.0010137
3992.98	0.0012454
