Infrared Spectrum: ANILINE, 4-tert-BUTYL-2,6-DIETHYL-
Formula: C14 H23 N
CAS: 67330-60-3
State: LIQUID (NEAT)
Class: COBLENTZ III
Instrument: BECKMAN IR-4 (HYBRID PRISM-GRATING)
Instrument parameters: NaCl PRISM
Sampling: TRANSMISSION
Path length: CAPILLARY
Resolution: 2
Origin: MONSANTO (J. FREEMAN)
1/CM	TRANSMITTANCE
3952.57	0.8878
3943.7	0.8885
3934.83	0.8893
3925.96	0.89
3917.09	0.8908
3908.22	0.8915
3899.35	0.8922
3890.48	0.8928
3881.61	0.8937
3872.74	0.8944
3863.87	0.895
3855	0.8955
3846.13	0.8959
3837.26	0.8962
3828.39	0.8967
3819.52	0.897
3810.65	0.8975
3801.78	0.898
3792.91	0.8983
3784.04	0.8988
3775.17	0.899
3766.3	0.8992
3757.43	0.8994
3748.56	0.8997
3739.69	0.9
3730.82	0.9002
3721.95	0.9002
3713.08	0.9003
3704.21	0.9004
3695.34	0.9004
3686.47	0.9005
3677.6	0.9005
3668.73	0.9006
3659.86	0.9007
3650.99	0.9005
3642.12	0.9004
3633.25	0.9001
3624.38	0.8999
3615.51	0.8997
3606.64	0.8991
3597.77	0.8986
3588.9	0.8981
3580.03	0.8977
3571.15	0.8971
3562.28	0.8963
3553.41	0.8953
3544.54	0.8933
3535.67	0.8903
3526.8	0.885
3517.93	0.8785
3509.06	0.8667
3500.19	0.8409
3491.32	0.811
3482.45	0.7813
3473.58	0.7636
3464.71	0.7639
3455.84	0.7748
3446.97	0.7875
3438.1	0.8002
3429.23	0.8111
3420.36	0.8121
3411.49	0.8091
3402.62	0.7744
3393.75	0.7298
3384.88	0.6994
3376.01	0.7079
3367.14	0.7308
3358.27	0.7539
3349.4	0.7773
3340.53	0.8008
3331.66	0.8243
3322.79	0.848
3313.92	0.8718
3305.05	0.8831
3296.18	0.8859
3287.31	0.8874
3278.44	0.8888
3269.57	0.8892
3260.7	0.8895
3251.83	0.889
3242.96	0.8881
3234.09	0.886
3225.22	0.8811
3216.35	0.8772
3207.48	0.8761
3198.61	0.8769
3189.74	0.8794
3180.87	0.8819
3172	0.8849
3163.13	0.8877
3154.26	0.8906
3145.39	0.8933
3136.52	0.8949
3127.65	0.896
3118.78	0.8967
3109.91	0.8959
3101.04	0.8919
3092.17	0.8825
3083.3	0.8686
3074.43	0.8532
3065.56	0.8346
3056.69	0.8118
3047.82	0.7975
3038.95	0.778
3030.08	0.744
3021.21	0.7105
3012.34	0.695
3003.47	0.6758
2994.6	0.5887
2985.73	0.2377
2976.86	0.0982
2967.99	0.1305
2959.12	0.1716
2950.25	0.2131
2941.38	0.2548
2932.51	0.2968
2923.64	0.3389
2914.77	0.3531
2905.9	0.3437
2897.03	0.3261
2888.16	0.3088
2879.29	0.3073
2870.42	0.3996
2861.55	0.5485
2852.68	0.7168
2843.81	0.7763
2834.94	0.8016
2826.07	0.8206
2817.19	0.8333
2808.32	0.8493
2799.45	0.8644
2790.58	0.8776
2781.71	0.886
2772.84	0.8912
2763.97	0.8947
2755.1	0.8975
2746.23	0.9002
2737.36	0.9027
2728.49	0.9051
2719.62	0.907
2710.75	0.9088
2701.88	0.9106
2693.01	0.9118
2684.14	0.9131
2675.27	0.9128
2666.4	0.9125
2657.53	0.9121
2648.66	0.9124
2639.79	0.9136
2630.92	0.9149
2622.05	0.9161
2613.18	0.9173
2604.31	0.9184
2595.44	0.9195
2586.57	0.9207
2577.7	0.9218
2568.83	0.923
2559.96	0.9239
2551.09	0.9249
2542.22	0.9258
2533.35	0.9267
2524.48	0.9277
2515.61	0.9286
2506.74	0.9297
2497.87	0.9306
2489	0.9315
2480.13	0.931
2471.26	0.9303
2462.39	0.9299
2453.52	0.9294
2444.65	0.929
2435.78	0.9287
2426.91	0.9284
2418.04	0.9286
2409.17	0.9289
2400.3	0.9291
2391.43	0.9297
2382.56	0.9304
2373.69	0.9311
2364.82	0.9314
2355.95	0.9317
2347.08	0.9318
2338.21	0.9321
2329.34	0.9318
2320.47	0.9317
2311.6	0.9315
2302.73	0.9312
2293.86	0.9313
2284.99	0.9314
2276.12	0.9324
2267.25	0.9343
2258.38	0.9349
2249.51	0.9352
2240.64	0.9344
2231.77	0.9336
2222.9	0.9328
2214.03	0.9321
2205.16	0.9316
2196.29	0.931
2187.42	0.931
2178.55	0.9314
2169.68	0.9318
2160.81	0.9324
2151.94	0.9328
2143.07	0.9334
2134.2	0.9337
2125.33	0.934
2116.46	0.9344
2107.59	0.9348
2098.72	0.9353
2089.85	0.9358
2080.98	0.9363
2072.11	0.9368
2063.23	0.9371
2054.36	0.9373
2045.49	0.9373
2036.62	0.9374
2027.75	0.9375
2018.88	0.9374
2010.01	0.9374
2001.14	0.9373
1992.27	0.9371
1983.4	0.9371
1974.53	0.9371
1965.66	0.9371
1956.79	0.9373
1947.92	0.9374
1939.05	0.9375
1930.18	0.9375
1921.31	0.9375
1912.44	0.9377
1903.57	0.9377
1894.7	0.9378
1885.83	0.9381
1876.96	0.9383
1868.09	0.9383
1859.22	0.9384
1850.35	0.9384
1841.48	0.9382
1832.61	0.9378
1823.74	0.9375
1814.87	0.9368
1806	0.9359
1797.13	0.934
1788.26	0.9276
1779.39	0.9095
1770.52	0.8964
1761.65	0.8952
1752.78	0.9176
1743.91	0.9388
1735.04	0.9451
1726.17	0.9467
1717.3	0.946
1708.43	0.9434
1699.56	0.9363
1690.69	0.9289
1681.82	0.9231
1672.95	0.9113
1664.08	0.8881
1655.21	0.8243
1646.34	0.6755
1637.47	0.5327
1628.6	0.2904
1619.73	0.4098
1610.86	0.6009
1601.99	0.5903
1593.12	0.7045
1584.25	0.7905
1575.38	0.8507
1566.51	0.8801
1557.64	0.8928
1548.77	0.8971
1539.9	0.8956
1531.03	0.8792
1522.16	0.8628
1513.29	0.8464
1504.42	0.7919
1495.55	0.6665
1486.68	0.1178
1477.81	0.32
1468.94	0.3035
1460.07	0.3008
1451.2	0.3748
1442.33	0.6195
1433.46	0.7941
1424.59	0.7791
1415.72	0.8423
1406.85	0.8732
1397.98	0.7671
1389.11	0.7987
1380.24	0.7754
1371.37	0.7091
1362.5	0.4846
1353.63	0.7853
1344.76	0.8444
1335.89	0.8484
1327.02	0.8378
1318.15	0.792
1309.27	0.6571
1300.4	0.4673
1291.53	0.4641
1282.66	0.6717
1273.79	0.788
1264.92	0.807
1256.05	0.8011
1247.18	0.8715
1238.31	0.8312
1229.44	0.8243
1220.57	0.8343
1211.7	0.635
1202.83	0.5319
1193.96	0.7315
1185.09	0.8746
1176.22	0.9151
1167.35	0.9289
1158.48	0.9301
1149.61	0.9242
1140.74	0.9092
1131.87	0.8306
1123	0.8783
1114.13	0.9227
1105.26	0.9324
1096.39	0.932
1087.52	0.9271
1078.65	0.9157
1069.78	0.8917
1060.91	0.7584
1052.04	0.7248
1043.17	0.7973
1034.3	0.8968
1025.43	0.9057
1016.56	0.9222
1007.69	0.9285
998.821	0.9235
989.951	0.9117
981.081	0.8947
972.21	0.9184
963.34	0.9283
954.47	0.928
945.6	0.9227
936.73	0.9156
927.86	0.8987
918.99	0.8669
910.12	0.8212
901.25	0.8979
892.379	0.8935
883.509	0.8358
874.639	0.3508
865.769	0.7912
856.899	0.9135
848.029	0.9231
839.159	0.9215
830.289	0.91
821.418	0.7984
812.548	0.8647
803.678	0.8624
794.808	0.8424
785.938	0.8502
777.068	0.8529
768.198	0.8099
759.328	0.7545
750.458	0.7978
741.587	0.7701
732.717	0.8272
723.847	0.8446
714.977	0.8556
706.107	0.8345
697.237	0.8156
688.367	0.7997
679.497	0.7847
670.626	0.7766
661.756	0.7713
652.886	0.7324
644.016	0.7005
635.146	0.6993
