Infrared Spectrum: 2-Chloro-4-nitrobenzhydrazide
Formula: C 7 H 6 Cl N 3 O 3
CAS: 67345-78-2
State: gas
Origin: EPA-IR VAPOR PHASE LIBRARY
1/CM	ABSORBANCE
549.8	0.002392
559.445	0.002202
569.09	0.001802
578.734	0.002072
588.379	0.001992
598.024	0.001732
607.669	0.001852
617.313	0.001602
626.958	0.001882
636.603	0.001392
646.248	0.001682
655.893	0.001772
665.537	0.002542
675.182	0.002222
684.827	0.001772
694.472	0.001482
704.116	0.001902
713.761	0.002362
723.406	0.004032
733.051	0.007162
742.695	0.006402
752.34	0.008412
761.985	0.011962
771.63	0.004832
781.275	0.003032
790.919	0.002312
800.564	0.002152
810.209	0.002522
819.854	0.003152
829.498	0.004282
839.143	0.006682
848.788	0.006832
858.433	0.006512
868.078	0.006212
877.722	0.007642
887.367	0.010132
897.012	0.010502
906.657	0.006892
916.301	0.007342
925.946	0.012502
935.591	0.014812
945.236	0.007752
954.88	0.004222
964.525	0.002662
974.17	0.002222
983.815	0.001832
993.46	0.001502
1003.1	0.001412
1012.75	0.001332
1022.39	0.001482
1032.04	0.001862
1041.68	0.004272
1051.33	0.004352
1060.97	0.002582
1070.62	0.002122
1080.26	0.001922
1089.91	0.001802
1099.55	0.002022
1109.2	0.003552
1118.84	0.004672
1128.49	0.004542
1138.13	0.003982
1147.78	0.002582
1157.42	0.001792
1167.07	0.002002
1176.71	0.001972
1186.36	0.001852
1196	0.001862
1205.64	0.002092
1215.29	0.002182
1224.93	0.002602
1234.58	0.003792
1244.22	0.006672
1253.87	0.005272
1263.51	0.005732
1273.16	0.010962
1282.8	0.017932
1292.45	0.012292
1302.09	0.005412
1311.74	0.004612
1321.38	0.006182
1331.03	0.012372
1340.67	0.029072
1350.32	0.033992
1359.96	0.017532
1369.61	0.011132
1379.25	0.009392
1388.9	0.007422
1398.54	0.005312
1408.18	0.004682
1417.83	0.005292
1427.47	0.008112
1437.12	0.013742
1446.76	0.017482
1456.41	0.014742
1466.05	0.012562
1475.7	0.011292
1485.34	0.011962
1494.99	0.013372
1504.63	0.013362
1514.28	0.012862
1523.92	0.015192
1533.57	0.025172
1543.21	0.038812
1552.86	0.030032
1562.5	0.013162
1572.15	0.009762
1581.79	0.012342
1591.44	0.013552
1601.08	0.010012
1610.73	0.007112
1620.37	0.007452
1630.01	0.009312
1639.66	0.009032
1649.3	0.006842
1658.95	0.006022
1668.59	0.007172
1678.24	0.010462
1687.88	0.015782
1697.53	0.024622
1707.17	0.027482
1716.82	0.022032
1726.46	0.014252
1736.11	0.006722
1745.75	0.003652
1755.4	0.002492
1765.04	0.002012
1774.69	0.001792
1784.33	0.001662
1793.98	0.001522
1803.62	0.001232
1813.27	0.00092
1822.91	0.0007753
1832.55	0.0006916
1842.2	0.0006436
1851.84	0.0005977
1861.49	0.0006063
1871.13	0.0006537
1880.78	0.0006243
1890.42	0.0006214
1900.07	0.0007202
1909.71	0.0007595
1919.36	0.000798
1929	0.0007214
1938.65	0.0006713
1948.29	0.0005753
1957.94	0.0004931
1967.58	0.0005104
1977.23	0.0004595
1986.87	0.0004539
1996.52	0.0004725
2006.16	0.0004573
2015.81	0.0004692
2025.45	0.0004247
2035.1	0.0003359
2044.74	0.0004692
2054.38	0.0003704
2064.03	0.0003466
2073.67	0.0003742
2083.32	0.0004223
2092.96	0.0003823
2102.61	0.0003482
2112.25	0.0003996
2121.9	0.0003935
2131.54	0.0003714
2141.19	0.0004061
2150.83	0.0003899
2160.48	0.0004118
2170.12	0.0004027
2179.77	0.0004326
2189.41	0.0004052
2199.06	0.0004105
2208.7	0.0003764
2218.35	0.000408
2227.99	0.0004695
2237.64	0.0004559
2247.28	0.0004221
2256.92	0.0003923
2266.57	0.0003629
2276.21	0.0003974
2285.86	0.0003553
2295.5	0.000421
2305.15	0.0003663
2314.79	0.0003808
2324.44	0.0003829
2334.08	0.0004669
2343.73	0.0004382
2353.37	0.0004367
2363.02	0.0003768
2372.66	0.0003758
2382.31	0.0004454
2391.95	0.0003442
2401.6	0.0004154
2411.24	0.0004603
2420.89	0.0004574
2430.53	0.0004339
2440.18	0.0004892
2449.82	0.0003944
2459.47	0.0004741
2469.11	0.0004571
2478.75	0.0004593
2488.4	0.0004736
2498.04	0.0003914
2507.69	0.0004256
2517.33	0.0004239
2526.98	0.000517
2536.62	0.0005541
2546.27	0.0004897
2555.91	0.0004771
2565.56	0.0004104
2575.2	0.0005226
2584.85	0.0004728
2594.49	0.0004538
2604.14	0.0004222
2613.78	0.000388
2623.43	0.0003538
2633.07	0.0004457
2642.72	0.0004185
2652.36	0.0004158
2662.01	0.0005537
2671.65	0.0005765
2681.29	0.0006108
2690.94	0.0006918
2700.58	0.0006852
2710.23	0.000637
2719.87	0.0005485
2729.52	0.0004843
2739.16	0.0004391
2748.81	0.0004582
2758.45	0.0003531
2768.1	0.0004733
2777.74	0.0003444
2787.39	0.0004721
2797.03	0.0004596
2806.68	0.0005091
2816.32	0.0005301
2825.97	0.0006306
2835.61	0.0007082
2845.26	0.0007497
2854.9	0.000836
2864.55	0.0009238
2874.19	0.0010388
2883.84	0.0011016
2893.48	0.0008759
2903.12	0.0008352
2912.77	0.0008299
2922.41	0.0007114
2932.06	0.0008064
2941.7	0.0009855
2951.35	0.0008027
2960.99	0.0006782
2970.64	0.0005757
2980.28	0.000677
2989.93	0.0007064
2999.57	0.0005832
3009.22	0.0006331
3018.86	0.0005208
3028.51	0.0005494
3038.15	0.0006815
3047.8	0.0006557
3057.44	0.0006486
3067.09	0.0007466
3076.73	0.0008461
3086.38	0.0010982
3096.02	0.001462
3105.67	0.001812
3115.31	0.0012287
3124.95	0.0006519
3134.6	0.0005576
3144.24	0.0003997
3153.89	0.0003798
3163.53	0.0005318
3173.18	0.0005912
3182.82	0.0005632
3192.47	0.0006656
3202.11	0.0007461
3211.76	0.0006305
3221.4	0.0006358
3231.05	0.0006429
3240.69	0.0006552
3250.34	0.0005483
3259.98	0.000434
3269.63	0.000384
3279.27	0.0005488
3288.92	0.0004287
3298.56	0.0004308
3308.21	0.0005428
3317.85	0.0004376
3327.49	0.0006675
3337.14	0.0006835
3346.78	0.0009148
3356.43	0.0009178
3366.07	0.0008446
3375.72	0.000868
3385.36	0.0008275
3395.01	0.000888
3404.65	0.001036
3414.3	0.001074
3423.94	0.001372
3433.59	0.002192
3443.23	0.003182
3452.88	0.004642
3462.52	0.006332
3472.17	0.005802
3481.81	0.004062
3491.46	0.002802
3501.1	0.001592
3510.75	0.0010265
3520.39	0.0007016
3530.04	0.0005917
3539.68	0.0006374
3549.32	0.0004169
3558.97	0.0004101
3568.61	0.000404
3578.26	0.0005067
3587.9	0.0005201
3597.55	0.0004218
3607.19	0.0003688
3616.84	0.0001908
3626.48	0.00025383
3636.13	0.00023093
3645.77	0.00025221
3655.42	0.00030415
3665.06	0.0001771
3674.71	0.0002751
3684.35	0.0003639
3694	0.00027671
3703.64	0.00023017
3713.29	0.0002204
3722.93	0.00031092
3732.58	0.0003756
3742.22	0.0002009
3751.86	0.00027922
3761.51	0.00027852
3771.15	0.00032642
3780.8	0.00029514
3790.44	0.0005996
3800.09	0.00025006
3809.73	0.0003792
3819.38	0.00030438
3829.02	0.0003651
3838.67	0.0004746
3848.31	0.00026922
3857.96	0.00032398
3867.6	0.0001986
3877.25	0.0001572
3886.89	0.00027845
3896.54	0.00030203
3906.18	0.0003408
3915.83	0.0003667
3925.47	0.0003835
3935.12	0.0002178
3944.76	0.000235785
3954.41	0.0003807
3964.05	0.0003755
3973.69	0.00030534
3983.34	0.0001362
3992.98	0.0005173
