Infrared Spectrum: p-Cyanobenzylidene p-nonyloxyaniline
Formula: C 23 H 28 N 2 O
CAS: 67363-89-7
State: gas
Origin: EPA-IR VAPOR PHASE LIBRARY
1/CM	ABSORBANCE
549.8	0.001988
559.445	0.001758
569.09	0.0004442
578.734	0.0005081
588.379	0.000493
598.024	0.0004424
607.669	0.000155
617.313	0.00018391
626.958	0.000154
636.603	4.1e-05
646.248	0.0001162
655.893	3.4e-05
665.537	0.0001295
675.182	0.00023265
684.827	0.0002905
694.472	0.00023494
704.116	0.0004638
713.761	0.0005284
723.406	0.0007275
733.051	0.0005603
742.695	0.0005342
752.34	0.0003912
761.985	0.0005048
771.63	0.0007119
781.275	0.0008637
790.919	0.0010238
800.564	0.0011615
810.209	0.001238
819.854	0.002178
829.498	0.003968
839.143	0.004788
848.788	0.003098
858.433	0.001878
868.078	0.001288
877.722	0.001528
887.367	0.001288
897.012	0.0008026
906.657	0.0007921
916.301	0.0007606
925.946	0.0008952
935.591	0.00091
945.236	0.0010007
954.88	0.0009156
964.525	0.0010293
974.17	0.001338
983.815	0.001558
993.46	0.001718
1003.1	0.002078
1012.75	0.002358
1022.39	0.002948
1032.04	0.002758
1041.68	0.002518
1051.33	0.002528
1060.97	0.001878
1070.62	0.001248
1080.26	0.001178
1089.91	0.0008032
1099.55	0.000841
1109.2	0.001188
1118.84	0.0005779
1128.49	0.0006454
1138.13	0.0007076
1147.78	0.0009968
1157.42	0.002898
1167.07	0.003208
1176.71	0.002068
1186.36	0.004328
1196	0.003508
1205.64	0.003568
1215.29	0.005718
1224.93	0.010398
1234.58	0.015378
1244.22	0.016198
1253.87	0.008478
1263.51	0.005098
1273.16	0.005358
1282.8	0.005948
1292.45	0.004518
1302.09	0.003778
1311.74	0.002618
1321.38	0.001548
1331.03	0.001248
1340.67	0.001228
1350.32	0.001388
1359.96	0.001728
1369.61	0.001448
1379.25	0.001558
1388.9	0.001778
1398.54	0.001168
1408.18	0.0010164
1417.83	0.0009285
1427.47	0.0008235
1437.12	0.0011062
1446.76	0.001568
1456.41	0.002308
1466.05	0.003318
1475.7	0.004678
1485.34	0.003558
1494.99	0.009538
1504.63	0.017118
1514.28	0.004828
1523.92	0.001758
1533.57	0.0010882
1543.21	0.0009024
1552.86	0.0009764
1562.5	0.001428
1572.15	0.001898
1581.79	0.002168
1591.44	0.003118
1601.08	0.002768
1610.73	0.001838
1620.37	0.003348
1630.01	0.005628
1639.66	0.002348
1649.3	0.001248
1658.95	0.0009553
1668.59	0.0006936
1678.24	0.0006056
1687.88	0.0004828
1697.53	0.0004298
1707.17	0.0003827
1716.82	0.0003714
1726.46	0.0003658
1736.11	0.0004932
1745.75	0.0004447
1755.4	0.0004585
1765.04	0.0004135
1774.69	0.0004084
1784.33	0.0003103
1793.98	0.0003198
1803.62	0.0003273
1813.27	0.0003612
1822.91	0.0003164
1832.55	0.0002895
1842.2	0.0003278
1851.84	0.0003002
1861.49	0.0003768
1871.13	0.0004096
1880.78	0.0003702
1890.42	0.0004161
1900.07	0.0003882
1909.71	0.0003913
1919.36	0.0004158
1929	0.0003586
1938.65	0.0003958
1948.29	0.0003581
1957.94	0.0002725
1967.58	0.0003035
1977.23	0.0002682
1986.87	0.0003164
1996.52	0.0003184
2006.16	0.0003664
2015.81	0.0003362
2025.45	0.0003397
2035.1	0.0003458
2044.74	0.0003528
2054.38	0.0003688
2064.03	0.0003357
2073.67	0.0003139
2083.32	0.000285
2092.96	0.0002794
2102.61	0.0002148
2112.25	0.00016031
2121.9	0.0001561
2131.54	0.0001395
2141.19	0.0001509
2150.83	0.000171147
2160.48	0.000174384
2170.12	0.00021463
2179.77	0.00019718
2189.41	0.00019959
2199.06	0.00018427
2208.7	0.00023882
2218.35	0.0004672
2227.99	0.001418
2237.64	0.0009654
2247.28	0.000289
2256.92	0.00021709
2266.57	0.0002769
2276.21	0.00018219
2285.86	0.00023588
2295.5	0.000175525
2305.15	0.00021076
2314.79	0.00018714
2324.44	0.00026223
2334.08	0.00021988
2343.73	0.00020645
2353.37	0.0002771
2363.02	0.0003217
2372.66	0.0003337
2382.31	0.00019007
2391.95	0.0002837
2401.6	0.00026758
2411.24	0.00020798
2420.89	0.00021104
2430.53	0.0002976
2440.18	0.00022354
2449.82	0.0003058
2459.47	0.0003206
2469.11	0.0002828
2478.75	0.00025562
2488.4	0.0002872
2498.04	0.0002839
2507.69	0.0003056
2517.33	0.0003295
2526.98	0.0004485
2536.62	0.0003915
2546.27	0.0003421
2555.91	0.0003021
2565.56	0.0002989
2575.2	0.00026047
2584.85	0.0003213
2594.49	0.00020485
2604.14	0.0002868
2613.78	0.00021134
2623.43	0.0002812
2633.07	0.0002753
2642.72	0.0003272
2652.36	0.0003099
2662.01	0.0003235
2671.65	0.0002935
2681.29	0.0003827
2690.94	0.000409
2700.58	0.0003589
2710.23	0.0003483
2719.87	0.0004817
2729.52	0.0004018
2739.16	0.0004938
2748.81	0.0004995
2758.45	0.0005199
2768.1	0.0005657
2777.74	0.0005222
2787.39	0.0004564
2797.03	0.0006014
2806.68	0.0007125
2816.32	0.0009214
2825.97	0.0011011
2835.61	0.001508
2845.26	0.002368
2854.9	0.004448
2864.55	0.006788
2874.19	0.006408
2883.84	0.005778
2893.48	0.004958
2903.12	0.005338
2912.77	0.007418
2922.41	0.010888
2932.06	0.015008
2941.7	0.013698
2951.35	0.009758
2960.99	0.007668
2970.64	0.006428
2980.28	0.003568
2989.93	0.002158
2999.57	0.001488
3009.22	0.001188
3018.86	0.001096
3028.51	0.0010797
3038.15	0.001748
3047.8	0.001488
3057.44	0.0008277
3067.09	0.0010839
3076.73	0.001278
3086.38	0.0010754
3096.02	0.0011208
3105.67	0.0007314
3115.31	0.0006982
3124.95	0.0005145
3134.6	0.0004193
3144.24	0.0003857
3153.89	0.0003933
3163.53	0.0004527
3173.18	0.0004507
3182.82	0.000387
3192.47	0.0002996
3202.11	0.0005027
3211.76	0.0003924
3221.4	0.00025504
3231.05	0.00026615
3240.69	0.0002926
3250.34	0.00020855
3259.98	0.0001136
3269.63	0.00018036
3279.27	0.00018753
3288.92	0.0002873
3298.56	0.0003023
3308.21	0.0001504
3317.85	0.00022439
3327.49	0.0002672
3337.14	0.00022792
3346.78	0.00023622
3356.43	0.00021031
3366.07	0.0001441
3375.72	0.0001076
3385.36	0.00019159
3395.01	0.0002801
3404.65	0.0002921
3414.3	0.0002161
3423.94	0.0002494
3433.59	0.000177475
3443.23	0.0001487
3452.88	0.000170485
3462.52	0.00019409
3472.17	0.0001007
3481.81	0.00021721
3491.46	0.00021107
3501.1	0.000177744
3510.75	0.00022216
3520.39	0.0003101
3530.04	0.00018596
3539.68	0.0001233
3549.32	0.0003489
3558.97	0.0001211
3568.61	0.0003475
3578.26	0.00022847
3587.9	0.0002242
3597.55	0.0001481
3607.19	8.68e-05
3616.84	0.00017222
3626.48	0.00020512
3636.13	0.0002174
3645.77	0.0003093
3655.42	0.0001485
3665.06	0.0003363
3674.71	0.0002642
3684.35	0.0002847
3694	0.000177466
3703.64	0.00019166
3713.29	0.0001018
3722.93	0.0003192
3732.58	0.0004219
3742.22	0.0003271
3751.86	0.000331
3761.51	0.0003179
3771.15	0.0002927
3780.8	0.00022753
3790.44	0.00022209
3800.09	0.0003524
3809.73	0.0003819
3819.38	0.00025841
3829.02	0.0003394
3838.67	0.0003475
3848.31	0.0004468
3857.96	0.00021156
3867.6	0.00020921
3877.25	0.00022723
3886.89	0.0002559
3896.54	0.0004133
3906.18	0.0003016
3915.83	0.00023473
3925.47	0.0003803
3935.12	0.00023409
3944.76	0.000274
3954.41	0.00021268
3964.05	0.0003032
3973.69	0.0002711
3983.34	0.00021354
3992.98	0.0003106
