Infrared Spectrum: Bis-(1,3-diphenylphosphino)propane
Formula: C 27 H 26 P 2
CAS: 6737-42-4
State: gas
Origin: EPA-IR VAPOR PHASE LIBRARY
1/CM	ABSORBANCE
501.5	0.002667
513.074	0.003127
524.648	0.0013328
536.222	0.00086599
547.796	0.000848144
559.37	0.0009574
570.944	0.00088504
582.518	0.0007797
594.092	0.000783
605.666	0.00091265
617.24	0.001049
628.814	0.0010896
640.388	0.0012049
651.962	0.002147
663.536	0.001997
675.11	0.002767
686.684	0.005257
698.258	0.008077
709.832	0.004447
721.406	0.003637
732.98	0.005827
744.554	0.004787
756.128	0.002247
767.702	0.0013658
779.276	0.0011508
790.85	0.0011223
802.423	0.0011
813.997	0.0011841
825.571	0.0010692
837.145	0.0010167
848.719	0.0009701
860.293	0.0009516
871.867	0.00094157
883.441	0.00088961
895.015	0.0010379
906.589	0.00107
918.163	0.0010667
929.737	0.001259
941.311	0.0014104
952.885	0.0013712
964.459	0.0013478
976.033	0.001223
987.607	0.0012214
999.181	0.0016349
1010.76	0.0013
1022.33	0.0016735
1033.9	0.0015932
1045.48	0.0014933
1057.05	0.0012754
1068.63	0.0013498
1080.2	0.0015625
1091.77	0.002217
1103.35	0.0017125
1114.92	0.0011497
1126.49	0.0009729
1138.07	0.0010382
1149.64	0.0010013
1161.22	0.0010349
1172.79	0.0009805
1184.36	0.0010314
1195.94	0.000569
1207.51	0.000394
1219.09	0.000478
1230.66	0.000665
1242.23	0.000656
1253.81	0.00022
1265.38	0.000149
1276.96	0.000236
1288.53	0.000527
1300.1	0.0008081
1311.68	0.0008086
1323.25	0.00087133
1334.83	0.0009739
1346.4	0.00091019
1357.97	0.0007509
1369.55	0.0008041
1381.12	0.000815
1392.7	0.00087634
1404.27	0.0011036
1415.84	0.0017166
1427.42	0.002477
1438.99	0.002557
1450.57	0.0016015
1462.14	0.0014343
1473.71	0.001977
1485.29	0.002437
1496.86	0.0013384
1508.44	0.0010412
1520.01	0.0009984
1531.58	0.0009932
1543.16	0.0010508
1554.73	0.0010428
1566.31	0.0011839
1577.88	0.0015369
1589.45	0.0016583
1601.03	0.001086
1612.6	0.0009734
1624.18	0.00094579
1635.75	0.0009984
1647.32	0.0010815
1658.9	0.00098
1670.47	0.00090549
1682.05	0.0008792
1693.62	0.00087136
1705.19	0.00087897
1716.77	0.00090343
1728.34	0.00089448
1739.92	0.0009168
1751.49	0.0009527
1763.06	0.00089116
1774.64	0.0009866
1786.21	0.0010056
1797.79	0.0012581
1809.36	0.0011875
1820.93	0.0010049
1832.51	0.0009681
1844.08	0.00093576
1855.66	0.0009841
1867.23	0.0011165
1878.8	0.001242
1890.38	0.0011815
1901.95	0.0009783
1913.53	0.0009692
1925.1	0.0010294
1936.67	0.0011673
1948.25	0.0012989
1959.82	0.0012397
1971.4	0.0010066
1982.97	0.0009623
1994.54	0.00092397
2006.12	0.00094474
2017.69	0.00092089
2029.27	0.00091488
2040.84	0.00089205
2052.41	0.0008936
2063.99	0.00088826
2075.56	0.00091365
2087.14	0.00091469
2098.71	0.00091808
2110.28	0.00090583
2121.86	0.00090677
2133.43	0.00089808
2145.01	0.00088009
2156.58	0.00092598
2168.15	0.0009631
2179.73	0.00092184
2191.3	0.00091431
2202.88	0.00090633
2214.45	0.00090481
2226.02	0.00092147
2237.6	0.00092138
2249.17	0.00094033
2260.74	0.0009143
2272.32	0.00091633
2283.89	0.00093331
2295.47	0.0009585
2307.04	0.0009897
2318.61	0.0010125
2330.19	0.0009824
2341.76	0.0009766
2353.34	0.0010076
2364.91	0.0009781
2376.48	0.0009752
2388.06	0.00090972
2399.63	0.0009594
2411.21	0.0009499
2422.78	0.00093071
2434.35	0.00093543
2445.93	0.0009571
2457.5	0.0009692
2469.08	0.00093056
2480.65	0.00094141
2492.22	0.00093513
2503.8	0.0009323
2515.37	0.00094149
2526.95	0.0009897
2538.52	0.0009784
2550.09	0.00093767
2561.67	0.0009606
2573.24	0.0009723
2584.82	0.000987
2596.39	0.0009796
2607.96	0.0009601
2619.54	0.0009659
2631.11	0.0010191
2642.69	0.0010102
2654.26	0.0009739
2665.83	0.0009943
2677.41	0.0009742
2688.98	0.0010169
2700.56	0.00094503
2712.13	0.0009501
2723.7	0.0009274
2735.28	0.00093723
2746.85	0.0010441
2758.43	0.0010197
2770	0.00099
2781.57	0.0010498
2793.15	0.0010331
2804.72	0.0010804
2816.3	0.0011352
2827.87	0.0011558
2839.44	0.0011666
2851.02	0.0011618
2862.59	0.0013954
2874.17	0.0013237
2885.74	0.0013406
2897.31	0.001877
2908.89	0.002007
2920.46	0.002077
2932.04	0.002417
2943.61	0.002527
2955.18	0.0016016
2966.76	0.0012544
2978.33	0.001313
2989.91	0.0014594
3001.48	0.001897
3013.05	0.002387
3024.63	0.002527
3036.2	0.002227
3047.78	0.003027
3059.35	0.007007
3070.92	0.006267
3082.5	0.004497
3094.07	0.002527
3105.65	0.001488
3117.22	0.0012743
3128.79	0.0013029
3140.37	0.001304
3151.94	0.0011041
3163.52	0.0010788
3175.09	0.0010601
3186.66	0.00102
3198.24	0.0010153
3209.81	0.0009924
3221.39	0.0009598
3232.96	0.0009935
3244.53	0.00094339
3256.11	0.0009713
3267.68	0.00093157
3279.26	0.0009579
3290.83	0.0009671
3302.4	0.00094687
3313.98	0.0009899
3325.55	0.0009753
3337.13	0.0010125
3348.7	0.0010305
3360.27	0.0010115
3371.85	0.00090186
3383.42	0.0009731
3395	0.0010201
3406.57	0.0009597
3418.14	0.0009945
3429.72	0.0009743
3441.29	0.00093854
3452.86	0.0009629
3464.44	0.00093982
3476.01	0.0009489
3487.59	0.0009724
3499.16	0.0009589
3510.73	0.00089465
3522.31	0.00091763
3533.88	0.0009937
3545.46	0.0009694
3557.03	0.0010289
3568.6	0.0010426
3580.18	0.0009556
3591.75	0.00094487
3603.33	0.0009672
3614.9	0.000949
3626.47	0.0009769
3638.05	0.000986
3649.62	0.0010539
3661.2	0.0009785
3672.77	0.001047
3684.34	0.001043
3695.92	0.0010252
3707.49	0.0010202
3719.07	0.00093349
3730.64	0.0010656
3742.21	0.0010609
3753.79	0.001017
3765.36	0.0009614
3776.94	0.0009893
3788.51	0.000993
3800.08	0.00091903
3811.66	0.0009663
3823.23	0.0009995
3834.81	0.0010049
3846.38	0.0010626
3857.95	0.0010398
3869.53	0.000966
3881.1	0.0010175
3892.68	0.0010798
3904.25	0.0010171
3915.82	0.0010242
3927.4	0.0010891
3938.97	0.000986
3950.55	0.0009901
3962.12	0.0010871
3973.69	0.0010707
3985.27	0.0009776
3996.84	0.0009988
