Infrared Spectrum: 2,4-Dimethylanisole
Formula: C 9 H 12 O
CAS: 6738-23-4
State: gas
Origin: EPA-IR VAPOR PHASE LIBRARY
1/CM	ABSORBANCE
501.5	0.0007804
513.074	0.0006734
524.648	0.0002093
536.222	0.0005675
547.796	0.0011334
559.37	0.0019834
570.944	0.0022234
582.518	0.0018234
594.092	0.0008793
605.666	0.0004308
617.24	0.000283
628.814	0.0001967
640.388	6.85e-05
651.962	5.48e-05
663.536	0.00010697
675.11	0.0001993
686.684	0.0003931
698.258	0.0013434
709.832	0.0021134
721.406	0.0011234
732.98	0.0015834
744.554	0.0039034
756.128	0.0037834
767.702	0.0018834
779.276	0.0029334
790.85	0.0076534
802.423	0.0126334
813.997	0.0094034
825.571	0.0040734
837.145	0.0017834
848.719	0.0014834
860.293	0.0023334
871.867	0.0036434
883.441	0.0019534
895.015	0.0008828
906.589	0.0009101
918.163	0.0010206
929.737	0.0010133
941.311	0.0009214
952.885	0.00107
964.459	0.0015234
976.033	0.0022434
987.607	0.0033934
999.181	0.0048634
1010.76	0.0070734
1022.33	0.0120234
1033.9	0.0174234
1045.48	0.0154834
1057.05	0.0082134
1068.63	0.0038834
1080.2	0.0026934
1091.77	0.0025434
1103.35	0.0038734
1114.92	0.0089434
1126.49	0.0197934
1138.07	0.0212534
1149.64	0.0123634
1161.22	0.0071134
1172.79	0.0061534
1184.36	0.0068934
1195.94	0.0069334
1207.51	0.0115834
1219.09	0.0286234
1230.66	0.0389734
1242.23	0.0412734
1253.81	0.0533134
1265.38	0.0315134
1276.96	0.0154234
1288.53	0.0134234
1300.1	0.0110134
1311.68	0.0059234
1323.25	0.0028834
1334.83	0.0021334
1346.4	0.0020234
1357.97	0.0021534
1369.55	0.0026234
1381.12	0.0034034
1392.7	0.0036934
1404.27	0.0045334
1415.84	0.0057434
1427.42	0.0065634
1438.99	0.0086234
1450.57	0.0103734
1462.14	0.0140134
1473.71	0.0165534
1485.29	0.0232834
1496.86	0.0466434
1508.44	0.0516934
1520.01	0.0241934
1531.58	0.0081034
1543.16	0.0047934
1554.73	0.0036434
1566.31	0.0030734
1577.88	0.0031934
1589.45	0.0037934
1601.03	0.0047734
1612.6	0.0056834
1624.18	0.0038934
1635.75	0.0017434
1647.32	0.0010934
1658.9	0.0009167
1670.47	0.0008346
1682.05	0.0007997
1693.62	0.0007822
1705.19	0.0008749
1716.77	0.0010716
1728.34	0.0013034
1739.92	0.0012734
1751.49	0.0009174
1763.06	0.0006103
1774.64	0.0005542
1786.21	0.0007432
1797.79	0.0007761
1809.36	0.0005811
1820.93	0.0005722
1832.51	0.0008662
1844.08	0.0010703
1855.66	0.0010153
1867.23	0.0008242
1878.8	0.0006194
1890.38	0.0004845
1901.95	0.0003965
1913.53	0.0004185
1925.1	0.0004451
1936.67	0.0004839
1948.25	0.0006715
1959.82	0.0008978
1971.4	0.0009323
1982.97	0.0009369
1994.54	0.0011534
2006.12	0.0011034
2017.69	0.0008335
2029.27	0.0007215
2040.84	0.0007821
2052.41	0.000826
2063.99	0.0008368
2075.56	0.0008029
2087.14	0.0006678
2098.71	0.0004103
2110.28	0.0002757
2121.86	0.0002315
2133.43	0.0002511
2145.01	0.0002936
2156.58	0.000377
2168.15	0.000436
2179.73	0.0004115
2191.3	0.0003181
2202.88	0.0002906
2214.45	0.0002994
2226.02	0.0002915
2237.6	0.0003954
2249.17	0.0005153
2260.74	0.0004882
2272.32	0.0003819
2283.89	0.0003273
2295.47	0.0002863
2307.04	0.0003171
2318.61	0.0002961
2330.19	0.0002308
2341.76	0.0002354
2353.34	0.0002848
2364.91	0.0002934
2376.48	0.000264
2388.06	0.0002411
2399.63	0.0003112
2411.21	0.0003451
2422.78	0.0004062
2434.35	0.0003705
2445.93	0.0003095
2457.5	0.0003956
2469.08	0.000486
2480.65	0.0005489
2492.22	0.0005909
2503.8	0.0006607
2515.37	0.0006958
2526.95	0.0006441
2538.52	0.0006437
2550.09	0.0005415
2561.67	0.0004018
2573.24	0.0003488
2584.82	0.0003733
2596.39	0.0003844
2607.96	0.0004134
2619.54	0.0003628
2631.11	0.0003668
2642.69	0.000405
2654.26	0.0003677
2665.83	0.0003163
2677.41	0.0003547
2688.98	0.0003294
2700.56	0.0004089
2712.13	0.0005445
2723.7	0.0007328
2735.28	0.0012334
2746.85	0.0014534
2758.43	0.0009897
2770	0.0009967
2781.57	0.0012234
2793.15	0.0017034
2804.72	0.0024634
2816.3	0.0037634
2827.87	0.0070734
2839.44	0.0117034
2851.02	0.0122134
2862.59	0.0119934
2874.17	0.0139434
2885.74	0.0139834
2897.31	0.0147534
2908.89	0.0190834
2920.46	0.0259734
2932.04	0.0324034
2943.61	0.0315934
2955.18	0.0253234
2966.76	0.0178734
2978.33	0.0151034
2989.91	0.0174234
3001.48	0.0224934
3013.05	0.0215634
3024.63	0.0170134
3036.2	0.0131234
3047.78	0.0104234
3059.35	0.0075534
3070.92	0.0061034
3082.5	0.0048434
3094.07	0.0035834
3105.65	0.0027034
3117.22	0.0021334
3128.79	0.0016534
3140.37	0.0010685
3151.94	0.0007403
3163.52	0.0005617
3175.09	0.0004844
3186.66	0.0003804
3198.24	0.0003333
3209.81	0.0003386
3221.39	0.0002781
3232.96	0.0002097
3244.53	0.0002368
3256.11	0.00017803
3267.68	0.00012591
3279.26	0.00012549
3290.83	8.43069e-05
3302.4	6.97e-05
3313.98	0.00015573
3325.55	8.9637e-05
3337.13	0.00011922
3348.7	9.052e-05
3360.27	0.00012152
3371.85	0.00011079
3383.42	6.49e-05
3395	9.2001e-05
3406.57	5.5e-05
3418.14	0.00010725
3429.72	0.00012375
3441.29	6.28e-05
3452.86	5.37e-05
3464.44	6.16e-05
3476.01	0.00011535
3487.59	0.00010724
3499.16	9.941e-05
3510.73	0.0001902
3522.31	7.865e-05
3533.88	0.00011797
3545.46	0.00012169
3557.03	0.00010126
3568.6	0.00010537
3580.18	9.883e-05
3591.75	0.00016102
3603.33	8.9596e-05
3614.9	5.01e-05
3626.47	6.42e-05
3638.05	0.00013371
3649.62	6.75e-05
3661.2	0
3672.77	6.69e-05
3684.34	0.00010481
3695.92	0.00012079
3707.49	0.00011351
3719.07	5.18e-05
3730.64	0.00015276
3742.21	0.00017934
3753.79	0.0002271
3765.36	0.0001864
3776.94	0.00014614
3788.51	0.00014744
3800.08	0.00012384
3811.66	0.00013827
3823.23	0.00011786
3834.81	0.00014547
3846.38	0.00016955
3857.95	0.0002377
3869.53	0.00017627
3881.1	0.0002522
3892.68	0.0002399
3904.25	0.0002587
3915.82	0.0002002
3927.4	0.000209
3938.97	0.0003642
3950.55	0.0003664
3962.12	0.0003494
3973.69	0.0004139
3985.27	0.0003443
3996.84	0.0004032
