Infrared Spectrum: trans-4-Methyl-2-pentene
Formula: C 6 H 12
CAS: 674-76-0
State: gas
Instrument: HP-GC/MS/IRD
Origin: NIST Mass Spectrometry Data Center
1/CM	ABSORBANCE
550	0.0003672
562	2.55e-05
574	2.55e-05
586	1.53e-05
598	0.0002091
610	0.0001734
622	0.0003213
634	0.0002397
646	0.0001836
658	0.0001785
670	0.0002397
682	0.0002499
694	0.0002754
706	0.0002142
718	0.0002958
730	0.0001989
742	0.0002601
754	0.0002754
766	0.0002601
778	0.0003417
790	0.0003213
802	0.0003621
814	0.0004539
826	0.0006528
838	0.0006069
850	0.0006324
862	0.0006273
874	0.0007191
886	0.0009282
898	0.0012852
910	0.0016983
922	0.0022797
934	0.0037179
946	0.0065994
958	0.0099195
970	0.0122247
982	0.0099093
994	0.0062475
1006	0.0031977
1018	0.0018411
1030	0.0013107
1042	0.0010455
1054	0.0008823
1066	0.000816
1078	0.000867
1090	0.0010455
1102	0.0011832
1114	0.0011883
1126	0.0009639
1138	0.0008415
1150	0.000816
1162	0.0009945
1174	0.00102
1186	0.0008466
1198	0.0006987
1210	0.0006783
1222	0.0007242
1234	0.0007344
1246	0.0010302
1258	0.0012801
1270	0.001377
1282	0.0012954
1294	0.0016983
1306	0.0020502
1318	0.0021675
1330	0.002295
1342	0.0023817
1354	0.0027591
1366	0.0035292
1378	0.0048297
1390	0.0044421
1402	0.0029682
1414	0.0022236
1426	0.0026622
1438	0.0039933
1450	0.0055284
1462	0.0067065
1474	0.0058242
1486	0.0038913
1498	0.0021369
1510	0.0013056
1522	0.0009588
1534	0.0007344
1546	0.000612
1558	0.0004131
1570	0.0004233
1582	0.0004335
1594	0.0004335
1606	0.0004182
1618	0.0003417
1630	0.0004182
1642	0.0003774
1654	0.0003825
1666	0.0004794
1678	0.0004386
1690	0.0003825
1702	0.0003111
1714	0.0004488
1726	0.000663
1738	0.0008058
1750	0.0007701
1762	0.0005202
1774	0.0003519
1786	0.0003009
1798	0.0002754
1810	0.0003111
1822	0.000306
1834	0.0002805
1846	0.0002346
1858	0.0002244
1870	0.0001581
1882	0.0001275
1894	0.0001275
1906	7.65e-05
1918	7.14e-05
1930	7.65e-05
1942	6.63e-05
1954	7.14e-05
1966	9.69e-05
1978	0.0001224
1990	0.0001428
2002	0.0001785
2014	0.0001326
2026	8.67e-05
2038	4.59e-05
2050	5.1e-05
2062	4.59e-05
2074	2.55e-05
2086	2.55e-05
2098	4.08e-05
2110	1.53e-05
2122	3.57e-05
2134	5.1e-06
2146	2.04e-05
2158	1.53e-05
2170	3.06e-05
2182	5.1e-05
2194	4.59e-05
2206	3.57e-05
2218	6.12e-05
2230	3.06e-05
2242	1.02e-05
2254	4.08e-05
2266	8.16e-05
2278	0.0001122
2290	0.0001428
2302	6.63e-05
2314	8.16e-05
2326	2.55e-05
2338	1.53e-05
2350	4.08e-05
2362	9.69e-05
2374	0.0001479
2386	0.0001377
2398	0.0001734
2410	0.0001887
2422	0.0001428
2434	0.0001377
2446	0.0001734
2458	0.0001428
2470	0.000153
2482	0.0001836
2494	0.0001836
2506	0.000153
2518	0.0001683
2530	0.0001887
2542	0.0002295
2554	0.000255
2566	0.0003111
2578	0.0003264
2590	0.0003366
2602	0.0003417
2614	0.0002958
2626	0.0003111
2638	0.0003417
2650	0.0003366
2662	0.0003213
2674	0.000357
2686	0.0004131
2698	0.0004539
2710	0.0006783
2722	0.0009078
2734	0.0012036
2746	0.0012903
2758	0.0011118
2770	0.0010251
2782	0.0011373
2794	0.0012852
2806	0.0015657
2818	0.0019686
2830	0.0025092
2842	0.0038556
2854	0.007701
2866	0.0151929
2878	0.0202317
2890	0.0207468
2902	0.0199257
2914	0.022032
2926	0.0266271
2938	0.0302481
2950	0.0365058
2962	0.0508011
2974	0.0467364
2986	0.0275655
2998	0.0136017
3010	0.0091341
3022	0.0078234
3034	0.0068187
3046	0.0054468
3058	0.0038913
3070	0.0029682
3082	0.0024582
3094	0.0021012
3106	0.0017799
3118	0.0015912
3130	0.0014331
3142	0.0013056
3154	0.0011577
3166	0.0010455
3178	0.0009078
3190	0.000816
3202	0.0007599
3214	0.0006069
3226	0.0005049
3238	0.0004284
3250	0.0003111
3262	0.0002754
3274	0.000204
3286	0.0002601
3298	0.0002907
3310	0.0002805
3322	0.0002346
3334	0.0001887
3346	0.0002295
3358	0.0002499
3370	0.0002499
3382	0.0002295
3394	0.0002295
3406	0.0002244
3418	0.0002499
3430	0.0002448
3442	0.0001428
3454	0.0001989
3466	0.000153
3478	0.0001377
3490	0.0001377
3502	0.0001428
3514	0.0001632
3526	0.0001479
3538	0.0001785
3550	8.16e-05
3562	9.69e-05
3574	0.0001122
3586	0.0001326
3598	5.1e-05
3610	5.61e-05
3622	4.59e-05
3634	0.0001071
3646	7.14e-05
3658	0.0001224
3670	3.57e-05
3682	0.0001275
3694	0.0001173
3706	6.63e-05
3718	0.0001275
3730	0.0001377
3742	0.0001377
3754	8.67e-05
3766	0.0001173
3778	0.0001632
3790	0.0001887
3802	0.0001683
3814	0.0001938
3826	0.0002397
3838	0.0002091
