Infrared Spectrum: DL-Mevalonic acid lactone
Formula: C 6 H 10 O 3
CAS: 674-26-0
State: gas
Origin: EPA-IR VAPOR PHASE LIBRARY
1/CM	ABSORBANCE
549.8	0.00283
559.445	0.00282
569.09	0.00263
578.734	0.00352
588.379	0.00266
598.024	0.00151
607.669	0.00146
617.313	0.0009821
626.958	0.0011979
636.603	0.00175
646.248	0.00242
655.893	0.00267
665.537	0.00269
675.182	0.00238
684.827	0.00163
694.472	0.0010214
704.116	0.0013
713.761	0.0010701
723.406	0.0012416
733.051	0.00154
742.695	0.00199
752.34	0.00214
761.985	0.00287
771.63	0.00279
781.275	0.00335
790.919	0.00595
800.564	0.00855
810.209	0.00906
819.854	0.00695
829.498	0.00443
839.143	0.00277
848.788	0.00275
858.433	0.0033
868.078	0.00527
877.722	0.00636
887.367	0.00648
897.012	0.00705
906.657	0.00771
916.301	0.00808
925.946	0.00841
935.591	0.00928
945.236	0.00743
954.88	0.00615
964.525	0.00555
974.17	0.00549
983.815	0.00702
993.46	0.00717
1003.1	0.00815
1012.75	0.00879
1022.39	0.00962
1032.04	0.00918
1041.68	0.00873
1051.33	0.01225
1060.97	0.02215
1070.62	0.03422
1080.26	0.04057
1089.91	0.04011
1099.55	0.03916
1109.2	0.03773
1118.84	0.03566
1128.49	0.0339
1138.13	0.03218
1147.78	0.03089
1157.42	0.02906
1167.07	0.02655
1176.71	0.02619
1186.36	0.02927
1196	0.03625
1205.64	0.04605
1215.29	0.04737
1224.93	0.04103
1234.58	0.03484
1244.22	0.03954
1253.87	0.04599
1263.51	0.04202
1273.16	0.0312
1282.8	0.02255
1292.45	0.01938
1302.09	0.01799
1311.74	0.01593
1321.38	0.01373
1331.03	0.01246
1340.67	0.01226
1350.32	0.01245
1359.96	0.01279
1369.61	0.01482
1379.25	0.01844
1388.9	0.0206
1398.54	0.01755
1408.18	0.01253
1417.83	0.00882
1427.47	0.00819
1437.12	0.00808
1446.76	0.00747
1456.41	0.00693
1466.05	0.00671
1475.7	0.00703
1485.34	0.00664
1494.99	0.00479
1504.63	0.00282
1514.28	0.00192
1523.92	0.00157
1533.57	0.00153
1543.21	0.00142
1552.86	0.0013
1562.5	0.00139
1572.15	0.00133
1581.79	0.0012606
1591.44	0.00151
1601.08	0.00157
1610.73	0.00167
1620.37	0.00149
1630.01	0.00162
1639.66	0.00172
1649.3	0.00173
1658.95	0.00192
1668.59	0.00236
1678.24	0.00298
1687.88	0.00346
1697.53	0.00417
1707.17	0.00467
1716.82	0.00535
1726.46	0.00711
1736.11	0.00996
1745.75	0.01479
1755.4	0.03017
1765.04	0.08353
1774.69	0.15552
1784.33	0.17422
1793.98	0.10584
1803.62	0.03824
1813.27	0.01378
1822.91	0.00708
1832.55	0.00471
1842.2	0.00376
1851.84	0.00299
1861.49	0.00275
1871.13	0.00258
1880.78	0.00234
1890.42	0.0022
1900.07	0.00192
1909.71	0.00169
1919.36	0.0013
1929	0.0011362
1938.65	0.0011115
1948.29	0.0010019
1957.94	0.0009963
1967.58	0.001072
1977.23	0.0010471
1986.87	0.0009954
1996.52	0.0011295
2006.16	0.0010484
2015.81	0.0010433
2025.45	0.0008198
2035.1	0.0008832
2044.74	0.0009261
2054.38	0.0008545
2064.03	0.000858
2073.67	0.0007395
2083.32	0.000751
2092.96	0.0007721
2102.61	0.0007655
2112.25	0.0007697
2121.9	0.0007495
2131.54	0.0008163
2141.19	0.0007709
2150.83	0.0008552
2160.48	0.000795
2170.12	0.0009487
2179.77	0.000832
2189.41	0.0008886
2199.06	0.000883
2208.7	0.0007111
2218.35	0.0007588
2227.99	0.000618
2237.64	0.0007126
2247.28	0.000757
2256.92	0.0008807
2266.57	0.0007632
2276.21	0.0007672
2285.86	0.000853
2295.5	0.0008737
2305.15	0.000928
2314.79	0.0008535
2324.44	0.0009304
2334.08	0.000873
2343.73	0.0009391
2353.37	0.0009103
2363.02	0.0009945
2372.66	0.0008011
2382.31	0.0007348
2391.95	0.0007341
2401.6	0.0008823
2411.24	0.00081
2420.89	0.0007605
2430.53	0.0010341
2440.18	0.0008166
2449.82	0.0008047
2459.47	0.0007652
2469.11	0.0007643
2478.75	0.0006992
2488.4	0.0005719
2498.04	0.0005321
2507.69	0.0006348
2517.33	0.0006163
2526.98	0.0005525
2536.62	0.0004474
2546.27	0.0004814
2555.91	0.0006425
2565.56	0.0005097
2575.2	0.0005152
2584.85	0.0006128
2594.49	0.0006
2604.14	0.0006753
2613.78	0.0006141
2623.43	0.000667
2633.07	0.0004586
2642.72	0.0006333
2652.36	0.0005278
2662.01	0.0005019
2671.65	0.0004571
2681.29	0.0005903
2690.94	0.0004757
2700.58	0.0005941
2710.23	0.0004594
2719.87	0.0007436
2729.52	0.0007506
2739.16	0.0009311
2748.81	0.0008742
2758.45	0.0011254
2768.1	0.0012065
2777.74	0.0012452
2787.39	0.00133
2797.03	0.0011429
2806.68	0.0011576
2816.32	0.00133
2825.97	0.00159
2835.61	0.00194
2845.26	0.00259
2854.9	0.00315
2864.55	0.00396
2874.19	0.00525
2883.84	0.00665
2893.48	0.00897
2903.12	0.01142
2912.77	0.01496
2922.41	0.01737
2932.06	0.01929
2941.7	0.01919
2951.35	0.01986
2960.99	0.02436
2970.64	0.0331
2980.28	0.0357
2989.93	0.02693
2999.57	0.01481
3009.22	0.0071
3018.86	0.00319
3028.51	0.00188
3038.15	0.001012
3047.8	0.0010629
3057.44	0.0008488
3067.09	0.0008211
3076.73	0.0006988
3086.38	0.0005616
3096.02	0.0004764
3105.67	0.0007702
3115.31	0.0004768
3124.95	0.0007359
3134.6	0.0005412
3144.24	0.0004483
3153.89	0.0005722
3163.53	0.0007132
3173.18	0.0005727
3182.82	0.0005799
3192.47	0.0005833
3202.11	0.0003999
3211.76	0.0004657
3221.4	0.0006773
3231.05	0.0005395
3240.69	0.0005505
3250.34	0.000675
3259.98	0.0006119
3269.63	0.00032424
3279.27	0.0004932
3288.92	0.0006753
3298.56	0.0005882
3308.21	0.0006074
3317.85	0.00032884
3327.49	0.00033492
3337.14	0.0002509
3346.78	0.0006063
3356.43	0.0005699
3366.07	0.000445
3375.72	0.0005733
3385.36	0.0004863
3395.01	0.0006627
3404.65	0.0007382
3414.3	0.0008596
3423.94	0.0006135
3433.59	0.0005806
3443.23	0.0008781
3452.88	0.0008692
3462.52	0.0007228
3472.17	0.0008578
3481.81	0.0010203
3491.46	0.0008742
3501.1	0.0008766
3510.75	0.00133
3520.39	0.00175
3530.04	0.00229
3539.68	0.00263
3549.32	0.00241
3558.97	0.00203
3568.61	0.00144
3578.26	0.00137
3587.9	0.001221
3597.55	0.0012372
3607.19	0.0012066
3616.84	0.00233
3626.48	0.00534
3636.13	0.00823
3645.77	0.00757
3655.42	0.0042
3665.06	0.00163
3674.71	0.0011509
3684.35	0.0004753
3694	0.0005531
3703.64	0.0004718
3713.29	0.0005486
3722.93	0.000457
3732.58	0.0004705
3742.22	0.0004353
3751.86	0.0006507
3761.51	0.0004713
3771.15	0.0004721
3780.8	0.000592
3790.44	0.0005728
3800.09	0.0008625
3809.73	0.0008981
3819.38	0.0004492
3829.02	0.0004646
3838.67	0.0005968
3848.31	0.000290424
3857.96	0.0008011
3867.6	0.0009253
3877.25	0.0006177
3886.89	0.0006611
3896.54	0.0007401
3906.18	0.0008339
3915.83	0.0006723
3925.47	0.0006229
3935.12	0.0002568
3944.76	0.0007631
3954.41	0.0005892
3964.05	0.0006438
3973.69	0.0006052
3983.34	0.0005498
3992.98	0.0006903
