Infrared Spectrum: o-Chlorophenyl cyclopentyl ketone
Formula: C 12 H 13 Cl O
CAS: 6740-85-8
State: gas
Origin: EPA-IR VAPOR PHASE LIBRARY
1/CM	ABSORBANCE
549.8	0.000579
559.445	0.0007989
569.09	0.0006096
578.734	0.0010812
588.379	0.0010194
598.024	0.0011894
607.669	0.0013328
617.313	0.002087
626.958	0.003567
636.603	0.005067
646.248	0.004367
655.893	0.002507
665.537	0.001797
675.182	0.001707
684.827	0.002537
694.472	0.003757
704.116	0.004367
713.761	0.003787
723.406	0.005327
733.051	0.015187
742.695	0.021897
752.34	0.014847
761.985	0.010737
771.63	0.004967
781.275	0.002337
790.919	0.001587
800.564	0.001827
810.209	0.002207
819.854	0.002457
829.498	0.002947
839.143	0.002837
848.788	0.002907
858.433	0.003037
868.078	0.002927
877.722	0.005177
887.367	0.004227
897.012	0.002537
906.657	0.002157
916.301	0.002377
925.946	0.002567
935.591	0.003227
945.236	0.003857
954.88	0.002937
964.525	0.002787
974.17	0.003727
983.815	0.006647
993.46	0.012017
1003.1	0.012617
1012.75	0.006807
1022.39	0.005257
1032.04	0.008727
1041.68	0.009077
1051.33	0.008347
1060.97	0.010847
1070.62	0.009777
1080.26	0.007377
1089.91	0.004607
1099.55	0.003477
1109.2	0.002837
1118.84	0.002947
1128.49	0.003587
1138.13	0.003427
1147.78	0.002327
1157.42	0.003547
1167.07	0.003507
1176.71	0.003707
1186.36	0.005447
1196	0.010167
1205.64	0.018407
1215.29	0.017787
1224.93	0.008417
1234.58	0.004647
1244.22	0.004237
1253.87	0.005287
1263.51	0.010867
1273.16	0.012747
1282.8	0.008247
1292.45	0.006097
1302.09	0.005277
1311.74	0.005027
1321.38	0.004027
1331.03	0.004387
1340.67	0.006067
1350.32	0.007817
1359.96	0.007317
1369.61	0.004807
1379.25	0.002877
1388.9	0.002187
1398.54	0.002227
1408.18	0.002867
1417.83	0.004827
1427.47	0.009857
1437.12	0.011297
1446.76	0.007787
1456.41	0.007857
1466.05	0.008527
1475.7	0.006207
1485.34	0.003537
1494.99	0.002227
1504.63	0.001717
1514.28	0.001417
1523.92	0.001231
1533.57	0.0012564
1543.21	0.001255
1552.86	0.001757
1562.5	0.002567
1572.15	0.003467
1581.79	0.005277
1591.44	0.006847
1601.08	0.003647
1610.73	0.002027
1620.37	0.001577
1630.01	0.0013494
1639.66	0.0012497
1649.3	0.001707
1658.95	0.002447
1668.59	0.004207
1678.24	0.006787
1687.88	0.011857
1697.53	0.025327
1707.17	0.038757
1716.82	0.028767
1726.46	0.013097
1736.11	0.006027
1745.75	0.003437
1755.4	0.002137
1765.04	0.001527
1774.69	0.0012232
1784.33	0.001231
1793.98	0.001507
1803.62	0.0013354
1813.27	0.0008928
1822.91	0.0008972
1832.55	0.0009127
1842.2	0.0007593
1851.84	0.0005707
1861.49	0.0005633
1871.13	0.0005905
1880.78	0.0006854
1890.42	0.0006733
1900.07	0.0007547
1909.71	0.0012074
1919.36	0.0011745
1929	0.0008599
1938.65	0.0008618
1948.29	0.0010951
1957.94	0.0007777
1967.58	0.0004932
1977.23	0.00042879
1986.87	0.00041359
1996.52	0.00044365
2006.16	0.000465
2015.81	0.0004058
2025.45	0.00043166
2035.1	0.0004922
2044.74	0.00040697
2054.38	0.00045165
2064.03	0.00043662
2073.67	0.000475
2083.32	0.00039918
2092.96	0.00039141
2102.61	0.00041137
2112.25	0.000368251
2121.9	0.000452
2131.54	0.00040537
2141.19	0.000372717
2150.83	0.0004741
2160.48	0.00042968
2170.12	0.0004749
2179.77	0.00043594
2189.41	0.0004988
2199.06	0.0005265
2208.7	0.0005268
2218.35	0.0004977
2227.99	0.0004687
2237.64	0.00043448
2247.28	0.0004786
2256.92	0.0005248
2266.57	0.0005734
2276.21	0.0004612
2285.86	0.0005712
2295.5	0.0005719
2305.15	0.0005728
2314.79	0.0006545
2324.44	0.0006599
2334.08	0.0006109
2343.73	0.0005743
2353.37	0.0006094
2363.02	0.0005054
2372.66	0.00042103
2382.31	0.0005013
2391.95	0.0005157
2401.6	0.0004943
2411.24	0.00037653
2420.89	0.00042138
2430.53	0.0004708
2440.18	0.000471
2449.82	0.0003412
2459.47	0.0004934
2469.11	0.0004824
2478.75	0.00040432
2488.4	0.0004902
2498.04	0.000375416
2507.69	0.0003141
2517.33	0.00045671
2526.98	0.00039834
2536.62	0.0004824
2546.27	0.00040656
2555.91	0.00041868
2565.56	0.0005069
2575.2	0.00046466
2584.85	0.0004719
2594.49	0.0005475
2604.14	0.0005181
2613.78	0.0005145
2623.43	0.0004912
2633.07	0.0004672
2642.72	0.0005675
2652.36	0.00040578
2662.01	0.00046137
2671.65	0.00041903
2681.29	0.00043583
2690.94	0.0005537
2700.58	0.00042897
2710.23	0.0004875
2719.87	0.0005239
2729.52	0.0005437
2739.16	0.0005118
2748.81	0.000558
2758.45	0.0005132
2768.1	0.0006154
2777.74	0.0006403
2787.39	0.0007381
2797.03	0.0008039
2806.68	0.0008689
2816.32	0.001009
2825.97	0.001477
2835.61	0.001937
2845.26	0.002917
2854.9	0.003967
2864.55	0.006857
2874.19	0.013237
2883.84	0.015207
2893.48	0.010277
2903.12	0.009277
2912.77	0.010927
2922.41	0.013897
2932.06	0.017007
2941.7	0.021817
2951.35	0.029537
2960.99	0.037097
2970.64	0.035317
2980.28	0.022917
2989.93	0.012367
2999.57	0.007317
3009.22	0.004847
3018.86	0.003557
3028.51	0.002497
3038.15	0.001987
3047.8	0.002177
3057.44	0.003707
3067.09	0.006787
3076.73	0.007427
3086.38	0.004507
3096.02	0.002197
3105.67	0.0011553
3115.31	0.0009394
3124.95	0.000952
3134.6	0.0010092
3144.24	0.0007921
3153.89	0.0006459
3163.53	0.0004267
3173.18	0.00036367
3182.82	0.0004252
3192.47	0.00040878
3202.11	0.00045712
3211.76	0.0003552
3221.4	0.0003861
3231.05	0.0003165
3240.69	0.000176
3250.34	0.0005466
3259.98	0.000375979
3269.63	0.0002865
3279.27	0.000261
3288.92	0.000239
3298.56	0.000373057
3308.21	0.00040413
3317.85	0.0003418
3327.49	0.0004857
3337.14	0.00039119
3346.78	0.0003386
3356.43	0.0003452
3366.07	0.0003989
3375.72	0.00039528
3385.36	0.0006585
3395.01	0.0008042
3404.65	0.0007874
3414.3	0.0005199
3423.94	0.00043238
3433.59	0.00038951
3443.23	0.0005046
3452.88	0.000256
3462.52	0.00039381
3472.17	0.00038322
3481.81	0.000266
3491.46	0.000164
3501.1	0.000267
3510.75	0.000201
3520.39	0.000216
3530.04	0.0003067
3539.68	0.000167
3549.32	0.00022
3558.97	0.00023
3568.61	0.000194
3578.26	0.000168
3587.9	0.000177
3597.55	0.00016
3607.19	0.0002856
3616.84	0.0003068
3626.48	0.0003498
3636.13	0.000167
3645.77	0.000215
3655.42	0.00046162
3665.06	0.000212
3674.71	0.0002948
3684.35	0.0003061
3694	0.0003373
3703.64	0.00043915
3713.29	0.0002812
3722.93	0.0005005
3732.58	0.0003466
3742.22	0.0003091
3751.86	0.00038473
3761.51	0.0004644
3771.15	0.0003403
3780.8	0.00044987
3790.44	0.0004861
3800.09	0.0004643
3809.73	0.0003073
3819.38	0.0003551
3829.02	0.000371762
3838.67	0.0002757
3848.31	0.000248
3857.96	0.000228
3867.6	0.00022
3877.25	0.000167
3886.89	0.0003394
3896.54	0.00040114
3906.18	0.000261
3915.83	0.000234
3925.47	0.000221
3935.12	0.0003141
3944.76	0.00022
3954.41	0.00043724
3964.05	0.000186
3973.69	0.0002794
3983.34	0.0005201
3992.98	0.00045584
