Infrared Spectrum: INOSINE, 2',3',5'-TRIBENZOATE
Formula: C31 H24 N4 O8
CAS: 6741-88-4
State: SOLID (1.3 mg / 650 mg KBr DISC)
Class: COBLENTZ III
Instrument: PERKIN-ELMER 21 (GRATING)
Instrument parameters: FILTER CHANGE ABOUT 1090 CM^-^1
Sampling: TRANSMISSION
Resolution: 2
Origin: SOUTHERN RESEARCH INSTITUTE
1/CM	TRANSMITTANCE
600	0.8287
609	0.8327
618	0.8233
627	0.802
636	0.7695
645	0.7367
654	0.7619
663	0.7456
672	0.7176
681	0.6497
690	0.581
699	0.4923
708	0.2453
717	0.3526
726	0.57
735	0.7087
744	0.773
753	0.8048
762	0.809
771	0.7938
780	0.7718
789	0.6529
798	0.6738
807	0.6739
816	0.6737
825	0.6543
834	0.667
843	0.6956
852	0.6906
861	0.6872
870	0.6872
879	0.6875
888	0.6722
897	0.6696
906	0.6625
915	0.649
924	0.676
933	0.6961
942	0.7124
951	0.7198
960	0.7085
969	0.6778
978	0.6715
987	0.659
996	0.6382
1005	0.6272
1014	0.6109
1023	0.5552
1032	0.5035
1041	0.5777
1050	0.5513
1059	0.4769
1068	0.3536
1077	0.4238
1086	0.2729
1095	0.2736
1104	0.2812
1113	0.2638
1122	0.2566
1131	0.3682
1140	0.5229
1149	0.6004
1158	0.6077
1167	0.618
1176	0.5311
1185	0.6905
1194	0.6458
1203	0.5857
1212	0.5485
1221	0.5315
1230	0.502
1239	0.3391
1248	0.223
1257	0.1666
1266	0.1396
1275	0.1569
1284	0.2478
1293	0.3762
1302	0.5106
1311	0.4567
1320	0.5075
1329	0.6245
1338	0.6045
1347	0.5592
1356	0.6191
1365	0.649
1374	0.5943
1383	0.626
1392	0.6934
1401	0.6934
1410	0.648
1419	0.5855
1428	0.6868
1437	0.7196
1446	0.6987
1455	0.4925
1464	0.7175
1473	0.7356
1482	0.7508
1491	0.6977
1500	0.7264
1509	0.6201
1518	0.6922
1527	0.739
1536	0.6464
1545	0.5709
1554	0.7157
1563	0.7243
1572	0.6858
1581	0.4841
1590	0.5376
1599	0.5249
1608	0.6924
1617	0.6745
1626	0.6522
1635	0.6262
1644	0.5851
1653	0.5363
1662	0.419
1671	0.3015
1680	0.2375
1689	0.1995
1698	0.1639
1707	0.1483
1716	0.1394
1725	0.1535
1734	0.1976
1743	0.421
1752	0.5646
1761	0.6242
1770	0.6897
1779	0.7277
1788	0.7546
1797	0.7752
1806	0.7881
1815	0.7993
1824	0.8105
1833	0.8205
1842	0.8302
1851	0.8367
1860	0.8414
1869	0.8452
1878	0.8472
1887	0.8438
1896	0.8372
1905	0.8343
1914	0.8347
1923	0.8372
1932	0.8419
1941	0.8454
1950	0.8427
1959	0.842
1968	0.8433
1977	0.8458
1986	0.8481
1995	0.8531
2004	0.8624
2013	0.8659
2022	0.8675
2031	0.8682
2040	0.8683
2049	0.8677
2058	0.8671
2067	0.8655
2076	0.8635
2085	0.8623
2094	0.863
2103	0.8625
2112	0.8613
2121	0.8601
2130	0.8593
2139	0.8595
2148	0.8598
2157	0.8598
2166	0.8591
2175	0.8598
2184	0.8617
2193	0.8653
2202	0.8642
2211	0.8589
2220	0.858
2229	0.8587
2238	0.8575
2247	0.8567
2256	0.8566
2265	0.8565
2274	0.8565
2283	0.856
2292	0.8541
2301	0.8513
2310	0.8456
2319	0.8421
2328	0.8394
2337	0.8387
2346	0.8385
2355	0.839
2364	0.8404
2373	0.8418
2382	0.842
2391	0.8418
2400	0.8424
2409	0.8436
2418	0.8458
2427	0.8432
2436	0.8379
2445	0.8338
2454	0.8306
2463	0.8282
2472	0.8265
2481	0.8263
2490	0.8233
2499	0.819
2508	0.8146
2517	0.8101
2526	0.8055
2535	0.8006
2544	0.796
2553	0.7918
2562	0.787
2571	0.7821
2580	0.7781
2589	0.7744
2598	0.7711
2607	0.7687
2616	0.7693
2625	0.77
2634	0.7686
2643	0.7674
2652	0.7656
2661	0.7634
2670	0.7644
2679	0.7653
2688	0.76
2697	0.7574
2706	0.7565
2715	0.7516
2724	0.7482
2733	0.7431
2742	0.7355
2751	0.7243
2760	0.7126
2769	0.7008
2778	0.6937
2787	0.6859
2796	0.678
2805	0.6711
2814	0.6641
2823	0.6592
2832	0.6548
2841	0.6517
2850	0.6492
2859	0.655
2868	0.647
2877	0.6454
2886	0.6487
2895	0.6524
2904	0.6562
2913	0.6543
2922	0.6514
2931	0.6519
2940	0.6524
2949	0.6551
2958	0.6585
2967	0.6594
2976	0.6534
2985	0.6487
2994	0.6478
3003	0.636
3012	0.6199
3021	0.6053
3030	0.5896
3039	0.5855
3048	0.5967
3057	0.6049
3066	0.6086
3075	0.6084
3084	0.6038
3093	0.615
3102	0.6308
3111	0.6449
3120	0.649
3129	0.6511
3138	0.6519
3147	0.6529
3156	0.654
3165	0.6553
3174	0.6564
3183	0.6573
3192	0.6613
3201	0.66
3210	0.6591
3219	0.6584
3228	0.6581
3237	0.6578
3246	0.6635
3255	0.6654
3264	0.6658
3273	0.6646
3282	0.6598
3291	0.6544
3300	0.6488
3309	0.6426
3318	0.6357
3327	0.6276
3336	0.6161
3345	0.6053
3354	0.5964
3363	0.5884
3372	0.578
3381	0.5674
3390	0.5656
3399	0.5635
3408	0.5624
3417	0.5668
3426	0.5706
3435	0.5775
3444	0.5887
3453	0.5944
3462	0.6013
3471	0.6088
3480	0.6198
3489	0.64
3498	0.6493
3507	0.6573
3516	0.669
3525	0.6805
3534	0.6906
3543	0.7014
3552	0.7103
3561	0.7232
3570	0.7368
3579	0.7526
3588	0.766
3597	0.7752
3606	0.7783
3615	0.7774
3624	0.7795
3633	0.7793
3642	0.7751
3651	0.776
3660	0.7796
3669	0.7816
3678	0.7804
3687	0.7805
3696	0.7807
3705	0.7824
3714	0.7858
3723	0.7923
3732	0.7931
3741	0.7925
3750	0.7888
3759	0.784
3768	0.7824
3777	0.7829
3786	0.7835
3795	0.784
3804	0.7839
3813	0.7838
3822	0.7838
3831	0.7839
3840	0.7837
3849	0.7828
3858	0.782
3867	0.7814
3876	0.7848
3885	0.784
3894	0.7752
3903	0.7754
3912	0.7755
3921	0.7751
3930	0.7744
3939	0.774
3948	0.7744
3957	0.776
3966	0.7784
3975	0.7789
3984	0.7754
3993	0.7682
