Infrared Spectrum: Atropic acid, p-chloro-, tropyl ester, hydrochloride
Formula: C17 H21 Cl2 N O2
CAS: 6746-91-4
State: SOLID (NUJOL MULL)
Class: COBLENTZ III
Instrument: PERKIN-ELMER 21 (GRATING)
Instrument parameters: NaCl PRISM
Sampling: TRANSMISSION
Resolution: 2
Origin: SMITH KLINE & FRENCH LABS.
1/CM	TRANSMITTANCE
657	0.7342
666	0.6315
675	0.7587
684	0.703
693	0.8505
702	0.8654
711	0.8622
720	0.8119
729	0.7505
738	0.8498
747	0.8835
756	0.7239
765	0.8883
774	0.8216
783	0.9157
792	0.8995
801	0.8744
810	0.5469
819	0.8108
828	0.5739
837	0.741
846	0.4728
855	0.8357
864	0.6034
873	0.8771
882	0.7817
891	0.8642
900	0.8719
909	0.8582
918	0.8234
927	0.706
936	0.7358
945	0.7272
954	0.6523
963	0.295
972	0.6169
981	0.686
990	0.7675
999	0.7365
1008	0.6376
1017	0.6173
1026	0.165
1035	0.5894
1044	0.7976
1053	0.7634
1062	0.6589
1071	0.3981
1080	0.2077
1089	0.2172
1098	0.3964
1107	0.6095
1116	0.7831
1125	0.8452
1134	0.7817
1143	0.6688
1152	0.7056
1161	0.6516
1170	0.3585
1179	0.4567
1188	0.1884
1197	0.1101
1206	0.4624
1215	0.6568
1224	0.7512
1233	0.795
1242	0.7623
1251	0.6567
1260	0.6357
1269	0.7332
1278	0.7664
1287	0.7469
1296	0.4692
1305	0.6398
1314	0.5082
1323	0.3031
1332	0.4336
1341	0.618
1350	0.5874
1359	0.633
1368	0.4062
1377	0.3555
1386	0.4826
1395	0.4698
1404	0.4749
1413	0.7119
1422	0.5951
1431	0.4443
1440	0.3512
1449	0.2177
1458	0.2004
1467	0.2879
1476	0.2899
1485	0.2918
1494	0.3051
1503	0.8104
1512	0.8458
1521	0.8551
1530	0.8454
1539	0.8409
1548	0.8383
1557	0.8216
1566	0.8221
1575	0.8015
1584	0.776
1593	0.72
1602	0.7366
1611	0.5387
1620	0.6483
1629	0.7759
1638	0.758
1647	0.7306
1656	0.6819
1665	0.6711
1674	0.5844
1683	0.3509
1692	0.1564
1701	0.2559
1710	0.448
1719	0.7385
1728	0.8472
1737	0.8851
1746	0.8857
1755	0.8854
1764	0.8962
1773	0.9006
1782	0.8893
1791	0.8799
1800	0.8887
1809	0.8939
1818	0.8929
1827	0.8988
1836	0.8906
1845	0.8858
1854	0.8818
1863	0.8771
1872	0.8745
1881	0.871
1890	0.8623
1899	0.8479
1908	0.8189
1917	0.8117
1926	0.823
1935	0.8388
1944	0.8511
1953	0.8522
1962	0.8494
1971	0.8458
1980	0.8419
1989	0.838
1998	0.8341
2007	0.8304
2016	0.8267
2025	0.8232
2034	0.8184
2043	0.8127
2052	0.8076
2061	0.8054
2070	0.8035
2079	0.8014
2088	0.797
2097	0.7897
2106	0.7839
2115	0.7797
2124	0.776
2133	0.7723
2142	0.7684
2151	0.7617
2160	0.7554
2169	0.7544
2178	0.7552
2187	0.7549
2196	0.751
2205	0.7453
2214	0.7393
2223	0.7332
2232	0.7257
2241	0.7147
2250	0.6998
2259	0.6921
2268	0.6883
2277	0.6766
2286	0.6567
2295	0.6377
2304	0.6196
2313	0.5988
2322	0.5812
2331	0.5628
2340	0.5457
2349	0.5322
2358	0.5245
2367	0.5191
2376	0.5131
2385	0.5016
2394	0.4909
2403	0.4702
2412	0.4501
2421	0.4333
2430	0.4076
2439	0.3647
2448	0.3229
2457	0.21
2466	0.1986
2475	0.1908
2484	0.1887
2493	0.1908
2502	0.1955
2511	0.2014
2520	0.2083
2529	0.2175
2538	0.2301
2547	0.2456
2556	0.2774
2565	0.2991
2574	0.3035
2583	0.3502
2592	0.4093
2601	0.4551
2610	0.4785
2619	0.4764
2628	0.4617
2637	0.4412
2646	0.4179
2655	0.4149
2664	0.4208
2673	0.4253
2682	0.4234
2691	0.4242
2700	0.4298
2709	0.446
2718	0.4627
2727	0.4854
2736	0.5368
2745	0.5466
2754	0.5482
2763	0.5468
2772	0.5429
2781	0.5342
2790	0.5142
2799	0.4931
2808	0.439
2817	0.3883
2826	0.2759
2835	0.1531
2844	0.0709
2853	0.0651
2862	0.0632
2871	0.0597
2880	0.0539
2889	0.0463
2898	0.0427
2907	0.0415
2916	0.0435
2925	0.0478
2934	0.0569
2943	0.079
2952	0.115
2961	0.1349
2970	0.1998
2979	0.2776
2988	0.3942
2997	0.4476
3006	0.4859
3015	0.5078
3024	0.5237
3033	0.5389
3042	0.5528
3051	0.5656
3060	0.5698
3069	0.5727
3078	0.576
3087	0.5793
3096	0.5833
3105	0.5877
3114	0.5935
3123	0.5991
3132	0.6011
3141	0.6016
3150	0.6021
3159	0.6023
3168	0.6025
3177	0.6028
3186	0.603
3195	0.6032
3204	0.6034
3213	0.6036
3222	0.6035
3231	0.6033
3240	0.6031
3249	0.6028
3258	0.6018
3267	0.6
3276	0.5965
3285	0.5937
3294	0.5923
3303	0.592
3312	0.592
3321	0.5912
3330	0.5901
3339	0.5871
3348	0.5848
3357	0.583
3366	0.5832
3375	0.5844
3384	0.5864
3393	0.5871
3402	0.5862
3411	0.5847
3420	0.5832
3429	0.5827
3438	0.583
3447	0.5841
3456	0.5854
3465	0.5871
3474	0.5889
3483	0.5895
3492	0.5893
3501	0.589
3510	0.5876
3519	0.5859
3528	0.5842
3537	0.5816
3546	0.5786
3555	0.5754
3564	0.5723
3573	0.569
3582	0.5656
3591	0.5626
3600	0.5605
3609	0.5585
3618	0.5566
3627	0.5547
3636	0.5529
3645	0.5513
3654	0.5498
3663	0.5483
3672	0.5468
3681	0.5459
3690	0.5451
3699	0.5443
3708	0.5435
3717	0.5426
3726	0.5419
3735	0.5415
3744	0.5411
3753	0.5407
3762	0.5403
3771	0.5399
3780	0.5397
3789	0.5395
3798	0.5392
3807	0.539
3816	0.5386
3825	0.5375
3834	0.5364
3843	0.5353
3852	0.5339
3861	0.5319
3870	0.53
3879	0.5281
3888	0.526
3897	0.5236
3906	0.5212
3915	0.5189
3924	0.5165
3933	0.5141
3942	0.5116
3951	0.5091
3960	0.5067
3969	0.5043
3978	0.5023
3987	0.5003
3996	0.4983
