Infrared Spectrum: 2-HYDROXY-1-PHENYLETHYL AZIDE
Formula: C8 H9 N3 O
CAS: 67464-41-9
Class: COBLENTZ
Instrument: Not specified, most likely a grating spectrometer.
Sampling: TRANSMISSION
Resolution: 4
Origin: ABBOTT LABORATORIES
MICROMETERS	TRANSMITTANCE
2.063	0.905
2.09812	0.905
2.13324	0.905
2.16835	0.905
2.20347	0.905
2.23859	0.905
2.27371	0.905
2.30882	0.905
2.34394	0.903
2.37906	0.903
2.41418	0.903
2.4493	0.9
2.48441	0.895
2.51953	0.902
2.55465	0.907
2.58977	0.907
2.62488	0.903
2.66	0.9
2.69512	0.895
2.73024	0.876
2.76535	0.818
2.80047	0.754
2.83559	0.708
2.87071	0.619
2.90583	0.562
2.94094	0.531
2.97606	0.526
3.01118	0.552
3.0463	0.595
3.08141	0.648
3.11653	0.694
3.15165	0.756
3.18677	0.794
3.22189	0.818
3.257	0.811
3.29212	0.797
3.32724	0.794
3.36236	0.83
3.39747	0.754
3.43259	0.735
3.46771	0.751
3.50283	0.771
3.53795	0.819
3.57306	0.847
3.60818	0.857
3.6433	0.867
3.67842	0.876
3.71353	0.881
3.74865	0.883
3.78377	0.881
3.81889	0.879
3.854	0.879
3.88912	0.879
3.92424	0.878
3.95936	0.874
3.99448	0.871
4.02959	0.867
4.06471	0.869
4.09983	0.874
4.13495	0.879
4.17006	0.886
4.20518	0.891
4.2403	0.898
4.27542	0.9
4.31054	0.898
4.34565	0.893
4.38077	0.885
4.41589	0.878
4.45101	0.869
4.48612	0.854
4.52124	0.845
4.55636	0.821
4.59148	0.792
4.62659	0.694
4.66171	0.504
4.69683	0.331
4.73195	0.192
4.76707	0.118
4.80218	0.159
4.8373	0.543
4.87242	0.687
4.90754	0.813
4.94265	0.845
4.97777	0.871
5.01289	0.881
5.04801	0.885
5.08313	0.883
5.11824	0.881
5.15336	0.883
5.18848	0.886
5.2236	0.89
5.25871	0.891
5.29383	0.891
5.32895	0.885
5.36407	0.888
5.39919	0.895
5.4343	0.898
5.46942	0.895
5.50454	0.893
5.53966	0.89
5.57477	0.891
5.60989	0.895
5.64501	0.898
5.68013	0.895
5.71524	0.895
5.75036	0.895
5.78548	0.895
5.8206	0.893
5.85572	0.891
5.89083	0.888
5.92595	0.885
5.96107	0.881
5.99619	0.878
6.0313	0.874
6.06642	0.876
6.10154	0.873
6.13666	0.869
6.17178	0.871
6.20689	0.859
6.24201	0.845
6.27713	0.861
6.31225	0.859
6.34736	0.866
6.38248	0.874
6.4176	0.876
6.45272	0.878
6.48784	0.878
6.52295	0.876
6.55807	0.871
6.59319	0.871
6.62831	0.869
6.66342	0.852
6.69854	0.785
6.73366	0.68
6.76878	0.823
6.80389	0.833
6.83901	0.804
6.87413	0.782
6.90925	0.603
6.94437	0.639
6.97948	0.747
7.0146	0.778
7.04972	0.783
7.08484	0.782
7.11995	0.773
7.15507	0.768
7.19019	0.761
7.22531	0.749
7.26043	0.749
7.29554	0.754
7.33066	0.759
7.36578	0.753
7.4009	0.723
7.43601	0.694
7.47113	0.648
7.50625	0.65
7.54137	0.665
7.57649	0.65
7.6116	0.656
7.64672	0.603
7.68184	0.578
7.71696	0.617
7.75207	0.622
7.78719	0.602
7.82231	0.591
7.85743	0.557
7.89254	0.542
7.92766	0.53
7.96278	0.523
7.9979	0.514
8.03302	0.504
8.06813	0.507
8.10325	0.547
8.13837	0.576
8.17349	0.617
8.2086	0.641
8.24372	0.662
8.27884	0.689
8.31396	0.713
8.34908	0.734
8.38419	0.74
8.41931	0.74
8.45443	0.74
8.48955	0.751
8.52466	0.768
8.55978	0.785
8.5949	0.807
8.63002	0.821
8.66514	0.825
8.70025	0.828
8.73537	0.833
8.77049	0.85
8.80561	0.857
8.84072	0.859
8.87584	0.859
8.91096	0.854
8.94608	0.849
8.98119	0.84
9.01631	0.828
9.05143	0.816
9.08655	0.802
9.12167	0.778
9.15678	0.735
9.1919	0.701
9.22702	0.677
9.26214	0.663
9.29725	0.653
9.33237	0.62
9.36749	0.574
9.40261	0.536
9.43773	0.557
9.47284	0.581
9.50796	0.612
9.54308	0.62
9.5782	0.612
9.61331	0.596
9.64843	0.595
9.68355	0.598
9.71867	0.602
9.75378	0.602
9.7889	0.605
9.82402	0.629
9.85914	0.658
9.89426	0.677
9.92937	0.699
9.96449	0.732
9.99961	0.744
10.0347	0.773
10.0698	0.795
10.105	0.804
10.1401	0.811
10.1752	0.816
10.2103	0.823
10.2454	0.828
10.2806	0.833
10.3157	0.838
10.3508	0.842
10.3859	0.845
10.421	0.843
10.4561	0.842
10.4913	0.838
10.5264	0.835
10.5615	0.838
10.5966	0.838
10.6317	0.842
10.6668	0.838
10.702	0.843
10.7371	0.842
10.7722	0.842
10.8073	0.838
10.8424	0.838
10.8776	0.831
10.9127	0.819
10.9478	0.811
10.9829	0.807
11.018	0.814
11.0531	0.823
11.0883	0.828
11.1234	0.833
11.1585	0.837
11.1936	0.833
11.2287	0.823
11.2638	0.814
11.299	0.806
11.3341	0.801
11.3692	0.792
11.4043	0.783
11.4394	0.773
11.4746	0.765
11.5097	0.754
11.5448	0.751
11.5799	0.766
11.615	0.783
11.6501	0.794
11.6853	0.804
11.7204	0.813
11.7555	0.816
11.7906	0.816
11.8257	0.821
11.8608	0.825
11.896	0.826
11.9311	0.828
11.9662	0.828
12.0013	0.828
12.0364	0.83
12.0716	0.831
12.1067	0.831
12.1418	0.835
12.1769	0.837
12.212	0.837
12.2471	0.837
12.2823	0.837
12.3174	0.837
12.3525	0.835
12.3876	0.835
12.4227	0.833
12.4579	0.831
12.493	0.831
12.5281	0.831
12.5632	0.831
12.5983	0.83
12.6334	0.826
12.6686	0.826
12.7037	0.825
12.7388	0.821
12.7739	0.816
12.809	0.811
12.8441	0.806
12.8793	0.799
12.9144	0.78
12.9495	0.754
12.9846	0.725
13.0197	0.689
13.0549	0.658
13.09	0.602
13.1251	0.566
13.1602	0.542
13.1953	0.538
13.2304	0.555
13.2656	0.586
13.3007	0.619
13.3358	0.65
13.3709	0.682
13.406	0.713
13.4411	0.734
13.4763	0.742
13.5114	0.749
13.5465	0.753
13.5816	0.756
13.6167	0.756
13.6519	0.756
13.687	0.754
13.7221	0.751
13.7572	0.747
13.7923	0.742
13.8274	0.735
13.8626	0.723
13.8977	0.713
13.9328	0.694
13.9679	0.682
14.003	0.648
14.0381	0.612
14.0733	0.583
14.1084	0.502
14.1435	0.452
14.1786	0.399
14.2137	0.337
14.2489	0.295
14.284	0.288
14.3191	0.329
14.3542	0.428
14.3893	0.521
14.4244	0.581
14.4596	0.605
14.4947	0.614
14.5298	0.622
14.5649	0.626
14.6	0.626
14.6352	0.624
14.6703	0.619
14.7054	0.615
14.7405	0.608
14.7756	0.6
14.8107	0.596
14.8459	0.59
14.881	0.586
14.9161	0.584
14.9512	0.584
14.9863	0.583
15.0214	0.579
15.0566	0.574
15.0917	0.571
15.1268	0.564
15.1619	0.56
15.197	0.554
15.2322	0.548
15.2673	0.542
15.3024	0.533
15.3375	0.524
15.3726	0.518
15.4077	0.511
15.4429	0.506
15.478	0.507
