Infrared Spectrum: 2,5-Dichlorobenzhydrazide
Formula: C 7 H 6 Cl 2 N 2 O
CAS: 67487-35-8
State: gas
Origin: EPA-IR VAPOR PHASE LIBRARY
1/CM	ABSORBANCE
549.8	0.004676
559.445	0.004636
569.09	0.005666
578.734	0.005576
588.379	0.004816
598.024	0.004266
607.669	0.002626
617.313	0.002066
626.958	0.001876
636.603	0.001636
646.248	0.0013104
655.893	0.001946
665.537	0.002386
675.182	0.001826
684.827	0.001866
694.472	0.001856
704.116	0.001776
713.761	0.0012497
723.406	0.001386
733.051	0.001376
742.695	0.0012751
752.34	0.001416
761.985	0.002556
771.63	0.004796
781.275	0.004666
790.919	0.003116
800.564	0.003546
810.209	0.008516
819.854	0.010076
829.498	0.004286
839.143	0.003056
848.788	0.003796
858.433	0.004786
868.078	0.005856
877.722	0.006576
887.367	0.007306
897.012	0.006426
906.657	0.004176
916.301	0.003856
925.946	0.005296
935.591	0.008746
945.236	0.011406
954.88	0.008236
964.525	0.004016
974.17	0.002556
983.815	0.001856
993.46	0.001656
1003.1	0.0013481
1012.75	0.001366
1022.39	0.001756
1032.04	0.005006
1041.68	0.011416
1051.33	0.009636
1060.97	0.004846
1070.62	0.004066
1080.26	0.005906
1089.91	0.009886
1099.55	0.014966
1109.2	0.009236
1118.84	0.004586
1128.49	0.003256
1138.13	0.002906
1147.78	0.002236
1157.42	0.001416
1167.07	0.001706
1176.71	0.001946
1186.36	0.001486
1196	0.0012797
1205.64	0.001616
1215.29	0.001556
1224.93	0.002266
1234.58	0.003576
1244.22	0.005276
1253.87	0.006316
1263.51	0.008326
1273.16	0.016316
1282.8	0.021186
1292.45	0.012116
1302.09	0.005676
1311.74	0.003156
1321.38	0.002536
1331.03	0.002586
1340.67	0.002536
1350.32	0.002176
1359.96	0.002116
1369.61	0.002926
1379.25	0.005376
1388.9	0.005496
1398.54	0.003876
1408.18	0.003826
1417.83	0.005466
1427.47	0.010736
1437.12	0.021306
1446.76	0.027596
1456.41	0.026216
1466.05	0.021556
1475.7	0.016636
1485.34	0.015716
1494.99	0.013686
1504.63	0.009586
1514.28	0.006666
1523.92	0.005056
1533.57	0.003806
1543.21	0.003436
1552.86	0.003966
1562.5	0.003576
1572.15	0.002386
1581.79	0.002736
1591.44	0.003276
1601.08	0.003806
1610.73	0.005386
1620.37	0.007666
1630.01	0.010126
1639.66	0.009746
1649.3	0.007416
1658.95	0.006566
1668.59	0.008356
1678.24	0.012306
1687.88	0.019066
1697.53	0.026546
1707.17	0.027276
1716.82	0.024526
1726.46	0.015096
1736.11	0.006806
1745.75	0.003676
1755.4	0.002526
1765.04	0.002006
1774.69	0.001526
1784.33	0.0012345
1793.98	0.0010921
1803.62	0.0009242
1813.27	0.0009538
1822.91	0.0008374
1832.55	0.000666
1842.2	0.0007058
1851.84	0.000614
1861.49	0.0005413
1871.13	0.00059
1880.78	0.0008238
1890.42	0.0010721
1900.07	0.0007866
1909.71	0.0005085
1919.36	0.00035473
1929	0.00039438
1938.65	0.00040839
1948.29	0.000341
1957.94	0.000335
1967.58	0.0003429
1977.23	0.000219
1986.87	0.0002812
1996.52	0.0003135
2006.16	0.0003131
2015.81	0.000216
2025.45	0.00040396
2035.1	0.000324
2044.74	0.000322
2054.38	0.0003155
2064.03	0.000251
2073.67	0.0002586
2083.32	0.0002626
2092.96	0.000246
2102.61	0.000245
2112.25	0.000226
2121.9	0.000202
2131.54	0.000157
2141.19	0.000242
2150.83	0.0002805
2160.48	0.0002921
2170.12	0.00025
2179.77	0.0002979
2189.41	0.0003287
2199.06	0.0003165
2208.7	0.0002913
2218.35	0.0003161
2227.99	0.0003181
2237.64	0.000191
2247.28	0.000239
2256.92	0.000207
2266.57	0.0002701
2276.21	0.00034927
2285.86	0.0002783
2295.5	0.000246
2305.15	0.0003176
2314.79	0.000341
2324.44	0.00037676
2334.08	0.00040337
2343.73	0.00038009
2353.37	0.000326
2363.02	0.000358852
2372.66	0.000239
2382.31	0.0002947
2391.95	0.0002765
2401.6	0.0002691
2411.24	0.0002991
2420.89	0.0002662
2430.53	0.000256
2440.18	0.00035224
2449.82	0.000251
2459.47	0.0002829
2469.11	0.0002839
2478.75	0.000245
2488.4	0.000245
2498.04	0.0002905
2507.69	0.000244
2517.33	0.0003115
2526.98	0.000215
2536.62	0.000245
2546.27	0.0003403
2555.91	0.0003421
2565.56	0.00038155
2575.2	0.0002591
2584.85	0.00042768
2594.49	0.00041569
2604.14	0.0003198
2613.78	0.0003199
2623.43	0.000308
2633.07	0.000223
2642.72	0.0003044
2652.36	0.000186
2662.01	0.000178
2671.65	0.0002778
2681.29	0.0003282
2690.94	0.0003213
2700.58	0.0002854
2710.23	0.0003297
2719.87	0.0002949
2729.52	0.0002876
2739.16	0.0002988
2748.81	0.0004298
2758.45	0.0003056
2768.1	0.000246
2777.74	0.0002677
2787.39	0.0003406
2797.03	0.0003422
2806.68	0.0003337
2816.32	0.0003266
2825.97	0.000362543
2835.61	0.00035479
2845.26	0.000344
2854.9	0.000255
2864.55	0.0003323
2874.19	0.000236
2883.84	0.0002704
2893.48	0.000223
2903.12	0.0002993
2912.77	0.0002735
2922.41	0.0003158
2932.06	0.000138
2941.7	0.00035019
2951.35	0.0004891
2960.99	0.00040992
2970.64	0.000205
2980.28	0.000237
2989.93	0.00037125
2999.57	0.000181
3009.22	0.000248
3018.86	0.0003075
3028.51	0.0002681
3038.15	0.0003369
3047.8	0.0003338
3057.44	0.0004825
3067.09	0.0004986
3076.73	0.0009844
3086.38	0.0007063
3096.02	0.00044127
3105.67	0.00038752
3115.31	0.0005183
3124.95	0.0002986
3134.6	0.000246
3144.24	0.0002798
3153.89	0.000219
3163.53	0.000312
3173.18	0.0002683
3182.82	0.0004919
3192.47	0.0005854
3202.11	0.0005523
3211.76	0.0007015
3221.4	0.0004959
3231.05	0.0004999
3240.69	0.00044081
3250.34	0.000255
3259.98	0.00038691
3269.63	0.000243
3279.27	0.00039816
3288.92	0.0003355
3298.56	0.000228
3308.21	0.00038187
3317.85	0.00038982
3327.49	0.00043834
3337.14	0.0005788
3346.78	0.0007796
3356.43	0.0008436
3366.07	0.000613
3375.72	0.000484
3385.36	0.000671
3395.01	0.0007413
3404.65	0.0009531
3414.3	0.0010326
3423.94	0.001376
3433.59	0.002166
3443.23	0.003566
3452.88	0.005106
3462.52	0.007296
3472.17	0.006796
3481.81	0.005066
3491.46	0.003126
3501.1	0.001906
3510.75	0.000941
3520.39	0.0005496
3530.04	0.00037846
3539.68	0.0002627
3549.32	0.00040007
3558.97	0.000219
3568.61	0.000241
3578.26	0.0004457
3587.9	0.0003314
3597.55	0.00021
3607.19	0.000244
3616.84	0.000234
3626.48	0.000211
3636.13	0.000157
3645.77	0.000146
3655.42	0.000136
3665.06	0.0002766
3674.71	0.00041287
3684.35	0.0003299
3694	0.0003283
3703.64	0.000119
3713.29	0.000179
3722.93	0.000117
3732.58	0.00015
3742.22	0.00038298
3751.86	0.000158
3761.51	0.000215
3771.15	0.0003368
3780.8	0.00036771
3790.44	0.000249
3800.09	0.000133
3809.73	0.000211
3819.38	0.0003075
3829.02	0.0004662
3838.67	0.0004868
3848.31	0.0002608
3857.96	0.000169
3867.6	9.1e-05
3877.25	0.00041369
3886.89	0.00037251
3896.54	0.000195
3906.18	0.00039349
3915.83	0.00036927
3925.47	0.000229
3935.12	0.0002633
3944.76	0.000235
3954.41	0.00015
3964.05	6.3e-05
3973.69	0.000187
3983.34	5.1e-05
3992.98	9.7e-05
