Infrared Spectrum: 3,7,11-Trimethyl-1-dodecanol
Formula: C 15 H 32 O
CAS: 6750-34-1
State: gas
Instrument: HP-GC/MS/IRD
Origin: NIST Mass Spectrometry Data Center
1/CM	ABSORBANCE
550	0.00038
562	0.000224
574	0.0002
586	0.0002
598	4.4e-05
610	3.2e-05
622	0.0001
634	6e-05
646	4e-05
658	8e-05
670	4e-06
682	6.4e-05
694	0.000104
706	0.000212
718	0.000352
730	0.000468
742	0.000408
754	0.000232
766	0.000232
778	0.000264
790	0.000268
802	0.000324
814	0.00034
826	0.000448
838	0.000464
850	0.00056
862	0.000524
874	0.00044
886	0.000388
898	0.000488
910	0.000648
922	0.000856
934	0.00104
946	0.001256
958	0.001684
970	0.001924
982	0.00204
994	0.002448
1006	0.002952
1018	0.003264
1030	0.004512
1042	0.005724
1054	0.005548
1066	0.004068
1078	0.002384
1090	0.001588
1102	0.001324
1114	0.001192
1126	0.001168
1138	0.001244
1150	0.001436
1162	0.001588
1174	0.001456
1186	0.001236
1198	0.001188
1210	0.001272
1222	0.001252
1234	0.001204
1246	0.001184
1258	0.001228
1270	0.00134
1282	0.001376
1294	0.001352
1306	0.001356
1318	0.001488
1330	0.00172
1342	0.0021
1354	0.002524
1366	0.003476
1378	0.005152
1390	0.004464
1402	0.00206
1414	0.001352
1426	0.001332
1438	0.002076
1450	0.003492
1462	0.005328
1474	0.004172
1486	0.001884
1498	0.000884
1510	0.000548
1522	0.000356
1534	0.000248
1546	0.00022
1558	0.000216
1570	0.000124
1582	8.4e-05
1594	8.8e-05
1606	9.2e-05
1618	9.6e-05
1630	8.8e-05
1642	0.000104
1654	0.00016
1666	8.4e-05
1678	0.0001
1690	7.2e-05
1702	9.6e-05
1714	0.000108
1726	4.4e-05
1738	8.4e-05
1750	8.8e-05
1762	4.8e-05
1774	4e-05
1786	2.4e-05
1798	3.6e-05
1810	2.4e-05
1822	4.8e-05
1834	3.6e-05
1846	3.2e-05
1858	2.4e-05
1870	4.8e-05
1882	4e-05
1894	4.4e-05
1906	2.4e-05
1918	4.8e-05
1930	2e-05
1942	1.2e-05
1954	2.8e-05
1966	4e-06
1978	2.4e-05
1990	3.2e-05
2002	3.2e-05
2014	5.6e-05
2026	5.6e-05
2038	7.6e-05
2050	6e-05
2062	4e-05
2074	5.6e-05
2086	2.4e-05
2098	2.4e-05
2110	2.4e-05
2122	1.2e-05
2134	2.4e-05
2146	4e-06
2158	2e-05
2170	1.6e-05
2182	2.4e-05
2194	2e-05
2206	1.2e-05
2218	3.2e-05
2230	0
2242	4.4e-05
2254	3.2e-05
2266	3.2e-05
2278	6e-05
2290	7.6e-05
2302	6.4e-05
2314	5.6e-05
2326	6.4e-05
2338	5.2e-05
2350	4e-05
2362	2.8e-05
2374	7.2e-05
2386	8.8e-05
2398	0.00012
2410	8.8e-05
2422	0.000108
2434	9.6e-05
2446	0.000108
2458	0.000104
2470	0.000112
2482	0.000132
2494	0.000124
2506	0.000156
2518	0.000184
2530	0.000192
2542	0.000204
2554	0.000212
2566	0.00026
2578	0.000296
2590	0.00036
2602	0.000376
2614	0.000404
2626	0.000464
2638	0.00048
2650	0.000488
2662	0.000524
2674	0.000576
2686	0.000592
2698	0.000648
2710	0.000748
2722	0.000904
2734	0.00102
2746	0.001004
2758	0.001016
2770	0.0011
2782	0.001276
2794	0.001568
2806	0.00194
2818	0.002508
2830	0.00354
2842	0.006236
2854	0.01206
2866	0.015044
2878	0.01968
2890	0.019332
2902	0.02332
2914	0.030036
2926	0.036956
2938	0.038528
2950	0.030108
2962	0.037272
2974	0.023412
2986	0.00774
2998	0.003576
3010	0.002168
3022	0.001476
3034	0.001156
3046	0.000972
3058	0.000804
3070	0.000764
3082	0.000696
3094	0.00064
3106	0.000552
3118	0.000532
3130	0.000492
3142	0.000476
3154	0.000436
3166	0.000424
3178	0.000432
3190	0.00034
3202	0.000316
3214	0.000264
3226	0.000168
3238	0.000128
3250	0.000108
3262	0.0001
3274	0.000116
3286	9.2e-05
3298	8.8e-05
3310	9.6e-05
3322	9.6e-05
3334	0.00012
3346	0.000128
3358	0.000112
3370	9.2e-05
3382	9.6e-05
3394	4e-05
3406	8.4e-05
3418	8e-05
3430	7.2e-05
3442	5.6e-05
3454	5.6e-05
3466	8e-05
3478	6.4e-05
3490	7.2e-05
3502	9.2e-05
3514	3.2e-05
3526	8.4e-05
3538	2.4e-05
3550	8.8e-05
3562	4e-05
3574	6e-05
3586	0.00012
3598	6.4e-05
3610	0.000164
3622	0.000168
3634	0.000332
3646	0.00064
3658	0.00132
3670	0.001568
3682	0.000752
3694	0.0003
3706	0.00014
3718	0.000112
3730	0.00012
3742	0.000132
3754	8.4e-05
3766	4.8e-05
3778	8e-05
3790	1.6e-05
3802	0.0001
3814	8.8e-05
3826	9.2e-05
3838	0.000132
