Infrared Spectrum: 4-Fluoro-3-(trifluoromethyl)benzylamine
Formula: C 8 H 7 F 4 N
CAS: 67515-74-6
State: gas
Origin: EPA-IR VAPOR PHASE LIBRARY
1/CM	ABSORBANCE
549.8	0.00616
559.445	0.00534
569.09	0.00485
578.734	0.00538
588.379	0.00536
598.024	0.00364
607.669	0.00479
617.313	0.00419
626.958	0.00464
636.603	0.00551
646.248	0.00704
655.893	0.01081
665.537	0.01535
675.182	0.01182
684.827	0.00916
694.472	0.01015
704.116	0.01235
713.761	0.01477
723.406	0.01655
733.051	0.01808
742.695	0.01465
752.34	0.01232
761.985	0.01646
771.63	0.01911
781.275	0.01673
790.919	0.01383
800.564	0.01204
810.209	0.0138
819.854	0.01909
829.498	0.01964
839.143	0.01201
848.788	0.00674
858.433	0.0048
868.078	0.00491
877.722	0.00762
887.367	0.01035
897.012	0.01065
906.657	0.00887
916.301	0.00608
925.946	0.0051
935.591	0.00413
945.236	0.00421
954.88	0.00409
964.525	0.00372
974.17	0.00266
983.815	0.00235
993.46	0.00347
1003.1	0.00312
1012.75	0.00338
1022.39	0.0043
1032.04	0.00586
1041.68	0.01161
1051.33	0.03296
1060.97	0.04209
1070.62	0.01654
1080.26	0.00771
1089.91	0.00754
1099.55	0.00722
1109.2	0.01102
1118.84	0.02612
1128.49	0.04715
1138.13	0.06092
1147.78	0.09147
1157.42	0.14673
1167.07	0.16202
1176.71	0.07847
1186.36	0.05427
1196	0.05162
1205.64	0.03236
1215.29	0.01877
1224.93	0.01606
1234.58	0.03541
1244.22	0.07846
1253.87	0.06324
1263.51	0.03826
1273.16	0.03386
1282.8	0.02506
1292.45	0.02625
1302.09	0.03819
1311.74	0.0769
1321.38	0.11845
1331.03	0.07774
1340.67	0.02668
1350.32	0.01378
1359.96	0.01144
1369.61	0.01205
1379.25	0.01214
1388.9	0.01006
1398.54	0.00833
1408.18	0.00886
1417.83	0.01461
1427.47	0.0279
1437.12	0.02572
1446.76	0.00985
1456.41	0.00728
1466.05	0.00823
1475.7	0.00894
1485.34	0.01295
1494.99	0.03531
1504.63	0.06354
1514.28	0.04089
1523.92	0.01238
1533.57	0.00647
1543.21	0.00519
1552.86	0.00463
1562.5	0.0043
1572.15	0.00497
1581.79	0.00677
1591.44	0.01016
1601.08	0.01604
1610.73	0.02327
1620.37	0.02772
1630.01	0.01789
1639.66	0.00851
1649.3	0.00578
1658.95	0.00422
1668.59	0.00342
1678.24	0.00256
1687.88	0.0019614
1697.53	0.0019327
1707.17	0.0019625
1716.82	0.0018847
1726.46	0.0015502
1736.11	0.0016593
1745.75	0.0019562
1755.4	0.00182
1765.04	0.0019512
1774.69	0.00211
1784.33	0.00219
1793.98	0.00224
1803.62	0.0020588
1813.27	0.001978
1822.91	0.0018749
1832.55	0.0019295
1842.2	0.0016998
1851.84	0.0018612
1861.49	0.001498
1871.13	0.0012999
1880.78	0.0016801
1890.42	0.00222
1900.07	0.00224
1909.71	0.00212
1919.36	0.0017376
1929	0.001469
1938.65	0.0014083
1948.29	0.0012323
1957.94	0.0013653
1967.58	0.0012264
1977.23	0.00118419
1986.87	0.0012344
1996.52	0.0013201
2006.16	0.0012362
2015.81	0.0016322
2025.45	0.0015121
2035.1	0.00114862
2044.74	0.0013696
2054.38	0.0016922
2064.03	0.0013779
2073.67	0.0014609
2083.32	0.0012738
2092.96	0.00109585
2102.61	0.0011921
2112.25	0.0012537
2121.9	0.0012589
2131.54	0.0013122
2141.19	0.0013929
2150.83	0.0012519
2160.48	0.00086
2170.12	0.0013868
2179.77	0.0013718
2189.41	0.0014167
2199.06	0.0015281
2208.7	0.0014471
2218.35	0.0018558
2227.99	0.001426
2237.64	0.0012151
2247.28	0.0013962
2256.92	0.0013513
2266.57	0.0013429
2276.21	0.0016257
2285.86	0.0015477
2295.5	0.0017871
2305.15	0.0016241
2314.79	0.0015115
2324.44	0.0016064
2334.08	0.0018337
2343.73	0.0015987
2353.37	0.0012721
2363.02	0.0016911
2372.66	0.0013562
2382.31	0.0016683
2391.95	0.0013568
2401.6	0.00118456
2411.24	0.00114266
2420.89	0.0010134
2430.53	0.0010741
2440.18	0.0014277
2449.82	0.00109551
2459.47	0.0010301
2469.11	0.0013697
2478.75	0.0010309
2488.4	0.0015796
2498.04	0.001513
2507.69	0.0012874
2517.33	0.0013113
2526.98	0.0012419
2536.62	0.0010646
2546.27	0.00115353
2555.91	0.0014002
2565.56	0.00118688
2575.2	0.0012224
2584.85	0.001255
2594.49	0.0012611
2604.14	0.0010435
2613.78	0.0012837
2623.43	0.0014258
2633.07	0.0018358
2642.72	0.0014369
2652.36	0.001408
2662.01	0.0011261
2671.65	0.0013297
2681.29	0.0015443
2690.94	0.0012296
2700.58	0.0014433
2710.23	0.0012931
2719.87	0.0017414
2729.52	0.0016825
2739.16	0.0016754
2748.81	0.001918
2758.45	0.00216
2768.1	0.0019375
2777.74	0.0020654
2787.39	0.0019052
2797.03	0.0021
2806.68	0.00229
2816.32	0.00295
2825.97	0.00311
2835.61	0.00426
2845.26	0.00527
2854.9	0.00689
2864.55	0.00826
2874.19	0.00833
2883.84	0.00738
2893.48	0.00733
2903.12	0.00753
2912.77	0.00804
2922.41	0.00665
2932.06	0.00682
2941.7	0.00683
2951.35	0.00553
2960.99	0.00453
2970.64	0.00363
2980.28	0.00219
2989.93	0.0017404
2999.57	0.0016051
3009.22	0.0017307
3018.86	0.00212
3028.51	0.0025
3038.15	0.00286
3047.8	0.00337
3057.44	0.00263
3067.09	0.0019837
3076.73	0.00212
3086.38	0.0017929
3096.02	0.0018851
3105.67	0.001271
3115.31	0.001425
3124.95	0.000783
3134.6	0.000934
3144.24	0.00089
3153.89	0.00110549
3163.53	0.000949
3173.18	0.0013587
3182.82	0.0013178
3192.47	0.000881
3202.11	0.000935
3211.76	0.0017482
3221.4	0.0014513
3231.05	0.00110928
3240.69	0.000761
3250.34	0.0010629
3259.98	0.001224
3269.63	0.000955
3279.27	0.000784
3288.92	0.0010434
3298.56	0.0010761
3308.21	0.0013295
3317.85	0.00111986
3327.49	0.000901
3337.14	0.0012822
3346.78	0.0010916
3356.43	0.0013711
3366.07	0.0011913
3375.72	0.000512
3385.36	0.00066
3395.01	0.0012304
3404.65	0.0015553
3414.3	0.0015213
3423.94	0.0016062
3433.59	0.0015312
3443.23	0.0011901
3452.88	0.0013528
3462.52	0.0014368
3472.17	0.00110916
3481.81	0.0010778
3491.46	0.00111696
3501.1	0.000771
3510.75	0.000721
3520.39	0.000908
3530.04	1e-05
3539.68	0.0013229
3549.32	0.000714
3558.97	0.000605
3568.61	0.0010644
3578.26	0.0012059
3587.9	0.0011918
3597.55	0.000597
3607.19	0.000867
3616.84	0.00116392
3626.48	0.0012433
3636.13	0.0010172
3645.77	0.0014335
3655.42	0.000424
3665.06	0.000657
3674.71	0.0013158
3684.35	0.00108115
3694	0.0013471
3703.64	0.000582
3713.29	0
3722.93	0.00116162
3732.58	0.000747
3742.22	0.0012551
3751.86	0.0013404
3761.51	0.0012774
3771.15	0.000323
3780.8	0.0013678
3790.44	0.0015591
3800.09	0.0012736
3809.73	0.0014551
3819.38	0.00109299
3829.02	0.001481
3838.67	0.000744
3848.31	0.00117632
3857.96	0.0013834
3867.6	0.0010672
3877.25	0.00108247
3886.89	0.00112302
3896.54	0.0009
3906.18	0.000731
3915.83	0.0010334
3925.47	0.00114681
3935.12	0.001074
3944.76	0.0013047
3954.41	0.001349
3964.05	0.0012596
3973.69	0.0012937
3983.34	0.0013499
3992.98	0.00113096
