Infrared Spectrum: 4-Fluoro-3-(trifluomethyl)benzoic acid
Formula: C 8 H 4 F 4 O 2
CAS: 67515-55-3
State: gas
Origin: EPA-IR VAPOR PHASE LIBRARY
1/CM	ABSORBANCE
549.8	0.004036
559.445	0.005316
569.09	0.007606
578.734	0.007556
588.379	0.005866
598.024	0.005336
607.669	0.010656
617.313	0.011956
626.958	0.005356
636.603	0.002126
646.248	0.002206
655.893	0.006316
665.537	0.010796
675.182	0.003526
684.827	0.0012343
694.472	0.00100787
704.116	0.0017297
713.761	0.0010436
723.406	0.002336
733.051	0.003896
742.695	0.002816
752.34	0.003436
761.985	0.008176
771.63	0.009896
781.275	0.004416
790.919	0.001976
800.564	0.0017823
810.209	0.0010514
819.854	0.002346
829.498	0.002066
839.143	0.003996
848.788	0.003576
858.433	0.0018019
868.078	0.0017871
877.722	0.002646
887.367	0.002116
897.012	0.0010647
906.657	0.0010662
916.301	0.002576
925.946	0.003916
935.591	0.002696
945.236	0.0013516
954.88	0.0012863
964.525	0.0012422
974.17	0.0010824
983.815	0.0010516
993.46	0.0012541
1003.1	0.0009285
1012.75	0.001827
1022.39	0.000628
1032.04	0.0019205
1041.68	0.003856
1051.33	0.008376
1060.97	0.012896
1070.62	0.012156
1080.26	0.019926
1089.91	0.022906
1099.55	0.014436
1109.2	0.006226
1118.84	0.008596
1128.49	0.015786
1138.13	0.020016
1147.78	0.027276
1157.42	0.050426
1167.07	0.080786
1176.71	0.066656
1186.36	0.036646
1196	0.021186
1205.64	0.012756
1215.29	0.008196
1224.93	0.007336
1234.58	0.010176
1244.22	0.016146
1253.87	0.022526
1263.51	0.019396
1273.16	0.026436
1282.8	0.034796
1292.45	0.030046
1302.09	0.025536
1311.74	0.029946
1321.38	0.023186
1331.03	0.014806
1340.67	0.010066
1350.32	0.008916
1359.96	0.013636
1369.61	0.014496
1379.25	0.008186
1388.9	0.005146
1398.54	0.004016
1408.18	0.003766
1417.83	0.006936
1427.47	0.008036
1437.12	0.003646
1446.76	0.002666
1456.41	0.002216
1466.05	0.002316
1475.7	0.003076
1485.34	0.004716
1494.99	0.008866
1504.63	0.014666
1514.28	0.009206
1523.92	0.003426
1533.57	0.002026
1543.21	0.002016
1552.86	0.001986
1562.5	0.002506
1572.15	0.002676
1581.79	0.004326
1591.44	0.006236
1601.08	0.008776
1610.73	0.010206
1620.37	0.013886
1630.01	0.009306
1639.66	0.004476
1649.3	0.002896
1658.95	0.0017463
1668.59	0.0016388
1678.24	0.0016857
1687.88	0.0016781
1697.53	0.0018591
1707.17	0.002906
1716.82	0.004186
1726.46	0.004046
1736.11	0.003976
1745.75	0.007596
1755.4	0.025826
1765.04	0.060786
1774.69	0.035266
1784.33	0.007366
1793.98	0.003176
1803.62	0.002996
1813.27	0.003976
1822.91	0.003456
1832.55	0.001956
1842.2	0.001623
1851.84	0.001571
1861.49	0.0012839
1871.13	0.0013122
1880.78	0.0013496
1890.42	0.0016066
1900.07	0.0014363
1909.71	0.0012717
1919.36	0.0013731
1929	0.0013898
1938.65	0.0012524
1948.29	0.0010651
1957.94	0.0008981
1967.58	0.001138
1977.23	0.0010532
1986.87	0.000822
1996.52	0.00094902
2006.16	0.0010633
2015.81	0.0010635
2025.45	0.0012249
2035.1	0.0010505
2044.74	0.0011426
2054.38	0.0010817
2064.03	0.0012444
2073.67	0.001075
2083.32	0.00100253
2092.96	0.0009036
2102.61	0.0009093
2112.25	0.000777
2121.9	0.00092875
2131.54	0.0011388
2141.19	0.00095284
2150.83	0.00096091
2160.48	0.00095734
2170.12	0.00096848
2179.77	0.00096105
2189.41	0.000789
2199.06	0.0010648
2208.7	0.00092709
2218.35	0.0008789
2227.99	0.00078
2237.64	0.00100554
2247.28	0.0008969
2256.92	0.000714
2266.57	0.0009009
2276.21	0.00101859
2285.86	0.000798
2295.5	0.00095546
2305.15	0.001118
2314.79	0.0009168
2324.44	0.00096054
2334.08	0.0011262
2343.73	0.0011664
2353.37	0.00101104
2363.02	0.0010937
2372.66	0.0011217
2382.31	0.001228
2391.95	0.0012777
2401.6	0.00097919
2411.24	0.00102506
2420.89	0.0008675
2430.53	0.000809
2440.18	0.000834
2449.82	0.0009098
2459.47	0.0009156
2469.11	0.000811
2478.75	0.0009925
2488.4	0.000943305
2498.04	0.0012815
2507.69	0.0008456
2517.33	0.000815
2526.98	0.000824
2536.62	0.000692
2546.27	0.0009318
2555.91	0.001164
2565.56	0.00102713
2575.2	0.00078
2584.85	0.000783
2594.49	0.000938753
2604.14	0.00094628
2613.78	0.000833
2623.43	0.000749
2633.07	0.000701
2642.72	0.000721
2652.36	0.0010723
2662.01	0.000514
2671.65	0.000938661
2681.29	0.00092745
2690.94	0.000711
2700.58	0.000665
2710.23	0.000587
2719.87	0.0009003
2729.52	0.000824
2739.16	0.000835
2748.81	0.0010268
2758.45	0.000575
2768.1	0.000651
2777.74	0.000514
2787.39	0.000888
2797.03	0.000395
2806.68	0.000642
2816.32	0.0011171
2825.97	0.00096381
2835.61	0.000771
2845.26	0.0011699
2854.9	0.0008837
2864.55	0.000755
2874.19	0.00097562
2883.84	0.0008922
2893.48	0.00093261
2903.12	0.0012483
2912.77	0.00096537
2922.41	0.000743
2932.06	0.000667
2941.7	0.0008821
2951.35	0.0008393
2960.99	0.000652
2970.64	0.000794
2980.28	0.000835
2989.93	0.0009263
2999.57	0.00101234
3009.22	0.001143
3018.86	0.0008736
3028.51	0.000591
3038.15	0.000189
3047.8	0.0010904
3057.44	0.0008993
3067.09	0.00115
3076.73	0.0009191
3086.38	0.0016794
3096.02	0.0013619
3105.67	0.0013277
3115.31	0.0011908
3124.95	0.000766
3134.6	0.0011168
3144.24	0.00097614
3153.89	0.000715
3163.53	0.0012637
3173.18	0.00103097
3182.82	0.0008885
3192.47	0.0009088
3202.11	0.000825
3211.76	0.0008433
3221.4	0.0010793
3231.05	0.000798
3240.69	0.0011287
3250.34	0.000607
3259.98	0.000474
3269.63	0.00097354
3279.27	0.000621
3288.92	0.0011255
3298.56	0.000397
3308.21	0.000678
3317.85	0.000835
3327.49	0.0009219
3337.14	0.000732
3346.78	0.0013176
3356.43	0.0011803
3366.07	0.00102184
3375.72	0.00094807
3385.36	0.000786
3395.01	0.00095334
3404.65	0.0012422
3414.3	0.00095327
3423.94	0.0009155
3433.59	0.0010639
3443.23	0.000819
3452.88	0.0013944
3462.52	0.0009106
3472.17	0.0008705
3481.81	0.0011156
3491.46	0.0010814
3501.1	0.0016347
3510.75	0.0011375
3520.39	0.0012292
3530.04	0.0012173
3539.68	0.0015729
3549.32	0.0013492
3558.97	0.001956
3568.61	0.004796
3578.26	0.019886
3587.9	0.018346
3597.55	0.003276
3607.19	0.0017213
3616.84	0.0014669
3626.48	0.0013856
3636.13	0.0013695
3645.77	0.0011285
3655.42	0.000639
3665.06	0.0014782
3674.71	0.000761
3684.35	0.0008447
3694	0.00101154
3703.64	0.0015263
3713.29	0.0008642
3722.93	0.0013587
3732.58	0.000768
3742.22	0.0011147
3751.86	0.00100254
3761.51	0.0010366
3771.15	0.00062
3780.8	0.0011721
3790.44	0.000316
3800.09	0.0015018
3809.73	0.0013105
3819.38	0.0011171
3829.02	0.0012732
3838.67	0.001414
3848.31	0.0012706
3857.96	0.000815
3867.6	0.000724
3877.25	0.00094647
3886.89	0.000588
3896.54	0.0009038
3906.18	0.000915
3915.83	0.0011917
3925.47	0.0008579
3935.12	0.0014166
3944.76	0.0014668
3954.41	0.0012489
3964.05	0.00099261
3973.69	0.0014115
3983.34	0.00097749
3992.98	0.000762
