Infrared Spectrum: 4-Fluoro-3-(trifluoromethyl)benzaldehyde
Formula: C 8 H 4 F 4 O
CAS: 67515-60-0
State: gas
Origin: EPA-IR VAPOR PHASE LIBRARY
1/CM	ABSORBANCE
549.8	0.003261
559.445	0.004341
569.09	0.005651
578.734	0.004191
588.379	0.002201
598.024	0.004561
607.669	0.012741
617.313	0.012811
626.958	0.009531
636.603	0.005921
646.248	0.004501
655.893	0.009481
665.537	0.006131
675.182	0.008001
684.827	0.015251
694.472	0.008091
704.116	0.004031
713.761	0.002681
723.406	0.0016137
733.051	0.0015537
742.695	0.002151
752.34	0.002801
761.985	0.005651
771.63	0.006741
781.275	0.003921
790.919	0.001891
800.564	0.002931
810.209	0.003501
819.854	0.012961
829.498	0.022331
839.143	0.014711
848.788	0.005491
858.433	0.003551
868.078	0.0016605
877.722	0.003381
887.367	0.008241
897.012	0.013211
906.657	0.012701
916.301	0.012051
925.946	0.007341
935.591	0.003541
945.236	0.002171
954.88	0.002961
964.525	0.002461
974.17	0.002151
983.815	0.002841
993.46	0.003441
1003.1	0.003851
1012.75	0.002381
1022.39	0.003021
1032.04	0.005341
1041.68	0.013471
1051.33	0.035001
1060.97	0.036251
1070.62	0.012551
1080.26	0.007401
1089.91	0.005501
1099.55	0.007001
1109.2	0.011321
1118.84	0.032801
1128.49	0.044431
1138.13	0.038131
1147.78	0.065581
1157.42	0.125881
1167.07	0.229571
1176.71	0.214451
1186.36	0.110611
1196	0.069831
1205.64	0.046521
1215.29	0.021931
1224.93	0.013451
1234.58	0.022901
1244.22	0.070801
1253.87	0.080451
1263.51	0.054951
1273.16	0.058481
1282.8	0.046341
1292.45	0.039381
1302.09	0.035921
1311.74	0.057451
1321.38	0.086511
1331.03	0.073711
1340.67	0.031751
1350.32	0.011011
1359.96	0.009161
1369.61	0.014171
1379.25	0.019441
1388.9	0.010411
1398.54	0.006081
1408.18	0.005991
1417.83	0.008361
1427.47	0.021251
1437.12	0.030331
1446.76	0.011401
1456.41	0.005741
1466.05	0.005761
1475.7	0.008651
1485.34	0.015961
1494.99	0.035531
1504.63	0.042041
1514.28	0.018771
1523.92	0.007761
1533.57	0.004891
1543.21	0.004441
1552.86	0.004511
1562.5	0.005841
1572.15	0.011111
1581.79	0.020521
1591.44	0.034961
1601.08	0.041721
1610.73	0.046641
1620.37	0.049301
1630.01	0.024841
1639.66	0.011961
1649.3	0.008601
1658.95	0.006701
1668.59	0.006111
1678.24	0.006251
1687.88	0.006821
1697.53	0.009451
1707.17	0.019291
1716.82	0.062891
1726.46	0.127601
1736.11	0.058771
1745.75	0.010371
1755.4	0.003691
1765.04	0.002551
1774.69	0.002621
1784.33	0.002781
1793.98	0.003591
1803.62	0.003551
1813.27	0.003341
1822.91	0.002551
1832.55	0.002221
1842.2	0.002141
1851.84	0.001931
1861.49	0.002661
1871.13	0.002291
1880.78	0.002151
1890.42	0.001921
1900.07	0.002361
1909.71	0.002181
1919.36	0.002251
1929	0.002221
1938.65	0.002461
1948.29	0.001901
1957.94	0.0016659
1967.58	0.0017233
1977.23	0.0016714
1986.87	0.0010111
1996.52	0.0015701
2006.16	0.0010677
2015.81	0.0015712
2025.45	0.001537
2035.1	0.0013292
2044.74	0.0016037
2054.38	0.001591
2064.03	0.0017321
2073.67	0.001688
2083.32	0.0017781
2092.96	0.001911
2102.61	0.0016587
2112.25	0.0017044
2121.9	0.0012094
2131.54	0.0012111
2141.19	0.0017321
2150.83	0.0013623
2160.48	0.001479
2170.12	0.0013595
2179.77	0.0014562
2189.41	0.0012174
2199.06	0.0016165
2208.7	0.0016967
2218.35	0.0016977
2227.99	0.002131
2237.64	0.0014273
2247.28	0.001841
2256.92	0.001707
2266.57	0.0016524
2276.21	0.0016586
2285.86	0.001981
2295.5	0.001971
2305.15	0.0016657
2314.79	0.002251
2324.44	0.002251
2334.08	0.002111
2343.73	0.002091
2353.37	0.001961
2363.02	0.001971
2372.66	0.001921
2382.31	0.0016048
2391.95	0.0018179
2401.6	0.0016504
2411.24	0.0015618
2420.89	0.0015227
2430.53	0.001704
2440.18	0.0014378
2449.82	0.0013485
2459.47	0.0014804
2469.11	0.0015809
2478.75	0.001831
2488.4	0.001991
2498.04	0.002111
2507.69	0.0015937
2517.33	0.001861
2526.98	0.0017207
2536.62	0.0013676
2546.27	0.001527
2555.91	0.002231
2565.56	0.001921
2575.2	0.0014455
2584.85	0.001708
2594.49	0.001831
2604.14	0.0017558
2613.78	0.0016053
2623.43	0.0015245
2633.07	0.002161
2642.72	0.0015757
2652.36	0.002281
2662.01	0.002191
2671.65	0.002571
2681.29	0.002991
2690.94	0.002681
2700.58	0.004311
2710.23	0.007021
2719.87	0.012181
2729.52	0.016701
2739.16	0.012031
2748.81	0.006181
2758.45	0.004911
2768.1	0.004961
2777.74	0.006411
2787.39	0.010471
2797.03	0.012511
2806.68	0.014321
2816.32	0.016211
2825.97	0.016961
2835.61	0.011261
2845.26	0.004781
2854.9	0.003311
2864.55	0.002881
2874.19	0.002771
2883.84	0.0014935
2893.48	0.0015059
2903.12	0.001971
2912.77	0.001831
2922.41	0.0018209
2932.06	0.0016809
2941.7	0.0015808
2951.35	0.0014671
2960.99	0.0016602
2970.64	0.001901
2980.28	0.0011131
2989.93	0.000828458
2999.57	0.0014984
3009.22	0.0016441
3018.86	0.002241
3028.51	0.0015763
3038.15	0.0014055
3047.8	0.001991
3057.44	0.0016638
3067.09	0.002291
3076.73	0.002301
3086.38	0.002021
3096.02	0.0015739
3105.67	0.0011502
3115.31	0.0011993
3124.95	0.0014805
3134.6	0.0010864
3144.24	0.0010809
3153.89	0.00090417
3163.53	0.0013797
3173.18	0.0015498
3182.82	0.0010665
3192.47	0.0014167
3202.11	0.00091652
3211.76	0.0014206
3221.4	0.0015348
3231.05	0.000691
3240.69	0.001841
3250.34	0.0011356
3259.98	0.000598
3269.63	0.0012423
3279.27	0.0014152
3288.92	0.0010551
3298.56	0.000421
3308.21	0.0007633
3317.85	0.00087847
3327.49	0.0012069
3337.14	0.000551
3346.78	0.00090008
3356.43	0.0012882
3366.07	0.0012579
3375.72	0.0010404
3385.36	0.000437
3395.01	0.0015201
3404.65	0.001831
3414.3	0.002411
3423.94	0.002531
3433.59	0.002911
3443.23	0.002801
3452.88	0.001484
3462.52	0.0011814
3472.17	0.0013271
3481.81	0.00087277
3491.46	0.0012859
3501.1	0.00088567
3510.75	0.00086127
3520.39	0.0012116
3530.04	0.000636
3539.68	0.0007405
3549.32	0.000584
3558.97	0.0011168
3568.61	0.000707
3578.26	0.000915
3587.9	0.000341
3597.55	0.000492
3607.19	0.000889
3616.84	0.00088986
3626.48	0.0007552
3636.13	0.000975
3645.77	0.000192
3655.42	0.0014253
3665.06	0.00092068
3674.71	0.0009551
3684.35	0.00012
3694	0.0007813
3703.64	0.00086367
3713.29	0.002321
3722.93	0.001418
3732.58	0.000748
3742.22	0.0012727
3751.86	0.0010435
3761.51	0.0012584
3771.15	0.0014165
3780.8	0.0011867
3790.44	0.000653
3800.09	0.00025
3809.73	0.0007855
3819.38	0.0011678
3829.02	0.0010997
3838.67	0.0014333
3848.31	0.0010722
3857.96	0.0007604
3867.6	0.0009575
3877.25	0.001299
3886.89	0.00081494
3896.54	0.0011994
3906.18	0.00081959
3915.83	0.001136
3925.47	0.000704
3935.12	0.000854
3944.76	0.0013313
3954.41	0.000830737
3964.05	0.0010354
3973.69	0.0008535
3983.34	0.001246
3992.98	0.0014402
