Infrared Spectrum: 4-Fluoro-3-(trifluoromethyl)benzyl alcohol
Formula: C 8 H 6 F 4 O
CAS: 67515-61-1
State: gas
Origin: EPA-IR VAPOR PHASE LIBRARY
1/CM	ABSORBANCE
549.8	0.001843
559.445	0.0015721
569.09	0.0013904
578.734	0.00091703
588.379	0.00077
598.024	0.0007317
607.669	0.0009397
617.313	0.0015182
626.958	0.0011985
636.603	0.0015696
646.248	0.0016364
655.893	0.0010265
665.537	0.0013835
675.182	0.001883
684.827	0.0010977
694.472	0.0012739
704.116	0.0009299
713.761	0.000644
723.406	0.0015904
733.051	0.002993
742.695	0.002713
752.34	0.002633
761.985	0.0014887
771.63	0.000486
781.275	0.000828968
790.919	0.00090102
800.564	0.001893
810.209	0.0012028
819.854	0.002743
829.498	0.004193
839.143	0.002423
848.788	0.002093
858.433	0.001806
868.078	0.001963
877.722	0.005313
887.367	0.004643
897.012	0.005603
906.657	0.008183
916.301	0.007473
925.946	0.003453
935.591	0.002733
945.236	0.002143
954.88	0.002963
964.525	0.002243
974.17	0.001863
983.815	0.002893
993.46	0.002773
1003.1	0.003173
1012.75	0.005163
1022.39	0.007403
1032.04	0.008863
1041.68	0.009523
1051.33	0.007723
1060.97	0.004453
1070.62	0.002583
1080.26	0.002463
1089.91	0.003443
1099.55	0.002183
1109.2	0.003493
1118.84	0.005973
1128.49	0.015863
1138.13	0.027613
1147.78	0.029973
1157.42	0.016453
1167.07	0.025103
1176.71	0.026723
1186.36	0.013053
1196	0.005473
1205.64	0.006853
1215.29	0.010203
1224.93	0.007643
1234.58	0.003293
1244.22	0.002603
1253.87	0.002943
1263.51	0.004193
1273.16	0.008083
1282.8	0.010503
1292.45	0.008963
1302.09	0.014253
1311.74	0.028213
1321.38	0.026813
1331.03	0.008103
1340.67	0.003643
1350.32	0.003163
1359.96	0.002963
1369.61	0.003033
1379.25	0.003313
1388.9	0.003153
1398.54	0.003163
1408.18	0.003873
1417.83	0.006643
1427.47	0.010223
1437.12	0.007463
1446.76	0.002983
1456.41	0.002423
1466.05	0.002963
1475.7	0.003333
1485.34	0.004963
1494.99	0.008563
1504.63	0.007573
1514.28	0.003513
1523.92	0.002643
1533.57	0.002103
1543.21	0.0013992
1552.86	0.001873
1562.5	0.0016356
1572.15	0.0017744
1581.79	0.002023
1591.44	0.003153
1601.08	0.003443
1610.73	0.003443
1620.37	0.003853
1630.01	0.002443
1639.66	0.0012929
1649.3	0.0013425
1658.95	0.0010374
1668.59	0.00086146
1678.24	0.0010133
1687.88	0.00084467
1697.53	0.0012144
1707.17	0.001083
1716.82	0.00086934
1726.46	0.0009448
1736.11	0.00088257
1745.75	0.0009981
1755.4	0.000959
1765.04	0.0011289
1774.69	0.0011635
1784.33	0.0010002
1793.98	0.0009203
1803.62	0.0010652
1813.27	0.0009417
1822.91	0.0009398
1832.55	0.0011917
1842.2	0.0010238
1851.84	0.00087866
1861.49	0.0010249
1871.13	0.0010698
1880.78	0.0011056
1890.42	0.0013333
1900.07	0.0011922
1909.71	0.0012472
1919.36	0.0012159
1929	0.001064
1938.65	0.0013952
1948.29	0.0011514
1957.94	0.0011018
1967.58	0.0011687
1977.23	0.0011075
1986.87	0.0012846
1996.52	0.0012404
2006.16	0.0012944
2015.81	0.0012144
2025.45	0.0010339
2035.1	0.001248
2044.74	0.0011898
2054.38	0.0011415
2064.03	0.0011197
2073.67	0.0013629
2083.32	0.0012581
2092.96	0.0011503
2102.61	0.0012397
2112.25	0.0014241
2121.9	0.0014714
2131.54	0.0013306
2141.19	0.0013288
2150.83	0.0014107
2160.48	0.0013642
2170.12	0.0013851
2179.77	0.0010123
2189.41	0.0012837
2199.06	0.0012399
2208.7	0.0013145
2218.35	0.0011717
2227.99	0.0010531
2237.64	0.0013374
2247.28	0.0010164
2256.92	0.0010831
2266.57	0.0012331
2276.21	0.0014412
2285.86	0.0012866
2295.5	0.0011748
2305.15	0.0012199
2314.79	0.001415
2324.44	0.0015018
2334.08	0.0013645
2343.73	0.0010605
2353.37	0.0012626
2363.02	0.001381
2372.66	0.0012395
2382.31	0.001311
2391.95	0.0013579
2401.6	0.0009515
2411.24	0.0011619
2420.89	0.0013613
2430.53	0.0013465
2440.18	0.0014832
2449.82	0.0014973
2459.47	0.0013586
2469.11	0.0014496
2478.75	0.0013762
2488.4	0.0013341
2498.04	0.0012184
2507.69	0.0010963
2517.33	0.0011665
2526.98	0.0009611
2536.62	0.00091465
2546.27	0.0013277
2555.91	0.0016552
2565.56	0.0016
2575.2	0.001393
2584.85	0.0014361
2594.49	0.0010585
2604.14	0.0010632
2613.78	0.0014999
2623.43	0.0011598
2633.07	0.001267
2642.72	0.0012897
2652.36	0.0014441
2662.01	0.0011529
2671.65	0.001376
2681.29	0.0011797
2690.94	0.001232
2700.58	0.0014402
2710.23	0.0015785
2719.87	0.00087525
2729.52	0.0012356
2739.16	0.0014603
2748.81	0.0009522
2758.45	0.0009267
2768.1	0.0013733
2777.74	0.0013191
2787.39	0.0013576
2797.03	0.0013577
2806.68	0.0013861
2816.32	0.0012419
2825.97	0.0010601
2835.61	0.0015567
2845.26	0.0014785
2854.9	0.0015853
2864.55	0.0012011
2874.19	0.002063
2883.84	0.0018093
2893.48	0.002013
2903.12	0.002243
2912.77	0.002663
2922.41	0.002223
2932.06	0.001833
2941.7	0.002193
2951.35	0.002243
2960.99	0.002213
2970.64	0.002733
2980.28	0.002343
2989.93	0.0016578
2999.57	0.0017614
3009.22	0.0010134
3018.86	0.0017745
3028.51	0.0013051
3038.15	0.0016106
3047.8	0.0009848
3057.44	0.0012774
3067.09	0.0014419
3076.73	0.0018037
3086.38	0.0015643
3096.02	0.0016613
3105.67	0.0015282
3115.31	0.0014336
3124.95	0.0012024
3134.6	0.000569
3144.24	0.000705
3153.89	0.0012354
3163.53	0.0014843
3173.18	0.0009663
3182.82	0.001893
3192.47	0.0011266
3202.11	0.0013074
3211.76	0.001446
3221.4	0.0015051
3231.05	0.0007588
3240.69	0.0007478
3250.34	0.001853
3259.98	0.0013457
3269.63	0.0010133
3279.27	0.000606
3288.92	0.0011988
3298.56	0.0017024
3308.21	0.0013143
3317.85	0.00092212
3327.49	0.00085604
3337.14	0.000394
3346.78	0.00084911
3356.43	0.0011552
3366.07	0.0013546
3375.72	0.00084841
3385.36	0.0011883
3395.01	0.0011416
3404.65	0.0011972
3414.3	0.001843
3423.94	0.0013095
3433.59	0.0013058
3443.23	0.0012363
3452.88	0.000448
3462.52	0.0007318
3472.17	0.0017431
3481.81	0.0012878
3491.46	0.00089342
3501.1	0.0012997
3510.75	0.001048
3520.39	0.0012119
3530.04	0.0016888
3539.68	0.0007304
3549.32	0.000423
3558.97	0.0011477
3568.61	0.0011915
3578.26	0.000242
3587.9	0.0012769
3597.55	0.0017756
3607.19	0.0013983
3616.84	0.0011992
3626.48	0.001843
3636.13	0.001963
3645.77	0.0015534
3655.42	0.002923
3665.06	0.003073
3674.71	0.002663
3684.35	0.002233
3694	0.0017874
3703.64	0.0014775
3713.29	0.0010823
3722.93	0.000647
3732.58	0.0017003
3742.22	0.0015124
3751.86	0.001589
3761.51	0.0010492
3771.15	0.0014941
3780.8	0.0013807
3790.44	0.0011525
3800.09	0.0014377
3809.73	0.00125
3819.38	0.0013643
3829.02	0.0015992
3838.67	0.0011823
3848.31	0.0013947
3857.96	0.0013225
3867.6	0.0009901
3877.25	0.0013675
3886.89	0.0011441
3896.54	0.0013012
3906.18	0.001065
3915.83	0.0017836
3925.47	0.0014367
3935.12	0.000716
3944.76	0.0011326
3954.41	0.001737
3964.05	0.0012259
3973.69	0.000992
3983.34	0.0011463
3992.98	0.0010528
