Infrared Spectrum: 4-Fluoro-3-(trifluoromethyl)benzamide
Formula: C 8 H 5 F 4 N O
CAS: 67515-57-5
State: gas
Origin: EPA-IR VAPOR PHASE LIBRARY
1/CM	ABSORBANCE
549.8	0.003054
559.445	0.006184
569.09	0.008774
578.734	0.008734
588.379	0.006814
598.024	0.007014
607.669	0.006894
617.313	0.005374
626.958	0.003334
636.603	0.002904
646.248	0.005974
655.893	0.010104
665.537	0.009464
675.182	0.004814
684.827	0.003304
694.472	0.004054
704.116	0.005244
713.761	0.006934
723.406	0.007904
733.051	0.006424
742.695	0.005594
752.34	0.008884
761.985	0.012294
771.63	0.009054
781.275	0.005344
790.919	0.004454
800.564	0.003934
810.209	0.003934
819.854	0.004374
829.498	0.007084
839.143	0.009004
848.788	0.007354
858.433	0.005194
868.078	0.005344
877.722	0.006604
887.367	0.005724
897.012	0.005454
906.657	0.006394
916.301	0.004694
925.946	0.004884
935.591	0.003944
945.236	0.003144
954.88	0.002264
964.525	0.002454
974.17	0.002984
983.815	0.002844
993.46	0.003174
1003.1	0.002294
1012.75	0.002844
1022.39	0.002384
1032.04	0.003184
1041.68	0.005654
1051.33	0.016944
1060.97	0.021334
1070.62	0.012484
1080.26	0.007484
1089.91	0.005774
1099.55	0.006484
1109.2	0.009874
1118.84	0.018014
1128.49	0.034484
1138.13	0.045164
1147.78	0.052184
1157.42	0.073094
1167.07	0.096574
1176.71	0.053364
1186.36	0.024404
1196	0.014194
1205.64	0.009694
1215.29	0.008134
1224.93	0.008554
1234.58	0.013104
1244.22	0.028034
1253.87	0.043834
1263.51	0.044654
1273.16	0.045384
1282.8	0.059334
1292.45	0.054934
1302.09	0.067084
1311.74	0.080954
1321.38	0.044104
1331.03	0.020364
1340.67	0.025304
1350.32	0.044694
1359.96	0.048524
1369.61	0.026694
1379.25	0.009944
1388.9	0.006574
1398.54	0.006344
1408.18	0.010464
1417.83	0.017904
1427.47	0.012044
1437.12	0.006284
1446.76	0.004714
1456.41	0.003384
1466.05	0.003804
1475.7	0.005114
1485.34	0.008084
1494.99	0.017524
1504.63	0.029634
1514.28	0.017364
1523.92	0.005814
1533.57	0.003734
1543.21	0.003854
1552.86	0.004994
1562.5	0.006424
1572.15	0.010914
1581.79	0.023354
1591.44	0.034634
1601.08	0.029494
1610.73	0.024754
1620.37	0.025334
1630.01	0.014994
1639.66	0.008624
1649.3	0.005744
1658.95	0.005184
1668.59	0.005194
1678.24	0.007214
1687.88	0.012024
1697.53	0.014674
1707.17	0.020424
1716.82	0.061354
1726.46	0.087214
1736.11	0.033194
1745.75	0.014464
1755.4	0.014004
1765.04	0.009484
1774.69	0.004464
1784.33	0.002644
1793.98	0.002454
1803.62	0.002514
1813.27	0.002174
1822.91	0.0015753
1832.55	0.0013127
1842.2	0.0017865
1851.84	0.0016568
1861.49	0.0014598
1871.13	0.0017758
1880.78	0.0015259
1890.42	0.0015444
1900.07	0.0015613
1909.71	0.0015023
1919.36	0.0013677
1929	0.0015818
1938.65	0.001633
1948.29	0.0011295
1957.94	0.0010508
1967.58	0.0011215
1977.23	0.0010977
1986.87	0.0010269
1996.52	0.00088751
2006.16	0.0010285
2015.81	0.0010466
2025.45	0.0011781
2035.1	0.0009721
2044.74	0.0013014
2054.38	0.0011151
2064.03	0.0010967
2073.67	0.0011149
2083.32	0.0010683
2092.96	0.0011849
2102.61	0.0007162
2112.25	0.0011573
2121.9	0.0010317
2131.54	0.0010415
2141.19	0.0011862
2150.83	0.00085269
2160.48	0.00087498
2170.12	0.0010012
2179.77	0.0010004
2189.41	0.0011044
2199.06	0.0008101
2208.7	0.0010252
2218.35	0.0010042
2227.99	0.0011678
2237.64	0.0010877
2247.28	0.00082756
2256.92	0.00088267
2266.57	0.0010991
2276.21	0.0011221
2285.86	0.0009575
2295.5	0.0009852
2305.15	0.0013347
2314.79	0.0011286
2324.44	0.0013791
2334.08	0.0011624
2343.73	0.0011521
2353.37	0.0010126
2363.02	0.0009574
2372.66	0.0014088
2382.31	0.0010672
2391.95	0.0011336
2401.6	0.0010137
2411.24	0.00086694
2420.89	0.0011437
2430.53	0.0011947
2440.18	0.0007614
2449.82	0.00088178
2459.47	0.0011198
2469.11	0.0010239
2478.75	0.0011344
2488.4	0.0010035
2498.04	0.001041
2507.69	0.0010208
2517.33	0.0007242
2526.98	0.0010835
2536.62	0.000666
2546.27	0.0007256
2555.91	0.0010262
2565.56	0.0009191
2575.2	0.0011408
2584.85	0.000431
2594.49	0.0009959
2604.14	0.0009866
2613.78	0.00082993
2623.43	0.0009589
2633.07	0.0011121
2642.72	0.0009977
2652.36	0.000829
2662.01	0.000526
2671.65	0.0007609
2681.29	0.0007797
2690.94	0.0007602
2700.58	0.000793
2710.23	0.000423
2719.87	0.00080806
2729.52	0.0009191
2739.16	0.0007556
2748.81	0.0010374
2758.45	0.0011281
2768.1	0.0010903
2777.74	0.0007437
2787.39	0.000794
2797.03	0.00080694
2806.68	0.0011586
2816.32	0.0010391
2825.97	0.00037
2835.61	0.0009373
2845.26	0.000492
2854.9	0.0008039
2864.55	0.00085161
2874.19	0.000614
2883.84	0.00079
2893.48	0.000358
2903.12	0.0007749
2912.77	0.0009261
2922.41	0.000444
2932.06	0.0007795
2941.7	0.0010223
2951.35	0.0013186
2960.99	0.000366
2970.64	0.000606
2980.28	0.000536
2989.93	0.000589
2999.57	0.000353
3009.22	0.0007497
3018.86	0.00086598
3028.51	0.001178
3038.15	0.000393
3047.8	0.0011932
3057.44	0.0012181
3067.09	0.0012514
3076.73	0.0015701
3086.38	0.001954
3096.02	0.0013403
3105.67	0.0009555
3115.31	0.00069
3124.95	0.00083326
3134.6	0.0010856
3144.24	0.0010829
3153.89	0.0009409
3163.53	0.0010387
3173.18	0.000627
3182.82	0.000704
3192.47	0.00085212
3202.11	0.0007676
3211.76	0.0010663
3221.4	0.0009257
3231.05	0.000689
3240.69	0.000439
3250.34	0.000282
3259.98	0.0009388
3269.63	0.000673
3279.27	0.0015829
3288.92	0.001289
3298.56	0.0010286
3308.21	0.0012462
3317.85	0.0007664
3327.49	0.0009695
3337.14	0.0009284
3346.78	0.0009732
3356.43	0.0010152
3366.07	0.00088774
3375.72	0.0011402
3385.36	0.0013014
3395.01	0.002124
3404.65	0.002744
3414.3	0.004694
3423.94	0.008264
3433.59	0.010244
3443.23	0.007004
3452.88	0.003574
3462.52	0.001984
3472.17	0.0017512
3481.81	0.001504
3491.46	0.001934
3501.1	0.0016294
3510.75	0.001944
3520.39	0.003094
3530.04	0.004774
3539.68	0.006704
3549.32	0.007644
3558.97	0.005554
3568.61	0.002764
3578.26	0.001934
3587.9	0.0013669
3597.55	0.000714
3607.19	0.0014881
3616.84	0.000573
3626.48	0.0010203
3636.13	0.000568
3645.77	0.00089758
3655.42	0.0012018
3665.06	0.0008514
3674.71	0.0012475
3684.35	0.0009417
3694	0.0012615
3703.64	0.00048
3713.29	9e-05
3722.93	0.001
3732.58	0.0010851
3742.22	0.0013275
3751.86	0.0007636
3761.51	0.0011436
3771.15	0.00087234
3780.8	0.0009237
3790.44	0.00080823
3800.09	0.000573
3809.73	0.000673
3819.38	0.0015073
3829.02	0.000558
3838.67	0.0009666
3848.31	0.00046
3857.96	0.000522
3867.6	0.000315
3877.25	0.0011516
3886.89	0.0012209
3896.54	0.0009535
3906.18	0.00086961
3915.83	0.0013553
3925.47	0.00097
3935.12	0.0007205
3944.76	0.0007803
3954.41	0.000666
3964.05	0.0009151
3973.69	0.00091213
3983.34	0.0011477
3992.98	0.0011496
