Infrared Spectrum: 4-Fluoro-3-(trifluoromethyl)benzonitrile
Formula: C 8 H 3 F 4 N
CAS: 67515-59-7
State: gas
Origin: EPA-IR VAPOR PHASE LIBRARY
1/CM	ABSORBANCE
549.8	0.016459
559.445	0.010309
569.09	0.005129
578.734	0.006809
588.379	0.009239
598.024	0.011519
607.669	0.004349
617.313	0.002099
626.958	0.005819
636.603	0.007739
646.248	0.005789
655.893	0.008069
665.537	0.011359
675.182	0.006409
684.827	0.005679
694.472	0.015879
704.116	0.018419
713.761	0.019579
723.406	0.041039
733.051	0.022569
742.695	0.007919
752.34	0.004309
761.985	0.008379
771.63	0.018369
781.275	0.011459
790.919	0.004529
800.564	0.003419
810.209	0.004269
819.854	0.014659
829.498	0.043189
839.143	0.043759
848.788	0.015409
858.433	0.003549
868.078	0.003229
877.722	0.008109
887.367	0.015299
897.012	0.015859
906.657	0.028519
916.301	0.025059
925.946	0.009479
935.591	0.002919
945.236	0.002439
954.88	0.003169
964.525	0.002279
974.17	0.0014482
983.815	0.002019
993.46	0.002139
1003.1	0.002029
1012.75	0.002159
1022.39	0.002099
1032.04	0.004039
1041.68	0.013119
1051.33	0.060249
1060.97	0.095279
1070.62	0.040749
1080.26	0.013699
1089.91	0.011699
1099.55	0.009979
1109.2	0.014629
1118.84	0.038239
1128.49	0.086149
1138.13	0.086109
1147.78	0.115589
1157.42	0.222669
1167.07	0.396449
1176.71	0.450229
1186.36	0.277789
1196	0.149729
1205.64	0.059349
1215.29	0.028019
1224.93	0.017219
1234.58	0.026409
1244.22	0.096129
1253.87	0.184749
1263.51	0.137099
1273.16	0.114959
1282.8	0.094499
1292.45	0.071259
1302.09	0.088169
1311.74	0.145469
1321.38	0.329069
1331.03	0.247349
1340.67	0.033349
1350.32	0.013929
1359.96	0.011819
1369.61	0.010019
1379.25	0.010149
1388.9	0.009549
1398.54	0.013669
1408.18	0.042479
1417.83	0.089819
1427.47	0.071809
1437.12	0.023919
1446.76	0.009679
1456.41	0.009329
1466.05	0.011979
1475.7	0.021639
1485.34	0.050479
1494.99	0.147969
1504.63	0.186469
1514.28	0.074249
1523.92	0.020769
1533.57	0.011859
1543.21	0.010999
1552.86	0.009239
1562.5	0.007529
1572.15	0.011309
1581.79	0.020169
1591.44	0.033379
1601.08	0.041159
1610.73	0.049719
1620.37	0.070149
1630.01	0.053709
1639.66	0.013489
1649.3	0.005519
1658.95	0.006019
1668.59	0.005719
1678.24	0.003289
1687.88	0.002179
1697.53	0.002299
1707.17	0.002129
1716.82	0.002559
1726.46	0.002209
1736.11	0.0016865
1745.75	0.0014203
1755.4	0.0013268
1765.04	0.0015726
1774.69	0.002279
1784.33	0.003549
1793.98	0.003469
1803.62	0.003189
1813.27	0.004739
1822.91	0.004019
1832.55	0.001949
1842.2	0.0012655
1851.84	0.0011838
1861.49	0.002029
1871.13	0.002019
1880.78	0.0018286
1890.42	0.002179
1900.07	0.003719
1909.71	0.005159
1919.36	0.003989
1929	0.002109
1938.65	0.0016252
1948.29	0.0016184
1957.94	0.0014457
1967.58	0.0011261
1977.23	0.0012784
1986.87	0.001148
1996.52	0.0011797
2006.16	0.0012985
2015.81	0.0016627
2025.45	0.001939
2035.1	0.001839
2044.74	0.001869
2054.38	0.002089
2064.03	0.001849
2073.67	0.0017551
2083.32	0.0016009
2092.96	0.001648
2102.61	0.001391
2112.25	0.0012857
2121.9	0.0011537
2131.54	0.0012749
2141.19	0.001839
2150.83	0.0016104
2160.48	0.0013549
2170.12	0.0012217
2179.77	0.0013135
2189.41	0.0015962
2199.06	0.0013924
2208.7	0.002059
2218.35	0.002519
2227.99	0.005209
2237.64	0.009039
2247.28	0.006229
2256.92	0.002699
2266.57	0.002319
2276.21	0.002169
2285.86	0.001929
2295.5	0.002149
2305.15	0.001989
2314.79	0.002369
2324.44	0.002569
2334.08	0.002879
2343.73	0.002869
2353.37	0.002799
2363.02	0.002419
2372.66	0.003049
2382.31	0.003169
2391.95	0.002419
2401.6	0.002199
2411.24	0.0014295
2420.89	0.001548
2430.53	0.0016284
2440.18	0.0015549
2449.82	0.0017746
2459.47	0.0015387
2469.11	0.001969
2478.75	0.0015013
2488.4	0.001939
2498.04	0.003009
2507.69	0.003029
2517.33	0.003019
2526.98	0.002279
2536.62	0.002349
2546.27	0.002479
2555.91	0.001839
2565.56	0.001859
2575.2	0.0014722
2584.85	0.0016358
2594.49	0.001899
2604.14	0.0017513
2613.78	0.001251
2623.43	0.0012329
2633.07	0.0010523
2642.72	0.0013502
2652.36	0.0012337
2662.01	0.0012046
2671.65	0.0012804
2681.29	0.0014354
2690.94	0.0012748
2700.58	0.0014336
2710.23	0.0011402
2719.87	0.0010691
2729.52	0.0014157
2739.16	0.0013522
2748.81	0.0017869
2758.45	0.001939
2768.1	0.0017348
2777.74	0.0012719
2787.39	0.0013275
2797.03	0.00090216
2806.68	0.0011184
2816.32	0.000756
2825.97	0.0018134
2835.61	0.0018129
2845.26	0.0011841
2854.9	0.0011925
2864.55	0.0009494
2874.19	0.0013183
2883.84	0.0012141
2893.48	0.0011149
2903.12	0.0012289
2912.77	0.0015212
2922.41	0.0013518
2932.06	0.0011474
2941.7	0.0013688
2951.35	0.001064
2960.99	0.000999
2970.64	0.0010879
2980.28	0.00088411
2989.93	0.00089907
2999.57	0.00083599
3009.22	0.0009792
3018.86	0.0016338
3028.51	0.0013183
3038.15	0.0012045
3047.8	0.0015234
3057.44	0.0017191
3067.09	0.002459
3076.73	0.002159
3086.38	0.002469
3096.02	0.002179
3105.67	0.0016629
3115.31	0.0012282
3124.95	0.0016384
3134.6	0.0016136
3144.24	0.0012089
3153.89	0.000722
3163.53	0.000599
3173.18	0.0009397
3182.82	0.0009494
3192.47	0.0010058
3202.11	0.0012068
3211.76	0.0011843
3221.4	0.000794
3231.05	0.0013945
3240.69	0.001532
3250.34	0.0008255
3259.98	0.0007443
3269.63	0.0010005
3279.27	0.0010406
3288.92	0.0012341
3298.56	0.000313
3308.21	0.0008423
3317.85	0.0011108
3327.49	0.000612
3337.14	0.0012177
3346.78	0.000676
3356.43	0.0010414
3366.07	0.0011491
3375.72	0.0012095
3385.36	0.001012
3395.01	0.0011401
3404.65	0.0009723
3414.3	0.00083438
3423.94	0.0017983
3433.59	0.0010388
3443.23	0.00086161
3452.88	0.001093
3462.52	0.00085166
3472.17	0.0011836
3481.81	0.000536
3491.46	0.0008002
3501.1	0.000311
3510.75	0.00093137
3520.39	0.000668
3530.04	0.0007786
3539.68	0.00019
3549.32	0.0011573
3558.97	0.000592
3568.61	0.00090588
3578.26	0.000691
3587.9	0.000247
3597.55	0.000701
3607.19	0.000647
3616.84	0.000272
3626.48	0.0013334
3636.13	0.00086359
3645.77	0.0010098
3655.42	3.7e-05
3665.06	0.0010411
3674.71	0.0007862
3684.35	0.000429
3694	0.000635
3703.64	0.00091793
3713.29	0.0008004
3722.93	0.0008202
3732.58	0.000731
3742.22	0.0012223
3751.86	0.00108
3761.51	0.0012154
3771.15	0.0015013
3780.8	0.00082902
3790.44	0.0008064
3800.09	0.0008143
3809.73	0.000519
3819.38	0.000732
3829.02	0.000345
3838.67	0.0010637
3848.31	0.0012463
3857.96	0.0009768
3867.6	0.0010492
3877.25	0.000556
3886.89	0.000502
3896.54	0.000705
3906.18	0.000522
3915.83	0.0010041
3925.47	0.000276
3935.12	0.0007947
3944.76	0.000976
3954.41	0.0009523
3964.05	0.0012403
3973.69	0.0010793
3983.34	0.000331
3992.98	1.5e-05
