Infrared Spectrum: 4-Fluoro-3-(trifluoromethyl)benzoyl chloride
Formula: C 8 H 3 Cl F 4 O
CAS: 67515-56-4
State: gas
Origin: EPA-IR VAPOR PHASE LIBRARY
1/CM	ABSORBANCE
549.8	0.003342
559.445	0.003872
569.09	0.007912
578.734	0.007462
588.379	0.007852
598.024	0.006852
607.669	0.005442
617.313	0.008502
626.958	0.023522
636.603	0.051692
646.248	0.034282
655.893	0.020322
665.537	0.026912
675.182	0.013602
684.827	0.023092
694.472	0.032442
704.116	0.014822
713.761	0.005072
723.406	0.003602
733.051	0.003842
742.695	0.003872
752.34	0.004622
761.985	0.010542
771.63	0.010872
781.275	0.008582
790.919	0.008172
800.564	0.008812
810.209	0.020722
819.854	0.042352
829.498	0.040632
839.143	0.029852
848.788	0.013252
858.433	0.005042
868.078	0.003652
877.722	0.003772
887.367	0.005152
897.012	0.007302
906.657	0.017472
916.301	0.045072
925.946	0.056832
935.591	0.040082
945.236	0.032072
954.88	0.023962
964.525	0.013852
974.17	0.005832
983.815	0.003782
993.46	0.003872
1003.1	0.002842
1012.75	0.003422
1022.39	0.003232
1032.04	0.005412
1041.68	0.010542
1051.33	0.030952
1060.97	0.042592
1070.62	0.019892
1080.26	0.007642
1089.91	0.005222
1099.55	0.007642
1109.2	0.008912
1118.84	0.018102
1128.49	0.050522
1138.13	0.054372
1147.78	0.064232
1157.42	0.126452
1167.07	0.239142
1176.71	0.316432
1186.36	0.193252
1196	0.119642
1205.64	0.055022
1215.29	0.027192
1224.93	0.019472
1234.58	0.019662
1244.22	0.037692
1253.87	0.086222
1263.51	0.068742
1273.16	0.063312
1282.8	0.052652
1292.45	0.055372
1302.09	0.044472
1311.74	0.069672
1321.38	0.103372
1331.03	0.078742
1340.67	0.024872
1350.32	0.007752
1359.96	0.005342
1369.61	0.004932
1379.25	0.004992
1388.9	0.005362
1398.54	0.006292
1408.18	0.010372
1417.83	0.026122
1427.47	0.030242
1437.12	0.011902
1446.76	0.006752
1456.41	0.005192
1466.05	0.006622
1475.7	0.012042
1485.34	0.020762
1494.99	0.036182
1504.63	0.048872
1514.28	0.023372
1523.92	0.008592
1533.57	0.005452
1543.21	0.004642
1552.86	0.005242
1562.5	0.006132
1572.15	0.009442
1581.79	0.019242
1591.44	0.032602
1601.08	0.041912
1610.73	0.045312
1620.37	0.043282
1630.01	0.028582
1639.66	0.011052
1649.3	0.005822
1658.95	0.004672
1668.59	0.004722
1678.24	0.004212
1687.88	0.003472
1697.53	0.003572
1707.17	0.003962
1716.82	0.006062
1726.46	0.009382
1736.11	0.015772
1745.75	0.022912
1755.4	0.029392
1765.04	0.038412
1774.69	0.076492
1784.33	0.121252
1793.98	0.063502
1803.62	0.018012
1813.27	0.012952
1822.91	0.012902
1832.55	0.007632
1842.2	0.005642
1851.84	0.004582
1861.49	0.003872
1871.13	0.003242
1880.78	0.003302
1890.42	0.003112
1900.07	0.003202
1909.71	0.002522
1919.36	0.002572
1929	0.002752
1938.65	0.002182
1948.29	0.001605
1957.94	0.0013533
1967.58	0.001082
1977.23	0.0014745
1986.87	0.0016035
1996.52	0.0015458
2006.16	0.001661
2015.81	0.0016835
2025.45	0.0012652
2035.1	0.0014395
2044.74	0.0010373
2054.38	0.0012875
2064.03	0.0014658
2073.67	0.0016513
2083.32	0.001922
2092.96	0.0015703
2102.61	0.0016851
2112.25	0.0015866
2121.9	0.0016683
2131.54	0.0015012
2141.19	0.0010482
2150.83	0.0011233
2160.48	0.0010186
2170.12	0.0009651
2179.77	0.0011073
2189.41	0.0015271
2199.06	0.0014194
2208.7	0.0012889
2218.35	0.0009964
2227.99	0.0012561
2237.64	0.0014987
2247.28	0.0012781
2256.92	0.0012296
2266.57	0.001165
2276.21	0.0014472
2285.86	0.0015885
2295.5	0.00087767
2305.15	0.0016368
2314.79	0.0017747
2324.44	0.0017843
2334.08	0.001882
2343.73	0.001922
2353.37	0.0017971
2363.02	0.001842
2372.66	0.0016792
2382.31	0.0017571
2391.95	0.001434
2401.6	0.0010144
2411.24	0.0014217
2420.89	0.0013834
2430.53	0.0011396
2440.18	0.0012847
2449.82	0.0012041
2459.47	0.0013055
2469.11	0.0012063
2478.75	0.0011388
2488.4	0.0010897
2498.04	0.001593
2507.69	0.0013683
2517.33	0.00171
2526.98	0.0013602
2536.62	0.0013779
2546.27	0.0012239
2555.91	0.0016356
2565.56	0.0011045
2575.2	0.0014011
2584.85	0.0013469
2594.49	0.0010791
2604.14	0.0012169
2613.78	0.0012906
2623.43	0.0011129
2633.07	0.0010479
2642.72	0.0011371
2652.36	0.000728
2662.01	0.00085797
2671.65	0.00090448
2681.29	0.0009562
2690.94	0.0009577
2700.58	0.000966
2710.23	0.0011114
2719.87	0.0011099
2729.52	0.0011507
2739.16	0.0014251
2748.81	0.0011748
2758.45	0.001288
2768.1	0.0011943
2777.74	0.0008084
2787.39	0.0012719
2797.03	0.0008143
2806.68	0.00091167
2816.32	0.00042
2825.97	0.00090724
2835.61	0.000639
2845.26	0.000661
2854.9	0.0007941
2864.55	0.000605
2874.19	0.0011442
2883.84	0.00090946
2893.48	0.000736
2903.12	0.00090812
2912.77	0.000686
2922.41	0.0012508
2932.06	0.0008278
2941.7	0.0013863
2951.35	0.000711
2960.99	0.0011564
2970.64	0.0018
2980.28	0.000843997
2989.93	0.0007
2999.57	0.0010834
3009.22	0.0010816
3018.86	0.00086497
3028.51	0.000668
3038.15	0.00085526
3047.8	0.000353
3057.44	0.0011095
3067.09	0.0013526
3076.73	0.0013537
3086.38	0.0017348
3096.02	0.002462
3105.67	0.001852
3115.31	0.0010299
3124.95	0.000686
3134.6	0.000173
3144.24	0.00085956
3153.89	0.00092442
3163.53	0.0008848
3173.18	0.0008631
3182.82	0.0008079
3192.47	0.0009467
3202.11	0.000844968
3211.76	0.0010396
3221.4	0.0009433
3231.05	0.00083338
3240.69	0.000648
3250.34	0.0011705
3259.98	0.000506
3269.63	0.000599
3279.27	0.0012687
3288.92	0.00088879
3298.56	0.0008305
3308.21	0
3317.85	0.000842006
3327.49	0.0007935
3337.14	0.0009442
3346.78	0.00093427
3356.43	0.00091726
3366.07	0.0012528
3375.72	0.000463
3385.36	0.000721
3395.01	0.0008212
3404.65	0.0011729
3414.3	0.0011225
3423.94	0.001047
3433.59	0.00088673
3443.23	0.00083777
3452.88	0.0009452
3462.52	0.0007637
3472.17	0.0013381
3481.81	0.001543
3491.46	0.0014629
3501.1	0.0012143
3510.75	0.002102
3520.39	0.002022
3530.04	0.002372
3539.68	0.002262
3549.32	0.002132
3558.97	0.0014627
3568.61	0.0015108
3578.26	0.0007881
3587.9	0.0011853
3597.55	0.0010638
3607.19	0.0010467
3616.84	0.000977
3626.48	0.0013053
3636.13	0.0011393
3645.77	0.0010185
3655.42	0.000692
3665.06	0.0012461
3674.71	0.000335
3684.35	3.1e-05
3694	0.0010042
3703.64	0.0009891
3713.29	0.000491
3722.93	0.000652
3732.58	0.000286
3742.22	0.000578
3751.86	0.0011442
3761.51	0.000675
3771.15	0.0015055
3780.8	0.0012826
3790.44	0.0012667
3800.09	0.0007509
3809.73	0.0016485
3819.38	0.0007908
3829.02	0.0016547
3838.67	0.000693
3848.31	0.0015128
3857.96	0.0007576
3867.6	0.000595
3877.25	0.000172
3886.89	0.0013707
3896.54	0.0011013
3906.18	0.000593
3915.83	0.0010134
3925.47	0.000457
3935.12	0.0009381
3944.76	0.000681
3954.41	0.0011836
3964.05	0.000384
3973.69	0.0009478
3983.34	0.0012111
3992.98	0.000697
