Infrared Spectrum: 2,2'-(Hexylimino)diethanol
Formula: C 10 H 23 N O 2
CAS: 6752-33-6
State: gas
Origin: EPA-IR VAPOR PHASE LIBRARY
1/CM	ABSORBANCE
549.8	0.00468
559.445	0.00446
569.09	0.00423
578.734	0.00374
588.379	0.0032
598.024	0.00293
607.669	0.00231
617.313	0.00221
626.958	0.0021
636.603	0.00197
646.248	0.00176
655.893	0.00197
665.537	0.00184
675.182	0.00193
684.827	0.00216
694.472	0.00229
704.116	0.00294
713.761	0.00343
723.406	0.00393
733.051	0.00403
742.695	0.00397
752.34	0.00368
761.985	0.00381
771.63	0.00369
781.275	0.0036
790.919	0.00345
800.564	0.00331
810.209	0.00321
819.854	0.0031
829.498	0.00313
839.143	0.00387
848.788	0.0048
858.433	0.00676
868.078	0.00904
877.722	0.00869
887.367	0.0073
897.012	0.00651
906.657	0.00631
916.301	0.00594
925.946	0.00613
935.591	0.00674
945.236	0.00716
954.88	0.00743
964.525	0.00824
974.17	0.00935
983.815	0.0111
993.46	0.01386
1003.1	0.01947
1012.75	0.02927
1022.39	0.04182
1032.04	0.05298
1041.68	0.05458
1051.33	0.04961
1060.97	0.04926
1070.62	0.05027
1080.26	0.0386
1089.91	0.02405
1099.55	0.01799
1109.2	0.01409
1118.84	0.01206
1128.49	0.01142
1138.13	0.01182
1147.78	0.0137
1157.42	0.01478
1167.07	0.01331
1176.71	0.01139
1186.36	0.01147
1196	0.01226
1205.64	0.01293
1215.29	0.01367
1224.93	0.01251
1234.58	0.01158
1244.22	0.01128
1253.87	0.01115
1263.51	0.01204
1273.16	0.01272
1282.8	0.0129
1292.45	0.01315
1302.09	0.01362
1311.74	0.01351
1321.38	0.01354
1331.03	0.01443
1340.67	0.01621
1350.32	0.01893
1359.96	0.02064
1369.61	0.01892
1379.25	0.0174
1388.9	0.01778
1398.54	0.01771
1408.18	0.01465
1417.83	0.01041
1427.47	0.00876
1437.12	0.00983
1446.76	0.01283
1456.41	0.01657
1466.05	0.01779
1475.7	0.01321
1485.34	0.00746
1494.99	0.00432
1504.63	0.0031
1514.28	0.00258
1523.92	0.00203
1533.57	0.00175
1543.21	0.00155
1552.86	0.00139
1562.5	0.00113
1572.15	0.00104
1581.79	0.00108
1591.44	0.0009864
1601.08	0.0008959
1610.73	0.0007901
1620.37	0.0008805
1630.01	0.0007797
1639.66	0.0008091
1649.3	0.0007478
1658.95	0.0006813
1668.59	0.0006495
1678.24	0.0006263
1687.88	0.0006212
1697.53	0.0005719
1707.17	0.0006486
1716.82	0.0007074
1726.46	0.0006689
1736.11	0.000631
1745.75	0.0006656
1755.4	0.0006216
1765.04	0.0006604
1774.69	0.0007443
1784.33	0.000755
1793.98	0.0006966
1803.62	0.0006764
1813.27	0.0005764
1822.91	0.0005661
1832.55	0.0005851
1842.2	0.0005902
1851.84	0.0006443
1861.49	0.0006163
1871.13	0.0006133
1880.78	0.0006759
1890.42	0.0006483
1900.07	0.0007365
1909.71	0.0007004
1919.36	0.0008193
1929	0.0008555
1938.65	0.0007824
1948.29	0.0007236
1957.94	0.0006564
1967.58	0.0006849
1977.23	0.0006231
1986.87	0.0006205
1996.52	0.0005655
2006.16	0.0007381
2015.81	0.0007227
2025.45	0.0007253
2035.1	0.0008327
2044.74	0.0008985
2054.38	0.0009347
2064.03	0.0008663
2073.67	0.0008961
2083.32	0.0008539
2092.96	0.0008517
2102.61	0.0008356
2112.25	0.0009028
2121.9	0.0008648
2131.54	0.0008558
2141.19	0.0008322
2150.83	0.0007908
2160.48	0.0007029
2170.12	0.0007337
2179.77	0.0007154
2189.41	0.0006814
2199.06	0.0006864
2208.7	0.000629
2218.35	0.0007304
2227.99	0.0006517
2237.64	0.0007076
2247.28	0.0007457
2256.92	0.0007116
2266.57	0.0007288
2276.21	0.0007246
2285.86	0.0007628
2295.5	0.0008518
2305.15	0.0009184
2314.79	0.0009648
2324.44	0.00106
2334.08	0.00108
2343.73	0.0009691
2353.37	0.00102
2363.02	0.00107
2372.66	0.00105
2382.31	0.0009594
2391.95	0.0009345
2401.6	0.0009087
2411.24	0.00097
2420.89	0.000912
2430.53	0.00102
2440.18	0.0009577
2449.82	0.0009911
2459.47	0.0009342
2469.11	0.00101
2478.75	0.00107
2488.4	0.0009854
2498.04	0.0009525
2507.69	0.0009195
2517.33	0.00113
2526.98	0.00112
2536.62	0.00124
2546.27	0.00129
2555.91	0.00132
2565.56	0.00141
2575.2	0.00161
2584.85	0.00164
2594.49	0.00186
2604.14	0.00198
2613.78	0.00211
2623.43	0.00228
2633.07	0.00258
2642.72	0.00296
2652.36	0.00339
2662.01	0.00386
2671.65	0.00434
2681.29	0.00483
2690.94	0.00539
2700.58	0.00583
2710.23	0.00653
2719.87	0.00719
2729.52	0.00788
2739.16	0.0086
2748.81	0.00927
2758.45	0.01026
2768.1	0.0117
2777.74	0.01392
2787.39	0.01774
2797.03	0.02433
2806.68	0.03465
2816.32	0.04339
2825.97	0.04319
2835.61	0.03759
2845.26	0.03513
2854.9	0.04271
2864.55	0.05565
2874.19	0.0624
2883.84	0.06402
2893.48	0.05782
2903.12	0.05719
2912.77	0.06791
2922.41	0.09159
2932.06	0.11781
2941.7	0.11878
2951.35	0.10087
2960.99	0.09005
2970.64	0.07298
2980.28	0.03781
2989.93	0.0199
2999.57	0.01255
3009.22	0.00891
3018.86	0.00659
3028.51	0.00519
3038.15	0.00405
3047.8	0.00359
3057.44	0.00303
3067.09	0.00261
3076.73	0.00227
3086.38	0.00226
3096.02	0.00182
3105.67	0.00185
3115.31	0.00155
3124.95	0.00142
3134.6	0.00134
3144.24	0.00128
3153.89	0.00106
3163.53	0.00119
3173.18	0.0012
3182.82	0.00126
3192.47	0.00109
3202.11	0.0009764
3211.76	0.0009105
3221.4	0.001
3231.05	0.0009648
3240.69	0.0008145
3250.34	0.0009048
3259.98	0.0008021
3269.63	0.0008469
3279.27	0.0008928
3288.92	0.00106
3298.56	0.0009662
3308.21	0.00103
3317.85	0.00113
3327.49	0.00125
3337.14	0.00131
3346.78	0.00127
3356.43	0.00123
3366.07	0.00149
3375.72	0.00147
3385.36	0.00147
3395.01	0.00179
3404.65	0.00191
3414.3	0.0021
3423.94	0.00214
3433.59	0.00239
3443.23	0.00248
3452.88	0.00244
3462.52	0.00281
3472.17	0.0028
3481.81	0.00295
3491.46	0.00312
3501.1	0.00362
3510.75	0.00406
3520.39	0.00492
3530.04	0.00608
3539.68	0.0072
3549.32	0.00773
3558.97	0.00771
3568.61	0.00744
3578.26	0.0066
3587.9	0.00596
3597.55	0.00518
3607.19	0.00456
3616.84	0.00385
3626.48	0.00372
3636.13	0.00386
3645.77	0.0047
3655.42	0.00702
3665.06	0.00932
3674.71	0.00825
3684.35	0.00526
3694	0.00309
3703.64	0.00219
3713.29	0.00188
3722.93	0.00145
3732.58	0.00135
3742.22	0.00108
3751.86	0.00116
3761.51	0.00118
3771.15	0.00103
3780.8	0.0008925
3790.44	0.0009173
3800.09	0.00106
3809.73	0.0008703
3819.38	0.0008689
3829.02	0.001
3838.67	0.00116
3848.31	0.0008401
3857.96	0.00106
3867.6	0.0008822
3877.25	0.0008469
3886.89	0.0009273
3896.54	0.0008449
3906.18	0.0009566
3915.83	0.0009808
3925.47	0.0007292
3935.12	0.0009026
3944.76	0.0008764
3954.41	0.0008478
3964.05	0.00103
3973.69	0.0009082
3983.34	0.000748
3992.98	0.0009178
