Infrared Spectrum: Methanephosphonic dichloride
Formula: C H 3 Cl 2 O P
CAS: 676-97-1
State: gas
Origin: EPA-IR VAPOR PHASE LIBRARY
1/CM	ABSORBANCE
549.8	0.17649
559.445	0.11553
569.09	0.02698
578.734	0.00412
588.379	0.00246
598.024	0.0014629
607.669	0.00108495
617.313	0.000916
626.958	0.0011658
636.603	0.001161
646.248	0.00113639
655.893	0.000599
665.537	0.0014722
675.182	0.0014219
684.827	0.0016002
694.472	0.0017721
704.116	0.00219
713.761	0.00404
723.406	0.01116
733.051	0.02569
742.695	0.04201
752.34	0.04863
761.985	0.03666
771.63	0.02043
781.275	0.00984
790.919	0.00448
800.564	0.00249
810.209	0.00276
819.854	0.00265
829.498	0.0029
839.143	0.00281
848.788	0.00349
858.433	0.00429
868.078	0.00732
877.722	0.0216
887.367	0.0506
897.012	0.05402
906.657	0.04443
916.301	0.01526
925.946	0.00651
935.591	0.00386
945.236	0.00329
954.88	0.00293
964.525	0.00316
974.17	0.00323
983.815	0.00347
993.46	0.0037
1003.1	0.00339
1012.75	0.00259
1022.39	0.00252
1032.04	0.00271
1041.68	0.00285
1051.33	0.00273
1060.97	0.0009965
1070.62	0.0015037
1080.26	0.00113403
1089.91	0.0016817
1099.55	0.0021
1109.2	0.000925
1118.84	0.000845
1128.49	0.000899
1138.13	0.000508
1147.78	0.0009845
1157.42	0.000771
1167.07	0.000763
1176.71	0
1186.36	0.0010732
1196	0.000712
1205.64	0.0011615
1215.29	0.0013194
1224.93	0.0016676
1234.58	0.00238
1244.22	0.00287
1253.87	0.00364
1263.51	0.00881
1273.16	0.02599
1282.8	0.05612
1292.45	0.11102
1302.09	0.10896
1311.74	0.14062
1321.38	0.05756
1331.03	0.02371
1340.67	0.00389
1350.32	0.0020322
1359.96	0.0019809
1369.61	0.0018334
1379.25	0.0017833
1388.9	0.0024
1398.54	0.00403
1408.18	0.00488
1417.83	0.00436
1427.47	0.00378
1437.12	0.0020056
1446.76	0.0014524
1456.41	0.0011963
1466.05	0.0013954
1475.7	0.0015969
1485.34	0.001851
1494.99	0.00212
1504.63	0.00211
1514.28	0.0019404
1523.92	0.001713
1533.57	0.0015387
1543.21	0.0014669
1552.86	0.0014711
1562.5	0.0015504
1572.15	0.0012941
1581.79	0.001237
1591.44	0.00109204
1601.08	0.0011639
1610.73	0.00088
1620.37	0.0012098
1630.01	0.0012896
1639.66	0.000902
1649.3	0.000766
1658.95	0.000714
1668.59	0.000772
1678.24	0.000577
1687.88	0.00064
1697.53	0.000646
1707.17	0.00053
1716.82	0.000495
1726.46	0.000573
1736.11	0.00079
1745.75	0.000822
1755.4	0.000835
1765.04	0.000869
1774.69	0.0009674
1784.33	0.0009452
1793.98	0.000883
1803.62	0.0009539
1813.27	0.00103786
1822.91	0.000973
1832.55	0.0009409
1842.2	0.000817
1851.84	0.000704
1861.49	0.000807
1871.13	0.000752
1880.78	0.000775
1890.42	0.000676
1900.07	0.000787
1909.71	0.000736
1919.36	0.000637
1929	0.0006
1938.65	0.000787
1948.29	0.000744
1957.94	0.000691
1967.58	0.000804
1977.23	0.000738
1986.87	0.000699
1996.52	0.00079
2006.16	0.000747
2015.81	0.0009647
2025.45	0.0011404
2035.1	0.0013047
2044.74	0.0016479
2054.38	0.0014375
2064.03	0.0012889
2073.67	0.0011834
2083.32	0.00105434
2092.96	0.000789
2102.61	0.000844
2112.25	0.00093
2121.9	0.000871
2131.54	0.000759
2141.19	0.000704
2150.83	0.000813
2160.48	0.000819
2170.12	0.0009432
2179.77	0.00106447
2189.41	0.0012735
2199.06	0.001333
2208.7	0.001423
2218.35	0.0010101
2227.99	0.000849
2237.64	0.000918
2247.28	0.000937
2256.92	0.000881
2266.57	0.000883
2276.21	0.000825
2285.86	0.000879
2295.5	0.00106329
2305.15	0.0009904
2314.79	0.0010271
2324.44	0.000854
2334.08	0.000885
2343.73	0.000903
2353.37	0.000866
2363.02	0.000771
2372.66	0.000758
2382.31	0.00084
2391.95	0.000835
2401.6	0.00086
2411.24	0.000716
2420.89	0.000806
2430.53	0.000763
2440.18	0.000752
2449.82	0.000732
2459.47	0.000829
2469.11	0.000779
2478.75	0.000831
2488.4	0.000895
2498.04	0.000825
2507.69	0.000865
2517.33	0.000757
2526.98	0.00104675
2536.62	0.000872
2546.27	0.000918
2555.91	0.0009997
2565.56	0.00104445
2575.2	0.0014977
2584.85	0.0014334
2594.49	0.0015753
2604.14	0.0012107
2613.78	0.0009903
2623.43	0.0008
2633.07	0.000723
2642.72	0.000889
2652.36	0.000849
2662.01	0.000768
2671.65	0.000697
2681.29	0.000929
2690.94	0.000833
2700.58	0.000809
2710.23	0.000723
2719.87	0.000911
2729.52	0.000863
2739.16	0.000889
2748.81	0.00085
2758.45	0.000856
2768.1	0.000563
2777.74	0.000905
2787.39	0.000925
2797.03	0.000887
2806.68	0.00106984
2816.32	0.000874
2825.97	0.00087
2835.61	0.000785
2845.26	0.00107413
2854.9	0.000892
2864.55	0.000863
2874.19	0.000634
2883.84	0.000889
2893.48	0.000871
2903.12	0.000871
2912.77	0.000892
2922.41	0.00106785
2932.06	0.000886
2941.7	0.00103361
2951.35	0.000676
2960.99	0.0009663
2970.64	0.00087
2980.28	0.0010237
2989.93	0.000641
2999.57	0.000674
3009.22	0.000716
3018.86	0.00083
3028.51	0.000806
3038.15	0.000895
3047.8	0.000613
3057.44	0.000675
3067.09	0.000553
3076.73	0.000692
3086.38	0.000819
3096.02	0.000773
3105.67	0.000763
3115.31	0.000787
3124.95	0.00077
3134.6	0.000764
3144.24	0.000801
3153.89	0.000653
3163.53	0.000729
3173.18	0.000614
3182.82	0.000807
3192.47	0.000848
3202.11	0.00105851
3211.76	0.0009463
3221.4	0.000909
3231.05	0.0009669
3240.69	0.000926
3250.34	0.000767
3259.98	0.000665
3269.63	0.000545
3279.27	0.000798
3288.92	0.001012
3298.56	0.000805
3308.21	0.000875
3317.85	0.000677
3327.49	0.000738
3337.14	0.000906
3346.78	0.000571
3356.43	0.000849
3366.07	0.000905
3375.72	0.000621
3385.36	0.000753
3395.01	0.000874
3404.65	0.000764
3414.3	0.0009895
3423.94	0.00075
3433.59	0.000706
3443.23	0.000893
3452.88	0.000723
3462.52	0.000546
3472.17	0.00093
3481.81	0.000757
3491.46	0.0009646
3501.1	0.000912
3510.75	0.000682
3520.39	0.000687
3530.04	0.000491
3539.68	0.000806
3549.32	0.000878
3558.97	0.000661
3568.61	0.000788
3578.26	0.000765
3587.9	0.000786
3597.55	0.000429
3607.19	0.000593
3616.84	0.000634
3626.48	0.000526
3636.13	0.000704
3645.77	0.000445
3655.42	0.000823
3665.06	0.000651
3674.71	0.000883
3684.35	0.0010123
3694	0.000767
3703.64	0.000902
3713.29	0.000928
3722.93	0.000737
3732.58	0.000899
3742.22	0.000767
3751.86	0.000914
3761.51	0.00107402
3771.15	0.00073
3780.8	0.000808
3790.44	0.000914
3800.09	0.000548
3809.73	0.00113508
3819.38	0.0013374
3829.02	0.0012257
3838.67	0.000591
3848.31	0.000679
3857.96	0.000659
3867.6	0.000787
3877.25	0.000962
3886.89	0.00111767
3896.54	0.000895
3906.18	0.000932
3915.83	0.0013018
3925.47	0.0011907
3935.12	0.00045
3944.76	0.0010159
3954.41	0.000939
3964.05	0.00078
3973.69	0.000826
3983.34	0.000539
3992.98	0.000815
