Infrared Spectrum: trans,trans,trans-1,5,9-cyclododecatriene
Formula: C 12 H 18
CAS: 676-22-2
State: gas
Instrument: HP-GC/MS/IRD
Origin: NIST Mass Spectrometry Data Center
1/CM	ABSORBANCE
550	0.0005106
562	0.0001702
574	0.0002479
586	0.0001702
598	0.0001924
610	7.77e-05
622	6.66e-05
634	0.0001517
646	1.85e-05
658	4.07e-05
670	8.88e-05
682	3.7e-05
694	7.77e-05
706	9.25e-05
718	6.66e-05
730	0.0001332
742	0.0002109
754	0.000481
766	0.0007252
778	0.0006623
790	0.0004033
802	8.88e-05
814	0.000185
826	0.0001295
838	0.0003145
850	0.0006105
862	0.0006882
874	0.000481
886	0.000444
898	0.0004366
910	0.0004329
922	0.0006697
934	0.0021793
946	0.010804
958	0.0106597
970	0.0103415
982	0.0058238
994	0.0019869
1006	0.002405
1018	0.0035705
1030	0.0019166
1042	0.0011322
1054	0.0006549
1066	0.0004181
1078	0.0004218
1090	0.0004847
1102	0.0003367
1114	0.0001924
1126	0.0001517
1138	9.62e-05
1150	0.0001406
1162	0.0001776
1174	0.0002627
1186	0.0005106
1198	0.0008029
1210	0.0005106
1222	0.0002775
1234	0.0001295
1246	0.0001332
1258	0.0002331
1270	0.0006586
1282	0.0005883
1294	0.0006734
1306	0.0008325
1318	0.0008214
1330	0.0006882
1342	0.0010693
1354	0.0006142
1366	0.0003811
1378	0.0003515
1390	0.0005365
1402	0.0006771
1414	0.0009768
1426	0.0019314
1438	0.005291
1450	0.0038221
1462	0.0012802
1474	0.000814
1486	0.0004514
1498	0.000444
1510	0.0010582
1522	0.0007696
1534	0.0004662
1546	0.0005402
1558	0.0007622
1570	0.0001887
1582	7.03e-05
1594	6.29e-05
1606	7.4e-05
1618	0.0002331
1630	0.0001813
1642	0.0002775
1654	0.0007437
1666	0.0004144
1678	0.0004773
1690	0.0003663
1702	0.0007289
1714	0.0007252
1726	0.0006105
1738	0.0008658
1750	0.0009065
1762	0.0005069
1774	0.0004366
1786	0.0004033
1798	0.000407
1810	0.0002479
1822	0.0002516
1834	0.0002035
1846	0.0003589
1858	0.0001961
1870	0.0003478
1882	0.0002072
1894	0.0001776
1906	0.0001369
1918	0.0002072
1930	0.0001073
1942	0.0001628
1954	7.77e-05
1966	0.0001036
1978	6.29e-05
1990	0.0001073
2002	5.18e-05
2014	5.92e-05
2026	2.22e-05
2038	1.11e-05
2050	2.59e-05
2062	4.44e-05
2074	1.85e-05
2086	2.96e-05
2098	4.07e-05
2110	3.33e-05
2122	4.44e-05
2134	7.03e-05
2146	4.07e-05
2158	1.48e-05
2170	5.55e-05
2182	5.92e-05
2194	1.85e-05
2206	3.33e-05
2218	5.18e-05
2230	4.44e-05
2242	5.55e-05
2254	2.22e-05
2266	4.07e-05
2278	4.07e-05
2290	8.88e-05
2302	0.0001369
2314	0.0001591
2326	0.0001887
2338	0.0002146
2350	0.0001924
2362	0.0002738
2374	0.0001998
2386	0.0001036
2398	8.88e-05
2410	8.88e-05
2422	4.07e-05
2434	7.4e-06
2446	2.96e-05
2458	3.33e-05
2470	4.44e-05
2482	2.22e-05
2494	3.33e-05
2506	1.85e-05
2518	3.7e-06
2530	4.81e-05
2542	2.96e-05
2554	5.18e-05
2566	3.7e-05
2578	5.92e-05
2590	9.99e-05
2602	0.0001332
2614	0.0001517
2626	0.0002553
2638	0.0003293
2650	0.0003515
2662	0.0003108
2674	0.0002849
2686	0.0002035
2698	0.0001813
2710	0.0001924
2722	0.0002294
2734	0.0001961
2746	0.0001998
2758	0.0002738
2770	0.0003811
2782	0.0005143
2794	0.0007289
2806	0.0008103
2818	0.0009583
2830	0.0018278
2842	0.0060495
2854	0.013542
2866	0.0094757
2878	0.0047027
2890	0.0056166
2902	0.0104303
2914	0.0300218
2926	0.035409
2938	0.0198209
2950	0.0086062
2962	0.0063381
2974	0.0067414
2986	0.0073334
2998	0.0053761
3010	0.0040515
3022	0.0044141
3034	0.0035372
3046	0.001665
3058	0.0010175
3070	0.0006808
3082	0.000407
3094	0.0003256
3106	0.0003774
3118	0.0003663
3130	0.0003256
3142	0.0002516
3154	0.0001702
3166	0.0001702
3178	0.0001739
3190	0.0002109
3202	0.0001147
3214	0.0001295
3226	0.0001073
3238	7.77e-05
3250	0.0001036
3262	0.0001036
3274	0.000148
3286	0.0001147
3298	8.51e-05
3310	5.92e-05
3322	0
3334	3.33e-05
3346	2.96e-05
3358	4.81e-05
3370	6.29e-05
3382	5.55e-05
3394	8.51e-05
3406	5.55e-05
3418	0.0001369
3430	0.0001295
3442	0.0001295
3454	6.66e-05
3466	7.4e-05
3478	7.77e-05
3490	9.99e-05
3502	0.0002035
3514	0.0001036
3526	0.000259
3538	7.03e-05
3550	0.000148
3562	0.0001887
3574	7.03e-05
3586	0.0003515
3598	0.0001443
3610	0.00037
3622	0.0002035
3634	0.0001591
3646	0.0003182
3658	0.0001184
3670	0.0003515
3682	0.0001184
3694	0.0001369
3706	0.0001295
3718	0.0002257
3730	0.0003034
3742	0.0004699
3754	0.0003589
3766	0.0001702
3778	7.4e-05
3790	2.96e-05
3802	0.0002442
3814	0.0001665
3826	0.0001628
3838	0.0003478
