Infrared Spectrum: 9-Azabicyclo[3.3.1]nonane hydrochloride
Formula: C8 H16 Cl N
CAS: 6760-43-6
State: SOLID (KBr DISC, 0.9% WT.)
Class: COBLENTZ III
Instrument: PERKIN-ELMER 157
Sampling: TRANSMISSION
Resolution: 2
Origin: BRITISH PETROLEUM CO. LTD., ENGLAND
1/CM	TRANSMITTANCE
667	0.9656
676	0.9521
685	0.942
694	0.9172
703	0.8696
712	0.8334
721	0.8856
730	0.8772
739	0.8676
748	0.8551
757	0.7741
766	0.7906
775	0.8351
784	0.8171
793	0.8155
802	0.8155
811	0.8089
820	0.7912
829	0.7013
838	0.4549
847	0.4184
856	0.7816
865	0.8179
874	0.7854
883	0.8018
892	0.8007
901	0.7919
910	0.7844
919	0.7732
928	0.7434
937	0.6823
946	0.6399
955	0.5884
964	0.6228
973	0.7199
982	0.6808
991	0.6539
1000	0.4212
1009	0.0491
1018	0.6734
1027	0.6667
1036	0.3757
1045	0.5843
1054	0.7171
1063	0.6723
1072	0.5893
1081	0.6891
1090	0.6842
1099	0.6731
1108	0.6414
1117	0.5646
1126	0.1854
1135	0.6137
1144	0.6052
1153	0.6495
1162	0.5626
1171	0.593
1180	0.3298
1189	0.6507
1198	0.6269
1207	0.6125
1216	0.5668
1225	0.3422
1234	0.5319
1243	0.6049
1252	0.6011
1261	0.4621
1270	0.406
1279	0.5459
1288	0.5649
1297	0.4211
1306	0.5725
1315	0.5783
1324	0.529
1333	0.3774
1342	0.4947
1351	0.4527
1360	0.4267
1369	0.3508
1378	0.3152
1387	0.2304
1396	0.4071
1405	0.3527
1414	0.297
1423	0.1391
1432	0.0494
1441	0.1991
1450	0.2258
1459	0.2171
1468	0.3221
1477	0.3211
1486	0.2088
1495	0.3173
1504	0.5689
1513	0.5798
1522	0.578
1531	0.5853
1540	0.596
1549	0.5979
1558	0.5943
1567	0.583
1576	0.5151
1585	0.3766
1594	0.1667
1603	0.1499
1612	0.5028
1621	0.5997
1630	0.5902
1639	0.5819
1648	0.5647
1657	0.5566
1666	0.5595
1675	0.589
1684	0.5902
1693	0.5846
1702	0.6243
1711	0.6325
1720	0.6378
1729	0.6422
1738	0.6393
1747	0.6386
1756	0.6398
1765	0.6368
1774	0.6275
1783	0.6209
1792	0.5994
1801	0.5912
1810	0.5833
1819	0.5517
1828	0.5221
1837	0.5526
1846	0.5491
1855	0.5476
1864	0.5934
1873	0.5958
1882	0.5936
1891	0.589
1900	0.5856
1909	0.5816
1918	0.5717
1927	0.5669
1936	0.5644
1945	0.5548
1954	0.5307
1963	0.4928
1972	0.483
1981	0.4773
1990	0.4478
1999	0.3823
2008	0.3086
2017	0.5054
2026	0.5291
2035	0.5319
2044	0.5256
2053	0.5176
2062	0.5091
2071	0.5045
2080	0.492
2089	0.4788
2098	0.4617
2107	0.4385
2116	0.3641
2125	0.2884
2134	0.3461
2143	0.4433
2152	0.4674
2161	0.4669
2170	0.464
2179	0.4543
2188	0.4505
2197	0.4485
2206	0.442
2215	0.4294
2224	0.4176
2233	0.406
2242	0.4011
2251	0.3999
2260	0.399
2269	0.3954
2278	0.3867
2287	0.3756
2296	0.3634
2305	0.3545
2314	0.3359
2323	0.3116
2332	0.2945
2341	0.2907
2350	0.2882
2359	0.2765
2368	0.2693
2377	0.2683
2386	0.2656
2395	0.2443
2404	0.2
2413	0.1573
2422	0.1148
2431	0.083
2440	0.1112
2449	0.1836
2458	0.2085
2467	0.2076
2476	0.2009
2485	0.1809
2494	0.1612
2503	0.1417
2512	0.1223
2521	0.1029
2530	0.0837
2539	0.0603
2548	0.043
2557	0.0386
2566	0.0431
2575	0.0505
2584	0.059
2593	0.0748
2602	0.0783
2611	0.0752
2620	0.0669
2629	0.0573
2638	0.0478
2647	0.0403
2656	0.0319
2665	0.0229
2674	0.0214
2683	0.0212
2692	0.0212
2701	0.0213
2710	0.0214
2719	0.0215
2728	0.0216
2737	0.0216
2746	0.0216
2755	0.0215
2764	0.0215
2773	0.0214
2782	0.0213
2791	0.0212
2800	0.0211
2809	0.021
2818	0.021
2827	0.0209
2836	0.0208
2845	0.0207
2854	0.0206
2863	0.0206
2872	0.0206
2881	0.0206
2890	0.0206
2899	0.0206
2908	0.0206
2917	0.0206
2926	0.0206
2935	0.0209
2944	0.0218
2953	0.0226
2962	0.0249
2971	0.0282
2980	0.0328
2989	0.0384
2998	0.0561
3007	0.0669
3016	0.0836
3025	0.0937
3034	0.1008
3043	0.1074
3052	0.1244
3061	0.1439
3070	0.1632
3079	0.1847
3088	0.2273
3097	0.2408
3106	0.2462
3115	0.2481
3124	0.2483
3133	0.2476
3142	0.2434
3151	0.2391
3160	0.2388
3169	0.2399
3178	0.2449
3187	0.2644
3196	0.269
3205	0.2701
3214	0.2722
3223	0.2711
3232	0.2708
3241	0.27
3250	0.2686
3259	0.2668
3268	0.2645
3277	0.2622
3286	0.2592
3295	0.2562
3304	0.2528
3313	0.2487
3322	0.2445
3331	0.2408
3340	0.2379
3349	0.2352
3358	0.2329
3367	0.2306
3376	0.2281
3385	0.2258
3394	0.2249
3403	0.2243
3412	0.2238
3421	0.2236
3430	0.2239
3439	0.2241
3448	0.2244
3457	0.2249
3466	0.2254
3475	0.2258
3484	0.2263
3493	0.2271
3502	0.2282
3511	0.2293
3520	0.2304
3529	0.2314
3538	0.2323
3547	0.2329
3556	0.233
3565	0.2331
3574	0.2332
3583	0.2334
3592	0.2335
3601	0.2335
3610	0.2336
3619	0.2336
3628	0.2336
3637	0.2337
3646	0.2337
3655	0.2342
3664	0.2332
3673	0.2329
3682	0.2325
3691	0.2316
3700	0.2304
3709	0.2292
3718	0.2279
3727	0.2265
3736	0.2249
3745	0.2234
3754	0.2218
3763	0.2202
3772	0.2187
3781	0.2172
3790	0.2156
3799	0.2141
3808	0.2125
3817	0.2109
3826	0.2093
3835	0.2076
3844	0.206
3853	0.2044
3862	0.2028
3871	0.2013
3880	0.1997
3889	0.1982
3898	0.1966
3907	0.1951
3916	0.1936
3925	0.1921
3934	0.1905
3943	0.1892
3952	0.1883
3961	0.1873
3970	0.1863
3979	0.1852
3988	0.1837
3997	0.1825
