Infrared Spectrum: 8-Azabicyclo[3.2.1]octane, hydrochloride
Formula: C7 H14 Cl N
CAS: 6760-99-2
State: SOLID (KBr DISC, 0.9% WT.)
Class: COBLENTZ III
Instrument: PERKIN-ELMER 157
Sampling: TRANSMISSION
Resolution: 2
Origin: BRITISH PETROLEUM CO. LTD., ENGLAND
1/CM	TRANSMITTANCE
668	0.7577
677	0.7324
686	0.6297
695	0.6916
704	0.7425
713	0.7678
722	0.767
731	0.7396
740	0.7157
749	0.7155
758	0.6189
767	0.6796
776	0.7083
785	0.6078
794	0.7208
803	0.7137
812	0.7208
821	0.689
830	0.6847
839	0.6858
848	0.6796
857	0.4967
866	0.4997
875	0.6461
884	0.5802
893	0.6158
902	0.6121
911	0.4879
920	0.4755
929	0.5974
938	0.5549
947	0.5668
956	0.5309
965	0.5164
974	0.6163
983	0.6187
992	0.5954
1001	0.552
1010	0.4631
1019	0.4686
1028	0.401
1037	0.4096
1046	0.3898
1055	0.5143
1064	0.5108
1073	0.505
1082	0.4756
1091	0.5216
1100	0.5081
1109	0.498
1118	0.4008
1127	0.4429
1136	0.449
1145	0.4088
1154	0.4214
1163	0.4268
1172	0.4258
1181	0.4325
1190	0.4522
1199	0.4619
1208	0.4978
1217	0.4964
1226	0.4522
1235	0.4088
1244	0.3762
1253	0.3581
1262	0.3466
1271	0.4197
1280	0.4311
1289	0.5212
1298	0.519
1307	0.479
1316	0.4761
1325	0.4257
1334	0.318
1343	0.2688
1352	0.2765
1361	0.3042
1370	0.2803
1379	0.2021
1388	0.2045
1397	0.145
1406	0.193
1415	0.3336
1424	0.3755
1433	0.3605
1442	0.2735
1451	0.1843
1460	0.1998
1469	0.197
1478	0.2578
1487	0.3654
1496	0.5896
1505	0.6471
1514	0.6521
1523	0.6531
1532	0.653
1541	0.6475
1550	0.6328
1559	0.5907
1568	0.5434
1577	0.3849
1586	0.2039
1595	0.1124
1604	0.2947
1613	0.3862
1622	0.392
1631	0.4003
1640	0.4386
1649	0.4941
1658	0.5325
1667	0.5591
1676	0.5989
1685	0.6053
1694	0.604
1703	0.5903
1712	0.5867
1721	0.6043
1730	0.6619
1739	0.7024
1748	0.7227
1757	0.7359
1766	0.741
1775	0.7436
1784	0.7456
1793	0.7465
1802	0.7456
1811	0.7427
1820	0.7364
1829	0.7268
1838	0.7209
1847	0.72
1856	0.7191
1865	0.7185
1874	0.7181
1883	0.7169
1892	0.7115
1901	0.7051
1910	0.7004
1919	0.6961
1928	0.6854
1937	0.679
1946	0.678
1955	0.6763
1964	0.6622
1973	0.6559
1982	0.6557
1991	0.6554
2000	0.6498
2009	0.6373
2018	0.6199
2027	0.6056
2036	0.584
2045	0.5823
2054	0.5994
2063	0.6095
2072	0.6182
2081	0.6169
2090	0.6097
2099	0.6059
2108	0.5912
2117	0.5823
2126	0.5702
2135	0.5578
2144	0.57
2153	0.5882
2162	0.5897
2171	0.5905
2180	0.5912
2189	0.5911
2198	0.5905
2207	0.5883
2216	0.5833
2225	0.5776
2234	0.5738
2243	0.5713
2252	0.5652
2261	0.5571
2270	0.5552
2279	0.5508
2288	0.537
2297	0.5248
2306	0.5131
2315	0.5032
2324	0.4933
2333	0.4793
2342	0.4623
2351	0.4377
2360	0.4224
2369	0.4093
2378	0.4026
2387	0.3855
2396	0.3439
2405	0.3224
2414	0.2983
2423	0.275
2432	0.2563
2441	0.232
2450	0.2081
2459	0.1842
2468	0.1605
2477	0.1411
2486	0.1283
2495	0.1257
2504	0.1252
2513	0.125
2522	0.1218
2531	0.1033
2540	0.0873
2549	0.0826
2558	0.0808
2567	0.0799
2576	0.0792
2585	0.0786
2594	0.0779
2603	0.0775
2612	0.077
2621	0.0727
2630	0.066
2639	0.0607
2648	0.053
2657	0.0474
2666	0.0424
2675	0.0399
2684	0.0388
2693	0.0377
2702	0.037
2711	0.0363
2720	0.0358
2729	0.0353
2738	0.0349
2747	0.0345
2756	0.0345
2765	0.0348
2774	0.036
2783	0.0367
2792	0.034
2801	0.021
2810	0.0191
2819	0.0182
2828	0.018
2837	0.0177
2846	0.0175
2855	0.0174
2864	0.0172
2873	0.0171
2882	0.017
2891	0.0171
2900	0.0171
2909	0.0172
2918	0.0173
2927	0.0178
2936	0.0192
2945	0.0215
2954	0.0237
2963	0.0256
2972	0.0267
2981	0.0297
2990	0.0387
2999	0.0529
3008	0.0672
3017	0.0813
3026	0.0955
3035	0.1095
3044	0.1234
3053	0.1438
3062	0.1646
3071	0.1753
3080	0.1883
3089	0.2001
3098	0.2058
3107	0.2082
3116	0.2095
3125	0.2102
3134	0.2105
3143	0.2104
3152	0.2102
3161	0.2099
3170	0.2097
3179	0.2093
3188	0.2087
3197	0.2076
3206	0.2061
3215	0.2035
3224	0.199
3233	0.1935
3242	0.1876
3251	0.1803
3260	0.1725
3269	0.1641
3278	0.1532
3287	0.1443
3296	0.1359
3305	0.1278
3314	0.1205
3323	0.1127
3332	0.1044
3341	0.0996
3350	0.095
3359	0.0911
3368	0.0893
3377	0.0887
3386	0.0886
3395	0.0887
3404	0.089
3413	0.0894
3422	0.09
3431	0.0912
3440	0.0944
3449	0.0987
3458	0.1049
3467	0.1118
3476	0.1267
3485	0.1401
3494	0.1496
3503	0.1609
3512	0.1774
3521	0.1985
3530	0.2195
3539	0.2403
3548	0.261
3557	0.2817
3566	0.3022
3575	0.3227
3584	0.343
3593	0.3618
3602	0.3768
3611	0.3928
3620	0.4025
3629	0.4116
3638	0.4258
3647	0.4335
3656	0.4371
3665	0.4394
3674	0.4406
3683	0.4411
3692	0.4412
3701	0.4409
3710	0.4404
3719	0.4394
3728	0.4377
3737	0.435
3746	0.4305
3755	0.4271
3764	0.4238
3773	0.4234
3782	0.4232
3791	0.423
3800	0.4228
3809	0.4227
3818	0.4225
3827	0.4224
3836	0.4214
3845	0.42
3854	0.4184
3863	0.4169
3872	0.4156
3881	0.4144
3890	0.4126
3899	0.4109
3908	0.4094
3917	0.408
3926	0.4073
3935	0.4067
3944	0.4063
3953	0.4059
3962	0.4054
3971	0.405
3980	0.4046
3989	0.4041
3998	0.4037
