Infrared Spectrum: Ethyl 3-hexamethyleneiminopropionate
Formula: C 11 H 21 N O 2
CAS: 6763-93-5
State: gas
Origin: EPA-IR VAPOR PHASE LIBRARY
1/CM	ABSORBANCE
549.9	0.0014463
559.547	0.0014824
569.193	0.0013868
578.84	0.0013417
588.486	0.0015469
598.133	0.0017002
607.779	0.0014708
617.426	0.0013389
627.072	0.0012572
636.719	0.00119455
646.365	0.001475
656.012	0.0013422
665.658	0.00122
675.305	0.00118266
684.951	0.00116388
694.598	0.0013686
704.245	0.0015511
713.891	0.0017285
723.538	0.0016997
733.184	0.0016529
742.831	0.0016045
752.477	0.0016611
762.124	0.0017549
771.77	0.0018544
781.417	0.00237
791.063	0.0026
800.71	0.00251
810.356	0.00237
820.003	0.0023
829.649	0.00217
839.296	0.00251
848.943	0.0033
858.589	0.00375
868.236	0.00328
877.882	0.00301
887.529	0.0034
897.175	0.00382
906.822	0.00402
916.468	0.00439
926.115	0.00491
935.761	0.0048
945.408	0.00491
955.054	0.00574
964.701	0.00672
974.347	0.00652
983.994	0.00632
993.64	0.00673
1003.29	0.00878
1012.93	0.01199
1022.58	0.01425
1032.23	0.01823
1041.87	0.02097
1051.52	0.01953
1061.17	0.01895
1070.81	0.01831
1080.46	0.0196
1090.11	0.02149
1099.75	0.01907
1109.4	0.01797
1119.05	0.02428
1128.69	0.0353
1138.34	0.03902
1147.99	0.03634
1157.63	0.03809
1167.28	0.04468
1176.92	0.05201
1186.57	0.0539
1196.22	0.04676
1205.86	0.03567
1215.51	0.02992
1225.16	0.03114
1234.8	0.03291
1244.45	0.03391
1254.1	0.0321
1263.74	0.02433
1273.39	0.01924
1283.04	0.01807
1292.68	0.01888
1302.33	0.02058
1311.98	0.02096
1321.62	0.01868
1331.27	0.01656
1340.92	0.01754
1350.56	0.01989
1360.21	0.02148
1369.86	0.02293
1379.5	0.01762
1389.15	0.01169
1398.79	0.00896
1408.44	0.00752
1418.09	0.0074
1427.73	0.00859
1437.38	0.01076
1447.03	0.01368
1456.67	0.01527
1466.32	0.0138
1475.97	0.01053
1485.61	0.00617
1495.26	0.00362
1504.91	0.00254
1514.55	0.0019344
1524.2	0.0017148
1533.85	0.0014513
1543.49	0.0013762
1553.14	0.0012711
1562.79	0.0012141
1572.43	0.0012254
1582.08	0.0012422
1591.73	0.0013138
1601.37	0.0013473
1611.02	0.0015623
1620.67	0.0018131
1630.31	0.0017614
1639.96	0.0017676
1649.6	0.0017805
1659.25	0.0018179
1668.9	0.0019115
1678.54	0.00228
1688.19	0.00291
1697.84	0.00412
1707.48	0.00638
1717.13	0.00954
1726.78	0.01547
1736.42	0.03112
1746.07	0.06025
1755.72	0.06924
1765.36	0.03691
1775.01	0.0155
1784.66	0.00803
1794.3	0.00495
1803.95	0.00339
1813.6	0.00241
1823.24	0.0019313
1832.89	0.0015834
1842.54	0.0014376
1852.18	0.0013411
1861.83	0.0012786
1871.47	0.0012928
1881.12	0.0013049
1890.77	0.0012546
1900.41	0.0012271
1910.06	0.0012547
1919.71	0.00116457
1929.35	0.00118432
1939	0.0010761
1948.65	0.0010271
1958.29	0.0010311
1967.94	0.000976
1977.59	0.000946
1987.23	0.000953
1996.88	0.000931
2006.53	0.000955
2016.17	0.000976
2025.82	0.000984
2035.47	0.0010214
2045.11	0.001004
2054.76	0.000914
2064.41	0.000875
2074.05	0.000886
2083.7	0.000876
2093.35	0.00092
2102.99	0.000893
2112.64	0.000787
2122.28	0.000799
2131.93	0.000757
2141.58	0.000765
2151.22	0.00067
2160.87	0.000704
2170.52	0.000732
2180.16	0.000712
2189.81	0.000716
2199.46	0.000747
2209.1	0.000681
2218.75	0.000763
2228.4	0.000734
2238.04	0.000716
2247.69	0.000743
2257.34	0.000735
2266.98	0.000732
2276.63	0.000732
2286.28	0.000745
2295.92	0.00078
2305.57	0.000802
2315.22	0.000807
2324.86	0.000843
2334.51	0.000825
2344.16	0.000814
2353.8	0.000832
2363.45	0.000777
2373.09	0.000808
2382.74	0.000828
2392.39	0.000747
2402.03	0.00077
2411.68	0.000751
2421.33	0.00076
2430.97	0.000764
2440.62	0.000707
2450.27	0.000753
2459.91	0.000762
2469.56	0.000737
2479.21	0.000739
2488.85	0.000753
2498.5	0.000725
2508.15	0.000763
2517.79	0.000727
2527.44	0.000806
2537.09	0.000879
2546.73	0.000923
2556.38	0.000956
2566.03	0.000982
2575.67	0.00110488
2585.32	0.0010769
2594.96	0.00118767
2604.61	0.0012708
2614.26	0.0014243
2623.9	0.0015676
2633.55	0.0017195
2643.2	0.0020307
2652.84	0.00246
2662.49	0.00289
2672.14	0.00349
2681.78	0.0042
2691.43	0.00467
2701.08	0.00507
2710.72	0.00539
2720.37	0.00573
2730.02	0.0062
2739.66	0.00693
2749.31	0.00803
2758.96	0.00964
2768.6	0.01167
2778.25	0.01336
2787.9	0.01521
2797.54	0.01819
2807.19	0.02164
2816.84	0.02393
2826.48	0.02378
2836.13	0.02142
2845.77	0.02096
2855.42	0.02564
2865.07	0.02957
2874.71	0.02536
2884.36	0.02265
2894.01	0.02464
2903.65	0.03327
2913.3	0.05025
2922.95	0.07756
2932.59	0.10434
2942.24	0.08511
2951.89	0.05046
2961.53	0.03247
2971.18	0.02554
2980.83	0.02687
2990.47	0.02323
3000.12	0.01429
3009.77	0.00876
3019.41	0.00539
3029.06	0.00373
3038.71	0.00245
3048.35	0.0017634
3058	0.0014942
3067.64	0.0010535
3077.29	0.000863
3086.94	0.000867
3096.58	0.000771
3106.23	0.000601
3115.88	0.000654
3125.52	0.000696
3135.17	0.00061
3144.82	0.000221
3154.46	0.00037
3164.11	0.000284
3173.76	0.000336
3183.4	0.00031
3193.05	0.000161
3202.7	0.000339
3212.34	0.000251
3221.99	0.000447
3231.64	0.00021
3241.28	0.000211
3250.93	0.000207
3260.58	0.000233
3270.22	0.000262
3279.87	0.000266
3289.52	0.000226
3299.16	0.000255
3308.81	0.000275
3318.45	0.000246
3328.1	0.000174
3337.75	0.000167
3347.39	0.000164
3357.04	0.0001
3366.69	0.000298
3376.33	0.000135
3385.98	0.000202
3395.63	3e-05
3405.27	0.00011
3414.92	0.000296
3424.57	0.000394
3434.21	0.000487
3443.86	0.00061
3453.51	0.000555
3463.15	0.000749
3472.8	0.000938
3482.45	0.0010125
3492.09	0.0010282
3501.74	0.000717
3511.39	0.000535
3521.03	0.000441
3530.68	0.000485
3540.33	0.0003
3549.97	0.000365
3559.62	0.000407
3569.26	0.000454
3578.91	0.000391
3588.56	0.000263
3598.2	0.000271
3607.85	0.000415
3617.5	0.000381
3627.14	0.000299
3636.79	0.000269
3646.44	0.000234
3656.08	0.000499
3665.73	0.000445
3675.38	0.000511
3685.02	0.000437
3694.67	0.000345
3704.32	0.000394
3713.96	0.000375
3723.61	0.000461
3733.26	0.000472
3742.9	0.000509
3752.55	0.000453
3762.2	0.000529
3771.84	0.000425
3781.49	0.000482
3791.13	0.000513
3800.78	0.000563
3810.43	0.000628
3820.07	0.000454
3829.72	0.000576
3839.37	0.000554
3849.01	0.000541
3858.66	0.000529
3868.31	0.000521
3877.95	0.000619
3887.6	0.00058
3897.25	0.000716
3906.89	0.000596
3916.54	0.000628
3926.19	0.000614
3935.83	0.000512
3945.48	0.000621
3955.13	0.000621
3964.77	0.000723
3974.42	0.000769
3984.07	0.000535
3993.71	0.000587
