Infrared Spectrum: 1-Heptadecene
Formula: C 17 H 34
CAS: 6765-39-5
State: gas
Instrument: HP-GC/MS/IRD
Origin: NIST Mass Spectrometry Data Center
1/CM	ABSORBANCE
550	0.000245
562	2.1e-05
574	0.00014
586	0.000126
598	0.00014
610	0.000196
622	0.000357
634	0.000392
646	0.000189
658	0.000126
670	3.5e-05
682	0.00014
694	0.000252
706	0.00056
718	0.000945
730	0.000763
742	0.000595
754	0.00042
766	0.000301
778	0.000224
790	0.000224
802	0.000168
814	0.000182
826	0.000301
838	0.000245
850	0.000329
862	0.000434
874	0.000595
886	0.00091
898	0.001715
910	0.003647
922	0.002506
934	0.001309
946	0.000854
958	0.000749
970	0.000805
982	0.001246
994	0.001617
1006	0.00105
1018	0.000651
1030	0.000483
1042	0.000343
1054	0.00028
1066	0.000224
1078	0.00021
1090	0.000175
1102	0.00014
1114	0.000119
1126	0.000112
1138	0.000105
1150	2.8e-05
1162	0.000126
1174	9.1e-05
1186	0.000133
1198	0.000168
1210	0.000182
1222	0.000189
1234	0.000175
1246	0.000287
1258	0.000343
1270	0.000476
1282	0.000581
1294	0.000819
1306	0.000994
1318	0.000903
1330	0.00098
1342	0.001449
1354	0.001778
1366	0.001407
1378	0.00105
1390	0.000826
1402	0.0007
1414	0.00084
1426	0.001127
1438	0.002114
1450	0.003787
1462	0.00469
1474	0.002744
1486	0.001106
1498	0.00056
1510	0.000392
1522	0.000273
1534	0.000231
1546	0.000203
1558	0.000217
1570	0.00014
1582	0.00014
1594	0.000161
1606	0.000238
1618	0.000497
1630	0.00098
1642	0.001589
1654	0.000693
1666	0.000245
1678	9.8e-05
1690	5.6e-05
1702	7e-05
1714	3.5e-05
1726	0
1738	4.9e-05
1750	2.1e-05
1762	3.5e-05
1774	4.2e-05
1786	2.1e-05
1798	6.3e-05
1810	0.000133
1822	0.000308
1834	0.000315
1846	0.000147
1858	8.4e-05
1870	4.9e-05
1882	4.9e-05
1894	2.1e-05
1906	3.5e-05
1918	2.1e-05
1930	7e-06
1942	3.5e-05
1954	4.2e-05
1966	3.5e-05
1978	7.7e-05
1990	5.6e-05
2002	6.3e-05
2014	6.3e-05
2026	7.7e-05
2038	6.3e-05
2050	6.3e-05
2062	7e-05
2074	5.6e-05
2086	4.2e-05
2098	2.1e-05
2110	2.8e-05
2122	1.4e-05
2134	2.1e-05
2146	4.9e-05
2158	4.2e-05
2170	4.9e-05
2182	4.9e-05
2194	4.2e-05
2206	4.9e-05
2218	3.5e-05
2230	4.9e-05
2242	2.8e-05
2254	3.5e-05
2266	4.2e-05
2278	4.9e-05
2290	3.5e-05
2302	4.9e-05
2314	4.9e-05
2326	7e-05
2338	9.1e-05
2350	5.6e-05
2362	9.8e-05
2374	7e-05
2386	6.3e-05
2398	5.6e-05
2410	6.3e-05
2422	5.6e-05
2434	5.6e-05
2446	7.7e-05
2458	5.6e-05
2470	7e-05
2482	7.7e-05
2494	0.000105
2506	9.8e-05
2518	0.000133
2530	0.000154
2542	0.000154
2554	0.000189
2566	0.00021
2578	0.000252
2590	0.000294
2602	0.000301
2614	0.000329
2626	0.00035
2638	0.000434
2650	0.000497
2662	0.00056
2674	0.00063
2686	0.000665
2698	0.000595
2710	0.000567
2722	0.000623
2734	0.000672
2746	0.000749
2758	0.000805
2770	0.000903
2782	0.001085
2794	0.001463
2806	0.001918
2818	0.002653
2830	0.003906
2842	0.007084
2854	0.017472
2866	0.024801
2878	0.015855
2890	0.013377
2902	0.017878
2914	0.03059
2926	0.05964
2938	0.06286
2950	0.030093
2962	0.017906
2974	0.012705
2986	0.007021
2998	0.004711
3010	0.003535
3022	0.002338
3034	0.001785
3046	0.001533
3058	0.001519
3070	0.001869
3082	0.002779
3094	0.001925
3106	0.00091
3118	0.000637
3130	0.00049
3142	0.000427
3154	0.000378
3166	0.000287
3178	0.000259
3190	0.000238
3202	0.000203
3214	0.000182
3226	0.000175
3238	0.000112
3250	8.4e-05
3262	0.000105
3274	0.000133
3286	0.000105
3298	7e-05
3310	8.4e-05
3322	7e-05
3334	8.4e-05
3346	9.8e-05
3358	7.7e-05
3370	0.000112
3382	9.1e-05
3394	0.000119
3406	9.1e-05
3418	0.000119
3430	0.000126
3442	8.4e-05
3454	8.4e-05
3466	9.1e-05
3478	7e-05
3490	5.6e-05
3502	0.000105
3514	6.3e-05
3526	1.4e-05
3538	7.7e-05
3550	5.6e-05
3562	6.3e-05
3574	4.2e-05
3586	0.000119
3598	0.000112
3610	0.000154
3622	0.000168
3634	0.000168
3646	0.000182
3658	0.000196
3670	0.000126
3682	0.000168
3694	0.000147
3706	0.000196
3718	0.000182
3730	0.000175
3742	0.000231
3754	0.000238
3766	0.000175
3778	0.000175
3790	0.000168
3802	0.000175
3814	0.00021
3826	0.000231
3838	0.000252
