Infrared Spectrum: 2,2'-Ethylenebis(4-methyl-6-t-butylphenol)
Formula: C24 H34 O2
CAS: 6766-56-9
State: SOLID (OIL MULL)
Class: COBLENTZ III
Instrument: BAIRD (PRISM)
Instrument parameters: NaCl PRISM
Sampling: TRANSMISSION
Resolution: 2
Origin: WYANDOTTE CHEMICALS CORP.
1/CM	TRANSMITTANCE
626	0.6714
635	0.7273
644	0.7742
653	0.8392
662	0.8304
671	0.8873
680	0.9079
689	0.9475
698	0.962
707	0.9446
716	0.8751
725	0.8605
734	0.8881
743	0.8872
752	0.7989
761	0.7107
770	0.7131
779	0.8728
788	0.929
797	0.6875
806	0.9374
815	0.9541
824	0.962
833	0.9514
842	0.9376
851	0.8237
860	0.73
869	0.6754
878	0.9068
887	0.9005
896	0.8111
905	0.8254
914	0.8623
923	0.7247
932	0.7726
941	0.8476
950	0.8406
959	0.7947
968	0.7947
977	0.8185
986	0.8499
995	0.8517
1004	0.8198
1013	0.7907
1022	0.7221
1031	0.7625
1040	0.7645
1049	0.8062
1058	0.8269
1067	0.8215
1076	0.8153
1085	0.7962
1094	0.7726
1103	0.738
1112	0.6448
1121	0.6413
1130	0.411
1139	0.6096
1148	0.5941
1157	0.4686
1166	0.6451
1175	0.6481
1184	0.565
1193	0.4052
1202	0.4306
1211	0.5717
1220	0.3645
1229	0.2793
1238	0.283
1247	0.6052
1256	0.5649
1265	0.6424
1274	0.6916
1283	0.6012
1292	0.6636
1301	0.7286
1310	0.6491
1319	0.7052
1328	0.7356
1337	0.7
1346	0.6162
1355	0.4901
1364	0.4274
1373	0.3165
1382	0.2712
1391	0.4188
1400	0.608
1409	0.7043
1418	0.6741
1427	0.581
1436	0.4435
1445	0.1737
1454	0.1062
1463	0.0857
1472	0.0751
1481	0.2072
1490	0.3693
1499	0.74
1508	0.8287
1517	0.8678
1526	0.8947
1535	0.912
1544	0.9236
1553	0.9276
1562	0.9289
1571	0.9305
1580	0.9336
1589	0.9239
1598	0.905
1607	0.8673
1616	0.8939
1625	0.9156
1634	0.9308
1643	0.9306
1652	0.9304
1661	0.9303
1670	0.9392
1679	0.9411
1688	0.9418
1697	0.9379
1706	0.9333
1715	0.9348
1724	0.9393
1733	0.9282
1742	0.9199
1751	0.9235
1760	0.9331
1769	0.9386
1778	0.9419
1787	0.9435
1796	0.9455
1805	0.9509
1814	0.9515
1823	0.9494
1832	0.9482
1841	0.9495
1850	0.9446
1859	0.9443
1868	0.9442
1877	0.9366
1886	0.9358
1895	0.9435
1904	0.9439
1913	0.9378
1922	0.9362
1931	0.9355
1940	0.9326
1949	0.9291
1958	0.9254
1967	0.9236
1976	0.923
1985	0.9232
1994	0.923
2003	0.9211
2012	0.9205
2021	0.92
2030	0.9196
2039	0.9195
2048	0.9191
2057	0.9174
2066	0.913
2075	0.9123
2084	0.9133
2093	0.9134
2102	0.9091
2111	0.9008
2120	0.8966
2129	0.8998
2138	0.9029
2147	0.8978
2156	0.8884
2165	0.886
2174	0.8838
2183	0.8811
2192	0.877
2201	0.8776
2210	0.8766
2219	0.8727
2228	0.8679
2237	0.8642
2246	0.8629
2255	0.8625
2264	0.8641
2273	0.8624
2282	0.8608
2291	0.8536
2300	0.8411
2309	0.8319
2318	0.83
2327	0.8263
2336	0.8213
2345	0.8207
2354	0.8228
2363	0.8318
2372	0.8309
2381	0.8252
2390	0.8225
2399	0.8215
2408	0.8214
2417	0.8208
2426	0.8176
2435	0.8145
2444	0.8131
2453	0.8133
2462	0.8134
2471	0.8126
2480	0.811
2489	0.8072
2498	0.8011
2507	0.7938
2516	0.7893
2525	0.7872
2534	0.7848
2543	0.7813
2552	0.7774
2561	0.7734
2570	0.7693
2579	0.7652
2588	0.7622
2597	0.7625
2606	0.7623
2615	0.7592
2624	0.7526
2633	0.7442
2642	0.736
2651	0.7277
2660	0.7217
2669	0.7165
2678	0.7139
2687	0.7115
2696	0.7079
2705	0.7015
2714	0.6963
2723	0.6998
2732	0.7129
2741	0.7212
2750	0.7236
2759	0.7211
2768	0.716
2777	0.6966
2786	0.675
2795	0.6476
2804	0.6231
2813	0.5874
2822	0.4076
2831	0.1486
2840	0.0663
2849	0.0474
2858	0.0362
2867	0.0282
2876	0.0246
2885	0.0224
2894	0.02
2903	0.0173
2912	0.0134
2921	0.0128
2930	0.0129
2939	0.0129
2948	0.013
2957	0.0134
2966	0.0138
2975	0.0204
2984	0.0384
2993	0.1189
3002	0.2233
3011	0.3028
3020	0.3674
3029	0.4311
3038	0.4929
3047	0.5237
3056	0.5468
3065	0.5691
3074	0.5829
3083	0.5926
3092	0.599
3101	0.6016
3110	0.6027
3119	0.6026
3128	0.6016
3137	0.5997
3146	0.5975
3155	0.5951
3164	0.5925
3173	0.5893
3182	0.5861
3191	0.5828
3200	0.5796
3209	0.5762
3218	0.5721
3227	0.5676
3236	0.5615
3245	0.5545
3254	0.5474
3263	0.5344
3272	0.5205
3281	0.5038
3290	0.484
3299	0.461
3308	0.4449
3317	0.4275
3326	0.4065
3335	0.3734
3344	0.2639
3353	0.1566
3362	0.1552
3371	0.1956
3380	0.3037
3389	0.369
3398	0.3888
3407	0.4205
3416	0.5392
3425	0.558
3434	0.5787
3443	0.5996
3452	0.6106
3461	0.6203
3470	0.6206
3479	0.6185
3488	0.6149
3497	0.6102
3506	0.6085
3515	0.6075
3524	0.6068
3533	0.6066
3542	0.6063
3551	0.6054
3560	0.6041
3569	0.6029
3578	0.5732
3587	0.5291
3596	0.4851
3605	0.4415
3614	0.398
3623	0.3612
3632	0.3924
3641	0.49
3650	0.5924
3659	0.6737
3668	0.6878
3677	0.6931
3686	0.6962
3695	0.6981
3704	0.6983
3713	0.6965
3722	0.6942
3731	0.6899
3740	0.6844
3749	0.6788
3758	0.6742
3767	0.6701
3776	0.666
3785	0.6621
3794	0.6582
3803	0.6544
3812	0.6512
3821	0.6482
3830	0.6453
3839	0.6424
3848	0.6396
3857	0.6378
3866	0.6362
3875	0.6345
3884	0.6329
3893	0.6313
3902	0.6297
3911	0.6282
3920	0.6268
3929	0.6255
3938	0.6242
3947	0.6229
3956	0.6216
3965	0.6203
3974	0.6189
3983	0.6175
3992	0.6161
