Infrared Spectrum: 2,2,3-TRIMETHYL-4-PENTENAL
Formula: C8 H14 O
CAS: 67682-09-1
Class: COBLENTZ
Instrument: Not specified, most likely a prism, grating, or hybrid spectrometer.
Sampling: TRANSMISSION
Path length: SMEAR
Resolution: 4
Origin: TENNESSEE EASTMAN COMPANY, RESEARCH LABORATORIES
MICROMETERS	TRANSMITTANCE
2.02	0.993
2.06098	0.993
2.10195	0.991
2.14293	0.988
2.18391	0.972
2.22488	0.952
2.26586	0.947
2.30684	0.955
2.34781	0.96
2.38879	0.962
2.42977	0.964
2.47074	0.967
2.51172	0.97
2.5527	0.969
2.59367	0.962
2.63465	0.962
2.67563	0.957
2.7166	0.941
2.75758	0.933
2.79856	0.931
2.83953	0.926
2.88051	0.897
2.92149	0.887
2.96246	0.902
3.00344	0.907
3.04441	0.904
3.08539	0.894
3.12637	0.883
3.16734	0.877
3.20832	0.831
3.2493	0.677
3.29027	0.75
3.33125	0.139
3.37223	0.38
3.4132	0.503
3.45418	0.479
3.49516	0.653
3.53613	0.629
3.57711	0.75
3.61809	0.752
3.65906	0.585
3.70004	0.556
3.74102	0.735
3.78199	0.872
3.82297	0.904
3.86395	0.921
3.90492	0.933
3.9459	0.94
3.98688	0.947
4.02785	0.948
4.06883	0.948
4.10981	0.948
4.15078	0.948
4.19176	0.953
4.23274	0.947
4.27371	0.921
4.31469	0.926
4.35567	0.948
4.39664	0.953
4.43762	0.957
4.4786	0.957
4.51957	0.955
4.56055	0.959
4.60153	0.955
4.6425	0.952
4.68348	0.952
4.72446	0.952
4.76543	0.953
4.80641	0.95
4.84738	0.948
4.88836	0.952
4.92934	0.945
4.97031	0.947
5.01129	0.945
5.05227	0.948
5.09324	0.948
5.13422	0.948
5.1752	0.947
5.21617	0.947
5.25715	0.941
5.29813	0.933
5.3391	0.911
5.38008	0.897
5.42106	0.861
5.46203	0.858
5.50301	0.851
5.54399	0.839
5.58496	0.817
5.62594	0.754
5.66692	0.607
5.70789	0.232
5.74887	0.08
5.78985	0.088
5.83082	0.38
5.8718	0.6
5.91278	0.689
5.95375	0.767
5.99473	0.784
6.03571	0.774
6.07668	0.622
6.11766	0.771
6.15864	0.829
6.19961	0.851
6.24059	0.872
6.28157	0.887
6.32254	0.894
6.36352	0.899
6.4045	0.897
6.44547	0.866
6.48645	0.873
6.52743	0.858
6.5684	0.865
6.60938	0.844
6.65035	0.834
6.69133	0.769
6.73231	0.626
6.77328	0.382
6.81426	0.344
6.85524	0.515
6.89621	0.645
6.93719	0.708
6.97817	0.612
7.01914	0.607
7.06012	0.68
7.1011	0.559
7.14207	0.638
7.18305	0.639
7.22403	0.479
7.265	0.5
7.30598	0.503
7.34696	0.723
7.38793	0.807
7.42891	0.832
7.46989	0.834
7.51086	0.829
7.55184	0.812
7.59282	0.82
7.63379	0.82
7.67477	0.815
7.71575	0.807
7.75672	0.805
7.7977	0.813
7.83868	0.822
7.87965	0.817
7.92063	0.807
7.96161	0.8
8.00258	0.781
8.04356	0.769
8.08454	0.757
8.12551	0.771
8.16649	0.774
8.20747	0.773
8.24844	0.757
8.28942	0.691
8.3304	0.709
8.37137	0.716
8.41235	0.732
8.45332	0.73
8.4943	0.728
8.53528	0.723
8.57625	0.696
8.61723	0.677
8.65821	0.696
8.69918	0.696
8.74016	0.696
8.78114	0.703
8.82211	0.709
8.86309	0.728
8.90407	0.744
8.94504	0.757
8.98602	0.769
9.027	0.755
9.06797	0.735
9.10895	0.737
9.14993	0.732
9.1909	0.72
9.23188	0.709
9.27286	0.704
9.31383	0.704
9.35481	0.713
9.39579	0.694
9.43676	0.621
9.47774	0.537
9.51872	0.529
9.55969	0.588
9.60067	0.655
9.64165	0.708
9.68262	0.735
9.7236	0.742
9.76458	0.728
9.80555	0.682
9.84653	0.604
9.88751	0.549
9.92848	0.481
9.96946	0.426
10.0104	0.445
10.0514	0.544
10.0924	0.604
10.1334	0.668
10.1743	0.703
10.2153	0.703
10.2563	0.682
10.2973	0.679
10.3382	0.716
10.3792	0.749
10.4202	0.769
10.4612	0.761
10.5022	0.735
10.5431	0.713
10.5841	0.696
10.6251	0.67
10.6661	0.617
10.707	0.53
10.748	0.426
10.789	0.334
10.83	0.25
10.8709	0.206
10.9119	0.208
10.9529	0.303
10.9939	0.423
11.0349	0.535
11.0758	0.549
11.1168	0.494
11.1578	0.477
11.1988	0.525
11.2397	0.563
11.2807	0.624
11.3217	0.684
11.3627	0.726
11.4036	0.762
11.4446	0.79
11.4856	0.803
11.5266	0.813
11.5675	0.819
11.6085	0.822
11.6495	0.824
11.6905	0.824
11.7315	0.824
11.7724	0.819
11.8134	0.8
11.8544	0.771
11.8954	0.715
11.9363	0.643
11.9773	0.581
12.0183	0.561
12.0593	0.605
12.1002	0.648
12.1412	0.684
12.1822	0.728
12.2232	0.779
12.2641	0.807
12.3051	0.824
12.3461	0.832
12.3871	0.839
12.4281	0.843
12.469	0.846
12.51	0.851
12.551	0.851
12.592	0.848
12.6329	0.854
12.6739	0.851
12.7149	0.851
12.7559	0.849
12.7968	0.844
12.8378	0.843
12.8788	0.841
12.9198	0.834
12.9607	0.827
13.0017	0.807
13.0427	0.779
13.0837	0.755
13.1247	0.74
13.1656	0.733
13.2066	0.738
13.2476	0.757
13.2886	0.781
13.3295	0.793
13.3705	0.795
13.4115	0.802
13.4525	0.803
13.4934	0.807
13.5344	0.807
13.5754	0.807
13.6164	0.807
13.6574	0.807
13.6983	0.803
13.7393	0.802
13.7803	0.8
13.8213	0.798
13.8622	0.796
13.9032	0.793
13.9442	0.784
13.9852	0.781
14.0261	0.776
14.0671	0.766
14.1081	0.757
14.1491	0.74
14.19	0.733
14.231	0.709
14.272	0.691
14.313	0.674
14.354	0.653
14.3949	0.643
14.4359	0.636
14.4769	0.633
14.5179	0.633
14.5588	0.634
14.5998	0.624
14.6408	0.619
14.6818	0.616
14.7227	0.614
14.7637	0.612
14.8047	0.612
14.8457	0.614
14.8866	0.61
14.9276	0.609
14.9686	0.614
15.0096	0.617
15.0506	0.619
15.0915	0.619
15.1325	0.619
15.1735	0.617
15.2145	0.612
15.2554	0.612
15.2964	0.61
15.3374	0.607
15.3784	0.605
15.4193	0.6
15.4603	0.602
15.5013	0.597
15.5423	0.595
15.5833	0.592
15.6242	0.588
15.6652	0.587
15.7062	0.585
15.7472	0.583
15.7881	0.581
15.8291	0.575
15.8701	0.575
15.9111	0.575
15.952	0.575
