Infrared Spectrum: p-Octyloxybenzyl alcohol
Formula: C 15 H 24 O 2
CAS: 67698-68-4
State: gas
Origin: EPA-IR VAPOR PHASE LIBRARY
1/CM	ABSORBANCE
549.8	0.00985
559.445	0.01021
569.09	0.01154
578.734	0.01468
588.379	0.0159
598.024	0.01025
607.669	0.0061
617.313	0.0042
626.958	0.00331
636.603	0.00313
646.248	0.00263
655.893	0.00235
665.537	0.00218
675.182	0.00267
684.827	0.00345
694.472	0.00472
704.116	0.00688
713.761	0.00828
723.406	0.00803
733.051	0.00747
742.695	0.00716
752.34	0.00752
761.985	0.00815
771.63	0.00898
781.275	0.01005
790.919	0.01345
800.564	0.02013
810.209	0.02729
819.854	0.03723
829.498	0.04322
839.143	0.03421
848.788	0.02358
858.433	0.01467
868.078	0.01032
877.722	0.0086
887.367	0.0087
897.012	0.0099
906.657	0.01112
916.301	0.01174
925.946	0.01259
935.591	0.01371
945.236	0.01594
954.88	0.02109
964.525	0.02899
974.17	0.03771
983.815	0.04802
993.46	0.06149
1003.1	0.07693
1012.75	0.08723
1022.39	0.09418
1032.04	0.08864
1041.68	0.07333
1051.33	0.05694
1060.97	0.04292
1070.62	0.03267
1080.26	0.02339
1089.91	0.01767
1099.55	0.01566
1109.2	0.01597
1118.84	0.01612
1128.49	0.01444
1138.13	0.01439
1147.78	0.01757
1157.42	0.02879
1167.07	0.07624
1176.71	0.06481
1186.36	0.03533
1196	0.04365
1205.64	0.06874
1215.29	0.10659
1224.93	0.14432
1234.58	0.20381
1244.22	0.24856
1253.87	0.15731
1263.51	0.08487
1273.16	0.06337
1282.8	0.06252
1292.45	0.06381
1302.09	0.05319
1311.74	0.03778
1321.38	0.02847
1331.03	0.02439
1340.67	0.02331
1350.32	0.02492
1359.96	0.02933
1369.61	0.03803
1379.25	0.05197
1388.9	0.05307
1398.54	0.03441
1408.18	0.02424
1417.83	0.02039
1427.47	0.01869
1437.12	0.02044
1446.76	0.02478
1456.41	0.03267
1466.05	0.04424
1475.7	0.05188
1485.34	0.03038
1494.99	0.04314
1504.63	0.12911
1514.28	0.1692
1523.92	0.04372
1533.57	0.0173
1543.21	0.01111
1552.86	0.00958
1562.5	0.01043
1572.15	0.01506
1581.79	0.02467
1591.44	0.03032
1601.08	0.05207
1610.73	0.07627
1620.37	0.04358
1630.01	0.01571
1639.66	0.00867
1649.3	0.00621
1658.95	0.00464
1668.59	0.00357
1678.24	0.00291
1687.88	0.00249
1697.53	0.0023
1707.17	0.00239
1716.82	0.00258
1726.46	0.00243
1736.11	0.00242
1745.75	0.00292
1755.4	0.00343
1765.04	0.00286
1774.69	0.00214
1784.33	0.00173
1793.98	0.00154
1803.62	0.00142
1813.27	0.00141
1822.91	0.00146
1832.55	0.00165
1842.2	0.00196
1851.84	0.00246
1861.49	0.0031
1871.13	0.00394
1880.78	0.00388
1890.42	0.00315
1900.07	0.00274
1909.71	0.00244
1919.36	0.00209
1929	0.00217
1938.65	0.00222
1948.29	0.00238
1957.94	0.00244
1967.58	0.00263
1977.23	0.00293
1986.87	0.00311
1996.52	0.00333
2006.16	0.00357
2015.81	0.00363
2025.45	0.00354
2035.1	0.00337
2044.74	0.00327
2054.38	0.00322
2064.03	0.00307
2073.67	0.0029
2083.32	0.00257
2092.96	0.0023
2102.61	0.00193
2112.25	0.00158
2121.9	0.00144
2131.54	0.00127
2141.19	0.00122
2150.83	0.00112
2160.48	0.00102
2170.12	0.00104
2179.77	0.000972
2189.41	0.00113
2199.06	0.00118
2208.7	0.00127
2218.35	0.00139
2227.99	0.0013
2237.64	0.00128
2247.28	0.00139
2256.92	0.00146
2266.57	0.00146
2276.21	0.00159
2285.86	0.00164
2295.5	0.00161
2305.15	0.00169
2314.79	0.00175
2324.44	0.00185
2334.08	0.00187
2343.73	0.00203
2353.37	0.00195
2363.02	0.0017
2372.66	0.00156
2382.31	0.00167
2391.95	0.00179
2401.6	0.00201
2411.24	0.00227
2420.89	0.00227
2430.53	0.00226
2440.18	0.00237
2449.82	0.00251
2459.47	0.00272
2469.11	0.00277
2478.75	0.00282
2488.4	0.00272
2498.04	0.00254
2507.69	0.00258
2517.33	0.00294
2526.98	0.00311
2536.62	0.00312
2546.27	0.00304
2555.91	0.00258
2565.56	0.00254
2575.2	0.00258
2584.85	0.00251
2594.49	0.0025
2604.14	0.00243
2613.78	0.00256
2623.43	0.00266
2633.07	0.00277
2642.72	0.00295
2652.36	0.00309
2662.01	0.00342
2671.65	0.00382
2681.29	0.00407
2690.94	0.00422
2700.58	0.00417
2710.23	0.00436
2719.87	0.00469
2729.52	0.00546
2739.16	0.00657
2748.81	0.0072
2758.45	0.00718
2768.1	0.00726
2777.74	0.00779
2787.39	0.00883
2797.03	0.01019
2806.68	0.01192
2816.32	0.01475
2825.97	0.01898
2835.61	0.02633
2845.26	0.04183
2854.9	0.07609
2864.55	0.11368
2874.19	0.11849
2883.84	0.114
2893.48	0.09877
2903.12	0.10723
2912.77	0.14241
2922.41	0.19666
2932.06	0.25901
2941.7	0.24522
2951.35	0.18814
2960.99	0.15367
2970.64	0.12453
2980.28	0.06604
2989.93	0.03881
2999.57	0.02793
3009.22	0.02258
3018.86	0.02107
3028.51	0.02529
3038.15	0.02905
3047.8	0.01808
3057.44	0.01342
3067.09	0.01438
3076.73	0.01332
3086.38	0.01025
3096.02	0.00973
3105.67	0.00831
3115.31	0.00604
3124.95	0.00461
3134.6	0.0037
3144.24	0.00257
3153.89	0.00233
3163.53	0.0021
3173.18	0.00187
3182.82	0.00186
3192.47	0.0017
3202.11	0.00145
3211.76	0.00136
3221.4	0.00126
3231.05	0.00111
3240.69	0.0009252
3250.34	0.0007835
3259.98	0.0007829
3269.63	0.0006583
3279.27	0.0005808
3288.92	0.000754
3298.56	0.0007292
3308.21	0.0006278
3317.85	0.0005081
3327.49	0.0005707
3337.14	0.0006819
3346.78	0.0006041
3356.43	0.0007396
3366.07	0.0006493
3375.72	0.0008044
3385.36	0.0009182
3395.01	0.0009739
3404.65	0.0007793
3414.3	0.0008696
3423.94	0.0009899
3433.59	0.0009123
3443.23	0.0009717
3452.88	0.00102
3462.52	0.0007068
3472.17	0.0007312
3481.81	0.0007084
3491.46	0.0008521
3501.1	0.0008129
3510.75	0.0007687
3520.39	0.0008591
3530.04	0.000721
3539.68	0.0008257
3549.32	0.0008889
3558.97	0.0006896
3568.61	0.0008155
3578.26	0.000816
3587.9	0.00118
3597.55	0.00141
3607.19	0.00185
3616.84	0.00261
3626.48	0.00431
3636.13	0.00726
3645.77	0.01095
3655.42	0.01184
3665.06	0.01044
3674.71	0.0072
3684.35	0.00468
3694	0.0034
3703.64	0.0024
3713.29	0.00192
3722.93	0.00157
3732.58	0.00147
3742.22	0.00122
3751.86	0.0012
3761.51	0.00127
3771.15	0.00113
3780.8	0.00117
3790.44	0.0012
3800.09	0.00108
3809.73	0.0011
3819.38	0.00124
3829.02	0.00119
3838.67	0.00126
3848.31	0.00148
3857.96	0.00145
3867.6	0.0017
3877.25	0.00168
3886.89	0.00169
3896.54	0.00155
3906.18	0.00162
3915.83	0.00157
3925.47	0.00148
3935.12	0.00126
3944.76	0.00121
3954.41	0.00118
3964.05	0.00107
3973.69	0.00128
3983.34	0.00132
3992.98	0.00123
