Infrared Spectrum: Methylphosphorodichloridate
Formula: C H 3 Cl 2 O 2 P
CAS: 677-24-7
State: gas
Origin: EPA-IR VAPOR PHASE LIBRARY
1/CM	ABSORBANCE
549.8	0.061
559.445	0.06045
569.09	0.06732
578.734	0.09411
588.379	0.1146
598.024	0.14508
607.669	0.1691
617.313	0.14687
626.958	0.07374
636.603	0.01614
646.248	0.00644
655.893	0.00451
665.537	0.00387
675.182	0.00416
684.827	0.00405
694.472	0.00394
704.116	0.00395
713.761	0.00364
723.406	0.00353
733.051	0.00426
742.695	0.00478
752.34	0.00611
761.985	0.00821
771.63	0.0122583
781.275	0.02414
790.919	0.04487
800.564	0.06073
810.209	0.05438
819.854	0.02927
829.498	0.011834
839.143	0.00676
848.788	0.00573
858.433	0.00546
868.078	0.00441
877.722	0.00352
887.367	0.00245
897.012	0.00251
906.657	0.0028
916.301	0.00284
925.946	0.00385
935.591	0.00462
945.236	0.00504
954.88	0.00555
964.525	0.00608
974.17	0.00665
983.815	0.00843
993.46	0.011619
1003.1	0.01965
1012.75	0.04211
1022.39	0.09282
1032.04	0.17006
1041.68	0.20305
1051.33	0.15396
1060.97	0.07684
1070.62	0.06022
1080.26	0.05423
1089.91	0.03927
1099.55	0.02583
1109.2	0.01989
1118.84	0.01743
1128.49	0.01475
1138.13	0.01335
1147.78	0.011592
1157.42	0.012892
1167.07	0.01625
1176.71	0.01967
1186.36	0.02116
1196	0.01807
1205.64	0.01555
1215.29	0.01493
1224.93	0.01315
1234.58	0.01008
1244.22	0.00749
1253.87	0.00535
1263.51	0.00412
1273.16	0.00429
1282.8	0.00815
1292.45	0.02781
1302.09	0.07041
1311.74	0.12103
1321.38	0.09288
1331.03	0.07914
1340.67	0.06036
1350.32	0.03337
1359.96	0.01319
1369.61	0.00779
1379.25	0.00669
1388.9	0.00666
1398.54	0.00749
1408.18	0.00574
1417.83	0.00517
1427.47	0.00528
1437.12	0.00622
1446.76	0.00831
1456.41	0.01034
1466.05	0.00992
1475.7	0.00782
1485.34	0.00634
1494.99	0.00537
1504.63	0.00469
1514.28	0.00435
1523.92	0.00427
1533.57	0.00424
1543.21	0.00424
1552.86	0.004
1562.5	0.004
1572.15	0.00388
1581.79	0.00406
1591.44	0.00424
1601.08	0.0035
1610.73	0.0032
1620.37	0.00289
1630.01	0.00254
1639.66	0.0024
1649.3	0.00226
1658.95	0.002
1668.59	0.0019
1678.24	0.0018
1687.88	0.00174
1697.53	0.00162
1707.17	0.00167
1716.82	0.00163
1726.46	0.00153
1736.11	0.0016
1745.75	0.00164
1755.4	0.00173
1765.04	0.00181
1774.69	0.00199
1784.33	0.00211
1793.98	0.0022
1803.62	0.00262
1813.27	0.00317
1822.91	0.00407
1832.55	0.00515
1842.2	0.00595
1851.84	0.00554
1861.49	0.00427
1871.13	0.0033
1880.78	0.00278
1890.42	0.00236
1900.07	0.00233
1909.71	0.00212
1919.36	0.00199
1929	0.00195
1938.65	0.0018
1948.29	0.00192
1957.94	0.00191
1967.58	0.00183
1977.23	0.00183
1986.87	0.00186
1996.52	0.00176
2006.16	0.00188
2015.81	0.00177
2025.45	0.00169
2035.1	0.00188
2044.74	0.00173
2054.38	0.0016
2064.03	0.00163
2073.67	0.00163
2083.32	0.00163
2092.96	0.00143
2102.61	0.00162
2112.25	0.00165
2121.9	0.0016
2131.54	0.00162
2141.19	0.00163
2150.83	0.0015
2160.48	0.00141
2170.12	0.0015
2179.77	0.00153
2189.41	0.00138
2199.06	0.00148
2208.7	0.00143
2218.35	0.00148
2227.99	0.00141
2237.64	0.00146
2247.28	0.0016
2256.92	0.00165
2266.57	0.00168
2276.21	0.00155
2285.86	0.00142
2295.5	0.00137
2305.15	0.00142
2314.79	0.00138
2324.44	0.00148
2334.08	0.00138
2343.73	0.00131
2353.37	0.00142
2363.02	0.0014
2372.66	0.00151
2382.31	0.00125
2391.95	0.00136
2401.6	0.00124
2411.24	0.0013
2420.89	0.00119
2430.53	0.00122
2440.18	0.00112
2449.82	0.00129
2459.47	0.00097
2469.11	0.00125
2478.75	0.00117
2488.4	0.00121
2498.04	0.00131
2507.69	0.00117
2517.33	0.00115
2526.98	0.00143
2536.62	0.00119
2546.27	0.00119
2555.91	0.00118
2565.56	0.00116
2575.2	0.00124
2584.85	0.00129
2594.49	0.00145
2604.14	0.00125
2613.78	0.00169
2623.43	0.00159
2633.07	0.00155
2642.72	0.00143
2652.36	0.00123
2662.01	0.00134
2671.65	0.00133
2681.29	0.00102
2690.94	0.00103
2700.58	0.00108
2710.23	0.00107
2719.87	0.00101
2729.52	0.00095
2739.16	0.00104
2748.81	0.00097
2758.45	0.00096
2768.1	0.00087
2777.74	0.00123
2787.39	0.00109
2797.03	0.00107
2806.68	0.00126
2816.32	0.00143
2825.97	0.00137
2835.61	0.00189
2845.26	0.003
2854.9	0.00537
2864.55	0.00759
2874.19	0.00642
2883.84	0.00429
2893.48	0.00363
2903.12	0.00377
2912.77	0.00447
2922.41	0.00534
2932.06	0.00651
2941.7	0.00726
2951.35	0.01094
2960.99	0.01837
2970.64	0.0216
2980.28	0.01587
2989.93	0.00797
2999.57	0.00578
3009.22	0.00546
3018.86	0.00541
3028.51	0.00524
3038.15	0.00521
3047.8	0.00441
3057.44	0.00359
3067.09	0.00317
3076.73	0.003
3086.38	0.00287
3096.02	0.00271
3105.67	0.00239
3115.31	0.00199
3124.95	0.00162
3134.6	0.00147
3144.24	0.00125
3153.89	0.00118
3163.53	0.00106
3173.18	0.00096
3182.82	0.00077
3192.47	0.00082
3202.11	0.00062
3211.76	0.00073
3221.4	0.00077
3231.05	0.00071
3240.69	0.00068
3250.34	0.00041
3259.98	0.00052
3269.63	0.00035
3279.27	0.00028
3288.92	0.00074
3298.56	0.00033
3308.21	0.00076
3317.85	0.00072
3327.49	0.00061
3337.14	0.00058
3346.78	0.00084
3356.43	0.00048
3366.07	0.00047
3375.72	0.00032
3385.36	0.0005
3395.01	0.00022
3404.65	0.0009
3414.3	0.00095
3423.94	0.00087
3433.59	0.00059
3443.23	0.00048
3452.88	0.00055
3462.52	0.00053
3472.17	0.0006
3481.81	0.00044
3491.46	0.00055
3501.1	0.00078
3510.75	0.00075
3520.39	0.00058
3530.04	0.00074
3539.68	0.00074
3549.32	0.00049
3558.97	0.00045
3568.61	0.00049
3578.26	0.00062
3587.9	0.00049
3597.55	0.00049
3607.19	0.00056
3616.84	0.0007
3626.48	0.00057
3636.13	0.00058
3645.77	0.00079
3655.42	0.00069
3665.06	0.00065
3674.71	0.00064
3684.35	0.00064
3694	0.0006
3703.64	0.0005
3713.29	0.00053
3722.93	0.0005
3732.58	0.00047
3742.22	0.0004
3751.86	0.00079
3761.51	0.00079
3771.15	0.00037
3780.8	0.00058
3790.44	0.00067
3800.09	0.00054
3809.73	0.00075
3819.38	0.00077
3829.02	0.00062
3838.67	0.00052
3848.31	0.00066
3857.96	0.00036
3867.6	0.00032
3877.25	0.00075
3886.89	0.00053
3896.54	0.00087
3906.18	0.00059
3915.83	0.00087
3925.47	0.00073
3935.12	0.00022
3944.76	0.0005
3954.41	0.00045
3964.05	0.00081
3973.69	0.00073
3983.34	0.00068
3992.98	0.00071
