Infrared Spectrum: 1,2,2,3-TETRACHLORO-1,1,3,3-TETRAFLUORO PROPANE
Formula: C3 Cl4 F4
CAS: 677-68-9
State: SOLUTION (10% CCl4 FOR 5000-1330, 10% CS2 FOR 1330-625 CM^-^1)
Class: COBLENTZ
Instrument: Not specified, most likely a prism, grating, or hybrid spectrometer.
Sampling: TRANSMISSION
Path length: 0.0110 CM, 0.0111 CM
Resolution: 4
Origin: DOW CHEMICAL COMPANY
MICROMETERS	TRANSMITTANCE
2.034	0.907
2.07514	0.907
2.11627	0.907
2.15741	0.907
2.19854	0.91
2.23968	0.91
2.28081	0.91
2.32195	0.91
2.36308	0.91
2.40422	0.912
2.44536	0.914
2.48649	0.919
2.52763	0.927
2.56876	0.929
2.6099	0.926
2.65103	0.931
2.69217	0.927
2.73331	0.927
2.77444	0.927
2.81558	0.926
2.85671	0.926
2.89785	0.919
2.93898	0.903
2.98012	0.909
3.02125	0.912
3.06239	0.914
3.10353	0.917
3.14466	0.931
3.1858	0.927
3.22693	0.927
3.26807	0.929
3.3092	0.929
3.35034	0.929
3.39148	0.929
3.43261	0.931
3.47375	0.931
3.51488	0.936
3.55602	0.941
3.59715	0.939
3.63829	0.939
3.67942	0.941
3.72056	0.945
3.7617	0.948
3.80283	0.948
3.84397	0.95
3.8851	0.95
3.92624	0.95
3.96737	0.951
4.00851	0.953
4.04964	0.951
4.09078	0.951
4.13192	0.953
4.17305	0.957
4.21419	0.958
4.25532	0.957
4.29646	0.939
4.33759	0.91
4.37873	0.919
4.41987	0.943
4.461	0.946
4.50214	0.948
4.54327	0.945
4.58441	0.931
4.62554	0.938
4.66668	0.953
4.70781	0.958
4.74895	0.958
4.79009	0.96
4.83122	0.957
4.87236	0.951
4.91349	0.95
4.95463	0.95
4.99576	0.95
5.0369	0.946
5.07804	0.95
5.11917	0.95
5.16031	0.951
5.20144	0.951
5.24258	0.951
5.28371	0.951
5.32485	0.95
5.36598	0.946
5.40712	0.943
5.44826	0.941
5.48939	0.938
5.53053	0.939
5.57166	0.941
5.6128	0.945
5.65393	0.945
5.69507	0.945
5.7362	0.945
5.77734	0.945
5.81848	0.945
5.85961	0.943
5.90075	0.941
5.94188	0.939
5.98302	0.934
6.02415	0.927
6.06529	0.912
6.10643	0.907
6.14756	0.9
6.1887	0.859
6.22983	0.783
6.27097	0.699
6.3121	0.668
6.35324	0.631
6.39437	0.574
6.43551	0.512
6.47665	0.547
6.51778	0.639
6.55892	0.682
6.60005	0.739
6.64119	0.797
6.68232	0.838
6.72346	0.874
6.76459	0.898
6.80573	0.912
6.84687	0.914
6.888	0.914
6.92914	0.914
6.97027	0.914
7.01141	0.914
7.05254	0.915
7.09368	0.927
7.13482	0.929
7.17595	0.927
7.21709	0.927
7.25822	0.927
7.29936	0.927
7.34049	0.927
7.38163	0.927
7.42276	0.922
7.4639	0.921
7.50504	0.91
7.54617	0.902
7.58731	0.9
7.62844	0.895
7.66958	0.886
7.71071	0.888
7.75185	0.895
7.79299	0.895
7.83412	0.891
7.87526	0.881
7.91639	0.867
7.95753	0.867
7.99866	0.866
8.0398	0.862
8.08093	0.859
8.12207	0.842
8.16321	0.825
8.20434	0.802
8.24548	0.761
8.28661	0.684
8.32775	0.519
8.36888	0.216
8.41002	0.029
8.45115	0.017
8.49229	0.013
8.53343	0.013
8.57456	0.013
8.6157	0.03
8.65683	0.054
8.69797	0.049
8.7391	0.13
8.78024	0.368
8.82138	0.531
8.86251	0.614
8.90365	0.68
8.94478	0.74
8.98592	0.766
9.02705	0.771
9.06819	0.777
9.10932	0.771
9.15046	0.747
9.1916	0.732
9.23273	0.722
9.27387	0.689
9.315	0.579
9.35614	0.44
9.39727	0.346
9.43841	0.221
9.47955	0.101
9.52068	0.147
9.56182	0.264
9.60295	0.137
9.64409	0.156
9.68522	0.401
9.72636	0.495
9.76749	0.481
9.80863	0.526
9.84977	0.646
9.8909	0.668
9.93204	0.65
9.97317	0.595
10.0143	0.442
10.0554	0.372
10.0966	0.557
10.1377	0.71
10.1789	0.801
10.22	0.835
10.2611	0.855
10.3023	0.881
10.3434	0.893
10.3845	0.898
10.4257	0.897
10.4668	0.897
10.5079	0.895
10.5491	0.891
10.5902	0.891
10.6313	0.886
10.6725	0.873
10.7136	0.833
10.7547	0.739
10.7959	0.617
10.837	0.547
10.8782	0.48
10.9193	0.379
10.9604	0.246
11.0016	0.152
11.0427	0.087
11.0838	0.114
11.125	0.205
11.1661	0.375
11.2072	0.507
11.2484	0.542
11.2895	0.557
11.3306	0.579
11.3718	0.591
11.4129	0.598
11.4541	0.588
11.4952	0.555
11.5363	0.495
11.5775	0.411
11.6186	0.279
11.6597	0.147
11.7009	0.13
11.742	0.224
11.7831	0.427
11.8243	0.576
11.8654	0.643
11.9065	0.68
11.9477	0.691
11.9888	0.686
12.03	0.663
12.0711	0.627
12.1122	0.605
12.1534	0.583
12.1945	0.469
12.2356	0.305
12.2768	0.224
12.3179	0.229
12.359	0.322
12.4002	0.468
12.4413	0.559
12.4824	0.6
12.5236	0.617
12.5647	0.614
12.6059	0.554
12.647	0.519
12.6881	0.495
12.7293	0.454
12.7704	0.373
12.8115	0.204
12.8527	0.066
12.8938	0.042
12.9349	0.123
12.9761	0.31
13.0172	0.475
13.0583	0.595
13.0995	0.662
13.1406	0.713
13.1817	0.747
13.2229	0.765
13.264	0.773
13.3052	0.777
13.3463	0.782
13.3874	0.789
13.4286	0.792
13.4697	0.795
13.5108	0.785
13.552	0.766
13.5931	0.744
13.6342	0.706
13.6754	0.655
13.7165	0.579
13.7576	0.488
13.7988	0.373
13.8399	0.253
13.8811	0.18
13.9222	0.168
13.9633	0.228
14.0045	0.348
14.0456	0.447
14.0867	0.528
14.1279	0.583
14.169	0.62
14.2101	0.648
14.2513	0.667
14.2924	0.675
14.3335	0.675
14.3747	0.675
14.4158	0.67
14.457	0.667
14.4981	0.665
14.5392	0.658
14.5804	0.656
14.6215	0.653
14.6626	0.646
14.7038	0.643
14.7449	0.636
14.786	0.626
14.8272	0.619
14.8683	0.615
14.9094	0.615
14.9506	0.612
14.9917	0.603
15.0329	0.584
15.074	0.572
15.1151	0.566
15.1563	0.555
15.1974	0.548
15.2385	0.543
15.2797	0.536
15.3208	0.528
15.3619	0.524
15.4031	0.519
15.4442	0.516
15.4853	0.506
15.5265	0.5
15.5676	0.495
15.6088	0.488
15.6499	0.48
15.691	0.471
15.7322	0.461
15.7733	0.445
15.8144	0.437
15.8556	0.433
15.8967	0.435
