Infrared Spectrum: Bis-(3-aminopropyl)-phenylphosphine
Formula: C 12 H 21 N 2 P
CAS: 6775-01-5
State: gas
Instrument: HP-GC/MS/IRD
Origin: NIST Mass Spectrometry Data Center
1/CM	ABSORBANCE
550	0.0037185
562	0.0003685
574	0.0007839
586	0.0011055
598	0.0015544
610	0.0022512
622	0.0031423
634	0.0049446
646	0.0069613
658	0.0083348
670	0.0107736
682	0.0145926
694	0.0297279
706	0.0270613
718	0.029011
730	0.0377612
742	0.0416941
754	0.0381163
766	0.0408901
778	0.0366624
790	0.0251719
802	0.0176679
814	0.0132459
826	0.0103984
838	0.0084152
850	0.0075777
862	0.0069747
874	0.0070752
886	0.006767
898	0.0054538
910	0.0041875
922	0.0030954
934	0.0025795
946	0.0023986
958	0.0026331
970	0.0033835
982	0.0038123
994	0.0049446
1006	0.0065593
1018	0.008241
1030	0.0083884
1042	0.0054471
1054	0.0068809
1066	0.0119528
1078	0.0120935
1090	0.0097954
1102	0.0076648
1114	0.004422
1126	0.002412
1138	0.0015879
1150	0.0014472
1162	0.0015276
1174	0.0020301
1186	0.0023584
1198	0.0018023
1210	0.001474
1222	0.0015075
1234	0.0014941
1246	0.0013132
1258	0.0018358
1270	0.0023584
1282	0.0023718
1294	0.0031423
1306	0.0033232
1318	0.0028609
1330	0.0028475
1342	0.0044421
1354	0.0061104
1366	0.006633
1378	0.0078055
1390	0.0068273
1402	0.0048508
1414	0.0070886
1426	0.0097217
1438	0.0109076
1450	0.0067067
1462	0.0055342
1474	0.0064387
1486	0.0060233
1498	0.0021373
1510	0.0013199
1522	0.0011055
1534	0.0012663
1546	0.0013869
1558	0.0017889
1570	0.002814
1582	0.004422
1594	0.005092
1606	0.0069412
1618	0.0111622
1630	0.0102376
1642	0.0056012
1654	0.0031892
1666	0.0016951
1678	0.0009715
1690	0.0006097
1702	0.0004556
1714	0.000402
1726	0.0003484
1738	0.0004489
1750	0.0006164
1762	0.000469
1774	0.0006164
1786	0.0007169
1798	0.0014941
1810	0.0013333
1822	0.0008576
1834	0.0005494
1846	0.0004958
1858	0.0005025
1870	0.0009447
1882	0.0010586
1894	0.0006499
1906	0.0002345
1918	0.0002144
1930	0.000469
1942	0.0011256
1954	0.0011323
1966	0.0005896
1978	0.0001072
1990	6.7e-06
2002	0
2014	4.69e-05
2026	4.02e-05
2038	8.71e-05
2050	9.38e-05
2062	0.0001139
2074	0.0001072
2086	0.0001206
2098	0.0001608
2110	0.0001608
2122	0.0001742
2134	0.000201
2146	0.0002077
2158	0.0002211
2170	0.0002345
2182	0.0002613
2194	0.0002546
2206	0.0002747
2218	0.0002814
2230	0.0002613
2242	0.0002747
2254	0.0003082
2266	0.000335
2278	0.0003484
2290	0.000335
2302	0.0003618
2314	0.0005628
2326	0.0004623
2338	0.0004556
2350	0.0004288
2362	0.0004087
2374	0.0003551
2386	0.0002881
2398	0.0002747
2410	0.0003015
2422	0.0003283
2434	0.0002948
2446	0.0003618
2458	0.0003283
2470	0.000335
2482	0.0003149
2494	0.0003216
2506	0.0003551
2518	0.0003618
2530	0.0004288
2542	0.0004757
2554	0.0005159
2566	0.0006298
2578	0.0007772
2590	0.0008509
2602	0.0009112
2614	0.0009983
2626	0.0010921
2638	0.0012462
2650	0.001407
2662	0.0015745
2674	0.0018023
2686	0.0019363
2698	0.0020368
2710	0.0021507
2722	0.0024053
2734	0.0028006
2746	0.0031423
2758	0.0033701
2770	0.0034304
2782	0.003819
2794	0.0047101
2806	0.0065392
2818	0.0091656
2830	0.012194
2842	0.0190548
2854	0.0290981
2866	0.0324414
2878	0.0288301
2890	0.030351
2902	0.0364681
2914	0.0453791
2926	0.0616869
2938	0.0641324
2950	0.0369639
2962	0.0170582
2974	0.0092527
2986	0.006566
2998	0.0063583
3010	0.007303
3022	0.0077921
3034	0.0063114
3046	0.0070752
3058	0.0180163
3070	0.021105
3082	0.0135541
3094	0.0060367
3106	0.0025326
3118	0.0015209
3130	0.0014606
3142	0.0014673
3154	0.0009581
3166	0.0007638
3178	0.0006633
3190	0.0005695
3202	0.0005427
3214	0.0004958
3226	0.0004891
3238	0.0004221
3250	0.0004623
3262	0.0004489
3274	0.0004489
3286	0.000469
3298	0.0004221
3310	0.0004757
3322	0.0006499
3334	0.0010452
3346	0.0015075
3358	0.0009648
3370	0.0006633
3382	0.0006097
3394	0.0006968
3406	0.0007571
3418	0.0007638
3430	0.0006566
3442	0.0004422
3454	0.0003819
3466	0.0003484
3478	0.0003216
3490	0.0002814
3502	0.000268
3514	0.0003015
3526	0.0003283
3538	0.0002881
3550	0.0003752
3562	0.0003685
3574	0.0003216
3586	0.0003417
3598	0.0004087
3610	0.0003685
3622	0.0004422
3634	0.0004154
3646	0.0004288
3658	0.0003953
3670	0.0004087
3682	0.0004422
3694	0.0005226
3706	0.0004154
3718	0.0003283
3730	0.0004288
3742	0.000402
3754	0.0004422
3766	0.0003417
3778	0.0003283
3790	0.0003216
3802	0.0002881
3814	0.0003417
3826	0.0002278
3838	0.0002881
