Infrared Spectrum: 5-Methyl-5-hexen-3-ol
Formula: C 7 H 14 O
CAS: 67760-89-8
State: gas
Instrument: HP-GC/MS/IRD
Origin: NIST Mass Spectrometry Data Center
1/CM	ABSORBANCE
550	0.0009424
562	0.0007809
574	0.0006042
586	0.0004256
598	0.0002071
610	0.0001957
622	0.0002641
634	0.0002356
646	0.0001178
658	6.46e-05
670	0.0001539
682	0.0001748
694	0.0001843
706	0.0001102
718	0.0001444
730	0.0001064
742	0.0001064
754	0.0002394
766	0.000361
778	0.0004845
790	0.0004845
802	0.0003857
814	0.0005491
826	0.0008873
838	0.0013186
850	0.0020425
862	0.0026011
874	0.0036556
886	0.0069084
898	0.0080712
910	0.0047861
922	0.0022667
934	0.0018088
946	0.0022306
958	0.0037544
970	0.0052934
982	0.0054986
994	0.0050293
1006	0.0047139
1018	0.004408
1030	0.0039235
1042	0.0036043
1054	0.0038589
1066	0.0039292
1078	0.0035207
1090	0.0037601
1102	0.0045429
1114	0.0044213
1126	0.0032832
1138	0.0021318
1150	0.001539
1162	0.0014953
1174	0.0018088
1186	0.002185
1198	0.0024738
1210	0.0027778
1222	0.0030913
1234	0.0033098
1246	0.0034067
1258	0.0034732
1270	0.0033136
1282	0.0030647
1294	0.0028234
1306	0.0024833
1318	0.0023313
1330	0.0023142
1342	0.0025859
1354	0.0033326
1366	0.0044555
1378	0.0055879
1390	0.0052991
1402	0.003648
1414	0.0028367
1426	0.0031027
1438	0.004028
1450	0.0046702
1462	0.0045429
1474	0.0032756
1486	0.0017765
1498	0.0010678
1510	0.0008151
1522	0.0006992
1534	0.0005833
1546	0.0005776
1558	0.0007714
1570	0.0005662
1582	0.0005529
1594	0.0005928
1606	0.0007638
1618	0.001273
1630	0.0021413
1642	0.0032072
1654	0.0029925
1666	0.0014497
1678	0.0006327
1690	0.0003515
1702	0.000361
1714	0.0002603
1726	0.000247
1738	0.0002907
1750	0.0003268
1762	0.0003477
1774	0.0004294
1786	0.0005282
1798	0.0006004
1810	0.0004142
1822	0.0002204
1834	0.0001026
1846	0.0001292
1858	5.51e-05
1870	0.0001083
1882	7.03e-05
1894	6.46e-05
1906	5.13e-05
1918	7.98e-05
1930	5.13e-05
1942	4.37e-05
1954	4.37e-05
1966	2.28e-05
1978	3.42e-05
1990	3.61e-05
2002	3.8e-05
2014	3.8e-06
2026	9.5e-06
2038	4.75e-05
2050	3.04e-05
2062	5.32e-05
2074	3.8e-05
2086	4.94e-05
2098	3.61e-05
2110	5.32e-05
2122	2.28e-05
2134	5.13e-05
2146	3.99e-05
2158	4.94e-05
2170	3.61e-05
2182	3.99e-05
2194	6.46e-05
2206	6.08e-05
2218	6.08e-05
2230	5.89e-05
2242	6.65e-05
2254	6.46e-05
2266	4.94e-05
2278	7.98e-05
2290	7.22e-05
2302	7.22e-05
2314	0.0001216
2326	0.0002014
2338	0.0002204
2350	0.0001957
2362	0.0003078
2374	0.0002052
2386	8.55e-05
2398	0.0001026
2410	9.88e-05
2422	8.36e-05
2434	9.31e-05
2446	9.88e-05
2458	6.65e-05
2470	4.94e-05
2482	4.37e-05
2494	5.89e-05
2506	8.36e-05
2518	5.89e-05
2530	8.17e-05
2542	7.6e-05
2554	0.0001026
2566	0.0001121
2578	0.0001026
2590	0.0001254
2602	0.0001539
2614	0.0002014
2626	0.000228
2638	0.000247
2650	0.000266
2662	0.000304
2674	0.0003591
2686	0.00038
2698	0.0004104
2710	0.0004864
2722	0.0005225
2734	0.0006118
2746	0.000665
2758	0.0006802
2770	0.0007657
2782	0.0008303
2794	0.0009709
2806	0.0011875
2818	0.0015789
2830	0.0021793
2842	0.0032832
2854	0.0049666
2866	0.0071003
2878	0.0094981
2890	0.0109022
2902	0.0113126
2914	0.0131917
2926	0.0167808
2938	0.019
2950	0.0167732
2962	0.0155382
2974	0.0173356
2986	0.0128117
2998	0.0063099
3010	0.0033478
3022	0.002109
3034	0.0016701
3046	0.0016093
3058	0.0021261
3070	0.0038418
3082	0.0050749
3094	0.0031217
3106	0.0012046
3118	0.0006897
3130	0.0005092
3142	0.0003876
3154	0.0003306
3166	0.0002736
3178	0.000228
3190	0.000209
3202	0.0001577
3214	0.0001235
3226	7.41e-05
3238	5.13e-05
3250	7.22e-05
3262	7.98e-05
3274	0.0001083
3286	6.46e-05
3298	7.79e-05
3310	0.0001501
3322	7.98e-05
3334	0.0001026
3346	0.0001045
3358	0.0001482
3370	0.0001501
3382	0.0001558
3394	0.0001881
3406	0.0001596
3418	0.0002052
3430	0.0001976
3442	0.0001862
3454	0.0002052
3466	0.0002033
3478	0.0002242
3490	0.0001957
3502	0.0001881
3514	0.0002394
3526	0.0002736
3538	0.0002907
3550	0.0002964
3562	0.0003268
3574	0.0003344
3586	0.0006175
3598	0.0012179
3610	0.0018259
3622	0.0018221
3634	0.0017708
3646	0.0019456
3658	0.0017062
3670	0.0010507
3682	0.0005054
3694	0.000361
3706	0.000285
3718	0.0002299
3730	0.0003344
3742	0.0003838
3754	0.0003458
3766	0.0002413
3778	0.0002527
3790	0.0002185
3802	0.0003572
3814	0.0002641
3826	0.0002622
3838	0.0003344
