Infrared Spectrum: 2,5-Dimethyl-5-hexen-3-ol
Formula: C 8 H 16 O
CAS: 67760-91-2
State: gas
Instrument: HP-GC/MS/IRD
Origin: NIST Mass Spectrometry Data Center
1/CM	ABSORBANCE
550	0.0014421
562	0.0012342
574	0.0006798
586	0.0004059
598	0.0003168
610	0.0003993
622	0.000264
634	0.0001914
646	0.0001023
658	0.0001056
670	5.28e-05
682	4.95e-05
694	4.62e-05
706	3.63e-05
718	0.0001419
730	7.92e-05
742	0.0001353
754	0.0001452
766	0.0002112
778	0.0002145
790	0.000363
802	0.0006369
814	0.0007062
826	0.0008844
838	0.0013662
850	0.0023001
862	0.0035145
874	0.0049863
886	0.008316
898	0.0092961
910	0.0050787
922	0.0024387
934	0.0018579
946	0.002079
958	0.0027489
970	0.0035442
982	0.0050391
994	0.0067947
1006	0.0069465
1018	0.0065835
1030	0.0066924
1042	0.007656
1054	0.0080982
1066	0.0058938
1078	0.0032406
1090	0.0024255
1102	0.0025905
1114	0.0029667
1126	0.003267
1138	0.0029205
1150	0.0026433
1162	0.0029634
1174	0.0031878
1186	0.0031119
1198	0.0031812
1210	0.0033198
1222	0.0035574
1234	0.0038907
1246	0.0042966
1258	0.004521
1270	0.0042834
1282	0.0038709
1294	0.0035772
1306	0.0032373
1318	0.0029964
1330	0.0027918
1342	0.0029403
1354	0.0039534
1366	0.0061446
1378	0.0082896
1390	0.0081378
1402	0.0055605
1414	0.00363
1426	0.0037092
1438	0.0046662
1450	0.0057024
1462	0.0062799
1474	0.0054054
1486	0.0030888
1498	0.0015378
1510	0.0009537
1522	0.0007722
1534	0.0006402
1546	0.0005775
1558	0.0006204
1570	0.0006204
1582	0.0006633
1594	0.0007458
1606	0.000957
1618	0.0014553
1630	0.00264
1642	0.0041415
1654	0.0035904
1666	0.0015774
1678	0.0006864
1690	0.0003828
1702	0.0003036
1714	0.0002343
1726	0.0002541
1738	0.0003168
1750	0.0003135
1762	0.00033
1774	0.0003993
1786	0.0005841
1798	0.0006699
1810	0.0004785
1822	0.0002178
1834	9.9e-05
1846	6.93e-05
1858	4.95e-05
1870	6.6e-05
1882	6.6e-05
1894	6.93e-05
1906	5.94e-05
1918	5.28e-05
1930	3.3e-05
1942	3.96e-05
1954	2.31e-05
1966	4.62e-05
1978	4.62e-05
1990	3.63e-05
2002	3.63e-05
2014	3.96e-05
2026	2.31e-05
2038	6.6e-06
2050	4.95e-05
2062	4.62e-05
2074	3.96e-05
2086	3.3e-05
2098	5.61e-05
2110	2.97e-05
2122	4.29e-05
2134	9.9e-06
2146	2.97e-05
2158	2.31e-05
2170	3.3e-05
2182	3.63e-05
2194	2.31e-05
2206	2.64e-05
2218	2.31e-05
2230	3.96e-05
2242	3.96e-05
2254	3.63e-05
2266	3.3e-05
2278	2.64e-05
2290	5.61e-05
2302	4.95e-05
2314	5.61e-05
2326	8.25e-05
2338	0.0001485
2350	0.0001056
2362	0.0001716
2374	0.0001089
2386	6.6e-05
2398	7.92e-05
2410	0.0001023
2422	8.25e-05
2434	0.0001056
2446	9.57e-05
2458	8.91e-05
2470	9.57e-05
2482	9.9e-05
2494	9.9e-05
2506	0.0001023
2518	0.0001056
2530	8.91e-05
2542	0.0001056
2554	0.0001386
2566	0.0001881
2578	0.0002376
2590	0.0002541
2602	0.0003135
2614	0.000363
2626	0.0003927
2638	0.0004191
2650	0.0003993
2662	0.0004158
2674	0.0004983
2686	0.0005643
2698	0.0006303
2710	0.0006666
2722	0.0008316
2734	0.0009636
2746	0.0009702
2758	0.0009273
2770	0.0009834
2782	0.0011022
2794	0.0013167
2806	0.0015642
2818	0.0020493
2830	0.0027324
2842	0.0040227
2854	0.006105
2866	0.0096624
2878	0.0145101
2890	0.0168399
2902	0.0171402
2914	0.0180246
2926	0.0192885
2938	0.0213708
2950	0.0234234
2962	0.0304161
2974	0.0313665
2986	0.0181401
2998	0.0083556
3010	0.0042471
3022	0.00264
3034	0.0020658
3046	0.00198
3058	0.0025509
3070	0.0047817
3082	0.0064482
3094	0.0034716
3106	0.0014355
3118	0.0009273
3130	0.0007227
3142	0.0005676
3154	0.000495
3166	0.0004554
3178	0.000396
3190	0.0003465
3202	0.000264
3214	0.0001683
3226	8.58e-05
3238	8.25e-05
3250	6.93e-05
3262	3.3e-05
3274	5.61e-05
3286	6.27e-05
3298	6.27e-05
3310	2.31e-05
3322	4.95e-05
3334	5.61e-05
3346	2.97e-05
3358	7.26e-05
3370	5.94e-05
3382	6.27e-05
3394	5.94e-05
3406	6.93e-05
3418	6.27e-05
3430	6.93e-05
3442	8.91e-05
3454	0.0001254
3466	9.9e-05
3478	8.91e-05
3490	9.24e-05
3502	0.0001122
3514	0.0001485
3526	0.0001485
3538	0.0001848
3550	0.0001947
3562	0.0002046
3574	0.0003366
3586	0.0006864
3598	0.0016929
3610	0.0025542
3622	0.0023463
3634	0.0020592
3646	0.0020097
3658	0.0017589
3670	0.0010923
3682	0.0004653
3694	0.0002838
3706	0.0002079
3718	0.0001518
3730	0.0001485
3742	0.0001848
3754	0.0001584
3766	0.0001122
3778	0.0001155
3790	0.0001122
3802	0.0001485
3814	0.0001551
3826	0.0001452
3838	0.000198
