Infrared Spectrum: Hexafluoroglutaryl chloride
Formula: C 5 Cl 2 F 6 O 2
CAS: 678-77-3
State: gas
Origin: EPA-IR VAPOR PHASE LIBRARY
1/CM	ABSORBANCE
501.5	0.018694
513.074	0.020904
524.648	0.020164
536.222	0.019954
547.796	0.020154
559.37	0.017374
570.944	0.014104
582.518	0.013174
594.092	0.013684
605.666	0.014274
617.24	0.015734
628.814	0.018074
640.388	0.019184
651.962	0.024144
663.536	0.028744
675.11	0.023414
686.684	0.022894
698.258	0.024234
709.832	0.028694
721.406	0.032154
732.98	0.043154
744.554	0.051504
756.128	0.053644
767.702	0.066754
779.276	0.099684
790.85	0.135104
802.423	0.111934
813.997	0.080794
825.571	0.060324
837.145	0.058064
848.719	0.064444
860.293	0.067534
871.867	0.069544
883.441	0.051974
895.015	0.029234
906.589	0.018504
918.163	0.013924
929.737	0.013324
941.311	0.016504
952.885	0.024334
964.459	0.039164
976.033	0.053694
987.607	0.051684
999.181	0.036294
1010.76	0.021094
1022.33	0.014004
1033.9	0.011184
1045.48	0.011124
1057.05	0.013904
1068.63	0.020024
1080.2	0.031234
1091.77	0.037414
1103.35	0.039224
1114.92	0.032874
1126.49	0.031284
1138.07	0.043064
1149.64	0.068024
1161.22	0.101334
1172.79	0.151914
1184.36	0.227494
1195.94	0.258134
1207.51	0.195774
1219.09	0.114314
1230.66	0.055354
1242.23	0.040154
1253.81	0.037794
1265.38	0.030334
1276.96	0.025564
1288.53	0.022054
1300.1	0.014484
1311.68	0.007144
1323.25	0.004794
1334.83	0.003894
1346.4	0.003364
1357.97	0.002974
1369.55	0.002794
1381.12	0.002734
1392.7	0.002724
1404.27	0.002584
1415.84	0.002434
1427.42	0.002214
1438.99	0.001984
1450.57	0.001774
1462.14	0.001634
1473.71	0.0015143
1485.29	0.0015137
1496.86	0.0015001
1508.44	0.0013812
1520.01	0.0012807
1531.58	0.0011306
1543.16	0.0010498
1554.73	0.0010504
1566.31	0.0010435
1577.88	0.0010612
1589.45	0.0011425
1601.03	0.0012773
1612.6	0.0013291
1624.18	0.0015558
1635.75	0.001674
1647.32	0.001884
1658.9	0.002104
1670.47	0.002434
1682.05	0.002854
1693.62	0.003434
1705.19	0.004294
1716.77	0.005474
1728.34	0.007564
1739.92	0.010934
1751.49	0.016524
1763.06	0.026874
1774.64	0.046504
1786.21	0.091604
1797.79	0.183074
1809.36	0.244534
1820.93	0.162274
1832.51	0.076744
1844.08	0.040744
1855.66	0.023834
1867.23	0.014254
1878.8	0.008884
1890.38	0.005974
1901.95	0.004404
1913.53	0.003514
1925.1	0.003144
1936.67	0.002914
1948.25	0.002654
1959.82	0.002274
1971.4	0.001904
1982.97	0.001624
1994.54	0.0014748
2006.12	0.0014121
2017.69	0.0013648
2029.27	0.0012675
2040.84	0.0011624
2052.41	0.0010841
2063.99	0.0009657
2075.56	0.0008939
2087.14	0.0008523
2098.71	0.0007463
2110.28	0.0006861
2121.86	0.0006906
2133.43	0.0007069
2145.01	0.0007189
2156.58	0.0007306
2168.15	0.0007325
2179.73	0.0006934
2191.3	0.0006795
2202.88	0.0007076
2214.45	0.0006605
2226.02	0.00061931
2237.6	0.00061724
2249.17	0.00066272
2260.74	0.0007158
2272.32	0.0007644
2283.89	0.0008862
2295.47	0.0009773
2307.04	0.0011181
2318.61	0.0012641
2330.19	0.0013956
2341.76	0.001594
2353.34	0.001704
2364.91	0.001694
2376.48	0.001584
2388.06	0.0014085
2399.63	0.0013443
2411.21	0.0012391
2422.78	0.0011802
2434.35	0.0011745
2445.93	0.0012
2457.5	0.0011804
2469.08	0.0011614
2480.65	0.0010338
2492.22	0.0008509
2503.8	0.0007056
2515.37	0.0005125
2526.95	0.000404
2538.52	0.000377
2550.09	0.000356
2561.67	0.00029
2573.24	0.000294
2584.82	0.000313
2596.39	0.000309
2607.96	0.00031
2619.54	0.000322
2631.11	0.000312
2642.69	0.000308
2654.26	0.000328
2665.83	0.000309
2677.41	0.000407
2688.98	0.000285
2700.56	0.000241
2712.13	0.0002
2723.7	0.000304
2735.28	0.000305
2746.85	0.000321
2758.43	0.000263
2770	0.000379
2781.57	0.000429
2793.15	0.0004866
2804.72	0.000436
2816.3	0.000375
2827.87	0.000297
2839.44	0.000283
2851.02	0.000143
2862.59	0.000242
2874.17	0.000283
2885.74	0.000292
2897.31	0.000377
2908.89	0.000325
2920.46	0.000285
2932.04	0.000325
2943.61	0.000412
2955.18	0.000263
2966.76	0.000347
2978.33	0.000424
2989.91	0.000331
3001.48	0.000331
3013.05	0.000358
3024.63	0.000272
3036.2	0.00019
3047.78	0.000235
3059.35	0.000182
3070.92	0.000134
3082.5	0.00017
3094.07	0.000249
3105.65	0.000206
3117.22	0.000187
3128.79	0.000169
3140.37	0.000224
3151.94	0.000225
3163.52	0.000239
3175.09	0.000209
3186.66	0.000165
3198.24	0.000211
3209.81	0.000153
3221.39	0.00022
3232.96	0.00016
3244.53	0.000154
3256.11	0.000209
3267.68	0.000144
3279.26	0.000152
3290.83	0.000138
3302.4	0.000181
3313.98	0.000133
3325.55	0.000173
3337.13	0.000164
3348.7	0.00016
3360.27	0.000189
3371.85	0.000162
3383.42	0.000197
3395	0.000256
3406.57	0.000199
3418.14	0.000189
3429.72	0.000221
3441.29	0.000192
3452.86	0.000249
3464.44	0.000377
3476.01	0.00032
3487.59	0.000418
3499.16	0.000417
3510.73	0.0005396
3522.31	0.00063923
3533.88	0.0009687
3545.46	0.0012765
3557.03	0.001804
3568.6	0.002754
3580.18	0.004074
3591.75	0.004694
3603.33	0.004074
3614.9	0.003004
3626.47	0.001994
3638.05	0.001335
3649.62	0.0008956
3661.2	0.0007872
3672.77	0.00061357
3684.34	0.000467
3695.92	0.0005456
3707.49	0.000293
3719.07	0.000296
3730.64	0.00029
3742.21	0.000194
3753.79	0.000139
3765.36	0.000311
3776.94	0.000279
3788.51	0.000195
3800.08	0.00031
3811.66	0.000197
3823.23	0.00025
3834.81	0.000153
3846.38	0.000162
3857.95	9.8e-05
3869.53	0.000116
3881.1	0.000127
3892.68	8.9e-05
3904.25	0.000188
3915.82	7e-05
3927.4	6.6e-05
3938.97	0.00012
3950.55	0.000182
3962.12	0.00017
3973.69	2.3e-05
3985.27	0.000137
3996.84	0.000202
