Infrared Spectrum: Ethyl N-phenylformimidate
Formula: C 9 H 11 N O
CAS: 6780-49-0
State: gas
Origin: EPA-IR VAPOR PHASE LIBRARY
1/CM	ABSORBANCE
549.8	0.007461
559.445	0.004001
569.09	0.002391
578.734	0.001491
588.379	0.0007449
598.024	0.0009214
607.669	0.0010783
617.313	0.001271
626.958	0.001701
636.603	0.002151
646.248	0.003341
655.893	0.006411
665.537	0.013161
675.182	0.034051
684.827	0.058471
694.472	0.064871
704.116	0.043771
713.761	0.018941
723.406	0.010541
733.051	0.013451
742.695	0.028571
752.34	0.053271
761.985	0.058841
771.63	0.033091
781.275	0.012941
790.919	0.006331
800.564	0.004651
810.209	0.005031
819.854	0.006791
829.498	0.009371
839.143	0.011591
848.788	0.009891
858.433	0.007611
868.078	0.007401
877.722	0.009851
887.367	0.013831
897.012	0.017081
906.657	0.013321
916.301	0.008091
925.946	0.005371
935.591	0.004531
945.236	0.004581
954.88	0.005921
964.525	0.008331
974.17	0.009991
983.815	0.011611
993.46	0.017321
1003.1	0.026681
1012.75	0.032031
1022.39	0.031671
1032.04	0.023271
1041.68	0.015111
1051.33	0.014401
1060.97	0.015991
1070.62	0.017941
1080.26	0.019351
1089.91	0.023661
1099.55	0.026911
1109.2	0.025771
1118.84	0.022981
1128.49	0.023261
1138.13	0.025811
1147.78	0.035921
1157.42	0.061601
1167.07	0.142121
1176.71	0.286411
1186.36	0.579931
1196	0.487071
1205.64	0.140321
1215.29	0.070931
1224.93	0.074941
1234.58	0.075871
1244.22	0.094071
1253.87	0.127241
1263.51	0.096361
1273.16	0.053631
1282.8	0.038191
1292.45	0.034571
1302.09	0.042761
1311.74	0.035011
1321.38	0.018201
1331.03	0.012251
1340.67	0.011581
1350.32	0.013781
1359.96	0.016151
1369.61	0.015471
1379.25	0.015551
1388.9	0.019161
1398.54	0.017691
1408.18	0.010531
1417.83	0.008501
1427.47	0.009661
1437.12	0.012661
1446.76	0.015511
1456.41	0.016081
1466.05	0.017521
1475.7	0.030961
1485.34	0.059041
1494.99	0.046461
1504.63	0.016451
1514.28	0.010771
1523.92	0.007661
1533.57	0.006981
1543.21	0.008021
1552.86	0.010101
1562.5	0.014731
1572.15	0.025771
1581.79	0.052831
1591.44	0.112441
1601.08	0.123921
1610.73	0.055651
1620.37	0.044661
1630.01	0.075631
1639.66	0.213271
1649.3	0.635641
1658.95	0.676071
1668.59	0.191441
1678.24	0.100531
1687.88	0.061161
1697.53	0.034731
1707.17	0.025401
1716.82	0.021471
1726.46	0.019201
1736.11	0.014921
1745.75	0.011681
1755.4	0.010331
1765.04	0.011511
1774.69	0.012801
1784.33	0.010011
1793.98	0.006481
1803.62	0.004611
1813.27	0.003341
1822.91	0.003191
1832.55	0.003781
1842.2	0.004711
1851.84	0.005621
1861.49	0.006391
1871.13	0.006301
1880.78	0.004711
1890.42	0.003531
1900.07	0.003311
1909.71	0.003921
1919.36	0.005051
1929	0.006331
1938.65	0.006601
1948.29	0.004971
1957.94	0.002741
1967.58	0.002221
1977.23	0.002221
1986.87	0.002471
1996.52	0.002821
2006.16	0.003651
2015.81	0.004691
2025.45	0.005141
2035.1	0.004031
2044.74	0.002651
2054.38	0.002241
2064.03	0.001951
2073.67	0.001841
2083.32	0.001791
2092.96	0.001991
2102.61	0.002241
2112.25	0.002671
2121.9	0.003221
2131.54	0.003911
2141.19	0.003871
2150.83	0.003141
2160.48	0.002471
2170.12	0.002131
2179.77	0.002051
2189.41	0.002201
2199.06	0.002041
2208.7	0.001351
2218.35	0.0010919
2227.99	0.001034
2237.64	0.0010522
2247.28	0.001321
2256.92	0.001331
2266.57	0.001441
2276.21	0.001501
2285.86	0.001511
2295.5	0.001591
2305.15	0.001671
2314.79	0.002111
2324.44	0.002391
2334.08	0.003201
2343.73	0.003531
2353.37	0.003781
2363.02	0.004561
2372.66	0.005271
2382.31	0.004821
2391.95	0.003281
2401.6	0.002211
2411.24	0.001841
2420.89	0.001911
2430.53	0.001821
2440.18	0.001791
2449.82	0.001671
2459.47	0.001881
2469.11	0.002301
2478.75	0.002701
2488.4	0.002781
2498.04	0.002491
2507.69	0.002001
2517.33	0.001821
2526.98	0.001681
2536.62	0.001561
2546.27	0.001731
2555.91	0.001561
2565.56	0.001241
2575.2	0.0009494
2584.85	0.0010351
2594.49	0.0011041
2604.14	0.001261
2613.78	0.001371
2623.43	0.0011819
2633.07	0.0009747
2642.72	0.000695
2652.36	0.0008356
2662.01	0.0008704
2671.65	0.0007722
2681.29	0.0006475
2690.94	0.0007996
2700.58	0.0008243
2710.23	0.0009057
2719.87	0.001174
2729.52	0.001361
2739.16	0.001441
2748.81	0.001641
2758.45	0.001941
2768.1	0.002301
2777.74	0.002431
2787.39	0.002581
2797.03	0.002881
2806.68	0.003581
2816.32	0.005151
2825.97	0.007451
2835.61	0.010211
2845.26	0.011041
2854.9	0.008851
2864.55	0.008641
2874.19	0.011221
2883.84	0.015471
2893.48	0.017711
2903.12	0.020001
2912.77	0.021611
2922.41	0.025091
2932.06	0.036771
2941.7	0.054181
2951.35	0.052691
2960.99	0.044631
2970.64	0.045471
2980.28	0.049381
2989.93	0.050561
2999.57	0.046801
3009.22	0.039341
3018.86	0.034071
3028.51	0.037311
3038.15	0.038231
3047.8	0.027541
3057.44	0.026611
3067.09	0.043791
3076.73	0.045621
3086.38	0.030661
3096.02	0.023121
3105.67	0.013071
3115.31	0.005811
3124.95	0.003261
3134.6	0.002361
3144.24	0.002061
3153.89	0.001891
3163.53	0.002031
3173.18	0.001601
3182.82	0.001371
3192.47	0.001451
3202.11	0.001541
3211.76	0.001179
3221.4	0.0010429
3231.05	0.0010437
3240.69	0.001191
3250.34	0.0009756
3259.98	0.0011499
3269.63	0.001691
3279.27	0.002271
3288.92	0.003331
3298.56	0.003521
3308.21	0.001911
3317.85	0.001221
3327.49	0.001251
3337.14	0.0008343
3346.78	0.0010217
3356.43	0.0007077
3366.07	0.0005805
3375.72	0.0005784
3385.36	0.0006297
3395.01	0.0004804
3404.65	0.0004696
3414.3	0.0003671
3423.94	0.0002648
3433.59	0.0005138
3443.23	0.0004163
3452.88	0.0005221
3462.52	0.000193833
3472.17	0.0002985
3481.81	0.0003791
3491.46	0.0001236
3501.1	0.0003838
3510.75	8.9e-05
3520.39	0.0001346
3530.04	0.0001765
3539.68	6.1e-05
3549.32	0.00023978
3558.97	0.0003323
3568.61	0.00022413
3578.26	0.00021554
3587.9	0.0003191
3597.55	0.00028789
3607.19	0.00025134
3616.84	0.0004184
3626.48	0.00021742
3636.13	0.0004255
3645.77	0.0003285
3655.42	0.0004223
3665.06	0.000339
3674.71	0.0004049
3684.35	0.0004207
3694	0.0006878
3703.64	0.0006107
3713.29	0.0006471
3722.93	0.0005416
3732.58	0.0005985
3742.22	0.000511
3751.86	0.0007142
3761.51	0.0008274
3771.15	0.0006579
3780.8	0.0004752
3790.44	0.0005197
3800.09	0.0004666
3809.73	0.0003495
3819.38	0.0005718
3829.02	0.0005547
3838.67	0.0004417
3848.31	0.0004096
3857.96	0.000326
3867.6	0.0003567
3877.25	0.0004397
3886.89	0.00019215
3896.54	0.000543
3906.18	0.0004072
3915.83	0.00026718
3925.47	0.0005474
3935.12	0.0004485
3944.76	0.00024223
3954.41	0.000533
3964.05	0.0006835
3973.69	0.0005943
3983.34	0.0006039
3992.98	0.0006302
