Infrared Spectrum: 2,3,6-Trifluoroaniline
Formula: C 6 H 4 F 3 N
CAS: 67815-56-9
State: gas
Origin: EPA-IR VAPOR PHASE LIBRARY
1/CM	ABSORBANCE
549.8	0.018598
559.445	0.017548
569.09	0.021468
578.734	0.028698
588.379	0.045828
598.024	0.042668
607.669	0.032938
617.313	0.029688
626.958	0.029038
636.603	0.029198
646.248	0.026958
655.893	0.026918
665.537	0.030758
675.182	0.046768
684.827	0.055378
694.472	0.055558
704.116	0.041348
713.761	0.036428
723.406	0.033828
733.051	0.048998
742.695	0.090638
752.34	0.100078
761.985	0.072948
771.63	0.084008
781.275	0.115908
790.919	0.106858
800.564	0.065998
810.209	0.028898
819.854	0.020058
829.498	0.018078
839.143	0.016808
848.788	0.016308
858.433	0.016198
868.078	0.014708
877.722	0.015188
887.367	0.016008
897.012	0.020458
906.657	0.038568
916.301	0.083638
925.946	0.135838
935.591	0.120208
945.236	0.052538
954.88	0.027218
964.525	0.029738
974.17	0.030208
983.815	0.022108
993.46	0.016148
1003.1	0.016608
1012.75	0.020788
1022.39	0.037508
1032.04	0.087528
1041.68	0.105938
1051.33	0.087518
1060.97	0.037448
1070.62	0.019688
1080.26	0.011288
1089.91	0.011058
1099.55	0.012258
1109.2	0.011018
1118.84	0.013178
1128.49	0.025878
1138.13	0.057718
1147.78	0.074818
1157.42	0.114928
1167.07	0.214628
1176.71	0.221848
1186.36	0.103068
1196	0.037578
1205.64	0.021988
1215.29	0.018868
1224.93	0.052328
1234.58	0.126728
1244.22	0.140378
1253.87	0.079288
1263.51	0.057788
1273.16	0.020388
1282.8	0.011198
1292.45	0.011688
1302.09	0.024718
1311.74	0.061088
1321.38	0.078708
1331.03	0.060228
1340.67	0.017008
1350.32	0.007018
1359.96	0.006658
1369.61	0.007878
1379.25	0.007518
1388.9	0.005908
1398.54	0.004588
1408.18	0.005288
1417.83	0.006108
1427.47	0.006978
1437.12	0.008318
1446.76	0.010178
1456.41	0.014978
1466.05	0.028118
1475.7	0.069708
1485.34	0.173928
1494.99	0.384148
1504.63	0.611868
1514.28	0.630998
1523.92	0.391128
1533.57	0.127568
1543.21	0.044048
1552.86	0.026828
1562.5	0.025648
1572.15	0.026808
1581.79	0.030648
1591.44	0.039548
1601.08	0.050018
1610.73	0.047238
1620.37	0.046558
1630.01	0.073008
1639.66	0.125918
1649.3	0.143038
1658.95	0.098858
1668.59	0.043128
1678.24	0.019488
1687.88	0.011228
1697.53	0.008008
1707.17	0.006468
1716.82	0.006008
1726.46	0.005878
1736.11	0.005508
1745.75	0.005388
1755.4	0.005578
1765.04	0.005128
1774.69	0.005558
1784.33	0.006818
1793.98	0.010138
1803.62	0.011618
1813.27	0.009778
1822.91	0.005938
1832.55	0.004568
1842.2	0.004748
1851.84	0.004768
1861.49	0.004268
1871.13	0.003448
1880.78	0.003518
1890.42	0.003568
1900.07	0.003608
1909.71	0.003948
1919.36	0.004638
1929	0.004108
1938.65	0.003598
1948.29	0.003498
1957.94	0.003648
1967.58	0.003058
1977.23	0.003078
1986.87	0.003088
1996.52	0.002698
2006.16	0.002848
2015.81	0.002568
2025.45	0.002218
2035.1	0.002338
2044.74	0.002618
2054.38	0.003048
2064.03	0.003578
2073.67	0.004008
2083.32	0.003498
2092.96	0.003358
2102.61	0.003188
2112.25	0.002478
2121.9	0.002058
2131.54	0.001708
2141.19	0.0016121
2150.83	0.001958
2160.48	0.002538
2170.12	0.003418
2179.77	0.004368
2189.41	0.005388
2199.06	0.004768
2208.7	0.003908
2218.35	0.003068
2227.99	0.002488
2237.64	0.002548
2247.28	0.002808
2256.92	0.002448
2266.57	0.001988
2276.21	0.002368
2285.86	0.002758
2295.5	0.003138
2305.15	0.003458
2314.79	0.002788
2324.44	0.002778
2334.08	0.002668
2343.73	0.002988
2353.37	0.002748
2363.02	0.002488
2372.66	0.002758
2382.31	0.002558
2391.95	0.002228
2401.6	0.002588
2411.24	0.003078
2420.89	0.003148
2430.53	0.003378
2440.18	0.002678
2449.82	0.002498
2459.47	0.002078
2469.11	0.002648
2478.75	0.002638
2488.4	0.002528
2498.04	0.002608
2507.69	0.002428
2517.33	0.002058
2526.98	0.002678
2536.62	0.003118
2546.27	0.004018
2555.91	0.004568
2565.56	0.003978
2575.2	0.003088
2584.85	0.002028
2594.49	0.0016395
2604.14	0.001968
2613.78	0.002208
2623.43	0.003218
2633.07	0.003558
2642.72	0.003508
2652.36	0.002918
2662.01	0.002548
2671.65	0.001708
2681.29	0.001718
2690.94	0.0011173
2700.58	0.0011365
2710.23	0.0009385
2719.87	0.0012288
2729.52	0.0016479
2739.16	0.001978
2748.81	0.002318
2758.45	0.002238
2768.1	0.001688
2777.74	0.001798
2787.39	0.0010812
2797.03	0.0008716
2806.68	0.0014208
2816.32	0.0011753
2825.97	0.0010757
2835.61	0.0010764
2845.26	0.0008335
2854.9	0.0012461
2864.55	0.00069249
2874.19	0.0009694
2883.84	0.0012822
2893.48	0.0013324
2903.12	0.0012396
2912.77	0.001838
2922.41	0.0006373
2932.06	0.0008809
2941.7	0.0009122
2951.35	0.0008592
2960.99	0.000968
2970.64	0.0012163
2980.28	0.0011459
2989.93	0.000545
2999.57	0.00073073
3009.22	0.0015116
3018.86	0.0006553
3028.51	0.0005881
3038.15	0.00075505
3047.8	0.0009837
3057.44	0.0009428
3067.09	0.002558
3076.73	0.002968
3086.38	0.0015003
3096.02	0.0013135
3105.67	0.0007799
3115.31	0.0008381
3124.95	0.0013147
3134.6	0.0013626
3144.24	0.001898
3153.89	0.002158
3163.53	0.002088
3173.18	0.003098
3182.82	0.003458
3192.47	0.004188
3202.11	0.003118
3211.76	0.002518
3221.4	0.002498
3231.05	0.001988
3240.69	0.002218
3250.34	0.0015873
3259.98	0.00148
3269.63	0.0009909
3279.27	0.000176
3288.92	0.0009449
3298.56	0.0006511
3308.21	0.000213
3317.85	9.9e-05
3327.49	0.000464
3337.14	0.00079
3346.78	0.0008731
3356.43	0.0012061
3366.07	0.0016237
3375.72	0.002378
3385.36	0.004948
3395.01	0.010608
3404.65	0.024658
3414.3	0.048098
3423.94	0.060018
3433.59	0.052088
3443.23	0.030408
3452.88	0.012348
3462.52	0.005948
3472.17	0.006498
3481.81	0.009018
3491.46	0.016518
3501.1	0.030398
3510.75	0.046388
3520.39	0.048198
3530.04	0.039798
3539.68	0.024678
3549.32	0.009708
3558.97	0.003198
3568.61	0.002388
3578.26	0.0016346
3587.9	0.001124
3597.55	0.0006466
3607.19	0.0008092
3616.84	0.0008059
3626.48	0.00071779
3636.13	0.0009978
3645.77	0.00077258
3655.42	0.000556
3665.06	0.0011068
3674.71	0.000559
3684.35	0.0010609
3694	0.0006237
3703.64	0.0005933
3713.29	0.0012073
3722.93	0.000454
3732.58	0.0005984
3742.22	0.0005967
3751.86	0.0006091
3761.51	0.000204
3771.15	0.0009286
3780.8	0.0011431
3790.44	0.0008479
3800.09	0.001401
3809.73	0.001848
3819.38	0.002418
3829.02	0.002258
3838.67	0.002278
3848.31	0.002618
3857.96	0.002868
3867.6	0.002538
3877.25	0.0015981
3886.89	0.001153
3896.54	0.0009005
3906.18	0.0009872
3915.83	0.0009476
3925.47	0.00074108
3935.12	0.002108
3944.76	0.0015119
3954.41	0.002078
3964.05	0.001728
3973.69	0.001728
3983.34	0.001958
3992.98	0.0013682
