Infrared Spectrum: Ethyl-2,4,6-Trimethoxycinnamate
Formula: C 14 H 18 O 5
CAS: 67827-53-6
State: gas
Origin: EPA-IR VAPOR PHASE LIBRARY
1/CM	ABSORBANCE
501.5	0.00115
513.074	0.00261
524.648	0.00326
536.222	0.00358
547.796	0.00327
559.37	0.00185
570.944	0.00124
582.518	0.0007906
594.092	0.0005154
605.666	0.0005452
617.24	0.0008192
628.814	0.00134
640.388	0.00167
651.962	0.00175
663.536	0.0015
675.11	0.00114
686.684	0.0009497
698.258	0.00104
709.832	0.0009935
721.406	0.0007638
732.98	0.0006714
744.554	0.00103
756.128	0.00209
767.702	0.00235
779.276	0.00213
790.85	0.00266
802.423	0.00319
813.997	0.00538
825.571	0.00721
837.145	0.00476
848.719	0.00307
860.293	0.00336
871.867	0.00422
883.441	0.00299
895.015	0.00224
906.589	0.00231
918.163	0.00287
929.737	0.00358
941.311	0.00606
952.885	0.00746
964.459	0.00545
976.033	0.00617
987.607	0.00871
999.181	0.00732
1010.76	0.00685
1022.33	0.01045
1033.9	0.02119
1045.48	0.02787
1057.05	0.02224
1068.63	0.01523
1080.2	0.01531
1091.77	0.02451
1103.35	0.03861
1114.92	0.05059
1126.49	0.05301
1138.07	0.0551
1149.64	0.10303
1161.22	0.11751
1172.79	0.05809
1184.36	0.04242
1195.94	0.05305
1207.51	0.06435
1219.09	0.04778
1230.66	0.04008
1242.23	0.0481
1253.81	0.04928
1265.38	0.03472
1276.96	0.02864
1288.53	0.02807
1300.1	0.04031
1311.68	0.02865
1323.25	0.01792
1334.83	0.0223
1346.4	0.01432
1357.97	0.00936
1369.55	0.01173
1381.12	0.00844
1392.7	0.01109
1404.27	0.01908
1415.84	0.02865
1427.42	0.02149
1438.99	0.01944
1450.57	0.0194
1462.14	0.03292
1473.71	0.02923
1485.29	0.01935
1496.86	0.01042
1508.44	0.00645
1520.01	0.00567
1531.58	0.00605
1543.16	0.00804
1554.73	0.01438
1566.31	0.03128
1577.88	0.04779
1589.45	0.05217
1601.03	0.06685
1612.6	0.05191
1624.18	0.03928
1635.75	0.03158
1647.32	0.01358
1658.9	0.00785
1670.47	0.0064
1682.05	0.00659
1693.62	0.0077
1705.19	0.01112
1716.77	0.02658
1728.34	0.06544
1739.92	0.0389
1751.49	0.01357
1763.06	0.0066
1774.64	0.00436
1786.21	0.00321
1797.79	0.0024
1809.36	0.00191
1820.93	0.00157
1832.51	0.00144
1844.08	0.0014
1855.66	0.00145
1867.23	0.00129
1878.8	0.00122
1890.38	0.00118
1901.95	0.00118
1913.53	0.00119
1925.1	0.00113
1936.67	0.00119
1948.25	0.00135
1959.82	0.00139
1971.4	0.00128
1982.97	0.00115
1994.54	0.00106
2006.12	0.00103
2017.69	0.0009767
2029.27	0.000987
2040.84	0.00107
2052.41	0.00115
2063.99	0.00128
2075.56	0.00144
2087.14	0.00154
2098.71	0.00163
2110.28	0.00162
2121.86	0.00155
2133.43	0.00151
2145.01	0.00145
2156.58	0.00141
2168.15	0.00133
2179.73	0.00114
2191.3	0.00103
2202.88	0.0009768
2214.45	0.0009209
2226.02	0.0009651
2237.6	0.00103
2249.17	0.00114
2260.74	0.00117
2272.32	0.00111
2283.89	0.0009791
2295.47	0.0008051
2307.04	0.0007383
2318.61	0.0006995
2330.19	0.0006775
2341.76	0.0007291
2353.34	0.0007528
2364.91	0.000746
2376.48	0.0008019
2388.06	0.0008127
2399.63	0.0008884
2411.21	0.0009355
2422.78	0.0009616
2434.35	0.000958
2445.93	0.0009327
2457.5	0.0009225
2469.08	0.0009414
2480.65	0.0009664
2492.22	0.0009504
2503.8	0.0009673
2515.37	0.0009416
2526.95	0.00105
2538.52	0.00106
2550.09	0.0009809
2561.67	0.0009172
2573.24	0.000878
2584.82	0.0008939
2596.39	0.0009363
2607.96	0.00101
2619.54	0.00101
2631.11	0.0009647
2642.69	0.0009728
2654.26	0.00102
2665.83	0.00101
2677.41	0.0009898
2688.98	0.0009766
2700.56	0.000972
2712.13	0.0009981
2723.7	0.00106
2735.28	0.00114
2746.85	0.00129
2758.43	0.00143
2770	0.00159
2781.57	0.00175
2793.15	0.002
2804.72	0.00236
2816.3	0.00329
2827.87	0.00531
2839.44	0.01061
2851.02	0.01271
2862.59	0.00841
2874.17	0.00822
2885.74	0.00943
2897.31	0.0101
2908.89	0.01179
2920.46	0.01337
2932.04	0.01627
2943.61	0.02725
2955.18	0.0248
2966.76	0.0208
2978.33	0.01838
2989.91	0.01693
3001.48	0.0176
3013.05	0.01617
3024.63	0.00667
3036.2	0.00416
3047.78	0.0033
3059.35	0.00293
3070.92	0.00248
3082.5	0.00231
3094.07	0.00235
3105.65	0.00227
3117.22	0.00186
3128.79	0.00154
3140.37	0.00138
3151.94	0.0013
3163.52	0.00114
3175.09	0.00113
3186.66	0.00103
3198.24	0.0009644
3209.81	0.0009094
3221.39	0.0008602
3232.96	0.0007461
3244.53	0.0007221
3256.11	0.0006856
3267.68	0.0007047
3279.26	0.0006521
3290.83	0.0006513
3302.4	0.0006898
3313.98	0.0006187
3325.55	0.0007364
3337.13	0.000742
3348.7	0.0007443
3360.27	0.0007566
3371.85	0.0007104
3383.42	0.0007171
3395	0.0007207
3406.57	0.0006836
3418.14	0.0007925
3429.72	0.0009061
3441.29	0.00112
3452.86	0.00109
3464.44	0.0009004
3476.01	0.0007944
3487.59	0.0006891
3499.16	0.0006874
3510.73	0.0006568
3522.31	0.0006577
3533.88	0.0007179
3545.46	0.0006408
3557.03	0.0006775
3568.6	0.0006524
3580.18	0.0007115
3591.75	0.0007191
3603.33	0.000664
3614.9	0.000657
3626.47	0.0006362
3638.05	0.0006618
3649.62	0.000633
3661.2	0.0006878
3672.77	0.0006181
3684.34	0.0006631
3695.92	0.0006612
3707.49	0.000672
3719.07	0.0006594
3730.64	0.0006339
3742.21	0.0006871
3753.79	0.0006958
3765.36	0.0007128
3776.94	0.0007437
3788.51	0.0007155
3800.08	0.0007586
3811.66	0.0008146
3823.23	0.0007522
3834.81	0.0008105
3846.38	0.0008423
3857.95	0.0007772
3869.53	0.0007883
3881.1	0.0008591
3892.68	0.00101
3904.25	0.0008238
3915.82	0.000865
3927.4	0.0008775
3938.97	0.0009079
3950.55	0.0009309
3962.12	0.0009289
3973.69	0.0009861
3985.27	0.00106
3996.84	0.00108
