Infrared Spectrum: 4-Bromo-2-methylbenzonitrile
Formula: C 8 H 6 Br N
CAS: 67832-11-5
State: gas
Origin: EPA-IR VAPOR PHASE LIBRARY
1/CM	ABSORBANCE
549.8	0.007086
559.445	0.015776
569.09	0.019926
578.734	0.010946
588.379	0.004336
598.024	0.005226
607.669	0.003726
617.313	0.0011312
626.958	0.001296
636.603	0.002706
646.248	0.001766
655.893	0.0006248
665.537	0.00019027
675.182	0.0002938
684.827	0.00019782
694.472	0.0004412
704.116	0.000637
713.761	0.0007275
723.406	0.001636
733.051	0.002166
742.695	0.002396
752.34	0.0011335
761.985	0.0008604
771.63	0.001556
781.275	0.004436
790.919	0.009886
800.564	0.015606
810.209	0.037776
819.854	0.064026
829.498	0.034766
839.143	0.014836
848.788	0.018226
858.433	0.052966
868.078	0.079476
877.722	0.033256
887.367	0.016936
897.012	0.006926
906.657	0.002586
916.301	0.001566
925.946	0.001286
935.591	0.001956
945.236	0.002916
954.88	0.003346
964.525	0.002716
974.17	0.002816
983.815	0.002626
993.46	0.002876
1003.1	0.002786
1012.75	0.002146
1022.39	0.001856
1032.04	0.001956
1041.68	0.003226
1051.33	0.003936
1060.97	0.004586
1070.62	0.010186
1080.26	0.034966
1089.91	0.033066
1099.55	0.012056
1109.2	0.016346
1118.84	0.017806
1128.49	0.013706
1138.13	0.008056
1147.78	0.002806
1157.42	0.004016
1167.07	0.017416
1176.71	0.018676
1186.36	0.009616
1196	0.013626
1205.64	0.018616
1215.29	0.016396
1224.93	0.004866
1234.58	0.002696
1244.22	0.003006
1253.87	0.005836
1263.51	0.009096
1273.16	0.010006
1282.8	0.005866
1292.45	0.002426
1302.09	0.001806
1311.74	0.001956
1321.38	0.002136
1331.03	0.002376
1340.67	0.003286
1350.32	0.005196
1359.96	0.006276
1369.61	0.006626
1379.25	0.009566
1388.9	0.017056
1398.54	0.019676
1408.18	0.013876
1417.83	0.009676
1427.47	0.011356
1437.12	0.016776
1446.76	0.017376
1456.41	0.018646
1466.05	0.031006
1475.7	0.079716
1485.34	0.071996
1494.99	0.020676
1504.63	0.015106
1514.28	0.017116
1523.92	0.016306
1533.57	0.015296
1543.21	0.016386
1552.86	0.020906
1562.5	0.022226
1572.15	0.024726
1581.79	0.058906
1591.44	0.099206
1601.08	0.045726
1610.73	0.009256
1620.37	0.005056
1630.01	0.005206
1639.66	0.005106
1649.3	0.003216
1658.95	0.002066
1668.59	0.001816
1678.24	0.001706
1687.88	0.001656
1697.53	0.0011327
1707.17	0.000933
1716.82	0.001326
1726.46	0.001796
1736.11	0.002956
1745.75	0.003616
1755.4	0.003556
1765.04	0.003346
1774.69	0.001476
1784.33	0.0007321
1793.98	0.0007877
1803.62	0.0006284
1813.27	0.0006892
1822.91	0.0007962
1832.55	0.0007271
1842.2	0.0005632
1851.84	0.0006002
1861.49	0.000829
1871.13	0.001216
1880.78	0.002086
1890.42	0.003586
1900.07	0.003826
1909.71	0.002516
1919.36	0.001286
1929	0.0009227
1938.65	0.000675
1948.29	0.0003829
1957.94	0.0003689
1967.58	0.0004593
1977.23	0.0004122
1986.87	0.0005099
1996.52	0.0003925
2006.16	0.0003461
2015.81	0.00024961
2025.45	0.00018877
2035.1	0.00023136
2044.74	0.00025778
2054.38	0.0002924
2064.03	0.0003878
2073.67	0.0004736
2083.32	0.0004187
2092.96	0.0003489
2102.61	0.0003456
2112.25	0.0003386
2121.9	0.0003485
2131.54	0.000318
2141.19	0.0003174
2150.83	0.0002844
2160.48	0.0003015
2170.12	0.0004855
2179.77	0.0006162
2189.41	0.000677
2199.06	0.001306
2208.7	0.002566
2218.35	0.009526
2227.99	0.025416
2237.64	0.016246
2247.28	0.002826
2256.92	0.001616
2266.57	0.001316
2276.21	0.0011704
2285.86	0.001306
2295.5	0.0011287
2305.15	0.0011435
2314.79	0.0011425
2324.44	0.001236
2334.08	0.0010722
2343.73	0.001172
2353.37	0.001134
2363.02	0.001033
2372.66	0.0009101
2382.31	0.0009863
2391.95	0.0009609
2401.6	0.0008116
2411.24	0.0006968
2420.89	0.0006987
2430.53	0.000647
2440.18	0.0006825
2449.82	0.0007552
2459.47	0.0007917
2469.11	0.0009549
2478.75	0.0010742
2488.4	0.0008319
2498.04	0.0007828
2507.69	0.0010226
2517.33	0.0010215
2526.98	0.001306
2536.62	0.001626
2546.27	0.001176
2555.91	0.0009273
2565.56	0.0007886
2575.2	0.0006896
2584.85	0.0006591
2594.49	0.0007237
2604.14	0.0006202
2613.78	0.0004999
2623.43	0.000464
2633.07	0.0006517
2642.72	0.0008626
2652.36	0.0008942
2662.01	0.0007257
2671.65	0.0007504
2681.29	0.0008634
2690.94	0.0007725
2700.58	0.0009758
2710.23	0.0010569
2719.87	0.0010658
2729.52	0.0009047
2739.16	0.0011183
2748.81	0.001256
2758.45	0.001346
2768.1	0.0011421
2777.74	0.0008385
2787.39	0.000927
2797.03	0.0011269
2806.68	0.0011026
2816.32	0.001226
2825.97	0.001356
2835.61	0.001596
2845.26	0.001916
2854.9	0.002796
2864.55	0.003896
2874.19	0.005006
2883.84	0.004916
2893.48	0.004596
2903.12	0.004756
2912.77	0.005796
2922.41	0.008476
2932.06	0.012626
2941.7	0.013606
2951.35	0.009686
2960.99	0.007356
2970.64	0.006896
2980.28	0.006886
2989.93	0.006926
2999.57	0.006826
3009.22	0.005936
3018.86	0.005486
3028.51	0.005746
3038.15	0.006036
3047.8	0.005096
3057.44	0.003886
3067.09	0.003306
3076.73	0.003696
3086.38	0.004826
3096.02	0.004506
3105.67	0.002806
3115.31	0.001536
3124.95	0.0010232
3134.6	0.0007392
3144.24	0.0005865
3153.89	0.0007508
3163.53	0.0005021
3173.18	0.00025846
3182.82	0.0003357
3192.47	0.0002831
3202.11	0.0002661
3211.76	0.00024004
3221.4	0.0003252
3231.05	8.57e-05
3240.69	0.0003113
3250.34	0.0001216
3259.98	0.00019831
3269.63	6.6e-05
3279.27	0.0001465
3288.92	0.0001402
3298.56	0.00026535
3308.21	0.00023748
3317.85	0.0002866
3327.49	0.0003345
3337.14	0.0003224
3346.78	0.0005328
3356.43	0.0004185
3366.07	0.00022719
3375.72	0.0001007
3385.36	0.0002997
3395.01	0.0005679
3404.65	0.0005036
3414.3	0.0004445
3423.94	0.0005738
3433.59	0.001019
3443.23	0.0007187
3452.88	0.0005315
3462.52	0.0003272
3472.17	0.00017057
3481.81	0.0001631
3491.46	0.00017692
3501.1	0.0002501
3510.75	8.77e-05
3520.39	0.00018818
3530.04	0.000156
3539.68	0.00023209
3549.32	0.000203
3558.97	0.0001603
3568.61	0.000179971
3578.26	0.0001103
3587.9	0.0001226
3597.55	0.0001056
3607.19	0.0003214
3616.84	0.00016724
3626.48	0.0003799
3636.13	0.00026577
3645.77	0.00022587
3655.42	0.0003752
3665.06	0.00017196
3674.71	0.0004143
3684.35	0.00027394
3694	0.0002839
3703.64	0.0003814
3713.29	0.0006381
3722.93	0.000180982
3732.58	0.0001343
3742.22	0.0004541
3751.86	0.00023134
3761.51	0.0003103
3771.15	0.0004448
3780.8	0.0003985
3790.44	0.0004466
3800.09	0.00027511
3809.73	0.0005598
3819.38	0.0006908
3829.02	0.0005565
3838.67	0.00019004
3848.31	0.00025985
3857.96	0.0003228
3867.6	0.0001345
3877.25	0.0003817
3886.89	0.000479
3896.54	0.0004102
3906.18	0.0004359
3915.83	0.0005742
3925.47	0.0006934
3935.12	0.0008055
3944.76	0.0010969
3954.41	0.0006504
3964.05	0.0005087
3973.69	0.0004228
3983.34	0.0005593
3992.98	0.0004259
