Infrared Spectrum: ACETONYLPRAZINE
Formula: C7 H8 N2 O
CAS: 6784-62-9
State: LIQUID
Class: COBLENTZ
Instrument: Not specified, most likely a prism, grating, or hybrid spectrometer.
Sampling: TRANSMISSION
Path length: 0.003 CM
Resolution: 4
Origin: WYANDOTTE CHEMICALS CORP., WYANDOTTE, MICHIGAN, USA
MICROMETERS	TRANSMITTANCE
2.035	0.995
2.07493	0.991
2.11487	0.975
2.1548	0.976
2.19473	0.968
2.23467	0.961
2.2746	0.963
2.31453	0.958
2.35446	0.961
2.3944	0.96
2.43433	0.978
2.47426	0.976
2.5142	0.978
2.55413	0.986
2.59406	0.991
2.634	1.001
2.67393	0.993
2.71386	0.986
2.75379	0.955
2.79373	0.931
2.83366	0.911
2.87359	0.87
2.91353	0.801
2.95346	0.75
2.99339	0.815
3.03333	0.838
3.07326	0.851
3.11319	0.86
3.15312	0.835
3.19306	0.823
3.23299	0.758
3.27292	0.498
3.31286	0.545
3.35279	0.606
3.39272	0.586
3.43266	0.566
3.47259	0.736
3.51252	0.803
3.55245	0.841
3.59239	0.863
3.63232	0.888
3.67225	0.9
3.71219	0.901
3.75212	0.93
3.79205	0.935
3.83199	0.946
3.87192	0.94
3.91185	0.945
3.95178	0.945
3.99172	0.961
4.03165	0.958
4.07158	0.965
4.11152	0.963
4.15145	0.968
4.19138	0.965
4.23132	0.968
4.27125	0.98
4.31118	0.985
4.35111	0.981
4.39105	0.975
4.43098	0.985
4.47091	0.991
4.51085	0.983
4.55078	0.985
4.59071	0.981
4.63065	0.981
4.67058	0.978
4.71051	0.985
4.75045	0.983
4.79038	0.98
4.83031	0.985
4.87024	0.988
4.91018	0.988
4.95011	0.99
4.99004	0.991
5.02998	0.986
5.06991	0.98
5.10984	0.978
5.14978	0.955
5.18971	0.925
5.22964	0.921
5.26957	0.936
5.30951	0.948
5.34944	0.955
5.38937	0.955
5.42931	0.931
5.46924	0.918
5.50917	0.898
5.54911	0.875
5.58904	0.845
5.62897	0.771
5.6689	0.73
5.70884	0.635
5.74877	0.371
5.7887	0.013
5.82864	0.036
5.86857	0.071
5.9085	0.281
5.94844	0.288
5.98837	0.326
6.0283	0.255
6.06823	0.295
6.10817	0.44
6.1481	0.61
6.18803	0.695
6.22797	0.76
6.2679	0.676
6.30783	0.545
6.34777	0.753
6.3877	0.778
6.42763	0.771
6.46756	0.7
6.5075	0.416
6.54743	0.433
6.58736	0.52
6.6273	0.44
6.66723	0.63
6.70716	0.44
6.7471	0.083
6.78703	0.36
6.82696	0.493
6.86689	0.406
6.90683	0.333
6.94676	0.21
6.98669	0.115
7.02663	0.055
7.06656	0.041
7.10649	0.038
7.14643	0.058
7.18636	0.133
7.22629	0.193
7.26623	0.211
7.30616	0.086
7.34609	0.041
7.38602	0.086
7.42596	0.206
7.46589	0.223
7.50582	0.115
7.54576	0.083
7.58569	0.121
7.62562	0.176
7.66556	0.271
7.70549	0.376
7.74542	0.416
7.78535	0.425
7.82529	0.42
7.86522	0.473
7.90515	0.52
7.94509	0.411
7.98502	0.445
8.02495	0.343
8.06489	0.251
8.10482	0.308
8.14475	0.368
8.18468	0.313
8.22462	0.253
8.26455	0.351
8.30448	0.426
8.34442	0.45
8.38435	0.435
8.42428	0.313
8.46422	0.223
8.50415	0.15
8.54408	0.083
8.58401	0.041
8.62395	0.048
8.66388	0.11
8.70381	0.253
8.74375	0.288
8.78368	0.091
8.82361	0.101
8.86355	0.29
8.90348	0.456
8.94341	0.61
8.98334	0.69
9.02328	0.755
9.06321	0.776
9.10314	0.786
9.14308	0.788
9.18301	0.803
9.22294	0.796
9.26288	0.793
9.30281	0.763
9.34274	0.695
9.38267	0.5
9.42261	0.148
9.46254	0.236
9.50247	0.565
9.54241	0.666
9.58234	0.68
9.62227	0.635
9.66221	0.553
9.70214	0.398
9.74207	0.076
9.78201	0.038
9.82194	0.076
9.86187	0.205
9.9018	0.3
9.94174	0.421
9.98167	0.538
10.0216	0.608
10.0615	0.638
10.1015	0.641
10.1414	0.64
10.1813	0.658
10.2213	0.681
10.2612	0.71
10.3011	0.736
10.3411	0.758
10.381	0.778
10.4209	0.803
10.4609	0.808
10.5008	0.82
10.5407	0.826
10.5807	0.82
10.6206	0.803
10.6605	0.798
10.7005	0.798
10.7404	0.801
10.7803	0.811
10.8203	0.828
10.8602	0.833
10.9001	0.818
10.9401	0.75
10.98	0.633
11.0199	0.671
11.0599	0.761
11.0998	0.79
11.1397	0.793
11.1797	0.783
11.2196	0.768
11.2595	0.756
11.2995	0.743
11.3394	0.721
11.3793	0.693
11.4193	0.63
11.4592	0.548
11.4991	0.458
11.5391	0.363
11.579	0.326
11.6189	0.341
11.6589	0.37
11.6988	0.393
11.7387	0.381
11.7787	0.358
11.8186	0.348
11.8585	0.365
11.8985	0.398
11.9384	0.426
11.9783	0.465
12.0183	0.515
12.0582	0.536
12.0981	0.556
12.1381	0.565
12.178	0.575
12.2179	0.583
12.2579	0.585
12.2978	0.573
12.3377	0.578
12.3777	0.58
12.4176	0.578
12.4575	0.583
12.4975	0.598
12.5374	0.608
12.5773	0.628
12.6172	0.645
12.6572	0.651
12.6971	0.663
12.737	0.688
12.777	0.711
12.8169	0.736
12.8568	0.761
12.8968	0.786
12.9367	0.811
12.9766	0.826
13.0166	0.828
13.0565	0.82
13.0964	0.791
13.1364	0.723
13.1763	0.571
13.2162	0.451
13.2562	0.433
13.2961	0.541
13.336	0.64
13.376	0.713
13.4159	0.776
13.4558	0.811
13.4958	0.848
13.5357	0.87
13.5756	0.89
13.6156	0.896
13.6555	0.903
13.6954	0.908
13.7354	0.911
13.7753	0.918
13.8152	0.913
13.8552	0.918
13.8951	0.915
13.935	0.911
13.975	0.92
14.0149	0.921
14.0548	0.918
14.0948	0.92
14.1347	0.913
14.1746	0.913
14.2146	0.918
14.2545	0.905
14.2944	0.901
14.3344	0.896
14.3743	0.901
14.4142	0.895
14.4542	0.9
14.4941	0.896
14.534	0.891
14.574	0.885
14.6139	0.878
14.6538	0.87
14.6938	0.86
14.7337	0.845
14.7736	0.815
14.8136	0.791
14.8535	0.78
14.8934	0.783
14.9334	0.793
14.9733	0.798
15.0132	0.79
15.0532	0.775
15.0931	0.773
15.133	0.803
15.173	0.818
15.2129	0.823
15.2528	0.823
15.2928	0.813
15.3327	0.816
15.3726	0.816
15.4126	0.808
15.4525	0.803
15.4924	0.801
15.5324	0.795
15.5723	0.788
15.6122	0.783
15.6522	0.783
15.6921	0.781
15.732	0.775
15.772	0.77
15.8119	0.765
15.8518	0.758
15.8918	0.753
15.9317	0.741
15.9716	0.745
