Infrared Spectrum: 9-HYDROXY-9-(2'-PYRIDYL)-XANTHENE
Formula: C18 H13 N O2
CAS: 67916-68-1
State: SOLUTION (7% IN CHCl3)
Class: COBLENTZ
Instrument: PERKIN-ELMER
Sampling: TRANSMISSION
Path length: 0.010 CM
Resolution: 4
Origin: ABBOTT LABORATORIES - WASHBURN
MICROMETERS	TRANSMITTANCE
2.005	0.962
2.03934	0.962
2.07368	0.955
2.10802	0.952
2.14236	0.95
2.1767	0.95
2.21104	0.948
2.24538	0.95
2.27972	0.948
2.31406	0.947
2.3484	0.948
2.38274	0.9504
2.41708	0.9363
2.45142	0.936
2.48576	0.936
2.5201	0.936
2.55444	0.9417
2.58878	0.943
2.62312	0.9383
2.65746	0.9397
2.6918	0.94
2.72614	0.935
2.76048	0.942
2.79482	0.9117
2.82916	0.8992
2.8635	0.8857
2.89784	0.8502
2.93218	0.7925
2.96652	0.7129
3.00086	0.6723
3.0352	0.7001
3.06954	0.7682
3.10388	0.8308
3.13822	0.8629
3.17256	0.8849
3.2069	0.8938
3.24124	0.8498
3.27558	0.8074
3.30992	0.7981
3.34426	0.7966
3.3786	0.8545
3.41294	0.8956
3.44728	0.9108
3.48162	0.914
3.51596	0.913
3.5503	0.913
3.58464	0.913
3.61898	0.914
3.65332	0.913
3.68766	0.914
3.722	0.9177
3.75634	0.919
3.79068	0.9181
3.82502	0.9129
3.85936	0.913
3.8937	0.913
3.92804	0.911
3.96238	0.911
3.99672	0.911
4.03106	0.909
4.0654	0.904
4.09974	0.8972
4.13408	0.9007
4.16842	0.9037
4.20276	0.916
4.2371	0.923
4.27144	0.93
4.30578	0.925
4.34012	0.9193
4.37446	0.9093
4.4088	0.909
4.44314	0.911
4.47748	0.909
4.51182	0.911
4.54616	0.9128
4.5805	0.913
4.61484	0.913
4.64918	0.913
4.68352	0.911
4.71786	0.9081
4.7522	0.902
4.78654	0.901
4.82088	0.901
4.85522	0.9021
4.88956	0.899
4.9239	0.9019
4.95824	0.902
4.99258	0.9108
5.02692	0.9081
5.06126	0.901
5.0956	0.9011
5.12994	0.8836
5.16428	0.8766
5.19862	0.8874
5.23296	0.8722
5.2673	0.883
5.30164	0.892
5.33598	0.8984
5.37032	0.899
5.40466	0.9018
5.439	0.901
5.47334	0.897
5.50768	0.897
5.54202	0.8949
5.57636	0.885
5.6107	0.8913
5.64504	0.902
5.67938	0.902
5.71372	0.902
5.74806	0.9014
5.7824	0.901
5.81674	0.892
5.85108	0.8895
5.88542	0.8829
5.91976	0.8861
5.9541	0.8859
5.98844	0.887
6.02278	0.885
6.05712	0.888
6.09146	0.8816
6.1258	0.8568
6.16014	0.8247
6.19448	0.7784
6.22882	0.4421
6.26316	0.425
6.2975	0.5491
6.33184	0.5581
6.36618	0.4425
6.40052	0.6008
6.43486	0.763
6.4692	0.8266
6.50354	0.8584
6.53788	0.8672
6.57222	0.8703
6.60656	0.872
6.6409	0.86
6.67524	0.8326
6.70958	0.7351
6.74392	0.5631
6.77826	0.2112
6.8126	0.3003
6.84694	0.3
6.88128	0.2315
6.91562	0.1049
6.94996	0.3183
6.9843	0.3518
7.01864	0.4966
7.05298	0.6137
7.08732	0.638
7.12166	0.5969
7.156	0.5254
7.19034	0.4735
7.22468	0.456
7.25902	0.454
7.29336	0.5083
7.3277	0.5807
7.36204	0.642
7.39638	0.6804
7.43072	0.7395
7.46506	0.7691
7.4994	0.776
7.53374	0.7648
7.56808	0.709
7.60242	0.3013
7.63677	0.2495
7.67111	0.3575
7.70545	0.3645
7.73979	0.2771
7.77413	0.2966
7.80847	0.4589
7.84281	0.5632
7.87715	0.6745
7.91149	0.7234
7.94583	0.725
7.98017	0.6594
8.01451	0.3763
8.04885	0.2211
8.08319	0.2268
8.11753	0.2864
8.15187	0.3421
8.18621	0.36
8.22055	0.3735
8.25489	0.3869
8.28923	0.3943
8.32357	0.4116
8.35791	0.4632
8.39225	0.5333
8.42659	0.555
8.46093	0.5268
8.49527	0.5608
8.52961	0.6883
8.56395	0.7505
8.59829	0.7791
8.63263	0.7893
8.66697	0.7237
8.70131	0.5112
8.73565	0.6235
8.76999	0.7338
8.80433	0.7587
8.83867	0.7638
8.87301	0.719
8.90735	0.641
8.94169	0.7473
8.97603	0.7782
9.01037	0.7871
9.04471	0.788
9.07905	0.7243
9.11339	0.504
9.14773	0.574
9.18207	0.7079
9.21641	0.7768
9.25075	0.7984
9.28509	0.816
9.31943	0.844
9.35377	0.841
9.38811	0.8271
9.42245	0.8042
9.45679	0.7646
9.49113	0.747
9.52547	0.747
9.55981	0.7351
9.59415	0.6801
9.62849	0.5576
9.66283	0.502
9.69717	0.5143
9.73151	0.5347
9.76585	0.5639
9.80019	0.5962
9.83453	0.6241
9.86887	0.651
9.90321	0.6865
9.93755	0.7168
9.97189	0.735
10.0062	0.7235
10.0406	0.712
10.0749	0.7606
10.1092	0.8013
10.1436	0.8282
10.1779	0.8413
10.2123	0.8521
10.2466	0.858
10.2809	0.8625
10.3153	0.865
10.3496	0.867
10.384	0.868
10.4183	0.87
10.4526	0.8639
10.487	0.8564
10.5213	0.8145
10.5557	0.7433
10.59	0.727
10.6243	0.7607
10.6587	0.7946
10.693	0.7849
10.7274	0.7516
10.7617	0.7547
10.796	0.7822
10.8304	0.8149
10.8647	0.8225
10.8991	0.824
10.9334	0.8244
10.9677	0.8364
11.0021	0.8473
11.0364	0.853
11.0708	0.856
11.1051	0.858
11.1394	0.858
11.1738	0.858
11.2081	0.8546
11.2425	0.8435
11.2768	0.8146
11.3111	0.78
11.3455	0.7932
11.3798	0.8039
11.4142	0.7718
11.4485	0.5848
11.4828	0.5159
11.5172	0.5784
11.5515	0.6968
11.5859	0.7871
11.6202	0.8261
11.6545	0.838
11.6889	0.844
11.7232	0.85
11.7576	0.8529
11.7919	0.8599
11.8262	0.8718
11.8606	0.8818
11.8949	0.8867
11.9293	0.889
11.9636	0.887
11.9979	0.889
12.0323	0.8915
12.0666	0.892
12.101	0.8954
12.1353	0.897
12.1696	0.8977
12.204	0.89
12.2383	0.8692
12.2727	0.8219
12.307	0.7532
12.3413	0.7066
12.3757	0.714
12.41	0.7403
12.4444	0.7742
12.4787	0.7961
12.513	0.8169
12.5474	0.8421
12.5817	0.8598
12.6161	0.9026
12.6504	0.908
12.6847	0.913
12.7191	0.916
12.7534	0.926
12.7878	0.93
12.8221	0.9338
12.8564	0.9387
12.8908	0.945
12.9251	0.9509
12.9595	0.9544
12.9938	0.959
13.0281	0.9608
13.0625	0.971
13.0968	0.972
13.1312	0.9713
13.1655	0.974
13.1998	0.9763
13.2342	0.982
13.2685	0.984
13.3029	0.9864
13.3372	0.9932
13.3716	1.0005
13.4059	1.0113
13.4402	1.013
13.4746	1.015
13.5089	1.015
13.5433	1.011
13.5776	1.011
13.6119	1.015
13.6463	1.015
13.6806	1.015
13.715	1.015
13.7493	1.015
13.7836	1.013
13.818	1.015
13.8523	1.0151
13.8867	1.0131
13.921	1.015
13.9553	1.015
13.9897	1.013
14.024	1.015
14.0584	1.01
14.0927	1.008
14.127	1.0052
14.1614	1.005
14.1957	0.9968
14.2301	0.994
14.2644	0.9715
14.2987	0.9504
14.3331	0.9356
14.3674	0.928
14.4018	0.9253
14.4361	0.9274
14.4704	0.93
14.5048	0.933
14.5391	0.937
14.5735	0.938
14.6078	0.94
14.6421	0.9408
14.6765	0.94
14.7108	0.942
14.7452	0.948
14.7795	0.9532
14.8138	0.957
14.8482	0.9682
14.8825	0.971
14.9169	0.9765
14.9512	0.977
14.9855	0.978
15.0199	0.979
15.0542	0.979
15.0886	0.9751
15.1229	0.957
15.1572	0.9331
15.1916	0.9079
15.2259	0.897
15.2603	0.8897
15.2946	0.885
15.3289	0.89
15.3633	0.8885
15.3976	0.8815
15.432	0.8706
15.4663	0.8481
15.5006	0.8133
