Infrared Spectrum: 4-Benzyloxybromobenzene
Formula: C 13 H 11 Br O
CAS: 6793-92-6
State: gas
Origin: EPA-IR VAPOR PHASE LIBRARY
1/CM	ABSORBANCE
549.8	0.002376
559.445	0.002456
569.09	0.002566
578.734	0.003076
588.379	0.005366
598.024	0.007796
607.669	0.006246
617.313	0.005116
626.958	0.005306
636.603	0.007086
646.248	0.010706
655.893	0.009546
665.537	0.004856
675.182	0.007026
684.827	0.011376
694.472	0.018866
704.116	0.015716
713.761	0.013436
723.406	0.016336
733.051	0.024256
742.695	0.017636
752.34	0.010656
761.985	0.005636
771.63	0.003346
781.275	0.003836
790.919	0.005946
800.564	0.008776
810.209	0.014296
819.854	0.025086
829.498	0.019616
839.143	0.010716
848.788	0.006876
858.433	0.004496
868.078	0.003036
877.722	0.002696
887.367	0.002656
897.012	0.003536
906.657	0.004496
916.301	0.003496
925.946	0.002886
935.591	0.003046
945.236	0.003086
954.88	0.003806
964.525	0.005376
974.17	0.008596
983.815	0.013976
993.46	0.022966
1003.1	0.040986
1012.75	0.036126
1022.39	0.038406
1032.04	0.025136
1041.68	0.015276
1051.33	0.008806
1060.97	0.009176
1070.62	0.026246
1080.26	0.013186
1089.91	0.006556
1099.55	0.006946
1109.2	0.005386
1118.84	0.004096
1128.49	0.002686
1138.13	0.002956
1147.78	0.003356
1157.42	0.007416
1167.07	0.031846
1176.71	0.019106
1186.36	0.013776
1196	0.021866
1205.64	0.040086
1215.29	0.077816
1224.93	0.109626
1234.58	0.101366
1244.22	0.072876
1253.87	0.040716
1263.51	0.032826
1273.16	0.039726
1282.8	0.039346
1292.45	0.025976
1302.09	0.016996
1311.74	0.013656
1321.38	0.009236
1331.03	0.006826
1340.67	0.005656
1350.32	0.005576
1359.96	0.007266
1369.61	0.011436
1379.25	0.015596
1388.9	0.008016
1398.54	0.004806
1408.18	0.004426
1417.83	0.005076
1427.47	0.005936
1437.12	0.007016
1446.76	0.010946
1456.41	0.016646
1466.05	0.028076
1475.7	0.042026
1485.34	0.138736
1494.99	0.084386
1504.63	0.021166
1514.28	0.009376
1523.92	0.005796
1533.57	0.004106
1543.21	0.003606
1552.86	0.004266
1562.5	0.006446
1572.15	0.014156
1581.79	0.024376
1591.44	0.022876
1601.08	0.011796
1610.73	0.006396
1620.37	0.003906
1630.01	0.002896
1639.66	0.002556
1649.3	0.001996
1658.95	0.001566
1668.59	0.001446
1678.24	0.0011248
1687.88	0.0011258
1697.53	0.0010958
1707.17	0.0012227
1716.82	0.001396
1726.46	0.001656
1736.11	0.002246
1745.75	0.002166
1755.4	0.001706
1765.04	0.001476
1774.69	0.001496
1784.33	0.001726
1793.98	0.002486
1803.62	0.002546
1813.27	0.001856
1822.91	0.001586
1832.55	0.001536
1842.2	0.001756
1851.84	0.002186
1861.49	0.002906
1871.13	0.003256
1880.78	0.002856
1890.42	0.002186
1900.07	0.001416
1909.71	0.0011209
1919.36	0.001195
1929	0.001486
1938.65	0.001796
1948.29	0.002026
1957.94	0.002326
1967.58	0.001706
1977.23	0.001376
1986.87	0.001396
1996.52	0.001566
2006.16	0.001826
2015.81	0.001916
2025.45	0.001786
2035.1	0.001736
2044.74	0.001596
2054.38	0.001486
2064.03	0.001416
2073.67	0.001356
2083.32	0.0012479
2092.96	0.0010716
2102.61	0.0009576
2112.25	0.0007942
2121.9	0.000734
2131.54	0.0007037
2141.19	0.0006502
2150.83	0.0006004
2160.48	0.0006299
2170.12	0.000635
2179.77	0.0005111
2189.41	0.0005727
2199.06	0.0005692
2208.7	0.0006277
2218.35	0.0005529
2227.99	0.0007065
2237.64	0.0006407
2247.28	0.0006635
2256.92	0.0008056
2266.57	0.0008395
2276.21	0.0010704
2285.86	0.0010875
2295.5	0.0008342
2305.15	0.0007701
2314.79	0.0009664
2324.44	0.0008195
2334.08	0.0008575
2343.73	0.0007372
2353.37	0.0008052
2363.02	0.0009551
2372.66	0.0010361
2382.31	0.0010892
2391.95	0.0010092
2401.6	0.0009957
2411.24	0.0010168
2420.89	0.000989
2430.53	0.0010387
2440.18	0.0010767
2449.82	0.0012216
2459.47	0.0010752
2469.11	0.0012169
2478.75	0.0010082
2488.4	0.0010504
2498.04	0.0011386
2507.69	0.001151
2517.33	0.0011829
2526.98	0.0010207
2536.62	0.0010022
2546.27	0.000931
2555.91	0.000879
2565.56	0.000862
2575.2	0.0006746
2584.85	0.0006906
2594.49	0.000683
2604.14	0.00071
2613.78	0.0006484
2623.43	0.0005718
2633.07	0.0005811
2642.72	0.0006948
2652.36	0.0006623
2662.01	0.0007085
2671.65	0.000571
2681.29	0.0005429
2690.94	0.0006303
2700.58	0.0007391
2710.23	0.0008286
2719.87	0.0008726
2729.52	0.0008016
2739.16	0.0008087
2748.81	0.0007087
2758.45	0.0007135
2768.1	0.0008135
2777.74	0.0008065
2787.39	0.0010281
2797.03	0.0011491
2806.68	0.001386
2816.32	0.001736
2825.97	0.001916
2835.61	0.002126
2845.26	0.002446
2854.9	0.002986
2864.55	0.004346
2874.19	0.006336
2883.84	0.008606
2893.48	0.007736
2903.12	0.006116
2912.77	0.005826
2922.41	0.006136
2932.06	0.007036
2941.7	0.007396
2951.35	0.008036
2960.99	0.006866
2970.64	0.004486
2980.28	0.002836
2989.93	0.001996
2999.57	0.002176
3009.22	0.003076
3018.86	0.005506
3028.51	0.010646
3038.15	0.015156
3047.8	0.011836
3057.44	0.009986
3067.09	0.014396
3076.73	0.017466
3086.38	0.011696
3096.02	0.010146
3105.67	0.006576
3115.31	0.003706
3124.95	0.001756
3134.6	0.0009678
3144.24	0.0007684
3153.89	0.0006905
3163.53	0.0004944
3173.18	0.0006684
3182.82	0.0005178
3192.47	0.00041949
3202.11	0.00039252
3211.76	0.0004474
3221.4	0.00040094
3231.05	0.00035819
3240.69	0.0004622
3250.34	0.0002585
3259.98	0.0003088
3269.63	0.0002478
3279.27	0.000307
3288.92	0.00033318
3298.56	0.000184
3308.21	0.00034733
3317.85	0.000343576
3327.49	0.000132
3337.14	0.0004142
3346.78	0.0002487
3356.43	0.000195
3366.07	0.00012
3375.72	0.00043263
3385.36	0.00037647
3395.01	0.00035237
3404.65	0.0001
3414.3	0.000185
3423.94	0.00038876
3433.59	0.0002513
3443.23	0.00035366
3452.88	0.00026
3462.52	0.0002538
3472.17	0.0002583
3481.81	0.000113
3491.46	0.0003238
3501.1	0.0003648
3510.75	0.0002366
3520.39	0.0002842
3530.04	0.0004966
3539.68	0.000119
3549.32	0.000226
3558.97	0.0002632
3568.61	0.0002433
3578.26	0.0002446
3587.9	0.0002836
3597.55	0.000338421
3607.19	0.000217
3616.84	0.000132
3626.48	0.0003965
3636.13	0.00042816
3645.77	0.000341788
3655.42	0.0005188
3665.06	0.000224
3674.71	0.0004383
3684.35	0.0005172
3694	0.00040236
3703.64	0.00037626
3713.29	0.0004574
3722.93	0.0004607
3732.58	0.00038775
3742.22	0.000196
3751.86	0.00035752
3761.51	0.000193
3771.15	0.0002716
3780.8	0.000337006
3790.44	0.000464
3800.09	0.000194
3809.73	0.00036389
3819.38	0.00040207
3829.02	0.000215
3838.67	0.0005057
3848.31	0.000345829
3857.96	0.0006012
3867.6	0.0002965
3877.25	0.000339566
3886.89	0.0004722
3896.54	0.0004776
3906.18	0.0006018
3915.83	0.0005877
3925.47	0.00034802
3935.12	0.0002818
3944.76	9.3e-05
3954.41	0.000184
3964.05	0.0004686
3973.69	0.0004434
3983.34	0.0002838
3992.98	0.000217
