Infrared Spectrum: 6-Methyl-2-heptanol
Formula: C8 H18 O
CAS: 67952-57-2
State: gas
Origin: EPA-IR VAPOR PHASE LIBRARY
1/CM	ABSORBANCE
549.8	0.0007471
559.445	0.0005127
569.09	0.0007005
578.734	0.000561
588.379	0.0005215
598.024	0.0005139
607.669	0.0004701
617.313	0.0004923
626.958	0.0003846
636.603	0.0004375
646.248	0.000445
655.893	0.00011243
665.537	0.0002829
675.182	0.0003103
684.827	0.0002305
694.472	0.0005128
704.116	0.0004823
713.761	0.000595
723.406	0.0007606
733.051	0.0008862
742.695	0.0006745
752.34	0.0005659
761.985	0.000646
771.63	0.000572
781.275	0.0007183
790.919	0.0008572
800.564	0.001081
810.209	0.0012338
819.854	0.0013938
829.498	0.0014538
839.143	0.0015438
848.788	0.0020038
858.433	0.0023138
868.078	0.0017238
877.722	0.0015038
887.367	0.0015238
897.012	0.0022038
906.657	0.0032138
916.301	0.0038638
925.946	0.0044238
935.591	0.0046438
945.236	0.0048138
954.88	0.0048038
964.525	0.0051838
974.17	0.0054438
983.815	0.0045938
993.46	0.0038938
1003.1	0.0035438
1012.75	0.0038038
1022.39	0.0045238
1032.04	0.0055338
1041.68	0.0065938
1051.33	0.0072138
1060.97	0.0077738
1070.62	0.0079138
1080.26	0.0081438
1089.91	0.0089938
1099.55	0.0090938
1109.2	0.0082238
1118.84	0.0078038
1128.49	0.0084838
1138.13	0.0091838
1147.78	0.0080538
1157.42	0.0065238
1167.07	0.0054138
1176.71	0.0043438
1186.36	0.0040338
1196	0.0041238
1205.64	0.0046438
1215.29	0.0047638
1224.93	0.0055338
1234.58	0.0063238
1244.22	0.0069038
1253.87	0.0061538
1263.51	0.0049238
1273.16	0.0042038
1282.8	0.0037338
1292.45	0.0035838
1302.09	0.0034738
1311.74	0.0036038
1321.38	0.0039638
1331.03	0.0047538
1340.67	0.0055438
1350.32	0.0064338
1359.96	0.0084338
1369.61	0.0115038
1379.25	0.0138938
1388.9	0.0128738
1398.54	0.0083938
1408.18	0.0050338
1417.83	0.0037138
1427.47	0.0035338
1437.12	0.0042538
1446.76	0.0059838
1456.41	0.0080338
1466.05	0.0089538
1475.7	0.0070938
1485.34	0.0040538
1494.99	0.0021838
1504.63	0.0013538
1514.28	0.0010263
1523.92	0.0007894
1533.57	0.0005619
1543.21	0.0004932
1552.86	0.0004807
1562.5	0.0004797
1572.15	0.0003989
1581.79	0.0004184
1591.44	0.0003627
1601.08	0.0004344
1610.73	0.0003072
1620.37	0.000392
1630.01	0.0003583
1639.66	0.0002891
1649.3	0.0003308
1658.95	0.0003097
1668.59	0.0003305
1678.24	0.0003294
1687.88	0.0003292
1697.53	0.0002521
1707.17	0.0003202
1716.82	0.0001989
1726.46	0.0002147
1736.11	0.0002001
1745.75	0.00016628
1755.4	0.00018728
1765.04	0.0002241
1774.69	0.0002403
1784.33	0.00016471
1793.98	0.00017474
1803.62	0.0002397
1813.27	0.0002019
1822.91	0.00018311
1832.55	0.00019175
1842.2	0.00019273
1851.84	0.0002426
1861.49	0.0001951
1871.13	0.0002058
1880.78	0.0002114
1890.42	0.0002082
1900.07	0.00016367
1909.71	0.00016593
1919.36	0.00015736
1929	0.000134
1938.65	0.00010806
1948.29	0.00018937
1957.94	0.00014741
1967.58	0.00015197
1977.23	0.00015209
1986.87	0.0001962
1996.52	0.00012708
2006.16	0.00013332
2015.81	0.00013685
2025.45	0.0001511
2035.1	0.000218
2044.74	0.00015408
2054.38	0.00014127
2064.03	0.00018419
2073.67	0.00016276
2083.32	0.0002193
2092.96	0.0002453
2102.61	0.00017625
2112.25	0.00019194
2121.9	0.00017239
2131.54	0.0001662
2141.19	0.0001985
2150.83	0.00019037
2160.48	0.0002444
2170.12	0.0002712
2179.77	0.000237
2189.41	0.000215
2199.06	0.0002192
2208.7	0.0002
2218.35	0.0002252
2227.99	0.0002217
2237.64	0.0002155
2247.28	0.00019378
2256.92	0.00017804
2266.57	0.0002075
2276.21	0.000234
2285.86	0.0002767
2295.5	0.0002874
2305.15	0.0002739
2314.79	0.0003017
2324.44	0.0002771
2334.08	0.0003126
2343.73	0.0002159
2353.37	0.0002747
2363.02	0.0003216
2372.66	0.0002544
2382.31	0.0003079
2391.95	0.0002617
2401.6	0.0002715
2411.24	0.0003545
2420.89	0.0003093
2430.53	0.0003121
2440.18	0.0003624
2449.82	0.0002917
2459.47	0.0003056
2469.11	0.0003302
2478.75	0.0003637
2488.4	0.0003253
2498.04	0.0003206
2507.69	0.0003627
2517.33	0.0003696
2526.98	0.0003569
2536.62	0.0003368
2546.27	0.000359
2555.91	0.0004048
2565.56	0.000562
2575.2	0.0005058
2584.85	0.0005782
2594.49	0.0006201
2604.14	0.0008046
2613.78	0.0008729
2623.43	0.000942
2633.07	0.001066
2642.72	0.0010164
2652.36	0.0010086
2662.01	0.0011238
2671.65	0.0010568
2681.29	0.0010648
2690.94	0.0010938
2700.58	0.0010788
2710.23	0.0012538
2719.87	0.0014238
2729.52	0.0016038
2739.16	0.0016138
2748.81	0.0015038
2758.45	0.0016638
2768.1	0.0017938
2777.74	0.0018438
2787.39	0.0020538
2797.03	0.0025538
2806.68	0.0029138
2816.32	0.0036338
2825.97	0.0048638
2835.61	0.0069638
2845.26	0.0108938
2854.9	0.0161938
2864.55	0.0213338
2874.19	0.0280138
2883.84	0.0312038
2893.48	0.0310338
2903.12	0.0349838
2912.77	0.0418238
2922.41	0.0477938
2932.06	0.0544238
2941.7	0.0548138
2951.35	0.0536238
2960.99	0.0665538
2970.64	0.0633538
2980.28	0.0367838
2989.93	0.0172438
2999.57	0.0078138
3009.22	0.0044338
3018.86	0.0030038
3028.51	0.0022938
3038.15	0.0018438
3047.8	0.0016738
3057.44	0.0015538
3067.09	0.0015338
3076.73	0.0014738
3086.38	0.0013538
3096.02	0.0012938
3105.67	0.0012038
3115.31	0.0010286
3124.95	0.0008742
3134.6	0.0010472
3144.24	0.0009479
3153.89	0.0007892
3163.53	0.0009248
3173.18	0.0009393
3182.82	0.0008966
3192.47	0.0008575
3202.11	0.0008539
3211.76	0.0005285
3221.4	0.0006038
3231.05	0.0004228
3240.69	0.0002909
3250.34	0.0002868
3259.98	0.0003231
3269.63	0.00016838
3279.27	0.0002778
3288.92	0.0003907
3298.56	0.0003475
3308.21	0.0002436
3317.85	0.0002572
3327.49	0.0002575
3337.14	0.0002488
3346.78	0.0003177
3356.43	0.0004071
3366.07	0.0003241
3375.72	0.0003406
3385.36	0.0002682
3395.01	0.0003223
3404.65	0.0003275
3414.3	0.0003424
3423.94	0.0004062
3433.59	0.0002867
3443.23	0.0004065
3452.88	0.0002929
3462.52	0.0003724
3472.17	0.0003841
3481.81	0.00016887
3491.46	0.0002714
3501.1	0.0002099
3510.75	7.52e-05
3520.39	0.00015945
3530.04	0.0003356
3539.68	0.0002152
3549.32	4.74e-05
3558.97	0.000254
3568.61	0.00010458
3578.26	0.000336
3587.9	0.0002932
3597.55	0.0002025
3607.19	0.0003844
3616.84	0.0007538
3626.48	0.0012238
3636.13	0.0019038
3645.77	0.0032538
3655.42	0.0040538
3665.06	0.0030638
3674.71	0.0015138
3684.35	0.0007121
3694	0.0004551
3703.64	0.0003772
3713.29	0.0005172
3722.93	0.0003283
3732.58	0.0001944
3742.22	0.0004025
3751.86	0.0002593
3761.51	9.3478e-05
3771.15	0.0003071
3780.8	0.00014941
3790.44	0.0004176
3800.09	0.000345
3809.73	0.0002879
3819.38	0.000499
3829.02	0.0005145
3838.67	0.0003946
3848.31	0.000435
3857.96	0.0002808
3867.6	0.0004433
3877.25	0.0003857
3886.89	0.0002918
3896.54	0.0003843
3906.18	9.207e-05
3915.83	0.0002639
3925.47	0.0002933
3935.12	0.0003499
3944.76	0.0004296
3954.41	0.0002503
3964.05	0.0003238
3973.69	0.0002309
3983.34	0.0002075
3992.98	6.64e-05
