Infrared Spectrum: Cyanocobalamin
Formula: C63 H88 Co N14 O14 P
CAS: 68-19-9
State: SOLID (0.51 mg / 200 mg KBr DISC)
Melting point: >300 C
Class: COBLENTZ III
Instrument: PERKIN-ELMER 21 (GRATING)
Path length: 0.055 CM (THICKNESS)
Resolution: 2
Origin: THE SQUIBB INSTITUTE FOR MEDICAL RESEARCH
1/CM	TRANSMITTANCE
662	0.2486
671	0.2589
680	0.2698
689	0.2804
698	0.2925
707	0.3012
716	0.3151
725	0.3198
734	0.3258
743	0.3403
752	0.3613
761	0.3667
770	0.3804
779	0.4212
788	0.4373
797	0.4469
806	0.4305
815	0.4485
824	0.4837
833	0.4872
842	0.4696
851	0.4534
860	0.4567
869	0.4142
878	0.4689
887	0.532
896	0.5451
905	0.5502
914	0.5932
923	0.5885
932	0.603
941	0.588
950	0.5695
959	0.5666
968	0.5338
977	0.4845
986	0.3916
995	0.3173
1004	0.3372
1013	0.404
1022	0.4181
1031	0.3964
1040	0.2996
1049	0.2426
1058	0.2288
1067	0.2173
1076	0.2072
1085	0.2123
1094	0.242
1103	0.2441
1112	0.2593
1121	0.2647
1130	0.2301
1139	0.1932
1148	0.209
1157	0.2335
1166	0.355
1175	0.3888
1184	0.3374
1193	0.2672
1202	0.2051
1211	0.1854
1220	0.2485
1229	0.3151
1238	0.3332
1247	0.4263
1256	0.4412
1265	0.4393
1274	0.4321
1283	0.4173
1292	0.4081
1301	0.3927
1310	0.3808
1319	0.3845
1328	0.3565
1337	0.3033
1346	0.2918
1355	0.3025
1364	0.2869
1373	0.2875
1382	0.2578
1391	0.2186
1400	0.2142
1409	0.2419
1418	0.2845
1427	0.3123
1436	0.3102
1445	0.3032
1454	0.3004
1463	0.2824
1472	0.2325
1481	0.2336
1490	0.1598
1499	0.1644
1508	0.2886
1517	0.4034
1526	0.397
1535	0.3428
1544	0.3135
1553	0.2273
1562	0.1981
1571	0.1631
1580	0.2579
1589	0.2539
1598	0.1629
1607	0.1045
1616	0.0964
1625	0.0895
1634	0.0563
1643	0.0454
1652	0.0397
1661	0.0382
1670	0.0456
1679	0.1168
1688	0.166
1697	0.3751
1706	0.4388
1715	0.5297
1724	0.564
1733	0.5931
1742	0.6229
1751	0.6469
1760	0.6648
1769	0.6797
1778	0.6916
1787	0.7022
1796	0.7115
1805	0.7192
1814	0.7262
1823	0.7317
1832	0.7349
1841	0.737
1850	0.7383
1859	0.7386
1868	0.7389
1877	0.7391
1886	0.7394
1895	0.739
1904	0.7384
1913	0.7365
1922	0.734
1931	0.7292
1940	0.7243
1949	0.7198
1958	0.7154
1967	0.711
1976	0.7066
1985	0.7026
1994	0.6987
2003	0.6945
2012	0.6895
2021	0.6847
2030	0.6797
2039	0.6748
2048	0.67
2057	0.6653
2066	0.6605
2075	0.6558
2084	0.6516
2093	0.6482
2102	0.6426
2111	0.6235
2120	0.6062
2129	0.6272
2138	0.6446
2147	0.6465
2156	0.6466
2165	0.6464
2174	0.646
2183	0.6461
2192	0.646
2201	0.6455
2210	0.6449
2219	0.6441
2228	0.6432
2237	0.6419
2246	0.6406
2255	0.6392
2264	0.6378
2273	0.6347
2282	0.6324
2291	0.6303
2300	0.629
2309	0.6295
2318	0.6298
2327	0.6298
2336	0.6291
2345	0.6284
2354	0.6276
2363	0.6257
2372	0.6236
2381	0.6212
2390	0.6188
2399	0.6164
2408	0.6142
2417	0.6119
2426	0.6093
2435	0.6067
2444	0.6042
2453	0.6018
2462	0.5995
2471	0.5971
2480	0.5945
2489	0.592
2498	0.5893
2507	0.5863
2516	0.5833
2525	0.58
2534	0.5761
2543	0.5723
2552	0.5685
2561	0.5642
2570	0.5598
2579	0.5555
2588	0.551
2597	0.5458
2606	0.5406
2615	0.5353
2624	0.5298
2633	0.5244
2642	0.5185
2651	0.5124
2660	0.5064
2669	0.5005
2678	0.495
2687	0.4895
2696	0.4841
2705	0.4787
2714	0.4731
2723	0.4666
2732	0.46
2741	0.4535
2750	0.4471
2759	0.4393
2768	0.4312
2777	0.423
2786	0.4147
2795	0.4064
2804	0.3981
2813	0.3881
2822	0.3694
2831	0.3567
2840	0.3448
2849	0.3323
2858	0.3185
2867	0.3044
2876	0.2884
2885	0.2795
2894	0.2726
2903	0.2698
2912	0.2689
2921	0.2685
2930	0.2685
2939	0.2689
2948	0.2708
2957	0.2726
2966	0.273
2975	0.2705
2984	0.2652
2993	0.2588
3002	0.2506
3011	0.2399
3020	0.2259
3029	0.2093
3038	0.1929
3047	0.1717
3056	0.1504
3065	0.1224
3074	0.1069
3083	0.0985
3092	0.0898
3101	0.0788
3110	0.0691
3119	0.0603
3128	0.0528
3137	0.0478
3146	0.045
3155	0.043
3164	0.0416
3173	0.0403
3182	0.0393
3191	0.0383
3200	0.0374
3209	0.0366
3218	0.0358
3227	0.0351
3236	0.0344
3245	0.0339
3254	0.0337
3263	0.0334
3272	0.0332
3281	0.0329
3290	0.0327
3299	0.0327
3308	0.0326
3317	0.0326
3326	0.0325
3335	0.0327
3344	0.0332
3353	0.0337
3362	0.0345
3371	0.0355
3380	0.0365
3389	0.0377
3398	0.0401
3407	0.0424
3416	0.0448
3425	0.0473
3434	0.0499
3443	0.0524
3452	0.0563
3461	0.0613
3470	0.0664
3479	0.072
3488	0.078
3497	0.0839
3506	0.0912
3515	0.099
3524	0.1067
3533	0.125
3542	0.1499
3551	0.1748
3560	0.2056
3569	0.2275
3578	0.239
3587	0.2505
3596	0.264
3605	0.2795
3614	0.3056
3623	0.3405
3632	0.3659
3641	0.3711
3650	0.3725
3659	0.3727
3668	0.3725
3677	0.3711
3686	0.3711
3695	0.3705
3704	0.3699
3713	0.3693
3722	0.3685
3731	0.3676
3740	0.3667
3749	0.3659
3758	0.3648
3767	0.3637
3776	0.3626
3785	0.3615
3794	0.3603
3803	0.3587
3812	0.3572
3821	0.3556
3830	0.3541
3839	0.3525
3848	0.3509
3857	0.3493
3866	0.3476
3875	0.3459
3884	0.3442
3893	0.3425
3902	0.3409
3911	0.3393
3920	0.3376
3929	0.3358
3938	0.3341
3947	0.3323
3956	0.3306
3965	0.3288
3974	0.3271
3983	0.3254
3992	0.3237
