Infrared Spectrum: 5(10)-ESTREN-3-ONE, 17Alpha-ETHYNYL-17Beta-HYDROXY-
Formula: C20 H26 O2
CAS: 68-23-5
State: SOLUTION 5% (CS2 FOR 2-15 microns)
Class: COBLENTZ III
Instrument: PERKIN-ELMER 21 (GRATING)
Instrument parameters: FILTER AT ABOUT 10 MICRONS
Sampling: TRANSMISSION
Path length: 0.039 CM
Resolution: 2
1/CM	TRANSMITTANCE
4000	0.9414
3991	0.9424
3982	0.9428
3973	0.9432
3964	0.9433
3955	0.943
3946	0.9427
3937	0.942
3928	0.9413
3919	0.9405
3910	0.9395
3901	0.939
3892	0.9387
3883	0.9384
3874	0.9381
3865	0.9378
3856	0.9377
3847	0.9375
3838	0.9374
3829	0.9375
3820	0.9375
3811	0.9375
3802	0.9377
3793	0.9377
3784	0.9375
3775	0.9375
3766	0.9375
3757	0.9375
3748	0.938
3739	0.9383
3730	0.9388
3721	0.9394
3712	0.94
3703	0.9408
3694	0.9415
3685	0.9421
3676	0.9425
3667	0.9428
3658	0.943
3649	0.9427
3640	0.942
3631	0.9143
3622	0.8797
3613	0.8449
3604	0.8099
3595	0.7815
3586	0.7836
3577	0.8243
3568	0.8653
3559	0.9007
3550	0.9159
3541	0.9249
3532	0.9303
3523	0.9336
3514	0.9364
3505	0.9385
3496	0.9401
3487	0.9414
3478	0.9421
3469	0.9424
3460	0.9423
3451	0.9403
3442	0.9374
3433	0.9365
3424	0.9381
3415	0.942
3406	0.9452
3397	0.9467
3388	0.9478
3379	0.9478
3370	0.9471
3361	0.945
3352	0.9357
3343	0.8349
3334	0.72
3325	0.7043
3316	0.7575
3307	0.8133
3298	0.8692
3289	0.9175
3280	0.9317
3271	0.94
3262	0.9452
3253	0.9474
3244	0.9492
3235	0.9513
3226	0.9539
3217	0.9555
3208	0.9539
3199	0.9506
3190	0.9467
3181	0.944
3172	0.9414
3163	0.9388
3154	0.9365
3145	0.9348
3136	0.9339
3127	0.9365
3118	0.9377
3109	0.9381
3100	0.9365
3091	0.933
3082	0.93
3073	0.9275
3064	0.9252
3055	0.9228
3046	0.9187
3037	0.9113
3028	0.8971
3019	0.8602
3010	0.8043
3001	0.7449
2992	0.6851
2983	0.6251
2974	0.5646
2965	0.5176
2956	0.4472
2947	0.4087
2938	0.4068
2929	0.4086
2920	0.4308
2911	0.4512
2902	0.4653
2893	0.4755
2884	0.4769
2875	0.479
2866	0.4906
2857	0.506
2848	0.6283
2839	0.656
2830	0.6806
2821	0.7101
2812	0.753
2803	0.7945
2794	0.8268
2785	0.8474
2776	0.8645
2767	0.8778
2758	0.8853
2749	0.8916
2740	0.896
2731	0.899
2722	0.901
2713	0.9018
2704	0.9025
2695	0.9028
2686	0.9031
2677	0.9037
2668	0.9043
2659	0.9057
2650	0.9071
2641	0.9086
2632	0.9103
2623	0.912
2614	0.9138
2605	0.9152
2596	0.9163
2587	0.9174
2578	0.9185
2569	0.9193
2560	0.92
2551	0.9207
2542	0.9211
2533	0.9216
2524	0.9216
2515	0.9214
2506	0.9228
2497	0.926
2488	0.9292
2479	0.9303
2470	0.9313
2461	0.9318
2452	0.932
2443	0.9318
2434	0.9314
2425	0.9316
2416	0.9321
2407	0.9337
2398	0.9374
2389	0.9425
2380	0.9475
2371	0.9487
2362	0.9488
2353	0.9486
2344	0.9482
2335	0.9478
2326	0.9471
2317	0.9468
2308	0.9471
2299	0.9504
2290	0.957
2281	0.9639
2272	0.9691
2263	0.9701
2254	0.9698
2245	0.97
2236	0.9718
2227	0.9751
2218	0.9781
2209	0.9817
2200	0.985
2191	0.9867
2182	0.9854
2173	0.9821
2164	0.9781
2155	0.9782
2146	0.98
2137	0.9828
2128	0.9841
2119	0.9846
2110	0.9847
2101	0.9839
2092	0.9806
2083	0.9775
2074	0.974
2065	0.9711
2056	0.9689
2047	0.9675
2038	0.9668
2029	0.9667
2020	0.9674
2011	0.9699
2002	0.9733
1993	0.9687
1984	0.9678
1975	0.9701
1966	0.9737
1957	0.9733
1948	0.9725
1939	0.9721
1930	0.9724
1921	0.9728
1912	0.9737
1903	0.9741
1894	0.974
1885	0.9735
1876	0.9742
1867	0.975
1858	0.9711
1849	0.9717
1840	0.9711
1831	0.9693
1822	0.9673
1813	0.9631
1804	0.961
1795	0.9578
1786	0.9506
1777	0.9377
1768	0.916
1759	0.88
1750	0.7617
1741	0.6324
1732	0.1822
1723	0.348
1714	0.6674
1705	0.8001
1696	0.8563
1687	0.8748
1678	0.9082
1669	0.9347
1660	0.951
1651	0.9608
1642	0.9683
1633	0.9794
1624	0.9842
1615	0.9947
1606	0.989
1597	0.9909
1588	0.9978
1579	1.0018
1570	1.0037
1561	1.0025
1552	1.0041
1543	1.0094
1534	1.0162
1525	1.0227
1516	1.0267
1507	1.0268
1498	1.0271
1489	1.0283
1480	1.0266
1471	1.0245
1462	1.0258
1453	1.0228
1444	1.0209
1435	1.024
1426	1.0285
1417	1.0304
1408	1.0288
1399	1.0173
1390	0.9746
1381	0.7851
1372	0.8277
1363	0.8668
1354	0.8461
1345	0.7267
1336	0.7156
1327	0.7397
1318	0.763
1309	0.7975
1300	0.7826
1291	0.7219
1282	0.7768
1273	0.822
1264	0.8114
1255	0.7197
1246	0.6854
1237	0.705
1228	0.7851
1219	0.81
1210	0.8025
1201	0.8193
1192	0.79
1183	0.8309
1174	0.8707
1165	0.8707
1156	0.9002
1147	0.8761
1138	0.7585
1129	0.8075
1120	0.8308
1111	0.8464
1102	0.8747
1093	0.8937
1084	0.9028
1075	0.8809
1066	0.8218
1057	0.7071
1048	0.5181
1039	0.6775
1030	0.6198
1021	0.669
1012	0.6392
1003	0.7245
994	0.8026
985	0.8559
976	0.8825
967	0.8578
958	0.8496
949	0.922
940	0.9432
931	0.933
922	0.9478
913	0.9182
904	0.9512
895	0.9631
886	0.959
877	0.9427
868	0.9409
859	0.9523
850	0.9671
841	0.9132
832	0.9585
823	0.9694
814	0.9685
805	0.9737
796	0.9771
787	0.9728
778	0.9633
769	0.9691
760	1.0085
751	1.0007
742	0.989
733	0.9915
724	0.9986
715	1.0001
706	0.9899
697	0.9802
688	0.9892
679	0.9758
670	0.9625
