Infrared Spectrum: 17-ETHINYL-19-nor-TESTOSTERONE
Formula: C20 H26 O2
CAS: 68-22-4
State: SOLID (KBr DISC) VS KBr
Class: COBLENTZ III
Instrument: PERKIN-ELMER 21 (GRATING)
Instrument parameters: FILTER AT ABOUT 10 MICRONS
Sampling: TRANSMISSION
Resolution: 2
1/CM	TRANSMITTANCE
4000	0.9088
3991	0.9093
3982	0.9097
3973	0.9102
3964	0.9107
3955	0.9112
3946	0.9117
3937	0.9121
3928	0.9127
3919	0.9131
3910	0.9137
3901	0.9142
3892	0.9147
3883	0.9152
3874	0.9157
3865	0.9162
3856	0.9167
3847	0.9171
3838	0.9178
3829	0.9184
3820	0.919
3811	0.9196
3802	0.9203
3793	0.9208
3784	0.9216
3775	0.9225
3766	0.924
3757	0.9274
3748	0.9291
3739	0.9292
3730	0.9294
3721	0.9295
3712	0.9297
3703	0.9299
3694	0.93
3685	0.9303
3676	0.9306
3667	0.9309
3658	0.9311
3649	0.9315
3640	0.9317
3631	0.932
3622	0.9323
3613	0.9324
3604	0.9327
3595	0.9328
3586	0.9331
3577	0.9332
3568	0.9334
3559	0.9335
3550	0.9334
3541	0.9318
3532	0.93
3523	0.9278
3514	0.9228
3505	0.8963
3496	0.8706
3487	0.8651
3478	0.8595
3469	0.8482
3460	0.8356
3451	0.8195
3442	0.7792
3433	0.7318
3424	0.6843
3415	0.6424
3406	0.6398
3397	0.64
3388	0.6439
3379	0.6455
3370	0.6398
3361	0.6112
3352	0.581
3343	0.5742
3334	0.5762
3325	0.6018
3316	0.6292
3307	0.6568
3298	0.6604
3289	0.6574
3280	0.5928
3271	0.5112
3262	0.4896
3253	0.5042
3244	0.587
3235	0.6771
3226	0.799
3217	0.8206
3208	0.8344
3199	0.8443
3190	0.8541
3181	0.8625
3172	0.8692
3163	0.8759
3154	0.8825
3145	0.8888
3136	0.8952
3127	0.9007
3118	0.9061
3109	0.9091
3100	0.9113
3091	0.9135
3082	0.9154
3073	0.9164
3064	0.9171
3055	0.9178
3046	0.9182
3037	0.9175
3028	0.9154
3019	0.9121
3010	0.8916
3001	0.8638
2992	0.8238
2983	0.7428
2974	0.641
2965	0.5825
2956	0.5526
2947	0.506
2938	0.4557
2929	0.4614
2920	0.5006
2911	0.5406
2902	0.5807
2893	0.6202
2884	0.6215
2875	0.5874
2866	0.5525
2857	0.5214
2848	0.5588
2839	0.6388
2830	0.6968
2821	0.7178
2812	0.8071
2803	0.8359
2794	0.8475
2785	0.856
2776	0.8636
2767	0.8684
2758	0.8731
2749	0.8778
2740	0.8821
2731	0.8863
2722	0.8906
2713	0.8947
2704	0.8982
2695	0.9011
2686	0.9041
2677	0.9071
2668	0.91
2659	0.9125
2650	0.9152
2641	0.9177
2632	0.9204
2623	0.923
2614	0.9255
2605	0.9277
2596	0.93
2587	0.9321
2578	0.9344
2569	0.9366
2560	0.9384
2551	0.94
2542	0.9415
2533	0.9428
2524	0.9444
2515	0.946
2506	0.9471
2497	0.9483
2488	0.9496
2479	0.9507
2470	0.9518
2461	0.9528
2452	0.9539
2443	0.955
2434	0.9561
2425	0.9562
2416	0.9563
2407	0.9564
2398	0.9565
2389	0.9565
2380	0.9566
2371	0.9571
2362	0.9575
2353	0.958
2344	0.9585
2335	0.9589
2326	0.9596
2317	0.9603
2308	0.961
2299	0.9617
2290	0.9628
2281	0.9663
2272	0.9691
2263	0.9705
2254	0.9705
2245	0.9709
2236	0.9727
2227	0.9744
2218	0.9754
2209	0.9764
2200	0.9774
2191	0.9784
2182	0.9792
2173	0.98
2164	0.9809
2155	0.9816
2146	0.9821
2137	0.982
2128	0.9816
2119	0.9788
2110	0.9768
2101	0.9785
2092	0.9809
2083	0.9825
2074	0.9843
2065	0.9862
2056	0.9883
2047	0.9892
2038	0.9878
2029	0.987
2020	0.9867
2011	0.9864
2002	0.9862
1993	0.9859
1984	0.9865
1975	0.9878
1966	0.9891
1957	0.9905
1948	0.992
1939	0.9936
1930	0.9952
1921	0.9963
1912	0.9974
1903	0.9985
1894	0.9994
1885	1.0002
1876	1.0009
1867	1.0015
1858	1.0014
1849	1.0013
1840	1.001
1831	1.0003
1822	0.9997
1813	0.9997
1804	0.9996
1795	0.9995
1786	0.9992
1777	0.9991
1768	0.9918
1759	0.9837
1750	0.9723
1741	0.9544
1732	0.9574
1723	0.9563
1714	0.9215
1705	0.8585
1696	0.7606
1687	0.6939
1678	0.6307
1669	0.3304
1660	0.1567
1651	0.2779
1642	0.4362
1633	0.5631
1624	0.6204
1615	0.5664
1606	0.8111
1597	0.8728
1588	0.8935
1579	0.9134
1570	0.9368
1561	0.9468
1552	0.9504
1543	0.9525
1534	0.9537
1525	0.9555
1516	0.959
1507	0.9635
1498	0.962
1489	0.957
1480	0.9283
1471	0.8235
1462	0.8139
1453	0.7251
1444	0.7832
1435	0.8018
1426	0.7805
1417	0.7736
1408	0.8252
1399	0.7844
1390	0.6987
1381	0.6555
1372	0.6805
1363	0.6858
1354	0.8021
1345	0.7898
1336	0.7271
1327	0.8161
1318	0.8728
1309	0.8981
1300	0.8218
1291	0.7957
1282	0.8586
1273	0.7284
1264	0.6668
1255	0.8244
1246	0.8574
1237	0.8318
1228	0.8615
1219	0.8591
1210	0.7476
1201	0.7571
1192	0.8358
1183	0.8936
1174	0.9017
1165	0.8996
1156	0.8857
1147	0.8418
1138	0.7558
1129	0.686
1120	0.862
1111	0.8165
1102	0.8934
1093	0.9071
1084	0.863
1075	0.7085
1066	0.4817
1057	0.5612
1048	0.7539
1039	0.7846
1030	0.8771
1021	0.8636
1012	0.8371
1003	0.8835
994	0.9323
985	0.9352
976	0.8545
967	0.8812
958	0.9173
949	0.9704
940	0.9878
931	0.9751
922	0.9461
913	0.9767
904	0.9909
895	0.9801
886	0.8513
877	0.7745
868	0.8941
859	0.9802
850	0.9709
841	0.9938
832	0.9815
823	0.9938
814	0.9712
805	0.9993
796	1.0121
787	1.0051
778	0.9997
769	0.9789
760	0.9464
751	0.9764
742	0.9601
733	0.8523
724	0.7704
715	0.8118
706	0.7792
697	0.7787
688	0.7071
679	0.7599
