Infrared Spectrum: SULFADIAZINE
Formula: C10 H10 N4 O2 S
CAS: 68-35-9
State: SOLID (1 mg / 200 mg KBr DISC) VS KBr
Melting point: 252-256 C
Class: COBLENTZ III
Instrument: PERKIN-ELMER 21 (GRATING)
Instrument parameters: FILTER AT ABOUT 10 MICRONS
Sampling: TRANSMISSION
Path length: 0.055 CM (THICKNESS)
Resolution: 2
1/CM	TRANSMITTANCE
4000	0.7207
3991	0.7204
3982	0.7203
3973	0.72
3964	0.7199
3955	0.7201
3946	0.7203
3937	0.7205
3928	0.7212
3919	0.7232
3910	0.7264
3901	0.7318
3892	0.7357
3883	0.7376
3874	0.7378
3865	0.738
3856	0.7386
3847	0.7394
3838	0.7403
3829	0.7411
3820	0.7419
3811	0.7428
3802	0.7438
3793	0.7448
3784	0.7458
3775	0.7468
3766	0.748
3757	0.7491
3748	0.7503
3739	0.7515
3730	0.7528
3721	0.7542
3712	0.7556
3703	0.7569
3694	0.7584
3685	0.76
3676	0.7615
3667	0.763
3658	0.7646
3649	0.7661
3640	0.7675
3631	0.7686
3622	0.7698
3613	0.7708
3604	0.7711
3595	0.7714
3586	0.7708
3577	0.7699
3568	0.7689
3559	0.7672
3550	0.7654
3541	0.7635
3532	0.7617
3523	0.7595
3514	0.7574
3505	0.7551
3496	0.7525
3487	0.75
3478	0.7474
3469	0.7381
3460	0.7233
3451	0.7108
3442	0.6948
3433	0.6628
3424	0.5917
3415	0.5188
3406	0.4454
3397	0.3912
3388	0.398
3379	0.4196
3370	0.4417
3361	0.4259
3352	0.353
3343	0.2776
3334	0.2849
3325	0.4062
3316	0.5169
3307	0.544
3298	0.5688
3289	0.5924
3280	0.5931
3271	0.5839
3262	0.5658
3253	0.5476
3244	0.5327
3235	0.5337
3226	0.5479
3217	0.563
3208	0.5781
3199	0.5933
3190	0.6086
3181	0.6241
3172	0.6283
3163	0.6277
3154	0.6177
3145	0.6047
3136	0.5914
3127	0.5753
3118	0.5573
3109	0.5062
3100	0.4517
3091	0.4234
3082	0.4134
3073	0.4055
3064	0.4012
3055	0.4021
3046	0.406
3037	0.4064
3028	0.3897
3019	0.3793
3010	0.3846
3001	0.4114
2992	0.4394
2983	0.4677
2974	0.496
2965	0.5201
2956	0.521
2947	0.5192
2938	0.4817
2929	0.4469
2920	0.4412
2911	0.4398
2902	0.4466
2893	0.4566
2884	0.4572
2875	0.4252
2866	0.3914
2857	0.3577
2848	0.351
2839	0.3541
2830	0.3598
2821	0.3634
2812	0.3612
2803	0.3554
2794	0.353
2785	0.3584
2776	0.3809
2767	0.404
2758	0.4154
2749	0.4172
2740	0.407
2731	0.3937
2722	0.3871
2713	0.3864
2704	0.3924
2695	0.411
2686	0.4265
2677	0.4422
2668	0.4595
2659	0.475
2650	0.4858
2641	0.5046
2632	0.5265
2623	0.5406
2614	0.5533
2605	0.5643
2596	0.5754
2587	0.5869
2578	0.5993
2569	0.6127
2560	0.6274
2551	0.6421
2542	0.6565
2533	0.6701
2524	0.6868
2515	0.6883
2506	0.6918
2497	0.7045
2488	0.7174
2479	0.7205
2470	0.7267
2461	0.7351
2452	0.7421
2443	0.7472
2434	0.7498
2425	0.7507
2416	0.7511
2407	0.7545
2398	0.7605
2389	0.7678
2380	0.7745
2371	0.7775
2362	0.7786
2353	0.7795
2344	0.781
2335	0.7833
2326	0.788
2317	0.7933
2308	0.7999
2299	0.8054
2290	0.8064
2281	0.8071
2272	0.8089
2263	0.8115
2254	0.8148
2245	0.818
2236	0.8217
2227	0.8262
2218	0.8311
2209	0.8353
2200	0.8375
2191	0.8371
2182	0.8377
2173	0.8402
2164	0.8412
2155	0.8433
2146	0.8477
2137	0.8532
2128	0.8574
2119	0.8605
2110	0.8602
2101	0.8597
2092	0.8599
2083	0.8618
2074	0.865
2065	0.8673
2056	0.8667
2047	0.8645
2038	0.8608
2029	0.8578
2020	0.8583
2011	0.8598
2002	0.8611
1993	0.8621
1984	0.8618
1975	0.8594
1966	0.8577
1957	0.8611
1948	0.8645
1939	0.863
1930	0.8624
1921	0.8624
1912	0.8628
1903	0.8634
1894	0.8682
1885	0.8771
1876	0.8804
1867	0.8814
1858	0.8797
1849	0.878
1840	0.878
1831	0.8792
1822	0.8806
1813	0.8802
1804	0.8783
1795	0.8753
1786	0.8725
1777	0.8735
1768	0.8774
1759	0.882
1750	0.8871
1741	0.8859
1732	0.872
1723	0.8706
1714	0.8697
1705	0.8635
1696	0.8467
1687	0.8075
1678	0.7611
1669	0.5416
1660	0.3694
1651	0.3759
1642	0.5112
1633	0.5712
1624	0.5908
1615	0.5699
1606	0.2759
1597	0.0373
1588	0.0391
1579	0.1067
1570	0.3526
1561	0.48
1552	0.6275
1543	0.6451
1534	0.6521
1525	0.6072
1516	0.4229
1507	0.1684
1498	0.0549
1489	0.066
1480	0.2568
1471	0.4605
1462	0.5539
1453	0.5028
1444	0.0862
1435	0.3718
1426	0.5551
1417	0.4164
1408	0.2781
1399	0.5512
1390	0.6635
1381	0.7078
1372	0.7367
1363	0.7343
1354	0.6839
1345	0.33
1336	0.2387
1327	0.0409
1318	0.0852
1309	0.2222
1300	0.4026
1291	0.561
1282	0.6522
1273	0.694
1264	0.4543
1255	0.6079
1246	0.7011
1237	0.7568
1228	0.7641
1219	0.7643
1210	0.7811
1201	0.7767
1192	0.7007
1183	0.5088
1174	0.4619
1165	0.1976
1156	0.0301
1147	0.0679
1138	0.2241
1129	0.4136
1120	0.5508
1111	0.6078
1102	0.4674
1093	0.1833
1084	0.4365
1075	0.5982
1066	0.6767
1057	0.7299
1048	0.7435
1039	0.7418
1030	0.7665
1021	0.7811
1012	0.7749
1003	0.7415
994	0.6808
985	0.7818
976	0.7792
967	0.755
958	0.6955
949	0.2167
940	0.1016
931	0.4692
922	0.6694
913	0.7526
904	0.7807
895	0.7869
886	0.7794
877	0.7668
868	0.7384
859	0.618
850	0.4018
841	0.2438
832	0.4404
823	0.3155
814	0.5043
805	0.4178
796	0.1417
787	0.561
778	0.6264
769	0.6154
760	0.5788
751	0.5226
742	0.4895
733	0.4723
724	0.415
715	0.3914
706	0.4817
697	0.3257
688	0.1704
679	0.123
670	0.3997
