Infrared Spectrum: Alpha,Alpha,Alpha,Alpha',Alpha',Alpha'-HEXACHLORO-p-XYLENE
Formula: C8 H4 Cl6
CAS: 68-36-0
State: SOLUTION (10% CCl4 FOR 5000-1330, 10% CS2 FOR 1330-625 CM^-^1)
Class: COBLENTZ
Instrument: Not specified, most likely a prism, grating, or hybrid spectrometer.
Sampling: TRANSMISSION
Path length: 0.0114 CM, 0.0108 CM
Resolution: 4
Origin: DOW CHEMICAL COMPANY
MICROMETERS	TRANSMITTANCE
2.027	0.838
2.06806	0.838
2.10911	0.84
2.15017	0.85
2.19122	0.852
2.23228	0.852
2.27333	0.86
2.31439	0.86
2.35544	0.865
2.3965	0.865
2.43756	0.871
2.47861	0.879
2.51967	0.876
2.56072	0.879
2.60178	0.884
2.64283	0.884
2.68389	0.878
2.72494	0.883
2.766	0.867
2.80706	0.857
2.84811	0.853
2.88917	0.841
2.93022	0.836
2.97128	0.841
3.01233	0.838
3.05339	0.835
3.09445	0.823
3.1355	0.814
3.17656	0.812
3.21761	0.821
3.25867	0.823
3.29972	0.831
3.34078	0.848
3.38183	0.862
3.42289	0.876
3.46395	0.879
3.505	0.876
3.54606	0.871
3.58711	0.886
3.62817	0.896
3.66922	0.902
3.71028	0.903
3.75133	0.908
3.79239	0.912
3.83345	0.919
3.8745	0.92
3.91556	0.924
3.95661	0.922
3.99767	0.938
4.03872	0.941
4.07978	0.938
4.12083	0.926
4.16189	0.927
4.20295	0.908
4.244	0.914
4.28506	0.919
4.32611	0.919
4.36717	0.924
4.40822	0.943
4.44928	0.95
4.49033	0.953
4.53139	0.953
4.57245	0.953
4.6135	0.953
4.65456	0.953
4.69561	0.951
4.73667	0.951
4.77772	0.951
4.81878	0.948
4.85983	0.951
4.90089	0.941
4.94195	0.943
4.983	0.946
5.02406	0.948
5.06511	0.95
5.10617	0.951
5.14722	0.948
5.18828	0.908
5.22934	0.95
5.27039	0.946
5.31145	0.955
5.3525	0.948
5.39356	0.95
5.43461	0.945
5.47567	0.95
5.51672	0.936
5.55778	0.943
5.59884	0.91
5.63989	0.945
5.68095	0.943
5.722	0.939
5.76306	0.943
5.80411	0.945
5.84517	0.939
5.88622	0.929
5.92728	0.891
5.96834	0.902
6.00939	0.915
6.05045	0.898
6.0915	0.9
6.13256	0.881
6.17361	0.85
6.21467	0.766
6.25572	0.68
6.29678	0.62
6.33784	0.592
6.37889	0.536
6.41995	0.46
6.461	0.462
6.50206	0.561
6.54311	0.616
6.58417	0.67
6.62522	0.692
6.66628	0.79
6.70734	0.821
6.74839	0.881
6.78945	0.896
6.8305	0.9
6.87156	0.898
6.91261	0.893
6.95367	0.879
6.99472	0.85
7.03578	0.719
7.07684	0.501
7.11789	0.439
7.15895	0.823
7.2	0.862
7.24106	0.857
7.28211	0.845
7.32317	0.828
7.36423	0.883
7.40528	0.914
7.44634	0.939
7.48739	0.941
7.52845	0.943
7.5695	0.929
7.61056	0.943
7.65161	0.941
7.69267	0.938
7.73373	0.943
7.77478	0.938
7.81584	0.931
7.85689	0.938
7.89795	0.936
7.939	0.92
7.98006	0.902
8.02111	0.907
8.06217	0.905
8.10323	0.888
8.14428	0.847
8.18534	0.793
8.22639	0.769
8.26745	0.718
8.3085	0.5
8.34956	0.252
8.39061	0.561
8.43167	0.833
8.47273	0.841
8.51378	0.9
8.55484	0.891
8.59589	0.903
8.63695	0.905
8.678	0.903
8.71906	0.903
8.76011	0.903
8.80117	0.91
8.84223	0.92
8.88328	0.927
8.92434	0.929
8.96539	0.934
9.00645	0.938
9.0475	0.938
9.08856	0.938
9.12961	0.938
9.17067	0.938
9.21173	0.936
9.25278	0.934
9.29384	0.934
9.33489	0.934
9.37595	0.929
9.417	0.919
9.45806	0.908
9.49912	0.919
9.54017	0.922
9.58123	0.929
9.62228	0.938
9.66334	0.932
9.70439	0.92
9.74545	0.85
9.7865	0.847
9.82756	0.931
9.86862	0.943
9.90967	0.948
9.95073	0.95
9.99178	0.953
10.0328	0.958
10.0739	0.958
10.1149	0.951
10.156	0.948
10.1971	0.946
10.2381	0.948
10.2792	0.95
10.3202	0.95
10.3613	0.95
10.4023	0.95
10.4434	0.95
10.4844	0.948
10.5255	0.945
10.5666	0.941
10.6076	0.941
10.6487	0.938
10.6897	0.929
10.7308	0.92
10.7718	0.92
10.8129	0.922
10.8539	0.917
10.895	0.91
10.9361	0.903
10.9771	0.902
11.0182	0.895
11.0592	0.89
11.1003	0.878
11.1413	0.865
11.1824	0.852
11.2234	0.823
11.2645	0.807
11.3056	0.788
11.3466	0.769
11.3877	0.747
11.4287	0.73
11.4698	0.697
11.5108	0.658
11.5519	0.592
11.5929	0.505
11.634	0.312
11.6751	0.152
11.7161	0.029
11.7572	0.072
11.7982	0.256
11.8393	0.415
11.8803	0.481
11.9214	0.5
11.9624	0.505
12.0035	0.51
12.0446	0.52
12.0856	0.541
12.1267	0.548
12.1677	0.549
12.2088	0.546
12.2498	0.539
12.2909	0.522
12.3319	0.486
12.373	0.443
12.4141	0.374
12.4551	0.266
12.4962	0.139
12.5372	0.041
12.5783	0
12.6193	0
12.6604	0.029
12.7015	0.094
12.7425	0.183
12.7836	0.276
12.8246	0.348
12.8657	0.395
12.9067	0.429
12.9478	0.45
12.9888	0.474
13.0299	0.479
13.071	0.469
13.112	0.45
13.1531	0.412
13.1941	0.376
13.2352	0.316
13.2762	0.264
13.3173	0.199
13.3583	0.132
13.3994	0.06
13.4405	0.012
13.4815	0
13.5226	0
13.5636	0
13.6047	0
13.6457	0.013
13.6868	0.072
13.7278	0.18
13.7689	0.3
13.81	0.417
13.851	0.494
13.8921	0.539
13.9331	0.573
13.9742	0.599
14.0152	0.608
14.0563	0.609
14.0973	0.608
14.1384	0.601
14.1795	0.597
14.2205	0.596
14.2616	0.601
14.3026	0.611
14.3437	0.621
14.3847	0.623
14.4258	0.621
14.4668	0.615
14.5079	0.606
14.549	0.601
14.59	0.599
14.6311	0.603
14.6721	0.609
14.7132	0.616
14.7542	0.62
14.7953	0.62
14.8363	0.618
14.8774	0.611
14.9185	0.599
14.9595	0.591
15.0006	0.592
15.0416	0.58
15.0827	0.57
15.1237	0.558
15.1648	0.548
15.2058	0.546
15.2469	0.537
15.288	0.532
15.329	0.524
15.3701	0.518
15.4111	0.515
15.4522	0.506
15.4932	0.501
15.5343	0.491
15.5753	0.482
15.6164	0.479
15.6575	0.472
15.6985	0.462
15.7396	0.458
15.7806	0.45
15.8217	0.448
15.8627	0.446
