Infrared Spectrum: HYDROXYZINE BASE
Formula: C21 H27 Cl N2 O2
CAS: 68-88-2
State: SOLUTION (CS2 FOR 2-5 AND 7.3-15 microns, AND C2Cl4 FOR 5-7.3 microns)
Class: COBLENTZ III
Instrument: PERKIN-ELMER 21 (GRATING)
Instrument parameters: FILTER AT ABOUT 10 MICRONS
Sampling: TRANSMISSION
Path length: 0.1 CM
Resolution: 2
1/CM	TRANSMITTANCE
4000	0.9536
3991	0.9541
3982	0.9542
3973	0.9543
3964	0.9544
3955	0.9545
3946	0.9546
3937	0.9548
3928	0.955
3919	0.9552
3910	0.9555
3901	0.956
3892	0.9567
3883	0.9574
3874	0.958
3865	0.9592
3856	0.9605
3847	0.9617
3838	0.963
3829	0.9642
3820	0.965
3811	0.965
3802	0.9651
3793	0.9651
3784	0.9648
3775	0.9642
3766	0.9636
3757	0.963
3748	0.962
3739	0.9609
3730	0.9597
3721	0.9585
3712	0.9571
3703	0.9557
3694	0.9542
3685	0.9521
3676	0.9491
3667	0.946
3658	0.9411
3649	0.935
3640	0.9257
3631	0.9063
3622	0.886
3613	0.8736
3604	0.8736
3595	0.8801
3586	0.8883
3577	0.8965
3568	0.9048
3559	0.9132
3550	0.9216
3541	0.9254
3532	0.9244
3523	0.9196
3514	0.914
3505	0.9075
3496	0.9012
3487	0.893
3478	0.8844
3469	0.8725
3460	0.8615
3451	0.8521
3442	0.8374
3433	0.8217
3424	0.8107
3415	0.8001
3406	0.7914
3397	0.7837
3388	0.7772
3379	0.7704
3370	0.7617
3361	0.7528
3352	0.7456
3343	0.7392
3334	0.7334
3325	0.7287
3316	0.7239
3307	0.7187
3298	0.7135
3289	0.7083
3280	0.7033
3271	0.6974
3262	0.6919
3253	0.6888
3244	0.6875
3235	0.6881
3226	0.69
3217	0.6928
3208	0.6984
3199	0.7061
3190	0.7214
3181	0.7415
3172	0.7555
3163	0.7658
3154	0.7747
3145	0.7803
3136	0.7814
3127	0.7747
3118	0.7542
3109	0.7391
3100	0.7268
3091	0.7203
3082	0.7311
3073	0.7396
3064	0.7058
3055	0.7106
3046	0.7531
3037	0.795
3028	0.8064
3019	0.7578
3010	0.6772
3001	0.5962
2992	0.5147
2983	0.4335
2974	0.3955
2965	0.365
2956	0.3264
2947	0.3253
2938	0.3256
2929	0.3477
2920	0.3747
2911	0.3921
2902	0.3916
2893	0.352
2884	0.3139
2875	0.3119
2866	0.3371
2857	0.3607
2848	0.3407
2839	0.2628
2830	0.1951
2821	0.1977
2812	0.2919
2803	0.417
2794	0.4519
2785	0.5097
2776	0.572
2767	0.6347
2758	0.6938
2749	0.7221
2740	0.7334
2731	0.735
2722	0.7321
2713	0.7333
2704	0.7588
2695	0.7982
2686	0.8325
2677	0.8521
2668	0.866
2659	0.8782
2650	0.8888
2641	0.8988
2632	0.9057
2623	0.9103
2614	0.9138
2605	0.9168
2596	0.9197
2587	0.9225
2578	0.9251
2569	0.9275
2560	0.9299
2551	0.9325
2542	0.9345
2533	0.9361
2524	0.9377
2515	0.9393
2506	0.9409
2497	0.9425
2488	0.9444
2479	0.9462
2470	0.948
2461	0.95
2452	0.9521
2443	0.9542
2434	0.9561
2425	0.9575
2416	0.9591
2407	0.9601
2398	0.9611
2389	0.9617
2380	0.9621
2371	0.9621
2362	0.9617
2353	0.961
2344	0.959
2335	0.9567
2326	0.954
2317	0.9524
2308	0.9517
2299	0.9524
2290	0.9541
2281	0.9575
2272	0.9621
2263	0.9663
2254	0.9675
2245	0.9674
2236	0.9673
2227	0.9671
2218	0.967
2209	0.9635
2200	0.9605
2191	0.9596
2182	0.9596
2173	0.9594
2164	0.958
2155	0.9554
2146	0.9501
2137	0.9439
2128	0.9423
2119	0.9453
2110	0.9567
2101	0.9631
2092	0.9671
2083	0.9695
2074	0.97
2065	0.9634
2056	0.9621
2047	0.9675
2038	0.9717
2029	0.9732
2020	0.9711
2011	0.9662
2002	0.963
1993	0.9618
1984	0.9605
1975	0.9425
1966	0.9286
1957	0.9218
1948	0.9346
1939	0.943
1930	0.9453
1921	0.9396
1912	0.9293
1903	0.9318
1894	0.939
1885	0.9534
1876	0.9671
1867	0.9707
1858	0.972
1849	0.9702
1840	0.9662
1831	0.9552
1822	0.9478
1813	0.9496
1804	0.9575
1795	0.9558
1786	0.9543
1777	0.9617
1768	0.958
1759	0.9624
1750	0.97
1741	0.9745
1732	0.9725
1723	0.9739
1714	0.9699
1705	0.9636
1696	0.9582
1687	0.9571
1678	0.9621
1669	0.9643
1660	0.9615
1651	0.9659
1642	0.9563
1633	0.9492
1624	0.9551
1615	0.8434
1606	0.8573
1597	0.919
1588	0.9409
1579	0.9527
1570	0.9639
1561	0.9698
1552	0.9701
1543	0.9698
1534	0.9674
1525	0.9544
1516	0.893
1507	0.6297
1498	0.328
1489	0.5536
1480	0.6793
1471	0.6237
1462	0.4219
1453	0.6407
1444	0.715
1435	0.7674
1426	0.78
1417	0.6551
1408	0.6871
1399	0.7608
1390	0.7098
1381	0.6785
1372	0.7006
1363	0.6514
1354	0.6467
1345	0.6243
1336	0.566
1327	0.6234
1318	0.5165
1309	0.3958
1300	0.4876
1291	0.4807
1282	0.524
1273	0.613
1264	0.6455
1255	0.7228
1246	0.7597
1237	0.7838
1228	0.7992
1219	0.8104
1210	0.7749
1201	0.7376
1192	0.601
1183	0.6886
1174	0.6521
1165	0.4045
1156	0.2827
1147	0.1901
1138	0.1706
1129	0.2631
1120	0.2876
1111	0.3868
1102	0.3522
1093	0.1894
1084	0.3673
1075	0.3712
1066	0.4094
1057	0.4512
1048	0.6045
1039	0.701
1030	0.7272
1021	0.5926
1012	0.2081
1003	0.583
994	0.8241
985	0.8515
976	0.8445
967	0.8158
958	0.6942
949	0.7401
940	0.6996
931	0.6847
922	0.7756
913	0.786
904	0.7597
895	0.7381
886	0.7805
877	0.7618
868	0.6682
859	0.6512
850	0.5877
841	0.6234
832	0.7753
823	0.7649
814	0.7197
805	0.3286
796	0.7167
787	0.8176
778	0.7643
769	0.769
760	0.5545
751	0.6544
742	0.8275
733	0.8124
724	0.8131
715	0.5467
706	0.5859
697	0.3737
688	0.7364
679	0.8736
