Infrared Spectrum: HYPOXANTHINE
Formula: C5 H4 N4 O
CAS: 68-94-0
State: SOLID (SPLIT MULL), FLUOROLUBE FOR 3800-1330 CM^-^1, NUJOL FOR 1330-450 CM^-^1
Class: COBLENTZ III
Instrument: DOW KBr FOREPRISM-GRATING
Instrument parameters: BLAZED AT 3.5, 12.0, 20.0 MICRON AND CHANGED AT 5.0, 7.5, 14.9 MICRON
Sampling: TRANSMISSION
Resolution: 2
Origin: DOW CHEMICAL COMPANY
1/CM	TRANSMITTANCE
453	0.8256
462	0.8307
471	0.838
480	0.8463
489	0.8496
498	0.8466
507	0.8393
516	0.821
525	0.6182
534	0.8278
543	0.8413
552	0.7058
561	0.5175
570	0.8049
579	0.8465
588	0.8515
597	0.8565
606	0.8524
615	0.8092
624	0.7368
633	0.4119
642	0.5497
651	0.7701
660	0.8446
669	0.8452
678	0.8349
687	0.8207
696	0.7556
705	0.8144
714	0.7776
723	0.749
732	0.7994
741	0.8236
750	0.8364
759	0.8356
768	0.8309
777	0.8258
786	0.7669
795	0.394
804	0.8072
813	0.8021
822	0.7935
831	0.7811
840	0.7588
849	0.7137
858	0.6664
867	0.6081
876	0.4756
885	0.2045
894	0.1659
903	0.31
912	0.3757
921	0.6152
930	0.6108
939	0.5725
948	0.5078
957	0.4438
966	0.1529
975	0.7087
984	0.7541
993	0.778
1002	0.784
1011	0.79
1020	0.7965
1029	0.8031
1038	0.8025
1047	0.8058
1056	0.8082
1065	0.7941
1074	0.7806
1083	0.7644
1092	0.7501
1101	0.7203
1110	0.7593
1119	0.7112
1128	0.5856
1137	0.1764
1146	0.37
1155	0.5056
1164	0.7393
1173	0.7462
1182	0.74
1191	0.6894
1200	0.5924
1209	0.3432
1218	0.3059
1227	0.6695
1236	0.7158
1245	0.7261
1254	0.7088
1263	0.6911
1272	0.3838
1281	0.6444
1290	0.6865
1299	0.7176
1308	0.7233
1317	0.7075
1326	0.6844
1335	0.552
1344	0.497
1353	0.6118
1362	0.5758
1371	0.6515
1380	0.6262
1389	0.6194
1398	0.6465
1407	0.6389
1416	0.5705
1425	0.7143
1434	0.7118
1443	0.6884
1452	0.6651
1461	0.6434
1470	0.6538
1479	0.7218
1488	0.7158
1497	0.7001
1506	0.6818
1515	0.669
1524	0.6619
1533	0.6497
1542	0.6383
1551	0.6115
1560	0.5715
1569	0.5267
1578	0.499
1587	0.5719
1596	0.5964
1605	0.5954
1614	0.5717
1623	0.5301
1632	0.4699
1641	0.4158
1650	0.3742
1659	0.3155
1668	0.2583
1677	0.296
1686	0.3647
1695	0.4468
1704	0.556
1713	0.6388
1722	0.7568
1731	0.831
1740	0.8705
1749	0.8675
1758	0.8555
1767	0.8534
1776	0.8571
1785	0.8511
1794	0.8435
1803	0.8362
1812	0.8328
1821	0.831
1830	0.8285
1839	0.8252
1848	0.8225
1857	0.8208
1866	0.8206
1875	0.8216
1884	0.823
1893	0.8227
1902	0.8194
1911	0.8196
1920	0.8274
1929	0.8328
1938	0.8321
1947	0.8306
1956	0.8281
1965	0.826
1974	0.8244
1983	0.8233
1992	0.7968
2001	0.8425
2010	0.8445
2019	0.8415
2028	0.8383
2037	0.8345
2046	0.8302
2055	0.8257
2064	0.8209
2073	0.816
2082	0.8111
2091	0.8058
2100	0.8004
2109	0.795
2118	0.7896
2127	0.7843
2136	0.7791
2145	0.7739
2154	0.7685
2163	0.7622
2172	0.7561
2181	0.7501
2190	0.744
2199	0.7378
2208	0.7318
2217	0.7256
2226	0.7194
2235	0.713
2244	0.7049
2253	0.6968
2262	0.6898
2271	0.6832
2280	0.6772
2289	0.6718
2298	0.6662
2307	0.6608
2316	0.6546
2325	0.6485
2334	0.6425
2343	0.6387
2352	0.6393
2361	0.6405
2370	0.64
2379	0.6376
2388	0.6348
2397	0.6319
2406	0.629
2415	0.6255
2424	0.6218
2433	0.6176
2442	0.6133
2451	0.6078
2460	0.6026
2469	0.5983
2478	0.5949
2487	0.5931
2496	0.5931
2505	0.5916
2514	0.5872
2523	0.5837
2532	0.581
2541	0.581
2550	0.5824
2559	0.5856
2568	0.5897
2577	0.5924
2586	0.5907
2595	0.5833
2604	0.5753
2613	0.5732
2622	0.573
2631	0.5733
2640	0.5743
2649	0.5747
2658	0.5747
2667	0.5737
2676	0.572
2685	0.5691
2694	0.5698
2703	0.5755
2712	0.5747
2721	0.5702
2730	0.5653
2739	0.5605
2748	0.5565
2757	0.5535
2766	0.5529
2775	0.5537
2784	0.5558
2793	0.5524
2802	0.5465
2811	0.5501
2820	0.5555
2829	0.5598
2838	0.5619
2847	0.5555
2856	0.5519
2865	0.5559
2874	0.5595
2883	0.5632
2892	0.567
2901	0.5701
2910	0.5712
2919	0.5633
2928	0.5601
2937	0.5651
2946	0.5764
2955	0.588
2964	0.6031
2973	0.6143
2982	0.6118
2991	0.61
3000	0.6087
3009	0.6116
3018	0.606
3027	0.5964
3036	0.5877
3045	0.5815
3054	0.5966
3063	0.6137
3072	0.6284
3081	0.6372
3090	0.6419
3099	0.6458
3108	0.6476
3117	0.6561
3126	0.6539
3135	0.6546
3144	0.6656
3153	0.679
3162	0.6875
3171	0.6947
3180	0.7004
3189	0.7061
3198	0.7124
3207	0.7196
3216	0.7271
3225	0.7315
3234	0.734
3243	0.734
3252	0.7337
3261	0.7341
3270	0.7375
3279	0.7403
3288	0.7435
3297	0.7425
3306	0.7404
3315	0.7378
3324	0.7375
3333	0.7398
3342	0.7425
3351	0.7439
3360	0.7436
3369	0.7431
3378	0.743
3387	0.743
3396	0.743
3405	0.7438
3414	0.7447
3423	0.7458
3432	0.7476
3441	0.7494
3450	0.7501
3459	0.7498
3468	0.7494
3477	0.7519
3486	0.7534
3495	0.7546
3504	0.7555
3513	0.7567
3522	0.7581
3531	0.7585
3540	0.7586
3549	0.7589
3558	0.76
3567	0.7556
3576	0.7505
3585	0.7588
3594	0.7541
3603	0.7569
3612	0.7561
3621	0.7554
3630	0.7547
3639	0.7539
3648	0.7525
3657	0.751
3666	0.7492
3675	0.7468
3684	0.7432
3693	0.7401
3702	0.7397
3711	0.7387
3720	0.7374
3729	0.7358
3738	0.7338
3747	0.7315
3756	0.7299
3765	0.7284
3774	0.7265
3783	0.7243
3792	0.7218
