Infrared Spectrum: Hexa(methoxymethyl)melamine
Formula: C 15 H 30 N 6 O 6
CAS: 68002-20-0
State: gas
Origin: EPA-IR VAPOR PHASE LIBRARY
1/CM	ABSORBANCE
501.5	0.0001755
513.074	0.0003607
524.648	0.000504
536.222	0.0004371
547.796	0.0005957
559.37	0.0006919
570.944	0.0009664
582.518	0.0012236
594.092	0.0017436
605.666	0.0026736
617.24	0.0040336
628.814	0.0065036
640.388	0.0089836
651.962	0.0072336
663.536	0.0040736
675.11	0.0024936
686.684	0.0018936
698.258	0.0016436
709.832	0.0014036
721.406	0.0014136
732.98	0.0010298
744.554	0.0011736
756.128	0.0010111
767.702	0.0013136
779.276	0.0011836
790.85	0.0013636
802.423	0.0017036
813.997	0.0046036
825.571	0.0042636
837.145	0.0043136
848.719	0.0072336
860.293	0.0142136
871.867	0.0177636
883.441	0.0155836
895.015	0.0150036
906.589	0.0293636
918.163	0.0415636
929.737	0.0171236
941.311	0.0116736
952.885	0.0124236
964.459	0.0114336
976.033	0.0107436
987.607	0.0144236
999.181	0.0252736
1010.76	0.0472936
1022.33	0.0628336
1033.9	0.0474236
1045.48	0.0271736
1057.05	0.0254636
1068.63	0.0375236
1080.2	0.0713836
1091.77	0.122414
1103.35	0.119044
1114.92	0.0811836
1126.49	0.0448636
1138.07	0.0334036
1149.64	0.0339536
1161.22	0.0347236
1172.79	0.0310236
1184.36	0.0329536
1195.94	0.0303436
1207.51	0.0224036
1219.09	0.0200036
1230.66	0.0230036
1242.23	0.0290736
1253.81	0.0283436
1265.38	0.0182136
1276.96	0.0144336
1288.53	0.0188936
1300.1	0.0241536
1311.68	0.0242936
1323.25	0.0359536
1334.83	0.0394936
1346.4	0.0246336
1357.97	0.0241536
1369.55	0.0414236
1381.12	0.0937236
1392.7	0.105624
1404.27	0.0466836
1415.84	0.0256036
1427.42	0.0354036
1438.99	0.0664336
1450.57	0.0563936
1462.14	0.0508636
1473.71	0.0584236
1485.29	0.0866736
1496.86	0.0416236
1508.44	0.0239436
1520.01	0.0267836
1531.58	0.0501236
1543.16	0.133194
1554.73	0.255014
1566.31	0.138044
1577.88	0.0498936
1589.45	0.0244936
1601.03	0.0149436
1612.6	0.0104236
1624.18	0.0077536
1635.75	0.0057936
1647.32	0.0044036
1658.9	0.0035836
1670.47	0.0029836
1682.05	0.0026136
1693.62	0.0024336
1705.19	0.0023036
1716.77	0.0021236
1728.34	0.0018936
1739.92	0.0016736
1751.49	0.0014536
1763.06	0.0013236
1774.64	0.0012336
1786.21	0.0011836
1797.79	0.0011836
1809.36	0.0012236
1820.93	0.0013336
1832.51	0.0013936
1844.08	0.0013836
1855.66	0.0013636
1867.23	0.0012636
1878.8	0.0011636
1890.38	0.0010119
1901.95	0.0009055
1913.53	0.0008447
1925.1	0.0008027
1936.67	0.0007467
1948.25	0.0007343
1959.82	0.0008178
1971.4	0.0009967
1982.97	0.0012736
1994.54	0.0015236
2006.12	0.0017036
2017.69	0.0016436
2029.27	0.0014836
2040.84	0.0013136
2052.41	0.0011336
2063.99	0.0009923
2075.56	0.0009376
2087.14	0.0008592
2098.71	0.0008236
2110.28	0.0008591
2121.86	0.0008548
2133.43	0.0008034
2145.01	0.0007812
2156.58	0.0007567
2168.15	0.0007796
2179.73	0.0007826
2191.3	0.0006863
2202.88	0.000612
2214.45	0.0005733
2226.02	0.000613
2237.6	0.0005869
2249.17	0.0005812
2260.74	0.0005398
2272.32	0.0004925
2283.89	0.0005084
2295.47	0.0005267
2307.04	0.0006423
2318.61	0.000642
2330.19	0.0005886
2341.76	0.000592
2353.34	0.0006682
2364.91	0.0006104
2376.48	0.0006717
2388.06	0.0007967
2399.63	0.0009117
2411.21	0.000931
2422.78	0.0009138
2434.35	0.0008068
2445.93	0.0007917
2457.5	0.000822
2469.08	0.0008308
2480.65	0.0008793
2492.22	0.0008362
2503.8	0.0008723
2515.37	0.0010252
2526.95	0.0012436
2538.52	0.0012636
2550.09	0.0010323
2561.67	0.001025
2573.24	0.0010249
2584.82	0.0010019
2596.39	0.0008738
2607.96	0.0007449
2619.54	0.0007158
2631.11	0.0007073
2642.69	0.0006892
2654.26	0.0006695
2665.83	0.0007712
2677.41	0.0008858
2688.98	0.0009981
2700.56	0.0010665
2712.13	0.0011736
2723.7	0.0013436
2735.28	0.0016536
2746.85	0.0020336
2758.43	0.0027136
2770	0.0033436
2781.57	0.0039936
2793.15	0.0053636
2804.72	0.0081436
2816.3	0.0147936
2827.87	0.0200336
2839.44	0.0186036
2851.02	0.0145736
2862.59	0.0136436
2874.17	0.0158936
2885.74	0.0205636
2897.31	0.0238636
2908.89	0.0268136
2920.46	0.0301436
2932.04	0.0358736
2943.61	0.0342136
2955.18	0.0274636
2966.76	0.0246436
2978.33	0.0217536
2989.91	0.0281236
3001.48	0.0219536
3013.05	0.0094936
3024.63	0.0058636
3036.2	0.0043536
3047.78	0.0035136
3059.35	0.0029336
3070.92	0.0025536
3082.5	0.0022736
3094.07	0.0021336
3105.65	0.0019036
3117.22	0.0015536
3128.79	0.0011236
3140.37	0.0008415
3151.94	0.0005671
3163.52	0.0004278
3175.09	0.0003938
3186.66	0.0003329
3198.24	0.0002314
3209.81	0.00015262
3221.39	0.00015173
3232.96	0.00015394
3244.53	0.00013803
3256.11	0.00013689
3267.68	0.00013133
3279.26	0.00011617
3290.83	0.0001509
3302.4	0.00012991
3313.98	7.36e-05
3325.55	0.00010877
3337.13	0.00014337
3348.7	0.00010481
3360.27	0.00014976
3371.85	0.00013428
3383.42	0.0001989
3395	0.00011374
3406.57	0.00017033
3418.14	0.00010597
3429.72	0.00017821
3441.29	0.0002695
3452.86	0.0001926
3464.44	0.00017561
3476.01	0.00011184
3487.59	0.0002091
3499.16	0.0001951
3510.73	0.00013756
3522.31	0.0001878
3533.88	0.00012057
3545.46	0.00015571
3557.03	0.00012086
3568.6	0.00013399
3580.18	0.0001855
3591.75	0.0001999
3603.33	0.0001913
3614.9	0.0001921
3626.47	0.0002552
3638.05	0.0002576
3649.62	0.0002959
3661.2	0.0002701
3672.77	0.0002907
3684.34	0.0002398
3695.92	0.000265
3707.49	0.0002405
3719.07	0.0002851
3730.64	0.0002647
3742.21	0.00018088
3753.79	0.0002483
3765.36	0.000235
3776.94	0.0002419
3788.51	0.0002999
3800.08	0.0002661
3811.66	0.0003014
3823.23	0.0003028
3834.81	0.0003337
3846.38	0.0002665
3857.95	0.0003691
3869.53	0.0003967
3881.1	0.0004332
3892.68	0.0004363
3904.25	0.000562
3915.82	0.000536
3927.4	0.000573
3938.97	0.000522
3950.55	0.0004678
3962.12	0.0004755
3973.69	0.000446
3985.27	0.0005654
3996.84	0.0005285
