Infrared Spectrum: 5-Methyl-5-hexen-3-yn-2-ol
Formula: C 7 H 10 O
CAS: 68017-33-4
State: gas
Instrument: HP-GC/MS/IRD
Origin: NIST Mass Spectrometry Data Center
1/CM	ABSORBANCE
550	0.001044
562	0.0004168
574	0.0004144
586	0.0002192
598	0.0002112
610	0.000172
622	0.0002224
634	0.0004032
646	0.0003872
658	0.0002936
670	0.0004784
682	0.0003856
694	0.0002056
706	0.000108
718	3.2e-05
730	5.52e-05
742	4.24e-05
754	0.0001176
766	0.00018
778	0.0001128
790	7.6e-05
802	4e-05
814	0.0001384
826	0.0002944
838	0.0006656
850	0.0012832
862	0.0017016
874	0.002204
886	0.0034336
898	0.0049952
910	0.0048624
922	0.003568
934	0.0016048
946	0.0009384
958	0.0012208
970	0.0020096
982	0.0027712
994	0.002716
1006	0.0021784
1018	0.002388
1030	0.003428
1042	0.005116
1054	0.0061544
1066	0.0055048
1078	0.0039712
1090	0.0032344
1102	0.0038096
1114	0.0051368
1126	0.0044104
1138	0.002396
1150	0.0014272
1162	0.0010824
1174	0.000912
1186	0.0009304
1198	0.0010352
1210	0.0011136
1222	0.001312
1234	0.0016608
1246	0.0020288
1258	0.0022728
1270	0.0030256
1282	0.0045488
1294	0.0039392
1306	0.0028536
1318	0.0039496
1330	0.005576
1342	0.0071024
1354	0.008
1366	0.0074304
1378	0.0066984
1390	0.00462
1402	0.0024136
1414	0.0017976
1426	0.001816
1438	0.0020664
1450	0.0023072
1462	0.0019792
1474	0.0011448
1486	0.0006232
1498	0.0004224
1510	0.0003448
1522	0.0003248
1534	0.00036
1546	0.0003912
1558	0.0004504
1570	0.0005584
1582	0.0008992
1594	0.0016008
1606	0.0023968
1618	0.0024448
1630	0.0015408
1642	0.0006216
1654	0.0002912
1666	0.0002016
1678	0.0001768
1690	0.0002144
1702	0.0001832
1714	0.0001592
1726	0.0001128
1738	0.0001096
1750	9.52e-05
1762	0.0001696
1774	0.0002528
1786	0.0004368
1798	0.0006752
1810	0.000632
1822	0.0003008
1834	0.0001376
1846	0.0001
1858	6.32e-05
1870	8e-05
1882	7.84e-05
1894	8.48e-05
1906	8.08e-05
1918	8e-05
1930	5.68e-05
1942	7.76e-05
1954	6.64e-05
1966	6.24e-05
1978	5.2e-05
1990	5.52e-05
2002	4.24e-05
2014	3.76e-05
2026	1.68e-05
2038	4.32e-05
2050	3.68e-05
2062	4.64e-05
2074	2.72e-05
2086	6.96e-05
2098	4.88e-05
2110	6.32e-05
2122	7.52e-05
2134	6.16e-05
2146	2.8e-05
2158	5.44e-05
2170	5.2e-05
2182	9.92e-05
2194	0.0001832
2206	0.0002664
2218	0.0002872
2230	0.0001888
2242	8.32e-05
2254	7.2e-05
2266	7.44e-05
2278	6.8e-05
2290	6.4e-05
2302	0.000112
2314	9.36e-05
2326	0.000108
2338	0.0001088
2350	0.0001168
2362	0.0001544
2374	0.0001224
2386	3.52e-05
2398	7.92e-05
2410	5.84e-05
2422	8.64e-05
2434	6.64e-05
2446	7.28e-05
2458	5.36e-05
2470	8.72e-05
2482	9.6e-05
2494	6.8e-05
2506	8.48e-05
2518	3.6e-05
2530	4.16e-05
2542	3.76e-05
2554	3.68e-05
2566	6.88e-05
2578	7.28e-05
2590	0.000104
2602	0.0001032
2614	0.0001136
2626	9.68e-05
2638	9.36e-05
2650	0.0001032
2662	0.0001176
2674	8.56e-05
2686	8.24e-05
2698	9.36e-05
2710	0.0001056
2722	0.0001648
2734	0.000152
2746	0.0001664
2758	0.0001504
2770	0.0001944
2782	0.0002136
2794	0.0002752
2806	0.0003104
2818	0.0003704
2830	0.0004744
2842	0.0006112
2854	0.0009928
2866	0.0016304
2878	0.0023848
2890	0.0028808
2902	0.0030392
2914	0.0030136
2926	0.0034368
2938	0.0038488
2950	0.0033296
2962	0.0031576
2974	0.004668
2986	0.0078256
2998	0.0063216
3010	0.002644
3022	0.0013616
3034	0.0008432
3046	0.0005136
3058	0.0005496
3070	0.000644
3082	0.0007376
3094	0.001348
3106	0.0016696
3118	0.000748
3130	0.0003512
3142	0.000204
3154	9.52e-05
3166	0.0001592
3178	0.0001256
3190	0.0001776
3202	0.0001024
3214	5.68e-05
3226	0.0001208
3238	0.0001056
3250	0.0001008
3262	1.44e-05
3274	7.84e-05
3286	4e-05
3298	2.32e-05
3310	5.52e-05
3322	3.44e-05
3334	5.52e-05
3346	3.28e-05
3358	5.12e-05
3370	7.12e-05
3382	8.4e-05
3394	5.2e-05
3406	0.0001032
3418	6.56e-05
3430	3.44e-05
3442	4.08e-05
3454	4.8e-06
3466	0.0001144
3478	0.0001264
3490	0.0001008
3502	8.96e-05
3514	8.08e-05
3526	9.44e-05
3538	0.0001128
3550	6.72e-05
3562	8.4e-05
3574	2.24e-05
3586	4.64e-05
3598	0.0001256
3610	0.0002256
3622	0.0005696
3634	0.0012528
3646	0.0018328
3658	0.0016824
3670	0.0009632
3682	0.000364
3694	0.000108
3706	8.96e-05
3718	8.48e-05
3730	9.76e-05
3742	9.76e-05
3754	7.12e-05
3766	8.8e-06
3778	4.16e-05
3790	4.24e-05
3802	6.56e-05
3814	3.36e-05
3826	6.4e-05
3838	4.32e-05
