Infrared Spectrum: 2,2-Dimethylglutaric acid
Formula: C 7 H 12 O 4
CAS: 681-57-2
State: gas
Origin: EPA-IR VAPOR PHASE LIBRARY
1/CM	ABSORBANCE
501.5	0.0050775
513.074	0.0066975
524.648	0.0082075
536.222	0.0099275
547.796	0.0122075
559.37	0.0151175
570.944	0.0192275
582.518	0.0204575
594.092	0.0154975
605.666	0.0117875
617.24	0.0105175
628.814	0.0087175
640.388	0.0062975
651.962	0.0041175
663.536	0.0030575
675.11	0.0026775
686.684	0.0026775
698.258	0.0031475
709.832	0.0040475
721.406	0.0041475
732.98	0.0033375
744.554	0.0028775
756.128	0.0031275
767.702	0.0042075
779.276	0.0046175
790.85	0.0039175
802.423	0.0027175
813.997	0.0018175
825.571	0.0014075
837.145	0.0014075
848.719	0.0014575
860.293	0.0012875
871.867	0.0010775
883.441	0.0010975
895.015	0.0013075
906.589	0.0014775
918.163	0.0016375
929.737	0.0021375
941.311	0.0023175
952.885	0.0020375
964.459	0.0019575
976.033	0.0021675
987.607	0.0027675
999.181	0.0034075
1010.76	0.0048075
1022.33	0.0062875
1033.9	0.0068975
1045.48	0.0082675
1057.05	0.0103975
1068.63	0.0127675
1080.2	0.0204775
1091.77	0.0400775
1103.35	0.0618775
1114.92	0.0585075
1126.49	0.0399975
1138.07	0.0250875
1149.64	0.0181475
1161.22	0.0156275
1172.79	0.0149575
1184.36	0.0137775
1195.94	0.0112575
1207.51	0.0087875
1219.09	0.0070375
1230.66	0.0060275
1242.23	0.0055175
1253.81	0.0054675
1265.38	0.0058475
1276.96	0.0063575
1288.53	0.0067775
1300.1	0.0070375
1311.68	0.0068375
1323.25	0.0067975
1334.83	0.0068275
1346.4	0.0062575
1357.97	0.0064275
1369.55	0.0078975
1381.12	0.0089575
1392.7	0.0088575
1404.27	0.0069175
1415.84	0.0043075
1427.42	0.0036475
1438.99	0.0038875
1450.57	0.0049975
1462.14	0.0057875
1473.71	0.0063675
1485.29	0.0047975
1496.86	0.0020375
1508.44	0.0011975
1520.01	0.0009367
1531.58	0.0008552
1543.16	0.0010475
1554.73	0.0014975
1566.31	0.0013175
1577.88	0.0009517
1589.45	0.0007399
1601.03	0.0006028
1612.6	0.0005905
1624.18	0.0006242
1635.75	0.0007141
1647.32	0.000808
1658.9	0.0009967
1670.47	0.0012575
1682.05	0.0017075
1693.62	0.0023675
1705.19	0.0036975
1716.77	0.0066375
1728.34	0.0121075
1739.92	0.0207275
1751.49	0.0382275
1763.06	0.0685875
1774.64	0.0793075
1786.21	0.0572975
1797.79	0.0304875
1809.36	0.0152975
1820.93	0.0083075
1832.51	0.0046375
1844.08	0.0025475
1855.66	0.0015675
1867.23	0.0011875
1878.8	0.0009469
1890.38	0.0008269
1901.95	0.0007494
1913.53	0.0006792
1925.1	0.000628
1936.67	0.0005531
1948.25	0.0005244
1959.82	0.0005328
1971.4	0.0004856
1982.97	0.0004431
1994.54	0.0004199
2006.12	0.0003872
2017.69	0.000379
2029.27	0.0003521
2040.84	0.0003558
2052.41	0.0002994
2063.99	0.0003014
2075.56	0.0002586
2087.14	0.0002538
2098.71	0.0002519
2110.28	0.0002783
2121.86	0.0002802
2133.43	0.0002822
2145.01	0.0002714
2156.58	0.0003011
2168.15	0.0003157
2179.73	0.000341
2191.3	0.0003834
2202.88	0.0004566
2214.45	0.0004555
2226.02	0.0004654
2237.6	0.0004003
2249.17	0.0003444
2260.74	0.0003299
2272.32	0.0003245
2283.89	0.0003091
2295.47	0.000329
2307.04	0.0003717
2318.61	0.0003842
2330.19	0.0004138
2341.76	0.0003869
2353.34	0.0003944
2364.91	0.0004432
2376.48	0.0004005
2388.06	0.0003348
2399.63	0.0003186
2411.21	0.000314
2422.78	0.0003201
2434.35	0.0003232
2445.93	0.0002812
2457.5	0.0003101
2469.08	0.0002864
2480.65	0.000254
2492.22	0.0002483
2503.8	0.0002238
2515.37	0.0001931
2526.95	0.0001642
2538.52	0.0001745
2550.09	0.0001704
2561.67	0.0001708
2573.24	0.0001681
2584.82	0.000162
2596.39	0.0001707
2607.96	0.0001689
2619.54	0.0001749
2631.11	0.0002252
2642.69	0.0001853
2654.26	0.0002198
2665.83	0.0002054
2677.41	0.000215
2688.98	0.0001869
2700.56	0.0001982
2712.13	0.0001909
2723.7	0.0002358
2735.28	0.0002142
2746.85	0.0002601
2758.43	0.0002355
2770	0.0002541
2781.57	0.000295
2793.15	0.0003484
2804.72	0.0003794
2816.3	0.0004808
2827.87	0.0005714
2839.44	0.000728
2851.02	0.0010235
2862.59	0.0016275
2874.17	0.0028375
2885.74	0.0038675
2897.31	0.0038375
2908.89	0.0039875
2920.46	0.0049875
2932.04	0.0071075
2943.61	0.0088975
2955.18	0.0087975
2966.76	0.0095575
2978.33	0.0141975
2989.91	0.0146375
3001.48	0.0069075
3013.05	0.0024075
3024.63	0.0011675
3036.2	0.000761
3047.78	0.0005729
3059.35	0.000453
3070.92	0.0004028
3082.5	0.000394
3094.07	0.000372
3105.65	0.0003632
3117.22	0.0002788
3128.79	0.0002794
3140.37	0.0002373
3151.94	0.0002156
3163.52	0.0002161
3175.09	0.0002481
3186.66	0.0002484
3198.24	0.0002636
3209.81	0.0002413
3221.39	0.0001722
3232.96	0.0001933
3244.53	0.0001993
3256.11	0.0001541
3267.68	0.0001319
3279.26	0.00012535
3290.83	0.0001467
3302.4	9.358e-05
3313.98	0.000157
3325.55	0.000153
3337.13	0.00012742
3348.7	0.00011174
3360.27	3.0162e-05
3371.85	0.00010081
3383.42	5.106e-05
3395	0.00012179
3406.57	7.721e-05
3418.14	8.205e-05
3429.72	0.00011186
3441.29	0.0001375
3452.86	0.0002226
3464.44	0.0002836
3476.01	0.000458
3487.59	0.0004578
3499.16	0.0006401
3510.73	0.0009021
3522.31	0.0012175
3533.88	0.0015875
3545.46	0.0025675
3557.03	0.0072375
3568.6	0.0278275
3580.18	0.0287375
3591.75	0.0061975
3603.33	0.0019075
3614.9	0.000947
3626.47	0.0007459
3638.05	0.0004441
3649.62	0.0003833
3661.2	0.0002196
3672.77	0.0001365
3684.34	0.0001581
3695.92	0.0001878
3707.49	9.377e-05
3719.07	0.00012573
3730.64	0.00012433
3742.21	0.0001498
3753.79	6.807e-05
3765.36	4.24e-05
3776.94	9.413e-05
3788.51	6.156e-05
3800.08	8e-06
3811.66	6.203e-05
3823.23	6.805e-05
3834.81	9.525e-05
3846.38	7.255e-05
3857.95	7.836e-05
3869.53	0.0001686
3881.1	5.824e-05
3892.68	0.00012263
3904.25	0.00012059
3915.82	6.211e-05
3927.4	2.8896e-05
3938.97	0
3950.55	0.00010031
3962.12	7.294e-05
3973.69	8.598e-05
3985.27	6.427e-05
3996.84	6.012e-05
