Infrared Spectrum: TETRAMETHOXYSILANE
Formula: C4 H12 O4 Si
CAS: 681-84-5
State: SOLUTION (10% IN CCl4 FOR 3800-1300, 2% IN CS2 FOR 1300-650, AND 10% IN CCl4 FOR 650-250 CM^-^1)
Boiling point: 123 C
Class: COBLENTZ III
Instrument: PERKIN-ELMER 521 (GRATING)
Instrument parameters: FILTERS AT 3150, 2500, 2000, 1150, 700, 410. GRATING CHANGES: 2000, 630 CM^-^1
Sampling: TRANSMISSION
Path length: 0.011 CM, 0.012 CM, AND 0.020 CM
Resolution: 2
Origin: DOW CORNING CORP.
1/CM	TRANSMITTANCE
238.592	0.683
247.976	0.678
257.36	0.662
266.745	0.64
276.129	0.585
285.513	0.544
294.897	0.466
304.281	0.379
313.666	0.412
323.05	0.499
332.434	0.579
341.818	0.573
351.202	0.546
360.586	0.479
369.971	0.38
379.355	0.283
388.739	0.193
398.123	0.118
407.507	0.104
416.892	0.107
426.276	0.115
435.66	0.126
445.044	0.161
454.428	0.256
463.813	0.402
473.197	0.557
482.581	0.676
491.965	0.718
501.349	0.748
510.734	0.754
520.118	0.767
529.502	0.766
538.886	0.758
548.27	0.753
557.655	0.748
567.039	0.742
576.423	0.738
585.807	0.734
595.191	0.742
604.575	0.747
613.96	0.72
623.344	0.672
632.728	0.642
642.112	0.651
651.496	0.84
660.881	0.844
670.265	0.838
679.649	0.805
689.033	0.826
698.417	0.834
707.802	0.84
717.186	0.841
726.57	0.839
735.954	0.835
745.338	0.833
754.723	0.828
764.107	0.823
773.491	0.791
782.875	0.747
792.259	0.692
801.643	0.575
811.028	0.398
820.412	0.232
829.796	0.147
839.18	0.132
848.564	0.3421
857.949	0.662
867.333	0.757
876.717	0.793
886.101	0.811
895.485	0.815
904.87	0.817
914.254	0.817
923.638	0.817
933.022	0.816
942.406	0.82
951.791	0.82
961.175	0.817
970.559	0.811
979.943	0.798
989.327	0.791
998.711	0.781
1008.1	0.761
1017.48	0.73
1026.86	0.711
1036.25	0.654
1045.63	0.572
1055.02	0.471
1064.4	0.279
1073.79	0.107
1083.17	0.011
1092.55	0.002
1101.94	0.034
1111.32	0.161
1120.71	0.279
1130.09	0.348
1139.47	0.395
1148.86	0.445
1158.24	0.477
1167.63	0.469
1177.01	0.403
1186.4	0.262
1195.78	0.292
1205.16	0.476
1214.55	0.6
1223.93	0.672
1233.32	0.724
1242.7	0.747
1252.08	0.758
1261.47	0.758
1270.85	0.758
1280.24	0.758
1289.62	0.758
1299.01	0.758
1308.39	0.758
1317.77	0.758
1327.16	0.758
1336.54	0.758
1345.93	0.757
1355.31	0.757
1364.69	0.754
1374.08	0.75
1383.46	0.743
1392.85	0.725
1402.23	0.718
1411.62	0.707
1421	0.689
1430.38	0.642
1439.77	0.579
1449.15	0.4309
1458.54	0.338
1467.92	0.394
1477.31	0.512
1486.69	0.592
1496.07	0.647
1505.46	0.676
1514.84	0.697
1524.23	0.705
1533.61	0.711
1542.99	0.72
1552.38	0.739
1561.76	0.75
1571.15	0.758
1580.53	0.773
1589.92	0.791
1599.3	0.797
1608.68	0.804
1618.07	0.806
1627.45	0.811
1636.84	0.82
1646.22	0.817
1655.6	0.815
1664.99	0.819
1674.37	0.824
1683.76	0.829
1693.14	0.829
1702.53	0.825
1711.91	0.815
1721.29	0.785
1730.68	0.752
1740.06	0.781
1749.45	0.814
1758.83	0.828
1768.22	0.834
1777.6	0.83
1786.98	0.843
1796.37	0.847
1805.75	0.845
1815.14	0.84
1824.52	0.835
1833.9	0.835
1843.29	0.838
1852.67	0.84
1862.06	0.836
1871.44	0.833
1880.83	0.826
1890.21	0.812
1899.59	0.79
1908.98	0.762
1918.36	0.738
1927.75	0.715
1937.13	0.734
1946.51	0.753
1955.9	0.773
1965.28	0.801
1974.67	0.821
1984.05	0.831
1993.44	0.834
2002.82	0.834
2012.2	0.834
2021.59	0.8304
2030.97	0.828
2040.36	0.8307
2049.74	0.8402
2059.13	0.8563
2068.51	0.859
2077.89	0.859
2087.28	0.8618
2096.66	0.862
2106.05	0.86
2115.43	0.859
2124.81	0.855
2134.2	0.8539
2143.58	0.849
2152.97	0.8448
2162.35	0.84
2171.74	0.8357
2181.12	0.8307
2190.5	0.829
2199.89	0.8319
2209.27	0.8345
2218.66	0.8405
2228.04	0.8461
2237.42	0.8496
2246.81	0.852
2256.19	0.852
2265.58	0.852
2274.96	0.8492
2284.35	0.848
2293.73	0.8499
2303.11	0.853
2312.5	0.858
2321.88	0.855
2331.27	0.854
2340.65	0.857
2350.04	0.857
2359.42	0.857
2368.8	0.855
2378.19	0.855
2387.57	0.8494
2396.96	0.8477
2406.34	0.8558
2415.72	0.858
2425.11	0.856
2434.49	0.854
2443.88	0.853
2453.26	0.852
2462.65	0.85
2472.03	0.85
2481.41	0.85
2490.8	0.8492
2500.18	0.849
2509.57	0.849
2518.95	0.849
2528.33	0.849
2537.72	0.847
2547.1	0.8449
2556.49	0.841
2565.87	0.8398
2575.26	0.836
2584.64	0.8338
2594.02	0.8287
2603.41	0.8237
2612.79	0.817
2622.18	0.814
2631.56	0.8155
2640.94	0.819
2650.33	0.8245
2659.71	0.8296
2669.1	0.8336
2678.48	0.835
2687.87	0.835
2697.25	0.836
2706.63	0.838
2716.02	0.835
2725.4	0.8301
2734.79	0.8261
2744.17	0.821
2753.56	0.817
2762.94	0.7978
2772.32	0.7918
2781.71	0.7795
2791.09	0.762
2800.48	0.7242
2809.86	0.6525
2819.24	0.5718
2828.63	0.3897
2838.01	0.0069
2847.4	0.0946
2856.78	0.4054
2866.17	0.489
2875.55	0.4942
2884.93	0.4546
2894.32	0.3705
2903.7	0.2241
2913.09	0.2082
2922.47	0.2024
2931.85	0.0814
2941.24	0.0075
2950.62	0.0385
2960.01	0.058
2969.39	0.0752
2978.78	0.1282
2988.16	0.1955
2997.54	0.3073
3006.93	0.3773
3016.31	0.4496
3025.7	0.5012
3035.08	0.5382
3044.47	0.5936
3053.85	0.6379
3063.23	0.6764
3072.62	0.7202
3082	0.7519
3091.39	0.7764
3100.77	0.7963
3110.15	0.809
3119.54	0.812
3128.92	0.8274
3138.31	0.831
3147.69	0.831
3157.08	0.831
3166.46	0.835
3175.84	0.839
3185.23	0.84
3194.61	0.84
3204	0.84
3213.38	0.8398
3222.76	0.84
3232.15	0.841
3241.53	0.843
3250.92	0.844
3260.3	0.844
3269.69	0.844
3279.07	0.844
3288.45	0.844
3297.84	0.844
3307.22	0.843
3316.61	0.843
3325.99	0.841
3335.38	0.84
3344.76	0.84
3354.14	0.84
3363.53	0.84
3372.91	0.84
3382.3	0.84
3391.68	0.84
3401.06	0.84
3410.45	0.8401
3419.83	0.843
3429.22	0.8442
3438.6	0.8472
3447.99	0.848
3457.37	0.848
3466.75	0.848
3476.14	0.849
3485.52	0.85
3494.91	0.852
3504.29	0.849
3513.67	0.849
3523.06	0.849
3532.44	0.849
3541.83	0.85
3551.21	0.852
3560.6	0.8566
3569.98	0.8629
3579.36	0.8719
3588.75	0.8721
3598.13	0.871
3607.52	0.872
3616.9	0.872
3626.29	0.871
3635.67	0.869
3645.05	0.8732
3654.44	0.872
3663.82	0.8746
3673.21	0.878
3682.59	0.8752
3691.97	0.873
3701.36	0.876
3710.74	0.876
3720.13	0.8816
3729.51	0.887
3738.9	0.892
3748.28	0.8906
3757.66	0.882
3767.05	0.8782
3776.43	0.878
3785.82	0.8789
