Infrared Spectrum: PHOSPHONOTHIOIC ACID, METHYL-, o,o-DIMETHYL ESTER
Formula: C3 H9 O2 P S
CAS: 681-06-1
State: LIQUID
Class: COBLENTZ
Instrument: Not specified, most likely a prism, grating, or hybrid spectrometer.
Sampling: TRANSMISSION
Path length: LIQUID FILM BETWEEN KBr PLATES
Resolution: 4
Origin: G. A. M. S.
1/CM	TRANSMITTANCE
599.882	0.658
609.053	0.663
618.224	0.671
627.395	0.682
636.566	0.699
645.737	0.709
654.909	0.711
664.08	0.712
673.251	0.702
682.422	0.685
691.593	0.649
700.764	0.6
709.935	0.546
719.106	0.464
728.277	0.337
737.448	0.183
746.619	0.026
755.79	0.007
764.962	0.006
774.133	0.01
783.304	0.018
792.475	0.012
801.646	0.001
810.817	0.087
819.988	0.188
829.159	0.223
838.33	0.263
847.501	0.339
856.672	0.408
865.843	0.368
875.015	0.285
884.186	0.055
893.357	0.007
902.528	0.003
911.699	0.004
920.87	0.021
930.041	0.157
939.212	0.271
948.383	0.322
957.554	0.337
966.725	0.33
975.897	0.3
985.068	0.259
994.239	0.1171
1003.41	0.02
1012.58	0.001
1021.75	0
1030.92	0
1040.09	0
1049.27	0
1058.44	0.001
1067.61	0.003
1076.78	0.026
1085.95	0.091
1095.12	0.151
1104.29	0.197
1113.46	0.234
1122.63	0.276
1131.8	0.297
1140.98	0.283
1150.15	0.245
1159.32	0.145
1168.49	0.054
1177.66	0.018
1186.83	0.101
1196	0.206
1205.17	0.336
1214.34	0.408
1223.52	0.442
1232.69	0.436
1241.86	0.419
1251.03	0.436
1260.2	0.479
1269.37	0.549
1278.54	0.552
1287.71	0.421
1296.88	0.134
1306.06	0.1579
1315.23	0.504
1324.4	0.592
1333.57	0.604
1342.74	0.57
1351.91	0.546
1361.08	0.54
1370.25	0.527
1379.42	0.501
1388.6	0.473
1397.77	0.408
1406.94	0.1511
1416.11	0.179
1425.28	0.291
1434.45	0.209
1443.62	0.126
1452.79	0.125
1461.96	0.104
1471.14	0.223
1480.31	0.339
1489.48	0.432
1498.65	0.483
1507.82	0.509
1516.99	0.523
1526.16	0.535
1535.33	0.543
1544.5	0.546
1553.67	0.566
1562.85	0.587
1572.02	0.608
1581.19	0.628
1590.36	0.635
1599.53	0.634
1608.7	0.621
1617.87	0.626
1627.04	0.657
1636.21	0.682
1645.39	0.706
1654.56	0.726
1663.73	0.743
1672.9	0.757
1682.07	0.771
1691.24	0.78
1700.41	0.785
1709.58	0.79
1718.75	0.794
1727.93	0.794
1737.1	0.791
1746.27	0.782
1755.44	0.756
1764.61	0.728
1773.78	0.683
1782.95	0.634
1792.12	0.604
1801.29	0.594
1810.47	0.601
1819.64	0.626
1828.81	0.655
1837.98	0.686
1847.15	0.722
1856.32	0.75
1865.49	0.773
1874.66	0.785
1883.83	0.79
1893.01	0.799
1902.18	0.804
1911.35	0.802
1920.52	0.794
1929.69	0.785
1938.86	0.776
1948.03	0.76
1957.2	0.751
1966.37	0.774
1975.54	0.797
1984.72	0.816
1993.89	0.824
2003.06	0.816
2012.23	0.808
2021.4	0.802
2030.57	0.794
2039.74	0.79
2048.91	0.78
2058.08	0.773
2067.26	0.7649
2076.43	0.7589
2085.6	0.748
2094.77	0.745
2103.94	0.7482
2113.11	0.7633
2122.28	0.7824
2131.45	0.81
2140.62	0.816
2149.8	0.816
2158.97	0.8128
2168.14	0.8049
2177.31	0.7998
2186.48	0.7899
2195.65	0.7766
2204.82	0.768
2213.99	0.77
2223.16	0.7839
2232.34	0.8052
2241.51	0.8112
2250.68	0.814
2259.85	0.814
2269.02	0.8128
2278.19	0.8098
2287.36	0.805
2296.53	0.804
2305.7	0.8
2314.88	0.799
2324.05	0.799
2333.22	0.799
2342.39	0.799
2351.56	0.8
2360.73	0.802
2369.9	0.804
2379.07	0.805
2388.24	0.808
2397.41	0.81
2406.59	0.81
2415.76	0.8102
2424.93	0.8108
2434.1	0.81
2443.27	0.8078
2452.44	0.807
2461.61	0.805
2470.78	0.804
2479.95	0.8037
2489.13	0.8
2498.3	0.799
2507.47	0.796
2516.64	0.796
2525.81	0.7908
2534.98	0.7846
2544.15	0.7784
2553.32	0.7704
2562.49	0.7607
2571.67	0.7508
2580.84	0.7476
2590.01	0.7464
2599.18	0.75
2608.35	0.7532
2617.52	0.756
2626.69	0.7592
2635.86	0.762
2645.03	0.7635
2654.21	0.766
2663.38	0.766
2672.55	0.768
2681.72	0.7675
2690.89	0.766
2700.06	0.7645
2709.23	0.76
2718.4	0.759
2727.57	0.756
2736.75	0.754
2745.92	0.7507
2755.09	0.7444
2764.26	0.7381
2773.43	0.7301
2782.6	0.7221
2791.77	0.7108
2800.94	0.7026
2810.11	0.6808
2819.28	0.6544
2828.46	0.601
2837.63	0.531
2846.8	0.3712
2855.97	0.3043
2865.14	0.3369
2874.31	0.4576
2883.48	0.471
2892.65	0.4385
2901.82	0.3719
2911	0.3316
2920.17	0.3052
2929.34	0.2775
2938.51	0.2418
2947.68	0.1679
2956.85	0.0982
2966.02	0.0992
2975.19	0.1568
2984.36	0.194
2993.54	0.211
3002.71	0.1989
3011.88	0.1818
3021.05	0.1808
3030.22	0.1986
3039.39	0.253
3048.56	0.3715
3057.73	0.4472
3066.9	0.4782
3076.08	0.5225
3085.25	0.5535
3094.42	0.5872
3103.59	0.6105
3112.76	0.6268
3121.93	0.6383
3131.1	0.6512
3140.27	0.6613
3149.44	0.6727
3158.62	0.6794
3167.79	0.6863
3176.96	0.6929
3186.13	0.6994
3195.3	0.7039
3204.47	0.7085
3213.64	0.7124
3222.81	0.716
3231.98	0.7195
3241.15	0.723
3250.33	0.725
3259.5	0.725
3268.67	0.727
3277.84	0.728
3287.01	0.73
3296.18	0.731
3305.35	0.732
3314.52	0.733
3323.69	0.734
3332.87	0.734
3342.04	0.734
3351.21	0.734
3360.38	0.734
3369.55	0.733
3378.72	0.733
3387.89	0.731
3397.06	0.731
3406.23	0.7285
3415.41	0.726
3424.58	0.7239
3433.75	0.722
3442.92	0.7179
3452.09	0.714
3461.26	0.711
3470.43	0.7054
3479.6	0.703
3488.77	0.6994
3497.95	0.6958
3507.12	0.694
3516.29	0.692
3525.46	0.691
3534.63	0.692
3543.8	0.694
3552.97	0.694
3562.14	0.695
3571.31	0.695
3580.48	0.697
3589.66	0.697
3598.83	0.697
3608	0.697
3617.17	0.6958
3626.34	0.695
3635.51	0.695
3644.68	0.697
3653.85	0.697
3663.02	0.7
3672.2	0.7049
3681.37	0.7109
3690.54	0.7186
3699.71	0.7243
3708.88	0.7303
3718.05	0.734
3727.22	0.739
3736.39	0.742
3745.56	0.743
3754.74	0.743
3763.91	0.7407
3773.08	0.739
3782.25	0.7363
3791.42	0.734
3800.59	0.7296
3809.76	0.7253
3818.93	0.7223
3828.1	0.7176
3837.28	0.7146
3846.45	0.7126
3855.62	0.711
3864.79	0.709
3873.96	0.7083
3883.13	0.706
3892.3	0.705
3901.47	0.705
3910.64	0.706
3919.82	0.7087
3928.99	0.711
3938.16	0.716
3947.33	0.72
3956.5	0.723
3965.67	0.7222
3974.84	0.722
