Infrared Spectrum: 2-AMINO-4-P-NITROPHENYL OXAZOLE
Formula: C9 H7 N3 O3
CAS: 68101-31-5
State: SOLID (KBr PELLET)
Class: COBLENTZ
Instrument: Not specified, most likely a prism, grating, or hybrid spectrometer.
Sampling: TRANSMISSION
Resolution: 4
Origin: TENNESSEE EASTMAN COMPANY, RESEARCH LABORATORIES
MICROMETERS	TRANSMITTANCE
2.075	0.897
2.11588	0.9
2.15675	0.904
2.19763	0.905
2.23851	0.911
2.27938	0.916
2.32026	0.919
2.36114	0.921
2.40201	0.923
2.44289	0.924
2.48377	0.928
2.52464	0.929
2.56552	0.929
2.6064	0.931
2.64727	0.935
2.68815	0.935
2.72902	0.897
2.7699	0.832
2.81078	0.788
2.85165	0.712
2.89253	0.405
2.93341	0.415
2.97428	0.535
3.01516	0.598
3.05604	0.584
3.09691	0.613
3.13779	0.429
3.17867	0.379
3.21954	0.569
3.26042	0.678
3.3013	0.755
3.34217	0.796
3.38305	0.805
3.42393	0.852
3.4648	0.871
3.50568	0.868
3.54656	0.882
3.58743	0.902
3.62831	0.917
3.66919	0.914
3.71006	0.916
3.75094	0.919
3.79181	0.924
3.83269	0.928
3.87357	0.941
3.91444	0.952
3.95532	0.953
3.9962	0.953
4.03707	0.953
4.07795	0.953
4.11883	0.935
4.1597	0.935
4.20058	0.955
4.24146	0.952
4.28233	0.952
4.32321	0.957
4.36409	0.962
4.40496	0.964
4.44584	0.97
4.48672	0.967
4.52759	0.957
4.56847	0.955
4.60935	0.953
4.65022	0.962
4.6911	0.969
4.73198	0.97
4.77285	0.97
4.81373	0.97
4.8546	0.97
4.89548	0.97
4.93636	0.972
4.97723	0.977
5.01811	0.991
5.05899	0.982
5.09986	0.981
5.14074	0.967
5.18162	0.962
5.22249	0.974
5.26337	0.97
5.30425	0.97
5.34512	0.974
5.386	0.977
5.42688	0.979
5.46775	0.972
5.50863	0.958
5.54951	0.958
5.59038	0.964
5.63126	0.965
5.67214	0.96
5.71301	0.936
5.75389	0.916
5.79477	0.875
5.83564	0.811
5.87652	0.747
5.91739	0.447
5.95827	0.063
5.99915	0.059
6.04002	0.136
6.0809	0.434
6.12178	0.603
6.16265	0.606
6.20353	0.176
6.24441	0.463
6.28528	0.611
6.32616	0.519
6.36704	0.731
6.40791	0.811
6.44879	0.823
6.48967	0.752
6.53054	0.476
6.57142	0.071
6.6123	0.135
6.65317	0.562
6.69405	0.705
6.73493	0.77
6.7758	0.803
6.81668	0.808
6.85756	0.811
6.89843	0.817
6.93931	0.8
6.98018	0.521
7.02106	0.42
7.06194	0.758
7.10281	0.663
7.14369	0.661
7.18457	0.723
7.22544	0.694
7.26632	0.682
7.3072	0.664
7.34807	0.514
7.38895	0.169
7.42983	0.097
7.4707	0.08
7.51158	0.032
7.55246	0.046
7.59333	0.218
7.63421	0.48
7.67509	0.683
7.71596	0.531
7.75684	0.623
7.79772	0.776
7.83859	0.791
7.87947	0.794
7.92035	0.796
7.96122	0.781
8.0021	0.709
8.04297	0.63
8.08385	0.605
8.12473	0.758
8.1656	0.805
8.20648	0.825
8.24736	0.832
8.28823	0.832
8.32911	0.842
8.36999	0.844
8.41086	0.837
8.45174	0.823
8.49262	0.822
8.53349	0.832
8.57437	0.841
8.61525	0.842
8.65612	0.839
8.697	0.834
8.73788	0.817
8.77875	0.806
8.81963	0.789
8.86051	0.762
8.90138	0.717
8.94226	0.558
8.98314	0.446
9.02401	0.521
9.06489	0.56
9.10576	0.364
9.14664	0.167
9.18752	0.121
9.22839	0.27
9.26927	0.358
9.31015	0.3
9.35102	0.417
9.3919	0.644
9.43278	0.74
9.47365	0.784
9.51453	0.81
9.55541	0.817
9.59628	0.822
9.63716	0.841
9.67804	0.849
9.71891	0.852
9.75979	0.854
9.80067	0.866
9.84154	0.87
9.88242	0.861
9.9233	0.87
9.96417	0.878
10.005	0.887
10.0459	0.888
10.0868	0.888
10.1277	0.888
10.1686	0.892
10.2094	0.89
10.2503	0.88
10.2912	0.87
10.3321	0.859
10.3729	0.82
10.4138	0.741
10.4547	0.591
10.4956	0.427
10.5364	0.398
10.5773	0.394
10.6182	0.596
10.6591	0.77
10.6999	0.829
10.7408	0.864
10.7817	0.887
10.8226	0.895
10.8635	0.9
10.9043	0.904
10.9452	0.919
10.9861	0.923
11.027	0.923
11.0678	0.923
11.1087	0.924
11.1496	0.929
11.1905	0.933
11.2313	0.929
11.2722	0.928
11.3131	0.928
11.354	0.929
11.3949	0.929
11.4357	0.921
11.4766	0.899
11.5175	0.846
11.5584	0.736
11.5992	0.547
11.6401	0.206
11.681	0.136
11.7219	0.29
11.7627	0.582
11.8036	0.705
11.8445	0.774
11.8854	0.803
11.9262	0.815
11.9671	0.818
12.008	0.822
12.0489	0.83
12.0898	0.856
12.1306	0.873
12.1715	0.878
12.2124	0.882
12.2533	0.895
12.2941	0.9
12.335	0.907
12.3759	0.909
12.4168	0.907
12.4576	0.9
12.4985	0.9
12.5394	0.902
12.5803	0.904
12.6211	0.902
12.662	0.9
12.7029	0.895
12.7438	0.894
12.7847	0.892
12.8255	0.89
12.8664	0.887
12.9073	0.878
12.9482	0.876
12.989	0.883
13.0299	0.88
13.0708	0.858
13.1117	0.863
13.1525	0.883
13.1934	0.89
13.2343	0.871
13.2752	0.834
13.316	0.803
13.3569	0.769
13.3978	0.764
13.4387	0.757
13.4796	0.699
13.5204	0.634
13.5613	0.507
13.6022	0.398
13.6431	0.348
13.6839	0.331
13.7248	0.328
13.7657	0.34
13.8066	0.37
13.8474	0.423
13.8883	0.478
13.9292	0.541
13.9701	0.601
14.0109	0.651
14.0518	0.707
14.0927	0.757
14.1336	0.8
14.1745	0.827
14.2153	0.842
14.2562	0.842
14.2971	0.842
14.338	0.837
14.3788	0.827
14.4197	0.817
14.4606	0.81
14.5015	0.808
14.5423	0.808
14.5832	0.81
14.6241	0.81
14.665	0.813
14.7059	0.813
14.7467	0.813
14.7876	0.81
14.8285	0.803
14.8694	0.798
14.9102	0.789
14.9511	0.781
14.992	0.774
15.0329	0.764
15.0737	0.758
15.1146	0.752
15.1555	0.741
15.1964	0.735
15.2372	0.728
15.2781	0.723
15.319	0.717
15.3599	0.709
15.4008	0.704
15.4416	0.702
15.4825	0.7
15.5234	0.699
15.5643	0.699
15.6051	0.699
15.646	0.697
15.6869	0.697
15.7278	0.697
15.7686	0.699
15.8095	0.699
15.8504	0.697
15.8913	0.695
15.9321	0.695
15.973	0.697
16.0139	0.697
