Infrared Spectrum: GITOGENIN
Formula: C27 H44 O4
CAS: 6811-13-8
State: SOLID (1 mg / 200 mg KBr DISC) VS KBr
Melting point: 271.5-275 C DECOMP.
Class: COBLENTZ III
Instrument: PERKIN-ELMER 21 (GRATING)
Instrument parameters: FILTER AT ABOUT 10 MICRONS
Sampling: TRANSMISSION
Path length: 0.055 CM (THICKNESS)
Resolution: 2
1/CM	TRANSMITTANCE
4000	0.9258
3991	0.9259
3982	0.926
3973	0.9261
3964	0.9262
3955	0.9263
3946	0.9264
3937	0.9267
3928	0.9268
3919	0.9271
3910	0.9275
3901	0.9277
3892	0.928
3883	0.9283
3874	0.9285
3865	0.9287
3856	0.9289
3847	0.9291
3838	0.9293
3829	0.9295
3820	0.9297
3811	0.9298
3802	0.93
3793	0.9301
3784	0.9302
3775	0.9304
3766	0.9305
3757	0.9306
3748	0.9308
3739	0.9309
3730	0.9312
3721	0.9314
3712	0.9316
3703	0.9318
3694	0.9321
3685	0.9324
3676	0.9325
3667	0.9323
3658	0.932
3649	0.9316
3640	0.9313
3631	0.9309
3622	0.9302
3613	0.9295
3604	0.9286
3595	0.9271
3586	0.924
3577	0.9189
3568	0.9118
3559	0.9027
3550	0.8938
3541	0.8868
3532	0.88
3523	0.8695
3514	0.8556
3505	0.8366
3496	0.8147
3487	0.7903
3478	0.7648
3469	0.7451
3460	0.7255
3451	0.7058
3442	0.6858
3433	0.6658
3424	0.6458
3415	0.6256
3406	0.6053
3397	0.5848
3388	0.5688
3379	0.5512
3370	0.5298
3361	0.5159
3352	0.51
3343	0.5088
3334	0.5087
3325	0.51
3316	0.5139
3307	0.5202
3298	0.5291
3289	0.5383
3280	0.5545
3271	0.5741
3262	0.5876
3253	0.6012
3244	0.6147
3235	0.6285
3226	0.6422
3217	0.6561
3208	0.6701
3199	0.6841
3190	0.6982
3181	0.7124
3172	0.7265
3163	0.7408
3154	0.7554
3145	0.7654
3136	0.7738
3127	0.7821
3118	0.7899
3109	0.7965
3100	0.8035
3091	0.8108
3082	0.819
3073	0.8258
3064	0.832
3055	0.8368
3046	0.8412
3037	0.8447
3028	0.8475
3019	0.8494
3010	0.8487
3001	0.8477
2992	0.8443
2983	0.8341
2974	0.7775
2965	0.6774
2956	0.5842
2947	0.4905
2938	0.3962
2929	0.3057
2920	0.2791
2911	0.2732
2902	0.2722
2893	0.2728
2884	0.2819
2875	0.2976
2866	0.3096
2857	0.321
2848	0.3373
2839	0.3568
2830	0.3809
2821	0.4064
2812	0.4493
2803	0.4831
2794	0.6468
2785	0.6849
2776	0.7369
2767	0.761
2758	0.7803
2749	0.7962
2740	0.8099
2731	0.823
2722	0.8358
2713	0.8466
2704	0.8553
2695	0.8628
2686	0.8678
2677	0.8728
2668	0.8764
2659	0.8796
2650	0.8827
2641	0.886
2632	0.8891
2623	0.8923
2614	0.8954
2605	0.8988
2596	0.9021
2587	0.9055
2578	0.9085
2569	0.911
2560	0.9136
2551	0.9163
2542	0.9192
2533	0.9221
2524	0.9251
2515	0.9282
2506	0.9307
2497	0.933
2488	0.9351
2479	0.9366
2470	0.9383
2461	0.9399
2452	0.9414
2443	0.9427
2434	0.944
2425	0.9453
2416	0.9468
2407	0.9483
2398	0.9498
2389	0.951
2380	0.9517
2371	0.9523
2362	0.953
2353	0.9531
2344	0.9531
2335	0.9531
2326	0.9527
2317	0.9524
2308	0.9521
2299	0.9527
2290	0.9534
2281	0.9541
2272	0.9551
2263	0.9563
2254	0.9575
2245	0.9587
2236	0.9598
2227	0.9604
2218	0.961
2209	0.9615
2200	0.9621
2191	0.9628
2182	0.9635
2173	0.9642
2164	0.965
2155	0.9658
2146	0.9665
2137	0.9665
2128	0.9663
2119	0.9661
2110	0.966
2101	0.9658
2092	0.9655
2083	0.9653
2074	0.9651
2065	0.9649
2056	0.9647
2047	0.9645
2038	0.9643
2029	0.9643
2020	0.9642
2011	0.9642
2002	0.9641
1993	0.9639
1984	0.9635
1975	0.9631
1966	0.9625
1957	0.9621
1948	0.9617
1939	0.9611
1930	0.9605
1921	0.9599
1912	0.9592
1903	0.9586
1894	0.958
1885	0.9574
1876	0.9568
1867	0.9562
1858	0.956
1849	0.9558
1840	0.9556
1831	0.9555
1822	0.9553
1813	0.9546
1804	0.9542
1795	0.9539
1786	0.9538
1777	0.9536
1768	0.9532
1759	0.9525
1750	0.9508
1741	0.9475
1732	0.944
1723	0.9398
1714	0.9277
1705	0.9202
1696	0.9257
1687	0.9296
1678	0.9294
1669	0.9271
1660	0.9247
1651	0.9203
1642	0.9152
1633	0.9098
1624	0.905
1615	0.9045
1606	0.9083
1597	0.9133
1588	0.9183
1579	0.9209
1570	0.9162
1561	0.9116
1552	0.9111
1543	0.9121
1534	0.9127
1525	0.9121
1516	0.9089
1507	0.9021
1498	0.8925
1489	0.8707
1480	0.809
1471	0.6784
1462	0.6127
1453	0.5012
1444	0.5742
1435	0.656
1426	0.7308
1417	0.7755
1408	0.7847
1399	0.7821
1390	0.7201
1381	0.5857
1372	0.6135
1363	0.7092
1354	0.7411
1345	0.7137
1336	0.72
1327	0.7698
1318	0.7808
1309	0.7848
1300	0.7651
1291	0.7589
1282	0.7847
1273	0.7795
1264	0.7731
1255	0.7508
1246	0.7248
1237	0.6018
1228	0.7474
1219	0.8125
1210	0.8089
1201	0.7739
1192	0.8105
1183	0.7355
1174	0.5677
1165	0.6343
1156	0.6858
1147	0.684
1138	0.7376
1129	0.7268
1120	0.7239
1111	0.686
1102	0.6508
1093	0.5953
1084	0.6269
1075	0.4054
1066	0.3309
1057	0.1823
1048	0.1746
1039	0.3918
1030	0.4717
1021	0.5422
1012	0.5659
1003	0.6014
994	0.6059
985	0.4547
976	0.4421
967	0.7611
958	0.7542
949	0.723
940	0.8383
931	0.82
922	0.5436
913	0.7194
904	0.7505
895	0.5534
886	0.8171
877	0.8327
868	0.7401
859	0.8138
850	0.8755
841	0.8807
832	0.8999
823	0.9088
814	0.8855
805	0.8978
796	0.8583
787	0.8767
778	0.8578
769	0.8908
760	0.896
751	0.8828
742	0.883
733	0.8578
724	0.8765
715	0.8804
706	0.8645
697	0.8521
688	0.8477
679	0.8275
670	0.8139
