Infrared Spectrum: N-(2-hydroxyethyl)dodecanamide
Formula: C14 H29 N O2
CAS: 68140-00-1
State: gas
Origin: EPA-IR VAPOR PHASE LIBRARY
1/CM	ABSORBANCE
501.5	0.0027
513.074	0.00269
524.648	0.00233
536.222	0.00192
547.796	0.00171
559.37	0.001421
570.944	0.0013911
582.518	0.0012312
594.092	0.0012892
605.666	0.0011621
617.24	0.0011456
628.814	0.0010877
640.388	0.0009694
651.962	0.0010049
663.536	0.0008457
675.11	0.0009297
686.684	0.0008885
698.258	0.0010853
709.832	0.0013167
721.406	0.00149
732.98	0.0013642
744.554	0.001352
756.128	0.0011989
767.702	0.0012306
779.276	0.0012427
790.85	0.0011075
802.423	0.001146
813.997	0.001221
825.571	0.0012955
837.145	0.00147
848.719	0.00171
860.293	0.0019
871.867	0.00199
883.441	0.00202
895.015	0.00186
906.589	0.00182
918.163	0.00173
929.737	0.00182
941.311	0.00182
952.885	0.00185
964.459	0.00178
976.033	0.00187
987.607	0.00192
999.181	0.00214
1010.76	0.00254
1022.33	0.0033
1033.9	0.00459
1045.48	0.00625
1057.05	0.007
1068.63	0.00704
1080.2	0.00571
1091.77	0.00392
1103.35	0.00307
1114.92	0.0028
1126.49	0.00258
1138.07	0.0026
1149.64	0.00309
1161.22	0.00373
1172.79	0.00445
1184.36	0.0052
1195.94	0.00605
1207.51	0.0066
1219.09	0.00635
1230.66	0.00624
1242.23	0.00617
1253.81	0.00611
1265.38	0.00587
1276.96	0.00555
1288.53	0.00495
1300.1	0.00446
1311.68	0.00401
1323.25	0.00375
1334.83	0.00398
1346.4	0.00463
1357.97	0.00461
1369.55	0.00401
1381.12	0.00368
1392.7	0.00333
1404.27	0.00328
1415.84	0.00381
1427.42	0.00511
1438.99	0.00664
1450.57	0.00837
1462.14	0.01076
1473.71	0.01263
1485.29	0.01797
1496.86	0.02328
1508.44	0.01576
1520.01	0.00798
1531.58	0.00442
1543.16	0.00278
1554.73	0.00199
1566.31	0.00159
1577.88	0.001358
1589.45	0.0011321
1601.03	0.0010834
1612.6	0.0011045
1624.18	0.0011383
1635.75	0.0013342
1647.32	0.00173
1658.9	0.00261
1670.47	0.00426
1682.05	0.00756
1693.62	0.01462
1705.19	0.02266
1716.77	0.01678
1728.34	0.00719
1739.92	0.00342
1751.49	0.00197
1763.06	0.0012664
1774.64	0.0008824
1786.21	0.0006911
1797.79	0.0005754
1809.36	0.00054148
1820.93	0.00051033
1832.51	0.00047518
1844.08	0.00044101
1855.66	0.0004302
1867.23	0.0004317
1878.8	0.0004248
1890.38	0.0004165
1901.95	0.0004217
1913.53	0.00044024
1925.1	0.0004326
1936.67	0.00044315
1948.25	0.00044192
1959.82	0.0004309
1971.4	0.0004136
1982.97	0.0004011
1994.54	0.0004237
2006.12	0.0004323
2017.69	0.00044737
2029.27	0.00046777
2040.84	0.0004022
2052.41	0.0004134
2063.99	0.0004027
2075.56	0.0003882
2087.14	0.0004054
2098.71	0.0003708
2110.28	0.0003684
2121.86	0.0003677
2133.43	0.0004028
2145.01	0.0003671
2156.58	0.0003588
2168.15	0.0003618
2179.73	0.0003724
2191.3	0.0003535
2202.88	0.0003684
2214.45	0.0003692
2226.02	0.0003679
2237.6	0.000348
2249.17	0.0003525
2260.74	0.000374
2272.32	0.0003687
2283.89	0.000348
2295.47	0.000324
2307.04	0.0003593
2318.61	0.000355
2330.19	0.000342
2341.76	0.000338
2353.34	0.0003559
2364.91	0.000308
2376.48	0.0003557
2388.06	0.0003786
2399.63	0.0003639
2411.21	0.000339
2422.78	0.0003707
2434.35	0.000325
2445.93	0.000336
2457.5	0.0003635
2469.08	0.000326
2480.65	0.0003517
2492.22	0.0003535
2503.8	0.0003624
2515.37	0.0003884
2526.95	0.000376
2538.52	0.0004045
2550.09	0.0004067
2561.67	0.0004052
2573.24	0.0004279
2584.82	0.000408
2596.39	0.000457976
2607.96	0.00049765
2619.54	0.00052959
2631.11	0.000559
2642.69	0.0006178
2654.26	0.0006611
2665.83	0.0007462
2677.41	0.0008235
2688.98	0.0008301
2700.56	0.0008764
2712.13	0.0008946
2723.7	0.0009185
2735.28	0.0009507
2746.85	0.0010281
2758.43	0.0010743
2770	0.0012002
2781.57	0.001397
2793.15	0.00169
2804.72	0.00201
2816.3	0.0026
2827.87	0.00362
2839.44	0.00547
2851.02	0.01089
2862.59	0.01982
2874.17	0.01726
2885.74	0.01493
2897.31	0.01567
2908.89	0.02167
2920.46	0.03529
2932.04	0.05302
2943.61	0.04165
2955.18	0.02599
2966.76	0.01976
2978.33	0.01132
2989.91	0.00582
3001.48	0.00342
3013.05	0.00237
3024.63	0.0017
3036.2	0.0013588
3047.78	0.0010728
3059.35	0.0008927
3070.92	0.0007498
3082.5	0.0006694
3094.07	0.0005628
3105.65	0.00049737
3117.22	0.0004011
3128.79	0.0003805
3140.37	0.000379
3151.94	0.000348
3163.52	0.000338
3175.09	0.000323
3186.66	0.000265
3198.24	0.000286
3209.81	0.000243
3221.39	0.000226
3232.96	0.000196
3244.53	0.00018
3256.11	9.8e-05
3267.68	0.000211
3279.26	0.000211
3290.83	0.000196
3302.4	0.000216
3313.98	0.000178
3325.55	0.000205
3337.13	0.000224
3348.7	0.000269
3360.27	0.000328
3371.85	0.0003987
3383.42	0.0005635
3395	0.00053019
3406.57	0.0006108
3418.14	0.0006773
3429.72	0.0008862
3441.29	0.0010852
3452.86	0.00177
3464.44	0.00283
3476.01	0.00318
3487.59	0.00236
3499.16	0.00174
3510.73	0.0012967
3522.31	0.00107
3533.88	0.0008943
3545.46	0.0006776
3557.03	0.0006184
3568.6	0.00053221
3580.18	0.00044804
3591.75	0.0003987
3603.33	0.00049943
3614.9	0.000437
3626.47	0.00054671
3638.05	0.0006048
3649.62	0.0007414
3661.2	0.0013927
3672.77	0.00158
3684.34	0.0011206
3695.92	0.0006003
3707.49	0.0003792
3719.07	0.000245
3730.64	0.000246
3742.21	0.0001
3753.79	0.000207
3765.36	0.000162
3776.94	0.000139
3788.51	0.000118
3800.08	7.8e-05
3811.66	0.000171
3823.23	0.000162
3834.81	9.2e-05
3846.38	0.00011
3857.95	9.4e-05
3869.53	0.000135
3881.1	0.000159
3892.68	0.000218
3904.25	6.5e-05
3915.82	6.9e-05
3927.4	2.5e-05
3938.97	6.9e-05
3950.55	0.000176
3962.12	8.2e-05
3973.69	0.000141
3985.27	6.2e-05
3996.84	0.000126
