Infrared Spectrum: BARBITURIC ACID, 5-(4-PYRIDYLMETHYLENE)-
Formula: C10 H7 N3 O3
CAS: 68160-62-3
State: SOLID (SPLIT MULL, FLUOROLUBE FOR 3800-1340 AND NUJOL FOR 1340-470 CM ^-^1)
Class: COBLENTZ III
Instrument: DOW KBr FOREPRISM-GRATING
Instrument parameters: BLAZED AT 3.5, 12.0, 20.0 MICRON, CHANGED AT 5.0, 7.5, 14.9 MICRON
Sampling: TRANSMISSION
Resolution: 4
Origin: DOW CHEMICAL COMPANY
1/CM	TRANSMITTANCE
465.158	0.894
474.092	0.909
483.026	0.924
491.96	0.926
500.894	0.906
509.828	0.894
518.761	0.873
527.695	0.838
536.629	0.658
545.563	0.533
554.497	0.36
563.431	0.544
572.365	0.575
581.299	0.646
590.233	0.71
599.167	0.707
608.101	0.683
617.034	0.718
625.968	0.703
634.902	0.682
643.836	0.649
652.77	0.614
661.704	0.63
670.638	0.75
679.572	0.795
688.506	0.952
697.44	0.935
706.374	0.86
715.307	0.77
724.241	0.753
733.175	0.713
742.109	0.699
751.043	0.66
759.977	0.573
768.911	0.55
777.845	0.376
786.779	0.49
795.713	0.561
804.647	0.544
813.58	0.506
822.514	0.445
831.448	0.344
840.382	0.398
849.316	0.564
858.25	0.683
867.184	0.777
876.118	0.697
885.052	0.616
893.986	0.731
902.92	0.752
911.854	0.756
920.787	0.727
929.721	0.736
938.655	0.788
947.589	0.82
956.523	0.834
965.457	0.839
974.391	0.844
983.325	0.842
992.259	0.85
1001.19	0.825
1010.13	0.85
1019.06	0.866
1027.99	0.883
1036.93	0.884
1045.86	0.878
1054.8	0.855
1063.73	0.832
1072.66	0.888
1081.6	0.923
1090.53	0.934
1099.47	0.905
1108.4	0.923
1117.33	0.912
1126.27	0.94
1135.2	0.942
1144.14	0.927
1153.07	0.874
1162	0.799
1170.94	0.92
1179.87	0.922
1188.8	0.878
1197.74	0.864
1206.67	0.855
1215.61	0.885
1224.54	0.884
1233.47	0.852
1242.41	0.757
1251.34	0.795
1260.28	0.898
1269.21	0.906
1278.14	0.884
1287.08	0.831
1296.01	0.711
1304.95	0.784
1313.88	0.798
1322.81	0.768
1331.75	0.699
1340.68	0.537
1349.62	0.417
1358.55	0.42
1367.48	0.487
1376.42	0.502
1385.35	0.445
1394.28	0.331
1403.22	0.196
1412.15	0.2821
1421.09	0.589
1430.02	0.64
1438.95	0.601
1447.89	0.526
1456.82	0.427
1465.76	0.398
1474.69	0.398
1483.62	0.472
1492.56	0.487
1501.49	0.2989
1510.43	0.4399
1519.36	0.582
1528.29	0.554
1537.23	0.512
1546.16	0.456
1555.1	0.398
1564.03	0.331
1572.96	0.253
1581.9	0.172
1590.83	0.103
1599.76	0.062
1608.7	0.069
1617.63	0.075
1626.57	0.079
1635.5	0.093
1644.43	0.133
1653.37	0.182
1662.3	0.157
1671.24	0.097
1680.17	0.054
1689.1	0.034
1698.04	0.041
1706.97	0.111
1715.91	0.2221
1724.84	0.3731
1733.77	0.575
1742.71	0.7151
1751.64	0.818
1760.57	0.877
1769.51	0.92
1778.44	0.949
1787.38	0.967
1796.31	0.984
1805.24	0.997
1814.18	0.998
1823.11	1
1832.05	0.998
1840.98	0.995
1849.91	0.995
1858.85	0.998
1867.78	0.998
1876.72	1
1885.65	1
1894.58	0.997
1903.52	0.991
1912.45	0.99
1921.39	0.984
1930.32	0.983
1939.25	0.981
1948.19	0.976
1957.12	0.976
1966.05	0.974
1974.99	0.972
1983.92	0.967
1992.86	0.955
2001.79	0.958
2010.72	0.959
2019.66	0.955
2028.59	0.956
2037.53	0.955
2046.46	0.954
2055.39	0.947
2064.33	0.938
2073.26	0.935
2082.2	0.934
2091.13	0.931
2100.06	0.9259
2109	0.9189
2117.93	0.915
2126.87	0.912
2135.8	0.909
2144.73	0.906
2153.67	0.9009
2162.6	0.898
2171.53	0.896
2180.47	0.888
2189.4	0.8849
2198.34	0.883
2207.27	0.8809
2216.2	0.8709
2225.14	0.8659
2234.07	0.8529
2243.01	0.8489
2251.94	0.8437
2260.87	0.8367
2269.81	0.8279
2278.74	0.8239
2287.68	0.82
2296.61	0.811
2305.54	0.81
2314.48	0.8029
2323.41	0.7978
2332.35	0.795
2341.28	0.793
2350.21	0.7919
2359.15	0.788
2368.08	0.786
2377.01	0.785
2385.95	0.784
2394.88	0.7807
2403.82	0.778
2412.75	0.7749
2421.68	0.7706
2430.62	0.767
2439.55	0.7657
2448.49	0.7585
2457.42	0.75
2466.35	0.747
2475.29	0.7447
2484.22	0.74
2493.16	0.739
2502.09	0.7347
2511.02	0.7288
2519.96	0.7248
2528.89	0.722
2537.83	0.7216
2546.76	0.7126
2555.69	0.7068
2564.63	0.6986
2573.56	0.694
2582.49	0.6916
2591.43	0.6828
2600.36	0.678
2609.3	0.6748
2618.23	0.667
2627.16	0.658
2636.1	0.651
2645.03	0.6438
2653.97	0.6386
2662.9	0.6276
2671.83	0.6181
2680.77	0.6073
2689.7	0.5993
2698.64	0.5863
2707.57	0.5753
2716.5	0.5673
2725.44	0.554
2734.37	0.547
2743.31	0.535
2752.24	0.5212
2761.17	0.5015
2770.11	0.4792
2779.04	0.457
2787.97	0.4267
2796.91	0.4168
2805.84	0.4411
2814.78	0.4553
2823.71	0.455
2832.64	0.4432
2841.58	0.4259
2850.51	0.4024
2859.45	0.3926
2868.38	0.3751
2877.31	0.3349
2886.25	0.396
2895.18	0.3794
2904.12	0.3597
2913.05	0.3488
2921.98	0.3378
2930.92	0.3264
2939.85	0.3111
2948.78	0.301
2957.72	0.2847
2966.65	0.273
2975.59	0.2554
2984.52	0.2393
2993.45	0.235
3002.39	0.239
3011.32	0.24
3020.26	0.242
3029.19	0.242
3038.12	0.243
3047.06	0.2477
3055.99	0.252
3064.93	0.2513
3073.86	0.2426
3082.79	0.2309
3091.73	0.2368
3100.66	0.252
3109.6	0.2483
3118.53	0.2426
3127.46	0.2386
3136.4	0.233
3145.33	0.2368
3154.26	0.2515
3163.2	0.2766
3172.13	0.3072
3181.07	0.3316
3190	0.3494
3198.93	0.3612
3207.87	0.3748
3216.8	0.383
3225.74	0.3932
3234.67	0.4097
3243.6	0.4194
3252.54	0.4347
3261.47	0.4478
3270.41	0.4607
3279.34	0.4851
3288.27	0.5237
3297.21	0.5667
3306.14	0.5953
3315.08	0.6316
3324.01	0.6588
3332.94	0.6803
3341.88	0.6925
3350.81	0.7013
3359.74	0.706
3368.68	0.7051
3377.61	0.703
3386.55	0.699
3395.48	0.697
3404.41	0.696
3413.35	0.6911
3422.28	0.6846
3431.22	0.6815
3440.15	0.676
3449.08	0.67
3458.02	0.6645
3466.95	0.6495
3475.89	0.638
3484.82	0.6295
3493.75	0.6215
3502.69	0.6185
3511.62	0.624
3520.56	0.6345
3529.49	0.6455
3538.42	0.648
3547.36	0.6435
3556.29	0.638
3565.22	0.631
3574.16	0.626
3583.09	0.6311
3592.03	0.6386
3600.96	0.6521
3609.89	0.6631
3618.83	0.6787
3627.76	0.6931
3636.7	0.7091
3645.63	0.7161
3654.56	0.7231
3663.5	0.724
3672.43	0.721
3681.37	0.715
3690.3	0.711
3699.23	0.7074
3708.17	0.7049
3717.1	0.7
3726.04	0.6964
3734.97	0.693
3743.9	0.6884
3752.84	0.685
3761.77	0.682
3770.7	0.679
3779.64	0.676
3788.57	0.674
3797.51	0.6698
