Infrared Spectrum: TETRA-n-PROPOXYSILANE
Formula: C12 H28 O4 Si
CAS: 682-01-9
State: SOLUTION (10% IN CCl4 FOR 3800-1350, 2.5% IN CS2 FOR 1350-600, AND 10% IN CCl4 FOR 600-250 CM^-^1)
Class: COBLENTZ III
Instrument: PERKIN-ELMER 521 (GRATING)
Instrument parameters: FILTERS AT 3150, 2500, 2000, 1150, 700, 410. GRATING CHANGES: 2000, 630 CM^-^1
Sampling: TRANSMISSION
Path length: 0.011 CM, 0.011 CM, AND 0.009 CM
Resolution: 2
Origin: DOW CORNING CORP.
1/CM	TRANSMITTANCE
246.172	0.778
255.383	0.778
264.595	0.778
273.806	0.773
283.017	0.777
292.228	0.799
301.44	0.803
310.651	0.807
319.862	0.807
329.074	0.807
338.285	0.799
347.496	0.792
356.708	0.779
365.919	0.748
375.13	0.71
384.341	0.67
393.553	0.657
402.764	0.665
411.975	0.684
421.187	0.706
430.398	0.732
439.609	0.751
448.82	0.743
458.032	0.713
467.243	0.675
476.454	0.633
485.666	0.58
494.877	0.531
504.088	0.546
513.299	0.702
522.511	0.855
531.722	0.909
540.933	0.93
550.145	0.944
559.356	0.953
568.567	0.955
577.779	0.949
586.99	0.953
596.201	0.96
605.412	0.958
614.624	0.955
623.835	0.95
633.046	0.937
642.258	0.929
651.469	0.92
660.68	0.912
669.891	0.907
679.103	0.91
688.314	0.906
697.525	0.906
706.737	0.907
715.948	0.899
725.159	0.874
734.371	0.787
743.582	0.645
752.793	0.793
762.004	0.859
771.216	0.853
780.427	0.869
789.638	0.875
798.85	0.876
808.061	0.858
817.272	0.813
826.483	0.697
835.695	0.552
844.906	0.495
854.117	0.572
863.329	0.671
872.54	0.667
881.751	0.7
890.963	0.726
900.174	0.722
909.385	0.761
918.596	0.837
927.808	0.871
937.019	0.876
946.23	0.876
955.442	0.873
964.653	0.863
973.864	0.848
983.075	0.813
992.287	0.741
1001.5	0.526
1010.71	0.309
1019.92	0.247
1029.13	0.559
1038.34	0.725
1047.55	0.702
1056.77	0.6
1065.98	0.416
1075.19	0.124
1084.4	0.064
1093.61	0.104
1102.82	0.114
1112.03	0.272
1121.24	0.432
1130.46	0.589
1139.67	0.584
1148.88	0.534
1158.09	0.638
1167.3	0.72
1176.51	0.803
1185.72	0.83
1194.94	0.84
1204.15	0.859
1213.36	0.86
1222.57	0.858
1231.78	0.845
1240.99	0.828
1250.2	0.768
1259.41	0.777
1268.63	0.823
1277.84	0.82
1287.05	0.839
1296.26	0.83
1305.47	0.863
1314.68	0.87
1323.89	0.871
1333.1	0.869
1342.32	0.866
1351.53	0.861
1360.74	0.787
1369.95	0.633
1379.16	0.625
1388.37	0.411
1397.58	0.707
1406.79	0.813
1416.01	0.805
1425.22	0.774
1434.43	0.667
1443.64	0.6249
1452.85	0.379
1462.06	0.309
1471.27	0.503
1480.49	0.699
1489.7	0.819
1498.91	0.856
1508.12	0.881
1517.33	0.898
1526.54	0.911
1535.75	0.941
1544.96	0.951
1554.18	0.936
1563.39	0.929
1572.6	0.924
1581.81	0.927
1591.02	0.919
1600.23	0.909
1609.44	0.906
1618.65	0.906
1627.87	0.905
1637.08	0.904
1646.29	0.904
1655.5	0.902
1664.71	0.901
1673.92	0.901
1683.13	0.904
1692.35	0.906
1701.56	0.907
1710.77	0.906
1719.98	0.905
1729.19	0.902
1738.4	0.899
1747.61	0.893
1756.82	0.885
1766.04	0.888
1775.25	0.898
1784.46	0.904
1793.67	0.904
1802.88	0.905
1812.09	0.902
1821.3	0.898
1830.51	0.895
1839.73	0.893
1848.94	0.891
1858.15	0.89
1867.36	0.89
1876.57	0.893
1885.78	0.894
1894.99	0.893
1904.2	0.89
1913.42	0.889
1922.63	0.88
1931.84	0.876
1941.05	0.874
1950.26	0.88
1959.47	0.886
1968.68	0.89
1977.9	0.894
1987.11	0.895
1996.32	0.901
2005.53	0.916
2014.74	0.919
2023.95	0.9241
2033.16	0.926
2042.37	0.9261
2051.59	0.927
2060.8	0.927
2070.01	0.9292
2079.22	0.93
2088.43	0.93
2097.64	0.93
2106.85	0.929
2116.06	0.926
2125.28	0.9247
2134.49	0.9206
2143.7	0.92
2152.91	0.92
2162.12	0.924
2171.33	0.924
2180.54	0.9195
2189.75	0.919
2198.97	0.92
2208.18	0.921
2217.39	0.922
2226.6	0.924
2235.81	0.924
2245.02	0.925
2254.23	0.926
2263.45	0.927
2272.66	0.927
2281.87	0.927
2291.08	0.927
2300.29	0.9287
2309.5	0.929
2318.71	0.929
2327.92	0.93
2337.14	0.93
2346.35	0.93
2355.56	0.93
2364.77	0.93
2373.98	0.929
2383.19	0.926
2392.4	0.9249
2401.61	0.922
2410.83	0.922
2420.04	0.9242
2429.25	0.927
2438.46	0.925
2447.67	0.924
2456.88	0.924
2466.09	0.924
2475.3	0.924
2484.52	0.924
2493.73	0.924
2502.94	0.924
2512.15	0.924
2521.36	0.922
2530.57	0.922
2539.78	0.921
2549	0.9205
2558.21	0.92
2567.42	0.92
2576.63	0.9164
2585.84	0.9094
2595.05	0.904
2604.26	0.901
2613.47	0.904
2622.69	0.905
2631.9	0.905
2641.11	0.905
2650.32	0.905
2659.53	0.9001
2668.74	0.8886
2677.95	0.8828
2687.16	0.886
2696.38	0.893
2705.59	0.8751
2714.8	0.8539
2724.01	0.7905
2733.22	0.7609
2742.43	0.7614
2751.64	0.7743
2760.86	0.7925
2770.07	0.8232
2779.28	0.844
2788.49	0.8386
2797.7	0.8235
2806.91	0.8086
2816.12	0.7788
2825.33	0.7328
2834.55	0.671
2843.76	0.4976
2852.97	0.421
2862.18	0.2515
2871.39	0.0623
2880.6	0.087
2889.81	0.2065
2899.02	0.1958
2908.24	0.1609
2917.45	0.0938
2926.66	0.0634
2935.87	0.0563
2945.08	0.0889
2954.29	0.0385
2963.5	0.0331
2972.71	0.0529
2981.93	0.2594
2991.14	0.5535
3000.35	0.6918
3009.56	0.7698
3018.77	0.8143
3027.98	0.8475
3037.19	0.8657
3046.41	0.8799
3055.62	0.886
3064.83	0.893
3074.04	0.898
3083.25	0.901
3092.46	0.9041
3101.67	0.9091
3110.88	0.9122
3120.1	0.915
3129.31	0.915
3138.52	0.915
3147.73	0.915
3156.94	0.915
3166.15	0.9163
3175.36	0.9193
3184.57	0.924
3193.79	0.926
3203	0.929
3212.21	0.9314
3221.42	0.932
3230.63	0.934
3239.84	0.935
3249.05	0.9355
3258.26	0.936
3267.48	0.937
3276.69	0.937
3285.9	0.937
3295.11	0.937
3304.32	0.9363
3313.53	0.9353
3322.74	0.9343
3331.96	0.9325
3341.17	0.9312
3350.38	0.931
3359.59	0.931
3368.8	0.931
3378.01	0.931
3387.22	0.931
3396.43	0.931
3405.65	0.931
3414.86	0.931
3424.07	0.931
3433.28	0.932
3442.49	0.932
3451.7	0.934
3460.91	0.934
3470.12	0.934
3479.34	0.934
3488.55	0.932
3497.76	0.9318
3506.97	0.931
3516.18	0.931
3525.39	0.931
3534.6	0.931
3543.81	0.932
3553.03	0.932
3562.24	0.932
3571.45	0.932
3580.66	0.932
3589.87	0.931
3599.08	0.9315
3608.29	0.9315
3617.51	0.931
3626.72	0.931
3635.93	0.931
3645.14	0.931
3654.35	0.931
3663.56	0.931
3672.77	0.931
3681.98	0.93
3691.2	0.93
3700.41	0.93
3709.62	0.929
3718.83	0.929
3728.04	0.927
3737.25	0.927
3746.46	0.927
3755.67	0.927
3764.89	0.929
3774.1	0.929
3783.31	0.929
3792.52	0.929
