Infrared Spectrum: Diethyl methylphosphonate
Formula: C 5 H 13 O 3 P
CAS: 683-08-9
State: gas
Origin: EPA-IR VAPOR PHASE LIBRARY
1/CM	ABSORBANCE
501.5	0.022889
513.074	0.013479
524.648	0.006299
536.222	0.003179
547.796	0.001929
559.37	0.001419
570.944	0.0010007
582.518	0.0007943
594.092	0.0008309
605.666	0.0008275
617.24	0.0009218
628.814	0.0008986
640.388	0.0009902
651.962	0.0012609
663.536	0.001559
675.11	0.002149
686.684	0.003799
698.258	0.007289
709.832	0.010639
721.406	0.009179
732.98	0.006909
744.554	0.008459
756.128	0.015269
767.702	0.022049
779.276	0.027429
790.85	0.042269
802.423	0.041519
813.997	0.019839
825.571	0.009289
837.145	0.007039
848.719	0.006419
860.293	0.006439
871.867	0.008159
883.441	0.015449
895.015	0.028359
906.589	0.029389
918.163	0.029559
929.737	0.050569
941.311	0.095109
952.885	0.132099
964.459	0.114499
976.033	0.068559
987.607	0.038869
999.181	0.032539
1010.76	0.047049
1022.33	0.099539
1033.9	0.175069
1045.48	0.184029
1057.05	0.141809
1068.63	0.113449
1080.2	0.076869
1091.77	0.054989
1103.35	0.045569
1114.92	0.032169
1126.49	0.024099
1138.07	0.020239
1149.64	0.018179
1161.22	0.016699
1172.79	0.014819
1184.36	0.011829
1195.94	0.008709
1207.51	0.007319
1219.09	0.007979
1230.66	0.010739
1242.23	0.020519
1253.81	0.051359
1265.38	0.088519
1276.96	0.073879
1288.53	0.044909
1300.1	0.040119
1311.68	0.045969
1323.25	0.027879
1334.83	0.009619
1346.4	0.005779
1357.97	0.006379
1369.55	0.008849
1381.12	0.012189
1392.7	0.016249
1404.27	0.013249
1415.84	0.009169
1427.42	0.008389
1438.99	0.007019
1450.57	0.006039
1462.14	0.005159
1473.71	0.004549
1485.29	0.003969
1496.86	0.003319
1508.44	0.002629
1520.01	0.002119
1531.58	0.001739
1543.16	0.001469
1554.73	0.0012761
1566.31	0.0012142
1577.88	0.0011824
1589.45	0.0011849
1601.03	0.0011154
1612.6	0.0010783
1624.18	0.0011222
1635.75	0.0012228
1647.32	0.001369
1658.9	0.001499
1670.47	0.001479
1682.05	0.001429
1693.62	0.001439
1705.19	0.001519
1716.77	0.001659
1728.34	0.001939
1739.92	0.002219
1751.49	0.002199
1763.06	0.001999
1774.64	0.001799
1786.21	0.001729
1797.79	0.001899
1809.36	0.002129
1820.93	0.002289
1832.51	0.002279
1844.08	0.001979
1855.66	0.001709
1867.23	0.001459
1878.8	0.0011962
1890.38	0.0010137
1901.95	0.0008126
1913.53	0.0007183
1925.1	0.0006861
1936.67	0.0006457
1948.25	0.0006363
1959.82	0.0006619
1971.4	0.0006669
1982.97	0.0006242
1994.54	0.0005692
2006.12	0.0005681
2017.69	0.0005706
2029.27	0.0005419
2040.84	0.000475
2052.41	0.000433
2063.99	0.0004621
2075.56	0.0005685
2087.14	0.000652
2098.71	0.0007643
2110.28	0.0007961
2121.86	0.0006632
2133.43	0.0005419
2145.01	0.0004903
2156.58	0.0005108
2168.15	0.0004999
2179.73	0.0004891
2191.3	0.0004972
2202.88	0.0005168
2214.45	0.0004949
2226.02	0.0004135
2237.6	0.00037457
2249.17	0.00035341
2260.74	0.00037605
2272.32	0.0003709
2283.89	0.0003826
2295.47	0.00038
2307.04	0.0004141
2318.61	0.0004544
2330.19	0.0004681
2341.76	0.000428
2353.34	0.00037056
2364.91	0.000283795
2376.48	0.00029
2388.06	0.0002629
2399.63	0.000281844
2411.21	0.00030035
2422.78	0.00035958
2434.35	0.0004268
2445.93	0.0004649
2457.5	0.0004849
2469.08	0.0004495
2480.65	0.00034908
2492.22	0.00032114
2503.8	0.00034666
2515.37	0.0003892
2526.95	0.0004006
2538.52	0.0003714
2550.09	0.00031918
2561.67	0.00029703
2573.24	0.00030284
2584.82	0.00029909
2596.39	0.0003137
2607.96	0.00031144
2619.54	0.0003259
2631.11	0.00026958
2642.69	0.00030405
2654.26	0.00030215
2665.83	0.00032336
2677.41	0.00030991
2688.98	0.00035897
2700.56	0.0004663
2712.13	0.000625
2723.7	0.0009174
2735.28	0.0011115
2746.85	0.0011826
2758.43	0.001299
2770	0.001489
2781.57	0.001589
2793.15	0.001519
2804.72	0.001629
2816.3	0.001909
2827.87	0.002349
2839.44	0.002819
2851.02	0.003559
2862.59	0.005219
2874.17	0.008199
2885.74	0.011039
2897.31	0.013559
2908.89	0.016989
2920.46	0.019179
2932.04	0.025209
2943.61	0.029749
2955.18	0.026539
2966.76	0.028019
2978.33	0.038749
2989.91	0.043279
3001.48	0.032369
3013.05	0.020399
3024.63	0.011469
3036.2	0.006459
3047.78	0.003889
3059.35	0.002599
3070.92	0.001889
3082.5	0.001549
3094.07	0.001359
3105.65	0.0012564
3117.22	0.0012169
3128.79	0.0011804
3140.37	0.0010931
3151.94	0.0010334
3163.52	0.00097
3175.09	0.0008284
3186.66	0.0008069
3198.24	0.0007019
3209.81	0.0007429
3221.39	0.0006752
3232.96	0.0006028
3244.53	0.0005361
3256.11	0.0004419
3267.68	0.0004422
3279.26	0.00034005
3290.83	0.0002995
3302.4	0.0002658
3313.98	0.000279374
3325.55	0.000280992
3337.13	0.00019
3348.7	0.0002397
3360.27	0.0001971
3371.85	0.0002572
3383.42	0.0002349
3395	0.0001802
3406.57	0.0002101
3418.14	0.000142
3429.72	0.000148
3441.29	0.000145
3452.86	0.00014
3464.44	0.000126
3476.01	0.000109
3487.59	0.000119
3499.16	7.9e-05
3510.73	6.1e-05
3522.31	8.3e-05
3533.88	0.000115
3545.46	0.00012
3557.03	0
3568.6	7.9e-05
3580.18	6.7e-05
3591.75	8.2e-05
3603.33	7.6e-05
3614.9	7e-05
3626.47	0.000119
3638.05	8.3e-05
3649.62	0.000134
3661.2	0.00011
3672.77	8.6e-05
3684.34	0.000176
3695.92	0.0002073
3707.49	0.000169
3719.07	0.0002276
3730.64	0.0002198
3742.21	0.00027493
3753.79	0.0002501
3765.36	0.0002143
3776.94	0.0002377
3788.51	0.0002328
3800.08	0.0002686
3811.66	0.00034241
3823.23	0.0004467
3834.81	0.0004305
3846.38	0.000286649
3857.95	0.0001886
3869.53	0.000163
3881.1	0.00035783
3892.68	0.0003986
3904.25	0.00034645
3915.82	0.00035953
3927.4	0.00033761
3938.97	0.0003805
3950.55	0.000286105
3962.12	0.000401
3973.69	0.0003889
3985.27	0.0003967
3996.84	0.0004263
