Infrared Spectrum: N-Methylpivalamide
Formula: C 6 H 13 N O
CAS: 6830-83-7
State: gas
Origin: EPA-IR VAPOR PHASE LIBRARY
1/CM	ABSORBANCE
549.8	0.001466
559.445	0.001566
569.09	0.002156
578.734	0.002466
588.379	0.002486
598.024	0.001406
607.669	0.001496
617.313	0.0012485
626.958	0.0011416
636.603	0.0012318
646.248	0.0012345
655.893	0.0010413
665.537	0.0011877
675.182	0.0010196
684.827	0.001416
694.472	0.001366
704.116	0.001346
713.761	0.001616
723.406	0.001706
733.051	0.002016
742.695	0.002096
752.34	0.002456
761.985	0.002786
771.63	0.002866
781.275	0.002826
790.919	0.002466
800.564	0.002356
810.209	0.002816
819.854	0.003386
829.498	0.003986
839.143	0.004056
848.788	0.004546
858.433	0.004746
868.078	0.004766
877.722	0.004286
887.367	0.004026
897.012	0.003646
906.657	0.003686
916.301	0.003596
925.946	0.003356
935.591	0.003146
945.236	0.002746
954.88	0.002436
964.525	0.002016
974.17	0.001816
983.815	0.002556
993.46	0.003286
1003.1	0.004126
1012.75	0.004416
1022.39	0.003906
1032.04	0.003526
1041.68	0.002726
1051.33	0.002256
1060.97	0.002006
1070.62	0.001316
1080.26	0.001366
1089.91	0.001956
1099.55	0.002916
1109.2	0.002426
1118.84	0.002916
1128.49	0.002906
1138.13	0.003206
1147.78	0.004566
1157.42	0.008356
1167.07	0.016026
1176.71	0.031336
1186.36	0.046156
1196	0.047186
1205.64	0.032606
1215.29	0.018976
1224.93	0.011616
1234.58	0.007696
1244.22	0.006506
1253.87	0.007616
1263.51	0.010186
1273.16	0.012346
1282.8	0.011076
1292.45	0.006866
1302.09	0.003996
1311.74	0.002966
1321.38	0.002706
1331.03	0.002906
1340.67	0.003966
1350.32	0.006886
1359.96	0.011356
1369.61	0.014936
1379.25	0.014246
1388.9	0.013936
1398.54	0.015006
1408.18	0.016686
1417.83	0.014566
1427.47	0.013966
1437.12	0.013486
1446.76	0.016356
1456.41	0.023456
1466.05	0.034356
1475.7	0.052806
1485.34	0.074306
1494.99	0.084746
1504.63	0.073886
1514.28	0.052226
1523.92	0.035696
1533.57	0.026166
1543.21	0.019596
1552.86	0.014076
1562.5	0.009996
1572.15	0.007326
1581.79	0.005926
1591.44	0.004926
1601.08	0.004406
1610.73	0.004316
1620.37	0.004306
1630.01	0.004716
1639.66	0.005506
1649.3	0.007516
1658.95	0.012326
1668.59	0.023026
1678.24	0.043386
1687.88	0.072656
1697.53	0.086776
1707.17	0.086606
1716.82	0.067026
1726.46	0.035026
1736.11	0.014906
1745.75	0.005936
1755.4	0.003096
1765.04	0.002136
1774.69	0.001606
1784.33	0.001346
1793.98	0.001306
1803.62	0.0011122
1813.27	0.0009763
1822.91	0.0009187
1832.55	0.0009288
1842.2	0.0009017
1851.84	0.0008693
1861.49	0.0007902
1871.13	0.0007375
1880.78	0.0006749
1890.42	0.0007053
1900.07	0.0007911
1909.71	0.0007436
1919.36	0.0007051
1929	0.0006689
1938.65	0.0006214
1948.29	0.0006369
1957.94	0.0006144
1967.58	0.0006177
1977.23	0.0006508
1986.87	0.0007323
1996.52	0.0006076
2006.16	0.0007472
2015.81	0.0007376
2025.45	0.0006793
2035.1	0.0006534
2044.74	0.000735
2054.38	0.0007406
2064.03	0.0007384
2073.67	0.0006284
2083.32	0.0005153
2092.96	0.0005301
2102.61	0.0004161
2112.25	0.0004317
2121.9	0.000482
2131.54	0.0005238
2141.19	0.0005146
2150.83	0.0005693
2160.48	0.0005056
2170.12	0.000514
2179.77	0.0005478
2189.41	0.0006047
2199.06	0.0006213
2208.7	0.0004451
2218.35	0.0005537
2227.99	0.0005653
2237.64	0.000407
2247.28	0.0004786
2256.92	0.0005213
2266.57	0.000433
2276.21	0.0004659
2285.86	0.00051
2295.5	0.0005311
2305.15	0.0005522
2314.79	0.0005127
2324.44	0.0004107
2334.08	0.0003957
2343.73	0.0003884
2353.37	0.0005628
2363.02	0.0005114
2372.66	0.0004479
2382.31	0.0004926
2391.95	0.0006037
2401.6	0.0004829
2411.24	0.0004812
2420.89	0.0004675
2430.53	0.0005126
2440.18	0.0004924
2449.82	0.0005025
2459.47	0.0004472
2469.11	0.0006277
2478.75	0.0006404
2488.4	0.0006025
2498.04	0.000502
2507.69	0.0006546
2517.33	0.0005305
2526.98	0.0006825
2536.62	0.0007791
2546.27	0.0007179
2555.91	0.0007648
2565.56	0.0008272
2575.2	0.0008844
2584.85	0.0008001
2594.49	0.0008391
2604.14	0.0007035
2613.78	0.0008374
2623.43	0.0008609
2633.07	0.0008609
2642.72	0.0009771
2652.36	0.0008232
2662.01	0.0008014
2671.65	0.00089
2681.29	0.0008967
2690.94	0.0010317
2700.58	0.0008973
2710.23	0.0011592
2719.87	0.001296
2729.52	0.001306
2739.16	0.001416
2748.81	0.001466
2758.45	0.001486
2768.1	0.001616
2777.74	0.001776
2787.39	0.002196
2797.03	0.003086
2806.68	0.004246
2816.32	0.005146
2825.97	0.005096
2835.61	0.004886
2845.26	0.005636
2854.9	0.008516
2864.55	0.014386
2874.19	0.021316
2883.84	0.025386
2893.48	0.027506
2903.12	0.030696
2912.77	0.035176
2922.41	0.038926
2932.06	0.042886
2941.7	0.051016
2951.35	0.065086
2960.99	0.076306
2970.64	0.072956
2980.28	0.052526
2989.93	0.030996
2999.57	0.018156
3009.22	0.010386
3018.86	0.006516
3028.51	0.004916
3038.15	0.004216
3047.8	0.003866
3057.44	0.003476
3067.09	0.003046
3076.73	0.002746
3086.38	0.002466
3096.02	0.002186
3105.67	0.001846
3115.31	0.001686
3124.95	0.001676
3134.6	0.0012512
3144.24	0.001446
3153.89	0.001336
3163.53	0.001446
3173.18	0.0012742
3182.82	0.001286
3192.47	0.0012288
3202.11	0.001326
3211.76	0.0011923
3221.4	0.0009699
3231.05	0.0009773
3240.69	0.0008289
3250.34	0.0007732
3259.98	0.0004998
3269.63	0.0007096
3279.27	0.0006924
3288.92	0.000761
3298.56	0.0006828
3308.21	0.0005538
3317.85	0.0006897
3327.49	0.0006259
3337.14	0.0008255
3346.78	0.0006781
3356.43	0.001078
3366.07	0.0012518
3375.72	0.001356
3385.36	0.001506
3395.01	0.0012045
3404.65	0.0012094
3414.3	0.0008144
3423.94	0.0006074
3433.59	0.0008005
3443.23	0.0009282
3452.88	0.0011881
3462.52	0.001916
3472.17	0.003506
3481.81	0.005676
3491.46	0.007866
3501.1	0.008596
3510.75	0.007586
3520.39	0.005226
3530.04	0.002826
3539.68	0.001576
3549.32	0.0007417
3558.97	0.0007264
3568.61	0.000506
3578.26	0.000277977
3587.9	0.00035338
3597.55	0.00034188
3607.19	0.0003638
3616.84	0
3626.48	0.0002625
3636.13	0.0002298
3645.77	0.000126
3655.42	0.0002209
3665.06	0.0002535
3674.71	0.0002252
3684.35	0.00032119
3694	0.0002363
3703.64	0.00035859
3713.29	0.0004033
3722.93	0.00032231
3732.58	0.000499
3742.22	0.0003802
3751.86	0.0002617
3761.51	0.000279875
3771.15	0.000125
3780.8	0.0002346
3790.44	0.0003781
3800.09	0.0002502
3809.73	0.0003763
3819.38	0.00027472
3829.02	0.00033587
3838.67	0.00032374
3848.31	0.0004425
3857.96	0.0003725
3867.6	0.0004443
3877.25	0.00030866
3886.89	0.0006374
3896.54	0.0005139
3906.18	0.0004723
3915.83	0.00028757
3925.47	0.00033121
3935.12	0.0005997
3944.76	0.0003747
3954.41	0.00030111
3964.05	0.0003895
3973.69	0.0005838
3983.34	0.0005132
3992.98	0.0004392
