Infrared Spectrum: M-CHLOROBUTYRYLANILIDE
Formula: C10 H12 Cl N O
CAS: 6832-93-5
State: SOLUTION (10% CCl4 FOR 5000-1330, 10% CS2 FOR 1330-625 CM^-^1)
Class: COBLENTZ
Instrument: Not specified, most likely a prism, grating, or hybrid spectrometer.
Sampling: TRANSMISSION
Path length: 0.0124 CM, 0.0105 CM
Resolution: 4
Origin: DOW CHEMICAL COMPANY
MICROMETERS	TRANSMITTANCE
2.04	0.903
2.0801	0.9
2.12019	0.9
2.16029	0.9
2.20038	0.895
2.24048	0.891
2.28057	0.888
2.32067	0.886
2.36076	0.886
2.40086	0.885
2.44096	0.885
2.48105	0.886
2.52115	0.891
2.56124	0.891
2.60134	0.896
2.64143	0.9
2.68153	0.9
2.72162	0.9
2.76172	0.9
2.80181	0.901
2.84191	0.905
2.88201	0.846
2.9221	0.787
2.9622	0.597
3.00229	0.261
3.04239	0.251
3.08248	0.432
3.12258	0.51
3.16267	0.59
3.20277	0.552
3.24287	0.585
3.28296	0.627
3.32306	0.642
3.36315	0.336
3.40325	0.457
3.44334	0.602
3.48344	0.74
3.52353	0.815
3.56363	0.828
3.60373	0.845
3.64382	0.853
3.68392	0.861
3.72401	0.875
3.76411	0.875
3.8042	0.88
3.8443	0.881
3.88439	0.885
3.92449	0.885
3.96458	0.881
4.00468	0.88
4.04478	0.88
4.08487	0.883
4.12497	0.881
4.16506	0.878
4.20516	0.878
4.24525	0.878
4.28535	0.871
4.32544	0.88
4.36554	0.883
4.40564	0.885
4.44573	0.886
4.48583	0.888
4.52592	0.888
4.56602	0.88
4.60611	0.876
4.64621	0.88
4.6863	0.883
4.7264	0.886
4.76649	0.886
4.80659	0.886
4.84669	0.888
4.88678	0.888
4.92688	0.886
4.96697	0.888
5.00707	0.893
5.04716	0.885
5.08726	0.881
5.12735	0.866
5.16745	0.851
5.20755	0.866
5.24764	0.881
5.28774	0.88
5.32783	0.876
5.36793	0.851
5.40802	0.843
5.44812	0.853
5.48821	0.86
5.52831	0.856
5.56841	0.841
5.6085	0.818
5.6486	0.81
5.68869	0.798
5.72879	0.775
5.76888	0.748
5.80898	0.668
5.84907	0.47
5.88917	0.337
5.92926	0.207
5.96936	0.069
6.00946	0.019
6.04955	0.126
6.08965	0.452
6.12974	0.479
6.16984	0.364
6.20993	0.131
6.25003	0.023
6.29012	0.079
6.33022	0.312
6.37032	0.362
6.41041	0.274
6.45051	0.144
6.4906	0.074
6.5307	0.039
6.57079	0.061
6.61089	0.119
6.65098	0.274
6.69108	0.244
6.73118	0.031
6.77127	0.121
6.81137	0.236
6.85146	0.294
6.89156	0.354
6.93165	0.346
6.97175	0.178
7.01184	0.049
7.05194	0.116
7.09203	0.146
7.13213	0.269
7.17223	0.509
7.21232	0.5
7.25242	0.497
7.29251	0.515
7.33261	0.517
7.3727	0.544
7.4128	0.587
7.45289	0.517
7.49299	0.444
7.53309	0.415
7.57318	0.427
7.61328	0.382
7.65337	0.332
7.69347	0.316
7.73356	0.404
7.77366	0.462
7.81375	0.467
7.85385	0.434
7.89395	0.404
7.93404	0.412
7.97414	0.397
8.01423	0.405
8.05433	0.445
8.09442	0.494
8.13452	0.584
8.17461	0.642
8.21471	0.635
8.2548	0.549
8.2949	0.402
8.335	0.279
8.37509	0.261
8.41519	0.366
8.45528	0.464
8.49538	0.542
8.53547	0.569
8.57557	0.554
8.61566	0.675
8.65576	0.77
8.69586	0.798
8.73595	0.82
8.77605	0.826
8.81614	0.831
8.85624	0.83
8.89633	0.825
8.93643	0.815
8.97652	0.785
9.01662	0.72
9.05671	0.592
9.09681	0.415
9.13691	0.384
9.177	0.452
9.2171	0.499
9.25719	0.469
9.29729	0.384
9.33738	0.469
9.37748	0.685
9.41757	0.767
9.45767	0.787
9.49777	0.798
9.53786	0.805
9.57796	0.806
9.61805	0.821
9.65815	0.86
9.69824	0.88
9.73834	0.886
9.77843	0.891
9.81853	0.893
9.85863	0.891
9.89872	0.888
9.93882	0.878
9.97891	0.795
10.019	0.678
10.0591	0.803
10.0992	0.89
10.1393	0.89
10.1794	0.886
10.2195	0.88
10.2596	0.866
10.2997	0.836
10.3398	0.803
10.3799	0.803
10.42	0.833
10.4601	0.838
10.5002	0.838
10.5402	0.841
10.5803	0.865
10.6204	0.878
10.6605	0.885
10.7006	0.88
10.7407	0.858
10.7808	0.82
10.8209	0.74
10.861	0.64
10.9011	0.577
10.9412	0.587
10.9813	0.6
11.0214	0.622
11.0615	0.648
11.1016	0.69
11.1417	0.71
11.1818	0.698
11.2219	0.643
11.262	0.582
11.3021	0.512
11.3422	0.435
11.3823	0.371
11.4224	0.337
11.4624	0.329
11.5025	0.359
11.5426	0.407
11.5827	0.449
11.6228	0.502
11.6629	0.562
11.703	0.605
11.7431	0.657
11.7832	0.733
11.8233	0.79
11.8634	0.821
11.9035	0.848
11.9436	0.858
11.9837	0.866
12.0238	0.866
12.0639	0.866
12.104	0.865
12.1441	0.863
12.1842	0.863
12.2243	0.846
12.2644	0.828
12.3045	0.803
12.3445	0.785
12.3846	0.767
12.4247	0.76
12.4648	0.755
12.5049	0.753
12.545	0.745
12.5851	0.722
12.6252	0.685
12.6653	0.622
12.7054	0.525
12.7455	0.392
12.7856	0.239
12.8257	0.109
12.8658	0.049
12.9059	0.063
12.946	0.166
12.9861	0.346
13.0262	0.475
13.0663	0.542
13.1064	0.572
13.1465	0.584
13.1866	0.592
13.2266	0.595
13.2667	0.594
13.3068	0.589
13.3469	0.582
13.387	0.574
13.4271	0.565
13.4672	0.564
13.5073	0.562
13.5474	0.567
13.5875	0.567
13.6276	0.57
13.6677	0.574
13.7078	0.575
13.7479	0.572
13.788	0.57
13.8281	0.569
13.8682	0.567
13.9083	0.562
13.9484	0.555
13.9885	0.547
14.0286	0.545
14.0687	0.535
14.1087	0.527
14.1488	0.522
14.1889	0.51
14.229	0.497
14.2691	0.475
14.3092	0.445
14.3493	0.412
14.3894	0.384
14.4295	0.366
14.4696	0.364
14.5097	0.366
14.5498	0.359
14.5899	0.319
14.63	0.272
14.6701	0.236
14.7102	0.237
14.7503	0.291
14.7904	0.384
14.8305	0.492
14.8706	0.555
14.9107	0.597
14.9508	0.628
14.9909	0.655
15.0309	0.67
15.071	0.678
15.1111	0.68
15.1512	0.682
15.1913	0.685
15.2314	0.685
15.2715	0.683
15.3116	0.683
15.3517	0.68
15.3918	0.678
15.4319	0.68
15.472	0.682
15.5121	0.682
15.5522	0.685
15.5923	0.687
15.6324	0.69
15.6725	0.69
15.7126	0.69
15.7527	0.69
15.7928	0.69
15.8329	0.69
15.873	0.69
