Infrared Spectrum: 3-Bromo-4-fluorobenzotrifluoride
Formula: C 7 H 3 Br F 4
CAS: 68322-84-9
State: gas
Origin: EPA-IR VAPOR PHASE LIBRARY
1/CM	ABSORBANCE
549.8	0.00137
559.445	0.001356
569.09	0.001303
578.734	0.0023378
588.379	0.00369
598.024	0.00343
607.669	0.01317
617.313	0.02026
626.958	0.00725
636.603	0.00403
646.248	0.0022816
655.893	0.0019754
665.537	0.00403
675.182	0.01524
684.827	0.02007
694.472	0.00556
704.116	0.0024679
713.761	0.00344
723.406	0.00356
733.051	0.0021977
742.695	0.0017127
752.34	0.00262
761.985	0.0022193
771.63	0.0015672
781.275	0.0018935
790.919	0.0017676
800.564	0.00160165
810.209	0.00594
819.854	0.01496
829.498	0.01699
839.143	0.00735
848.788	0.00657
858.433	0.00496
868.078	0.0024148
877.722	0.00365
887.367	0.00905
897.012	0.01118
906.657	0.00498
916.301	0.0021715
925.946	0.0017186
935.591	0.0019053
945.236	0.0020568
954.88	0.0023314
964.525	0.002337
974.17	0.00169461
983.815	0.0020065
993.46	0.0025645
1003.1	0.0021155
1012.75	0.00311
1022.39	0.00284
1032.04	0.0027
1041.68	0.00583
1051.33	0.01188
1060.97	0.0131
1070.62	0.02833
1080.26	0.04754
1089.91	0.0214
1099.55	0.00579
1109.2	0.00664
1118.84	0.01072
1128.49	0.02337
1138.13	0.05976
1147.78	0.1089
1157.42	0.09703
1167.07	0.06415
1176.71	0.09206
1186.36	0.04032
1196	0.0117
1205.64	0.00571
1215.29	0.0023384
1224.93	0.00269
1234.58	0.00404
1244.22	0.00648
1253.87	0.01175
1263.51	0.03318
1273.16	0.04793
1282.8	0.01453
1292.45	0.01452
1302.09	0.02962
1311.74	0.1094
1321.38	0.2225
1331.03	0.06848
1340.67	0.0163
1350.32	0.00977
1359.96	0.007
1369.61	0.00989
1379.25	0.01022
1388.9	0.01206
1398.54	0.01472
1408.18	0.01283
1417.83	0.00466
1427.47	0.00307
1437.12	0.00372
1446.76	0.00309
1456.41	0.00305
1466.05	0.0038
1475.7	0.00406
1485.34	0.00532
1494.99	0.01408
1504.63	0.0237
1514.28	0.00913
1523.92	0.00564
1533.57	0.0033
1543.21	0.00266
1552.86	0.0024673
1562.5	0.00275
1572.15	0.00349
1581.79	0.00426
1591.44	0.00693
1601.08	0.01191
1610.73	0.01158
1620.37	0.00701
1630.01	0.00495
1639.66	0.00343
1649.3	0.0024744
1658.95	0.0022056
1668.59	0.0018209
1678.24	0.001575
1687.88	0.0017421
1697.53	0.0015142
1707.17	0.00166865
1716.82	0.0017564
1726.46	0.001418
1736.11	0.001345
1745.75	0.0015508
1755.4	0.0018084
1765.04	0.0025685
1774.69	0.00294
1784.33	0.0023915
1793.98	0.0020977
1803.62	0.0015722
1813.27	0.0018203
1822.91	0.0017345
1832.55	0.00161123
1842.2	0.0015377
1851.84	0.00166761
1861.49	0.00163133
1871.13	0.001738
1880.78	0.0021655
1890.42	0.00296
1900.07	0.00288
1909.71	0.0017812
1919.36	0.0018385
1929	0.0018695
1938.65	0.0017665
1948.29	0.00164124
1957.94	0.0015486
1967.58	0.0017766
1977.23	0.0018373
1986.87	0.00160209
1996.52	0.002086
2006.16	0.002049
2015.81	0.0017349
2025.45	0.001898
2035.1	0.0018016
2044.74	0.0016445
2054.38	0.0017107
2064.03	0.0018962
2073.67	0.0019749
2083.32	0.0017665
2092.96	0.0018633
2102.61	0.00162053
2112.25	0.00165921
2121.9	0.001786
2131.54	0.0016201
2141.19	0.0015777
2150.83	0.0017279
2160.48	0.0018463
2170.12	0.0020774
2179.77	0.0022334
2189.41	0.0020146
2199.06	0.0017736
2208.7	0.0019582
2218.35	0.0020186
2227.99	0.0021026
2237.64	0.0017444
2247.28	0.0017806
2256.92	0.0018885
2266.57	0.001734
2276.21	0.00168133
2285.86	0.0019567
2295.5	0.0022639
2305.15	0.0020953
2314.79	0.00205
2324.44	0.0024603
2334.08	0.0022083
2343.73	0.0020659
2353.37	0.0023608
2363.02	0.0020341
2372.66	0.0017081
2382.31	0.0015344
2391.95	0.0017235
2401.6	0.0017458
2411.24	0.0020175
2420.89	0.0019398
2430.53	0.001773
2440.18	0.0018338
2449.82	0.0018401
2459.47	0.00164766
2469.11	0.0017798
2478.75	0.001799
2488.4	0.0022155
2498.04	0.0021792
2507.69	0.0019286
2517.33	0.00215
2526.98	0.0021859
2536.62	0.0019228
2546.27	0.0019279
2555.91	0.00161035
2565.56	0.0021563
2575.2	0.0022342
2584.85	0.0022288
2594.49	0.0018282
2604.14	0.001498
2613.78	0.0015698
2623.43	0.0015774
2633.07	0.00167618
2642.72	0.0017123
2652.36	0.0017731
2662.01	0.0017779
2671.65	0.0017052
2681.29	0.0017422
2690.94	0.0017964
2700.58	0.00164631
2710.23	0.001347
2719.87	0.00160922
2729.52	0.0018799
2739.16	0.00169834
2748.81	0.0015235
2758.45	0.0017989
2768.1	0.00163386
2777.74	0.0018049
2787.39	0.0017426
2797.03	0.0019442
2806.68	0.0017889
2816.32	0.0018166
2825.97	0.0017988
2835.61	0.00160211
2845.26	0.0018728
2854.9	0.00169924
2864.55	0.0018113
2874.19	0.00168255
2883.84	0.0019876
2893.48	0.0019199
2903.12	0.0020711
2912.77	0.0023817
2922.41	0.0018487
2932.06	0.0023357
2941.7	0.0018654
2951.35	0.0021095
2960.99	0.0020124
2970.64	0.0015626
2980.28	0.0020672
2989.93	0.0020557
2999.57	0.0018053
3009.22	0.0018174
3018.86	0.001425
3028.51	0.0018504
3038.15	0.0018082
3047.8	0.0017365
3057.44	0.001423
3067.09	0.0021562
3076.73	0.0020542
3086.38	0.0024635
3096.02	0.0021845
3105.67	0.002244
3115.31	0.0020568
3124.95	0.001449
3134.6	0.001444
3144.24	0.0019645
3153.89	0.0019013
3163.53	0.0018809
3173.18	0.0018091
3182.82	0.0021128
3192.47	0.0015
3202.11	0.001262
3211.76	0.0017534
3221.4	0.001361
3231.05	0.0018936
3240.69	0.0015046
3250.34	0.000991
3259.98	0.0017137
3269.63	0.001267
3279.27	0.00159956
3288.92	0.0019342
3298.56	0.0017642
3308.21	0.0015157
3317.85	0.0018369
3327.49	0.0017412
3337.14	0.0019099
3346.78	0.001278
3356.43	0.0017029
3366.07	0.0017546
3375.72	0.001416
3385.36	0.0018344
3395.01	0.0016225
3404.65	0.0018387
3414.3	0.0015015
3423.94	0.0018908
3433.59	0.00159325
3443.23	0.0019625
3452.88	0.001259
3462.52	0.00167639
3472.17	0.0020658
3481.81	0.001225
3491.46	0.0018173
3501.1	0.0015886
3510.75	0.0015225
3520.39	0.0017985
3530.04	0.001089
3539.68	0.00162419
3549.32	0.0021234
3558.97	0.0019504
3568.61	0.0017914
3578.26	0.001556
3587.9	0.001442
3597.55	0.0020274
3607.19	0.001453
3616.84	0.001369
3626.48	0.0019757
3636.13	0.001787
3645.77	0.001372
3655.42	0.0017358
3665.06	0.001353
3674.71	0.001456
3684.35	0.0021412
3694	0.0017775
3703.64	0.001314
3713.29	0.0016865
3722.93	0.00162918
3732.58	0.0015726
3742.22	0.0020064
3751.86	0.00146
3761.51	0.0021932
3771.15	0.0018021
3780.8	0.0018481
3790.44	0.0018737
3800.09	0.0019674
3809.73	0.001168
3819.38	0.00153
3829.02	0.0019949
3838.67	0.0021748
3848.31	0.0018709
3857.96	0.0017281
3867.6	0.001225
3877.25	0.0020489
3886.89	0.002283
3896.54	0.001469
3906.18	0.0022914
3915.83	0.001571
3925.47	0.00143
3935.12	0.00165009
3944.76	0.0018209
3954.41	0.001391
3964.05	0.0021532
3973.69	0.0017008
3983.34	0.0017616
3992.98	0.002097
