Infrared Spectrum: 4-(1,2,4-Triazol-1-yl)phenol
Formula: C 8 H 7 N 3 O
CAS: 68337-15-5
State: gas
Origin: EPA-IR VAPOR PHASE LIBRARY
1/CM	ABSORBANCE
549.8	0.001927
559.445	0.002147
569.09	0.0008519
578.734	0.0015895
588.379	0.001797
598.024	0.001673
607.669	0.0006947
617.313	0.002587
626.958	0.003517
636.603	0.002727
646.248	0.0014224
655.893	0.002397
665.537	0.002677
675.182	0.002927
684.827	0.002227
694.472	0.0015297
704.116	0.0012837
713.761	0.001807
723.406	0.0013942
733.051	0.0012793
742.695	0.0011475
752.34	0.001241
761.985	0.002177
771.63	0.0017047
781.275	0.0012737
790.919	0.001907
800.564	0.001887
810.209	0.002837
819.854	0.003957
829.498	0.005017
839.143	0.004617
848.788	0.002977
858.433	0.002807
868.078	0.0015517
877.722	0.0012699
887.367	0.0013387
897.012	0.0009372
906.657	0.0008778
916.301	0.0010496
925.946	0.0009565
935.591	0.0013061
945.236	0.002437
954.88	0.002557
964.525	0.0010647
974.17	0.002357
983.815	0.003987
993.46	0.002087
1003.1	0.0015863
1012.75	0.000587
1022.39	0.000457
1032.04	0.0009876
1041.68	0.002687
1051.33	0.003067
1060.97	0.000376
1070.62	0.0007054
1080.26	0.00023
1089.91	0.003217
1099.55	0.002617
1109.2	0.001877
1118.84	0.002657
1128.49	0.004117
1138.13	0.005497
1147.78	0.004687
1157.42	0.005337
1167.07	0.010737
1176.71	0.015717
1186.36	0.010157
1196	0.006327
1205.64	0.007367
1215.29	0.008027
1224.93	0.005747
1234.58	0.005557
1244.22	0.005877
1253.87	0.008597
1263.51	0.012227
1273.16	0.008257
1282.8	0.005347
1292.45	0.003177
1302.09	0.002677
1311.74	0.002417
1321.38	0.003227
1331.03	0.003547
1340.67	0.003077
1350.32	0.002547
1359.96	0.001837
1369.61	0.001827
1379.25	0.0015451
1388.9	0.001714
1398.54	0.001807
1408.18	0.002387
1417.83	0.002097
1427.47	0.001787
1437.12	0.001967
1446.76	0.002617
1456.41	0.002247
1466.05	0.001847
1475.7	0.001887
1485.34	0.002027
1494.99	0.003427
1504.63	0.005627
1514.28	0.018247
1523.92	0.023167
1533.57	0.009157
1543.21	0.003477
1552.86	0.002067
1562.5	0.001917
1572.15	0.0015161
1581.79	0.0016871
1591.44	0.001797
1601.08	0.002077
1610.73	0.002437
1620.37	0.002017
1630.01	0.001857
1639.66	0.001606
1649.3	0.0016512
1658.95	0.0016791
1668.59	0.0015364
1678.24	0.0016433
1687.88	0.0015783
1697.53	0.0014898
1707.17	0.0012617
1716.82	0.001376
1726.46	0.0016069
1736.11	0.0016376
1745.75	0.0016865
1755.4	0.002027
1765.04	0.0016915
1774.69	0.0013618
1784.33	0.0013275
1793.98	0.0014246
1803.62	0.0015003
1813.27	0.0012316
1822.91	0.0013276
1832.55	0.0012436
1842.2	0.0013996
1851.84	0.0012613
1861.49	0.0013877
1871.13	0.0014074
1880.78	0.0014414
1890.42	0.0011387
1900.07	0.0011565
1909.71	0.0012196
1919.36	0.0011388
1929	0.0011252
1938.65	0.000912
1948.29	0.000621
1957.94	0.0010098
1967.58	0.0010069
1977.23	0.0009495
1986.87	0.0011147
1996.52	0.0010607
2006.16	0.0010789
2015.81	0.000968
2025.45	0.0008459
2035.1	0.0009886
2044.74	0.0010348
2054.38	0.0011809
2064.03	0.0008666
2073.67	0.0007927
2083.32	0.0009169
2092.96	0.0009782
2102.61	0.001124
2112.25	0.0009938
2121.9	0.0008833
2131.54	0.0010049
2141.19	0.0009662
2150.83	0.0008334
2160.48	0.00080521
2170.12	0.0009049
2179.77	0.0009043
2189.41	0.000733557
2199.06	0.0008864
2208.7	0.0008902
2218.35	0.0009368
2227.99	0.00082365
2237.64	0.0010909
2247.28	0.0010808
2256.92	0.0010616
2266.57	0.0009226
2276.21	0.0009193
2285.86	0.0008309
2295.5	0.0009174
2305.15	0.0010045
2314.79	0.0010243
2324.44	0.0009536
2334.08	0.0007066
2343.73	0.000545
2353.37	0.00072241
2363.02	0.000729599
2372.66	0.0009597
2382.31	0.0010436
2391.95	0.0009009
2401.6	0.0009109
2411.24	0.0009092
2420.89	0.0012175
2430.53	0.0010685
2440.18	0.000967
2449.82	0.0010771
2459.47	0.000592
2469.11	0.0009237
2478.75	0.0009162
2488.4	0.0009423
2498.04	0.000575
2507.69	0.0009982
2517.33	0.0006356
2526.98	0.00082231
2536.62	0.000991
2546.27	0.00115
2555.91	0.0010277
2565.56	0.00079463
2575.2	0.0008299
2584.85	0.000612
2594.49	0.000287
2604.14	0.0009793
2613.78	0.0008356
2623.43	0.00081302
2633.07	0.0008596
2642.72	0.0009403
2652.36	0.0009772
2662.01	0.0009043
2671.65	0.0008549
2681.29	0.000334
2690.94	0.000646
2700.58	0.0009391
2710.23	0.00075733
2719.87	0.0010878
2729.52	0.0009007
2739.16	0.0009635
2748.81	0.000647
2758.45	0.0006682
2768.1	0.0006329
2777.74	0.0010606
2787.39	0.000476
2797.03	0.000487
2806.68	0.0008606
2816.32	0.00071978
2825.97	0.00073849
2835.61	0.0009523
2845.26	0.0008461
2854.9	0.000593
2864.55	0.0007153
2874.19	0.00075852
2883.84	0.0009126
2893.48	0.00076142
2903.12	0.000605
2912.77	0.00077518
2922.41	0.0009875
2932.06	0.00080715
2941.7	0.0009211
2951.35	0.000468
2960.99	0.0009428
2970.64	0.0007107
2980.28	0.000533
2989.93	0.001072
2999.57	0.000625
3009.22	0.0010748
3018.86	0.001091
3028.51	0.001747
3038.15	0.0010275
3047.8	0.0016011
3057.44	0.0011927
3067.09	0.0016276
3076.73	0.00073853
3086.38	0.0012812
3096.02	0.0008638
3105.67	0.00081816
3115.31	0.0008302
3124.95	0.0010386
3134.6	0.0013007
3144.24	0.0013026
3153.89	0.0010921
3163.53	0.0012689
3173.18	0.0008854
3182.82	0.0010579
3192.47	0.000414
3202.11	0.001134
3211.76	0.00074432
3221.4	0.000614
3231.05	0.000568
3240.69	0.001025
3250.34	0.00116
3259.98	0.0009169
3269.63	0.0011855
3279.27	0.000132
3288.92	0.000307
3298.56	0.0010693
3308.21	0.001107
3317.85	0.0010304
3327.49	0.0010116
3337.14	0.0009244
3346.78	0.0010013
3356.43	0.0009514
3366.07	0.0008823
3375.72	0.001354
3385.36	0.0009919
3395.01	0.0010376
3404.65	0.00075008
3414.3	0.0009195
3423.94	0.0009845
3433.59	0.00079857
3443.23	0.0012367
3452.88	0.001176
3462.52	0.0008949
3472.17	0.0006689
3481.81	0.0008985
3491.46	0.000673
3501.1	0.001309
3510.75	0.0012805
3520.39	0.000918
3530.04	0.0013026
3539.68	0.0009406
3549.32	0.00077648
3558.97	0.0010065
3568.61	0.0011626
3578.26	0.0012383
3587.9	0.001462
3597.55	0.0012795
3607.19	0.002097
3616.84	0.0012041
3626.48	0.0015381
3636.13	0.002977
3645.77	0.006487
3655.42	0.006647
3665.06	0.002097
3674.71	0.0013473
3684.35	0.00076245
3694	0.0011372
3703.64	0.0006902
3713.29	0.0006695
3722.93	0.000883
3732.58	0.0008698
3742.22	0.0010165
3751.86	0.00072288
3761.51	0.000406
3771.15	0.0014339
3780.8	0.0014668
3790.44	0.0014472
3800.09	0.0012349
3809.73	0.0014618
3819.38	0.0006866
3829.02	0.000953
3838.67	0.0011038
3848.31	0.000368
3857.96	0.0011274
3867.6	0.000405
3877.25	0.0011774
3886.89	0.000734175
3896.54	0.000547
3906.18	0.000269
3915.83	0.0010188
3925.47	0.0010842
3935.12	0.0006552
3944.76	0.00071826
3954.41	0.0012978
3964.05	0.001352
3973.69	0.00075808
3983.34	0.0008668
3992.98	0.000606
