Infrared Spectrum: 6-Pentadecanol
Formula: C 15 H 32 O
CAS: 6836-40-4
State: gas
Origin: EPA-IR VAPOR PHASE LIBRARY
1/CM	ABSORBANCE
549.8	0.00362
559.445	0.00194
569.09	0.00267
578.734	0.00154
588.379	0.00181
598.024	0.00213
607.669	0.00153
617.313	0.00176
626.958	0.00228
636.603	0.00152
646.248	0.00157
655.893	0.00145
665.537	0.00154
675.182	0.00192
684.827	0.00243
694.472	0.00379
704.116	0.00608
713.761	0.00939
723.406	0.01144
733.051	0.01105
742.695	0.00916
752.34	0.00788
761.985	0.00761
771.63	0.00693
781.275	0.00602
790.919	0.00492
800.564	0.00496
810.209	0.00521
819.854	0.00595
829.498	0.00581
839.143	0.00597
848.788	0.00652
858.433	0.00719
868.078	0.00808
877.722	0.00937
887.367	0.01035
897.012	0.0117
906.657	0.01279
916.301	0.01404
925.946	0.01532
935.591	0.01772
945.236	0.01954
954.88	0.02111
964.525	0.01991
974.17	0.01878
983.815	0.02079
993.46	0.02541
1003.1	0.03227
1012.75	0.03762
1022.39	0.03736
1032.04	0.03468
1041.68	0.03235
1051.33	0.03291
1060.97	0.03208
1070.62	0.02966
1080.26	0.02737
1089.91	0.02369
1099.55	0.02327
1109.2	0.02543
1118.84	0.02716
1128.49	0.02819
1138.13	0.02348
1147.78	0.01839
1157.42	0.01623
1167.07	0.016
1176.71	0.0182
1186.36	0.01906
1196	0.01985
1205.64	0.02064
1215.29	0.0222
1224.93	0.02181
1234.58	0.02568
1244.22	0.02563
1253.87	0.02533
1263.51	0.02461
1273.16	0.02403
1282.8	0.02315
1292.45	0.02295
1302.09	0.02329
1311.74	0.02232
1321.38	0.02127
1331.03	0.02313
1340.67	0.02884
1350.32	0.03379
1359.96	0.03664
1369.61	0.03927
1379.25	0.04283
1388.9	0.03855
1398.54	0.02786
1408.18	0.02066
1417.83	0.01771
1427.47	0.0198
1437.12	0.02965
1446.76	0.04453
1456.41	0.06175
1466.05	0.0628
1475.7	0.03825
1485.34	0.01929
1494.99	0.01186
1504.63	0.00846
1514.28	0.00646
1523.92	0.00513
1533.57	0.00436
1543.21	0.00356
1552.86	0.00311
1562.5	0.00273
1572.15	0.00248
1581.79	0.00215
1591.44	0.00207
1601.08	0.00202
1610.73	0.00188
1620.37	0.00167
1630.01	0.00156
1639.66	0.00146
1649.3	0.00148
1658.95	0.00135
1668.59	0.00123
1678.24	0.0011
1687.88	0.00106
1697.53	0.000921
1707.17	0.0008904
1716.82	0.0008722
1726.46	0.0009567
1736.11	0.0007116
1745.75	0.0008121
1755.4	0.0006821
1765.04	0.0008182
1774.69	0.0006232
1784.33	0.0005769
1793.98	0.0006716
1803.62	0.0006854
1813.27	0.0006444
1822.91	0.0007007
1832.55	0.0007717
1842.2	0.0007383
1851.84	0.0007569
1861.49	0.0007642
1871.13	0.0008296
1880.78	0.0006243
1890.42	0.0006349
1900.07	0.0007455
1909.71	0.0007375
1919.36	0.0006245
1929	0.0007246
1938.65	0.0006543
1948.29	0.000564
1957.94	0.0006994
1967.58	0.0007006
1977.23	0.0007373
1986.87	0.0006302
1996.52	0.0007325
2006.16	0.00101
2015.81	0.00103
2025.45	0.00128
2035.1	0.00126
2044.74	0.00134
2054.38	0.00143
2064.03	0.00115
2073.67	0.00115
2083.32	0.0009649
2092.96	0.00102
2102.61	0.00105
2112.25	0.0009856
2121.9	0.0011
2131.54	0.00115
2141.19	0.0011
2150.83	0.00119
2160.48	0.00121
2170.12	0.00132
2179.77	0.00129
2189.41	0.00116
2199.06	0.00116
2208.7	0.00134
2218.35	0.0013
2227.99	0.00127
2237.64	0.00139
2247.28	0.00141
2256.92	0.00134
2266.57	0.00135
2276.21	0.00148
2285.86	0.00162
2295.5	0.00175
2305.15	0.00171
2314.79	0.00174
2324.44	0.00177
2334.08	0.00172
2343.73	0.00195
2353.37	0.00185
2363.02	0.00188
2372.66	0.00188
2382.31	0.00178
2391.95	0.00198
2401.6	0.00191
2411.24	0.00186
2420.89	0.00194
2430.53	0.00178
2440.18	0.00179
2449.82	0.00159
2459.47	0.00166
2469.11	0.0019
2478.75	0.00184
2488.4	0.002
2498.04	0.0021
2507.69	0.0023
2517.33	0.00237
2526.98	0.00263
2536.62	0.00301
2546.27	0.00316
2555.91	0.00345
2565.56	0.00362
2575.2	0.00396
2584.85	0.00427
2594.49	0.00458
2604.14	0.00503
2613.78	0.00549
2623.43	0.00595
2633.07	0.00644
2642.72	0.00712
2652.36	0.0079
2662.01	0.00868
2671.65	0.00942
2681.29	0.00972
2690.94	0.0096
2700.58	0.00918
2710.23	0.00909
2719.87	0.00956
2729.52	0.01019
2739.16	0.01128
2748.81	0.01184
2758.45	0.01211
2768.1	0.01311
2777.74	0.01505
2787.39	0.01791
2797.03	0.0214
2806.68	0.02614
2816.32	0.0329
2825.97	0.04348
2835.61	0.06328
2845.26	0.10716
2854.9	0.20917
2864.55	0.3008
2874.19	0.26166
2883.84	0.2213
2893.48	0.19838
2903.12	0.24549
2912.77	0.35684
2922.41	0.55294
2932.06	0.78005
2941.7	0.66594
2951.35	0.40613
2960.99	0.32733
2970.64	0.29564
2980.28	0.14804
2989.93	0.07937
2999.57	0.05134
3009.22	0.03653
3018.86	0.02784
3028.51	0.02206
3038.15	0.01783
3047.8	0.01454
3057.44	0.01235
3067.09	0.01062
3076.73	0.00948
3086.38	0.00854
3096.02	0.0078
3105.67	0.00721
3115.31	0.00665
3124.95	0.00562
3134.6	0.00523
3144.24	0.00482
3153.89	0.00474
3163.53	0.00424
3173.18	0.00405
3182.82	0.00368
3192.47	0.00328
3202.11	0.00276
3211.76	0.00234
3221.4	0.00206
3231.05	0.00173
3240.69	0.0016
3250.34	0.00152
3259.98	0.00144
3269.63	0.00122
3279.27	0.000954
3288.92	0.00117
3298.56	0.00124
3308.21	0.0008831
3317.85	0.00101
3327.49	0.00105
3337.14	0.00111
3346.78	0.0012
3356.43	0.00148
3366.07	0.00123
3375.72	0.00165
3385.36	0.00138
3395.01	0.0015
3404.65	0.0013
3414.3	0.00131
3423.94	0.00181
3433.59	0.0017
3443.23	0.0014
3452.88	0.00134
3462.52	0.00153
3472.17	0.00134
3481.81	0.0008873
3491.46	0.00103
3501.1	0.00112
3510.75	0.0006593
3520.39	0.0008979
3530.04	0.0008967
3539.68	0.001
3549.32	0.0006714
3558.97	0.000903
3568.61	0.0008371
3578.26	0.00125
3587.9	0.00118
3597.55	0.00173
3607.19	0.00234
3616.84	0.00369
3626.48	0.00627
3636.13	0.00933
3645.77	0.01551
3655.42	0.02008
3665.06	0.01137
3674.71	0.00519
3684.35	0.00334
3694	0.00265
3703.64	0.00212
3713.29	0.00187
3722.93	0.00167
3732.58	0.00181
3742.22	0.00165
3751.86	0.00194
3761.51	0.00172
3771.15	0.00132
3780.8	0.00179
3790.44	0.00217
3800.09	0.00187
3809.73	0.00197
3819.38	0.00218
3829.02	0.00198
3838.67	0.00176
3848.31	0.00235
3857.96	0.00213
3867.6	0.00213
3877.25	0.00228
3886.89	0.00183
3896.54	0.00194
3906.18	0.00202
3915.83	0.0017
3925.47	0.0017
3935.12	0.00159
3944.76	0.0016
3954.41	0.00178
3964.05	0.00196
3973.69	0.00189
3983.34	0.0021
3992.98	0.00195
