Infrared Spectrum: 6-Tetradecanol
Formula: C 14 H 30 O
CAS: 6836-39-1
State: gas
Instrument: HP-GC/MS/IRD
Origin: NIST Mass Spectrometry Data Center
1/CM	ABSORBANCE
550	0.000177
562	0.0001298
574	4.72e-05
586	0.000118
598	0.0001711
610	0.0002242
622	0.0001652
634	0.0001711
646	0.0001829
658	0.0001298
670	0.000177
682	0.0002714
694	0.0003776
706	0.0005487
718	0.0008201
730	0.0009558
742	0.0007847
754	0.0006903
766	0.0006903
778	0.0005664
790	0.0004661
802	0.0004897
814	0.0005546
826	0.0004248
838	0.0005723
850	0.0005782
862	0.0006018
874	0.0007316
886	0.0008496
898	0.0010738
910	0.0012449
922	0.0014101
934	0.0016048
946	0.0017818
958	0.0017464
970	0.0017287
982	0.0019116
994	0.0023541
1006	0.0028497
1018	0.0029972
1030	0.0028556
1042	0.0029677
1054	0.0030562
1066	0.0027435
1078	0.0024131
1090	0.0021299
1102	0.0021122
1114	0.0022656
1126	0.0024721
1138	0.0020355
1150	0.0013924
1162	0.0013865
1174	0.0014809
1186	0.0016343
1198	0.0017228
1210	0.0018172
1222	0.0019588
1234	0.0020709
1246	0.0022125
1258	0.0021063
1270	0.0020001
1282	0.0019352
1294	0.0018939
1306	0.0018762
1318	0.0017405
1330	0.0018526
1342	0.0023659
1354	0.0027671
1366	0.0030739
1378	0.0034633
1390	0.003068
1402	0.002065
1414	0.0015694
1426	0.0016107
1438	0.0025134
1450	0.0039707
1462	0.0050976
1474	0.0034751
1486	0.0015753
1498	0.0008673
1510	0.0006372
1522	0.0004248
1534	0.0003422
1546	0.0002596
1558	0.0002065
1570	0.0002065
1582	0.0001593
1594	0.0001357
1606	0.0001003
1618	0.0001062
1630	9.44e-05
1642	7.67e-05
1654	5.9e-05
1666	8.85e-05
1678	7.67e-05
1690	7.67e-05
1702	6.49e-05
1714	5.9e-05
1726	7.08e-05
1738	4.13e-05
1750	2.95e-05
1762	2.95e-05
1774	2.95e-05
1786	4.13e-05
1798	3.54e-05
1810	4.13e-05
1822	2.36e-05
1834	4.72e-05
1846	5.31e-05
1858	2.95e-05
1870	4.72e-05
1882	2.95e-05
1894	4.13e-05
1906	2.36e-05
1918	1.77e-05
1930	2.95e-05
1942	2.36e-05
1954	2.36e-05
1966	2.36e-05
1978	2.95e-05
1990	4.72e-05
2002	4.13e-05
2014	5.9e-05
2026	8.26e-05
2038	7.08e-05
2050	7.67e-05
2062	8.26e-05
2074	8.26e-05
2086	5.31e-05
2098	2.95e-05
2110	6.49e-05
2122	4.13e-05
2134	7.08e-05
2146	5.9e-05
2158	7.67e-05
2170	7.67e-05
2182	6.49e-05
2194	8.85e-05
2206	6.49e-05
2218	5.9e-05
2230	4.72e-05
2242	8.85e-05
2254	7.67e-05
2266	7.08e-05
2278	7.67e-05
2290	9.44e-05
2302	0.000118
2314	0.0001062
2326	0.000118
2338	0.0001357
2350	0.0001357
2362	0.0001298
2374	0.000118
2386	0.000118
2398	0.000118
2410	0.000118
2422	0.000118
2434	0.0001298
2446	0.0001003
2458	0.0001121
2470	0.0001298
2482	0.0001062
2494	0.0001062
2506	0.0001475
2518	0.0001711
2530	0.0002124
2542	0.0002242
2554	0.0002183
2566	0.0002655
2578	0.0003127
2590	0.0003481
2602	0.0003717
2614	0.0004307
2626	0.0004543
2638	0.0005192
2650	0.0006018
2662	0.0006313
2674	0.0007198
2686	0.0007611
2698	0.0007375
2710	0.0007316
2722	0.0007847
2734	0.0008791
2746	0.0009676
2758	0.001003
2770	0.0011505
2782	0.0013098
2794	0.0016933
2806	0.0021476
2818	0.0028438
2830	0.0041123
2842	0.00708
2854	0.0148857
2866	0.0226147
2878	0.0194405
2890	0.0165377
2902	0.0188741
2914	0.0292581
2926	0.0491706
2938	0.0571651
2950	0.0356655
2962	0.0270456
2974	0.0205792
2986	0.0087556
2998	0.0047613
3010	0.0031034
3022	0.0022302
3034	0.0016402
3046	0.0012921
3058	0.0010148
3070	0.0008673
3082	0.0007847
3094	0.0006313
3106	0.0006018
3118	0.0005605
3130	0.0004956
3142	0.0004661
3154	0.0004071
3166	0.0003599
3178	0.0003481
3190	0.0003068
3202	0.0002596
3214	0.0001888
3226	0.0001947
3238	0.0001829
3250	0.000118
3262	0.0001239
3274	0.0001475
3286	0.0001062
3298	0.0001475
3310	8.85e-05
3322	0.0001239
3334	9.44e-05
3346	9.44e-05
3358	0.0001062
3370	0.0001298
3382	0.0001416
3394	0.0001475
3406	0.0001593
3418	0.0001534
3430	0.0001652
3442	0.0001652
3454	0.0001121
3466	0.000177
3478	0.0001593
3490	0.0001121
3502	0.0001062
3514	5.9e-05
3526	8.26e-05
3538	8.85e-05
3550	8.85e-05
3562	8.85e-05
3574	7.08e-05
3586	0.0001239
3598	0.0001829
3610	0.0002183
3622	0.0004366
3634	0.0006785
3646	0.0013039
3658	0.0015045
3670	0.0006313
3682	0.0003481
3694	0.0002655
3706	0.0002124
3718	0.000177
3730	0.0001652
3742	0.0001298
3754	0.0001416
3766	0.0001829
3778	0.0001593
3790	0.0001652
3802	0.0001593
3814	0.0001475
3826	0.0001888
3838	0.0001888
