Infrared Spectrum: 6-Tetradecanone
Formula: C 14 H 28 O
CAS: 6836-42-6
State: gas
Origin: EPA-IR VAPOR PHASE LIBRARY
1/CM	ABSORBANCE
549.8	0.00338
559.445	0.00312
569.09	0.00229
578.734	0.00162
588.379	0.00179
598.024	0.0022
607.669	0.00242
617.313	0.00278
626.958	0.00327
636.603	0.00367
646.248	0.00261
655.893	0.00223
665.537	0.00199
675.182	0.00222
684.827	0.00309
694.472	0.00416
704.116	0.0067
713.761	0.01052
723.406	0.01294
733.051	0.0128
742.695	0.01175
752.34	0.00926
761.985	0.00819
771.63	0.0072
781.275	0.00599
790.919	0.00496
800.564	0.00406
810.209	0.00386
819.854	0.0033
829.498	0.00385
839.143	0.00406
848.788	0.00485
858.433	0.00438
868.078	0.00482
877.722	0.00519
887.367	0.00596
897.012	0.00684
906.657	0.00733
916.301	0.00818
925.946	0.00924
935.591	0.00874
945.236	0.00965
954.88	0.01027
964.525	0.01069
974.17	0.01125
983.815	0.01094
993.46	0.01245
1003.1	0.01515
1012.75	0.0184
1022.39	0.01842
1032.04	0.01997
1041.68	0.02271
1051.33	0.02634
1060.97	0.03144
1070.62	0.03333
1080.26	0.02726
1089.91	0.02176
1099.55	0.01959
1109.2	0.02179
1118.84	0.02883
1128.49	0.03652
1138.13	0.03742
1147.78	0.03115
1157.42	0.02622
1167.07	0.023
1176.71	0.02184
1186.36	0.0234
1196	0.02333
1205.64	0.02604
1215.29	0.0252
1224.93	0.02441
1234.58	0.02498
1244.22	0.02367
1253.87	0.02232
1263.51	0.02242
1273.16	0.02505
1282.8	0.02781
1292.45	0.03119
1302.09	0.03237
1311.74	0.03234
1321.38	0.03249
1331.03	0.03801
1340.67	0.04963
1350.32	0.06018
1359.96	0.06294
1369.61	0.05093
1379.25	0.03902
1388.9	0.03146
1398.54	0.02556
1408.18	0.02931
1417.83	0.03513
1427.47	0.03571
1437.12	0.03976
1446.76	0.05204
1456.41	0.06791
1466.05	0.06609
1475.7	0.04229
1485.34	0.02254
1494.99	0.01383
1504.63	0.00971
1514.28	0.00738
1523.92	0.00603
1533.57	0.00502
1543.21	0.0044
1552.86	0.00384
1562.5	0.00366
1572.15	0.00359
1581.79	0.00337
1591.44	0.00349
1601.08	0.00327
1610.73	0.00365
1620.37	0.00356
1630.01	0.00398
1639.66	0.00447
1649.3	0.00544
1658.95	0.00698
1668.59	0.00967
1678.24	0.0144
1687.88	0.0219
1697.53	0.03807
1707.17	0.07969
1716.82	0.16371
1726.46	0.20365
1736.11	0.11124
1745.75	0.0441
1755.4	0.02222
1765.04	0.01292
1774.69	0.00848
1784.33	0.00599
1793.98	0.00451
1803.62	0.00343
1813.27	0.00267
1822.91	0.00243
1832.55	0.00196
1842.2	0.00179
1851.84	0.0017
1861.49	0.00163
1871.13	0.00154
1880.78	0.00129
1890.42	0.0013
1900.07	0.00128
1909.71	0.0012
1919.36	0.0010552
1929	0.0011164
1938.65	0.001124
1948.29	0.0010144
1957.94	0.0009873
1967.58	0.0010067
1977.23	0.0011264
1986.87	0.0010219
1996.52	0.0011235
2006.16	0.00119
2015.81	0.00143
2025.45	0.00141
2035.1	0.00167
2044.74	0.00171
2054.38	0.00152
2064.03	0.00155
2073.67	0.00145
2083.32	0.00138
2092.96	0.00145
2102.61	0.00139
2112.25	0.00143
2121.9	0.00138
2131.54	0.00145
2141.19	0.00159
2150.83	0.00163
2160.48	0.0015
2170.12	0.00169
2179.77	0.00163
2189.41	0.00154
2199.06	0.00162
2208.7	0.00161
2218.35	0.00164
2227.99	0.00144
2237.64	0.00149
2247.28	0.00141
2256.92	0.00144
2266.57	0.00155
2276.21	0.00151
2285.86	0.00154
2295.5	0.00159
2305.15	0.00142
2314.79	0.00173
2324.44	0.00171
2334.08	0.00162
2343.73	0.0017
2353.37	0.00167
2363.02	0.00164
2372.66	0.00176
2382.31	0.00176
2391.95	0.00199
2401.6	0.00188
2411.24	0.00183
2420.89	0.00166
2430.53	0.00169
2440.18	0.00158
2449.82	0.00154
2459.47	0.00146
2469.11	0.0015
2478.75	0.00156
2488.4	0.00142
2498.04	0.00158
2507.69	0.00171
2517.33	0.00175
2526.98	0.00219
2536.62	0.00215
2546.27	0.0023
2555.91	0.00253
2565.56	0.0028
2575.2	0.00301
2584.85	0.00296
2594.49	0.00317
2604.14	0.00355
2613.78	0.00384
2623.43	0.00424
2633.07	0.00475
2642.72	0.0054
2652.36	0.00575
2662.01	0.00676
2671.65	0.00705
2681.29	0.00758
2690.94	0.00728
2700.58	0.00692
2710.23	0.00695
2719.87	0.0074
2729.52	0.00825
2739.16	0.00944
2748.81	0.01002
2758.45	0.01035
2768.1	0.0112
2777.74	0.01276
2787.39	0.01564
2797.03	0.01953
2806.68	0.0242
2816.32	0.03026
2825.97	0.03867
2835.61	0.05375
2845.26	0.08659
2854.9	0.16187
2864.55	0.23829
2874.19	0.23309
2883.84	0.21888
2893.48	0.20826
2903.12	0.23657
2912.77	0.31339
2922.41	0.45829
2932.06	0.60977
2941.7	0.56448
2951.35	0.43577
2960.99	0.39365
2970.64	0.34747
2980.28	0.18249
2989.93	0.09423
2999.57	0.05795
3009.22	0.03993
3018.86	0.02954
3028.51	0.02345
3038.15	0.01869
3047.8	0.01515
3057.44	0.01283
3067.09	0.01086
3076.73	0.00983
3086.38	0.00894
3096.02	0.00816
3105.67	0.00717
3115.31	0.00649
3124.95	0.00579
3134.6	0.00557
3144.24	0.00516
3153.89	0.00461
3163.53	0.00449
3173.18	0.00431
3182.82	0.00378
3192.47	0.00348
3202.11	0.00312
3211.76	0.00293
3221.4	0.00223
3231.05	0.00179
3240.69	0.00172
3250.34	0.00137
3259.98	0.00149
3269.63	0.0010994
3279.27	0.0011702
3288.92	0.0011336
3298.56	0.00126
3308.21	0.0007409
3317.85	0.0007964
3327.49	0.0011026
3337.14	0.0011025
3346.78	0.0010447
3356.43	0.00136
3366.07	0.00124
3375.72	0.00126
3385.36	0.00157
3395.01	0.00161
3404.65	0.00225
3414.3	0.00301
3423.94	0.00352
3433.59	0.00369
3443.23	0.0028
3452.88	0.00187
3462.52	0.0009384
3472.17	0.0008267
3481.81	0.000465
3491.46	0.0003307
3501.1	0.00021774
3510.75	5.1e-05
3520.39	0
3530.04	0.00021313
3539.68	0.00024371
3549.32	0.0005403
3558.97	0.00026079
3568.61	0.0003487
3578.26	0.0004773
3587.9	0.0005947
3597.55	0.0006171
3607.19	0.0005767
3616.84	0.0005944
3626.48	0.0008929
3636.13	0.0008972
3645.77	0.0011089
3655.42	0.0010384
3665.06	0.0008042
3674.71	0.001102
3684.35	0.000832
3694	0.00136
3703.64	0.0010279
3713.29	0.0010314
3722.93	0.0009904
3732.58	0.001176
3742.22	0.0010427
3751.86	0.000851
3761.51	0.0010085
3771.15	0.00163
3780.8	0.00131
3790.44	0.0008956
3800.09	0.0008676
3809.73	0.00123
3819.38	0.0010485
3829.02	0.00127
3838.67	0.0011282
3848.31	0.00133
3857.96	0.0010848
3867.6	0.00123
3877.25	0.00143
3886.89	0.00142
3896.54	0.0014
3906.18	0.00122
3915.83	0.00133
3925.47	0.0009681
3935.12	0.001121
3944.76	0.00148
3954.41	0.00177
3964.05	0.0017
3973.69	0.00167
3983.34	0.00207
3992.98	0.00195
