Infrared Spectrum: Urea, 1-methyl-1-nitroso-
Formula: C2 H5 N3 O2
CAS: 684-93-5
State: SOLID (2.4 mg / 650 mg KBr DISC)
Class: COBLENTZ III
Instrument: PERKIN-ELMER 21 (GRATING)
Instrument parameters: FILTER CHANGE ABOUT 1020 CM^-^1
Resolution: 2
Origin: SOUTHERN RESEARCH INSTITUTE
1/CM	TRANSMITTANCE
601	0.351
610.016	0.3508
619.033	0.351
628.049	0.3509
637.065	0.3512
646.082	0.3475
655.098	0.3323
664.115	0.3106
673.131	0.2788
682.147	0.2391
691.164	0.2002
700.18	0.2059
709.196	0.3292
718.213	0.4195
727.229	0.4708
736.246	0.4886
745.262	0.4899
754.278	0.4781
763.295	0.4187
772.311	0.3512
781.327	0.3923
790.344	0.484
799.36	0.4969
808.376	0.4957
817.393	0.4867
826.409	0.4467
835.426	0.357
844.442	0.3203
853.458	0.5488
862.475	0.5324
871.491	0.5047
880.507	0.4771
889.524	0.4494
898.54	0.4218
907.557	0.3942
916.573	0.3656
925.589	0.3326
934.606	0.2882
943.622	0.2506
952.638	0.1948
961.655	0.1474
970.671	0.1311
979.687	0.1369
988.704	0.1825
997.72	0.2589
1006.74	0.3574
1015.75	0.4619
1024.77	0.4675
1033.79	0.5143
1042.8	0.5113
1051.82	0.4974
1060.83	0.4675
1069.85	0.4109
1078.87	0.3338
1087.88	0.2846
1096.9	0.322
1105.92	0.444
1114.93	0.4512
1123.95	0.4153
1132.97	0.3707
1141.98	0.3355
1151	0.3073
1160.01	0.2795
1169.03	0.2502
1178.05	0.2256
1187.06	0.2023
1196.08	0.1709
1205.1	0.1464
1214.11	0.1399
1223.13	0.1445
1232.15	0.1836
1241.16	0.2147
1250.18	0.2386
1259.19	0.2905
1268.21	0.3698
1277.23	0.4146
1286.24	0.4621
1295.26	0.4926
1304.28	0.5075
1313.29	0.5091
1322.31	0.504
1331.33	0.4778
1340.34	0.4303
1349.36	0.3634
1358.37	0.293
1367.39	0.2177
1376.41	0.2137
1385.42	0.2519
1394.44	0.3516
1403.46	0.2797
1412.47	0.1716
1421.49	0.122
1430.51	0.1426
1439.52	0.1722
1448.54	0.1487
1457.56	0.1287
1466.57	0.1265
1475.59	0.1348
1484.6	0.17
1493.62	0.2131
1502.64	0.2369
1511.65	0.3032
1520.67	0.3297
1529.69	0.3638
1538.7	0.3992
1547.72	0.4344
1556.74	0.4628
1565.75	0.4675
1574.77	0.4643
1583.78	0.4366
1592.8	0.3447
1601.82	0.2455
1610.83	0.2298
1619.85	0.2877
1628.87	0.3355
1637.88	0.3457
1646.9	0.3443
1655.92	0.338
1664.93	0.3226
1673.95	0.3047
1682.96	0.2883
1691.98	0.2788
1701	0.2342
1710.01	0.1891
1719.03	0.1489
1728.05	0.1367
1737.06	0.1485
1746.08	0.1843
1755.1	0.2259
1764.11	0.2765
1773.13	0.3135
1782.14	0.3303
1791.16	0.3488
1800.18	0.3728
1809.19	0.3968
1818.21	0.4184
1827.23	0.4393
1836.24	0.4602
1845.26	0.4813
1854.28	0.5018
1863.29	0.5209
1872.31	0.5449
1881.32	0.5671
1890.34	0.5821
1899.36	0.5905
1908.37	0.5983
1917.39	0.6081
1926.41	0.6186
1935.42	0.6312
1944.44	0.6449
1953.46	0.6583
1962.47	0.6712
1971.49	0.6801
1980.5	0.6887
1989.52	0.698
1998.54	0.704
2007.55	0.705
2016.57	0.7076
2025.59	0.7094
2034.6	0.7139
2043.62	0.7193
2052.64	0.7203
2061.65	0.7151
2070.67	0.7118
2079.68	0.71
2088.7	0.7087
2097.72	0.7086
2106.73	0.7107
2115.75	0.7186
2124.77	0.7264
2133.78	0.7293
2142.8	0.7284
2151.82	0.7284
2160.83	0.7279
2169.85	0.7275
2178.86	0.7266
2187.88	0.7256
2196.9	0.7252
2205.91	0.726
2214.93	0.7263
2223.95	0.7265
2232.96	0.7267
2241.98	0.7266
2251	0.7256
2260.01	0.722
2269.03	0.717
2278.04	0.7114
2287.06	0.7051
2296.08	0.7022
2305.09	0.7037
2314.11	0.7069
2323.13	0.7073
2332.14	0.7059
2341.16	0.704
2350.18	0.7027
2359.19	0.7015
2368.21	0.6971
2377.22	0.6913
2386.24	0.692
2395.26	0.6986
2404.27	0.7051
2413.29	0.708
2422.31	0.7078
2431.32	0.7065
2440.34	0.707
2449.36	0.7112
2458.37	0.712
2467.39	0.7123
2476.4	0.7124
2485.42	0.7122
2494.44	0.7111
2503.45	0.7094
2512.47	0.7071
2521.49	0.7039
2530.5	0.7004
2539.52	0.6962
2548.54	0.6913
2557.55	0.6881
2566.57	0.6848
2575.58	0.6818
2584.6	0.6759
2593.62	0.669
2602.63	0.6647
2611.65	0.6595
2620.67	0.6552
2629.68	0.6508
2638.7	0.6465
2647.72	0.6421
2656.73	0.6379
2665.75	0.6374
2674.76	0.6435
2683.78	0.6447
2692.8	0.6564
2701.81	0.6597
2710.83	0.6601
2719.85	0.6558
2728.86	0.6485
2737.88	0.6414
2746.9	0.6327
2755.91	0.6226
2764.93	0.6128
2773.94	0.604
2782.96	0.6014
2791.98	0.6015
2800.99	0.6028
2810.01	0.6038
2819.03	0.6036
2828.04	0.6033
2837.06	0.6037
2846.08	0.6028
2855.09	0.5989
2864.11	0.593
2873.12	0.5836
2882.14	0.569
2891.16	0.5528
2900.17	0.5432
2909.19	0.5414
2918.21	0.5411
2927.22	0.541
2936.24	0.5422
2945.26	0.5449
2954.27	0.5462
2963.29	0.5424
2972.3	0.5363
2981.32	0.5291
2990.34	0.5272
2999.35	0.5197
3008.37	0.5092
3017.39	0.502
3026.4	0.4941
3035.42	0.4862
3044.44	0.4783
3053.45	0.4709
3062.47	0.4656
3071.48	0.4635
3080.5	0.4519
3089.52	0.4336
3098.53	0.4156
3107.55	0.3899
3116.57	0.3741
3125.58	0.3582
3134.6	0.3342
3143.62	0.3063
3152.63	0.279
3161.65	0.2643
3170.67	0.2556
3179.68	0.2518
3188.7	0.2496
3197.71	0.2441
3206.73	0.234
3215.75	0.2169
3224.76	0.1957
3233.78	0.1893
3242.8	0.1935
3251.81	0.2025
3260.83	0.2084
3269.85	0.2142
3278.86	0.2229
3287.88	0.2247
3296.89	0.2209
3305.91	0.2146
3314.93	0.2087
3323.94	0.2013
3332.96	0.1945
3341.98	0.1912
3350.99	0.191
3360.01	0.1822
3369.03	0.1798
3378.04	0.1817
3387.06	0.1872
3396.07	0.1939
3405.09	0.2066
3414.11	0.2225
3423.12	0.2371
3432.14	0.2517
3441.16	0.2727
3450.17	0.3064
3459.19	0.3325
3468.21	0.3569
3477.22	0.382
3486.24	0.4102
3495.25	0.4442
3504.27	0.4715
3513.29	0.5043
3522.3	0.5387
3531.32	0.5635
3540.34	0.5751
3549.35	0.5872
3558.37	0.6003
3567.39	0.6106
3576.4	0.6164
3585.42	0.6267
3594.43	0.6368
3603.45	0.6459
3612.47	0.6547
3621.48	0.6625
3630.5	0.6692
3639.52	0.6719
3648.53	0.6725
3657.55	0.6722
3666.57	0.6721
3675.58	0.6721
3684.6	0.6723
3693.61	0.6727
3702.63	0.6759
3711.65	0.6813
3720.66	0.6831
3729.68	0.6828
3738.7	0.6825
3747.71	0.6827
3756.73	0.6831
3765.75	0.6834
3774.76	0.6835
3783.78	0.6822
3792.79	0.6793
3801.81	0.6746
3810.83	0.6709
3819.84	0.6693
3828.86	0.6695
3837.88	0.67
3846.89	0.6695
3855.91	0.6682
3864.93	0.6662
3873.94	0.6659
3882.96	0.6648
3891.97	0.6629
3900.99	0.6616
