Infrared Spectrum: 2,4-Dimethylphenylacetonitrile
Formula: C 10 H 11 N
CAS: 68429-53-8
State: gas
Origin: EPA-IR VAPOR PHASE LIBRARY
1/CM	ABSORBANCE
549.8	0.00109185
559.445	0.00094995
569.09	0.00157185
578.734	0.00158185
588.379	0.00107185
598.024	0.00069375
607.669	0.00020485
617.313	0.00045275
626.958	0.00035935
636.603	0.00040845
646.248	0.00038785
655.893	0.00053835
665.537	0.00056375
675.182	0.00060375
684.827	0.00098345
694.472	0.00144185
704.116	0.00163185
713.761	0.00129185
723.406	0.00138185
733.051	0.00068015
742.695	0.00089125
752.34	0.00148185
761.985	0.00279185
771.63	0.00451185
781.275	0.00420185
790.919	0.00527185
800.564	0.00975185
810.209	0.0133019
819.854	0.00986185
829.498	0.00414185
839.143	0.00162185
848.788	0.00130185
858.433	0.00149185
868.078	0.00295185
877.722	0.00257185
887.367	0.00174185
897.012	0.00087285
906.657	0.00116185
916.301	0.00128185
925.946	0.00178185
935.591	0.00204185
945.236	0.00249185
954.88	0.00199185
964.525	0.00101185
974.17	0.00089765
983.815	0.00099265
993.46	0.00124185
1003.1	0.00114185
1012.75	0.00157185
1022.39	0.00144185
1032.04	0.00158185
1041.68	0.00195185
1051.33	0.00189185
1060.97	0.00141185
1070.62	0.00094985
1080.26	0.00094255
1089.91	0.00037915
1099.55	0.00111185
1109.2	0.00199185
1118.84	0.00179185
1128.49	0.00120185
1138.13	0.00105185
1147.78	0.00103185
1157.42	0.00139185
1167.07	0.00151185
1176.71	0.00098375
1186.36	0.00187185
1196	0.00293185
1205.64	0.00285185
1215.29	0.00181185
1224.93	0.00115185
1234.58	0.00181185
1244.22	0.00190185
1253.87	0.00162185
1263.51	0.00167185
1273.16	0.00151185
1282.8	0.00160185
1292.45	0.00169185
1302.09	0.00155185
1311.74	0.00163185
1321.38	0.00152185
1331.03	0.00132185
1340.67	0.00143185
1350.32	0.00144185
1359.96	0.00159185
1369.61	0.00191185
1379.25	0.00296185
1388.9	0.00392185
1398.54	0.00371185
1408.18	0.00443185
1417.83	0.00717185
1427.47	0.0108418
1437.12	0.0105418
1446.76	0.00840185
1456.41	0.00776185
1466.05	0.00681185
1475.7	0.00609185
1485.34	0.00737185
1494.99	0.0126319
1504.63	0.0168919
1514.28	0.0120918
1523.92	0.00575185
1533.57	0.00405185
1543.21	0.00356185
1552.86	0.00365185
1562.5	0.00341185
1572.15	0.00303185
1581.79	0.00267185
1591.44	0.00256185
1601.08	0.00350185
1610.73	0.00579185
1620.37	0.00584185
1630.01	0.00276185
1639.66	0.00132185
1649.3	0.00081245
1658.95	0.00080015
1668.59	0.00080805
1678.24	0.00082205
1687.88	0.00076185
1697.53	0.00069635
1707.17	0.00061885
1716.82	0.00079105
1726.46	0.00098585
1736.11	0.00128185
1745.75	0.00139185
1755.4	0.00113185
1765.04	0.00089115
1774.69	0.00067585
1784.33	0.00057645
1793.98	0.00054825
1803.62	0.00059705
1813.27	0.00067375
1822.91	0.00087225
1832.55	0.00076705
1842.2	0.00064145
1851.84	0.00053965
1861.49	0.00070445
1871.13	0.00091355
1880.78	0.00105185
1890.42	0.00119185
1900.07	0.00105185
1909.71	0.00094055
1919.36	0.00078785
1929	0.00057865
1938.65	0.00049415
1948.29	0.00042955
1957.94	0.00040725
1967.58	0.00041345
1977.23	0.00031695
1986.87	0.00029375
1996.52	0.00036115
2006.16	0.00035235
2015.81	0.00031255
2025.45	0.00029515
2035.1	0.00020515
2044.74	0.00032715
2054.38	0.00028235
2064.03	0.00035005
2073.67	0.00024365
2083.32	0.00032955
2092.96	0.00038885
2102.61	0.00041065
2112.25	0.00043145
2121.9	0.00034865
2131.54	0.00031975
2141.19	0.00039275
2150.83	0.00026715
2160.48	0.00026565
2170.12	0.00024235
2179.77	0.00024825
2189.41	0.00023015
2199.06	0.00026605
2208.7	0.00029455
2218.35	0.00038815
2227.99	0.00044445
2237.64	0.00077805
2247.28	0.00151185
2256.92	0.00171185
2266.57	0.00102185
2276.21	0.00055965
2285.86	0.00046775
2295.5	0.00041175
2305.15	0.00037185
2314.79	0.00043725
2324.44	0.00050245
2334.08	0.00051395
2343.73	0.00050795
2353.37	0.00042215
2363.02	0.00043585
2372.66	0.00052135
2382.31	0.00045545
2391.95	0.00054065
2401.6	0.00048975
2411.24	0.00048545
2420.89	0.00049155
2430.53	0.00048225
2440.18	0.00052695
2449.82	0.00039275
2459.47	0.00039965
2469.11	0.00040725
2478.75	0.00040535
2488.4	0.00039195
2498.04	0.00041945
2507.69	0.00033135
2517.33	0.00037125
2526.98	0.00041955
2536.62	0.00044555
2546.27	0.00038905
2555.91	0.00041655
2565.56	0.00051585
2575.2	0.00039585
2584.85	0.00043445
2594.49	0.00040785
2604.14	0.00038575
2613.78	0.00045165
2623.43	0.00041705
2633.07	0.00049825
2642.72	0.00041775
2652.36	0.00047865
2662.01	0.00033925
2671.65	0.00037215
2681.29	0.00048835
2690.94	0.00042935
2700.58	0.00053175
2710.23	0.00065005
2719.87	0.00065355
2729.52	0.00089055
2739.16	0.00125185
2748.81	0.00142185
2758.45	0.00109185
2768.1	0.00077885
2777.74	0.00078245
2787.39	0.00082055
2797.03	0.00091405
2806.68	0.00115185
2816.32	0.00142185
2825.97	0.00195185
2835.61	0.00255185
2845.26	0.00326185
2854.9	0.00487185
2864.55	0.00740185
2874.19	0.0104518
2883.84	0.0106419
2893.48	0.00992185
2903.12	0.0100818
2912.77	0.0125918
2922.41	0.0188119
2932.06	0.0252819
2941.7	0.0220719
2951.35	0.0144819
2960.99	0.0109619
2970.64	0.00989185
2980.28	0.0102718
2989.93	0.0107918
2999.57	0.0118219
3009.22	0.0156618
3018.86	0.0184119
3028.51	0.0155818
3038.15	0.0118919
3047.8	0.0113819
3057.44	0.00986185
3067.09	0.00692185
3076.73	0.00496185
3086.38	0.00357185
3096.02	0.00258185
3105.67	0.00244185
3115.31	0.00212185
3124.95	0.00183185
3134.6	0.00150185
3144.24	0.00104185
3153.89	0.00092225
3163.53	0.00067355
3173.18	0.00074705
3182.82	0.00069545
3192.47	0.00058985
3202.11	0.00053805
3211.76	0.00041915
3221.4	0.00049645
3231.05	0.00045245
3240.69	0.00041915
3250.34	0.00046345
3259.98	0.00034465
3269.63	0.00038305
3279.27	0.00043825
3288.92	0.00037925
3298.56	0.00039535
3308.21	0.00043105
3317.85	0.00037905
3327.49	0.00024885
3337.14	0.00035075
3346.78	0.00036285
3356.43	0.00048835
3366.07	0.00014485
3375.72	0.00033925
3385.36	0.00027415
3395.01	0.00040155
3404.65	0.00033585
3414.3	0.00024875
3423.94	0.00021775
3433.59	0.00033185
3443.23	0.00016515
3452.88	0.00035865
3462.52	0.00041645
3472.17	0.00015855
3481.81	0.00045355
3491.46	0.00033555
3501.1	0.00029705
3510.75	0.00027105
3520.39	0.00035135
3530.04	0.00029905
3539.68	0.00038635
3549.32	0.00030105
3558.97	0.00042385
3568.61	0.00025145
3578.26	0.00052125
3587.9	0.00042315
3597.55	0.00034905
3607.19	0.00027175
3616.84	0.00021315
3626.48	0.00048385
3636.13	0.00050205
3645.77	0.00049515
3655.42	0.00044535
3665.06	0.00035405
3674.71	0.00025785
3684.35	0.00035835
3694	0.00029515
3703.64	0.00010295
3713.29	0.00040305
3722.93	0.00042945
3732.58	0.00039885
3742.22	0.00049385
3751.86	0.00057225
3761.51	0.00040635
3771.15	0.00039505
3780.8	0.00038225
3790.44	0.00064955
3800.09	0.00057255
3809.73	0.00044285
3819.38	0.00031275
3829.02	0.00047335
3838.67	0.00044925
3848.31	0.00022955
3857.96	0.00028685
3867.6	0.00051305
3877.25	0.00046135
3886.89	0.00038655
3896.54	0.00042055
3906.18	0.00038435
3915.83	0.00045575
3925.47	0.00047475
3935.12	0.00053405
3944.76	0.00062185
3954.41	0.00045095
3964.05	0.00042895
3973.69	0.00052475
3983.34	0.00045665
3992.98	0.00043695
