Infrared Spectrum: 2,2,4-TRIMETHYL-1,3-PENTANEDIOL DIISOBUTYRATE
Formula: C16 H30 O4
CAS: 6846-50-0
State: LIQUID
Boiling point: 73 C AT 10 mmHg
Class: COBLENTZ
Instrument: Not specified, most likely a prism, grating, or hybrid spectrometer.
Sampling: TRANSMISSION
Path length: SMEAR
Resolution: 4
Origin: TENNESSEE EASTMAN COMPANY, RESEARCH LABORATORIES
MICROMETERS	TRANSMITTANCE
2.019	0.937
2.05778	0.94
2.09657	0.943
2.13535	0.946
2.17413	0.948
2.21292	0.95
2.2517	0.941
2.29048	0.912
2.32927	0.901
2.36805	0.909
2.40683	0.917
2.44562	0.919
2.4844	0.919
2.52318	0.929
2.56197	0.938
2.60075	0.94
2.63953	0.94
2.67832	0.945
2.7171	0.953
2.75588	0.953
2.79467	0.953
2.83345	0.953
2.87223	0.953
2.91101	0.94
2.9498	0.911
2.98858	0.94
3.02736	0.943
3.06615	0.945
3.10493	0.941
3.14371	0.929
3.1825	0.912
3.22128	0.916
3.26006	0.92
3.29885	0.908
3.33763	0.772
3.37641	0.191
3.4152	0.25
3.45398	0.388
3.49276	0.462
3.53155	0.798
3.57033	0.833
3.60911	0.888
3.6479	0.901
3.68668	0.901
3.72546	0.9
3.76425	0.925
3.80303	0.933
3.84181	0.935
3.8806	0.941
3.91938	0.941
3.95816	0.94
3.99695	0.946
4.03573	0.95
4.07451	0.95
4.1133	0.95
4.15208	0.951
4.19086	0.951
4.22965	0.951
4.26843	0.951
4.30721	0.937
4.346	0.93
4.38478	0.93
4.42356	0.938
4.46235	0.945
4.50113	0.951
4.53991	0.954
4.57869	0.956
4.61748	0.954
4.65626	0.954
4.69504	0.951
4.73383	0.95
4.77261	0.95
4.81139	0.95
4.85018	0.95
4.88896	0.946
4.92774	0.948
4.96653	0.95
5.00531	0.953
5.04409	0.954
5.08288	0.951
5.12166	0.951
5.16044	0.956
5.19923	0.956
5.23801	0.954
5.27679	0.953
5.31558	0.95
5.35436	0.946
5.39314	0.938
5.43193	0.935
5.47071	0.92
5.50949	0.898
5.54828	0.869
5.58706	0.835
5.62584	0.774
5.66463	0.688
5.70341	0.511
5.74219	0.169
5.78098	0.048
5.81976	0.158
5.85854	0.437
5.89733	0.588
5.93611	0.65
5.97489	0.746
6.01368	0.814
6.05246	0.851
6.09124	0.87
6.13003	0.888
6.16881	0.9
6.20759	0.911
6.24637	0.914
6.28516	0.917
6.32394	0.917
6.36272	0.914
6.40151	0.906
6.44029	0.89
6.47907	0.893
6.51786	0.861
6.55664	0.843
6.59542	0.812
6.63421	0.8
6.67299	0.762
6.71177	0.651
6.75056	0.412
6.78934	0.25
6.82812	0.254
6.86691	0.366
6.90569	0.469
6.94447	0.596
6.98326	0.683
7.02204	0.72
7.06082	0.722
7.09961	0.696
7.13839	0.585
7.17717	0.429
7.21596	0.309
7.25474	0.35
7.29352	0.375
7.33231	0.333
7.37109	0.448
7.40987	0.54
7.44866	0.479
7.48744	0.414
7.52622	0.467
7.56501	0.541
7.60379	0.58
7.64257	0.614
7.68136	0.64
7.72014	0.614
7.75892	0.606
7.79771	0.609
7.83649	0.566
7.87527	0.498
7.91405	0.377
7.95284	0.266
7.99162	0.24
8.0304	0.27
8.06919	0.325
8.10797	0.361
8.14675	0.38
8.18554	0.37
8.22432	0.333
8.2631	0.29
8.30189	0.238
8.34067	0.174
8.37945	0.138
8.41824	0.133
8.45702	0.162
8.4958	0.233
8.53459	0.27
8.57337	0.201
8.61215	0.119
8.65094	0.087
8.68972	0.09
8.7285	0.143
8.76729	0.227
8.80607	0.303
8.84485	0.33
8.88364	0.327
8.92242	0.311
8.9612	0.303
8.99999	0.29
9.03877	0.288
9.07755	0.32
9.11634	0.317
9.15512	0.32
9.1939	0.35
9.23269	0.343
9.27147	0.298
9.31025	0.269
9.34904	0.267
9.38782	0.275
9.4266	0.348
9.46539	0.469
9.50417	0.579
9.54295	0.645
9.58173	0.669
9.62052	0.646
9.6593	0.59
9.69808	0.588
9.73687	0.624
9.77565	0.643
9.81443	0.598
9.85322	0.516
9.892	0.491
9.93078	0.52
9.96957	0.541
10.0084	0.516
10.0471	0.496
10.0859	0.495
10.1247	0.495
10.1635	0.488
10.2023	0.483
10.2411	0.498
10.2798	0.519
10.3186	0.52
10.3574	0.477
10.3962	0.441
10.435	0.43
10.4737	0.435
10.5125	0.469
10.5513	0.517
10.5901	0.558
10.6289	0.574
10.6677	0.6
10.7064	0.612
10.7452	0.58
10.784	0.543
10.8228	0.54
10.8616	0.574
10.9004	0.608
10.9391	0.598
10.9779	0.559
11.0167	0.559
11.0555	0.627
11.0943	0.667
11.1331	0.679
11.1718	0.698
11.2106	0.751
11.2494	0.79
11.2882	0.827
11.327	0.85
11.3658	0.866
11.4045	0.879
11.4433	0.888
11.4821	0.893
11.5209	0.895
11.5597	0.882
11.5985	0.853
11.6372	0.814
11.676	0.785
11.7148	0.78
11.7536	0.788
11.7924	0.812
11.8312	0.838
11.8699	0.853
11.9087	0.861
11.9475	0.862
11.9863	0.862
12.0251	0.846
12.0639	0.832
12.1026	0.816
12.1414	0.8
12.1802	0.787
12.219	0.787
12.2578	0.793
12.2966	0.812
12.3353	0.837
12.3741	0.854
12.4129	0.869
12.4517	0.874
12.4905	0.882
12.5293	0.883
12.568	0.885
12.6068	0.885
12.6456	0.883
12.6844	0.874
12.7232	0.867
12.762	0.864
12.8007	0.85
12.8395	0.824
12.8783	0.801
12.9171	0.787
12.9559	0.787
12.9947	0.791
13.0334	0.787
13.0722	0.772
13.111	0.743
13.1498	0.716
13.1886	0.7
13.2274	0.688
13.2661	0.683
13.3049	0.68
13.3437	0.679
13.3825	0.677
13.4213	0.69
13.4601	0.709
13.4988	0.737
13.5376	0.764
13.5764	0.782
13.6152	0.801
13.654	0.814
13.6928	0.819
13.7315	0.82
13.7703	0.822
13.8091	0.824
13.8479	0.824
13.8867	0.824
13.9255	0.824
13.9642	0.824
14.003	0.824
14.0418	0.824
14.0806	0.824
14.1194	0.82
14.1582	0.814
14.1969	0.812
14.2357	0.811
14.2745	0.806
14.3133	0.803
14.3521	0.8
14.3909	0.8
14.4296	0.796
14.4684	0.785
14.5072	0.783
14.546	0.78
14.5848	0.775
14.6236	0.774
14.6623	0.769
14.7011	0.762
14.7399	0.758
14.7787	0.754
14.8175	0.746
14.8563	0.74
14.895	0.735
14.9338	0.727
14.9726	0.717
15.0114	0.709
15.0502	0.698
15.089	0.693
15.1277	0.687
15.1665	0.68
15.2053	0.674
15.2441	0.666
15.2829	0.659
15.3217	0.653
15.3604	0.643
15.3992	0.638
15.438	0.633
15.4768	0.632
15.5156	0.625
15.5544	0.622
15.5931	0.617
15.6319	0.617
15.6707	0.612
15.7095	0.611
15.7483	0.608
15.7871	0.604
15.8258	0.603
15.8646	0.601
15.9034	0.601
15.9422	0.601
15.981	0.598
