Infrared Spectrum: PHOSPHORIC ACID, TRIS(1,3-DICHLORO-2-PROPYL) ESTER
Formula: C9 H15 Cl6 O4 P
CAS: 68460-03-7
Class: COBLENTZ III
Instrument: PERKIN-ELMER 283
Sampling: TRANSMISSION
Path length: SMEAR, CsI WINDOW
Resolution: 4
Origin: PERKIN-ELMER
1/CM	TRANSMITTANCE
201.168	0.818
210.902	0.846
220.636	0.87
230.37	0.886
240.104	0.927
249.838	0.935
259.572	0.941
269.306	0.953
279.04	0.95
288.774	0.953
298.508	0.956
308.242	0.957
317.976	0.96
327.71	0.958
337.443	0.954
347.177	0.958
356.911	0.944
366.645	0.927
376.379	0.92
386.113	0.92
395.847	0.917
405.581	0.916
415.315	0.914
425.049	0.89
434.783	0.883
444.517	0.891
454.251	0.9
463.985	0.874
473.719	0.801
483.453	0.783
493.187	0.788
502.921	0.781
512.655	0.798
522.389	0.814
532.123	0.819
541.857	0.832
551.591	0.852
561.325	0.833
571.059	0.781
580.793	0.75
590.526	0.859
600.26	0.93
609.994	0.938
619.728	0.94
629.462	0.943
639.196	0.941
648.93	0.938
658.664	0.929
668.398	0.892
678.132	0.752
687.866	0.673
697.6	0.584
707.334	0.7
717.068	0.868
726.802	0.841
736.536	0.758
746.27	0.732
756.004	0.63
765.738	0.642
775.472	0.783
785.206	0.77
794.94	0.75
804.674	0.774
814.408	0.868
824.142	0.918
833.876	0.92
843.609	0.913
853.343	0.891
863.077	0.7609
872.811	0.522
882.545	0.769
892.279	0.892
902.013	0.903
911.747	0.892
921.481	0.863
931.215	0.82
940.949	0.73
950.683	0.59
960.417	0.579
970.151	0.521
979.885	0.336
989.619	0.242
999.353	0.268
1009.09	0.272
1018.82	0.212
1028.55	0.183
1038.29	0.179
1048.02	0.198
1057.76	0.314
1067.49	0.454
1077.22	0.543
1086.96	0.64
1096.69	0.673
1106.43	0.713
1116.16	0.792
1125.89	0.843
1135.63	0.864
1145.36	0.851
1155.1	0.838
1164.83	0.883
1174.56	0.889
1184.3	0.851
1194.03	0.824
1203.77	0.841
1213.5	0.734
1223.23	0.809
1232.97	0.854
1242.7	0.827
1252.44	0.673
1262.17	0.491
1271.9	0.38
1281.64	0.34
1291.37	0.3921
1301.11	0.57
1310.84	0.7311
1320.57	0.852
1330.31	0.85
1340.04	0.792
1349.78	0.798
1359.51	0.81
1369.24	0.84
1378.98	0.88
1388.71	0.904
1398.45	0.907
1408.18	0.894
1417.91	0.861
1427.65	0.5979
1437.38	0.647
1447.12	0.7181
1456.85	0.88
1466.58	0.903
1476.32	0.917
1486.05	0.92
1495.78	0.921
1505.52	0.923
1515.25	0.922
1524.99	0.922
1534.72	0.923
1544.45	0.922
1554.19	0.922
1563.92	0.918
1573.66	0.918
1583.39	0.918
1593.12	0.918
1602.86	0.918
1612.59	0.918
1622.33	0.918
1632.06	0.918
1641.79	0.918
1651.53	0.923
1661.26	0.918
1671	0.92
1680.73	0.921
1690.46	0.913
1700.2	0.917
1709.93	0.903
1719.67	0.899
1729.4	0.894
1739.13	0.895
1748.87	0.9
1758.6	0.901
1768.34	0.901
1778.07	0.899
1787.8	0.898
1797.54	0.898
1807.27	0.899
1817.01	0.899
1826.74	0.899
1836.47	0.896
1846.21	0.899
1855.94	0.899
1865.68	0.899
1875.41	0.9
1885.14	0.9
1894.88	0.899
1904.61	0.9
1914.35	0.899
1924.08	0.9
1933.81	0.899
1943.55	0.899
1953.28	0.899
1963.02	0.892
1972.75	0.892
1982.48	0.892
1992.22	0.892
2001.95	0.892
2011.68	0.892
2021.42	0.892
2031.15	0.892
2040.89	0.892
2050.62	0.892
2060.35	0.892
2070.09	0.892
2079.82	0.8901
2089.56	0.889
2099.29	0.8909
2109.02	0.891
2118.76	0.89
2128.49	0.8873
2138.23	0.883
2147.96	0.883
2157.69	0.883
2167.43	0.883
2177.16	0.8822
2186.9	0.883
2196.63	0.8822
2206.36	0.882
2216.1	0.882
2225.83	0.882
2235.57	0.882
2245.3	0.882
2255.03	0.882
2264.77	0.881
2274.5	0.878
2284.24	0.878
2293.97	0.877
2303.7	0.878
2313.44	0.882
2323.17	0.882
2332.91	0.8826
2342.64	0.8804
2352.37	0.881
2362.11	0.8789
2371.84	0.873
2381.58	0.869
2391.31	0.869
2401.04	0.87
2410.78	0.8695
2420.51	0.869
2430.25	0.868
2439.98	0.868
2449.71	0.868
2459.45	0.868
2469.18	0.868
2478.92	0.8661
2488.65	0.863
2498.38	0.8606
2508.12	0.859
2517.85	0.859
2527.58	0.859
2537.32	0.859
2547.05	0.858
2556.79	0.8587
2566.52	0.858
2576.25	0.858
2585.99	0.855
2595.72	0.855
2605.46	0.855
2615.19	0.852
2624.92	0.8528
2634.66	0.8547
2644.39	0.852
2654.13	0.852
2663.86	0.852
2673.59	0.852
2683.33	0.852
2693.06	0.85
2702.8	0.8498
2712.53	0.85
2722.26	0.8508
2732	0.85
2741.73	0.852
2751.47	0.85
2761.2	0.85
2770.93	0.85
2780.67	0.8499
2790.4	0.849
2800.14	0.849
2809.87	0.849
2819.6	0.8469
2829.34	0.838
2839.07	0.833
2848.81	0.832
2858.54	0.829
2868.27	0.829
2878.01	0.832
2887.74	0.8341
2897.48	0.83
2907.21	0.823
2916.94	0.8181
2926.68	0.8011
2936.41	0.7902
2946.15	0.7792
2955.88	0.7276
2965.61	0.6959
2975.35	0.7296
2985.08	0.8
2994.82	0.807
3004.55	0.8017
3014.28	0.7837
3024.02	0.7748
3033.75	0.7896
3043.48	0.8098
3053.22	0.819
3062.95	0.8233
3072.69	0.824
3082.42	0.825
3092.15	0.8247
3101.89	0.8264
3111.62	0.828
3121.36	0.828
3131.09	0.8287
3140.82	0.826
3150.56	0.827
3160.29	0.8257
3170.03	0.825
3179.76	0.827
3189.49	0.825
3199.23	0.824
3208.96	0.823
3218.7	0.824
3228.43	0.823
3238.16	0.8236
3247.9	0.823
3257.63	0.823
3267.37	0.822
3277.1	0.821
3286.83	0.823
3296.57	0.821
3306.3	0.821
3316.04	0.819
3325.77	0.821
3335.5	0.821
3345.24	0.821
3354.97	0.82
3364.71	0.821
3374.44	0.82
3384.17	0.819
3393.91	0.819
3403.64	0.818
3413.38	0.816
3423.11	0.8173
3432.84	0.816
3442.58	0.8174
3452.31	0.816
3462.05	0.816
3471.78	0.816
3481.51	0.816
3491.25	0.815
3500.98	0.816
3510.72	0.815
3520.45	0.8152
3530.18	0.816
3539.92	0.815
3549.65	0.814
3559.38	0.816
3569.12	0.8158
3578.85	0.814
3588.59	0.815
3598.32	0.815
3608.05	0.815
3617.79	0.816
3627.52	0.814
3637.26	0.815
3646.99	0.812
3656.72	0.814
3666.46	0.812
3676.19	0.812
3685.93	0.812
3695.66	0.812
3705.39	0.812
3715.13	0.814
3724.86	0.811
3734.6	0.81
3744.33	0.811
3754.06	0.81
3763.8	0.81
3773.53	0.81
3783.27	0.81
3793	0.807
3802.73	0.81
3812.47	0.81
3822.2	0.8099
3831.94	0.809
3841.67	0.8087
3851.4	0.807
3861.14	0.8092
3870.87	0.807
3880.61	0.8062
3890.34	0.807
3900.07	0.806
3909.81	0.8052
3919.54	0.805
3929.28	0.8035
3939.01	0.803
3948.74	0.801
3958.48	0.801
3968.21	0.801
3977.95	0.801
3987.68	0.8017
3997.41	0.801
