Infrared Spectrum: 3-Methylcyclohexylamine,(c,t)
Formula: C 7 H 15 N
CAS: 6850-35-7
State: gas
Origin: EPA-IR VAPOR PHASE LIBRARY
1/CM	ABSORBANCE
549.9	0.00773
559.547	0.00752
569.193	0.00691
578.84	0.00711
588.486	0.00747
598.133	0.00775
607.779	0.00814
617.426	0.00868
627.072	0.00942
636.719	0.01032
646.365	0.01122
656.012	0.0119
665.658	0.01252
675.305	0.01308
684.951	0.01382
694.598	0.01476
704.245	0.01599
713.891	0.01809
723.538	0.02168
733.184	0.02749
742.831	0.03591
752.477	0.04742
762.124	0.05962
771.77	0.07037
781.417	0.0818
791.063	0.08674
800.71	0.0714
810.356	0.04362
820.003	0.02497
829.649	0.0196
839.296	0.01688
848.943	0.01448
858.589	0.01361
868.236	0.01501
877.882	0.0163
887.529	0.01571
897.175	0.01404
906.822	0.01256
916.468	0.0107
926.115	0.01048
935.761	0.01085
945.408	0.01009
955.054	0.00924
964.701	0.0092
974.347	0.00848
983.994	0.00707
993.64	0.00645
1003.29	0.00692
1012.93	0.00785
1022.58	0.00906
1032.23	0.01132
1041.87	0.01533
1051.52	0.01939
1061.17	0.01828
1070.81	0.0132
1080.46	0.00879
1090.11	0.01065
1099.75	0.01507
1109.4	0.01823
1119.05	0.01533
1128.69	0.01089
1138.34	0.00781
1147.99	0.00705
1157.63	0.00656
1167.28	0.00571
1176.92	0.00496
1186.57	0.00482
1196.22	0.00464
1205.86	0.00463
1215.51	0.00485
1225.16	0.00541
1234.8	0.00621
1244.45	0.00765
1254.1	0.00986
1263.74	0.01051
1273.39	0.00921
1283.04	0.00677
1292.68	0.00576
1302.33	0.00634
1311.98	0.00717
1321.62	0.00843
1331.27	0.0114
1340.92	0.01768
1350.56	0.02469
1360.21	0.02908
1369.86	0.03153
1379.5	0.02854
1389.15	0.01999
1398.79	0.01129
1408.44	0.00761
1418.09	0.00756
1427.73	0.01199
1437.38	0.02417
1447.03	0.03871
1456.67	0.04527
1466.32	0.03896
1475.97	0.02236
1485.61	0.01217
1495.26	0.00744
1504.91	0.00588
1514.55	0.00525
1524.2	0.00495
1533.85	0.00483
1543.49	0.0049
1553.14	0.00525
1562.79	0.00592
1572.43	0.00698
1582.08	0.00897
1591.73	0.01305
1601.37	0.02057
1611.02	0.02955
1620.67	0.03181
1630.31	0.02429
1639.96	0.01372
1649.6	0.00782
1659.25	0.00544
1668.9	0.00417
1678.54	0.0034993
1688.19	0.003068
1697.84	0.0028062
1707.48	0.002641
1717.13	0.00242
1726.78	0.002269
1736.42	0.001994
1746.07	0.00133
1755.72	0.00059
1765.36	0.001
1775.01	0.00139
1784.66	0.00136
1794.3	0.001726
1803.95	0.002166
1813.6	0.002378
1823.24	0.0024386
1832.89	0.0024204
1842.54	0.002367
1852.18	0.002321
1861.83	0.002192
1871.47	0.002108
1881.12	0.002032
1890.77	0.001994
1900.41	0.002012
1910.06	0.001899
1919.71	0.001785
1929.35	0.001639
1939	0.001528
1948.65	0.00148
1958.29	0.00139
1967.94	0.00138
1977.59	0.00142
1987.23	0.00145
1996.88	0.00151
2006.53	0.00149
2016.17	0.00146
2025.82	0.00144
2035.47	0.00142
2045.11	0.00141
2054.76	0.00139
2064.41	0.00139
2074.05	0.00144
2083.7	0.00148
2093.35	0.001572
2102.99	0.001637
2112.64	0.001646
2122.28	0.001675
2131.93	0.001657
2141.58	0.0017
2151.22	0.001701
2160.87	0.001731
2170.52	0.001789
2180.16	0.001813
2189.81	0.001833
2199.46	0.001862
2209.1	0.001874
2218.75	0.001856
2228.4	0.001836
2238.04	0.001793
2247.69	0.001763
2257.34	0.001759
2266.98	0.001811
2276.63	0.001823
2286.28	0.001797
2295.92	0.001864
2305.57	0.0019
2315.22	0.001933
2324.86	0.001978
2334.51	0.001995
2344.16	0.001999
2353.8	0.002
2363.45	0.002003
2373.09	0.002023
2382.74	0.002028
2392.39	0.002104
2402.03	0.002248
2411.68	0.00233
2421.33	0.002401
2430.97	0.002378
2440.62	0.002317
2450.27	0.002247
2459.91	0.002178
2469.56	0.002131
2479.21	0.002116
2488.85	0.002147
2498.5	0.002202
2508.15	0.002238
2517.79	0.00232
2527.44	0.002386
2537.09	0.0024639
2546.73	0.00257973
2556.38	0.0027602
2566.03	0.0031034
2575.67	0.0035049
2585.32	0.0041
2594.96	0.00468
2604.61	0.00519
2614.26	0.00551
2623.9	0.00583
2633.55	0.00642
2643.2	0.00729
2652.84	0.00776
2662.49	0.00763
2672.14	0.00721
2681.78	0.0069
2691.43	0.00697
2701.08	0.00732
2710.72	0.00779
2720.37	0.00815
2730.02	0.00868
2739.66	0.00882
2749.31	0.00847
2758.96	0.00816
2768.6	0.00852
2778.25	0.00949
2787.9	0.01123
2797.54	0.01385
2807.19	0.01753
2816.84	0.02362
2826.48	0.0367
2836.13	0.06615
2845.77	0.1133
2855.42	0.15175
2865.07	0.15627
2874.71	0.14801
2884.36	0.14032
2894.01	0.15664
2903.65	0.21055
2913.3	0.31528
2922.95	0.42992
2932.59	0.43243
2942.24	0.31392
2951.89	0.22819
2961.53	0.16682
2971.18	0.10286
2980.83	0.03403
2990.47	0.01214
3000.12	0.00745
3009.77	0.0058
3019.41	0.00486
3029.06	0.0045
3038.71	0.00425
3048.35	0.00435
3058	0.00484
3067.64	0.00542
3077.29	0.00554
3086.94	0.0051
3096.58	0.00446
3106.23	0.00403
3115.88	0.00365
3125.52	0.0032004
3135.17	0.0029058
3144.82	0.002898
3154.46	0.0030032
3164.11	0.0029962
3173.76	0.0033519
3183.4	0.0033287
3193.05	0.0032098
3202.7	0.0026764
3212.34	0.0025691
3221.99	0.002322
3231.64	0.001892
3241.28	0.001587
3250.93	0.001589
3260.58	0.0015
3270.22	0.001553
3279.87	0.00172
3289.52	0.001727
3299.16	0.001857
3308.81	0.0024401
3318.45	0.00374
3328.1	0.00507
3337.75	0.00505
3347.39	0.00401
3357.04	0.002825
3366.69	0.002288
3376.33	0.002047
3385.98	0.001874
3395.63	0.001815
3405.27	0.001554
3414.92	0.00143
3424.57	0.00139
3434.21	0.00127
3443.86	0.00134
3453.51	0.0014
3463.15	0.00141
3472.8	0.001531
3482.45	0.00144
3492.09	0.00119
3501.74	0.00123
3511.39	0.00113
3521.03	0.00098
3530.68	0.00099
3540.33	0.001
3549.97	0.00102
3559.62	0.00089
3569.26	0.00055
3578.91	0
3588.56	0.00029
3598.2	0.00099
3607.85	0.00104
3617.5	0.00109
3627.14	0.00106
3636.79	0.00104
3646.44	0.00112
3656.08	0.00112
3665.73	0.00123
3675.38	0.00125
3685.02	0.00138
3694.67	0.00148
3704.32	0.001536
3713.96	0.001542
3723.61	0.001539
3733.26	0.00148
3742.9	0.00152
3752.55	0.001623
3762.2	0.001722
3771.84	0.001806
3781.49	0.001814
3791.13	0.001809
3800.78	0.001786
3810.43	0.001761
3820.07	0.001666
3829.72	0.001805
3839.37	0.001818
3849.01	0.001899
3858.66	0.001919
3868.31	0.001868
3877.95	0.001786
3887.6	0.001717
3897.25	0.001755
3906.89	0.001674
3916.54	0.001658
3926.19	0.00171
3935.83	0.001761
3945.48	0.001767
3955.13	0.001845
3964.77	0.001961
3974.42	0.001993
3984.07	0.002031
3993.71	0.002059
