Infrared Spectrum: 2-Methoxybenzylamine
Formula: C 8 H 11 N O
CAS: 6850-57-3
State: gas
Origin: EPA-IR VAPOR PHASE LIBRARY
1/CM	ABSORBANCE
549.9	0.0008816
559.547	0.0008008
569.193	0.0010097
578.84	0.0010486
588.486	0.0010732
598.133	0.0010639
607.779	0.0009723
617.426	0.0008438
627.072	0.0008823
636.719	0.0008686
646.365	0.0008294
656.012	0.0008753
665.658	0.0009985
675.305	0.0010497
684.951	0.0011764
694.598	0.001379
704.245	0.001819
713.891	0.002619
723.538	0.003599
733.184	0.004719
742.831	0.006289
752.477	0.007119
762.124	0.004889
771.77	0.003219
781.417	0.002809
791.063	0.002939
800.71	0.002869
810.356	0.002579
820.003	0.002429
829.649	0.002539
839.296	0.002629
848.943	0.002629
858.589	0.002659
868.236	0.002589
877.882	0.002169
887.529	0.001569
897.175	0.0012471
906.822	0.0010816
916.468	0.0010608
926.115	0.0011476
935.761	0.0010193
945.408	0.0009658
955.054	0.0009683
964.701	0.0010154
974.347	0.0010881
983.994	0.0011993
993.64	0.001409
1003.29	0.001719
1012.93	0.002539
1022.58	0.003789
1032.23	0.004679
1041.87	0.004799
1051.52	0.004039
1061.17	0.002899
1070.81	0.001859
1080.46	0.001559
1090.11	0.001749
1099.75	0.002079
1109.4	0.002129
1119.05	0.001969
1128.69	0.001689
1138.34	0.001739
1147.99	0.001899
1157.63	0.001949
1167.28	0.002329
1176.92	0.002859
1186.57	0.002679
1196.22	0.002399
1205.86	0.002449
1215.51	0.003519
1225.16	0.007049
1234.8	0.011909
1244.45	0.012329
1254.1	0.007329
1263.74	0.004009
1273.39	0.003499
1283.04	0.003269
1292.68	0.002749
1302.33	0.002049
1311.98	0.001759
1321.62	0.001519
1331.27	0.001409
1340.92	0.001366
1350.56	0.0013614
1360.21	0.001362
1369.86	0.0013556
1379.5	0.001499
1389.15	0.001409
1398.79	0.0012375
1408.44	0.0011162
1418.09	0.0012725
1427.73	0.001739
1437.38	0.002799
1447.03	0.003379
1456.67	0.003959
1466.32	0.004609
1475.97	0.005379
1485.61	0.007199
1495.26	0.006969
1504.91	0.004009
1514.55	0.001689
1524.2	0.0012244
1533.85	0.0010534
1543.49	0.0010687
1553.14	0.0010722
1562.79	0.0013377
1572.43	0.001979
1582.08	0.002819
1591.73	0.003649
1601.37	0.003299
1611.02	0.002489
1620.67	0.001779
1630.31	0.001469
1639.96	0.0011815
1649.6	0.0009523
1659.25	0.0008019
1668.9	0.000793
1678.54	0.0007201
1688.19	0.0006633
1697.84	0.0006799
1707.48	0.0005942
1717.13	0.0006189
1726.78	0.0005609
1736.42	0.0005146
1746.07	0.0005608
1755.72	0.0005696
1765.36	0.0005638
1775.01	0.0005713
1784.66	0.000532
1794.3	0.0005799
1803.95	0.0005403
1813.6	0.0005243
1823.24	0.0005037
1832.89	0.0005415
1842.54	0.0004927
1852.18	0.0004981
1861.83	0.0004985
1871.47	0.0005197
1881.12	0.0005996
1890.77	0.0006362
1900.41	0.0005814
1910.06	0.0005088
1919.71	0.0005475
1929.35	0.0005412
1939	0.0005232
1948.65	0.00043406
1958.29	0.00045511
1967.94	0.0004586
1977.59	0.0004758
1987.23	0.0004704
1996.88	0.0004037
2006.53	0.00042178
2016.17	0.00044473
2025.82	0.00046378
2035.47	0.00045823
2045.11	0.000478
2054.76	0.00043397
2064.41	0.00043218
2074.05	0.00040883
2083.7	0.0003294
2093.35	0.0003131
2102.99	0.0002949
2112.64	0.000266
2122.28	0.000241
2131.93	0.000238
2141.58	0.00025
2151.22	0.0002699
2160.87	0.000226
2170.52	0.000254
2180.16	0.00023
2189.81	0.000249
2199.46	0.00024
2209.1	0.0002761
2218.75	0.00025
2228.4	0.000267
2238.04	0.000286
2247.69	0.00025
2257.34	0.0002832
2266.98	0.00025
2276.63	0.0003033
2286.28	0.0002863
2295.92	0.000265
2305.57	0.000241
2315.22	0.0002931
2324.86	0.0003037
2334.51	0.0002765
2344.16	0.00021
2353.8	0.000218
2363.45	0.000211
2373.09	0.000245
2382.74	0.000181
2392.39	0.000178
2402.03	0.000228
2411.68	0.00022
2421.33	0.000223
2430.97	0.000204
2440.62	0.000163
2450.27	0.000168
2459.91	0.000175
2469.56	0.000185
2479.21	0.000211
2488.85	0.000176
2498.5	0.000155
2508.15	0.000187
2517.79	0.000148
2527.44	0.000188
2537.09	0.000194
2546.73	0.000132
2556.38	0.000133
2566.03	0.000141
2575.67	0.000121
2585.32	0.000139
2594.96	6.3e-05
2604.61	0.000165
2614.26	0.000142
2623.9	0.000144
2633.55	0.000142
2643.2	9.9e-05
2652.84	5.9e-05
2662.49	5.4e-05
2672.14	8.5e-05
2681.78	0.000123
2691.43	0.000107
2701.08	1.7e-05
2710.72	5.7e-05
2720.37	7.3e-05
2730.02	0.000121
2739.66	0.000121
2749.31	0.000173
2758.96	0.00014
2768.6	9.1e-05
2778.25	0.000152
2787.9	0.000189
2797.54	0.000197
2807.19	0.00026
2816.84	0.0005137
2826.48	0.000901
2836.13	0.001769
2845.77	0.002289
2855.42	0.001959
2865.07	0.001629
2874.71	0.001679
2884.36	0.001719
2894.01	0.001749
2903.65	0.001859
2913.3	0.002289
2922.95	0.002629
2932.59	0.003159
2942.24	0.003859
2951.89	0.003999
2961.53	0.003109
2971.18	0.001929
2980.83	0.001399
2990.47	0.001549
3000.12	0.002119
3009.77	0.002029
3019.41	0.001729
3029.06	0.001849
3038.71	0.001619
3048.35	0.001399
3058	0.001609
3067.64	0.002069
3077.29	0.002309
3086.94	0.001709
3096.58	0.0007256
3106.23	0.0006078
3115.88	0.000371596
3125.52	0.000256
3135.17	0.000121
3144.82	0.000126
3154.46	9.8e-05
3164.11	0.000106
3173.76	0.000154
3183.4	0.000197
3193.05	0.000109
3202.7	0.0002826
3212.34	0.000276
3221.99	0.0002759
3231.64	8.4e-05
3241.28	0.000206
3250.93	0.000186
3260.58	0.0002781
3270.22	0.0002873
3279.87	0.0003354
3289.52	0.000228
3299.16	0.000258
3308.81	0.0003242
3318.45	0.0003347
3328.1	0.0003441
3337.75	0.00046802
3347.39	0.00045889
3357.04	0.0006339
3366.69	0.00040741
3376.33	0.000337
3385.98	0.00039815
3395.63	0.0005224
3405.27	0.0005188
3414.92	0.000536
3424.57	0.00044626
3434.21	0.0005762
3443.86	0.00040845
3453.51	0.0005986
3463.15	0.0005523
3472.8	0.0005401
3482.45	0.0004957
3492.09	0.00044628
3501.74	0.00038462
3511.39	0.00045463
3521.03	0.00040191
3530.68	0.0005463
3540.33	0.00041972
3549.97	0.00046142
3559.62	0.00045465
3569.26	0.0004959
3578.91	0.00042976
3588.56	0.00039683
3598.2	0.000377373
3607.85	0.00042371
3617.5	0.00046597
3627.14	0.0003799
3636.79	0.0002887
3646.44	0.00043627
3656.08	0.00043926
3665.73	0.0003504
3675.38	0.00038273
3685.02	0.00043714
3694.67	0.0003367
3704.32	0.00039715
3713.96	0.0003224
3723.61	0.0003537
3733.26	0.0004838
3742.9	0.00040357
3752.55	0.00038006
3762.2	0.00038508
3771.84	0.0002858
3781.49	0.0003106
3791.13	0.0002882
3800.78	0.0003208
3810.43	0.000258
3820.07	0.0002983
3829.72	0.0003141
3839.37	0.000318
3849.01	0.00038657
3858.66	0.0003018
3868.31	0.000377864
3877.95	0.0002932
3887.6	0.00041551
3897.25	0.00037816
3906.89	0.000268
3916.54	0.00041751
3926.19	0.000268
3935.83	0.000368748
3945.48	0.0003054
3955.13	0.0003224
3964.77	0.0003277
3974.42	0.000297
3984.07	0.000328
3993.71	0.000262
