Infrared Spectrum: 2,4,5-TRICHLOROPHENYL ETHYL ETHER
Formula: C8 H7 Cl3 O
CAS: 6851-44-1
State: SOLUTION (10% CCl4 FOR 5000-1300, 10% CS2 FOR 1300-625 CM^-^1)
Class: COBLENTZ
Instrument: Not specified, most likely a prism, grating, or hybrid spectrometer.
Sampling: TRANSMISSION
Path length: 0.01 CM, 0.01 CM
Resolution: 4
Origin: DOW CHEMICAL COMPANY
MICROMETERS	TRANSMITTANCE
1.988	0.859
2.025	0.859
2.06201	0.859
2.09901	0.862
2.13602	0.863
2.17302	0.87
2.21003	0.868
2.24703	0.862
2.28404	0.868
2.32104	0.873
2.35804	0.874
2.39505	0.873
2.43205	0.874
2.46906	0.88
2.50606	0.883
2.54307	0.883
2.58007	0.885
2.61707	0.885
2.65408	0.885
2.69108	0.889
2.72809	0.889
2.76509	0.873
2.8021	0.868
2.8391	0.865
2.87611	0.862
2.91311	0.863
2.95011	0.87
2.98712	0.871
3.02412	0.874
3.06113	0.873
3.09813	0.874
3.13514	0.873
3.17214	0.868
3.20915	0.853
3.24615	0.857
3.28315	0.857
3.32016	0.692
3.35716	0.675
3.39417	0.665
3.43117	0.72
3.46818	0.792
3.50518	0.863
3.54219	0.874
3.57919	0.883
3.61619	0.892
3.6532	0.891
3.6902	0.902
3.72721	0.909
3.76421	0.911
3.80122	0.902
3.83822	0.906
3.87522	0.909
3.91223	0.902
3.94923	0.902
3.98624	0.917
4.02324	0.92
4.06025	0.925
4.09725	0.915
4.13426	0.925
4.17126	0.929
4.20826	0.922
4.24527	0.909
4.28227	0.902
4.31928	0.903
4.35628	0.909
4.39329	0.922
4.43029	0.925
4.4673	0.931
4.5043	0.935
4.5413	0.934
4.57831	0.934
4.61531	0.934
4.65232	0.935
4.68932	0.94
4.72633	0.94
4.76333	0.943
4.80033	0.943
4.83734	0.94
4.87434	0.94
4.91135	0.932
4.94835	0.928
4.98536	0.918
5.02236	0.918
5.05937	0.928
5.09637	0.932
5.13337	0.935
5.17038	0.922
5.20738	0.918
5.24439	0.931
5.28139	0.938
5.3184	0.941
5.3554	0.932
5.39241	0.931
5.42941	0.917
5.46641	0.918
5.50342	0.918
5.54042	0.92
5.57743	0.926
5.61443	0.926
5.65144	0.918
5.68844	0.909
5.72544	0.902
5.76245	0.909
5.79945	0.906
5.83646	0.9
5.87346	0.899
5.91047	0.894
5.94747	0.886
5.98448	0.882
6.02148	0.88
6.05848	0.879
6.09549	0.874
6.13249	0.866
6.1695	0.833
6.2065	0.694
6.24351	0.536
6.28051	0.397
6.31752	0.405
6.35452	0.484
6.39152	0.474
6.42853	0.449
6.46553	0.487
6.50254	0.568
6.53954	0.597
6.57655	0.597
6.61355	0.57
6.65056	0.527
6.68756	0.402
6.72456	0.082
6.76157	0.1
6.79857	0.068
6.83558	0.097
6.87258	0.316
6.90959	0.493
6.94659	0.674
6.98359	0.74
7.0206	0.767
7.0576	0.77
7.09461	0.681
7.13161	0.463
7.16862	0.469
7.20562	0.678
7.24263	0.639
7.27963	0.587
7.31663	0.582
7.35364	0.262
7.39064	0.103
7.42765	0.287
7.46465	0.721
7.50166	0.801
7.53866	0.821
7.57567	0.796
7.61267	0.814
7.64967	0.773
7.68668	0.642
7.72368	0.461
7.76069	0.293
7.79769	0.472
7.8347	0.562
7.8717	0.611
7.9087	0.631
7.94571	0.438
7.98271	0.162
8.01972	0.168
8.05672	0.243
8.09373	0.347
8.13073	0.698
8.16774	0.798
8.20474	0.842
8.24174	0.865
8.27875	0.903
8.31575	0.883
8.35276	0.883
8.38976	0.877
8.42677	0.854
8.46377	0.847
8.50078	0.848
8.53778	0.825
8.57478	0.782
8.61179	0.701
8.64879	0.654
8.6858	0.659
8.7228	0.614
8.75981	0.422
8.79681	0.229
8.83381	0.258
8.87082	0.483
8.90782	0.582
8.94483	0.558
8.98183	0.391
9.01884	0.513
9.05584	0.677
9.09285	0.704
9.12985	0.637
9.16685	0.504
9.20386	0.324
9.24086	0.157
9.27787	0.071
9.31487	0.35
9.35188	0.584
9.38888	0.643
9.42589	0.651
9.46289	0.597
9.49989	0.443
9.5369	0.267
9.5739	0.192
9.61091	0.284
9.64791	0.441
9.68492	0.553
9.72192	0.643
9.75893	0.724
9.79593	0.776
9.83293	0.822
9.86994	0.853
9.90694	0.871
9.94395	0.882
9.98095	0.891
10.018	0.897
10.055	0.892
10.092	0.883
10.129	0.894
10.166	0.906
10.203	0.914
10.24	0.92
10.277	0.922
10.314	0.912
10.351	0.885
10.388	0.804
10.425	0.623
10.462	0.637
10.499	0.798
10.536	0.862
10.573	0.882
10.61	0.888
10.647	0.88
10.684	0.88
10.721	0.9
10.758	0.908
10.795	0.911
10.8321	0.909
10.8691	0.903
10.9061	0.9
10.9431	0.896
10.9801	0.888
11.0171	0.88
11.0541	0.87
11.0911	0.86
11.1281	0.842
11.1651	0.807
11.2021	0.761
11.2391	0.651
11.2761	0.507
11.3131	0.382
11.3501	0.366
11.3871	0.299
11.4241	0.143
11.4611	0.191
11.4981	0.368
11.5351	0.5
11.5721	0.574
11.6091	0.603
11.6461	0.625
11.6832	0.634
11.7202	0.639
11.7572	0.649
11.7942	0.655
11.8312	0.642
11.8682	0.61
11.9052	0.599
11.9422	0.616
11.9792	0.655
12.0162	0.68
12.0532	0.681
12.0902	0.633
12.1272	0.556
12.1642	0.504
12.2012	0.547
12.2382	0.677
12.2752	0.727
12.3122	0.749
12.3492	0.755
12.3862	0.764
12.4232	0.772
12.4602	0.769
12.4973	0.77
12.5343	0.772
12.5713	0.772
12.6083	0.77
12.6453	0.77
12.6823	0.769
12.7193	0.77
12.7563	0.773
12.7933	0.778
12.8303	0.781
12.8673	0.782
12.9043	0.781
12.9413	0.778
12.9783	0.773
13.0153	0.77
13.0523	0.762
13.0893	0.755
13.1263	0.74
13.1633	0.717
13.2003	0.675
13.2373	0.596
13.2743	0.481
13.3113	0.357
13.3484	0.267
13.3854	0.252
13.4224	0.333
13.4594	0.444
13.4964	0.515
13.5334	0.562
13.5704	0.59
13.6074	0.613
13.6444	0.623
13.6814	0.628
13.7184	0.62
13.7554	0.599
13.7924	0.59
13.8294	0.593
13.8664	0.617
13.9034	0.648
13.9404	0.671
13.9774	0.691
14.0144	0.703
14.0514	0.709
14.0884	0.714
14.1254	0.715
14.1624	0.711
14.1995	0.711
14.2365	0.703
14.2735	0.698
14.3105	0.691
14.3475	0.681
14.3845	0.674
14.4215	0.66
14.4585	0.648
14.4955	0.622
14.5325	0.577
14.5695	0.506
14.6065	0.396
14.6435	0.295
14.6805	0.252
14.7175	0.296
14.7545	0.391
14.7915	0.467
14.8285	0.513
14.8655	0.536
14.9025	0.544
14.9395	0.551
14.9765	0.561
15.0136	0.57
15.0506	0.567
15.0876	0.559
15.1246	0.553
15.1616	0.542
15.1986	0.535
15.2356	0.529
15.2726	0.522
15.3096	0.513
15.3466	0.51
15.3836	0.507
15.4206	0.501
15.4576	0.496
15.4946	0.49
15.5316	0.483
15.5686	0.477
15.6056	0.469
15.6426	0.464
15.6796	0.458
15.7166	0.454
15.7536	0.448
15.7906	0.44
15.8276	0.432
15.8647	0.432
15.9017	0.437
15.9387	0.452
15.9757	0.47
