Infrared Spectrum: N-METHYL-o-METHOXYBENZYLAMINE
Formula: C9 H13 N O
CAS: 6851-80-5
Class: COBLENTZ
Instrument: PERKIN-ELMER
Sampling: TRANSMISSION
Path length: CAPILLARY
Resolution: 4
Origin: ABBOTT LABORATORIES - WASHBURN
MICROMETERS	TRANSMITTANCE
2.046	0.902
2.0789	0.902
2.11179	0.899
2.14469	0.895
2.17758	0.8999
2.21048	0.897
2.24337	0.895
2.27627	0.892
2.30916	0.8849
2.34206	0.876
2.37495	0.884
2.40785	0.88
2.44074	0.882
2.47364	0.884
2.50653	0.8849
2.53943	0.8868
2.57232	0.89
2.60522	0.89
2.63811	0.89
2.67101	0.89
2.7039	0.894
2.7368	0.889
2.76969	0.8711
2.80259	0.8592
2.83548	0.854
2.86838	0.8342
2.90127	0.8255
2.93417	0.8029
2.96706	0.786
2.99996	0.745
3.03285	0.719
3.06575	0.717
3.09864	0.7367
3.13154	0.761
3.16443	0.78
3.19733	0.7901
3.23022	0.7858
3.26312	0.7366
3.29601	0.69
3.32891	0.6621
3.3618	0.567
3.3947	0.4228
3.42759	0.3271
3.46049	0.3945
3.49338	0.4363
3.52628	0.4083
3.55917	0.4856
3.59207	0.545
3.62496	0.5348
3.65786	0.7314
3.69075	0.8078
3.72365	0.814
3.75654	0.8236
3.78944	0.8378
3.82233	0.847
3.85523	0.847
3.88812	0.844
3.92102	0.849
3.95391	0.844
3.98681	0.847
4.0197	0.862
4.0526	0.8541
4.08549	0.8588
4.11839	0.8638
4.15128	0.864
4.18418	0.866
4.21707	0.866
4.24997	0.867
4.28286	0.866
4.31576	0.867
4.34865	0.867
4.38155	0.867
4.41444	0.864
4.44734	0.864
4.48023	0.864
4.51313	0.866
4.54602	0.862
4.57892	0.866
4.61181	0.862
4.64471	0.867
4.6776	0.8623
4.7105	0.862
4.74339	0.867
4.77629	0.862
4.80918	0.852
4.84208	0.842
4.87497	0.834
4.90787	0.8469
4.94076	0.851
4.97366	0.8441
5.00655	0.849
5.03945	0.8537
5.07234	0.854
5.10524	0.852
5.13813	0.8452
5.17103	0.8385
5.20392	0.841
5.23682	0.838
5.26971	0.834
5.30261	0.841
5.3355	0.8469
5.3684	0.851
5.40129	0.854
5.43419	0.857
5.46708	0.8503
5.49998	0.847
5.53287	0.846
5.56577	0.846
5.59866	0.841
5.63156	0.8461
5.66445	0.847
5.69735	0.847
5.73024	0.8462
5.76314	0.8428
5.79603	0.834
5.82893	0.8281
5.86182	0.8187
5.89472	0.8064
5.92761	0.798
5.96051	0.796
5.9934	0.791
6.0263	0.778
6.05919	0.79
6.09209	0.7822
6.12498	0.778
6.15788	0.7669
6.19077	0.633
6.22367	0.373
6.25656	0.4898
6.28946	0.4773
6.32235	0.6826
6.35525	0.7595
6.38814	0.7807
6.42104	0.7843
6.45393	0.79
6.48683	0.7846
6.51972	0.7743
6.55262	0.7585
6.58551	0.7188
6.61841	0.6426
6.6513	0.444
6.6842	0.2296
6.71709	0.2181
6.74999	0.3992
6.78288	0.3559
6.81578	0.2415
6.84867	0.2186
6.88157	0.2797
6.91446	0.3137
6.94736	0.2939
6.98025	0.4317
7.01315	0.6282
7.04604	0.6635
7.07894	0.7138
7.11183	0.7542
7.14473	0.757
7.17762	0.755
7.21052	0.755
7.24341	0.7525
7.27631	0.7401
7.3092	0.6991
7.3421	0.6077
7.37499	0.5988
7.40789	0.662
7.44078	0.6806
7.47368	0.685
7.50658	0.6796
7.53947	0.6517
7.57237	0.6424
7.60526	0.659
7.63816	0.642
7.67105	0.6185
7.70395	0.5716
7.73684	0.4792
7.76974	0.4484
7.80263	0.5538
7.83553	0.5874
7.86842	0.5686
7.90132	0.5373
7.93421	0.4894
7.96711	0.3586
8	0.1911
8.0329	0.1238
8.06579	0.1057
8.09869	0.1512
8.13158	0.3588
8.16448	0.524
8.19737	0.6236
8.23027	0.6723
8.26316	0.682
8.29606	0.6769
8.32895	0.658
8.36185	0.6398
8.39474	0.611
8.42764	0.6069
8.46053	0.5476
8.49343	0.4702
8.52632	0.5094
8.55922	0.583
8.59211	0.5572
8.62501	0.53
8.6579	0.5588
8.6908	0.5445
8.72369	0.5541
8.75659	0.561
8.78948	0.53
8.82238	0.4828
8.85527	0.4915
8.88817	0.5376
8.92106	0.561
8.95396	0.5376
8.98685	0.4751
9.01975	0.4395
9.05264	0.4033
9.08554	0.3446
9.11843	0.3035
9.15133	0.3205
9.18422	0.4124
9.21712	0.5308
9.25001	0.6189
9.28291	0.6651
9.3158	0.694
9.3487	0.7078
9.38159	0.715
9.41449	0.7039
9.44738	0.6461
9.48028	0.5083
9.51317	0.3327
9.54607	0.414
9.57896	0.5416
9.61186	0.5552
9.64475	0.4441
9.67765	0.31
9.71054	0.254
9.74344	0.328
9.77633	0.4606
9.80923	0.58
9.84212	0.6481
9.87502	0.6855
9.90791	0.7151
9.94081	0.7328
9.9737	0.7464
10.0066	0.7565
10.0395	0.753
10.0724	0.747
10.1053	0.729
10.1382	0.7332
10.1711	0.742
10.204	0.7419
10.2369	0.733
10.2698	0.7271
10.3027	0.7085
10.3355	0.6943
10.3684	0.6946
10.4013	0.7095
10.4342	0.7213
10.4671	0.7403
10.5	0.7555
10.5329	0.76
10.5658	0.7599
10.5987	0.752
10.6316	0.733
10.6645	0.7144
10.6974	0.702
10.7303	0.7
10.7632	0.704
10.7961	0.709
10.829	0.7259
10.8619	0.7403
10.8948	0.758
10.9277	0.7599
10.9606	0.7734
10.9934	0.7645
11.0263	0.7673
11.0592	0.77
11.0921	0.775
11.125	0.7765
11.1579	0.775
11.1908	0.775
11.2237	0.7711
11.2566	0.77
11.2895	0.763
11.3224	0.7586
11.3553	0.7538
11.3882	0.751
11.4211	0.7442
11.454	0.732
11.4869	0.7228
11.5198	0.7048
11.5527	0.6917
11.5856	0.6579
11.6185	0.6311
11.6513	0.5905
11.6842	0.5819
11.7171	0.5855
11.75	0.6059
11.7829	0.618
11.8158	0.6126
11.8487	0.5973
11.8816	0.573
11.9145	0.5454
11.9474	0.5284
11.9803	0.5197
12.0132	0.5438
12.0461	0.5844
12.079	0.5987
12.1119	0.622
12.1448	0.628
12.1777	0.624
12.2106	0.613
12.2435	0.6046
12.2764	0.5921
12.3092	0.585
12.3421	0.5818
12.375	0.58
12.4079	0.58
12.4408	0.5757
12.4737	0.5608
12.5066	0.5547
12.5395	0.5478
12.5724	0.5381
12.6053	0.5294
12.6382	0.5165
12.6711	0.5079
12.704	0.4909
12.7369	0.4813
12.7698	0.4705
12.8027	0.4606
12.8356	0.4508
12.8685	0.444
12.9014	0.4345
12.9343	0.434
12.9672	0.434
13	0.4241
13.0329	0.386
13.0658	0.3439
13.0987	0.3008
13.1316	0.2347
13.1645	0.1845
13.1974	0.1456
13.2303	0.1303
13.2632	0.1235
13.2961	0.129
13.329	0.1522
13.3619	0.1874
13.3948	0.2446
13.4277	0.3046
13.4606	0.3569
13.4935	0.3836
13.5264	0.4104
13.5593	0.4272
13.5922	0.444
13.6251	0.4551
13.6579	0.459
13.6908	0.4548
13.7237	0.4366
13.7566	0.4089
13.7895	0.3905
13.8224	0.3828
13.8553	0.3928
13.8882	0.4039
13.9211	0.424
13.954	0.438
13.9869	0.441
14.0198	0.4517
14.0527	0.4699
14.0856	0.4926
14.1185	0.5123
14.1514	0.5333
14.1843	0.5469
14.2172	0.5647
14.2501	0.5825
14.283	0.5893
14.3158	0.5967
14.3487	0.602
14.3816	0.608
14.4145	0.6146
14.4474	0.6232
14.4803	0.6281
14.5132	0.6311
14.5461	0.636
14.579	0.6369
14.6119	0.6479
14.6448	0.641
14.6777	0.644
14.7106	0.644
14.7435	0.642
14.7764	0.6437
14.8093	0.6411
14.8422	0.642
14.8751	0.6392
14.908	0.639
14.9409	0.641
14.9737	0.6402
15.0066	0.6414
