Infrared Spectrum: Methyl 2-isothiocyanato-3-phenylpropionate
Formula: C 11 H 11 N O 2 S
CAS: 68521-58-4
State: gas
Origin: EPA-IR VAPOR PHASE LIBRARY
1/CM	ABSORBANCE
549.8	0.013645
559.445	0.013105
569.09	0.010865
578.734	0.009275
588.379	0.008575
598.024	0.007485
607.669	0.006365
617.313	0.006055
626.958	0.006255
636.603	0.007165
646.248	0.007525
655.893	0.007815
665.537	0.010115
675.182	0.014875
684.827	0.022835
694.472	0.044235
704.116	0.042115
713.761	0.025905
723.406	0.019415
733.051	0.019195
742.695	0.021795
752.34	0.014355
761.985	0.008805
771.63	0.006315
781.275	0.005515
790.919	0.004735
800.564	0.004255
810.209	0.004435
819.854	0.006075
829.498	0.007255
839.143	0.006695
848.788	0.005255
858.433	0.004795
868.078	0.004385
877.722	0.004295
887.367	0.005355
897.012	0.005625
906.657	0.005985
916.301	0.007535
925.946	0.009225
935.591	0.009635
945.236	0.008355
954.88	0.007255
964.525	0.008355
974.17	0.011355
983.815	0.014255
993.46	0.014225
1003.1	0.016965
1012.75	0.022665
1022.39	0.032445
1032.04	0.035255
1041.68	0.020335
1051.33	0.012295
1060.97	0.010745
1070.62	0.012445
1080.26	0.012345
1089.91	0.009105
1099.55	0.009255
1109.2	0.011145
1118.84	0.013145
1128.49	0.015365
1138.13	0.019695
1147.78	0.029745
1157.42	0.047985
1167.07	0.072655
1176.71	0.077895
1186.36	0.067635
1196	0.071345
1205.64	0.073845
1215.29	0.063035
1224.93	0.053315
1234.58	0.051345
1244.22	0.054315
1253.87	0.056415
1263.51	0.059725
1273.16	0.065155
1282.8	0.056035
1292.45	0.040135
1302.09	0.030805
1311.74	0.029225
1321.38	0.033295
1331.03	0.036165
1340.67	0.031635
1350.32	0.023495
1359.96	0.015445
1369.61	0.010185
1379.25	0.007425
1388.9	0.005705
1398.54	0.004995
1408.18	0.005365
1417.83	0.006475
1427.47	0.010675
1437.12	0.028265
1446.76	0.028615
1456.41	0.017105
1466.05	0.010315
1475.7	0.007735
1485.34	0.008695
1494.99	0.016655
1504.63	0.011825
1514.28	0.004665
1523.92	0.003815
1533.57	0.003655
1543.21	0.003475
1552.86	0.003295
1562.5	0.003525
1572.15	0.003875
1581.79	0.004735
1591.44	0.005815
1601.08	0.007635
1610.73	0.006285
1620.37	0.003285
1630.01	0.002605
1639.66	0.002555
1649.3	0.002625
1658.95	0.002805
1668.59	0.002825
1678.24	0.002985
1687.88	0.003525
1697.53	0.004495
1707.17	0.006295
1716.82	0.009425
1726.46	0.014155
1736.11	0.023395
1745.75	0.045035
1755.4	0.093635
1765.04	0.108455
1774.69	0.085155
1784.33	0.053935
1793.98	0.027665
1803.62	0.016235
1813.27	0.010395
1822.91	0.007275
1832.55	0.005505
1842.2	0.004765
1851.84	0.004695
1861.49	0.005045
1871.13	0.005625
1880.78	0.006335
1890.42	0.007095
1900.07	0.008355
1909.71	0.010205
1919.36	0.013155
1929	0.017535
1938.65	0.024075
1948.29	0.031835
1957.94	0.042285
1967.58	0.055135
1977.23	0.073905
1986.87	0.100435
1996.52	0.135155
2006.16	0.178245
2015.81	0.227435
2025.45	0.275855
2035.1	0.303095
2044.74	0.288535
2054.38	0.250455
2064.03	0.211085
2073.67	0.176455
2083.32	0.147625
2092.96	0.124475
2102.61	0.105435
2112.25	0.090995
2121.9	0.079315
2131.54	0.067925
2141.19	0.055945
2150.83	0.044415
2160.48	0.034655
2170.12	0.027175
2179.77	0.021995
2189.41	0.018835
2199.06	0.016765
2208.7	0.015555
2218.35	0.014795
2227.99	0.014035
2237.64	0.012835
2247.28	0.011435
2256.92	0.009615
2266.57	0.007905
2276.21	0.006305
2285.86	0.005175
2295.5	0.004415
2305.15	0.004045
2314.79	0.003915
2324.44	0.003505
2334.08	0.003145
2343.73	0.002865
2353.37	0.002405
2363.02	0.002155
2372.66	0.002005
2382.31	0.001735
2391.95	0.001705
2401.6	0.001615
2411.24	0.001515
2420.89	0.001655
2430.53	0.001545
2440.18	0.001525
2449.82	0.001492
2459.47	0.0014992
2469.11	0.001535
2478.75	0.001575
2488.4	0.001555
2498.04	0.001615
2507.69	0.001785
2517.33	0.001855
2526.98	0.002145
2536.62	0.002425
2546.27	0.002745
2555.91	0.002865
2565.56	0.002955
2575.2	0.003005
2584.85	0.003025
2594.49	0.003005
2604.14	0.002795
2613.78	0.002605
2623.43	0.002165
2633.07	0.002095
2642.72	0.001925
2652.36	0.001845
2662.01	0.001865
2671.65	0.001915
2681.29	0.001975
2690.94	0.002045
2700.58	0.002095
2710.23	0.002385
2719.87	0.002575
2729.52	0.003015
2739.16	0.003265
2748.81	0.003405
2758.45	0.003235
2768.1	0.003115
2777.74	0.002795
2787.39	0.002565
2797.03	0.002475
2806.68	0.002125
2816.32	0.002125
2825.97	0.002255
2835.61	0.002885
2845.26	0.004775
2854.9	0.006945
2864.55	0.005225
2874.19	0.004365
2883.84	0.004215
2893.48	0.005465
2903.12	0.007065
2912.77	0.008595
2922.41	0.010525
2932.06	0.014295
2941.7	0.017975
2951.35	0.021375
2960.99	0.037445
2970.64	0.027735
2980.28	0.011505
2989.93	0.008135
2999.57	0.009065
3009.22	0.011025
3018.86	0.012515
3028.51	0.020905
3038.15	0.025845
3047.8	0.015895
3057.44	0.012405
3067.09	0.019975
3076.73	0.021965
3086.38	0.013605
3096.02	0.010695
3105.67	0.007105
3115.31	0.005035
3124.95	0.002615
3134.6	0.001665
3144.24	0.0013302
3153.89	0.0011663
3163.53	0.000942
3173.18	0.000908
3182.82	0.00059959
3192.47	0.0004647
3202.11	0.00058096
3211.76	0.0004736
3221.4	0.0004388
3231.05	0.000367
3240.69	0.00036
3250.34	0.000383
3259.98	0.000254
3269.63	0.000329
3279.27	0.000314
3288.92	0.00016
3298.56	0.000223
3308.21	0
3317.85	0.000343
3327.49	0.000266
3337.14	0.000346
3346.78	0.000333
3356.43	0.000338
3366.07	0.000242
3375.72	0.000221
3385.36	0.000138
3395.01	0.000318
3404.65	0.000253
3414.3	0.000197
3423.94	0.000247
3433.59	0.0004212
3443.23	0.000354
3452.88	0.00022
3462.52	0.000291
3472.17	0.00058626
3481.81	0.0009227
3491.46	0.0009061
3501.1	0.0014938
3510.75	0.0013965
3520.39	0.0012256
3530.04	0.0010729
3539.68	0.0009494
3549.32	0.0008189
3558.97	0.00055405
3568.61	0.0004579
3578.26	0.0004374
3587.9	0.000353
3597.55	0.0004848
3607.19	0.000282
3616.84	0.000303
3626.48	0.000401
3636.13	0.000449
3645.77	0.0004502
3655.42	0.0004583
3665.06	0.000431
3674.71	0.0004481
3684.35	0.00054692
3694	0.0004095
3703.64	0.000213
3713.29	0.00054669
3722.93	0.0004179
3732.58	0.0004382
3742.22	0.0004062
3751.86	0.0004714
3761.51	0.00056202
3771.15	0.000374
3780.8	0.000401
3790.44	0.00054695
3800.09	0.00052617
3809.73	0.0004828
3819.38	0.000726
3829.02	0.000358
3838.67	0.00053961
3848.31	0.00054126
3857.96	0.0007115
3867.6	0.0007711
3877.25	0.000898
3886.89	0.0007764
3896.54	0.000797
3906.18	0.0008895
3915.83	0.0011163
3925.47	0.0009773
3935.12	0.0010148
3944.76	0.0013439
3954.41	0.0012595
3964.05	0.0013466
3973.69	0.001545
3983.34	0.001645
3992.98	0.001635
