Infrared Spectrum: DITHIODIGLYCOLIC ACID DIHYDRAZIDE
Formula: C4 H10 N4 S2 O2
CAS: 6854-84-8
State: SOLID (MINERAL OIL MULL)
Melting point: 106-107 C
Class: COBLENTZ
Instrument: Not specified, most likely a prism, grating, or hybrid spectrometer.
Sampling: TRANSMISSION
Resolution: 4
Origin: ARTHUR D. LITTLE, INC.
MICROMETERS	TRANSMITTANCE
2.51	0.78
2.54545	0.787
2.5809	0.787
2.61635	0.784
2.65179	0.779
2.68724	0.772
2.72269	0.769
2.75814	0.765
2.79359	0.758
2.82904	0.744
2.86449	0.703
2.89993	0.599
2.93538	0.451
2.97083	0.282
3.00628	0.129
3.04173	0.128
3.07718	0.218
3.11262	0.245
3.14807	0.372
3.18352	0.5
3.21897	0.417
3.25442	0.397
3.28987	0.421
3.32532	0.259
3.36076	0.141
3.39621	0.141
3.43166	0.276
3.46711	0.348
3.50256	0.721
3.53801	0.753
3.57346	0.76
3.6089	0.765
3.64435	0.765
3.6798	0.756
3.71525	0.76
3.7507	0.771
3.78615	0.78
3.82159	0.787
3.85704	0.794
3.89249	0.801
3.92794	0.807
3.96339	0.813
3.99884	0.813
4.03429	0.809
4.06973	0.814
4.10518	0.82
4.14063	0.838
4.17608	0.839
4.21153	0.826
4.24698	0.797
4.28243	0.803
4.31787	0.807
4.35332	0.812
4.38877	0.822
4.42422	0.825
4.45967	0.827
4.49512	0.827
4.53057	0.827
4.56601	0.827
4.60146	0.83
4.63691	0.829
4.67236	0.823
4.70781	0.822
4.74326	0.825
4.7787	0.829
4.81415	0.83
4.8496	0.831
4.88505	0.831
4.9205	0.832
4.95595	0.831
4.9914	0.832
5.02684	0.835
5.06229	0.836
5.09774	0.837
5.13319	0.841
5.16864	0.844
5.20409	0.845
5.23954	0.845
5.27498	0.845
5.31043	0.845
5.34588	0.845
5.38133	0.844
5.41678	0.842
5.45223	0.838
5.48767	0.836
5.52312	0.836
5.55857	0.835
5.59402	0.829
5.62947	0.817
5.66492	0.795
5.70037	0.774
5.73581	0.748
5.77126	0.739
5.80671	0.711
5.84216	0.65
5.87761	0.587
5.91306	0.459
5.94851	0.302
5.98395	0.266
6.0194	0.119
6.05485	0.053
6.0903	0.042
6.12575	0.043
6.1612	0.075
6.19665	0.179
6.23209	0.282
6.26754	0.372
6.30299	0.459
6.33844	0.499
6.37389	0.51
6.40934	0.44
6.44478	0.338
6.48023	0.238
6.51568	0.279
6.55113	0.462
6.58658	0.572
6.62203	0.593
6.65748	0.602
6.69292	0.6
6.72837	0.583
6.76382	0.487
6.79927	0.434
6.83472	0.429
6.87017	0.457
6.90562	0.53
6.94106	0.575
6.97651	0.575
7.01196	0.487
7.04741	0.47
7.08286	0.542
7.11831	0.537
7.15375	0.392
7.1892	0.444
7.22465	0.457
7.2601	0.46
7.29555	0.48
7.331	0.505
7.36645	0.492
7.40189	0.425
7.43734	0.352
7.47279	0.347
7.50824	0.392
7.54369	0.424
7.57914	0.5
7.61459	0.578
7.65003	0.616
7.68548	0.633
7.72093	0.66
7.75638	0.665
7.79183	0.666
7.82728	0.667
7.86273	0.667
7.89817	0.667
7.93362	0.666
7.96907	0.663
8.00452	0.634
8.03997	0.612
8.07542	0.578
8.11086	0.51
8.14631	0.521
8.18176	0.582
8.21721	0.655
8.25266	0.677
8.28811	0.683
8.32356	0.659
8.359	0.544
8.39445	0.531
8.4299	0.563
8.46535	0.552
8.5008	0.463
8.53625	0.442
8.5717	0.621
8.60714	0.683
8.64259	0.701
8.67804	0.705
8.71349	0.704
8.74894	0.696
8.78439	0.676
8.81983	0.679
8.85528	0.696
8.89073	0.704
8.92618	0.708
8.96163	0.72
8.99708	0.731
9.03253	0.737
9.06797	0.739
9.10342	0.74
9.13887	0.743
9.17432	0.747
9.20977	0.753
9.24522	0.753
9.28067	0.754
9.31611	0.755
9.35156	0.755
9.38701	0.755
9.42246	0.756
9.45791	0.755
9.49336	0.743
9.52881	0.735
9.56425	0.714
9.5997	0.71
9.63515	0.658
9.6706	0.574
9.70605	0.469
9.7415	0.342
9.77694	0.281
9.81239	0.307
9.84784	0.347
9.88329	0.31
9.91874	0.279
9.95419	0.485
9.98964	0.572
10.0251	0.652
10.0605	0.685
10.096	0.702
10.1314	0.706
10.1669	0.71
10.2023	0.712
10.2378	0.71
10.2732	0.688
10.3087	0.635
10.3441	0.577
10.3796	0.556
10.415	0.594
10.4505	0.652
10.4859	0.69
10.5214	0.705
10.5568	0.71
10.5923	0.704
10.6277	0.669
10.6632	0.653
10.6986	0.68
10.7341	0.71
10.7695	0.74
10.805	0.75
10.8404	0.756
10.8758	0.761
10.9113	0.766
10.9467	0.766
10.9822	0.767
11.0176	0.767
11.0531	0.767
11.0885	0.767
11.124	0.767
11.1594	0.766
11.1949	0.766
11.2303	0.763
11.2658	0.76
11.3012	0.758
11.3367	0.753
11.3721	0.75
11.4076	0.749
11.443	0.748
11.4785	0.747
11.5139	0.744
11.5494	0.752
11.5848	0.76
11.6203	0.765
11.6557	0.769
11.6912	0.771
11.7266	0.772
11.7621	0.773
11.7975	0.773
11.833	0.773
11.8684	0.772
11.9039	0.771
11.9393	0.769
11.9748	0.772
12.0102	0.776
12.0456	0.776
12.0811	0.774
12.1165	0.772
12.152	0.771
12.1874	0.771
12.2229	0.768
12.2583	0.767
12.2938	0.765
12.3292	0.763
12.3647	0.762
12.4001	0.754
12.4356	0.748
12.471	0.747
12.5065	0.743
12.5419	0.737
12.5774	0.73
12.6128	0.709
12.6483	0.697
12.6837	0.695
12.7192	0.701
12.7546	0.709
12.7901	0.711
12.8255	0.711
12.861	0.708
12.8964	0.697
12.9319	0.686
12.9673	0.685
13.0028	0.686
13.0382	0.688
13.0737	0.69
13.1091	0.691
13.1446	0.695
13.18	0.696
13.2155	0.695
13.2509	0.693
13.2863	0.69
13.3218	0.684
13.3572	0.676
13.3927	0.665
13.4281	0.659
13.4636	0.648
13.499	0.638
13.5345	0.619
13.5699	0.608
13.6054	0.591
13.6408	0.576
13.6763	0.553
13.7117	0.534
13.7472	0.513
13.7826	0.478
13.8181	0.43
13.8535	0.403
13.889	0.397
13.9244	0.408
13.9599	0.449
13.9953	0.463
14.0308	0.501
14.0662	0.51
14.1017	0.511
14.1371	0.511
14.1726	0.506
14.208	0.483
14.2435	0.467
14.2789	0.437
14.3144	0.416
14.3498	0.383
14.3853	0.354
14.4207	0.339
14.4561	0.317
14.4916	0.298
14.527	0.282
14.5625	0.278
14.5979	0.277
14.6334	0.278
14.6688	0.281
14.7043	0.3
14.7397	0.3
14.7752	0.323
14.8106	0.345
14.8461	0.364
14.8815	0.372
14.917	0.392
14.9524	0.403
14.9879	0.418
