Infrared Spectrum: 1-(2-Naphthyl)ethyl benzoate
Formula: C 19 H 16 O 2
CAS: 6860-93-1
State: gas
Origin: EPA-IR VAPOR PHASE LIBRARY
1/CM	ABSORBANCE
549.8	0.002738
559.445	0.002368
569.09	0.0011535
578.734	0.001938
588.379	0.0013392
598.024	0.001638
607.669	0.0013378
617.313	0.003798
626.958	0.003038
636.603	0.002788
646.248	0.004728
655.893	0.009208
665.537	0.012908
675.182	0.012518
684.827	0.015328
694.472	0.023908
704.116	0.052628
713.761	0.064308
723.406	0.030388
733.051	0.027678
742.695	0.042898
752.34	0.016278
761.985	0.007588
771.63	0.005648
781.275	0.005468
790.919	0.007298
800.564	0.013698
810.209	0.032078
819.854	0.018648
829.498	0.012658
839.143	0.015898
848.788	0.030808
858.433	0.020888
868.078	0.010308
877.722	0.008648
887.367	0.014008
897.012	0.013398
906.657	0.006298
916.301	0.004558
925.946	0.004088
935.591	0.006058
945.236	0.007778
954.88	0.008748
964.525	0.005888
974.17	0.006078
983.815	0.008358
993.46	0.012728
1003.1	0.016348
1012.75	0.021538
1022.39	0.048528
1032.04	0.032888
1041.68	0.021638
1051.33	0.046718
1060.97	0.095168
1070.62	0.078848
1080.26	0.055008
1089.91	0.111408
1099.55	0.136618
1109.2	0.143338
1118.84	0.066458
1128.49	0.039448
1138.13	0.025278
1147.78	0.018908
1157.42	0.017108
1167.07	0.027218
1176.71	0.066888
1186.36	0.025758
1196	0.013228
1205.64	0.015228
1215.29	0.020138
1224.93	0.035008
1234.58	0.070178
1244.22	0.099628
1253.87	0.179518
1263.51	0.316878
1273.16	0.204398
1282.8	0.072788
1292.45	0.039798
1302.09	0.034108
1311.74	0.047418
1321.38	0.034408
1331.03	0.032458
1340.67	0.026348
1350.32	0.015148
1359.96	0.012728
1369.61	0.014128
1379.25	0.019488
1388.9	0.014438
1398.54	0.008438
1408.18	0.005718
1417.83	0.005328
1427.47	0.005848
1437.12	0.008808
1446.76	0.019008
1456.41	0.019368
1466.05	0.009448
1475.7	0.006408
1485.34	0.006808
1494.99	0.008258
1504.63	0.012298
1514.28	0.009048
1523.92	0.005078
1533.57	0.004818
1543.21	0.004988
1552.86	0.005428
1562.5	0.005198
1572.15	0.005598
1581.79	0.008418
1591.44	0.009858
1601.08	0.013768
1610.73	0.008458
1620.37	0.006098
1630.01	0.006358
1639.66	0.006198
1649.3	0.004748
1658.95	0.004348
1668.59	0.005018
1678.24	0.007038
1687.88	0.010088
1697.53	0.012068
1707.17	0.015128
1716.82	0.029698
1726.46	0.077708
1736.11	0.168068
1745.75	0.110888
1755.4	0.041248
1765.04	0.020278
1774.69	0.013238
1784.33	0.010398
1793.98	0.008178
1803.62	0.007068
1813.27	0.006748
1822.91	0.004998
1832.55	0.003688
1842.2	0.003098
1851.84	0.002918
1861.49	0.002398
1871.13	0.002228
1880.78	0.002788
1890.42	0.003928
1900.07	0.005388
1909.71	0.005748
1919.36	0.005118
1929	0.004008
1938.65	0.004948
1948.29	0.004428
1957.94	0.004128
1967.58	0.003628
1977.23	0.002688
1986.87	0.001838
1996.52	0.001468
2006.16	0.001628
2015.81	0.0013691
2025.45	0.0012709
2035.1	0.0012776
2044.74	0.0012588
2054.38	0.0012835
2064.03	0.0013205
2073.67	0.001347
2083.32	0.0013499
2092.96	0.001618
2102.61	0.001618
2112.25	0.001758
2121.9	0.001698
2131.54	0.001688
2141.19	0.0011748
2150.83	0.001538
2160.48	0.001295
2170.12	0.0013268
2179.77	0.0013108
2189.41	0.0013172
2199.06	0.0013219
2208.7	0.0012444
2218.35	0.001468
2227.99	0.0010941
2237.64	0.0013179
2247.28	0.001165
2256.92	0.0010408
2266.57	0.0008969
2276.21	0.0012668
2285.86	0.001538
2295.5	0.0012625
2305.15	0.001438
2314.79	0.001748
2324.44	0.001758
2334.08	0.001868
2343.73	0.001748
2353.37	0.001638
2363.02	0.001498
2372.66	0.001868
2382.31	0.001578
2391.95	0.0013265
2401.6	0.0013435
2411.24	0.0012734
2420.89	0.0009982
2430.53	0.0012863
2440.18	0.0013892
2449.82	0.0010863
2459.47	0.0010879
2469.11	0.0011808
2478.75	0.0012885
2488.4	0.0011191
2498.04	0.001121
2507.69	0.0011645
2517.33	0.00103
2526.98	0.0011258
2536.62	0.0009559
2546.27	0.0011695
2555.91	0.001102
2565.56	0.0011303
2575.2	0.0012554
2584.85	0.0011999
2594.49	0.0012871
2604.14	0.001428
2613.78	0.0012511
2623.43	0.0011037
2633.07	0.0011648
2642.72	0.0008277
2652.36	0.0011412
2662.01	0.0010831
2671.65	0.0010831
2681.29	0.0012194
2690.94	0.0011499
2700.58	0.0013782
2710.23	0.0011681
2719.87	0.0011056
2729.52	0.0013589
2739.16	0.0010278
2748.81	0.0013451
2758.45	0.0013106
2768.1	0.0010655
2777.74	0.0009966
2787.39	0.0009012
2797.03	0.0008016
2806.68	0.0011998
2816.32	0.0012135
2825.97	0.001798
2835.61	0.001818
2845.26	0.001838
2854.9	0.002258
2864.55	0.002688
2874.19	0.003708
2883.84	0.004518
2893.48	0.004218
2903.12	0.003988
2912.77	0.004238
2922.41	0.004898
2932.06	0.008548
2941.7	0.014458
2951.35	0.011028
2960.99	0.008698
2970.64	0.010198
2980.28	0.021218
2989.93	0.040628
2999.57	0.017078
3009.22	0.010398
3018.86	0.012848
3028.51	0.016158
3038.15	0.018318
3047.8	0.026218
3057.44	0.044498
3067.09	0.052728
3076.73	0.040298
3086.38	0.021808
3096.02	0.015468
3105.67	0.008108
3115.31	0.004948
3124.95	0.002608
3134.6	0.002128
3144.24	0.001838
3153.89	0.002048
3163.53	0.002018
3173.18	0.002158
3182.82	0.001798
3192.47	0.001728
3202.11	0.001598
3211.76	0.0013953
3221.4	0.0010693
3231.05	0.0011071
3240.69	0.0013527
3250.34	0.0008626
3259.98	0.0010456
3269.63	0.0008791
3279.27	0.0006917
3288.92	0
3298.56	0.0007945
3308.21	0.0008589
3317.85	0.000825
3327.49	0.0009172
3337.14	0.000737
3346.78	0.0009213
3356.43	0.0008142
3366.07	0.0011186
3375.72	0.00084
3385.36	0.0009475
3395.01	0.0005232
3404.65	0.0005805
3414.3	0.000744
3423.94	0.0008215
3433.59	0.0009187
3443.23	0.0014136
3452.88	0.001828
3462.52	0.001558
3472.17	0.0012125
3481.81	0.0009924
3491.46	0.0010694
3501.1	0.000315
3510.75	0.0006682
3520.39	0.0010198
3530.04	0.0007206
3539.68	0.0008705
3549.32	0.00047893
3558.97	0.000422394
3568.61	0.0012184
3578.26	0.001188
3587.9	0.0008108
3597.55	0.000666
3607.19	0.0008174
3616.84	0.00045855
3626.48	0.0006483
3636.13	0.0008393
3645.77	0.0005208
3655.42	0.0008497
3665.06	0.00044515
3674.71	0.0009898
3684.35	0.00017
3694	0.0003932
3703.64	0.0010436
3713.29	0.000943
3722.93	0.0006509
3732.58	0.00048029
3742.22	0.0003988
3751.86	0.000573
3761.51	0.0005543
3771.15	0.000318
3780.8	0.00048672
3790.44	0.0007552
3800.09	0.000665
3809.73	0.000739
3819.38	0.0005483
3829.02	0.0005224
3838.67	0.0003611
3848.31	0.0005253
3857.96	0.0009517
3867.6	0.00044788
3877.25	0.0006566
3886.89	0.0005841
3896.54	0.0009163
3906.18	0.000217
3915.83	0.000775
3925.47	0.0008723
3935.12	0.0008857
3944.76	0.001372
3954.41	0.0010206
3964.05	0.000775
3973.69	0.0010982
3983.34	0.0006553
3992.98	0.0009896
