Infrared Spectrum: 2-Fluoro-5-nitrophenyl isocyanate
Formula: C 7 H 3 F N 2 O 3
CAS: 68622-14-0
State: gas
Origin: EPA-IR VAPOR PHASE LIBRARY
1/CM	ABSORBANCE
549.8	0.00748
559.445	0.01143
569.09	0.01653
578.735	0.02115
588.38	0.02089
598.025	0.01759
607.67	0.01582
617.315	0.01646
626.96	0.02746
636.605	0.05243
646.251	0.03942
655.896	0.02589
665.541	0.03144
675.186	0.0525
684.831	0.04214
694.476	0.02288
704.121	0.01958
713.766	0.01593
723.411	0.02039
733.056	0.04775
742.701	0.09619
752.346	0.088
761.991	0.05281
771.636	0.02366
781.281	0.015
790.926	0.01163
800.571	0.01096
810.216	0.03615
819.861	0.04913
829.507	0.04568
839.152	0.01758
848.797	0.00459
858.442	0.0035
868.087	0.00408
877.732	0.00967
887.377	0.029
897.022	0.0544
906.667	0.06208
916.312	0.04987
925.957	0.01904
935.602	0.00586
945.247	0.00337
954.892	0.00202495
964.537	0.001493
974.182	0.001374
983.827	0.0018858
993.472	0.00195626
1003.12	0.0018933
1012.76	0.00179
1022.41	0.001821
1032.05	0.0022195
1041.7	0.0033
1051.34	0.00972
1060.99	0.03483
1070.63	0.04388
1080.28	0.01921
1089.92	0.00726
1099.57	0.00962
1109.21	0.02637
1118.86	0.03571
1128.5	0.02986
1138.15	0.02234
1147.79	0.01406
1157.44	0.01478
1167.08	0.01753
1176.73	0.01506
1186.37	0.00991
1196.02	0.00711
1205.66	0.0065
1215.31	0.01019
1224.95	0.02568
1234.6	0.04545
1244.24	0.04579
1253.89	0.11839
1263.53	0.14076
1273.18	0.053
1282.82	0.03306
1292.47	0.03337
1302.11	0.03296
1311.76	0.02795
1321.4	0.03186
1331.05	0.06155
1340.69	0.1608
1350.34	0.3145
1359.98	0.26661
1369.63	0.08537
1379.27	0.02996
1388.92	0.01628
1398.56	0.01291
1408.21	0.01404
1417.85	0.01715
1427.5	0.01509
1437.14	0.01679
1446.79	0.02261
1456.43	0.03382
1466.08	0.04539
1475.73	0.0436
1485.37	0.04177
1495.02	0.05067
1504.66	0.0783
1514.31	0.13428
1523.95	0.20339
1533.6	0.2365
1543.24	0.33864
1552.89	0.38524
1562.53	0.34105
1572.18	0.243
1581.82	0.14505
1591.47	0.10259
1601.11	0.066
1610.76	0.04216
1620.4	0.03599
1630.05	0.03725
1639.69	0.02014
1649.34	0.01291
1658.98	0.01064
1668.63	0.00789
1678.27	0.0058
1687.92	0.00472
1697.56	0.00423
1707.21	0.00373
1716.85	0.00351
1726.5	0.0035
1736.14	0.002906
1745.79	0.0025428
1755.43	0.00323
1765.08	0.00547
1774.72	0.00578
1784.37	0.0043
1794.01	0.0043
1803.66	0.00368
1813.3	0.00298
1822.95	0.0026391
1832.59	0.0023063
1842.24	0.001794
1851.88	0.00179
1861.53	0.0022419
1871.17	0.00347
1880.82	0.00597
1890.46	0.0079
1900.11	0.00544
1909.75	0.002504
1919.4	0.001715
1929.04	0.001534
1938.69	0.001402
1948.33	0.001379
1957.98	0.001401
1967.62	0.001761
1977.27	0.0024164
1986.91	0.0027499
1996.56	0.0026358
2006.2	0.0029414
2015.85	0.00308
2025.49	0.00297
2035.14	0.0028937
2044.78	0.00322
2054.43	0.00394
2064.07	0.00488
2073.72	0.00548
2083.36	0.00555
2093.01	0.00605
2102.65	0.00687
2112.3	0.00819
2121.94	0.01086
2131.59	0.01585
2141.23	0.02285
2150.88	0.02917
2160.52	0.03333
2170.17	0.04234
2179.81	0.06322
2189.46	0.09554
2199.1	0.13532
2208.75	0.1676
2218.39	0.18957
2228.04	0.20746
2237.68	0.25158
2247.33	0.42743
2256.97	0.92591
2266.62	1.39498
2276.26	1.31083
2285.91	1.02416
2295.55	0.66167
2305.2	0.38015
2314.84	0.2294
2324.49	0.16488
2334.13	0.14086
2343.78	0.12659
2353.42	0.10866
2363.07	0.09385
2372.72	0.08077
2382.36	0.06237
2392.01	0.04178
2401.65	0.02669
2411.3	0.01873
2420.94	0.01509
2430.59	0.01375
2440.23	0.01264
2449.88	0.0099
2459.52	0.00783
2469.17	0.00667
2478.81	0.00611
2488.46	0.00591
2498.1	0.00565
2507.75	0.00567
2517.39	0.00556
2527.04	0.00499
2536.68	0.00453
2546.33	0.00376
2555.97	0.00315
2565.62	0.00322
2575.26	0.00371
2584.91	0.00481
2594.55	0.006
2604.2	0.00585
2613.84	0.00447
2623.49	0.00365
2633.13	0.00378
2642.78	0.00451
2652.42	0.00482
2662.07	0.00464
2671.71	0.00438
2681.36	0.00454
2691	0.00472
2700.65	0.00434
2710.29	0.00324
2719.94	0.0025298
2729.58	0.0021096
2739.23	0.001824
2748.87	0.001799
2758.52	0.001748
2768.16	0.001798
2777.81	0.00197691
2787.45	0.0020745
2797.1	0.0020229
2806.74	0.00224
2816.39	0.0024204
2826.03	0.0026045
2835.68	0.0028749
2845.32	0.00324
2854.97	0.00412
2864.61	0.00503
2874.26	0.00584
2883.9	0.0061
2893.55	0.00579
2903.19	0.00591
2912.84	0.00632
2922.48	0.0059
2932.13	0.00524
2941.77	0.0047
2951.42	0.00364
2961.06	0.0022882
2970.71	0.001639
2980.35	0.001442
2990	0.001558
2999.64	0.0023046
3009.29	0.00364
3018.93	0.00449
3028.58	0.00435
3038.22	0.00415
3047.87	0.00391
3057.51	0.00375
3067.16	0.00406
3076.8	0.00586
3086.45	0.00951
3096.09	0.01395
3105.74	0.0132
3115.38	0.00631
3125.03	0.0023761
3134.67	0.001072
3144.32	0.00077
3153.96	0.001258
3163.61	0.0019099
3173.25	0.00309
3182.9	0.0037
3192.54	0.00315
3202.19	0.0023366
3211.83	0.001496
3221.48	0.0007
3231.12	0.00027
3240.77	0.00028
3250.41	0.0002
3260.06	0
3269.7	9e-05
3279.35	9e-05
3289	8e-05
3298.64	0.00037
3308.29	0.00056
3317.93	0.001239
3327.58	0.0020967
3337.22	0.0028075
3346.87	0.0026936
3356.51	0.0025088
3366.16	0.0021828
3375.8	0.0020709
3385.45	0.0024175
3395.09	0.00319
3404.74	0.00398
3414.38	0.00529
3424.03	0.00661
3433.67	0.00671
3443.32	0.00537
3452.96	0.00386
3462.61	0.0028172
3472.25	0.00203154
3481.9	0.00166
3491.54	0.001827
3501.19	0.0019123
3510.83	0.002169
3520.48	0.0022364
3530.12	0.0021087
3539.77	0.0019431
3549.41	0.001545
3559.06	0.001536
3568.7	0.001581
3578.35	0.001524
3587.99	0.0019097
3597.64	0.00195664
3607.28	0.0023676
3616.93	0.002682
3626.57	0.00353
3636.22	0.00463
3645.86	0.00624
3655.51	0.00683
3665.15	0.00612
3674.8	0.0047
3684.44	0.00355
3694.09	0.00316
3703.73	0.0032
3713.38	0.00362
3723.02	0.00436
3732.67	0.00457
3742.31	0.00425
3751.96	0.0038
3761.6	0.00328
3771.25	0.00324
3780.89	0.00328
3790.54	0.00323
3800.18	0.0032
3809.83	0.0029528
3819.47	0.0026825
3829.12	0.0022575
3838.76	0.00196989
3848.41	0.001747
3858.05	0.001523
3867.7	0.001445
3877.34	0.001295
3886.99	0.00123
3896.63	0.001199
3906.28	0.001214
3915.92	0.001189
3925.57	0.001088
3935.21	0.00069
3944.86	0.00084
3954.5	0.00078
3964.15	0.00071
3973.79	0.00073
3983.44	0.00074
3993.08	0.0007
