Infrared Spectrum: Di-sec-butyl ether
Formula: C 8 H 18 O
CAS: 6863-58-7
State: gas
Instrument: HP-GC/MS/IRD
Origin: NIST Mass Spectrometry Data Center
1/CM	ABSORBANCE
550	0.0001479
562	0.0004089
574	0.000174
586	0.0002407
598	0.0002552
610	4.64e-05
622	0.0002929
634	0.0001798
646	0.0001537
658	0.0002407
670	0.000116
682	0.0002291
694	0.0001827
706	0.0002146
718	0.0002262
730	0.0002494
742	0.0001653
754	0.0002842
766	0.0004118
778	0.0005365
790	0.0004843
802	0.0004466
814	0.0004147
826	0.0005423
838	0.0006931
850	0.0005597
862	0.0007221
874	0.0008642
886	0.0006496
898	0.0004524
910	0.0004872
922	0.0008149
934	0.0014819
946	0.0016095
958	0.0017284
970	0.0020155
982	0.0020474
994	0.0028159
1006	0.0044544
1018	0.0053505
1030	0.0077923
1042	0.0121075
1054	0.0100717
1066	0.0045269
1078	0.00348
1090	0.0060146
1102	0.0118726
1114	0.0145029
1126	0.0125512
1138	0.0104255
1150	0.0081461
1162	0.0060871
1174	0.0036482
1186	0.0018705
1198	0.0010614
1210	0.000754
1222	0.0007395
1234	0.0007105
1246	0.0008613
1258	0.0012586
1270	0.0013253
1282	0.0012615
1294	0.0016182
1306	0.0020764
1318	0.0030305
1330	0.0049851
1342	0.0048836
1354	0.0036221
1366	0.0054462
1378	0.0076125
1390	0.0053331
1402	0.002407
1414	0.0013079
1426	0.0013311
1438	0.0021721
1450	0.0035467
1462	0.0042891
1474	0.0032132
1486	0.0015747
1498	0.0007946
1510	0.0005307
1522	0.0004089
1534	0.0003567
1546	0.0003306
1558	0.0003103
1570	0.0002929
1582	0.0002726
1594	0.0002407
1606	0.0002349
1618	0.000261
1630	0.0002436
1642	0.0001885
1654	0.0001827
1666	0.0001508
1678	0.0001508
1690	0.0001276
1702	0.0001189
1714	8.7e-05
1726	7.54e-05
1738	6.09e-05
1750	5.8e-05
1762	8.7e-05
1774	9.86e-05
1786	0.0001363
1798	0.0001276
1810	0.000145
1822	0.0001305
1834	9.86e-05
1846	0.0001479
1858	0.0001392
1870	0.0001856
1882	0.0002117
1894	0.0002204
1906	0.0002233
1918	0.0001914
1930	0.0001682
1942	0.0001247
1954	8.12e-05
1966	0.0001363
1978	0.0001363
1990	0.0001218
2002	8.99e-05
2014	5.51e-05
2026	4.06e-05
2038	3.48e-05
2050	2.9e-05
2062	5.8e-06
2074	5.51e-05
2086	4.06e-05
2098	2.03e-05
2110	0
2122	2.61e-05
2134	2.9e-05
2146	4.06e-05
2158	6.96e-05
2170	8.12e-05
2182	4.93e-05
2194	6.96e-05
2206	2.61e-05
2218	5.51e-05
2230	3.77e-05
2242	3.77e-05
2254	2.32e-05
2266	3.48e-05
2278	5.8e-05
2290	6.96e-05
2302	6.67e-05
2314	7.54e-05
2326	6.09e-05
2338	4.93e-05
2350	6.96e-05
2362	4.93e-05
2374	3.19e-05
2386	4.35e-05
2398	9.86e-05
2410	7.54e-05
2422	5.8e-05
2434	4.64e-05
2446	3.48e-05
2458	6.38e-05
2470	7.25e-05
2482	5.22e-05
2494	4.06e-05
2506	5.8e-05
2518	5.22e-05
2530	4.93e-05
2542	5.51e-05
2554	8.7e-05
2566	0.0001595
2578	0.000232
2590	0.0002929
2602	0.0002987
2614	0.0003799
2626	0.0004263
2638	0.0004089
2650	0.0004263
2662	0.0004031
2674	0.0004031
2686	0.000435
2698	0.0004814
2710	0.0005655
2722	0.0006351
2734	0.0006728
2746	0.0007424
2758	0.0007627
2770	0.0007685
2782	0.0008613
2794	0.0010324
2806	0.0012876
2818	0.0016356
2830	0.002146
2842	0.0030827
2854	0.0050489
2866	0.0082099
2878	0.011977
2890	0.012325
2902	0.0096918
2914	0.0106546
2926	0.0161066
2938	0.0197287
2950	0.0170491
2962	0.0201086
2974	0.029
2986	0.0224634
2998	0.0090712
3010	0.0034655
3022	0.0020851
3034	0.0015283
3046	0.0012673
3058	0.0011339
3070	0.0010933
3082	0.0009541
3094	0.0009135
3106	0.0007946
3118	0.000725
3130	0.0006728
3142	0.0006641
3154	0.0005858
3166	0.0005597
3178	0.0005191
3190	0.0004147
3202	0.0003683
3214	0.000319
3226	0.0002233
3238	0.0001914
3250	0.0001711
3262	0.0001943
3274	0.0001595
3286	0.0001479
3298	0.0001015
3310	0.0001363
3322	0.0001972
3334	0.0001885
3346	0.0001073
3358	0.0001421
3370	0.0001566
3382	0.0001769
3394	0.0002117
3406	0.0001769
3418	0.000145
3430	0.0001189
3442	0.0001276
3454	0.0001247
3466	7.54e-05
3478	8.99e-05
3490	0.0001653
3502	0.000145
3514	0.0001131
3526	1.74e-05
3538	0.0001073
3550	0.0001044
3562	0.0001102
3574	0.0001102
3586	0.0001508
3598	0.0001653
3610	0.0001653
3622	0.0001334
3634	0.0001247
3646	0.0001073
3658	0.0001479
3670	0.000116
3682	9.86e-05
3694	0.0001537
3706	0.0001885
3718	0.0001624
3730	0.0001334
3742	0.0001537
3754	0.000145
3766	0.0001943
3778	0.0001943
3790	0.0001392
3802	0.0001102
3814	0.0001392
3826	0.0001595
3838	0.0001624
