Infrared Spectrum: (S)3,7-Dimethyl-1-octanol
Formula: C 10 H 22 O
CAS: 68680-98-8
State: gas
Origin: EPA-IR VAPOR PHASE LIBRARY
1/CM	ABSORBANCE
549.8	0.0014125
559.445	0.0010525
569.09	0.0007385
578.734	0.0005526
588.379	0.0005678
598.024	0.0005465
607.669	0.0006306
617.313	0.0005238
626.958	0.0003149
636.603	0.0005268
646.248	0.0007124
655.893	0.0003419
665.537	0.0003689
675.182	0.0003929
684.827	0.0005206
694.472	0.0004611
704.116	0.0006317
713.761	0.0006178
723.406	0.0010525
733.051	0.0013125
742.695	0.0010225
752.34	0.000486
761.985	0.000714
771.63	0.0006734
781.275	0.0008013
790.919	0.0008416
800.564	0.0009196
810.209	0.0010125
819.854	0.0013525
829.498	0.0014325
839.143	0.0019325
848.788	0.0017025
858.433	0.0017425
868.078	0.0016025
877.722	0.0011525
887.367	0.0011925
897.012	0.0014425
906.657	0.0017425
916.301	0.0023225
925.946	0.0028525
935.591	0.0034725
945.236	0.0039625
954.88	0.0053725
964.525	0.0060325
974.17	0.0064625
983.815	0.0068425
993.46	0.0081625
1003.1	0.0094525
1012.75	0.0101225
1022.39	0.0118625
1032.04	0.0167825
1041.68	0.0211525
1051.33	0.0209425
1060.97	0.0178425
1070.62	0.0123925
1080.26	0.0085925
1089.91	0.0063325
1099.55	0.0051125
1109.2	0.0048125
1118.84	0.0047025
1128.49	0.0043525
1138.13	0.0042225
1147.78	0.0045725
1157.42	0.0048025
1167.07	0.0056325
1176.71	0.0048825
1186.36	0.0042525
1196	0.0042325
1205.64	0.0045825
1215.29	0.0044525
1224.93	0.0044925
1234.58	0.0046025
1244.22	0.0043125
1253.87	0.0043325
1263.51	0.0045325
1273.16	0.0046725
1282.8	0.0045825
1292.45	0.0044125
1302.09	0.0042925
1311.74	0.0042525
1321.38	0.0046425
1331.03	0.0052625
1340.67	0.0058325
1350.32	0.0064725
1359.96	0.0081425
1369.61	0.0112025
1379.25	0.0143225
1388.9	0.0141825
1398.54	0.0082825
1408.18	0.0051125
1417.83	0.0039525
1427.47	0.0040925
1437.12	0.0053425
1446.76	0.0075625
1456.41	0.0110625
1466.05	0.0133325
1475.7	0.0108125
1485.34	0.0060825
1494.99	0.0031425
1504.63	0.0019025
1514.28	0.0013225
1523.92	0.0009169
1533.57	0.0007267
1543.21	0.0006833
1552.86	0.0006329
1562.5	0.0005768
1572.15	0.0005194
1581.79	0.0003465
1591.44	0.0005209
1601.08	0.0004663
1610.73	0.0004782
1620.37	0.0004141
1630.01	0.000381
1639.66	0.0004329
1649.3	0.0004872
1658.95	0.0004691
1668.59	0.0003448
1678.24	0.0003981
1687.88	0.0004078
1697.53	0.000219
1707.17	0.000321
1716.82	0.0003023
1726.46	0.0002774
1736.11	0.0001822
1745.75	0.0001984
1755.4	0.0002008
1765.04	0.0001599
1774.69	0.00015
1784.33	0.0002508
1793.98	0.0002204
1803.62	0.0001984
1813.27	0.0002314
1822.91	0.0002197
1832.55	0.0002908
1842.2	0.0002523
1851.84	0.0002286
1861.49	0.0002619
1871.13	0.000294
1880.78	0.0002279
1890.42	0.0002625
1900.07	0.0002608
1909.71	0.0002948
1919.36	0.0002962
1929	0.0002273
1938.65	0.0001554
1948.29	0.000211
1957.94	0.0003275
1967.58	0.0001502
1977.23	0.0002076
1986.87	0.0002748
1996.52	0.000364
2006.16	0.0003444
2015.81	0.0004135
2025.45	0.0003932
2035.1	0.0004281
2044.74	0.0004735
2054.38	0.000364
2064.03	0.0004086
2073.67	0.0003712
2083.32	0.0004066
2092.96	0.0002886
2102.61	0.0003375
2112.25	0.0003357
2121.9	0.0002563
2131.54	0.0003157
2141.19	0.0002954
2150.83	0.0004049
2160.48	0.0003552
2170.12	0.000273
2179.77	0.0003129
2189.41	0.0003682
2199.06	0.0002158
2208.7	0.0003938
2218.35	0.000355
2227.99	0.0003345
2237.64	0.0003634
2247.28	0.0003289
2256.92	0.0003393
2266.57	0.0003419
2276.21	0.0004056
2285.86	0.0004499
2295.5	0.0003659
2305.15	0.0003406
2314.79	0.0003566
2324.44	0.0003999
2334.08	0.0004348
2343.73	0.0004293
2353.37	0.0004274
2363.02	0.0004402
2372.66	0.0003973
2382.31	0.0005181
2391.95	0.0005665
2401.6	0.0005814
2411.24	0.0004718
2420.89	0.0004983
2430.53	0.0005299
2440.18	0.000532
2449.82	0.0004621
2459.47	0.0005815
2469.11	0.0005228
2478.75	0.000381
2488.4	0.0005024
2498.04	0.0004921
2507.69	0.0006418
2517.33	0.000553
2526.98	0.0006088
2536.62	0.000621
2546.27	0.0006656
2555.91	0.0007164
2565.56	0.0007764
2575.2	0.0007314
2584.85	0.0009291
2594.49	0.0010425
2604.14	0.0011725
2613.78	0.0012025
2623.43	0.0013125
2633.07	0.0013325
2642.72	0.0013825
2652.36	0.0014325
2662.01	0.0013825
2671.65	0.0014725
2681.29	0.0015625
2690.94	0.0017725
2700.58	0.0017625
2710.23	0.0020125
2719.87	0.0023925
2729.52	0.0026425
2739.16	0.0027725
2748.81	0.0027625
2758.45	0.0028825
2768.1	0.0030225
2777.74	0.0032025
2787.39	0.0037125
2797.03	0.0043425
2806.68	0.0049725
2816.32	0.0060725
2825.97	0.0076425
2835.61	0.0110025
2845.26	0.0181225
2854.9	0.0275225
2864.55	0.0348725
2874.19	0.0461325
2883.84	0.0527525
2893.48	0.0518025
2903.12	0.0594925
2912.77	0.0718125
2922.41	0.0835425
2932.06	0.0954525
2941.7	0.0883225
2951.35	0.0794625
2960.99	0.0996025
2970.64	0.0852925
2980.28	0.0353925
2989.93	0.0152325
2999.57	0.0086925
3009.22	0.0057725
3018.86	0.0041425
3028.51	0.0032825
3038.15	0.0027425
3047.8	0.0023625
3057.44	0.0022725
3067.09	0.0019025
3076.73	0.0018525
3086.38	0.0017625
3096.02	0.0015225
3105.67	0.0016625
3115.31	0.0013125
3124.95	0.0013225
3134.6	0.0012725
3144.24	0.0012525
3153.89	0.0012025
3163.53	0.0012025
3173.18	0.0010425
3182.82	0.0011425
3192.47	0.0009873
3202.11	0.0009524
3211.76	0.0007081
3221.4	0.0004063
3231.05	0.0003963
3240.69	0.0004224
3250.34	0.0003411
3259.98	0.0002457
3269.63	0.0002711
3279.27	0.0002838
3288.92	0.0002241
3298.56	0.0003598
3308.21	0.0002925
3317.85	0.0003517
3327.49	0.0006329
3337.14	0.0003958
3346.78	0.0003173
3356.43	0.0004207
3366.07	0.0003071
3375.72	0.0002257
3385.36	0.000245
3395.01	0.0004387
3404.65	0.0002096
3414.3	0.0003686
3423.94	0.0004359
3433.59	0.0004336
3443.23	0.0004124
3452.88	0.0004379
3462.52	0.0003
3472.17	0.0002344
3481.81	0.0003855
3491.46	0.0004066
3501.1	0.0002544
3510.75	0.0003197
3520.39	0.0002842
3530.04	0.0002608
3539.68	0.0002825
3549.32	0.0004685
3558.97	0.0002894
3568.61	0.0002288
3578.26	0.0003598
3587.9	0.0003647
3597.55	0.0004038
3607.19	0.0004999
3616.84	0.0006261
3626.48	0.0007865
3636.13	0.0013125
3645.77	0.0023625
3655.42	0.0045925
3665.06	0.0063625
3674.71	0.0050325
3684.35	0.0022825
3694	0.0012325
3703.64	0.0008798
3713.29	0.0006748
3722.93	0.0005179
3732.58	0.0003876
3742.22	0.0004887
3751.86	0.0003228
3761.51	0.0004664
3771.15	0.0002722
3780.8	0.0004603
3790.44	0.0003622
3800.09	0.000461
3809.73	0.0005562
3819.38	0.0003968
3829.02	0.0005473
3838.67	0.0005721
3848.31	0.0005338
3857.96	0.0004627
3867.6	0.0005142
3877.25	0.0003937
3886.89	0.0005091
3896.54	0.0004281
3906.18	0.0005131
3915.83	0.0001367
3925.47	0.0001994
3935.12	0.0003558
3944.76	0.0002867
3954.41	0.0002079
3964.05	0.0001587
3973.69	0.0004385
3983.34	0.0002126
3992.98	0.0004031
