Infrared Spectrum: Alpha,Alpha'-HYDRAZO-DI-ISO-BUTYRONITRILE
Formula: C8 H14 N4
CAS: 6869-07-4
State: SOLID (OIL MULL)
Class: COBLENTZ
Instrument: Not specified, most likely a prism, grating, or hybrid spectrometer.
Sampling: TRANSMISSION
Resolution: 4
Origin: WYANDOTTE CHEMICALS CORP., WYANDOTTE, MICHIGAN, USA
MICROMETERS	TRANSMITTANCE
2.035	0.946
2.07491	0.948
2.11482	0.949
2.15473	0.938
2.19465	0.899
2.23456	0.859
2.27447	0.864
2.31438	0.854
2.35429	0.864
2.3942	0.878
2.43412	0.901
2.47403	0.903
2.51394	0.918
2.55385	0.931
2.59376	0.944
2.63367	0.939
2.67359	0.958
2.7135	0.959
2.75341	0.954
2.79332	0.939
2.83323	0.934
2.87314	0.933
2.91305	0.918
2.95297	0.898
2.99288	0.849
3.03279	0.769
3.0727	0.439
3.11261	0.747
3.15252	0.787
3.19244	0.811
3.23235	0.804
3.27226	0.754
3.31217	0.555
3.35208	0.066
3.39199	0.033
3.4319	0.038
3.47182	0.043
3.51173	0.053
3.55164	0.335
3.59155	0.731
3.63146	0.833
3.67137	0.848
3.71129	0.836
3.7512	0.854
3.79111	0.856
3.83102	0.879
3.87093	0.898
3.91084	0.913
3.95076	0.943
3.99067	0.956
4.03058	0.976
4.07049	0.973
4.1104	0.973
4.15031	0.971
4.19022	0.958
4.23014	0.951
4.27005	0.928
4.30996	0.954
4.34987	0.989
4.38978	1
4.42969	0.986
4.46961	0.983
4.50952	0.978
4.54943	0.921
4.58934	0.707
4.62925	0.981
4.66916	0.991
4.70907	0.998
4.74899	1.005
4.7889	1.001
4.82881	1.008
4.86872	1
4.90863	0.986
4.94854	0.994
4.98846	0.996
5.02837	0.996
5.06828	0.988
5.10819	0.998
5.1481	1.005
5.18801	1.003
5.22793	1.001
5.26784	1.006
5.30775	1.005
5.34766	1.001
5.38757	0.994
5.42748	1
5.46739	0.991
5.50731	0.989
5.54722	0.991
5.58713	0.978
5.62704	0.983
5.66695	0.976
5.70686	0.973
5.74678	0.963
5.78669	0.961
5.8266	0.938
5.86651	0.908
5.90642	0.919
5.94633	0.901
5.98625	0.876
6.02616	0.873
6.06607	0.904
6.10598	0.928
6.14589	0.921
6.1858	0.924
6.22571	0.923
6.26563	0.919
6.30554	0.909
6.34545	0.904
6.38536	0.901
6.42527	0.898
6.46518	0.884
6.5051	0.856
6.54501	0.749
6.58492	0.833
6.62483	0.864
6.66474	0.823
6.70465	0.702
6.74456	0.484
6.78448	0.116
6.82439	0.068
6.8643	0.121
6.90421	0.155
6.94412	0.285
6.98403	0.53
7.02395	0.692
7.06386	0.781
7.10377	0.794
7.14368	0.757
7.18359	0.562
7.2235	0.095
7.26342	0.188
7.30333	0.228
7.34324	0.363
7.38315	0.662
7.42306	0.722
7.46297	0.751
7.50288	0.776
7.5428	0.796
7.58271	0.801
7.62262	0.794
7.66253	0.784
7.70244	0.794
7.74235	0.803
7.78227	0.806
7.82218	0.799
7.86209	0.801
7.902	0.791
7.94191	0.774
7.98182	0.756
8.02173	0.722
8.06165	0.652
8.10156	0.52
8.14147	0.439
8.18138	0.5
8.22129	0.475
8.2612	0.338
8.30112	0.156
8.34103	0.14
8.38094	0.317
8.42085	0.439
8.46076	0.27
8.50067	0.158
8.54059	0.118
8.5805	0.233
8.62041	0.333
8.66032	0.44
8.70023	0.585
8.74014	0.671
8.78005	0.721
8.81997	0.749
8.85988	0.769
8.89979	0.774
8.9397	0.764
8.97961	0.781
9.01952	0.792
9.05944	0.801
9.09935	0.828
9.13926	0.839
9.17917	0.849
9.21908	0.853
9.25899	0.858
9.2989	0.854
9.33882	0.854
9.37873	0.856
9.41864	0.851
9.45855	0.863
9.49846	0.854
9.53837	0.851
9.57829	0.836
9.6182	0.819
9.65811	0.784
9.69802	0.684
9.73793	0.484
9.77784	0.482
9.81776	0.719
9.85767	0.759
9.89758	0.747
9.93749	0.664
9.9774	0.537
10.0173	0.432
10.0572	0.452
10.0971	0.641
10.137	0.739
10.177	0.777
10.2169	0.787
10.2568	0.777
10.2967	0.772
10.3366	0.786
10.3765	0.797
10.4164	0.799
10.4563	0.794
10.4963	0.781
10.5362	0.757
10.5761	0.726
10.616	0.692
10.6559	0.709
10.6958	0.716
10.7357	0.716
10.7756	0.711
10.8155	0.702
10.8555	0.686
10.8954	0.662
10.9353	0.624
10.9752	0.574
11.0151	0.497
11.055	0.402
11.0949	0.333
11.1348	0.273
11.1747	0.277
11.2147	0.365
11.2546	0.487
11.2945	0.626
11.3344	0.714
11.3743	0.792
11.4142	0.829
11.4541	0.841
11.494	0.824
11.534	0.776
11.5739	0.724
11.6138	0.662
11.6537	0.595
11.6936	0.534
11.7335	0.48
11.7734	0.415
11.8133	0.35
11.8532	0.282
11.8932	0.227
11.9331	0.181
11.973	0.155
12.0129	0.143
12.0528	0.148
12.0927	0.161
12.1326	0.193
12.1725	0.23
12.2124	0.283
12.2524	0.323
12.2923	0.362
12.3322	0.4
12.3721	0.434
12.412	0.455
12.4519	0.479
12.4918	0.494
12.5317	0.505
12.5717	0.515
12.6116	0.527
12.6515	0.55
12.6914	0.567
12.7313	0.585
12.7712	0.597
12.8111	0.597
12.851	0.584
12.8909	0.57
12.9309	0.562
12.9708	0.557
13.0107	0.579
13.0506	0.616
13.0905	0.646
13.1304	0.684
13.1703	0.711
13.2102	0.726
13.2502	0.741
13.2901	0.747
13.33	0.756
13.3699	0.762
13.4098	0.761
13.4497	0.757
13.4896	0.754
13.5295	0.746
13.5694	0.749
13.6094	0.751
13.6493	0.742
13.6892	0.749
13.7291	0.751
13.769	0.756
13.8089	0.751
13.8488	0.756
13.8887	0.757
13.9286	0.767
13.9686	0.791
14.0085	0.806
14.0484	0.824
14.0883	0.833
14.1282	0.839
14.1681	0.828
14.208	0.809
14.2479	0.799
14.2879	0.814
14.3278	0.839
14.3677	0.863
14.4076	0.868
14.4475	0.868
14.4874	0.861
14.5273	0.864
14.5672	0.871
14.6071	0.879
14.6471	0.881
14.687	0.879
14.7269	0.889
14.7668	0.879
14.8067	0.879
14.8466	0.879
14.8865	0.881
14.9264	0.889
14.9663	0.891
15.0063	0.886
15.0462	0.873
15.0861	0.843
15.126	0.843
15.1659	0.858
15.2058	0.879
15.2457	0.896
15.2856	0.899
15.3256	0.904
15.3655	0.898
15.4054	0.898
15.4453	0.901
15.4852	0.903
15.5251	0.893
15.565	0.893
15.6049	0.894
15.6448	0.898
15.6848	0.894
15.7247	0.881
15.7646	0.879
15.8045	0.874
15.8444	0.866
15.8843	0.858
15.9242	0.853
15.9641	0.848
16.004	0.843
