Infrared Spectrum: N,N'-ETHYLENEBIS(2-MERCAPTOPROPIONAMIDE)
Formula: C8 H16 N2 O2 S2
CAS: 687-72-9
State: SOLID(MINERAL OIL MULL)
Melting point: 194-196 C
Class: COBLENTZ
Instrument: Not specified, most likely a prism, grating, or hybrid spectrometer.
Sampling: TRANSMISSION
Resolution: 4
Origin: ARTHUR D. LITTLE, INC.
1/CM	TRANSMITTANCE
624.071	0.509
632.115	0.509
640.159	0.494
648.203	0.456
656.247	0.413
664.29	0.405
672.334	0.458
680.378	0.513
688.422	0.533
696.466	0.534
704.51	0.573
712.554	0.662
720.598	0.744
728.641	0.801
736.685	0.819
744.729	0.822
752.773	0.848
760.817	0.809
768.861	0.805
776.905	0.856
784.949	0.893
792.992	0.907
801.036	0.916
809.08	0.92
817.124	0.918
825.168	0.916
833.212	0.908
841.256	0.892
849.3	0.842
857.343	0.807
865.387	0.84
873.431	0.86
881.475	0.837
889.519	0.788
897.563	0.592
905.607	0.701
913.651	0.862
921.695	0.881
929.738	0.884
937.782	0.877
945.826	0.88
953.87	0.868
961.914	0.858
969.958	0.821
978.002	0.782
986.046	0.759
994.089	0.836
1002.13	0.85
1010.18	0.836
1018.22	0.807
1026.26	0.791
1034.31	0.805
1042.35	0.818
1050.4	0.745
1058.44	0.575
1066.48	0.661
1074.53	0.813
1082.57	0.825
1090.62	0.815
1098.66	0.822
1106.7	0.838
1114.75	0.841
1122.79	0.837
1130.84	0.831
1138.88	0.825
1146.92	0.818
1154.97	0.81
1163.01	0.794
1171.05	0.759
1179.1	0.696
1187.14	0.556
1195.19	0.344
1203.23	0.293
1211.27	0.283
1219.32	0.462
1227.36	0.264
1235.41	0.323
1243.45	0.526
1251.49	0.672
1259.54	0.739
1267.58	0.743
1275.63	0.716
1283.67	0.668
1291.71	0.51
1299.76	0.659
1307.8	0.654
1315.84	0.606
1323.89	0.555
1331.93	0.483
1339.98	0.36
1348.02	0.262
1356.06	0.297
1364.11	0.415
1372.15	0.493
1380.2	0.524
1388.24	0.538
1396.28	0.538
1404.33	0.53
1412.37	0.467
1420.42	0.426
1428.46	0.383
1436.5	0.233
1444.55	0.138
1452.59	0.338
1460.63	0.387
1468.68	0.491
1476.72	0.509
1484.77	0.521
1492.81	0.524
1500.85	0.524
1508.9	0.516
1516.94	0.498
1524.99	0.454
1533.03	0.377
1541.07	0.254
1549.12	0.123
1557.16	0.045
1565.2	0.063
1573.25	0.211
1581.29	0.337
1589.34	0.36
1597.38	0.341
1605.42	0.298
1613.47	0.213
1621.51	0.155
1629.56	0.08
1637.6	0.029
1645.64	0.063
1653.69	0.11
1661.73	0.217
1669.78	0.331
1677.82	0.434
1685.86	0.53
1693.91	0.594
1701.95	0.627
1709.99	0.647
1718.04	0.668
1726.08	0.684
1734.13	0.689
1742.17	0.694
1750.21	0.704
1758.26	0.715
1766.3	0.732
1774.35	0.733
1782.39	0.737
1790.43	0.744
1798.48	0.748
1806.52	0.75
1814.57	0.752
1822.61	0.754
1830.65	0.754
1838.7	0.754
1846.74	0.754
1854.78	0.755
1862.83	0.758
1870.87	0.759
1878.92	0.76
1886.96	0.76
1895	0.76
1903.05	0.76
1911.09	0.76
1919.14	0.762
1927.18	0.762
1935.22	0.763
1943.27	0.764
1951.31	0.764
1959.35	0.764
1967.4	0.764
1975.44	0.764
1983.49	0.764
1991.53	0.764
1999.57	0.766
2007.62	0.766
2015.66	0.764
2023.71	0.766
2031.75	0.766
2039.79	0.766
2047.84	0.766
2055.88	0.764
2063.93	0.762
2071.97	0.763
2080.01	0.763
2088.06	0.763
2096.1	0.763
2104.14	0.763
2112.19	0.762
2120.23	0.762
2128.28	0.762
2136.32	0.762
2144.36	0.762
2152.41	0.762
2160.45	0.76
2168.5	0.759
2176.54	0.76
2184.58	0.762
2192.63	0.762
2200.67	0.762
2208.72	0.76
2216.76	0.76
2224.8	0.762
2232.85	0.762
2240.89	0.763
2248.93	0.764
2256.98	0.763
2265.02	0.759
2273.07	0.762
2281.11	0.763
2289.15	0.764
2297.2	0.762
2305.24	0.763
2313.29	0.763
2321.33	0.762
2329.37	0.76
2337.42	0.759
2345.46	0.755
2353.51	0.752
2361.55	0.75
2369.59	0.75
2377.64	0.751
2385.68	0.754
2393.72	0.754
2401.77	0.751
2409.81	0.75
2417.86	0.748
2425.9	0.748
2433.94	0.75
2441.99	0.748
2450.03	0.748
2458.08	0.747
2466.12	0.745
2474.16	0.743
2482.21	0.741
2490.25	0.74
2498.29	0.739
2506.34	0.735
2514.38	0.731
2522.43	0.729
2530.47	0.727
2538.51	0.721
2546.56	0.715
2554.6	0.702
2562.65	0.682
2570.69	0.692
2578.73	0.716
2586.78	0.728
2594.82	0.729
2602.87	0.725
2610.91	0.721
2618.95	0.723
2627	0.727
2635.04	0.728
2643.08	0.731
2651.13	0.733
2659.17	0.729
2667.22	0.723
2675.26	0.72
2683.3	0.719
2691.35	0.717
2699.39	0.715
2707.44	0.713
2715.48	0.713
2723.52	0.712
2731.57	0.712
2739.61	0.711
2747.66	0.706
2755.7	0.702
2763.74	0.686
2771.79	0.669
2779.83	0.654
2787.87	0.646
2795.92	0.639
2803.96	0.635
2812.01	0.631
2820.05	0.627
2828.09	0.615
2836.14	0.577
2844.18	0.458
2852.23	0.31
2860.27	0.241
2868.31	0.251
2876.36	0.274
2884.4	0.333
2892.44	0.31
2900.49	0.247
2908.53	0.197
2916.58	0.142
2924.62	0.08
2932.66	0.073
2940.71	0.122
2948.75	0.138
2956.8	0.13
2964.84	0.159
2972.88	0.197
2980.93	0.293
2988.97	0.307
2997.02	0.479
3005.06	0.568
3013.1	0.59
3021.15	0.596
3029.19	0.6
3037.23	0.598
3045.28	0.595
3053.32	0.576
3061.37	0.551
3069.41	0.512
3077.45	0.444
3085.5	0.346
3093.54	0.267
3101.59	0.276
3109.63	0.344
3117.67	0.452
3125.72	0.532
3133.76	0.565
3141.81	0.587
3149.85	0.592
3157.89	0.586
3165.94	0.575
3173.98	0.563
3182.02	0.537
3190.07	0.514
3198.11	0.474
3206.16	0.415
3214.2	0.369
3222.24	0.345
3230.29	0.333
3238.33	0.323
3246.38	0.295
3254.42	0.244
3262.46	0.192
3270.51	0.12
3278.55	0.053
3286.6	0.025
3294.64	0.02
3302.68	0.025
3310.73	0.037
3318.77	0.08
3326.81	0.143
3334.86	0.212
3342.9	0.313
3350.95	0.391
3358.99	0.469
3367.03	0.532
3375.08	0.579
3383.12	0.612
3391.17	0.647
3399.21	0.666
