Infrared Spectrum: MERCAPTOSUCCINDIHYDRAZIDE
Formula: C4 H10 N4 O2 S
CAS: 687-57-0
State: SOLID(MINERAL OIL MULL)
Melting point: 141 C
Class: COBLENTZ
Instrument: Not specified, most likely a prism, grating, or hybrid spectrometer.
Sampling: TRANSMISSION
Resolution: 4
Origin: ARTHUR D. LITTLE, INC.
1/CM	TRANSMITTANCE
628.273	0.477
636.622	0.515
644.971	0.519
653.32	0.501
661.67	0.467
670.019	0.464
678.368	0.504
686.717	0.557
695.066	0.579
703.415	0.553
711.765	0.579
720.114	0.638
728.463	0.682
736.812	0.729
745.161	0.756
753.51	0.773
761.86	0.775
770.209	0.753
778.558	0.729
786.907	0.782
795.256	0.789
803.605	0.794
811.954	0.802
820.304	0.803
828.653	0.801
837.002	0.794
845.351	0.789
853.7	0.78
862.049	0.757
870.399	0.721
878.748	0.703
887.097	0.679
895.446	0.654
903.795	0.613
912.144	0.588
920.493	0.63
928.843	0.666
937.192	0.679
945.541	0.684
953.89	0.689
962.239	0.651
970.588	0.585
978.938	0.561
987.287	0.399
995.636	0.341
1003.99	0.408
1012.33	0.586
1020.68	0.684
1029.03	0.729
1037.38	0.75
1045.73	0.753
1054.08	0.747
1062.43	0.756
1070.78	0.759
1079.13	0.767
1087.48	0.764
1095.83	0.754
1104.17	0.738
1112.52	0.718
1120.87	0.721
1129.22	0.721
1137.57	0.704
1145.92	0.705
1154.27	0.707
1162.62	0.694
1170.97	0.676
1179.32	0.672
1187.67	0.675
1196.02	0.654
1204.36	0.6
1212.71	0.484
1221.06	0.55
1229.41	0.655
1237.76	0.654
1246.11	0.619
1254.46	0.577
1262.81	0.575
1271.16	0.579
1279.51	0.581
1287.86	0.564
1296.21	0.546
1304.55	0.518
1312.9	0.505
1321.25	0.484
1329.6	0.415
1337.95	0.305
1346.3	0.31
1354.65	0.418
1363	0.418
1371.35	0.401
1379.7	0.505
1388.05	0.578
1396.4	0.584
1404.74	0.577
1413.09	0.519
1421.44	0.471
1429.79	0.422
1438.14	0.413
1446.49	0.35
1454.84	0.298
1463.19	0.33
1471.54	0.487
1479.89	0.522
1488.24	0.504
1496.59	0.442
1504.93	0.315
1513.28	0.249
1521.63	0.166
1529.98	0.204
1538.33	0.383
1546.68	0.425
1555.03	0.464
1563.38	0.462
1571.73	0.429
1580.08	0.401
1588.43	0.345
1596.78	0.281
1605.12	0.203
1613.47	0.127
1621.82	0.098
1630.17	0.088
1638.52	0.084
1646.87	0.158
1655.22	0.228
1663.57	0.338
1671.92	0.446
1680.27	0.528
1688.62	0.588
1696.97	0.655
1705.31	0.682
1713.66	0.729
1722.01	0.754
1730.36	0.771
1738.71	0.795
1747.06	0.806
1755.41	0.819
1763.76	0.836
1772.11	0.844
1780.46	0.851
1788.81	0.858
1797.15	0.865
1805.5	0.875
1813.85	0.878
1822.2	0.88
1830.55	0.882
1838.9	0.883
1847.25	0.885
1855.6	0.887
1863.95	0.889
1872.3	0.89
1880.65	0.892
1889	0.893
1897.34	0.894
1905.69	0.896
1914.04	0.897
1922.39	0.899
1930.74	0.9
1939.09	0.901
1947.44	0.903
1955.79	0.904
1964.14	0.906
1972.49	0.907
1980.84	0.908
1989.19	0.91
1997.53	0.91
2005.88	0.911
2014.23	0.913
2022.58	0.914
2030.93	0.915
2039.28	0.917
2047.63	0.918
2055.98	0.918
2064.33	0.918
2072.68	0.918
2081.03	0.918
2089.38	0.918
2097.72	0.918
2106.07	0.918
2114.42	0.918
2122.77	0.918
2131.12	0.918
2139.47	0.918
2147.82	0.918
2156.17	0.917
2164.52	0.915
2172.87	0.914
2181.22	0.911
2189.57	0.908
2197.91	0.907
2206.26	0.904
2214.61	0.903
2222.96	0.9
2231.31	0.897
2239.66	0.893
2248.01	0.889
2256.36	0.883
2264.71	0.878
2273.06	0.873
2281.41	0.868
2289.76	0.864
2298.1	0.858
2306.45	0.854
2314.8	0.848
2323.15	0.843
2331.5	0.837
2339.85	0.83
2348.2	0.823
2356.55	0.819
2364.9	0.816
2373.25	0.813
2381.6	0.809
2389.95	0.808
2398.29	0.805
2406.64	0.803
2414.99	0.803
2423.34	0.802
2431.69	0.801
2440.04	0.796
2448.39	0.792
2456.74	0.789
2465.09	0.785
2473.44	0.781
2481.79	0.778
2490.14	0.775
2498.48	0.78
2506.83	0.788
2515.18	0.801
2523.53	0.822
2531.88	0.844
2540.23	0.864
2548.58	0.886
2556.93	0.9
2565.28	0.908
2573.63	0.906
2581.98	0.901
2590.32	0.897
2598.67	0.894
2607.02	0.892
2615.37	0.885
2623.72	0.878
2632.07	0.876
2640.42	0.869
2648.77	0.864
2657.12	0.859
2665.47	0.857
2673.82	0.859
2682.17	0.864
2690.51	0.864
2698.86	0.864
2707.21	0.857
2715.56	0.845
2723.91	0.84
2732.26	0.841
2740.61	0.844
2748.96	0.845
2757.31	0.847
2765.66	0.844
2774.01	0.838
2782.36	0.822
2790.7	0.801
2799.05	0.775
2807.4	0.753
2815.75	0.718
2824.1	0.679
2832.45	0.57
2840.8	0.357
2849.15	0.198
2857.5	0.13
2865.85	0.141
2874.2	0.151
2882.55	0.187
2890.89	0.165
2899.24	0.114
2907.59	0.078
2915.94	0.053
2924.29	0.04
2932.64	0.043
2940.99	0.067
2949.34	0.071
2957.69	0.077
2966.04	0.117
2974.39	0.218
2982.74	0.348
2991.08	0.448
2999.43	0.523
3007.78	0.553
3016.13	0.554
3024.48	0.535
3032.83	0.525
3041.18	0.529
3049.53	0.571
3057.88	0.62
3066.23	0.642
3074.58	0.655
3082.93	0.658
3091.27	0.659
3099.62	0.655
3107.97	0.644
3116.32	0.634
3124.67	0.614
3133.02	0.586
3141.37	0.564
3149.72	0.546
3158.07	0.533
3166.42	0.511
3174.77	0.484
3183.12	0.46
3191.46	0.457
3199.81	0.457
3208.16	0.462
3216.51	0.469
3224.86	0.463
3233.21	0.449
3241.56	0.417
3249.91	0.379
3258.26	0.338
3266.61	0.301
3274.96	0.252
3283.3	0.2
3291.65	0.161
3300	0.114
3308.35	0.098
3316.7	0.093
3325.05	0.1
3333.4	0.124
3341.75	0.177
3350.1	0.274
3358.45	0.382
3366.8	0.492
3375.15	0.574
3383.49	0.634
3391.84	0.689
3400.19	0.724
3408.54	0.753
3416.89	0.773
3425.24	0.791
3433.59	0.803
3441.94	0.816
3450.29	0.822
3458.64	0.823
3466.99	0.823
3475.34	0.831
3483.68	0.838
3492.03	0.84
