Infrared Spectrum: Ethyl L-lactate
Formula: C 5 H 10 O 3
CAS: 687-47-8
State: gas
Origin: EPA-IR VAPOR PHASE LIBRARY
1/CM	ABSORBANCE
549.9	0.00508
559.547	0.00501
569.193	0.00469
578.84	0.00482
588.486	0.00483
598.133	0.00489
607.779	0.00507
617.426	0.00547
627.072	0.00607
636.719	0.00681
646.365	0.00735
656.012	0.00677
665.658	0.00548
675.305	0.00447
684.951	0.00403
694.598	0.00368
704.245	0.00357
713.891	0.00344
723.538	0.00353
733.184	0.00404
742.831	0.00501
752.477	0.00636
762.124	0.00702
771.77	0.00669
781.417	0.00595
791.063	0.00515
800.71	0.00455
810.356	0.00407
820.003	0.00402
829.649	0.00467
839.296	0.00614
848.943	0.00869
858.589	0.01046
868.236	0.00986
877.882	0.00723
887.529	0.00514
897.175	0.00456
906.822	0.00546
916.468	0.00781
926.115	0.00934
935.761	0.00855
945.408	0.00621
955.054	0.00488
964.701	0.00475
974.347	0.00538
983.994	0.00711
993.64	0.01092
1003.29	0.01865
1012.93	0.02993
1022.58	0.0394
1032.23	0.04534
1041.87	0.04752
1051.52	0.04585
1061.17	0.03704
1070.81	0.03367
1080.46	0.03887
1090.11	0.04909
1099.75	0.06074
1109.4	0.07614
1119.05	0.10357
1128.69	0.13726
1138.34	0.1371
1147.99	0.09955
1157.63	0.06223
1167.28	0.05378
1176.92	0.05981
1186.57	0.07971
1196.22	0.11496
1205.86	0.15278
1215.51	0.16033
1225.16	0.12985
1234.8	0.09645
1244.45	0.09297
1254.1	0.10156
1263.74	0.09907
1273.39	0.08087
1283.04	0.05825
1292.68	0.0416
1302.33	0.03243
1311.98	0.02608
1321.62	0.02041
1331.27	0.01692
1340.92	0.01532
1350.56	0.01549
1360.21	0.01932
1369.86	0.02702
1379.5	0.03039
1389.15	0.02569
1398.79	0.01882
1408.44	0.01596
1418.09	0.0143
1427.73	0.01354
1437.38	0.01464
1447.03	0.0174
1456.67	0.01953
1466.32	0.01886
1475.97	0.01552
1485.61	0.01085
1495.26	0.00738
1504.91	0.00546
1514.55	0.00444
1524.2	0.00384
1533.85	0.0036
1543.49	0.0033
1553.14	0.00308
1562.79	0.00294
1572.43	0.0028
1582.08	0.00266
1591.73	0.0025118
1601.37	0.0024275
1611.02	0.0023681
1620.67	0.0024071
1630.31	0.0024597
1639.96	0.0024845
1649.6	0.00267
1659.25	0.00293
1668.9	0.0036
1678.54	0.00472
1688.19	0.00647
1697.84	0.00923
1707.48	0.01373
1717.13	0.024
1726.78	0.04886
1736.42	0.09634
1746.07	0.14065
1755.72	0.15026
1765.36	0.10761
1775.01	0.05888
1784.66	0.02765
1794.3	0.0146
1803.95	0.00936
1813.6	0.00633
1823.24	0.00432
1832.89	0.00319
1842.54	0.00265
1852.18	0.0023449
1861.83	0.002296
1871.47	0.0023231
1881.12	0.0023709
1890.77	0.0022772
1900.41	0.0021111
1910.06	0.0018752
1919.71	0.00165839
1929.35	0.0015946
1939	0.001477
1948.65	0.00145
1958.29	0.001479
1967.94	0.001429
1977.59	0.00143
1987.23	0.001343
1996.88	0.00135
2006.53	0.001345
2016.17	0.001335
2025.82	0.001366
2035.47	0.001464
2045.11	0.001528
2054.76	0.00166722
2064.41	0.0017657
2074.05	0.00172599
2083.7	0.00167619
2093.35	0.001493
2102.99	0.00129
2112.64	0.001192
2122.28	0.001072
2131.93	0.001091
2141.58	0.001013
2151.22	0.000989
2160.87	0.000937
2170.52	0.00089
2180.16	0.000836
2189.81	0.000797
2199.46	0.000758
2209.1	0.0008
2218.75	0.000867
2228.4	0.000974
2238.04	0.000962
2247.69	0.001006
2257.34	0.001033
2266.98	0.000954
2276.63	0.000883
2286.28	0.000922
2295.92	0.000996
2305.57	0.000985
2315.22	0.001014
2324.86	0.001017
2334.51	0.001121
2344.16	0.001061
2353.8	0.001078
2363.45	0.001113
2373.09	0.001079
2382.74	0.001193
2392.39	0.001198
2402.03	0.00123
2411.68	0.00122
2421.33	0.001205
2430.97	0.001093
2440.62	0.000966
2450.27	0.000909
2459.91	0.000908
2469.56	0.000857
2479.21	0.000849
2488.85	0.0008
2498.5	0.000853
2508.15	0.000893
2517.79	0.000793
2527.44	0.000825
2537.09	0.000819
2546.73	0.000737
2556.38	0.000756
2566.03	0.000677
2575.67	0.00064
2585.32	0.000762
2594.96	0.000792
2604.61	0.000849
2614.26	0.000786
2623.9	0.000724
2633.55	0.00063
2643.2	0.00056
2652.84	0.00052
2662.49	0.00049
2672.14	0.00047
2681.78	0.00047
2691.43	0.00043
2701.08	0.00049
2710.72	0.00048
2720.37	0.000663
2730.02	0.000718
2739.66	0.000832
2749.31	0.000891
2758.96	0.001014
2768.6	0.001223
2778.25	0.001525
2787.9	0.00164978
2797.54	0.001882
2807.19	0.002207
2816.84	0.00278
2826.48	0.00324
2836.13	0.00395
2845.77	0.00472
2855.42	0.00598
2865.07	0.00771
2874.71	0.0106
2884.36	0.01397
2894.01	0.01668
2903.65	0.01873
2913.3	0.0197
2922.95	0.02005
2932.59	0.02377
2942.24	0.02874
2951.89	0.02903
2961.53	0.02731
2971.18	0.03458
2980.83	0.05313
2990.47	0.06593
3000.12	0.05555
3009.77	0.03241
3019.41	0.01591
3029.06	0.00846
3038.71	0.00495
3048.35	0.00307
3058	0.0019753
3067.64	0.001401
3077.29	0.00116
3086.94	0.000934
3096.58	0.000932
3106.23	0.001005
3115.88	0.000982
3125.52	0.000666
3135.17	0.000691
3144.82	0.000771
3154.46	0.0005
3164.11	0.00041
3173.76	0.00033
3183.4	0.00042
3193.05	0.00038
3202.7	0.00047
3212.34	0.00044
3221.99	0.00048
3231.64	0.00038
3241.28	0.00026
3250.93	0.00031
3260.58	0.00013
3270.22	6e-05
3279.87	0.00014
3289.52	0.00014
3299.16	0.0002
3308.81	0.0003
3318.45	0.00021
3328.1	0.00011
3337.75	0.00017
3347.39	0.00028
3357.04	0.00031
3366.69	0.00039
3376.33	0.00043
3385.98	0.000703
3395.63	0.00064
3405.27	0.000751
3414.92	0.00049
3424.57	0.000687
3434.21	0.000727
3443.86	0.000977
3453.51	0.00112
3463.15	0.001462
3472.8	0.001919
3482.45	0.0019043
3492.09	0.0019386
3501.74	0.0018823
3511.39	0.0018659
3521.03	0.0019461
3530.68	0.0023044
3540.33	0.00322
3549.97	0.00609
3559.62	0.01168
3569.26	0.01811
3578.91	0.02061
3588.56	0.0179
3598.2	0.013
3607.85	0.0087
3617.5	0.00635
3627.14	0.00723
3636.79	0.00913
3646.44	0.00822
3656.08	0.00488
3665.73	0.0026072
3675.38	0.0017896
3685.02	0.001454
3694.67	0.001346
3704.32	0.001007
3713.96	0.000893
3723.61	0.001013
3733.26	0.000971
3742.9	0.00081
3752.55	0.000877
3762.2	0.000884
3771.84	0.000799
3781.49	0.000945
3791.13	0.000963
3800.78	0.001191
3810.43	0.001174
3820.07	0.001172
3829.72	0.00107
3839.37	0.001218
3849.01	0.001035
3858.66	0.001195
3868.31	0.001082
3877.95	0.000988
3887.6	0.001198
3897.25	0.001124
3906.89	0.001298
3916.54	0.001286
3926.19	0.001291
3935.83	0.001133
3945.48	0.001114
3955.13	0.000859
3964.77	0.000887
3974.42	0.00101
3984.07	0.000975
3993.71	0.000975
