Infrared Spectrum: 2-Methylindoline
Formula: C 9 H 11 N
CAS: 6872-06-6
State: gas
Instrument: HP-GC/MS/IRD
Origin: NIST Mass Spectrometry Data Center
1/CM	ABSORBANCE
550	0.0073152
562	0.0062832
574	0.0080592
586	0.0080976
598	0.0069264
610	0.0060144
622	0.004776
634	0.003264
646	0.0034032
658	0.0048144
670	0.0058992
682	0.005832
694	0.0073152
706	0.0120864
718	0.0189552
730	0.0295536
742	0.0426816
754	0.02448
766	0.0082608
778	0.0028368
790	0.0013296
802	0.0009024
814	0.000744
826	0.0012384
838	0.0022944
850	0.002832
862	0.003168
874	0.0029232
886	0.001464
898	0.0012384
910	0.0017136
922	0.0022608
934	0.0035136
946	0.003264
958	0.0012528
970	0.0004176
982	0.00024
994	0.000264
1006	0.002424
1018	0.0054624
1030	0.003408
1042	0.0013824
1054	0.0011184
1066	0.0014256
1078	0.0036144
1090	0.0062832
1102	0.00624
1114	0.0047664
1126	0.0036576
1138	0.0036336
1150	0.0033456
1162	0.003072
1174	0.002088
1186	0.0016368
1198	0.002232
1210	0.0046848
1222	0.012096
1234	0.0340128
1246	0.0436608
1258	0.0208128
1270	0.0082608
1282	0.0055776
1294	0.0053136
1306	0.0106752
1318	0.0115008
1330	0.007536
1342	0.0090528
1354	0.010368
1366	0.0113424
1378	0.0193152
1390	0.0236784
1402	0.016416
1414	0.0066864
1426	0.004296
1438	0.0072336
1450	0.014928
1462	0.0329136
1474	0.046632
1486	0.0434976
1498	0.0228
1510	0.0049584
1522	0.0016992
1534	0.0010896
1546	0.0016224
1558	0.0023952
1570	0.0040176
1582	0.0075312
1594	0.0153456
1606	0.030672
1618	0.0234048
1630	0.0060048
1642	0.0022272
1654	0.001584
1666	0.0013008
1678	0.0010752
1690	0.0006576
1702	0.0002736
1714	0.000144
1726	0.000264
1738	0.0005616
1750	0.0008496
1762	0.000888
1774	0.0006576
1786	0.0006096
1798	0.0006672
1810	0.0005136
1822	0.000504
1834	0.0005472
1846	0.000744
1858	0.0010608
1870	0.00132
1882	0.0010992
1894	0.000816
1906	0.0013104
1918	0.0011952
1930	0.0002064
1942	4.8e-06
1954	1.92e-05
1966	7.2e-05
1978	3.84e-05
1990	5.76e-05
2002	4.32e-05
2014	1.92e-05
2026	6.72e-05
2038	7.2e-05
2050	5.76e-05
2062	4.32e-05
2074	9.6e-05
2086	0.0001344
2098	0.0001968
2110	0.0002352
2122	0.0002016
2134	0.000168
2146	0.000192
2158	0.000192
2170	0.0002208
2182	0.0002496
2194	0.0002352
2206	0.0002208
2218	0.0001872
2230	0.000192
2242	0.000216
2254	0.0001872
2266	0.0002256
2278	0.0002496
2290	0.0002784
2302	0.0003696
2314	0.0004368
2326	0.000408
2338	0.0003456
2350	0.0002784
2362	0.0002016
2374	0.0001968
2386	0.0002016
2398	0.0002256
2410	0.0003072
2422	0.0003792
2434	0.00036
2446	0.0003552
2458	0.0004464
2470	0.0007056
2482	0.000792
2494	0.0005616
2506	0.0004512
2518	0.0003888
2530	0.0004224
2542	0.0005664
2554	0.0007344
2566	0.000792
2578	0.0008544
2590	0.001032
2602	0.0011328
2614	0.0011232
2626	0.001152
2638	0.001152
2650	0.0012048
2662	0.0012432
2674	0.0014352
2686	0.0014352
2698	0.0011328
2710	0.0010368
2722	0.0010272
2734	0.001128
2746	0.0011904
2758	0.0012
2770	0.001344
2782	0.001584
2794	0.0020208
2806	0.0026208
2818	0.0036816
2830	0.0064992
2842	0.0127488
2854	0.0186672
2866	0.0180624
2878	0.0161616
2890	0.0151008
2902	0.0166608
2914	0.0201456
2926	0.0270816
2938	0.031296
2950	0.0291408
2962	0.0401568
2974	0.0409872
2986	0.0161184
2998	0.0057888
3010	0.006168
3022	0.011832
3034	0.0167424
3046	0.0178848
3058	0.0190992
3070	0.0188928
3082	0.01392
3094	0.0086832
3106	0.00408
3118	0.0020208
3130	0.001008
3142	0.0006672
3154	0.0006288
3166	0.0006432
3178	0.0006912
3190	0.0008256
3202	0.0008448
3214	0.0007824
3226	0.000504
3238	0.0002928
3250	0.0001824
3262	0.0001584
3274	0.0001104
3286	0.00012
3298	0.0001488
3310	0.0001152
3322	0.0002064
3334	0.0001248
3346	0.0002064
3358	0.00024
3370	0.000336
3382	0.0006048
3394	0.001656
3406	0.0040704
3418	0.0044112
3430	0.0022032
3442	0.000888
3454	0.0005136
3466	0.0004656
3478	0.0005472
3490	0.0006672
3502	0.0007104
3514	0.0005856
3526	0.0003072
3538	0.0001968
3550	0.00024
3562	0.0001968
3574	0.0001776
3586	0.000216
3598	0.000216
3610	0.0002496
3622	0.0002592
3634	0.00024
3646	0.0002256
3658	0.000288
3670	0.00036
3682	0.0002688
3694	0.0002928
3706	0.00036
3718	0.0003024
3730	0.0002928
3742	0.000336
3754	0.0003696
3766	0.0003408
3778	0.0003168
3790	0.00036
3802	0.0004128
3814	0.00036
3826	0.0004848
3838	0.0003984
