Infrared Spectrum: Alpha CIS OCIMENE
Formula: C10 H16
CAS: 6874-44-8
Class: COBLENTZ
Instrument: Not specified, most likely a prism, grating, or hybrid spectrometer.
Sampling: TRANSMISSION
Resolution: 4
Origin: INTERNATIONAL FLAVORS & FRAGRANCES, INC.
MICROMETERS	TRANSMITTANCE
2.005	0.864
2.04198	0.867
2.07895	0.868
2.11593	0.864
2.1529	0.864
2.18988	0.8542
2.22686	0.8491
2.26383	0.817
2.30081	0.8194
2.33778	0.846
2.37476	0.857
2.41174	0.8662
2.44871	0.863
2.48569	0.875
2.52267	0.8761
2.55964	0.8856
2.59662	0.9036
2.63359	0.9
2.67057	0.906
2.70755	0.915
2.74452	0.9139
2.7815	0.9129
2.81847	0.914
2.85545	0.914
2.89243	0.906
2.9294	0.9092
2.96638	0.914
3.00335	0.912
3.04033	0.913
3.07731	0.912
3.11428	0.8896
3.15126	0.8393
3.18824	0.4354
3.22521	0.6511
3.26219	0.4803
3.29916	0.2637
3.33614	0.2259
3.37312	0.1951
3.41009	0.2808
3.44707	0.3288
3.48404	0.6062
3.52102	0.7938
3.558	0.8591
3.59497	0.8849
3.63195	0.8553
3.66892	0.906
3.7059	0.9179
3.74288	0.929
3.77985	0.9392
3.81683	0.9481
3.85381	0.954
3.89078	0.956
3.92776	0.956
3.96473	0.956
4.00171	0.957
4.03869	0.958
4.07566	0.9648
4.11264	0.968
4.14961	0.966
4.18659	0.9669
4.22357	0.9711
4.26054	0.971
4.29752	0.9709
4.33449	0.974
4.37147	0.974
4.40845	0.974
4.44542	0.974
4.4824	0.974
4.51937	0.974
4.55635	0.974
4.59333	0.974
4.6303	0.974
4.66728	0.974
4.70426	0.974
4.74123	0.974
4.77821	0.974
4.81518	0.974
4.85216	0.974
4.88914	0.974
4.92611	0.974
4.96309	0.974
5.00006	0.973
5.03704	0.974
5.07402	0.974
5.11099	0.974
5.14797	0.974
5.18494	0.974
5.22192	0.974
5.2589	0.9689
5.29587	0.968
5.33285	0.972
5.36983	0.972
5.4068	0.9494
5.44378	0.8793
5.48075	0.7775
5.51773	0.8059
5.55471	0.836
5.59168	0.8543
5.62866	0.8959
5.66563	0.919
5.70261	0.9136
5.73959	0.905
5.77656	0.8791
5.81354	0.8741
5.85051	0.894
5.88749	0.8775
5.92447	0.8389
5.96144	0.7941
5.99842	0.5506
6.0354	0.4225
6.07237	0.6972
6.10935	0.7887
6.14632	0.818
6.1833	0.6961
6.22028	0.5152
6.25725	0.6892
6.29423	0.7932
6.3312	0.8529
6.36818	0.8825
6.40516	0.8952
6.44213	0.899
6.47911	0.904
6.51608	0.905
6.55306	0.8968
6.59004	0.882
6.62701	0.8762
6.66399	0.8606
6.70097	0.8291
6.73794	0.7678
6.77492	0.5925
6.81189	0.3504
6.84887	0.2835
6.88585	0.2615
6.92282	0.2848
6.9598	0.3652
6.99677	0.39
7.03375	0.5255
7.07073	0.6522
7.1077	0.7185
7.14468	0.748
7.18165	0.7107
7.21863	0.4396
7.25561	0.4277
7.29258	0.6863
7.32956	0.7749
7.36653	0.7912
7.40351	0.8163
7.44049	0.8513
7.47746	0.8526
7.51444	0.8492
7.55142	0.859
7.58839	0.8554
7.62537	0.844
7.66234	0.846
7.69932	0.8412
7.7363	0.821
7.77327	0.817
7.81025	0.7852
7.84722	0.7746
7.8842	0.8298
7.92118	0.849
7.95815	0.843
7.99513	0.84
8.0321	0.8326
8.06908	0.8333
8.10606	0.8497
8.14303	0.872
8.18001	0.8781
8.21699	0.859
8.25396	0.846
8.29094	0.8581
8.32791	0.8777
8.36489	0.9013
8.40187	0.9166
8.43884	0.927
8.47582	0.927
8.51279	0.9154
8.54977	0.8987
8.58675	0.8721
8.62372	0.859
8.6607	0.859
8.69767	0.8695
8.73465	0.8926
8.77163	0.9094
8.8086	0.913
8.84558	0.918
8.88256	0.915
8.91953	0.9134
8.95651	0.8959
8.99348	0.8614
9.03046	0.6966
9.06744	0.4813
9.10441	0.4967
9.14139	0.6517
9.17836	0.7554
9.21534	0.8192
9.25232	0.8513
9.28929	0.8715
9.32627	0.882
9.36324	0.8843
9.40022	0.883
9.4372	0.869
9.47417	0.8484
9.51115	0.8003
9.54812	0.7464
9.5851	0.725
9.62208	0.7086
9.65905	0.7008
9.69603	0.7654
9.73301	0.7892
9.76998	0.8061
9.80696	0.816
9.84393	0.8218
9.88091	0.8224
9.91789	0.8115
9.95486	0.7871
9.99184	0.7511
10.0288	0.6527
10.0658	0.4607
10.1028	0.264
10.1397	0.3408
10.1767	0.5376
10.2137	0.6787
10.2507	0.7435
10.2876	0.7843
10.3246	0.8005
10.3616	0.8161
10.3986	0.831
10.4356	0.8408
10.4725	0.845
10.5095	0.8536
10.5465	0.86
10.5835	0.866
10.6204	0.869
10.6574	0.862
10.6944	0.8529
10.7314	0.841
10.7683	0.8176
10.8053	0.7883
10.8423	0.7398
10.8793	0.6633
10.9162	0.5711
10.9532	0.4434
10.9902	0.3084
11.0272	0.2304
11.0641	0.2122
11.1011	0.207
11.1381	0.2105
11.1751	0.212
11.212	0.205
11.249	0.202
11.286	0.2022
11.323	0.2258
11.36	0.2956
11.3969	0.3961
11.4339	0.4991
11.4709	0.5879
11.5079	0.6407
11.5448	0.6859
11.5818	0.7041
11.6188	0.706
11.6558	0.7021
11.6927	0.699
11.7297	0.7068
11.7667	0.7201
11.8037	0.728
11.8406	0.73
11.8776	0.729
11.9146	0.7245
11.9516	0.721
11.9885	0.719
12.0255	0.7122
12.0625	0.7007
12.0995	0.6845
12.1365	0.682
12.1734	0.6969
12.2104	0.729
12.2474	0.7698
12.2844	0.8091
12.3213	0.8437
12.3583	0.8676
12.3953	0.885
12.4323	0.9035
12.4692	0.916
12.5062	0.9203
12.5432	0.928
12.5802	0.934
12.6171	0.935
12.6541	0.936
12.6911	0.9378
12.7281	0.939
12.765	0.938
12.802	0.938
12.839	0.938
12.876	0.937
12.913	0.936
12.9499	0.936
12.9869	0.938
13.0239	0.937
13.0609	0.938
13.0978	0.938
13.1348	0.938
13.1718	0.935
13.2088	0.9307
13.2457	0.916
13.2827	0.9034
13.3197	0.8905
13.3567	0.8589
13.3936	0.841
13.4306	0.83
13.4676	0.8295
13.5046	0.8422
13.5415	0.854
13.5785	0.8668
13.6155	0.8788
13.6525	0.89
13.6894	0.894
13.7264	0.8965
13.7634	0.9
13.8004	0.901
13.8374	0.9
13.8743	0.898
13.9113	0.891
13.9483	0.8823
13.9853	0.87
14.0222	0.8625
14.0592	0.8457
14.0962	0.826
14.1332	0.821
14.1701	0.8137
14.2071	0.809
14.2441	0.809
14.2811	0.804
14.318	0.7938
14.355	0.7831
14.392	0.7667
14.429	0.7578
14.4659	0.7449
14.5029	0.744
14.5399	0.7478
14.5769	0.7598
14.6139	0.7773
14.6508	0.787
14.6878	0.809
14.7248	0.819
14.7618	0.8297
14.7987	0.834
14.8357	0.842
14.8727	0.844
14.9097	0.846
14.9466	0.847
14.9836	0.8524
