Infrared Spectrum: 2,6-DIMETHYL 4,6-OCTADIENE (TRANS)
Formula: C10 H18
CAS: 6874-39-1
Class: COBLENTZ
Instrument: Not specified, most likely a prism, grating, or hybrid spectrometer.
Sampling: TRANSMISSION
Resolution: 4
Origin: INTERNATIONAL FLAVORS & FRAGRANCES, INC.
MICROMETERS	TRANSMITTANCE
2.06	0.909
2.09711	0.909
2.13421	0.909
2.17132	0.909
2.20842	0.909
2.24553	0.883
2.28263	0.85
2.31974	0.851
2.35684	0.86
2.39395	0.866
2.43105	0.873
2.46816	0.88
2.50526	0.888
2.54237	0.896
2.57947	0.899
2.61658	0.9
2.65369	0.909
2.69079	0.912
2.7279	0.914
2.765	0.915
2.80211	0.917
2.83921	0.915
2.87632	0.917
2.91342	0.917
2.95053	0.918
2.98763	0.918
3.02474	0.915
3.06184	0.911
3.09895	0.891
3.13605	0.886
3.17316	0.866
3.21027	0.802
3.24737	0.628
3.28448	0.316
3.32158	0.165
3.35869	0.114
3.39579	0.111
3.4329	0.131
3.47	0.258
3.50711	0.458
3.54421	0.66
3.58132	0.753
3.61842	0.798
3.65553	0.807
3.69263	0.851
3.72974	0.87
3.76685	0.871
3.80395	0.876
3.84106	0.882
3.87816	0.886
3.91527	0.896
3.95237	0.9
3.98948	0.906
4.02658	0.906
4.06369	0.906
4.10079	0.908
4.1379	0.908
4.175	0.908
4.21211	0.925
4.24921	0.926
4.28632	0.934
4.32343	0.934
4.36053	0.932
4.39764	0.932
4.43474	0.932
4.47185	0.932
4.50895	0.932
4.54606	0.932
4.58316	0.932
4.62027	0.932
4.65737	0.932
4.69448	0.932
4.73158	0.932
4.76869	0.932
4.8058	0.932
4.8429	0.931
4.88001	0.932
4.91711	0.932
4.95422	0.932
4.99132	0.932
5.02843	0.932
5.06553	0.932
5.10264	0.932
5.13974	0.932
5.17685	0.932
5.21395	0.932
5.25106	0.929
5.28816	0.918
5.32527	0.908
5.36238	0.889
5.39948	0.886
5.43659	0.885
5.47369	0.879
5.5108	0.879
5.5479	0.883
5.58501	0.886
5.62211	0.896
5.65922	0.896
5.69632	0.88
5.73343	0.874
5.77053	0.877
5.80764	0.886
5.84474	0.896
5.88185	0.897
5.91896	0.891
5.95606	0.871
5.99317	0.784
6.03027	0.753
6.06738	0.773
6.10448	0.743
6.14159	0.822
6.17869	0.827
6.2158	0.822
6.2529	0.825
6.29001	0.833
6.32711	0.842
6.36422	0.845
6.40132	0.848
6.43843	0.847
6.47554	0.847
6.51264	0.84
6.54975	0.833
6.58685	0.822
6.62396	0.805
6.66106	0.776
6.69817	0.704
6.73527	0.532
6.77238	0.253
6.80948	0.238
6.84659	0.293
6.88369	0.296
6.9208	0.301
6.9579	0.429
6.99501	0.533
7.03212	0.622
7.06922	0.642
7.10633	0.634
7.14343	0.498
7.18054	0.322
7.21764	0.296
7.25475	0.458
7.29185	0.368
7.32896	0.631
7.36606	0.662
7.40317	0.654
7.44027	0.659
7.47738	0.672
7.51448	0.733
7.55159	0.761
7.5887	0.761
7.6258	0.758
7.66291	0.756
7.70001	0.77
7.73712	0.814
7.77422	0.827
7.81133	0.828
7.84843	0.799
7.88554	0.792
7.92264	0.805
7.95975	0.84
7.99685	0.85
8.03396	0.853
8.07106	0.834
8.10817	0.792
8.14528	0.79
8.18238	0.79
8.21949	0.796
8.25659	0.837
8.2937	0.853
8.3308	0.863
8.36791	0.868
8.40501	0.87
8.44212	0.866
8.47922	0.824
8.51633	0.741
8.55343	0.579
8.59054	0.643
8.62764	0.752
8.66475	0.805
8.70186	0.828
8.73896	0.839
8.77607	0.842
8.81317	0.814
8.85028	0.808
8.88738	0.811
8.92449	0.816
8.96159	0.799
8.9987	0.733
9.0358	0.723
9.07291	0.769
9.11001	0.782
9.14712	0.778
9.18422	0.775
9.22133	0.778
9.25844	0.792
9.29554	0.813
9.33265	0.831
9.36975	0.837
9.40686	0.842
9.44396	0.845
9.48107	0.844
9.51817	0.833
9.55528	0.795
9.59238	0.732
9.62949	0.629
9.66659	0.525
9.7037	0.463
9.74081	0.47
9.77791	0.568
9.81502	0.639
9.85212	0.733
9.88923	0.764
9.92633	0.764
9.96344	0.769
10.0005	0.775
10.0376	0.778
10.0748	0.764
10.1119	0.746
10.149	0.743
10.1861	0.72
10.2232	0.628
10.2603	0.493
10.2974	0.252
10.3345	0.142
10.3716	0.099
10.4087	0.103
10.4458	0.22
10.4829	0.396
10.52	0.515
10.5571	0.611
10.5942	0.646
10.6313	0.666
10.6684	0.669
10.7055	0.72
10.7426	0.767
10.7798	0.792
10.8169	0.793
10.854	0.769
10.8911	0.752
10.9282	0.79
10.9653	0.804
11.0024	0.81
11.0395	0.807
11.0766	0.793
11.1137	0.782
11.1508	0.755
11.1879	0.706
11.225	0.692
11.2621	0.691
11.2992	0.718
11.3363	0.747
11.3734	0.772
11.4105	0.81
11.4477	0.839
11.4848	0.859
11.5219	0.871
11.559	0.877
11.5961	0.879
11.6332	0.868
11.6703	0.839
11.7074	0.801
11.7445	0.782
11.7816	0.775
11.8187	0.778
11.8558	0.788
11.8929	0.796
11.93	0.799
11.9671	0.787
12.0042	0.758
12.0413	0.688
12.0784	0.577
12.1155	0.496
12.1527	0.423
12.1898	0.426
12.2269	0.525
12.264	0.629
12.3011	0.677
12.3382	0.7
12.3753	0.732
12.4124	0.779
12.4495	0.805
12.4866	0.821
12.5237	0.819
12.5608	0.807
12.5979	0.795
12.635	0.79
12.6721	0.787
12.7092	0.79
12.7463	0.793
12.7834	0.79
12.8205	0.752
12.8577	0.674
12.8948	0.599
12.9319	0.55
12.969	0.518
13.0061	0.516
13.0432	0.582
13.0803	0.646
13.1174	0.718
13.1545	0.761
13.1916	0.801
13.2287	0.831
13.2658	0.845
13.3029	0.862
13.34	0.882
13.3771	0.892
13.4142	0.897
13.4513	0.911
13.4884	0.917
13.5255	0.918
13.5627	0.92
13.5998	0.92
13.6369	0.923
13.674	0.923
13.7111	0.923
13.7482	0.923
13.7853	0.926
13.8224	0.926
13.8595	0.929
13.8966	0.929
13.9337	0.928
13.9708	0.928
14.0079	0.931
14.045	0.931
14.0821	0.931
14.1192	0.931
14.1563	0.931
14.1934	0.931
14.2306	0.931
14.2677	0.931
14.3048	0.931
14.3419	0.928
14.379	0.928
14.4161	0.929
14.4532	0.929
14.4903	0.928
14.5274	0.922
14.5645	0.922
14.6016	0.923
14.6387	0.918
14.6758	0.915
14.7129	0.905
14.75	0.908
14.7871	0.897
14.8242	0.902
14.8613	0.899
14.8984	0.896
14.9356	0.892
14.9727	0.886
15.0098	0.883
