Infrared Spectrum: 2,6-DIMETHYL 2,4-OCTADIENE
Formula: C10 H18
CAS: 6874-37-9
Class: COBLENTZ
Instrument: Not specified, most likely a prism, grating, or hybrid spectrometer.
Sampling: TRANSMISSION
Resolution: 4
Origin: INTERNATIONAL FLAVORS & FRAGRANCES, INC.
MICROMETERS	TRANSMITTANCE
2	0.935
2.0326	0.932
2.06521	0.929
2.09781	0.927
2.13042	0.924
2.16302	0.923
2.19562	0.923
2.22823	0.922
2.26083	0.899
2.29343	0.86
2.32604	0.839
2.35864	0.863
2.39125	0.885
2.42385	0.89
2.45645	0.895
2.48906	0.901
2.52166	0.907
2.55427	0.914
2.58687	0.915
2.61947	0.917
2.65208	0.92
2.68468	0.922
2.71729	0.929
2.74989	0.93
2.78249	0.931
2.8151	0.931
2.8477	0.93
2.8803	0.93
2.91291	0.928
2.94551	0.929
2.97812	0.928
3.01072	0.926
3.04332	0.917
3.07593	0.91
3.10853	0.895
3.14114	0.877
3.17374	0.871
3.20634	0.858
3.23895	0.803
3.27155	0.702
3.30416	0.374
3.33676	0.338
3.36936	0.167
3.40197	0.078
3.43457	0.083
3.46717	0.092
3.49978	0.136
3.53238	0.454
3.56499	0.661
3.59759	0.774
3.63019	0.805
3.6628	0.783
3.6954	0.836
3.72801	0.872
3.76061	0.891
3.79321	0.899
3.82582	0.905
3.85842	0.909
3.89103	0.913
3.92363	0.917
3.95623	0.917
3.98884	0.916
4.02144	0.92
4.05404	0.919
4.08665	0.917
4.11925	0.919
4.15186	0.916
4.18446	0.916
4.21706	0.917
4.24967	0.919
4.28227	0.92
4.31488	0.921
4.34748	0.922
4.38008	0.924
4.41269	0.929
4.44529	0.936
4.4779	0.942
4.5105	0.942
4.5431	0.942
4.57571	0.942
4.60831	0.943
4.64091	0.942
4.67352	0.944
4.70612	0.946
4.73873	0.947
4.77133	0.949
4.80393	0.95
4.83654	0.95
4.86914	0.949
4.90175	0.949
4.93435	0.947
4.96695	0.947
4.99956	0.947
5.03216	0.95
5.06477	0.95
5.09737	0.95
5.12997	0.947
5.16258	0.949
5.19518	0.949
5.22778	0.949
5.26039	0.95
5.29299	0.946
5.3256	0.945
5.3582	0.937
5.3908	0.93
5.42341	0.923
5.45601	0.921
5.48862	0.921
5.52122	0.919
5.55382	0.913
5.58643	0.909
5.61903	0.907
5.65164	0.907
5.68424	0.904
5.71684	0.899
5.74945	0.894
5.78205	0.894
5.81465	0.894
5.84726	0.893
5.87986	0.891
5.91247	0.885
5.94507	0.865
5.97767	0.787
6.01028	0.787
6.04288	0.833
6.07549	0.862
6.10809	0.826
6.14069	0.759
6.1733	0.794
6.2059	0.856
6.23851	0.872
6.27111	0.875
6.30371	0.873
6.33632	0.869
6.36892	0.865
6.40152	0.857
6.43413	0.852
6.46673	0.843
6.49934	0.834
6.53194	0.826
6.56454	0.818
6.59715	0.806
6.62975	0.795
6.66236	0.78
6.69496	0.754
6.72756	0.687
6.76017	0.554
6.79277	0.255
6.82538	0.191
6.85798	0.176
6.89058	0.201
6.92319	0.319
6.95579	0.402
6.98839	0.507
7.021	0.596
7.0536	0.638
7.08621	0.662
7.11881	0.663
7.15141	0.64
7.18402	0.47
7.21662	0.255
7.24923	0.211
7.28183	0.323
7.31443	0.388
7.34704	0.449
7.37964	0.552
7.41225	0.615
7.44485	0.621
7.47745	0.652
7.51006	0.654
7.54266	0.656
7.57526	0.677
7.60787	0.687
7.64047	0.714
7.67308	0.736
7.70568	0.723
7.73828	0.726
7.77089	0.753
7.80349	0.772
7.8361	0.769
7.8687	0.759
7.9013	0.771
7.93391	0.794
7.96651	0.802
7.99912	0.805
8.03172	0.819
8.06432	0.828
8.09693	0.836
8.12953	0.846
8.16213	0.853
8.19474	0.86
8.22734	0.862
8.25995	0.861
8.29255	0.852
8.32515	0.769
8.35776	0.716
8.39036	0.75
8.42297	0.813
8.45557	0.831
8.48817	0.83
8.52078	0.816
8.55338	0.787
8.58599	0.778
8.61859	0.782
8.65119	0.791
8.6838	0.803
8.7164	0.81
8.749	0.816
8.78161	0.827
8.81421	0.839
8.84682	0.828
8.87942	0.815
8.91202	0.794
8.94463	0.787
8.97723	0.783
9.00984	0.784
9.04244	0.795
9.07504	0.794
9.10765	0.779
9.14025	0.76
9.17286	0.736
9.20546	0.729
9.23806	0.76
9.27067	0.771
9.30327	0.767
9.33587	0.756
9.36848	0.742
9.40108	0.742
9.43369	0.765
9.46629	0.784
9.49889	0.8
9.5315	0.801
9.5641	0.783
9.59671	0.745
9.62931	0.691
9.66191	0.705
9.69452	0.721
9.72712	0.734
9.75972	0.736
9.79233	0.729
9.82493	0.716
9.85754	0.684
9.89014	0.663
9.92274	0.654
9.95535	0.642
9.98795	0.631
10.0206	0.605
10.0532	0.55
10.0858	0.341
10.1184	0.278
10.151	0.297
10.1836	0.335
10.2162	0.376
10.2488	0.323
10.2814	0.278
10.314	0.216
10.3466	0.126
10.3792	0.094
10.4118	0.094
10.4444	0.106
10.477	0.186
10.5096	0.32
10.5422	0.412
10.5748	0.51
10.6074	0.571
10.64	0.643
10.6726	0.699
10.7052	0.729
10.7378	0.764
10.7704	0.767
10.803	0.757
10.8357	0.723
10.8683	0.706
10.9009	0.72
10.9335	0.752
10.9661	0.793
10.9987	0.823
11.0313	0.843
11.0639	0.852
11.0965	0.857
11.1291	0.857
11.1617	0.853
11.1943	0.845
11.2269	0.833
11.2595	0.818
11.2921	0.801
11.3247	0.705
11.3573	0.604
11.3899	0.625
11.4225	0.655
11.4551	0.633
11.4877	0.523
11.5203	0.527
11.5529	0.62
11.5855	0.709
11.6181	0.746
11.6508	0.795
11.6834	0.805
11.716	0.808
11.7486	0.804
11.7812	0.808
11.8138	0.815
11.8464	0.819
11.879	0.825
11.9116	0.831
11.9442	0.835
11.9768	0.836
12.0094	0.834
12.042	0.827
12.0746	0.818
12.1072	0.809
12.1398	0.795
12.1724	0.788
12.205	0.784
12.2376	0.786
12.2702	0.788
12.3028	0.794
12.3354	0.801
12.368	0.806
12.4006	0.817
12.4332	0.827
12.4658	0.835
12.4985	0.841
12.5311	0.843
12.5637	0.842
12.5963	0.838
12.6289	0.83
12.6615	0.809
12.6941	0.787
12.7267	0.779
12.7593	0.775
12.7919	0.768
12.8245	0.754
12.8571	0.73
12.8897	0.7
12.9223	0.665
12.9549	0.657
12.9875	0.698
13.0201	0.745
13.0527	0.79
13.0853	0.826
13.1179	0.858
13.1505	0.875
13.1831	0.886
13.2157	0.893
13.2483	0.897
13.2809	0.9
13.3135	0.904
13.3462	0.908
13.3788	0.912
13.4114	0.914
13.444	0.917
13.4766	0.92
13.5092	0.922
13.5418	0.926
13.5744	0.927
13.607	0.929
13.6396	0.932
13.6722	0.935
13.7048	0.932
13.7374	0.932
13.77	0.934
13.8026	0.935
13.8352	0.936
13.8678	0.938
13.9004	0.941
13.933	0.944
13.9656	0.945
13.9982	0.947
14.0308	0.949
14.0634	0.95
14.096	0.951
14.1286	0.951
14.1612	0.951
14.1939	0.951
14.2265	0.95
14.2591	0.949
14.2917	0.946
14.3243	0.945
14.3569	0.944
14.3895	0.942
14.4221	0.938
14.4547	0.934
