Infrared Spectrum: 2,6-DIMETHYL 6(7)-OCTENE (CIS)
Formula: C10 H20
CAS: 6874-32-4
Class: COBLENTZ
Instrument: Not specified, most likely a prism, grating, or hybrid spectrometer.
Sampling: TRANSMISSION
Resolution: 4
Origin: INTERNATIONAL FLAVORS & FRAGRANCES, INC.
MICROMETERS	TRANSMITTANCE
2	0.936
2.03257	0.942
2.06514	0.946
2.09771	0.949
2.13028	0.949
2.16284	0.946
2.19541	0.945
2.22798	0.946
2.26055	0.934
2.29312	0.891
2.32569	0.861
2.35826	0.866
2.39083	0.876
2.4234	0.899
2.45596	0.905
2.48853	0.913
2.5211	0.923
2.55367	0.928
2.58624	0.929
2.61881	0.93
2.65138	0.936
2.68395	0.941
2.71652	0.944
2.74908	0.945
2.78165	0.946
2.81422	0.948
2.84679	0.95
2.87936	0.95
2.91193	0.945
2.9445	0.942
2.97707	0.938
3.00964	0.934
3.0422	0.929
3.07477	0.93
3.10734	0.929
3.13991	0.893
3.17248	0.883
3.20505	0.878
3.23762	0.863
3.27019	0.775
3.30276	0.513
3.33532	0.089
3.36789	0.083
3.40046	0.085
3.43303	0.096
3.4656	0.099
3.49817	0.275
3.53074	0.538
3.56331	0.657
3.59588	0.755
3.62844	0.799
3.66101	0.808
3.69358	0.808
3.72615	0.854
3.75872	0.869
3.79129	0.882
3.82386	0.883
3.85643	0.889
3.889	0.896
3.92156	0.908
3.95413	0.92
3.9867	0.925
4.01927	0.928
4.05184	0.929
4.08441	0.929
4.11698	0.929
4.14955	0.928
4.18212	0.927
4.21468	0.923
4.24725	0.923
4.27982	0.926
4.31239	0.926
4.34496	0.927
4.37753	0.929
4.4101	0.933
4.44267	0.936
4.47524	0.938
4.5078	0.94
4.54037	0.942
4.57294	0.943
4.60551	0.941
4.63808	0.941
4.67065	0.941
4.70322	0.938
4.73579	0.94
4.76836	0.941
4.80092	0.942
4.83349	0.94
4.86606	0.941
4.89863	0.94
4.9312	0.94
4.96377	0.941
4.99634	0.94
5.02891	0.942
5.06148	0.942
5.09405	0.94
5.12661	0.941
5.15918	0.941
5.19175	0.94
5.22432	0.94
5.25689	0.941
5.28946	0.937
5.32203	0.935
5.3546	0.934
5.38717	0.931
5.41973	0.929
5.4523	0.926
5.48487	0.926
5.51744	0.927
5.55001	0.926
5.58258	0.926
5.61515	0.926
5.64772	0.926
5.68029	0.927
5.71285	0.925
5.74542	0.915
5.77799	0.91
5.81056	0.906
5.84313	0.905
5.8757	0.899
5.90827	0.892
5.94084	0.861
5.97341	0.77
6.00597	0.836
6.03854	0.86
6.07111	0.859
6.10368	0.88
6.13625	0.89
6.16882	0.89
6.20139	0.889
6.23396	0.89
6.26653	0.884
6.29909	0.884
6.33166	0.881
6.36423	0.878
6.3968	0.87
6.42937	0.868
6.46194	0.861
6.49451	0.853
6.52708	0.846
6.55965	0.837
6.59221	0.824
6.62478	0.805
6.65735	0.784
6.68992	0.755
6.72249	0.72
6.75506	0.159
6.78763	0.143
6.8202	0.159
6.85277	0.216
6.88533	0.272
6.9179	0.356
6.95047	0.419
6.98304	0.545
7.01561	0.615
7.04818	0.663
7.08075	0.688
7.11332	0.697
7.14589	0.681
7.17845	0.35
7.21102	0.307
7.24359	0.316
7.27616	0.281
7.30873	0.389
7.3413	0.557
7.37387	0.612
7.40644	0.666
7.43901	0.703
7.47157	0.695
7.50414	0.711
7.53671	0.72
7.56928	0.731
7.60185	0.762
7.63442	0.787
7.66699	0.8
7.69956	0.807
7.73213	0.82
7.76469	0.833
7.79726	0.838
7.82983	0.84
7.8624	0.844
7.89497	0.848
7.92754	0.851
7.96011	0.85
7.99268	0.84
8.02525	0.836
8.05781	0.837
8.09038	0.837
8.12295	0.828
8.15552	0.816
8.18809	0.797
8.22066	0.785
8.25323	0.794
8.2858	0.814
8.31837	0.837
8.35093	0.845
8.3835	0.83
8.41607	0.811
8.44864	0.795
8.48121	0.775
8.51378	0.747
8.54635	0.688
8.57892	0.657
8.61149	0.767
8.64405	0.817
8.67662	0.837
8.70919	0.851
8.74176	0.854
8.77433	0.853
8.8069	0.845
8.83947	0.797
8.87204	0.705
8.90461	0.658
8.93717	0.693
8.96974	0.725
9.00231	0.753
9.03488	0.782
9.06745	0.791
9.10002	0.795
9.13259	0.8
9.16516	0.81
9.19773	0.83
9.23029	0.836
9.26286	0.826
9.29543	0.776
9.328	0.697
9.36057	0.708
9.39314	0.764
9.42571	0.799
9.45828	0.811
9.49085	0.811
9.52341	0.803
9.55598	0.794
9.58855	0.786
9.62112	0.778
9.65369	0.775
9.68626	0.776
9.71883	0.776
9.7514	0.777
9.78397	0.784
9.81653	0.797
9.8491	0.802
9.88167	0.807
9.91424	0.802
9.94681	0.793
9.97938	0.791
10.0119	0.793
10.0445	0.792
10.0771	0.791
10.1097	0.793
10.1422	0.798
10.1748	0.805
10.2074	0.81
10.2399	0.811
10.2725	0.811
10.3051	0.809
10.3376	0.811
10.3702	0.82
10.4028	0.823
10.4353	0.823
10.4679	0.818
10.5005	0.816
10.5331	0.824
10.5656	0.83
10.5982	0.835
10.6308	0.835
10.6633	0.831
10.6959	0.821
10.7285	0.821
10.761	0.828
10.7936	0.832
10.8262	0.832
10.8587	0.818
10.8913	0.792
10.9239	0.791
10.9564	0.821
10.989	0.848
11.0216	0.853
11.0542	0.845
11.0867	0.838
11.1193	0.841
11.1519	0.854
11.1844	0.853
11.217	0.824
11.2496	0.779
11.2821	0.764
11.3147	0.791
11.3473	0.821
11.3798	0.86
11.4124	0.87
11.445	0.869
11.4775	0.863
11.5101	0.847
11.5427	0.823
11.5753	0.786
11.6078	0.753
11.6404	0.716
11.673	0.67
11.7055	0.658
11.7381	0.655
11.7707	0.662
11.8032	0.668
11.8358	0.674
11.8684	0.677
11.9009	0.678
11.9335	0.682
11.9661	0.688
11.9987	0.694
12.0312	0.698
12.0638	0.698
12.0964	0.693
12.1289	0.682
12.1615	0.666
12.1941	0.645
12.2266	0.635
12.2592	0.628
12.2918	0.621
12.3243	0.613
12.3569	0.606
12.3895	0.606
12.422	0.629
12.4546	0.662
12.4872	0.704
12.5198	0.742
12.5523	0.772
12.5849	0.798
12.6175	0.817
12.65	0.823
12.6826	0.822
12.7152	0.817
12.7477	0.809
12.7803	0.805
12.8129	0.808
12.8454	0.821
12.878	0.831
12.9106	0.84
12.9431	0.848
12.9757	0.859
13.0083	0.868
13.0409	0.877
13.0734	0.886
13.106	0.896
13.1386	0.904
13.1711	0.912
13.2037	0.916
13.2363	0.92
13.2688	0.922
13.3014	0.923
13.334	0.925
13.3665	0.922
13.3991	0.919
13.4317	0.914
13.4643	0.907
13.4968	0.899
13.5294	0.886
13.562	0.873
13.5945	0.86
13.6271	0.851
13.6597	0.845
13.6922	0.846
13.7248	0.86
13.7574	0.873
13.7899	0.886
13.8225	0.9
13.8551	0.912
13.8876	0.92
13.9202	0.931
13.9528	0.942
13.9854	0.949
14.0179	0.955
14.0505	0.96
14.0831	0.965
14.1156	0.97
14.1482	0.973
14.1808	0.974
14.2133	0.975
14.2459	0.978
14.2785	0.978
14.311	0.979
14.3436	0.981
14.3762	0.983
14.4087	0.983
14.4413	0.985
14.4739	0.987
14.5065	0.99
14.539	0.993
14.5716	0.994
14.6042	0.994
14.6367	0.995
14.6693	0.996
14.7019	0.996
14.7344	0.996
14.767	0.996
14.7996	0.996
14.8321	0.996
14.8647	0.996
14.8973	0.996
14.9299	0.995
14.9624	0.993
14.995	0.991
