Infrared Spectrum: 2,6-DIMETHYL 1,6(7)-OCTADIENE (CIS)
Formula: C10 H18
CAS: 6874-34-6
Class: COBLENTZ
Instrument: Not specified, most likely a prism, grating, or hybrid spectrometer.
Sampling: TRANSMISSION
Resolution: 4
Origin: INTERNATIONAL FLAVORS & FRAGRANCES, INC.
MICROMETERS	TRANSMITTANCE
2	0.917
2.03722	0.919
2.07445	0.918
2.11167	0.917
2.14889	0.92
2.18611	0.921
2.22334	0.911
2.26056	0.865
2.29778	0.844
2.33501	0.869
2.37223	0.89
2.40945	0.897
2.44668	0.902
2.4839	0.906
2.52112	0.911
2.55834	0.919
2.59557	0.926
2.63279	0.927
2.67001	0.929
2.70724	0.925
2.74446	0.927
2.78168	0.926
2.81891	0.923
2.85613	0.919
2.89335	0.915
2.93057	0.915
2.9678	0.918
3.00502	0.919
3.04224	0.922
3.07947	0.918
3.11669	0.907
3.15391	0.866
3.19114	0.528
3.22836	0.579
3.26558	0.502
3.3028	0.235
3.34003	0.042
3.37725	0.035
3.41447	0.049
3.4517	0.059
3.48892	0.256
3.52614	0.672
3.56337	0.8
3.60059	0.83
3.63781	0.794
3.67503	0.872
3.71226	0.898
3.74948	0.912
3.7867	0.929
3.82393	0.94
3.86115	0.944
3.89837	0.95
3.9356	0.952
3.97282	0.953
4.01004	0.953
4.04726	0.957
4.08449	0.958
4.12171	0.958
4.15893	0.958
4.19616	0.959
4.23338	0.957
4.2706	0.953
4.30783	0.955
4.34505	0.961
4.38227	0.963
4.41949	0.963
4.45672	0.963
4.49394	0.966
4.53116	0.97
4.56839	0.971
4.60561	0.972
4.64283	0.975
4.68006	0.975
4.71728	0.976
4.7545	0.978
4.79172	0.979
4.82895	0.98
4.86617	0.982
4.90339	0.985
4.94062	0.985
4.97784	0.985
5.01506	0.986
5.05229	0.987
5.08951	0.988
5.12673	0.989
5.16395	0.989
5.20118	0.99
5.2384	0.988
5.27562	0.986
5.31285	0.982
5.35007	0.978
5.38729	0.975
5.42452	0.971
5.46174	0.966
5.49896	0.963
5.53618	0.928
5.57341	0.864
5.61063	0.869
5.64785	0.914
5.68508	0.938
5.7223	0.933
5.75952	0.925
5.79675	0.921
5.83397	0.919
5.87119	0.913
5.90841	0.898
5.94564	0.769
5.98286	0.766
6.02008	0.271
6.05731	0.46
6.09453	0.735
6.13175	0.813
6.16898	0.842
6.2062	0.855
6.24342	0.865
6.28064	0.867
6.31787	0.872
6.35509	0.875
6.39231	0.87
6.42954	0.864
6.46676	0.853
6.50398	0.845
6.5412	0.837
6.57843	0.827
6.61565	0.811
6.65287	0.791
6.6901	0.75
6.72732	0.685
6.76454	0.426
6.80177	0.158
6.83899	0.086
6.87621	0.095
6.91343	0.141
6.95066	0.307
6.98788	0.418
7.0251	0.544
7.06233	0.597
7.09955	0.634
7.13677	0.648
7.174	0.552
7.21122	0.25
7.24844	0.264
7.28566	0.538
7.32289	0.603
7.36011	0.645
7.39733	0.67
7.43456	0.713
7.47178	0.766
7.509	0.786
7.54623	0.778
7.58345	0.76
7.62067	0.756
7.65789	0.798
7.69512	0.815
7.73234	0.811
7.76956	0.805
7.80679	0.806
7.84401	0.812
7.88123	0.802
7.91846	0.785
7.95568	0.794
7.9929	0.813
8.03012	0.797
8.06735	0.779
8.10457	0.779
8.14179	0.783
8.17902	0.768
8.21624	0.763
8.25346	0.771
8.29069	0.797
8.32791	0.813
8.36513	0.815
8.40235	0.823
8.43958	0.837
8.4768	0.849
8.51402	0.857
8.55125	0.857
8.58847	0.851
8.62569	0.837
8.66292	0.819
8.70014	0.782
8.73736	0.782
8.77458	0.817
8.81181	0.846
8.84903	0.855
8.88625	0.854
8.92348	0.845
8.9607	0.824
8.99792	0.77
9.03515	0.722
9.07237	0.723
9.10959	0.724
9.14681	0.702
9.18404	0.717
9.22126	0.739
9.25848	0.743
9.29571	0.739
9.33293	0.74
9.37015	0.743
9.40738	0.738
9.4446	0.731
9.48182	0.737
9.51904	0.756
9.55627	0.773
9.59349	0.778
9.63071	0.766
9.66794	0.74
9.70516	0.717
9.74238	0.711
9.77961	0.72
9.81683	0.736
9.85405	0.751
9.89127	0.756
9.9285	0.76
9.96572	0.762
10.0029	0.767
10.0402	0.767
10.0774	0.755
10.1146	0.741
10.1518	0.726
10.1891	0.724
10.2263	0.754
10.2635	0.782
10.3007	0.8
10.338	0.813
10.3752	0.82
10.4124	0.82
10.4496	0.82
10.4868	0.823
10.5241	0.824
10.5613	0.827
10.5985	0.831
10.6357	0.834
10.673	0.835
10.7102	0.837
10.7474	0.838
10.7846	0.837
10.8218	0.834
10.8591	0.83
10.8963	0.828
10.9335	0.821
10.9707	0.808
11.008	0.792
11.0452	0.738
11.0824	0.67
11.1196	0.501
11.1569	0.179
11.1941	0.047
11.2313	0.031
11.2685	0.032
11.3057	0.057
11.343	0.145
11.3802	0.278
11.4174	0.405
11.4546	0.533
11.4919	0.615
11.5291	0.685
11.5663	0.723
11.6035	0.748
11.6408	0.763
11.678	0.774
11.7152	0.779
11.7524	0.781
11.7896	0.775
11.8269	0.748
11.8641	0.722
11.9013	0.688
11.9385	0.663
11.9758	0.656
12.013	0.652
12.0502	0.64
12.0874	0.626
12.1247	0.594
12.1619	0.561
12.1991	0.524
12.2363	0.475
12.2735	0.44
12.3108	0.402
12.348	0.392
12.3852	0.407
12.4224	0.471
12.4597	0.551
12.4969	0.608
12.5341	0.664
12.5713	0.703
12.6086	0.732
12.6458	0.751
12.683	0.758
12.7202	0.762
12.7574	0.764
12.7947	0.766
12.8319	0.769
12.8691	0.785
12.9063	0.805
12.9436	0.824
12.9808	0.844
13.018	0.862
13.0552	0.875
13.0925	0.888
13.1297	0.898
13.1669	0.905
13.2041	0.907
13.2413	0.908
13.2786	0.911
13.3158	0.903
13.353	0.892
13.3902	0.884
13.4275	0.874
13.4647	0.867
13.5019	0.857
13.5391	0.851
13.5764	0.844
13.6136	0.842
13.6508	0.845
13.688	0.852
13.7252	0.864
13.7625	0.874
13.7997	0.881
13.8369	0.883
13.8741	0.887
13.9114	0.882
13.9486	0.879
13.9858	0.881
14.023	0.882
14.0602	0.885
14.0975	0.888
14.1347	0.889
14.1719	0.885
14.2091	0.88
14.2464	0.877
14.2836	0.876
14.3208	0.876
14.358	0.876
14.3953	0.874
14.4325	0.876
14.4697	0.876
14.5069	0.876
14.5441	0.876
14.5814	0.876
14.6186	0.876
14.6558	0.877
14.693	0.877
14.7303	0.877
14.7675	0.877
14.8047	0.877
14.8419	0.879
14.8792	0.874
14.9164	0.877
14.9536	0.875
14.9908	0.872
15.028	0.869
