Infrared Spectrum: 2,4-DIMETHYL 2,7-OCTADIENE
Formula: C10 H18
CAS: 6874-43-7
Class: COBLENTZ
Instrument: Not specified, most likely a prism, grating, or hybrid spectrometer.
Sampling: TRANSMISSION
Resolution: 4
Origin: INTERNATIONAL FLAVORS & FRAGRANCES, INC.
MICROMETERS	TRANSMITTANCE
2.02	0.951
2.05252	0.955
2.08504	0.955
2.11756	0.947
2.15007	0.949
2.18259	0.949
2.21511	0.948
2.24763	0.935
2.28015	0.904
2.31267	0.89
2.34519	0.897
2.37771	0.913
2.41022	0.923
2.44274	0.927
2.47526	0.93
2.50778	0.935
2.5403	0.937
2.57282	0.942
2.60534	0.945
2.63785	0.945
2.67037	0.955
2.70289	0.957
2.73541	0.957
2.76793	0.959
2.80045	0.959
2.83297	0.957
2.86549	0.953
2.898	0.949
2.93052	0.948
2.96304	0.947
2.99556	0.944
3.02808	0.948
3.0606	0.947
3.09312	0.938
3.12564	0.927
3.15815	0.905
3.19067	0.647
3.22319	0.679
3.25571	0.722
3.28823	0.354
3.32075	0.089
3.35327	0.077
3.38578	0.102
3.4183	0.187
3.45082	0.21
3.48334	0.543
3.51586	0.746
3.54838	0.852
3.5809	0.885
3.61342	0.883
3.64593	0.862
3.67845	0.915
3.71097	0.927
3.74349	0.936
3.77601	0.942
3.80853	0.943
3.84105	0.944
3.87356	0.944
3.90608	0.945
3.9386	0.951
3.97112	0.956
4.00364	0.956
4.03616	0.958
4.06868	0.96
4.1012	0.96
4.13371	0.964
4.16623	0.96
4.19875	0.958
4.23127	0.959
4.26379	0.961
4.29631	0.966
4.32883	0.975
4.36135	0.978
4.39386	0.973
4.42638	0.972
4.4589	0.972
4.49142	0.973
4.52394	0.973
4.55646	0.975
4.58898	0.973
4.62149	0.976
4.65401	0.98
4.68653	0.982
4.71905	0.982
4.75157	0.982
4.78409	0.982
4.81661	0.981
4.84913	0.981
4.88164	0.981
4.91416	0.981
4.94668	0.981
4.9792	0.974
5.01172	0.965
5.04424	0.963
5.07676	0.966
5.10927	0.972
5.14179	0.976
5.17431	0.978
5.20683	0.975
5.23935	0.974
5.27187	0.973
5.30439	0.972
5.33691	0.972
5.36942	0.971
5.40194	0.957
5.43446	0.911
5.46698	0.877
5.4995	0.928
5.53202	0.956
5.56454	0.964
5.59706	0.964
5.62957	0.967
5.66209	0.967
5.69461	0.965
5.72713	0.965
5.75965	0.965
5.79217	0.958
5.82469	0.953
5.8572	0.942
5.88972	0.919
5.92224	0.857
5.95476	0.849
5.98728	0.879
6.0198	0.513
6.05232	0.452
6.08484	0.729
6.11735	0.868
6.14987	0.892
6.18239	0.915
6.21491	0.922
6.24743	0.925
6.27995	0.925
6.31247	0.923
6.34498	0.921
6.3775	0.912
6.41002	0.917
6.44254	0.906
6.47506	0.911
6.50758	0.91
6.5401	0.908
6.57262	0.904
6.60513	0.894
6.63765	0.879
6.67017	0.86
6.70269	0.83
6.73521	0.779
6.76773	0.633
6.80025	0.344
6.83277	0.198
6.86528	0.214
6.8978	0.273
6.93032	0.404
6.96284	0.556
6.99536	0.638
7.02788	0.647
7.0604	0.702
7.09291	0.767
7.12543	0.778
7.15795	0.738
7.19047	0.406
7.22299	0.276
7.25551	0.449
7.28803	0.678
7.32055	0.775
7.35306	0.82
7.38558	0.836
7.4181	0.845
7.45062	0.854
7.48314	0.867
7.51566	0.862
7.54818	0.849
7.58069	0.814
7.61321	0.813
7.64573	0.819
7.67825	0.841
7.71077	0.859
7.74329	0.864
7.77581	0.867
7.80833	0.885
7.84084	0.898
7.87336	0.904
7.90588	0.908
7.9384	0.912
7.97092	0.91
8.00344	0.904
8.03596	0.904
8.06848	0.905
8.10099	0.903
8.13351	0.895
8.16603	0.862
8.19855	0.85
8.23107	0.88
8.26359	0.904
8.29611	0.907
8.32862	0.907
8.36114	0.899
8.39366	0.875
8.42618	0.862
8.4587	0.879
8.49122	0.89
8.52374	0.898
8.55626	0.9
8.58877	0.898
8.62129	0.88
8.65381	0.877
8.68633	0.88
8.71885	0.892
8.75137	0.9
8.78389	0.906
8.8164	0.905
8.84892	0.891
8.88144	0.868
8.91396	0.845
8.94648	0.83
8.979	0.83
9.01152	0.841
9.04404	0.831
9.07655	0.829
9.10907	0.829
9.14159	0.819
9.17411	0.817
9.20663	0.813
9.23915	0.8
9.27167	0.785
9.30418	0.745
9.3367	0.705
9.36922	0.676
9.40174	0.697
9.43426	0.726
9.46678	0.753
9.4993	0.774
9.53182	0.788
9.56433	0.797
9.59685	0.804
9.62937	0.812
9.66189	0.809
9.69441	0.808
9.72693	0.816
9.75945	0.827
9.79197	0.828
9.82448	0.824
9.857	0.82
9.88952	0.814
9.92204	0.782
9.95456	0.688
9.98708	0.55
10.0196	0.328
10.0521	0.342
10.0846	0.471
10.1172	0.559
10.1497	0.637
10.1822	0.707
10.2147	0.754
10.2472	0.779
10.2797	0.8
10.3123	0.812
10.3448	0.812
10.3773	0.813
10.4098	0.811
10.4423	0.807
10.4749	0.805
10.5074	0.796
10.5399	0.761
10.5724	0.754
10.6049	0.754
10.6375	0.754
10.67	0.758
10.7025	0.763
10.735	0.767
10.7675	0.76
10.8	0.726
10.8326	0.646
10.8651	0.523
10.8976	0.277
10.9301	0.131
10.9626	0.074
10.9952	0.1
11.0277	0.194
11.0602	0.324
11.0927	0.442
11.1252	0.57
11.1577	0.64
11.1903	0.678
11.2228	0.678
11.2553	0.671
11.2878	0.7
11.3203	0.75
11.3529	0.784
11.3854	0.8
11.4179	0.812
11.4504	0.828
11.4829	0.847
11.5155	0.854
11.548	0.86
11.5805	0.86
11.613	0.858
11.6455	0.841
11.678	0.814
11.7106	0.764
11.7431	0.679
11.7756	0.569
11.8081	0.479
11.8406	0.467
11.8732	0.518
11.9057	0.557
11.9382	0.591
11.9707	0.615
12.0032	0.642
12.0358	0.684
12.0683	0.729
12.1008	0.766
12.1333	0.796
12.1658	0.816
12.1983	0.834
12.2309	0.85
12.2634	0.862
12.2959	0.872
12.3284	0.876
12.3609	0.879
12.3935	0.885
12.426	0.894
12.4585	0.904
12.491	0.91
12.5235	0.911
12.5561	0.915
12.5886	0.912
12.6211	0.913
12.6536	0.907
12.6861	0.905
12.7186	0.907
12.7512	0.908
12.7837	0.91
12.8162	0.907
12.8487	0.906
12.8812	0.906
12.9138	0.906
12.9463	0.906
12.9788	0.904
13.0113	0.894
13.0438	0.88
13.0764	0.854
13.1089	0.839
13.1414	0.841
13.1739	0.859
13.2064	0.876
13.2389	0.89
13.2715	0.897
13.304	0.899
13.3365	0.903
13.369	0.905
13.4015	0.905
13.4341	0.904
13.4666	0.904
13.4991	0.903
13.5316	0.9
13.5641	0.898
13.5967	0.897
13.6292	0.895
13.6617	0.894
13.6942	0.889
13.7267	0.888
13.7592	0.882
13.7918	0.881
13.8243	0.883
13.8568	0.881
13.8893	0.879
13.9218	0.876
13.9544	0.874
13.9869	0.872
14.0194	0.867
14.0519	0.864
14.0844	0.859
14.117	0.858
14.1495	0.857
14.182	0.852
14.2145	0.849
14.247	0.847
14.2795	0.842
14.3121	0.838
14.3446	0.834
14.3771	0.832
14.4096	0.83
14.4421	0.826
14.4747	0.823
14.5072	0.82
14.5397	0.816
14.5722	0.814
14.6047	0.811
14.6372	0.804
14.6698	0.799
14.7023	0.796
14.7348	0.792
14.7673	0.785
14.7998	0.782
14.8324	0.776
14.8649	0.773
14.8974	0.766
14.9299	0.761
14.9624	0.76
14.995	0.764
