Infrared Spectrum: 2,6-DIMETHYL 4-OCTENE
Formula: C10 H20
CAS: 6874-30-2
Class: COBLENTZ
Instrument: Not specified, most likely a prism, grating, or hybrid spectrometer.
Sampling: TRANSMISSION
Resolution: 4
Origin: INTERNATIONAL FLAVORS & FRAGRANCES, INC.
MICROMETERS	TRANSMITTANCE
2.017	0.93
2.0496	0.932
2.08219	0.932
2.11479	0.932
2.14739	0.932
2.17998	0.93
2.21258	0.93
2.24517	0.929
2.27777	0.895
2.31037	0.846
2.34296	0.852
2.37556	0.869
2.40816	0.875
2.44075	0.875
2.47335	0.88
2.50595	0.89
2.53854	0.91
2.57114	0.914
2.60374	0.915
2.63633	0.919
2.66893	0.923
2.70152	0.927
2.73412	0.933
2.76672	0.934
2.79931	0.935
2.83191	0.935
2.86451	0.933
2.8971	0.927
2.9297	0.922
2.9623	0.917
2.99489	0.912
3.02749	0.91
3.06009	0.907
3.09268	0.887
3.12528	0.867
3.15787	0.862
3.19047	0.862
3.22307	0.858
3.25566	0.796
3.28826	0.573
3.32086	0.278
3.35345	0.092
3.38605	0.076
3.41865	0.073
3.45124	0.077
3.48384	0.156
3.51644	0.428
3.54903	0.634
3.58163	0.717
3.61422	0.779
3.64682	0.819
3.67942	0.801
3.71201	0.834
3.74461	0.857
3.77721	0.864
3.8098	0.867
3.8424	0.872
3.875	0.875
3.90759	0.881
3.94019	0.892
3.97278	0.906
4.00538	0.918
4.03798	0.922
4.07057	0.925
4.10317	0.926
4.13577	0.926
4.16836	0.925
4.20096	0.92
4.23356	0.91
4.26615	0.917
4.29875	0.928
4.33135	0.929
4.36394	0.929
4.39654	0.929
4.42913	0.929
4.46173	0.93
4.49433	0.93
4.52692	0.93
4.55952	0.93
4.59212	0.932
4.62471	0.932
4.65731	0.933
4.68991	0.934
4.7225	0.935
4.7551	0.934
4.7877	0.934
4.82029	0.933
4.85289	0.934
4.88548	0.934
4.91808	0.935
4.95068	0.936
4.98327	0.937
5.01587	0.938
5.04847	0.938
5.08106	0.938
5.11366	0.938
5.14626	0.937
5.17885	0.935
5.21145	0.935
5.24405	0.934
5.27664	0.93
5.30924	0.929
5.34183	0.928
5.37443	0.922
5.40703	0.92
5.43962	0.918
5.47222	0.917
5.50482	0.913
5.53741	0.915
5.57001	0.918
5.60261	0.918
5.6352	0.918
5.6678	0.912
5.70039	0.91
5.73299	0.91
5.76559	0.91
5.79818	0.911
5.83078	0.913
5.86338	0.914
5.89597	0.913
5.92857	0.911
5.96117	0.906
5.99376	0.905
6.02636	0.908
6.05896	0.906
6.09155	0.906
6.12415	0.911
6.15674	0.912
6.18934	0.912
6.22194	0.91
6.25453	0.907
6.28713	0.906
6.31973	0.905
6.35232	0.903
6.38492	0.898
6.41752	0.897
6.45011	0.894
6.48271	0.89
6.51531	0.885
6.5479	0.881
6.5805	0.869
6.61309	0.855
6.64569	0.831
6.67829	0.799
6.71088	0.735
6.74348	0.558
6.77608	0.147
6.80867	0.122
6.84127	0.179
6.87387	0.329
6.90646	0.414
6.93906	0.466
6.97166	0.586
7.00425	0.678
7.03685	0.744
7.06944	0.77
7.10204	0.773
7.13464	0.754
7.16723	0.556
7.19983	0.267
7.23243	0.316
7.26502	0.322
7.29762	0.39
7.33022	0.564
7.36281	0.629
7.39541	0.668
7.42801	0.68
7.4606	0.663
7.4932	0.678
7.52579	0.755
7.55839	0.792
7.59099	0.793
7.62358	0.784
7.65618	0.776
7.68878	0.781
7.72137	0.797
7.75397	0.813
7.78657	0.792
7.81916	0.792
7.85176	0.796
7.88435	0.792
7.91695	0.826
7.94955	0.842
7.98214	0.845
8.01474	0.843
8.04734	0.841
8.07993	0.859
8.11253	0.873
8.14513	0.877
8.17772	0.868
8.21032	0.852
8.24292	0.838
8.27551	0.853
8.30811	0.874
8.3407	0.89
8.3733	0.896
8.4059	0.895
8.43849	0.888
8.47109	0.855
8.50369	0.779
8.53628	0.662
8.56888	0.633
8.60148	0.69
8.63407	0.753
8.66667	0.788
8.69927	0.813
8.73186	0.832
8.76446	0.849
8.79705	0.862
8.82965	0.872
8.86225	0.87
8.89484	0.851
8.92744	0.824
8.96004	0.804
8.99263	0.796
9.02523	0.794
9.05783	0.793
9.09042	0.792
9.12302	0.79
9.15562	0.779
9.18821	0.76
9.22081	0.75
9.2534	0.773
9.286	0.798
9.3186	0.831
9.35119	0.858
9.38379	0.874
9.41639	0.876
9.44898	0.867
9.48158	0.852
9.51418	0.821
9.54677	0.761
9.57937	0.739
9.61196	0.764
9.64456	0.794
9.67716	0.811
9.70975	0.809
9.74235	0.804
9.77495	0.794
9.80754	0.752
9.84014	0.726
9.87274	0.715
9.90533	0.702
9.93793	0.701
9.97053	0.733
10.0031	0.737
10.0357	0.728
10.0683	0.715
10.1009	0.667
10.1335	0.556
10.1661	0.339
10.1987	0.135
10.2313	0.104
10.2639	0.101
10.2965	0.108
10.3291	0.205
10.3617	0.327
10.3943	0.419
10.4269	0.54
10.4595	0.599
10.4921	0.667
10.5247	0.711
10.5573	0.735
10.5899	0.754
10.6225	0.763
10.6551	0.764
10.6876	0.785
10.7202	0.797
10.7528	0.798
10.7854	0.793
10.818	0.743
10.8506	0.685
10.8832	0.677
10.9158	0.722
10.9484	0.748
10.981	0.745
11.0136	0.781
11.0462	0.813
11.0788	0.851
11.1114	0.874
11.144	0.879
11.1766	0.88
11.2092	0.876
11.2418	0.845
11.2744	0.813
11.307	0.816
11.3396	0.845
11.3722	0.858
11.4048	0.865
11.4374	0.87
11.47	0.879
11.5026	0.885
11.5352	0.894
11.5677	0.898
11.6003	0.905
11.6329	0.911
11.6655	0.915
11.6981	0.917
11.7307	0.915
11.7633	0.913
11.7959	0.908
11.8285	0.902
11.8611	0.894
11.8937	0.888
11.9263	0.883
11.9589	0.879
11.9915	0.875
12.0241	0.877
12.0567	0.88
12.0893	0.882
12.1219	0.885
12.1545	0.888
12.1871	0.89
12.2197	0.891
12.2523	0.894
12.2849	0.894
12.3175	0.895
12.3501	0.897
12.3827	0.898
12.4153	0.898
12.4479	0.898
12.4804	0.898
12.513	0.897
12.5456	0.897
12.5782	0.894
12.6108	0.883
12.6434	0.874
12.676	0.864
12.7086	0.85
12.7412	0.841
12.7738	0.836
12.8064	0.832
12.839	0.821
12.8716	0.804
12.9042	0.791
12.9368	0.775
12.9694	0.762
13.002	0.752
13.0346	0.785
13.0672	0.812
13.0998	0.849
13.1324	0.868
13.165	0.88
13.1976	0.894
13.2302	0.907
13.2628	0.915
13.2954	0.921
13.328	0.927
13.3606	0.929
13.3931	0.933
13.4257	0.934
13.4583	0.935
13.4909	0.934
13.5235	0.935
13.5561	0.936
13.5887	0.935
13.6213	0.932
13.6539	0.93
13.6865	0.928
13.7191	0.928
13.7517	0.926
13.7843	0.927
13.8169	0.929
13.8495	0.937
13.8821	0.942
13.9147	0.947
13.9473	0.95
13.9799	0.955
14.0125	0.958
14.0451	0.963
14.0777	0.965
14.1103	0.967
14.1429	0.97
14.1755	0.973
14.2081	0.975
14.2407	0.976
14.2733	0.978
14.3058	0.978
14.3384	0.98
14.371	0.981
14.4036	0.981
14.4362	0.982
14.4688	0.983
14.5014	0.981
14.534	0.98
14.5666	0.979
14.5992	0.975
14.6318	0.973
14.6644	0.972
14.697	0.97
14.7296	0.967
14.7622	0.966
14.7948	0.965
14.8274	0.965
14.86	0.966
14.8926	0.968
14.9252	0.971
14.9578	0.972
14.9904	0.973
