Infrared Spectrum: 2,6-DIMETHYL 1,7-OCTADIENE
Formula: C10 H18
CAS: 6874-35-7
Class: COBLENTZ
Instrument: Not specified, most likely a prism, grating, or hybrid spectrometer.
Sampling: TRANSMISSION
Resolution: 4
Origin: INTERNATIONAL FLAVORS & FRAGRANCES, INC.
MICROMETERS	TRANSMITTANCE
2.014	0.901
2.05116	0.904
2.08831	0.904
2.12547	0.901
2.16263	0.9
2.19979	0.882
2.23694	0.868
2.2741	0.832
2.31126	0.837
2.34841	0.855
2.38557	0.868
2.42273	0.874
2.45988	0.879
2.49704	0.887
2.5342	0.891
2.57136	0.895
2.60851	0.909
2.64567	0.912
2.68283	0.916
2.71998	0.918
2.75714	0.922
2.7943	0.916
2.83145	0.913
2.86861	0.909
2.90577	0.905
2.94293	0.904
2.98008	0.904
3.01724	0.906
3.0544	0.909
3.09155	0.893
3.12871	0.88
3.16587	0.825
3.20302	0.514
3.24018	0.633
3.27734	0.564
3.3145	0.314
3.35165	0.035
3.38881	0.018
3.42597	0.034
3.46312	0.072
3.50028	0.258
3.53744	0.754
3.57459	0.839
3.61175	0.855
3.64891	0.842
3.68607	0.878
3.72322	0.89
3.76038	0.902
3.79754	0.913
3.83469	0.918
3.87185	0.92
3.90901	0.925
3.94616	0.933
3.98332	0.937
4.02048	0.942
4.05764	0.945
4.09479	0.947
4.13195	0.949
4.16911	0.95
4.20626	0.949
4.24342	0.95
4.28058	0.952
4.31773	0.956
4.35489	0.957
4.39205	0.96
4.42921	0.964
4.46636	0.966
4.50352	0.968
4.54068	0.967
4.57783	0.967
4.61499	0.97
4.65215	0.972
4.68931	0.972
4.72646	0.973
4.76362	0.974
4.80078	0.974
4.83793	0.972
4.87509	0.972
4.91225	0.974
4.9494	0.973
4.98656	0.966
5.02372	0.962
5.06088	0.967
5.09803	0.977
5.13519	0.979
5.17235	0.979
5.2095	0.978
5.24666	0.972
5.28382	0.971
5.32097	0.968
5.35813	0.964
5.39529	0.936
5.43245	0.856
5.4696	0.868
5.50676	0.926
5.54392	0.912
5.58107	0.863
5.61823	0.905
5.65539	0.937
5.69254	0.932
5.7297	0.925
5.76686	0.929
5.80402	0.925
5.84117	0.917
5.87833	0.902
5.91549	0.877
5.95264	0.826
5.9898	0.695
6.02696	0.473
6.06411	0.239
6.10127	0.632
6.13843	0.781
6.17559	0.831
6.21274	0.852
6.2499	0.839
6.28706	0.844
6.32421	0.868
6.36137	0.874
6.39853	0.877
6.43568	0.878
6.47284	0.878
6.51	0.878
6.54716	0.874
6.58431	0.864
6.62147	0.856
6.65863	0.845
6.69578	0.806
6.73294	0.721
6.7701	0.588
6.80725	0.333
6.84441	0.182
6.88157	0.135
6.91873	0.198
6.95588	0.348
6.99304	0.451
7.0302	0.403
7.06735	0.521
7.10451	0.671
7.14167	0.711
7.17883	0.706
7.21598	0.585
7.25314	0.339
7.2903	0.347
7.32745	0.633
7.36461	0.691
7.40177	0.758
7.43892	0.782
7.47608	0.802
7.51324	0.803
7.5504	0.773
7.58755	0.767
7.62471	0.788
7.66187	0.788
7.69902	0.778
7.73618	0.755
7.77334	0.742
7.81049	0.78
7.84765	0.805
7.88481	0.827
7.92197	0.832
7.95912	0.828
7.99628	0.843
8.03344	0.855
8.07059	0.847
8.10775	0.844
8.14491	0.857
8.18206	0.856
8.21922	0.841
8.25638	0.84
8.29354	0.866
8.33069	0.875
8.36785	0.871
8.40501	0.867
8.44216	0.873
8.47932	0.879
8.51648	0.885
8.55363	0.889
8.59079	0.885
8.62795	0.878
8.66511	0.877
8.70226	0.865
8.73942	0.829
8.77658	0.8
8.81373	0.811
8.85089	0.84
8.88805	0.858
8.9252	0.854
8.96236	0.831
8.99952	0.812
9.03668	0.814
9.07383	0.836
9.11099	0.843
9.14815	0.824
9.1853	0.782
9.22246	0.773
9.25962	0.811
9.29678	0.831
9.33393	0.842
9.37109	0.848
9.40825	0.855
9.4454	0.857
9.48256	0.851
9.51972	0.848
9.55687	0.842
9.59403	0.835
9.63119	0.829
9.66835	0.818
9.7055	0.81
9.74266	0.798
9.77982	0.781
9.81697	0.774
9.85413	0.768
9.89129	0.754
9.92844	0.694
9.9656	0.606
10.0028	0.463
10.0399	0.285
10.0771	0.213
10.1142	0.41
10.1514	0.602
10.1885	0.662
10.2257	0.713
10.2629	0.743
10.3	0.773
10.3372	0.788
10.3743	0.798
10.4115	0.809
10.4486	0.816
10.4858	0.819
10.523	0.822
10.5601	0.825
10.5973	0.822
10.6344	0.814
10.6716	0.798
10.7087	0.773
10.7459	0.732
10.7831	0.678
10.8202	0.629
10.8574	0.548
10.8945	0.443
10.9317	0.249
10.9688	0.064
11.006	0.036
11.0432	0.059
11.0803	0.154
11.1175	0.32
11.1546	0.385
11.1918	0.322
11.2289	0.175
11.2661	0.05
11.3033	0.036
11.3404	0.049
11.3776	0.178
11.4147	0.405
11.4519	0.577
11.489	0.665
11.5262	0.726
11.5634	0.762
11.6005	0.788
11.6377	0.804
11.6748	0.816
11.712	0.831
11.7491	0.842
11.7863	0.851
11.8235	0.856
11.8606	0.858
11.8978	0.86
11.9349	0.863
11.9721	0.865
12.0092	0.865
12.0464	0.863
12.0836	0.862
12.1207	0.863
12.1579	0.865
12.195	0.868
12.2322	0.877
12.2693	0.886
12.3065	0.891
12.3437	0.893
12.3808	0.895
12.418	0.889
12.4551	0.879
12.4923	0.874
12.5294	0.873
12.5666	0.878
12.6037	0.883
12.6409	0.891
12.6781	0.902
12.7152	0.909
12.7524	0.913
12.7895	0.918
12.8267	0.919
12.8638	0.921
12.901	0.918
12.9382	0.913
12.9753	0.901
13.0125	0.866
13.0496	0.855
13.0868	0.885
13.1239	0.896
13.1611	0.898
13.1983	0.895
13.2354	0.89
13.2726	0.887
13.3097	0.883
13.3469	0.88
13.384	0.868
13.4212	0.854
13.4584	0.829
13.4955	0.805
13.5327	0.79
13.5698	0.775
13.607	0.768
13.6441	0.777
13.6813	0.794
13.7185	0.808
13.7556	0.814
13.7928	0.814
13.8299	0.812
13.8671	0.812
13.9042	0.822
13.9414	0.826
13.9786	0.827
14.0157	0.82
14.0529	0.78
14.09	0.709
14.1272	0.706
14.1643	0.778
14.2015	0.811
14.2387	0.826
14.2758	0.834
14.313	0.839
14.3501	0.84
14.3873	0.839
14.4244	0.834
14.4616	0.828
14.4988	0.82
14.5359	0.809
14.5731	0.791
14.6102	0.775
14.6474	0.748
14.6845	0.709
14.7217	0.668
14.7589	0.648
14.796	0.657
14.8332	0.681
14.8703	0.705
14.9075	0.725
14.9446	0.747
14.9818	0.76
15.019	0.77
