Infrared Spectrum: 2,6-DIMETHYL-5,7-OCTADIENE (CIS)
Formula: C10 H18
CAS: 6874-36-8
Class: COBLENTZ
Instrument: Not specified, most likely a prism, grating, or hybrid spectrometer.
Sampling: TRANSMISSION
Resolution: 4
Origin: INTERNATIONAL FLAVORS & FRAGRANCES, INC.
MICROMETERS	TRANSMITTANCE
2.027	0.969
2.06419	0.961
2.10138	0.956
2.13857	0.955
2.17575	0.95
2.21294	0.924
2.25013	0.894
2.28732	0.885
2.32451	0.888
2.3617	0.896
2.39888	0.902
2.43607	0.908
2.47326	0.918
2.51045	0.925
2.54764	0.931
2.58483	0.939
2.62201	0.942
2.6592	0.952
2.69639	0.956
2.73358	0.956
2.77077	0.958
2.80796	0.958
2.84515	0.958
2.88233	0.958
2.91952	0.955
2.95671	0.952
2.9939	0.952
3.03109	0.95
3.06828	0.939
3.10546	0.914
3.14265	0.902
3.17984	0.828
3.21703	0.658
3.25422	0.692
3.29141	0.355
3.32859	0.072
3.36578	0.044
3.40297	0.064
3.44016	0.085
3.47735	0.25
3.51454	0.652
3.55173	0.772
3.58891	0.833
3.6261	0.843
3.66329	0.85
3.70048	0.887
3.73767	0.899
3.77486	0.904
3.81204	0.905
3.84923	0.908
3.88642	0.919
3.92361	0.93
3.9608	0.938
3.99799	0.941
4.03518	0.942
4.07236	0.944
4.10955	0.944
4.14674	0.945
4.18393	0.948
4.22112	0.958
4.25831	0.973
4.29549	0.976
4.33268	0.975
4.36987	0.97
4.40706	0.97
4.44425	0.97
4.48144	0.969
4.51862	0.97
4.55581	0.97
4.593	0.969
4.63019	0.97
4.66738	0.969
4.70457	0.969
4.74176	0.969
4.77894	0.969
4.81613	0.969
4.85332	0.969
4.89051	0.969
4.9277	0.969
4.96489	0.969
5.00207	0.969
5.03926	0.965
5.07645	0.956
5.11364	0.958
5.15083	0.959
5.18802	0.961
5.2252	0.962
5.26239	0.961
5.29958	0.961
5.33677	0.961
5.37396	0.959
5.41115	0.952
5.44834	0.877
5.48552	0.774
5.52271	0.794
5.5599	0.877
5.59709	0.904
5.63428	0.921
5.67147	0.925
5.70865	0.927
5.74584	0.925
5.78303	0.919
5.82022	0.908
5.85741	0.899
5.8946	0.893
5.93178	0.873
5.96897	0.856
6.00616	0.78
6.04335	0.601
6.08054	0.769
6.11773	0.831
6.15492	0.846
6.1921	0.707
6.22929	0.545
6.26648	0.642
6.30367	0.778
6.34086	0.856
6.37805	0.88
6.41523	0.905
6.45242	0.905
6.48961	0.91
6.5268	0.908
6.56399	0.905
6.60118	0.899
6.63837	0.874
6.67555	0.823
6.71274	0.748
6.74993	0.483
6.78712	0.174
6.82431	0.202
6.8615	0.264
6.89868	0.29
6.93587	0.324
6.97306	0.446
7.01025	0.472
7.04744	0.588
7.08463	0.67
7.12181	0.704
7.159	0.652
7.19619	0.287
7.23338	0.31
7.27057	0.423
7.30776	0.374
7.34495	0.615
7.38213	0.69
7.41932	0.744
7.45651	0.749
7.4937	0.761
7.53089	0.795
7.56808	0.8
7.60526	0.812
7.64245	0.823
7.67964	0.828
7.71683	0.843
7.75402	0.86
7.79121	0.873
7.82839	0.879
7.86558	0.88
7.90277	0.879
7.93996	0.865
7.97715	0.857
8.01434	0.856
8.05153	0.856
8.08871	0.856
8.1259	0.859
8.16309	0.865
8.20028	0.871
8.23747	0.879
8.27466	0.884
8.31184	0.882
8.34903	0.873
8.38622	0.868
8.42341	0.865
8.4606	0.859
8.49779	0.86
8.53497	0.771
8.57216	0.724
8.60935	0.812
8.64654	0.868
8.68373	0.891
8.72092	0.902
8.75811	0.904
8.79529	0.894
8.83248	0.819
8.86967	0.619
8.90686	0.618
8.94405	0.684
8.98124	0.693
9.01842	0.712
9.05561	0.795
9.0928	0.823
9.12999	0.836
9.16718	0.82
9.20437	0.707
9.24156	0.581
9.27874	0.522
9.31593	0.613
9.35312	0.712
9.39031	0.757
9.4275	0.783
9.46469	0.799
9.50187	0.816
9.53906	0.829
9.57625	0.84
9.61344	0.836
9.65063	0.789
9.68782	0.788
9.725	0.809
9.76219	0.825
9.79938	0.834
9.83657	0.84
9.87376	0.842
9.91095	0.845
9.94814	0.834
9.98532	0.797
10.0225	0.704
10.0597	0.581
10.0969	0.313
10.1341	0.137
10.1713	0.338
10.2085	0.564
10.2456	0.697
10.2828	0.786
10.32	0.826
10.3572	0.836
10.3944	0.84
10.4316	0.845
10.4688	0.86
10.506	0.863
10.5432	0.863
10.5803	0.865
10.6175	0.865
10.6547	0.865
10.6919	0.854
10.7291	0.817
10.7663	0.795
10.8035	0.786
10.8407	0.763
10.8778	0.69
10.915	0.616
10.9522	0.542
10.9894	0.412
11.0266	0.188
11.0638	0.061
11.101	0.03
11.1382	0.029
11.1754	0.157
11.2125	0.321
11.2497	0.472
11.2869	0.598
11.3241	0.683
11.3613	0.755
11.3985	0.78
11.4357	0.795
11.4729	0.805
11.51	0.808
11.5472	0.8
11.5844	0.777
11.6216	0.749
11.6588	0.717
11.696	0.689
11.7332	0.676
11.7704	0.678
11.8076	0.692
11.8447	0.715
11.8819	0.721
11.9191	0.721
11.9563	0.72
11.9935	0.72
12.0307	0.726
12.0679	0.743
12.1051	0.76
12.1423	0.768
12.1794	0.769
12.2166	0.769
12.2538	0.778
12.291	0.814
12.3282	0.854
12.3654	0.88
12.4026	0.893
12.4398	0.904
12.4769	0.913
12.5141	0.913
12.5513	0.916
12.5885	0.921
12.6257	0.925
12.6629	0.933
12.7001	0.936
12.7373	0.942
12.7745	0.942
12.8116	0.938
12.8488	0.927
12.886	0.922
12.9232	0.914
12.9604	0.913
12.9976	0.913
13.0348	0.913
13.072	0.913
13.1092	0.914
13.1463	0.916
13.1835	0.918
13.2207	0.916
13.2579	0.916
13.2951	0.913
13.3323	0.899
13.3695	0.884
13.4067	0.865
13.4438	0.856
13.481	0.846
13.5182	0.836
13.5554	0.834
13.5926	0.836
13.6298	0.848
13.667	0.863
13.7042	0.876
13.7414	0.88
13.7785	0.88
13.8157	0.885
13.8529	0.897
13.8901	0.902
13.9273	0.91
13.9645	0.914
14.0017	0.913
14.0389	0.905
14.0761	0.904
14.1132	0.901
14.1504	0.893
14.1876	0.879
14.2248	0.867
14.262	0.854
14.2992	0.837
14.3364	0.833
14.3736	0.816
14.4107	0.808
14.4479	0.799
14.4851	0.789
14.5223	0.782
14.5595	0.788
14.5967	0.797
14.6339	0.817
14.6711	0.831
14.7083	0.857
14.7454	0.873
14.7826	0.879
14.8198	0.884
14.857	0.887
