Infrared Spectrum: 2-METHYL, 6-METHYLENE 2,4-OCTADIENE
Formula: C10 H16
CAS: 6874-47-1
Class: COBLENTZ
Instrument: Not specified, most likely a prism, grating, or hybrid spectrometer.
Sampling: TRANSMISSION
Resolution: 4
Origin: INTERNATIONAL FLAVORS & FRAGRANCES, INC.
MICROMETERS	TRANSMITTANCE
2.023	0.914
2.0597	0.915
2.09639	0.916
2.13309	0.917
2.16978	0.9161
2.20648	0.916
2.24318	0.9109
2.27987	0.8856
2.31657	0.8671
2.35326	0.881
2.38996	0.901
2.42666	0.911
2.46335	0.908
2.50005	0.9109
2.53674	0.915
2.57344	0.9201
2.61014	0.9241
2.64683	0.9311
2.68353	0.935
2.72022	0.938
2.75692	0.937
2.79362	0.935
2.83031	0.9301
2.86701	0.9231
2.9037	0.9179
2.9404	0.9161
2.9771	0.917
3.01379	0.92
3.05049	0.92
3.08718	0.917
3.12388	0.913
3.16058	0.907
3.19727	0.8961
3.23397	0.7791
3.27066	0.5445
3.30736	0.5671
3.34406	0.2398
3.38075	0.2637
3.41745	0.2202
3.45414	0.296
3.49084	0.4191
3.52754	0.6812
3.56423	0.7744
3.60093	0.8543
3.63762	0.8767
3.67432	0.8509
3.71102	0.8883
3.74771	0.92
3.78441	0.929
3.8211	0.933
3.8578	0.937
3.8945	0.94
3.93119	0.942
3.96789	0.9421
4.00458	0.9418
4.04128	0.939
4.07798	0.94
4.11467	0.94
4.15137	0.942
4.18806	0.943
4.22476	0.943
4.26146	0.9469
4.29815	0.947
4.33485	0.949
4.37154	0.952
4.40824	0.951
4.44494	0.947
4.48163	0.947
4.51833	0.947
4.55502	0.949
4.59172	0.9499
4.62842	0.95
4.66511	0.95
4.70181	0.951
4.7385	0.951
4.7752	0.952
4.8119	0.953
4.84859	0.953
4.88529	0.955
4.92198	0.954
4.95868	0.953
4.99538	0.9541
5.03207	0.9522
5.06877	0.951
5.10546	0.951
5.14216	0.949
5.17886	0.947
5.21555	0.946
5.25225	0.945
5.28894	0.944
5.32564	0.943
5.36234	0.9399
5.39903	0.9292
5.43573	0.9189
5.47242	0.9147
5.50912	0.9209
5.54582	0.8769
5.58251	0.8392
5.61921	0.8041
5.6559	0.797
5.6926	0.8183
5.7293	0.8669
5.76599	0.885
5.80269	0.88
5.83938	0.881
5.87608	0.884
5.91278	0.8876
5.94947	0.8768
5.98617	0.8619
6.02286	0.8291
6.05956	0.659
6.09626	0.739
6.13295	0.62
6.16965	0.6393
6.20634	0.7318
6.24304	0.6309
6.27974	0.5835
6.31643	0.6757
6.35313	0.7874
6.38983	0.8118
6.42652	0.8349
6.46322	0.8447
6.49991	0.8516
6.53661	0.853
6.57331	0.852
6.61	0.85
6.6467	0.8422
6.68339	0.8268
6.72009	0.8008
6.75679	0.7591
6.79348	0.5049
6.83018	0.4057
6.86687	0.3347
6.90357	0.341
6.94027	0.353
6.97696	0.4988
7.01366	0.6452
7.05035	0.689
7.08705	0.7279
7.12375	0.742
7.16044	0.7313
7.19714	0.6381
7.23383	0.383
7.27053	0.4239
7.30723	0.5998
7.34392	0.6501
7.38062	0.6591
7.41731	0.5408
7.45401	0.6761
7.49071	0.7715
7.5274	0.8141
7.5641	0.8184
7.60079	0.77
7.63749	0.7528
7.67419	0.771
7.71088	0.7881
7.74758	0.8212
7.78427	0.836
7.82097	0.8236
7.85767	0.7451
7.89436	0.6891
7.93106	0.7129
7.96775	0.7312
8.00445	0.7948
8.04115	0.8374
8.07784	0.8425
8.11454	0.8629
8.15123	0.8772
8.18793	0.8849
8.22463	0.887
8.26132	0.8888
8.29802	0.889
8.33471	0.889
8.37141	0.8858
8.40811	0.876
8.4448	0.8438
8.4815	0.8398
8.51819	0.8702
8.55489	0.8842
8.59159	0.884
8.62828	0.8802
8.66498	0.879
8.70167	0.878
8.73837	0.877
8.77507	0.878
8.81176	0.88
8.84846	0.882
8.88515	0.884
8.92185	0.8853
8.95855	0.886
8.99524	0.887
9.03194	0.885
9.06863	0.885
9.10533	0.884
9.14203	0.8817
9.17872	0.8755
9.21542	0.8265
9.25211	0.7922
9.28881	0.7727
9.32551	0.7431
9.3622	0.7052
9.3989	0.683
9.43559	0.7291
9.47229	0.7878
9.50899	0.804
9.54568	0.7834
9.58238	0.7177
9.61907	0.7185
9.65577	0.769
9.69247	0.7994
9.72916	0.813
9.76586	0.8129
9.80255	0.8001
9.83925	0.794
9.87595	0.796
9.91264	0.7927
9.94934	0.7848
9.98603	0.7652
10.0227	0.7316
10.0594	0.6802
10.0961	0.538
10.1328	0.4052
10.1695	0.4002
10.2062	0.4708
10.2429	0.527
10.2796	0.544
10.3163	0.4958
10.353	0.4289
10.3897	0.2568
10.4264	0.1842
10.4631	0.17
10.4998	0.2184
10.5365	0.4549
10.5732	0.6408
10.6099	0.7299
10.6466	0.7834
10.6833	0.8194
10.72	0.8479
10.7567	0.8621
10.7933	0.8659
10.83	0.87
10.8667	0.875
10.9034	0.877
10.9401	0.8727
10.9768	0.8638
11.0135	0.8452
11.0502	0.8267
11.0869	0.7944
11.1236	0.7475
11.1603	0.6857
11.197	0.543
11.2337	0.4216
11.2704	0.2508
11.3071	0.1853
11.3438	0.172
11.3805	0.2154
11.4172	0.3733
11.4539	0.4992
11.4906	0.5931
11.5273	0.6916
11.564	0.7634
11.6007	0.7919
11.6374	0.8144
11.6741	0.8285
11.7107	0.83
11.7474	0.8218
11.7841	0.7863
11.8208	0.7254
11.8575	0.615
11.8942	0.5062
11.9309	0.4887
11.9676	0.5796
12.0043	0.7058
12.041	0.7564
12.0777	0.8106
12.1144	0.8382
12.1511	0.8596
12.1878	0.879
12.2245	0.889
12.2612	0.8973
12.2979	0.9
12.3346	0.901
12.3713	0.9
12.408	0.8951
12.4447	0.883
12.4814	0.8635
12.5181	0.8517
12.5548	0.8521
12.5915	0.8617
12.6281	0.867
12.6648	0.873
12.7015	0.8707
12.7382	0.8497
12.7749	0.8338
12.8116	0.8487
12.8483	0.8856
12.885	0.9072
12.9217	0.9204
12.9584	0.925
12.9951	0.93
13.0318	0.932
13.0685	0.935
13.1052	0.935
13.1419	0.937
13.1786	0.938
13.2153	0.9382
13.252	0.9413
13.2887	0.943
13.3254	0.943
13.3621	0.944
13.3988	0.945
13.4355	0.946
13.4722	0.946
13.5089	0.947
13.5455	0.949
13.5822	0.9501
13.6189	0.949
13.6556	0.949
13.6923	0.949
13.729	0.95
13.7657	0.949
13.8024	0.95
13.8391	0.951
13.8758	0.951
13.9125	0.951
13.9492	0.951
13.9859	0.951
14.0226	0.952
14.0593	0.954
14.096	0.952
14.1327	0.952
14.1694	0.951
14.2061	0.9501
14.2428	0.949
14.2795	0.947
14.3162	0.947
14.3529	0.9469
14.3896	0.947
14.4263	0.946
14.4629	0.947
14.4996	0.946
14.5363	0.947
14.573	0.9461
14.6097	0.947
14.6464	0.947
14.6831	0.947
14.7198	0.949
14.7565	0.951
14.7932	0.95
14.8299	0.953
14.8666	0.954
14.9033	0.959
14.94	0.9602
14.9767	0.966
