Infrared Spectrum: 2,6-DIMETHYL 6(7)-OCTENE (TRANS)
Formula: C10 H20
CAS: 6874-06-2
Class: COBLENTZ
Instrument: Not specified, most likely a prism, grating, or hybrid spectrometer.
Sampling: TRANSMISSION
Resolution: 4
Origin: INTERNATIONAL FLAVORS & FRAGRANCES, INC.
MICROMETERS	TRANSMITTANCE
2	0.94
2.0326	0.944
2.06521	0.945
2.09781	0.946
2.13042	0.945
2.16302	0.944
2.19562	0.945
2.22823	0.943
2.26083	0.926
2.29344	0.877
2.32604	0.853
2.35864	0.866
2.39125	0.888
2.42385	0.894
2.45646	0.898
2.48906	0.902
2.52166	0.915
2.55427	0.923
2.58687	0.917
2.61948	0.916
2.65208	0.925
2.68468	0.925
2.71729	0.936
2.74989	0.938
2.7825	0.938
2.8151	0.938
2.8477	0.938
2.88031	0.939
2.91291	0.936
2.94552	0.931
2.97812	0.924
3.01072	0.922
3.04333	0.92
3.07593	0.923
3.10854	0.91
3.14114	0.892
3.17374	0.881
3.20635	0.872
3.23895	0.681
3.27155	0.348
3.30416	0.076
3.33676	0.068
3.36937	0.063
3.40197	0.076
3.43457	0.097
3.46718	0.281
3.49978	0.536
3.53239	0.674
3.56499	0.74
3.59759	0.776
3.6302	0.789
3.6628	0.792
3.69541	0.823
3.72801	0.853
3.76061	0.862
3.79322	0.866
3.82582	0.874
3.85843	0.884
3.89103	0.899
3.92363	0.904
3.95624	0.91
3.98884	0.911
4.02145	0.914
4.05405	0.916
4.08665	0.917
4.11926	0.918
4.15186	0.92
4.18447	0.921
4.21707	0.922
4.24967	0.924
4.28228	0.926
4.31488	0.929
4.34749	0.928
4.38009	0.93
4.41269	0.932
4.4453	0.933
4.4779	0.936
4.51051	0.938
4.54311	0.938
4.57571	0.939
4.60832	0.937
4.64092	0.938
4.67353	0.939
4.70613	0.939
4.73873	0.939
4.77134	0.94
4.80394	0.94
4.83655	0.939
4.86915	0.94
4.90175	0.938
4.93436	0.938
4.96696	0.938
4.99957	0.942
5.03217	0.94
5.06477	0.94
5.09738	0.94
5.12998	0.942
5.16259	0.943
5.19519	0.943
5.22779	0.943
5.2604	0.942
5.293	0.94
5.32561	0.936
5.35821	0.932
5.39081	0.931
5.42342	0.925
5.45602	0.925
5.48862	0.929
5.52123	0.93
5.55383	0.929
5.58644	0.929
5.61904	0.925
5.65164	0.925
5.68425	0.922
5.71685	0.918
5.74946	0.915
5.78206	0.913
5.81466	0.909
5.84727	0.906
5.87987	0.903
5.91248	0.857
5.94508	0.733
5.97768	0.786
6.01029	0.866
6.04289	0.863
6.0755	0.872
6.1081	0.882
6.1407	0.889
6.17331	0.891
6.20591	0.888
6.23852	0.884
6.27112	0.882
6.30372	0.877
6.33633	0.869
6.36893	0.86
6.40154	0.852
6.43414	0.841
6.46674	0.834
6.49935	0.823
6.53195	0.809
6.56456	0.797
6.59716	0.78
6.62976	0.76
6.66237	0.731
6.69497	0.677
6.72758	0.215
6.76018	0.147
6.79278	0.171
6.82539	0.232
6.85799	0.253
6.8906	0.293
6.9232	0.396
6.9558	0.485
6.98841	0.551
7.02101	0.612
7.05362	0.641
7.08622	0.655
7.11882	0.602
7.15143	0.278
7.18403	0.242
7.21664	0.377
7.24924	0.414
7.28184	0.421
7.31445	0.593
7.34705	0.647
7.37966	0.689
7.41226	0.687
7.44486	0.663
7.47747	0.684
7.51007	0.739
7.54268	0.768
7.57528	0.792
7.60788	0.807
7.64049	0.812
7.67309	0.816
7.70569	0.822
7.7383	0.831
7.7709	0.837
7.80351	0.84
7.83611	0.84
7.86871	0.836
7.90132	0.833
7.93392	0.836
7.96653	0.845
7.99913	0.853
8.03173	0.842
8.06434	0.829
8.09694	0.831
8.12955	0.841
8.16215	0.84
8.19475	0.818
8.22736	0.769
8.25996	0.723
8.29257	0.757
8.32517	0.771
8.35777	0.742
8.39038	0.74
8.42298	0.769
8.45559	0.79
8.48819	0.796
8.52079	0.665
8.5534	0.655
8.586	0.738
8.61861	0.798
8.65121	0.825
8.68381	0.836
8.71642	0.842
8.74902	0.842
8.78163	0.84
8.81423	0.801
8.84683	0.646
8.87944	0.616
8.91204	0.695
8.94465	0.74
8.97725	0.789
9.00985	0.808
9.04246	0.826
9.07506	0.833
9.10767	0.83
9.14027	0.821
9.17287	0.793
9.20548	0.774
9.23808	0.765
9.27069	0.769
9.30329	0.78
9.33589	0.791
9.3685	0.797
9.4011	0.8
9.43371	0.803
9.46631	0.804
9.49891	0.801
9.53152	0.799
9.56412	0.801
9.59673	0.799
9.62933	0.789
9.66193	0.758
9.69454	0.739
9.72714	0.725
9.75975	0.714
9.79235	0.725
9.82495	0.739
9.85756	0.768
9.89016	0.791
9.92277	0.799
9.95537	0.803
9.98797	0.801
10.0206	0.799
10.0532	0.794
10.0858	0.787
10.1184	0.779
10.151	0.77
10.1836	0.763
10.2162	0.757
10.2488	0.745
10.2814	0.732
10.314	0.739
10.3466	0.75
10.3792	0.76
10.4118	0.762
10.4444	0.761
10.477	0.76
10.5096	0.765
10.5422	0.776
10.5748	0.79
10.6074	0.798
10.6401	0.804
10.6727	0.811
10.7053	0.82
10.7379	0.834
10.7705	0.842
10.8031	0.841
10.8357	0.822
10.8683	0.786
10.9009	0.787
10.9335	0.816
10.9661	0.837
10.9987	0.856
11.0313	0.866
11.0639	0.872
11.0965	0.877
11.1291	0.88
11.1617	0.879
11.1943	0.874
11.2269	0.853
11.2595	0.813
11.2921	0.806
11.3247	0.821
11.3573	0.843
11.3899	0.849
11.4225	0.847
11.4552	0.84
11.4878	0.831
11.5204	0.825
11.553	0.821
11.5856	0.833
11.6182	0.84
11.6508	0.835
11.6834	0.819
11.716	0.808
11.7486	0.809
11.7812	0.812
11.8138	0.806
11.8464	0.794
11.879	0.785
11.9116	0.776
11.9442	0.769
11.9768	0.76
12.0094	0.733
12.042	0.668
12.0746	0.614
12.1072	0.561
12.1398	0.534
12.1724	0.531
12.205	0.529
12.2376	0.524
12.2703	0.519
12.3029	0.531
12.3355	0.563
12.3681	0.601
12.4007	0.644
12.4333	0.687
12.4659	0.716
12.4985	0.746
12.5311	0.772
12.5637	0.794
12.5963	0.8
12.6289	0.799
12.6615	0.789
12.6941	0.754
12.7267	0.734
12.7593	0.732
12.7919	0.757
12.8245	0.756
12.8571	0.728
12.8897	0.707
12.9223	0.684
12.9549	0.674
12.9875	0.698
13.0201	0.733
13.0527	0.761
13.0854	0.796
13.118	0.821
13.1506	0.85
13.1832	0.87
13.2158	0.884
13.2484	0.894
13.281	0.901
13.3136	0.907
13.3462	0.911
13.3788	0.913
13.4114	0.911
13.444	0.907
13.4766	0.9
13.5092	0.889
13.5418	0.866
13.5744	0.847
13.607	0.825
13.6396	0.816
13.6722	0.825
13.7048	0.836
13.7374	0.851
13.77	0.865
13.8026	0.878
13.8352	0.892
13.8678	0.902
13.9004	0.913
13.9331	0.922
13.9657	0.931
13.9983	0.939
14.0309	0.945
14.0635	0.949
14.0961	0.953
14.1287	0.959
14.1613	0.962
14.1939	0.964
14.2265	0.966
14.2591	0.968
14.2917	0.969
14.3243	0.972
14.3569	0.973
14.3895	0.975
14.4221	0.976
14.4547	0.979
14.4873	0.98
14.5199	0.98
14.5525	0.981
14.5851	0.982
14.6177	0.982
14.6503	0.982
14.6829	0.984
14.7155	0.986
14.7482	0.986
14.7808	0.983
14.8134	0.981
14.846	0.98
14.8786	0.979
14.9112	0.975
14.9438	0.972
14.9764	0.967
15.009	0.962
