Infrared Spectrum: 2-METHYL, 6-METHYLENE, 7-OCTENE
Formula: C10 H18
CAS: 6874-41-5
Class: COBLENTZ
Instrument: Not specified, most likely a prism, grating, or hybrid spectrometer.
Sampling: TRANSMISSION
Resolution: 4
Origin: INTERNATIONAL FLAVORS & FRAGRANCES, INC.
MICROMETERS	TRANSMITTANCE
2.007	0.967
2.04411	0.971
2.08122	0.969
2.11833	0.965
2.15543	0.963
2.19254	0.964
2.22965	0.951
2.26676	0.928
2.30387	0.91
2.34098	0.92
2.37809	0.936
2.4152	0.933
2.4523	0.933
2.48941	0.948
2.52652	0.955
2.56363	0.956
2.60074	0.959
2.63785	0.959
2.67496	0.97
2.71206	0.974
2.74917	0.974
2.78628	0.978
2.82339	0.977
2.8605	0.973
2.89761	0.965
2.93472	0.964
2.97183	0.963
3.00893	0.962
3.04604	0.965
3.08315	0.959
3.12026	0.943
3.15737	0.934
3.19448	0.561
3.23159	0.754
3.26869	0.747
3.3058	0.276
3.34291	0.101
3.38002	0.113
3.41713	0.156
3.45424	0.293
3.49135	0.615
3.52845	0.793
3.56556	0.864
3.60267	0.904
3.63978	0.915
3.67689	0.912
3.714	0.939
3.75111	0.942
3.78822	0.943
3.82532	0.947
3.86243	0.951
3.89954	0.966
3.93665	0.973
3.97376	0.98
4.01087	0.98
4.04798	0.98
4.08508	0.983
4.12219	0.985
4.1593	0.986
4.19641	0.983
4.23352	0.982
4.27063	0.993
4.30774	0.998
4.34485	0.994
4.38195	0.988
4.41906	0.986
4.45617	0.987
4.49328	0.988
4.53039	0.988
4.5675	0.988
4.60461	0.988
4.64171	0.985
4.67882	0.988
4.71593	0.989
4.75304	0.993
4.79015	0.99
4.82726	0.989
4.86437	0.991
4.90148	0.991
4.93858	0.988
4.97569	0.989
5.0128	0.989
5.04991	0.983
5.08702	0.983
5.12413	0.99
5.16124	0.994
5.19834	0.991
5.23545	0.99
5.27256	0.986
5.30967	0.981
5.34678	0.983
5.38389	0.977
5.421	0.959
5.45811	0.921
5.49521	0.835
5.53232	0.822
5.56943	0.808
5.60654	0.886
5.64365	0.947
5.68076	0.958
5.71787	0.963
5.75497	0.971
5.79208	0.97
5.82919	0.971
5.8663	0.969
5.90341	0.966
5.94052	0.96
5.97763	0.951
6.01473	0.938
6.05184	0.915
6.08895	0.808
6.12606	0.84
6.16317	0.869
6.20028	0.706
6.23739	0.382
6.2745	0.684
6.3116	0.791
6.34871	0.864
6.38582	0.897
6.42293	0.929
6.46004	0.935
6.49715	0.942
6.53426	0.94
6.57136	0.938
6.60847	0.923
6.64558	0.909
6.68269	0.882
6.7198	0.845
6.75691	0.419
6.79402	0.267
6.83113	0.413
6.86823	0.525
6.90534	0.621
6.94245	0.663
6.97956	0.725
7.01667	0.734
7.05378	0.794
7.09089	0.805
7.12799	0.745
7.1651	0.641
7.20221	0.448
7.23932	0.636
7.27643	0.506
7.31354	0.548
7.35065	0.755
7.38776	0.822
7.42486	0.84
7.46197	0.804
7.49908	0.81
7.53619	0.843
7.5733	0.827
7.61041	0.85
7.64752	0.863
7.68462	0.864
7.72173	0.87
7.75884	0.884
7.79595	0.892
7.83306	0.89
7.87017	0.893
7.90728	0.898
7.94439	0.9
7.98149	0.917
8.0186	0.925
8.05571	0.929
8.09282	0.925
8.12993	0.921
8.16704	0.909
8.20415	0.905
8.24125	0.903
8.27836	0.917
8.31547	0.923
8.35258	0.917
8.38969	0.903
8.4268	0.901
8.46391	0.904
8.50101	0.895
8.53812	0.811
8.57523	0.786
8.61234	0.874
8.64945	0.91
8.68656	0.929
8.72367	0.938
8.76078	0.942
8.79788	0.943
8.83499	0.936
8.8721	0.917
8.90921	0.904
8.94632	0.9
8.98343	0.893
9.02054	0.887
9.05764	0.918
9.09475	0.933
9.13186	0.938
9.16897	0.94
9.20608	0.941
9.24319	0.941
9.2803	0.94
9.31741	0.931
9.35451	0.913
9.39162	0.911
9.42873	0.912
9.46584	0.913
9.50295	0.915
9.54006	0.91
9.57717	0.9
9.61427	0.882
9.65138	0.877
9.68849	0.886
9.7256	0.894
9.76271	0.897
9.79982	0.888
9.83693	0.849
9.87404	0.838
9.91114	0.849
9.94825	0.831
9.98536	0.78
10.0225	0.443
10.0596	0.212
10.0967	0.32
10.1338	0.504
10.1709	0.654
10.208	0.758
10.2451	0.818
10.2822	0.855
10.3193	0.87
10.3564	0.877
10.3936	0.877
10.4307	0.88
10.4678	0.876
10.5049	0.873
10.542	0.878
10.5791	0.88
10.6162	0.885
10.6533	0.885
10.6904	0.881
10.7275	0.872
10.7646	0.858
10.8018	0.833
10.8389	0.786
10.876	0.692
10.9131	0.593
10.9502	0.432
10.9873	0.261
11.0244	0.128
11.0615	0.088
11.0986	0.094
11.1357	0.07
11.1728	0.06
11.2099	0.063
11.2471	0.11
11.2842	0.266
11.3213	0.46
11.3584	0.588
11.3955	0.696
11.4326	0.757
11.4697	0.807
11.5068	0.836
11.5439	0.857
11.581	0.871
11.6181	0.882
11.6553	0.889
11.6924	0.894
11.7295	0.89
11.7666	0.892
11.8037	0.89
11.8408	0.892
11.8779	0.898
11.915	0.902
11.9521	0.902
11.9892	0.903
12.0263	0.902
12.0634	0.9
12.1006	0.902
12.1377	0.905
12.1748	0.909
12.2119	0.911
12.249	0.913
12.2861	0.913
12.3232	0.916
12.3603	0.917
12.3974	0.919
12.4345	0.921
12.4716	0.923
12.5087	0.921
12.5459	0.92
12.583	0.92
12.6201	0.918
12.6572	0.917
12.6943	0.916
12.7314	0.918
12.7685	0.919
12.8056	0.921
12.8427	0.923
12.8798	0.925
12.9169	0.921
12.9541	0.92
12.9912	0.92
13.0283	0.918
13.0654	0.916
13.1025	0.912
13.1396	0.903
13.1767	0.882
13.2138	0.857
13.2509	0.859
13.288	0.872
13.3251	0.882
13.3622	0.884
13.3994	0.878
13.4365	0.867
13.4736	0.851
13.5107	0.843
13.5478	0.84
13.5849	0.828
13.622	0.822
13.6591	0.822
13.6962	0.828
13.7333	0.834
13.7704	0.841
13.8076	0.843
13.8447	0.847
13.8818	0.856
13.9189	0.863
13.956	0.866
13.9931	0.867
14.0302	0.867
14.0673	0.865
14.1044	0.863
14.1415	0.859
14.1786	0.862
14.2157	0.859
14.2529	0.857
14.29	0.855
14.3271	0.853
14.3642	0.85
14.4013	0.841
14.4384	0.839
14.4755	0.834
14.5126	0.833
14.5497	0.83
14.5868	0.826
14.6239	0.819
14.6611	0.81
14.6982	0.802
14.7353	0.794
14.7724	0.784
14.8095	0.778
14.8466	0.776
14.8837	0.776
14.9208	0.776
14.9579	0.773
14.995	0.779
