Infrared Spectrum: 2-METHYL, 6-METHYLENE OCTANE
Formula: C10 H20
CAS: 6874-31-3
Class: COBLENTZ
Instrument: Not specified, most likely a prism, grating, or hybrid spectrometer.
Sampling: TRANSMISSION
Resolution: 4
Origin: INTERNATIONAL FLAVORS & FRAGRANCES, INC.
MICROMETERS	TRANSMITTANCE
2.007	0.939
2.03948	0.942
2.07196	0.94
2.10445	0.939
2.13693	0.94
2.16941	0.94
2.20189	0.94
2.23438	0.931
2.26686	0.903
2.29934	0.859
2.33182	0.865
2.3643	0.876
2.39679	0.886
2.42927	0.896
2.46175	0.899
2.49423	0.905
2.52671	0.914
2.5592	0.918
2.59168	0.923
2.62416	0.927
2.65664	0.93
2.68913	0.931
2.72161	0.931
2.75409	0.938
2.78657	0.94
2.81905	0.942
2.85154	0.942
2.88402	0.942
2.9165	0.939
2.94898	0.93
2.98147	0.927
3.01395	0.928
3.04643	0.927
3.07891	0.921
3.11139	0.89
3.14388	0.879
3.17636	0.88
3.20884	0.628
3.24132	0.694
3.27381	0.728
3.30629	0.415
3.33877	0.142
3.37125	0.126
3.40373	0.122
3.43622	0.134
3.4687	0.158
3.50118	0.403
3.53366	0.655
3.56614	0.732
3.59863	0.799
3.63111	0.828
3.66359	0.814
3.69607	0.853
3.72856	0.864
3.76104	0.873
3.79352	0.876
3.826	0.88
3.85848	0.894
3.89097	0.903
3.92345	0.914
3.95593	0.921
3.98841	0.924
4.0209	0.925
4.05338	0.923
4.08586	0.927
4.11834	0.93
4.15082	0.929
4.18331	0.924
4.21579	0.92
4.24827	0.917
4.28075	0.923
4.31324	0.925
4.34572	0.928
4.3782	0.929
4.41068	0.931
4.44316	0.931
4.47565	0.934
4.50813	0.935
4.54061	0.935
4.57309	0.937
4.60557	0.936
4.63806	0.936
4.67054	0.936
4.70302	0.935
4.7355	0.935
4.76799	0.935
4.80047	0.935
4.83295	0.936
4.86543	0.936
4.89791	0.936
4.9304	0.934
4.96288	0.932
4.99536	0.936
5.02784	0.937
5.06033	0.938
5.09281	0.938
5.12529	0.935
5.15777	0.934
5.19025	0.932
5.22274	0.932
5.25522	0.932
5.2877	0.931
5.32018	0.932
5.35267	0.932
5.38515	0.931
5.41763	0.93
5.45011	0.93
5.48259	0.93
5.51508	0.921
5.54756	0.88
5.58004	0.849
5.61252	0.875
5.645	0.9
5.67749	0.896
5.70997	0.886
5.74245	0.885
5.77493	0.891
5.80742	0.893
5.8399	0.893
5.87238	0.892
5.90486	0.886
5.93734	0.871
5.96983	0.841
6.00231	0.555
6.03479	0.357
6.06727	0.599
6.09976	0.822
6.13224	0.848
6.16472	0.863
6.1972	0.876
6.22968	0.883
6.26217	0.884
6.29465	0.886
6.32713	0.89
6.35961	0.892
6.3921	0.891
6.42458	0.886
6.45706	0.881
6.48954	0.875
6.52202	0.866
6.55451	0.857
6.58699	0.849
6.61947	0.834
6.65195	0.81
6.68443	0.758
6.71692	0.633
6.7494	0.23
6.78188	0.189
6.81436	0.207
6.84685	0.281
6.87933	0.34
6.91181	0.366
6.94429	0.422
6.97677	0.538
7.00926	0.629
7.04174	0.688
7.07422	0.719
7.1067	0.726
7.13919	0.626
7.17167	0.407
7.20415	0.399
7.23663	0.442
7.26911	0.372
7.3016	0.44
7.33408	0.612
7.36656	0.678
7.39904	0.73
7.43153	0.747
7.46401	0.73
7.49649	0.756
7.52897	0.773
7.56145	0.778
7.59394	0.784
7.62642	0.791
7.6589	0.796
7.69138	0.803
7.72386	0.811
7.75635	0.817
7.78883	0.819
7.82131	0.82
7.85379	0.819
7.88628	0.819
7.91876	0.822
7.95124	0.824
7.98372	0.818
8.0162	0.811
8.04869	0.806
8.08117	0.804
8.11365	0.811
8.14613	0.82
8.17862	0.818
8.2111	0.813
8.24358	0.818
8.27606	0.829
8.30854	0.834
8.34103	0.82
8.37351	0.795
8.40599	0.793
8.43847	0.797
8.47096	0.798
8.50344	0.782
8.53592	0.701
8.5684	0.752
8.60088	0.806
8.63337	0.84
8.66585	0.854
8.69833	0.857
8.73081	0.857
8.76329	0.856
8.79578	0.856
8.82826	0.817
8.86074	0.784
8.89322	0.776
8.92571	0.788
8.95819	0.792
8.99067	0.799
9.02315	0.822
9.05563	0.839
9.08812	0.853
9.1206	0.858
9.15308	0.858
9.18556	0.859
9.21805	0.853
9.25053	0.809
9.28301	0.758
9.31549	0.722
9.34797	0.743
9.38046	0.769
9.41294	0.797
9.44542	0.817
9.4779	0.826
9.51039	0.829
9.54287	0.834
9.57535	0.842
9.60783	0.849
9.64031	0.855
9.6728	0.856
9.70528	0.855
9.73776	0.842
9.77024	0.82
9.80272	0.813
9.83521	0.82
9.86769	0.826
9.90017	0.829
9.93265	0.833
9.96514	0.836
9.99762	0.84
10.0301	0.843
10.0626	0.844
10.0951	0.844
10.1275	0.846
10.16	0.846
10.1925	0.85
10.225	0.857
10.2575	0.864
10.29	0.87
10.3224	0.875
10.3549	0.879
10.3874	0.88
10.4199	0.872
10.4524	0.861
10.4849	0.851
10.5173	0.846
10.5498	0.849
10.5823	0.854
10.6148	0.861
10.6473	0.862
10.6797	0.861
10.7122	0.862
10.7447	0.862
10.7772	0.858
10.8097	0.844
10.8422	0.82
10.8746	0.799
10.9071	0.807
10.9396	0.824
10.9721	0.833
11.0046	0.822
11.037	0.803
11.0695	0.756
11.102	0.694
11.1345	0.562
11.167	0.398
11.1995	0.229
11.2319	0.133
11.2644	0.137
11.2969	0.228
11.3294	0.368
11.3619	0.502
11.3944	0.625
11.4268	0.723
11.4593	0.765
11.4918	0.784
11.5243	0.798
11.5568	0.81
11.5892	0.817
11.6217	0.819
11.6542	0.818
11.6867	0.805
11.7192	0.796
11.7517	0.785
11.7841	0.776
11.8166	0.775
11.8491	0.781
11.8816	0.787
11.9141	0.792
11.9465	0.797
11.979	0.8
12.0115	0.805
12.044	0.803
12.0765	0.802
12.109	0.8
12.1414	0.797
12.1739	0.796
12.2064	0.793
12.2389	0.793
12.2714	0.797
12.3039	0.802
12.3363	0.81
12.3688	0.819
12.4013	0.829
12.4338	0.837
12.4663	0.846
12.4987	0.849
12.5312	0.848
12.5637	0.846
12.5962	0.842
12.6287	0.84
12.6612	0.841
12.6936	0.844
12.7261	0.848
12.7586	0.855
12.7911	0.859
12.8236	0.868
12.8561	0.875
12.8885	0.881
12.921	0.89
12.9535	0.896
12.986	0.902
13.0185	0.907
13.0509	0.913
13.0834	0.916
13.1159	0.922
13.1484	0.927
13.1809	0.93
13.2134	0.935
13.2458	0.937
13.2783	0.939
13.3108	0.937
13.3433	0.932
13.3758	0.928
13.4082	0.923
13.4407	0.92
13.4732	0.905
13.5057	0.894
13.5382	0.887
13.5707	0.884
13.6031	0.879
13.6356	0.881
13.6681	0.892
13.7006	0.903
13.7331	0.913
13.7656	0.923
13.798	0.932
13.8305	0.942
13.863	0.946
13.8955	0.951
13.928	0.956
13.9604	0.961
13.9929	0.966
14.0254	0.971
14.0579	0.975
14.0904	0.979
14.1229	0.981
14.1553	0.982
14.1878	0.984
14.2203	0.984
14.2528	0.986
14.2853	0.988
14.3177	0.989
14.3502	0.99
14.3827	0.99
14.4152	0.994
14.4477	0.995
14.4802	0.996
