Infrared Spectrum: 2,6-DIMETHYL-5,7-OCTADIENE (TRANS)
Formula: C10 H18
CAS: 6874-07-3
Class: COBLENTZ
Instrument: Not specified, most likely a prism, grating, or hybrid spectrometer.
Sampling: TRANSMISSION
Resolution: 4
Origin: INTERNATIONAL FLAVORS & FRAGRANCES, INC.
MICROMETERS	TRANSMITTANCE
2.021	0.948
2.05819	0.947
2.09538	0.942
2.13257	0.942
2.16975	0.938
2.20694	0.921
2.24413	0.894
2.28132	0.879
2.31851	0.879
2.3557	0.885
2.39289	0.887
2.43007	0.891
2.46726	0.903
2.50445	0.914
2.54164	0.921
2.57883	0.923
2.61602	0.926
2.6532	0.933
2.69039	0.936
2.72758	0.939
2.76477	0.941
2.80196	0.942
2.83915	0.941
2.87634	0.941
2.91352	0.938
2.95071	0.935
2.9879	0.933
3.02509	0.933
3.06228	0.932
3.09947	0.921
3.13666	0.906
3.17384	0.887
3.21103	0.612
3.24822	0.653
3.28541	0.475
3.3226	0.132
3.35979	0.072
3.39697	0.067
3.43416	0.099
3.47135	0.143
3.50854	0.483
3.54573	0.698
3.58292	0.792
3.62011	0.832
3.65729	0.841
3.69448	0.858
3.73167	0.884
3.76886	0.893
3.80605	0.897
3.84324	0.899
3.88043	0.902
3.91761	0.915
3.9548	0.923
3.99199	0.927
4.02918	0.927
4.06637	0.932
4.10356	0.933
4.14074	0.935
4.17793	0.935
4.21512	0.939
4.25231	0.95
4.2895	0.954
4.32669	0.957
4.36388	0.957
4.40106	0.957
4.43825	0.957
4.47544	0.957
4.51263	0.956
4.54982	0.956
4.58701	0.956
4.6242	0.956
4.66138	0.956
4.69857	0.956
4.73576	0.956
4.77295	0.956
4.81014	0.956
4.84733	0.956
4.88451	0.956
4.9217	0.956
4.95889	0.956
4.99608	0.957
5.03327	0.954
5.07046	0.95
5.10765	0.947
5.14483	0.947
5.18202	0.948
5.21921	0.95
5.2564	0.95
5.29359	0.95
5.33078	0.95
5.36797	0.95
5.40515	0.95
5.44234	0.947
5.47953	0.927
5.51672	0.87
5.55391	0.78
5.5911	0.765
5.62828	0.859
5.66547	0.9
5.70266	0.902
5.73985	0.905
5.77704	0.903
5.81423	0.902
5.85142	0.902
5.8886	0.902
5.92579	0.9
5.96298	0.893
6.00017	0.862
6.03736	0.585
6.07455	0.338
6.11174	0.661
6.14892	0.727
6.18611	0.447
6.2233	0.432
6.26049	0.722
6.29768	0.783
6.33487	0.819
6.37205	0.822
6.40924	0.822
6.44643	0.826
6.48362	0.85
6.52081	0.861
6.558	0.862
6.59519	0.861
6.63237	0.853
6.66956	0.829
6.70675	0.783
6.74394	0.671
6.78113	0.236
6.81832	0.195
6.85551	0.284
6.89269	0.322
6.92988	0.373
6.96707	0.462
7.00426	0.528
7.04145	0.552
7.07864	0.581
7.11582	0.65
7.15301	0.618
7.1902	0.358
7.22739	0.299
7.26458	0.518
7.30177	0.412
7.33896	0.429
7.37614	0.543
7.41333	0.641
7.45052	0.722
7.48771	0.733
7.5249	0.771
7.56209	0.783
7.59928	0.781
7.63646	0.759
7.67365	0.762
7.71084	0.75
7.74803	0.783
7.78522	0.831
7.82241	0.864
7.85959	0.879
7.89678	0.884
7.93397	0.871
7.97116	0.844
8.00835	0.844
8.04554	0.849
8.08273	0.853
8.11991	0.859
8.1571	0.868
8.19429	0.884
8.23148	0.888
8.26867	0.891
8.30586	0.882
8.34305	0.84
8.38023	0.823
8.41742	0.832
8.45461	0.847
8.4918	0.852
8.52899	0.765
8.56618	0.667
8.60336	0.76
8.64055	0.832
8.67774	0.871
8.71493	0.888
8.75212	0.899
8.78931	0.9
8.8265	0.9
8.86368	0.879
8.90087	0.835
8.93806	0.823
8.97525	0.823
9.01244	0.822
9.04963	0.822
9.08682	0.826
9.124	0.826
9.16119	0.772
9.19838	0.597
9.23557	0.405
9.27276	0.32
9.30995	0.49
9.34713	0.689
9.38432	0.769
9.42151	0.813
9.4587	0.829
9.49589	0.834
9.53308	0.837
9.57027	0.838
9.60745	0.838
9.64464	0.838
9.68183	0.835
9.71902	0.834
9.75621	0.832
9.7934	0.831
9.83059	0.832
9.86777	0.835
9.90496	0.835
9.94215	0.807
9.97934	0.756
10.0165	0.665
10.0537	0.484
10.0909	0.212
10.1281	0.132
10.1653	0.29
10.2025	0.496
10.2397	0.631
10.2768	0.658
10.314	0.679
10.3512	0.695
10.3884	0.688
10.4256	0.74
10.4628	0.798
10.5	0.814
10.5372	0.826
10.5744	0.838
10.6115	0.844
10.6487	0.849
10.6859	0.837
10.7231	0.795
10.7603	0.79
10.7975	0.796
10.8347	0.801
10.8719	0.774
10.9091	0.739
10.9462	0.733
10.9834	0.703
11.0206	0.626
11.0578	0.516
11.095	0.387
11.1322	0.259
11.1694	0.132
11.2066	0.085
11.2437	0.073
11.2809	0.085
11.3181	0.254
11.3553	0.424
11.3925	0.534
11.4297	0.57
11.4669	0.578
11.5041	0.534
11.5413	0.481
11.5784	0.447
11.6156	0.447
11.6528	0.493
11.69	0.551
11.7272	0.588
11.7644	0.611
11.8016	0.623
11.8388	0.628
11.876	0.629
11.9131	0.637
11.9503	0.661
11.9875	0.692
12.0247	0.721
12.0619	0.734
12.0991	0.739
12.1363	0.74
12.1735	0.745
12.2106	0.777
12.2478	0.822
12.285	0.859
12.3222	0.879
12.3594	0.908
12.3966	0.927
12.4338	0.939
12.471	0.947
12.5082	0.95
12.5453	0.953
12.5825	0.951
12.6197	0.951
12.6569	0.948
12.6941	0.944
12.7313	0.941
12.7685	0.938
12.8057	0.938
12.8429	0.942
12.88	0.948
12.9172	0.953
12.9544	0.957
12.9916	0.963
13.0288	0.966
13.066	0.968
13.1032	0.971
13.1404	0.969
13.1776	0.966
13.2147	0.954
13.2519	0.936
13.2891	0.911
13.3263	0.876
13.3635	0.847
13.4007	0.825
13.4379	0.799
13.4751	0.772
13.5122	0.757
13.5494	0.763
13.5866	0.804
13.6238	0.856
13.661	0.891
13.6982	0.927
13.7354	0.945
13.7726	0.957
13.8098	0.966
13.8469	0.974
13.8841	0.975
13.9213	0.977
13.9585	0.98
13.9957	0.983
14.0329	0.989
14.0701	0.99
14.1073	0.987
14.1445	0.983
14.1816	0.984
14.2188	0.987
14.256	0.984
14.2932	0.98
14.3304	0.977
14.3676	0.978
14.4048	0.974
14.442	0.969
14.4791	0.969
14.5163	0.968
14.5535	0.965
14.5907	0.96
14.6279	0.957
14.6651	0.96
14.7023	0.956
14.7395	0.951
14.7767	0.95
14.8138	0.951
14.851	0.948
14.8882	0.941
14.9254	0.936
