Infrared Spectrum: 2,6-DIMETHYL 1-OCTENE
Formula: C10 H20
CAS: 6874-29-9
Class: COBLENTZ
Instrument: Not specified, most likely a prism, grating, or hybrid spectrometer.
Sampling: TRANSMISSION
Resolution: 4
Origin: INTERNATIONAL FLAVORS & FRAGRANCES, INC.
MICROMETERS	TRANSMITTANCE
2.009	0.944
2.04156	0.946
2.07412	0.945
2.10668	0.945
2.13924	0.945
2.17179	0.946
2.20435	0.94
2.23691	0.928
2.26947	0.896
2.30203	0.856
2.33459	0.874
2.36715	0.886
2.39971	0.897
2.43226	0.904
2.46482	0.906
2.49738	0.914
2.52994	0.919
2.5625	0.918
2.59506	0.925
2.62762	0.93
2.66018	0.933
2.69273	0.935
2.72529	0.933
2.75785	0.931
2.79041	0.926
2.82297	0.929
2.85553	0.926
2.88809	0.925
2.92065	0.923
2.9532	0.922
2.98576	0.922
3.01832	0.923
3.05088	0.922
3.08344	0.922
3.116	0.911
3.14856	0.894
3.18112	0.874
3.21367	0.544
3.24623	0.684
3.27879	0.694
3.31135	0.264
3.34391	0.088
3.37647	0.09
3.40903	0.097
3.44159	0.104
3.47414	0.273
3.5067	0.537
3.53926	0.669
3.57182	0.747
3.60438	0.816
3.63694	0.817
3.6695	0.817
3.70206	0.849
3.73461	0.864
3.76717	0.874
3.79973	0.882
3.83229	0.889
3.86485	0.896
3.89741	0.904
3.92997	0.914
3.96253	0.928
3.99508	0.932
4.02764	0.933
4.0602	0.933
4.09276	0.931
4.12532	0.928
4.15788	0.923
4.19044	0.916
4.223	0.912
4.25556	0.91
4.28811	0.911
4.32067	0.917
4.35323	0.926
4.38579	0.931
4.41835	0.935
4.45091	0.937
4.48347	0.937
4.51603	0.936
4.54858	0.936
4.58114	0.937
4.6137	0.938
4.64626	0.938
4.67882	0.939
4.71138	0.94
4.74394	0.938
4.7765	0.939
4.80905	0.937
4.84161	0.938
4.87417	0.938
4.90673	0.938
4.93929	0.939
4.97185	0.94
5.00441	0.939
5.03697	0.941
5.06952	0.943
5.10208	0.943
5.13464	0.943
5.1672	0.941
5.19976	0.941
5.23232	0.941
5.26488	0.941
5.29744	0.94
5.32999	0.94
5.36255	0.939
5.39511	0.938
5.42767	0.936
5.46023	0.932
5.49279	0.929
5.52535	0.917
5.55791	0.834
5.59046	0.793
5.62302	0.831
5.65558	0.873
5.68814	0.893
5.7207	0.894
5.75326	0.892
5.78582	0.893
5.81838	0.892
5.85093	0.882
5.88349	0.872
5.91605	0.861
5.94861	0.843
5.98117	0.747
6.01373	0.271
6.04629	0.587
6.07885	0.734
6.1114	0.794
6.14396	0.828
6.17652	0.848
6.20908	0.865
6.24164	0.872
6.2742	0.872
6.30676	0.874
6.33932	0.88
6.37188	0.88
6.40443	0.879
6.43699	0.88
6.46955	0.879
6.50211	0.874
6.53467	0.871
6.56723	0.867
6.59979	0.857
6.63235	0.838
6.6649	0.813
6.69746	0.762
6.73002	0.657
6.76258	0.252
6.79514	0.129
6.8277	0.161
6.86026	0.228
6.89282	0.299
6.92537	0.377
6.95793	0.469
6.99049	0.56
7.02305	0.641
7.05561	0.685
7.08817	0.711
7.12073	0.716
7.15329	0.648
7.18584	0.44
7.2184	0.204
7.25096	0.346
7.28352	0.538
7.31608	0.647
7.34864	0.696
7.3812	0.716
7.41376	0.742
7.44631	0.772
7.47887	0.794
7.51143	0.799
7.54399	0.803
7.57655	0.801
7.60911	0.793
7.64167	0.781
7.67423	0.78
7.70678	0.778
7.73934	0.777
7.7719	0.776
7.80446	0.773
7.83702	0.767
7.86958	0.769
7.90214	0.777
7.9347	0.794
7.96725	0.802
7.99981	0.814
8.03237	0.815
8.06493	0.808
8.09749	0.814
8.13005	0.827
8.16261	0.824
8.19517	0.806
8.22772	0.794
8.26028	0.819
8.29284	0.845
8.3254	0.854
8.35796	0.854
8.39052	0.836
8.42308	0.821
8.45564	0.821
8.48819	0.831
8.52075	0.841
8.55331	0.841
8.58587	0.825
8.61843	0.794
8.65099	0.761
8.68355	0.798
8.71611	0.824
8.74867	0.853
8.78122	0.857
8.81378	0.852
8.84634	0.85
8.8789	0.837
8.91146	0.832
8.94402	0.822
8.97658	0.817
9.00914	0.819
9.04169	0.828
9.07425	0.842
9.10681	0.852
9.13937	0.858
9.17193	0.865
9.20449	0.871
9.23705	0.873
9.26961	0.868
9.30216	0.863
9.33472	0.86
9.36728	0.857
9.39984	0.856
9.4324	0.856
9.46496	0.854
9.49752	0.848
9.53008	0.844
9.56263	0.838
9.59519	0.83
9.62775	0.82
9.66031	0.809
9.69287	0.801
9.72543	0.795
9.75799	0.791
9.79055	0.79
9.8231	0.79
9.85566	0.784
9.88822	0.786
9.92078	0.794
9.95334	0.803
9.9859	0.808
10.0185	0.813
10.051	0.812
10.0836	0.81
10.1161	0.8
10.1487	0.786
10.1813	0.767
10.2138	0.749
10.2464	0.736
10.2789	0.73
10.3115	0.741
10.344	0.756
10.3766	0.771
10.4092	0.773
10.4417	0.777
10.4743	0.785
10.5068	0.802
10.5394	0.823
10.572	0.837
10.6045	0.849
10.6371	0.849
10.6696	0.843
10.7022	0.839
10.7348	0.834
10.7673	0.824
10.7999	0.815
10.8324	0.81
10.865	0.803
10.8975	0.799
10.9301	0.793
10.9627	0.788
10.9952	0.778
11.0278	0.757
11.0603	0.725
11.0929	0.648
11.1255	0.501
11.158	0.262
11.1906	0.125
11.2231	0.076
11.2557	0.071
11.2882	0.098
11.3208	0.191
11.3534	0.298
11.3859	0.465
11.4185	0.57
11.451	0.649
11.4836	0.709
11.5162	0.74
11.5487	0.764
11.5813	0.79
11.6138	0.798
11.6464	0.801
11.679	0.806
11.7115	0.808
11.7441	0.814
11.7766	0.819
11.8092	0.828
11.8417	0.837
11.8743	0.842
11.9069	0.851
11.9394	0.856
11.972	0.86
12.0045	0.865
12.0371	0.865
12.0697	0.866
12.1022	0.867
12.1348	0.867
12.1673	0.868
12.1999	0.87
12.2325	0.872
12.265	0.874
12.2976	0.877
12.3301	0.879
12.3627	0.881
12.3952	0.882
12.4278	0.881
12.4604	0.879
12.4929	0.879
12.5255	0.881
12.558	0.879
12.5906	0.878
12.6232	0.877
12.6557	0.879
12.6883	0.879
12.7208	0.878
12.7534	0.875
12.786	0.871
12.8185	0.86
12.8511	0.849
12.8836	0.831
12.9162	0.815
12.9487	0.798
12.9813	0.79
13.0139	0.787
13.0464	0.796
13.079	0.815
13.1115	0.835
13.1441	0.856
13.1767	0.873
13.2092	0.883
13.2418	0.894
13.2743	0.897
13.3069	0.9
13.3395	0.897
13.372	0.894
13.4046	0.883
13.4371	0.873
13.4697	0.858
13.5022	0.843
13.5348	0.828
13.5674	0.813
13.5999	0.808
13.6325	0.816
13.665	0.825
13.6976	0.843
13.7302	0.859
13.7627	0.87
13.7953	0.879
13.8278	0.888
13.8604	0.897
13.893	0.903
13.9255	0.906
13.9581	0.91
13.9906	0.912
14.0232	0.915
14.0557	0.916
14.0883	0.917
14.1209	0.918
14.1534	0.918
14.186	0.919
14.2185	0.919
14.2511	0.922
14.2837	0.923
14.3162	0.926
14.3488	0.93
14.3813	0.933
14.4139	0.937
14.4464	0.939
14.479	0.943
14.5116	0.943
14.5441	0.945
14.5767	0.948
14.6092	0.952
14.6418	0.954
14.6744	0.957
14.7069	0.958
14.7395	0.959
14.772	0.96
14.8046	0.96
14.8372	0.96
14.8697	0.96
14.9023	0.96
14.9348	0.96
14.9674	0.959
14.9999	0.959
