Infrared Spectrum: 2,6-DIMETHYL 3-OCTENE
Formula: C10 H20
CAS: 6874-28-8
Class: COBLENTZ
Instrument: Not specified, most likely a prism, grating, or hybrid spectrometer.
Sampling: TRANSMISSION
Resolution: 4
Origin: INTERNATIONAL FLAVORS & FRAGRANCES, INC.
MICROMETERS	TRANSMITTANCE
2.016	0.928
2.04864	0.926
2.08127	0.926
2.11391	0.928
2.14654	0.925
2.17918	0.924
2.21181	0.922
2.24445	0.91
2.27709	0.873
2.30972	0.849
2.34236	0.851
2.37499	0.869
2.40763	0.873
2.44026	0.877
2.4729	0.885
2.50554	0.896
2.53817	0.904
2.57081	0.907
2.60344	0.911
2.63608	0.918
2.66871	0.922
2.70135	0.925
2.73398	0.929
2.76662	0.933
2.79926	0.936
2.83189	0.936
2.86453	0.933
2.89716	0.932
2.9298	0.929
2.96243	0.925
2.99507	0.922
3.02771	0.917
3.06034	0.908
3.09298	0.895
3.12561	0.872
3.15825	0.865
3.19088	0.863
3.22352	0.835
3.25616	0.774
3.28879	0.61
3.32143	0.462
3.35406	0.198
3.3867	0.115
3.41933	0.11
3.45197	0.111
3.48461	0.158
3.51724	0.326
3.54988	0.661
3.58251	0.762
3.61515	0.818
3.64778	0.823
3.68042	0.825
3.71306	0.852
3.74569	0.864
3.77833	0.87
3.81096	0.877
3.8436	0.88
3.87623	0.882
3.90887	0.898
3.94151	0.914
3.97414	0.922
4.00678	0.926
4.03941	0.93
4.07205	0.933
4.10468	0.936
4.13732	0.936
4.16995	0.936
4.20259	0.933
4.23523	0.935
4.26786	0.936
4.3005	0.939
4.33313	0.942
4.36577	0.943
4.3984	0.945
4.43104	0.95
4.46368	0.952
4.49631	0.954
4.52895	0.955
4.56158	0.958
4.59422	0.959
4.62685	0.96
4.65949	0.961
4.69213	0.961
4.72476	0.962
4.7574	0.962
4.79003	0.962
4.82267	0.962
4.8553	0.964
4.88794	0.964
4.92058	0.964
4.95321	0.965
4.98585	0.965
5.01848	0.966
5.05112	0.965
5.08375	0.965
5.11639	0.965
5.14903	0.966
5.18166	0.965
5.2143	0.964
5.24693	0.964
5.27957	0.965
5.3122	0.962
5.34484	0.96
5.37747	0.959
5.41011	0.955
5.44275	0.953
5.47538	0.95
5.50802	0.945
5.54065	0.944
5.57329	0.942
5.60592	0.94
5.63856	0.939
5.6712	0.938
5.70383	0.935
5.73647	0.933
5.7691	0.935
5.80174	0.933
5.83437	0.932
5.86701	0.936
5.89965	0.935
5.93228	0.931
5.96492	0.931
5.99755	0.93
6.03019	0.922
6.06282	0.92
6.09546	0.922
6.1281	0.925
6.16073	0.929
6.19337	0.932
6.226	0.935
6.25864	0.936
6.29127	0.936
6.32391	0.936
6.35655	0.933
6.38918	0.931
6.42182	0.926
6.45445	0.922
6.48709	0.917
6.51972	0.908
6.55236	0.9
6.58499	0.887
6.61763	0.877
6.65027	0.849
6.6829	0.808
6.71554	0.734
6.74817	0.52
6.78081	0.272
6.81344	0.169
6.84608	0.164
6.87872	0.213
6.91135	0.382
6.94399	0.498
6.97662	0.616
7.00926	0.683
7.04189	0.727
7.07453	0.756
7.10717	0.765
7.1398	0.764
7.17244	0.683
7.20507	0.355
7.23771	0.361
7.27034	0.457
7.30298	0.42
7.33562	0.515
7.36825	0.631
7.40089	0.687
7.43352	0.713
7.46616	0.71
7.49879	0.741
7.53143	0.761
7.56407	0.767
7.5967	0.764
7.62934	0.754
7.66197	0.749
7.69461	0.771
7.72724	0.798
7.75988	0.819
7.79252	0.83
7.82515	0.833
7.85779	0.836
7.89042	0.842
7.92306	0.847
7.95569	0.852
7.98833	0.863
8.02096	0.88
8.0536	0.893
8.08624	0.9
8.11887	0.904
8.15151	0.907
8.18414	0.899
8.21678	0.884
8.24941	0.872
8.28205	0.88
8.31469	0.896
8.34732	0.906
8.37996	0.913
8.41259	0.913
8.44523	0.903
8.47786	0.87
8.5105	0.807
8.54314	0.804
8.57577	0.809
8.60841	0.803
8.64104	0.786
8.67368	0.782
8.70631	0.792
8.73895	0.809
8.77159	0.828
8.80422	0.855
8.83686	0.866
8.86949	0.865
8.90213	0.856
8.93476	0.837
8.9674	0.8
9.00004	0.772
9.03267	0.748
9.06531	0.733
9.09794	0.739
9.13058	0.791
9.16321	0.835
9.19585	0.855
9.22848	0.864
9.26112	0.876
9.29376	0.886
9.32639	0.891
9.35903	0.895
9.39166	0.895
9.4243	0.893
9.45693	0.88
9.48957	0.855
9.52221	0.811
9.55484	0.785
9.58748	0.772
9.62011	0.777
9.65275	0.796
9.68538	0.807
9.71802	0.819
9.75066	0.806
9.78329	0.784
9.81593	0.778
9.84856	0.777
9.8812	0.784
9.91383	0.794
9.94647	0.787
9.97911	0.768
10.0117	0.683
10.0444	0.661
10.077	0.679
10.1096	0.681
10.1423	0.663
10.1749	0.574
10.2076	0.425
10.2402	0.249
10.2728	0.164
10.3055	0.128
10.3381	0.117
10.3707	0.123
10.4034	0.253
10.436	0.382
10.4686	0.462
10.5013	0.527
10.5339	0.573
10.5665	0.634
10.5992	0.697
10.6318	0.745
10.6645	0.782
10.6971	0.826
10.7297	0.841
10.7624	0.844
10.795	0.835
10.8276	0.813
10.8603	0.778
10.8929	0.754
10.9255	0.736
10.9582	0.747
10.9908	0.798
11.0234	0.849
11.0561	0.874
11.0887	0.886
11.1214	0.895
11.154	0.899
11.1866	0.902
11.2193	0.903
11.2519	0.904
11.2845	0.907
11.3172	0.908
11.3498	0.91
11.3824	0.92
11.4151	0.925
11.4477	0.929
11.4803	0.936
11.513	0.943
11.5456	0.947
11.5783	0.952
11.6109	0.958
11.6435	0.96
11.6762	0.96
11.7088	0.962
11.7414	0.961
11.7741	0.957
11.8067	0.951
11.8393	0.944
11.872	0.931
11.9046	0.916
11.9372	0.913
11.9699	0.909
12.0025	0.911
12.0352	0.917
12.0678	0.923
12.1004	0.925
12.1331	0.928
12.1657	0.928
12.1983	0.93
12.231	0.935
12.2636	0.933
12.2962	0.936
12.3289	0.938
12.3615	0.937
12.3941	0.937
12.4268	0.937
12.4594	0.935
12.4921	0.932
12.5247	0.93
12.5573	0.933
12.59	0.93
12.6226	0.93
12.6552	0.933
12.6879	0.932
12.7205	0.93
12.7531	0.926
12.7858	0.923
12.8184	0.915
12.851	0.907
12.8837	0.899
12.9163	0.892
12.949	0.882
12.9816	0.877
13.0142	0.88
13.0469	0.888
13.0795	0.896
13.1121	0.899
13.1448	0.899
13.1774	0.902
13.21	0.908
13.2427	0.914
13.2753	0.921
13.3079	0.928
13.3406	0.937
13.3732	0.946
13.4059	0.953
13.4385	0.959
13.4711	0.961
13.5038	0.964
13.5364	0.964
13.569	0.96
13.6017	0.957
13.6343	0.953
13.6669	0.949
13.6996	0.947
13.7322	0.951
13.7648	0.955
13.7975	0.961
13.8301	0.967
13.8628	0.973
13.8954	0.979
13.928	0.983
13.9607	0.988
13.9933	0.993
14.0259	0.995
14.0586	0.996
14.0912	0.998
14.1238	1.002
14.1565	1.004
14.1891	1.002
14.2217	1.001
14.2544	1
14.287	0.997
14.3197	0.994
14.3523	0.987
14.3849	0.983
14.4176	0.981
14.4502	0.975
14.4828	0.969
14.5155	0.964
14.5481	0.957
14.5807	0.95
14.6134	0.938
14.646	0.925
14.6786	0.909
14.7113	0.902
14.7439	0.895
14.7766	0.882
14.8092	0.877
14.8418	0.873
14.8745	0.87
14.9071	0.867
14.9397	0.862
14.9724	0.856
15.005	0.851
