Infrared Spectrum: 2,6-DIMETHYL 1,3,5-OCTATRIENE (TRANS)
Formula: C10 H16
CAS: 6874-09-5
Class: COBLENTZ
Instrument: Not specified, most likely a prism, grating, or hybrid spectrometer.
Sampling: TRANSMISSION
Resolution: 4
Origin: INTERNATIONAL FLAVORS & FRAGRANCES, INC.
MICROMETERS	TRANSMITTANCE
2.019	0.936
2.05141	0.935
2.08382	0.932
2.11623	0.934
2.14864	0.9338
2.18105	0.9302
2.21346	0.931
2.24587	0.923
2.27828	0.8989
2.31069	0.885
2.3431	0.8941
2.37551	0.912
2.40792	0.9231
2.44033	0.93
2.47274	0.923
2.50515	0.929
2.53756	0.928
2.56997	0.9321
2.60238	0.9411
2.63479	0.9474
2.6672	0.951
2.69961	0.952
2.73202	0.953
2.76443	0.9518
2.79684	0.946
2.82925	0.941
2.86166	0.938
2.89407	0.936
2.92648	0.935
2.95889	0.934
2.9913	0.935
3.02371	0.936
3.05612	0.937
3.08853	0.935
3.12094	0.9288
3.15335	0.921
3.18576	0.8967
3.21817	0.6614
3.25058	0.5942
3.28299	0.605
3.3154	0.2433
3.34781	0.228
3.38022	0.249
3.41263	0.2955
3.44504	0.3224
3.47745	0.4104
3.50986	0.6217
3.54227	0.7588
3.57468	0.8508
3.60709	0.8771
3.6395	0.89
3.67191	0.8931
3.70432	0.9262
3.73673	0.9397
3.76914	0.949
3.80155	0.947
3.83396	0.947
3.86637	0.951
3.89878	0.954
3.93119	0.958
3.9636	0.959
3.99601	0.961
4.02842	0.96
4.06083	0.96
4.09324	0.959
4.12565	0.958
4.15806	0.958
4.19048	0.958
4.22289	0.958
4.2553	0.958
4.28771	0.9602
4.32012	0.963
4.35253	0.964
4.38494	0.965
4.41735	0.966
4.44976	0.966
4.48217	0.965
4.51458	0.965
4.54699	0.965
4.5794	0.966
4.61181	0.9652
4.64422	0.965
4.67663	0.964
4.70904	0.965
4.74145	0.965
4.77386	0.966
4.80627	0.967
4.83868	0.966
4.87109	0.964
4.9035	0.9639
4.93591	0.963
4.96832	0.963
5.00073	0.9593
5.03314	0.963
5.06555	0.964
5.09796	0.965
5.13037	0.965
5.16278	0.965
5.19519	0.965
5.2276	0.9609
5.26001	0.9568
5.29242	0.953
5.32483	0.954
5.35724	0.9487
5.38965	0.9319
5.42206	0.9262
5.45447	0.9425
5.48688	0.9303
5.51929	0.8755
5.5517	0.8692
5.58411	0.8533
5.61652	0.7948
5.64893	0.7811
5.68134	0.8059
5.71375	0.8429
5.74616	0.8692
5.77857	0.8722
5.81098	0.8921
5.84339	0.901
5.8758	0.8966
5.90821	0.8822
5.94062	0.8697
5.97303	0.8619
6.00544	0.8497
6.03785	0.594
6.07026	0.6448
6.10267	0.657
6.13508	0.5094
6.16749	0.6798
6.1999	0.7295
6.23231	0.5144
6.26472	0.647
6.29713	0.7346
6.32954	0.782
6.36195	0.8025
6.39436	0.8204
6.42677	0.824
6.45918	0.8102
6.49159	0.8256
6.524	0.8399
6.55641	0.846
6.58882	0.845
6.62123	0.841
6.65364	0.833
6.68605	0.8138
6.71846	0.7779
6.75087	0.7252
6.78328	0.3426
6.81569	0.277
6.8481	0.3421
6.88051	0.388
6.91292	0.3863
6.94533	0.4474
6.97774	0.5541
7.01015	0.64
7.04256	0.6832
7.07497	0.7175
7.10738	0.7349
7.13979	0.6951
7.1722	0.5699
7.20461	0.4148
7.23702	0.4282
7.26943	0.4489
7.30184	0.4714
7.33425	0.5646
7.36666	0.6183
7.39907	0.7261
7.43148	0.7797
7.46389	0.8091
7.4963	0.818
7.52871	0.78
7.56112	0.5706
7.59353	0.5336
7.62594	0.6153
7.65835	0.6778
7.69076	0.762
7.72317	0.8029
7.75558	0.8304
7.78799	0.838
7.8204	0.8372
7.85281	0.8045
7.88522	0.7293
7.91763	0.7165
7.95004	0.731
7.98245	0.7538
8.01486	0.8328
8.04727	0.8615
8.07968	0.8829
8.11209	0.8859
8.1445	0.8898
8.17691	0.892
8.20932	0.893
8.24173	0.897
8.27414	0.897
8.30655	0.895
8.33896	0.892
8.37137	0.887
8.40378	0.8798
8.43619	0.8669
8.4686	0.855
8.50102	0.8548
8.53343	0.8647
8.56584	0.8716
8.59825	0.876
8.63066	0.878
8.66307	0.8767
8.69548	0.876
8.72789	0.877
8.7603	0.8832
8.79271	0.8841
8.82512	0.886
8.85753	0.887
8.88994	0.887
8.92235	0.886
8.95476	0.882
8.98717	0.882
9.01958	0.877
9.05199	0.873
9.0844	0.8726
9.11681	0.869
9.14922	0.8608
9.18163	0.8499
9.21404	0.832
9.24645	0.8084
9.27886	0.7802
9.31127	0.7227
9.34368	0.6184
9.37609	0.6689
9.4085	0.725
9.44091	0.7757
9.47332	0.8124
9.50573	0.8285
9.53814	0.835
9.57055	0.835
9.60296	0.831
9.63537	0.827
9.66778	0.826
9.70019	0.828
9.7326	0.827
9.76501	0.8171
9.79742	0.7925
9.82983	0.7707
9.86224	0.7554
9.89465	0.7438
9.92706	0.7369
9.95947	0.734
9.99188	0.7362
10.0243	0.7471
10.0567	0.7589
10.0891	0.7638
10.1215	0.7593
10.1539	0.7396
10.1863	0.7246
10.2187	0.7018
10.2512	0.66
10.2836	0.4212
10.316	0.151
10.3484	0.1078
10.3808	0.108
10.4132	0.1782
10.4456	0.2592
10.478	0.4326
10.5104	0.5079
10.5428	0.6137
10.5753	0.6863
10.6077	0.7242
10.6401	0.7612
10.6725	0.7897
10.7049	0.8095
10.7373	0.8265
10.7697	0.84
10.8021	0.8489
10.8345	0.8528
10.867	0.8547
10.8994	0.857
10.9318	0.858
10.9642	0.855
10.9966	0.8485
11.029	0.8268
11.0614	0.8031
11.0938	0.7709
11.1262	0.7259
11.1586	0.6273
11.1911	0.5226
11.2235	0.315
11.2559	0.1817
11.2883	0.152
11.3207	0.1631
11.3531	0.193
11.3855	0.2334
11.4179	0.2988
11.4503	0.431
11.4827	0.5325
11.5152	0.6294
11.5476	0.692
11.58	0.7354
11.6124	0.7629
11.6448	0.7759
11.6772	0.7718
11.7096	0.7307
11.742	0.637
11.7744	0.4902
11.8068	0.4086
11.8393	0.4818
11.8717	0.5944
11.9041	0.6568
11.9365	0.7168
11.9689	0.7841
12.0013	0.8224
12.0337	0.8467
12.0661	0.8634
12.0985	0.8776
12.1309	0.8845
12.1634	0.889
12.1958	0.892
12.2282	0.8974
12.2606	0.9
12.293	0.901
12.3254	0.902
12.3578	0.904
12.3902	0.902
12.4226	0.9012
12.455	0.9
12.4875	0.899
12.5199	0.895
12.5523	0.8872
12.5847	0.8671
12.6171	0.8432
12.6495	0.8069
12.6819	0.7978
12.7143	0.8001
12.7467	0.8093
12.7791	0.8254
12.8116	0.8499
12.844	0.8724
12.8764	0.8945
12.9088	0.904
12.9412	0.9085
12.9736	0.9124
13.006	0.9143
13.0384	0.916
13.0708	0.9173
13.1032	0.92
13.1357	0.922
13.1681	0.922
13.2005	0.924
13.2329	0.926
13.2653	0.927
13.2977	0.928
13.3301	0.9285
13.3625	0.928
13.3949	0.93
13.4273	0.93
13.4598	0.93
13.4922	0.93
13.5246	0.93
13.557	0.931
13.5894	0.931
13.6218	0.9318
13.6542	0.931
13.6866	0.931
13.719	0.93
13.7514	0.929
13.7839	0.9285
13.8163	0.928
13.8487	0.927
13.8811	0.927
13.9135	0.926
13.9459	0.924
13.9783	0.927
14.0107	0.926
14.0431	0.9232
14.0755	0.923
14.108	0.922
14.1404	0.921
14.1728	0.92
14.2052	0.919
14.2376	0.919
14.27	0.919
14.3024	0.919
14.3348	0.917
14.3672	0.917
14.3996	0.917
14.4321	0.92
14.4645	0.921
14.4969	0.922
14.5293	0.922
14.5617	0.923
14.5941	0.9233
14.6265	0.924
14.6589	0.926
14.6913	0.924
14.7237	0.926
14.7562	0.924
14.7886	0.924
14.821	0.926
14.8534	0.9247
14.8858	0.9266
14.9182	0.927
14.9506	0.9286
