Infrared Spectrum: 2-METHYL, 6-METHYLENE 1-OCTENE
Formula: C10 H18
CAS: 6874-33-5
Class: COBLENTZ
Instrument: Not specified, most likely a prism, grating, or hybrid spectrometer.
Sampling: TRANSMISSION
Resolution: 4
Origin: INTERNATIONAL FLAVORS & FRAGRANCES, INC.
MICROMETERS	TRANSMITTANCE
2.005	0.932
2.03758	0.936
2.07016	0.936
2.10274	0.935
2.13533	0.935
2.16791	0.935
2.20049	0.931
2.23307	0.922
2.26565	0.893
2.29823	0.875
2.33081	0.873
2.36339	0.885
2.39598	0.901
2.42856	0.908
2.46114	0.912
2.49372	0.915
2.5263	0.921
2.55888	0.93
2.59146	0.941
2.62404	0.947
2.65663	0.951
2.68921	0.951
2.72179	0.951
2.75437	0.953
2.78695	0.947
2.81953	0.943
2.85211	0.939
2.88469	0.941
2.91728	0.939
2.94986	0.936
2.98244	0.932
3.01502	0.934
3.0476	0.935
3.08018	0.936
3.11276	0.934
3.14534	0.928
3.17793	0.921
3.21051	0.886
3.24309	0.418
3.27567	0.523
3.30825	0.652
3.34083	0.373
3.37341	0.078
3.40599	0.06
3.43858	0.055
3.47116	0.076
3.50374	0.16
3.53632	0.326
3.5689	0.586
3.60148	0.773
3.63406	0.839
3.66664	0.855
3.69923	0.84
3.73181	0.871
3.76439	0.893
3.79697	0.913
3.82955	0.928
3.86213	0.941
3.89471	0.949
3.9273	0.958
3.95988	0.965
3.99246	0.969
4.02504	0.973
4.05762	0.976
4.0902	0.978
4.12278	0.979
4.15536	0.98
4.18795	0.981
4.22053	0.983
4.25311	0.984
4.28569	0.986
4.31827	0.988
4.35085	0.988
4.38343	0.989
4.41601	0.988
4.4486	0.988
4.48118	0.989
4.51376	0.99
4.54634	0.99
4.57892	0.993
4.6115	0.995
4.64408	0.996
4.67666	0.997
4.70925	0.997
4.74183	0.998
4.77441	0.998
4.80699	0.998
4.83957	0.995
4.87215	0.997
4.90473	0.998
4.93731	1
4.9699	1
5.00248	0.995
5.03506	0.994
5.06764	0.997
5.10022	0.998
5.1328	1
5.16538	0.998
5.19796	0.998
5.23055	0.998
5.26313	0.998
5.29571	0.997
5.32829	0.996
5.36087	0.993
5.39345	0.99
5.42603	0.99
5.45861	0.987
5.4912	0.975
5.52378	0.942
5.55636	0.856
5.58894	0.797
5.62152	0.817
5.6541	0.867
5.68668	0.92
5.71927	0.944
5.75185	0.944
5.78443	0.943
5.81701	0.943
5.84959	0.939
5.88217	0.923
5.91475	0.902
5.94733	0.868
5.97992	0.795
6.0125	0.44
6.04508	0.215
6.07766	0.423
6.11024	0.642
6.14282	0.734
6.1754	0.794
6.20798	0.82
6.24057	0.839
6.27315	0.853
6.30573	0.862
6.33831	0.875
6.37089	0.882
6.40347	0.885
6.43605	0.883
6.46863	0.873
6.50122	0.872
6.5338	0.871
6.56638	0.868
6.59896	0.862
6.63154	0.847
6.66412	0.827
6.6967	0.786
6.72928	0.734
6.76187	0.671
6.79445	0.331
6.82703	0.224
6.85961	0.209
6.89219	0.195
6.92477	0.19
6.95735	0.26
6.98993	0.372
7.02252	0.446
7.0551	0.513
7.08768	0.578
7.12026	0.619
7.15284	0.655
7.18542	0.611
7.218	0.425
7.25058	0.285
7.28317	0.356
7.31575	0.506
7.34833	0.588
7.38091	0.653
7.41349	0.699
7.44607	0.73
7.47865	0.76
7.51124	0.784
7.54382	0.797
7.5764	0.802
7.60898	0.803
7.64156	0.802
7.67414	0.798
7.70672	0.797
7.7393	0.798
7.77189	0.796
7.80447	0.793
7.83705	0.787
7.86963	0.781
7.90221	0.776
7.93479	0.779
7.96737	0.783
7.99995	0.791
8.03254	0.793
8.06512	0.781
8.0977	0.772
8.13028	0.766
8.16286	0.768
8.19544	0.776
8.22802	0.784
8.2606	0.79
8.29319	0.795
8.32577	0.797
8.35835	0.8
8.39093	0.808
8.42351	0.824
8.45609	0.838
8.48867	0.853
8.52125	0.857
8.55384	0.855
8.58642	0.853
8.619	0.849
8.65158	0.842
8.68416	0.833
8.71674	0.825
8.74932	0.826
8.7819	0.831
8.81449	0.845
8.84707	0.854
8.87965	0.857
8.91223	0.857
8.94481	0.855
8.97739	0.852
9.00997	0.848
9.04255	0.841
9.07514	0.843
9.10772	0.84
9.1403	0.834
9.17288	0.819
9.20546	0.782
9.23804	0.749
9.27062	0.739
9.30321	0.741
9.33579	0.744
9.36837	0.753
9.40095	0.763
9.43353	0.771
9.46611	0.772
9.49869	0.774
9.53127	0.774
9.56386	0.775
9.59644	0.778
9.62902	0.78
9.6616	0.783
9.69418	0.787
9.72676	0.789
9.75934	0.793
9.79192	0.797
9.82451	0.795
9.85709	0.79
9.88967	0.788
9.92225	0.788
9.95483	0.787
9.98741	0.787
10.02	0.791
10.0526	0.797
10.0852	0.8
10.1177	0.794
10.1503	0.791
10.1829	0.794
10.2155	0.798
10.2481	0.805
10.2806	0.815
10.3132	0.823
10.3458	0.831
10.3784	0.84
10.411	0.845
10.4435	0.847
10.4761	0.846
10.5087	0.843
10.5413	0.84
10.5739	0.838
10.6065	0.836
10.639	0.836
10.6716	0.835
10.7042	0.83
10.7368	0.825
10.7694	0.821
10.8019	0.818
10.8345	0.813
10.8671	0.806
10.8997	0.796
10.9323	0.772
10.9648	0.746
10.9974	0.717
11.03	0.623
11.0626	0.528
11.0952	0.404
11.1278	0.264
11.1603	0.065
11.1929	0.04
11.2255	0.031
11.2581	0.025
11.2907	0.024
11.3232	0.031
11.3558	0.055
11.3884	0.121
11.421	0.263
11.4536	0.365
11.4862	0.432
11.5187	0.509
11.5513	0.582
11.5839	0.611
11.6165	0.636
11.6491	0.663
11.6816	0.679
11.7142	0.7
11.7468	0.72
11.7794	0.738
11.812	0.756
11.8445	0.765
11.8771	0.772
11.9097	0.776
11.9423	0.779
11.9749	0.78
12.0075	0.78
12.04	0.779
12.0726	0.778
12.1052	0.774
12.1378	0.771
12.1704	0.764
12.2029	0.759
12.2355	0.756
12.2681	0.754
12.3007	0.754
12.3333	0.756
12.3658	0.756
12.3984	0.757
12.431	0.757
12.4636	0.759
12.4962	0.763
12.5288	0.767
12.5613	0.773
12.5939	0.779
12.6265	0.782
12.6591	0.783
12.6917	0.787
12.7242	0.793
12.7568	0.797
12.7894	0.802
12.822	0.806
12.8546	0.812
12.8871	0.818
12.9197	0.825
12.9523	0.832
12.9849	0.84
13.0175	0.849
13.0501	0.855
13.0826	0.868
13.1152	0.877
13.1478	0.884
13.1804	0.89
13.213	0.894
13.2455	0.897
13.2781	0.895
13.3107	0.893
13.3433	0.891
13.3759	0.886
13.4084	0.88
13.441	0.871
13.4736	0.863
13.5062	0.856
13.5388	0.848
13.5714	0.842
13.6039	0.84
13.6365	0.836
13.6691	0.834
13.7017	0.833
13.7343	0.833
13.7668	0.835
13.7994	0.839
13.832	0.843
13.8646	0.848
13.8972	0.852
13.9297	0.855
13.9623	0.858
13.9949	0.861
14.0275	0.862
14.0601	0.865
14.0927	0.868
14.1252	0.87
14.1578	0.871
14.1904	0.872
14.223	0.873
14.2556	0.873
14.2881	0.875
14.3207	0.873
14.3533	0.875
14.3859	0.875
14.4185	0.875
14.451	0.873
14.4836	0.873
14.5162	0.872
14.5488	0.871
14.5814	0.871
14.614	0.871
14.6465	0.872
14.6791	0.871
14.7117	0.871
14.7443	0.871
14.7769	0.87
14.8094	0.867
14.842	0.861
14.8746	0.858
14.9072	0.854
14.9398	0.849
14.9723	0.843
15.0049	0.84
