Infrared Spectrum: 2,6-DIMETHYL 1,3,7-OCTATRIENE (ALPHA MENTHRENE)
Formula: C10 H16
CAS: 6876-07-9
Class: COBLENTZ
Instrument: Not specified, most likely a prism, grating, or hybrid spectrometer.
Sampling: TRANSMISSION
Resolution: 4
Origin: INTERNATIONAL FLAVORS & FRAGRANCES, INC.
MICROMETERS	TRANSMITTANCE
2.037	0.956
2.07366	0.957
2.11031	0.958
2.14697	0.955
2.18362	0.952
2.22028	0.95
2.25694	0.9408
2.29359	0.8859
2.33025	0.857
2.3669	0.8845
2.40356	0.9064
2.44022	0.918
2.47687	0.9161
2.51353	0.922
2.55018	0.935
2.58684	0.945
2.6235	0.95
2.66015	0.956
2.69681	0.961
2.73346	0.963
2.77012	0.965
2.80678	0.963
2.84343	0.954
2.88009	0.9428
2.91674	0.935
2.9534	0.9309
2.99006	0.929
3.02671	0.93
3.06337	0.93
3.10002	0.9211
3.13668	0.9017
3.17334	0.6006
3.20999	0.4474
3.24665	0.5531
3.2833	0.1488
3.31996	0.128
3.35662	0.135
3.39327	0.156
3.42993	0.246
3.46658	0.3918
3.50324	0.543
3.5399	0.7986
3.57655	0.851
3.61321	0.8889
3.64986	0.8954
3.68652	0.9055
3.72318	0.9293
3.75983	0.9411
3.79649	0.948
3.83314	0.951
3.8698	0.9552
3.90646	0.961
3.94311	0.964
3.97977	0.9662
4.01642	0.9711
4.05308	0.977
4.08974	0.978
4.12639	0.981
4.16305	0.981
4.1997	0.981
4.23636	0.978
4.27302	0.982
4.30967	0.987
4.34633	0.985
4.38298	0.988
4.41964	0.991
4.4563	0.991
4.49295	0.991
4.52961	0.995
4.56626	0.996
4.60292	0.997
4.63958	0.9999
4.67623	1
4.71289	1
4.74954	0.997
4.7862	0.997
4.82286	0.998
4.85951	0.998
4.89617	0.998
4.93282	0.998
4.96948	0.997
5.00614	0.9969
5.04279	0.995
5.07945	0.995
5.1161	0.995
5.15276	0.996
5.18942	0.997
5.22607	0.9969
5.26273	0.991
5.29938	0.99
5.33604	0.982
5.37269	0.962
5.40935	0.9116
5.44601	0.8347
5.48266	0.8334
5.51932	0.8654
5.55597	0.8744
5.59263	0.7518
5.62929	0.7439
5.66594	0.7982
5.7026	0.8458
5.73925	0.9005
5.77591	0.9221
5.81257	0.928
5.84922	0.925
5.88588	0.922
5.92253	0.9073
5.95919	0.8683
5.99585	0.7668
6.0325	0.285
6.06916	0.5466
6.10581	0.641
6.14247	0.3179
6.17913	0.5157
6.21578	0.6496
6.25244	0.7253
6.28909	0.7959
6.32575	0.8276
6.36241	0.8531
6.39906	0.8708
6.43572	0.8838
6.47237	0.8926
6.50903	0.9
6.54569	0.912
6.58234	0.9023
6.619	0.8823
6.65565	0.857
6.69231	0.8259
6.72897	0.7418
6.76562	0.2298
6.80228	0.1786
6.83893	0.248
6.87559	0.229
6.91225	0.2756
6.9489	0.412
6.98556	0.3621
7.02221	0.4611
7.05887	0.581
7.09553	0.6423
7.13218	0.694
7.16884	0.3544
7.20549	0.2524
7.24215	0.388
7.27881	0.5129
7.31546	0.6134
7.35212	0.6983
7.38877	0.7265
7.42543	0.6938
7.46209	0.6925
7.49874	0.7013
7.5354	0.702
7.57205	0.6436
7.60871	0.6017
7.64537	0.6655
7.68202	0.7109
7.71868	0.7267
7.75533	0.743
7.79199	0.7809
7.82865	0.8095
7.8653	0.8373
7.90196	0.844
7.93861	0.83
7.97527	0.805
8.01193	0.8186
8.04858	0.8403
8.08524	0.8573
8.12189	0.8664
8.15855	0.869
8.19521	0.8646
8.23186	0.8371
8.26852	0.8229
8.30517	0.8287
8.34183	0.8425
8.37849	0.8558
8.41514	0.867
8.4518	0.872
8.48845	0.871
8.52511	0.87
8.56177	0.866
8.59842	0.8325
8.63508	0.8084
8.67173	0.7853
8.70839	0.755
8.74505	0.739
8.7817	0.742
8.81836	0.7656
8.85501	0.7739
8.89167	0.7507
8.92833	0.7194
8.96498	0.6801
9.00164	0.6657
9.03829	0.697
9.07495	0.721
9.11161	0.7303
9.14826	0.7237
9.18492	0.7119
9.22157	0.7071
9.25823	0.701
9.29489	0.7058
9.33154	0.7064
9.3682	0.6954
9.40485	0.703
9.44151	0.7153
9.47817	0.72
9.51482	0.712
9.55148	0.6891
9.58813	0.6633
9.62479	0.6279
9.66145	0.6108
9.6981	0.609
9.73476	0.5996
9.77141	0.5691
9.80807	0.5515
9.84473	0.56
9.88138	0.5339
9.91804	0.4008
9.95469	0.2068
9.99135	0.1747
10.028	0.2147
10.0647	0.2755
10.1013	0.3466
10.138	0.3596
10.1746	0.2464
10.2113	0.139
10.2479	0.0881
10.2846	0.0796
10.3213	0.0893
10.3579	0.2281
10.3946	0.3258
10.4312	0.4127
10.4679	0.4985
10.5045	0.5566
10.5412	0.6015
10.5778	0.6277
10.6145	0.6333
10.6512	0.6172
10.6878	0.5479
10.7245	0.4923
10.7611	0.3525
10.7978	0.1378
10.8344	0.0917
10.8711	0.0752
10.9077	0.0768
10.9444	0.0942
10.9811	0.1466
11.0177	0.2012
11.0544	0.2427
11.091	0.2343
11.1277	0.1706
11.1643	0.1064
11.201	0.0844
11.2377	0.077
11.2743	0.075
11.311	0.0804
11.3476	0.1636
11.3843	0.2472
11.4209	0.3711
11.4576	0.428
11.4942	0.4852
11.5309	0.5584
11.5676	0.5986
11.6042	0.6284
11.6409	0.6222
11.6775	0.612
11.7142	0.6265
11.7508	0.6462
11.7875	0.6782
11.8241	0.7017
11.8608	0.7343
11.8975	0.7648
11.9341	0.7894
11.9708	0.8105
12.0074	0.818
12.0441	0.813
12.0807	0.8028
12.1174	0.7882
12.1541	0.7601
12.1907	0.747
12.2274	0.7562
12.264	0.7705
12.3007	0.7843
12.3373	0.7973
12.374	0.811
12.4106	0.8041
12.4473	0.7851
12.484	0.7703
12.5206	0.7657
12.5573	0.7705
12.5939	0.775
12.6306	0.784
12.6672	0.7914
12.7039	0.8084
12.7405	0.8239
12.7772	0.8368
12.8139	0.8458
12.8505	0.854
12.8872	0.8625
12.9238	0.867
12.9605	0.87
12.9971	0.8722
13.0338	0.877
13.0705	0.878
13.1071	0.879
13.1438	0.8774
13.1804	0.876
13.2171	0.875
13.2537	0.877
13.2904	0.877
13.327	0.876
13.3637	0.875
13.4004	0.875
13.437	0.8722
13.4737	0.87
13.5103	0.866
13.547	0.862
13.5836	0.8551
13.6203	0.8467
13.6569	0.837
13.6936	0.8269
13.7303	0.8191
13.7669	0.813
13.8036	0.8073
13.8402	0.803
13.8769	0.798
13.9135	0.7927
13.9502	0.7895
13.9869	0.7839
14.0235	0.775
14.0602	0.7641
14.0968	0.7506
14.1335	0.7361
14.1701	0.7189
14.2068	0.7
14.2434	0.6814
14.2801	0.6628
14.3168	0.6431
14.3534	0.6221
14.3901	0.6045
14.4267	0.5921
14.4634	0.575
14.5	0.5528
14.5367	0.5288
14.5733	0.4977
14.61	0.4575
14.6467	0.4113
14.6833	0.366
14.72	0.3462
14.7566	0.3496
14.7933	0.3848
14.8299	0.4374
14.8666	0.4657
14.9033	0.4824
14.9399	0.496
