Infrared Spectrum: P-TOLU-P-TOLUIDIDE
Formula: C15 H15 N O
CAS: 6876-66-0
State: SOLID (NUJOL MULL)
Class: COBLENTZ
Instrument: Not specified, most likely a prism, grating, or hybrid spectrometer.
Sampling: TRANSMISSION
Resolution: 4
Origin: TENNESSEE EASTMAN COMPANY, RESEARCH LABORATORIES
MICROMETERS	TRANSMITTANCE
2.012	0.456
2.05099	0.457
2.08997	0.464
2.12896	0.469
2.16794	0.474
2.20693	0.477
2.24592	0.477
2.2849	0.477
2.32389	0.477
2.36287	0.483
2.40186	0.491
2.44085	0.503
2.47983	0.508
2.51882	0.519
2.5578	0.529
2.59679	0.534
2.63578	0.535
2.67476	0.548
2.71375	0.547
2.75273	0.55
2.79172	0.551
2.83071	0.553
2.86969	0.563
2.90868	0.584
2.94766	0.571
2.98665	0.376
3.02564	0.438
3.06462	0.495
3.10361	0.534
3.14259	0.54
3.18158	0.548
3.22057	0.548
3.25955	0.535
3.29854	0.451
3.33753	0.35
3.37651	0.063
3.4155	0.03
3.45448	0.142
3.49347	0.15
3.53246	0.555
3.57144	0.633
3.61043	0.649
3.64941	0.65
3.6884	0.647
3.72739	0.654
3.76637	0.662
3.80536	0.663
3.84434	0.665
3.88333	0.673
3.92232	0.681
3.9613	0.691
4.00029	0.696
4.03927	0.706
4.07826	0.711
4.11725	0.714
4.15623	0.712
4.19522	0.715
4.2342	0.745
4.27319	0.753
4.31218	0.754
4.35116	0.741
4.39015	0.741
4.42913	0.75
4.46812	0.756
4.50711	0.759
4.54609	0.759
4.58508	0.762
4.62406	0.771
4.66305	0.771
4.70204	0.774
4.74102	0.779
4.78001	0.78
4.81899	0.782
4.85798	0.782
4.89697	0.787
4.93595	0.795
4.97494	0.798
5.01392	0.801
5.05291	0.803
5.0919	0.806
5.13088	0.81
5.16987	0.81
5.20885	0.811
5.24784	0.81
5.28683	0.81
5.32581	0.819
5.3648	0.823
5.40378	0.834
5.44277	0.837
5.48176	0.84
5.52074	0.84
5.55973	0.842
5.59872	0.845
5.6377	0.849
5.67669	0.85
5.71567	0.852
5.75466	0.85
5.79365	0.85
5.83263	0.849
5.87162	0.85
5.9106	0.821
5.94959	0.78
5.98858	0.699
6.02756	0.433
6.06655	0.28
6.10553	0.318
6.14452	0.579
6.18351	0.626
6.22249	0.5
6.26148	0.4
6.30046	0.665
6.33945	0.704
6.37844	0.719
6.41742	0.754
6.45641	0.712
6.49539	0.379
6.53438	0.248
6.57337	0.232
6.61235	0.298
6.65134	0.332
6.69032	0.441
6.72931	0.487
6.7683	0.436
6.80728	0.308
6.84627	0.31
6.88525	0.36
6.92424	0.475
6.96323	0.61
7.00221	0.667
7.0412	0.673
7.08018	0.511
7.11917	0.431
7.15816	0.553
7.19714	0.589
7.23613	0.487
7.27511	0.457
7.3141	0.553
7.35309	0.615
7.39207	0.649
7.43106	0.657
7.47004	0.68
7.50903	0.676
7.54802	0.534
7.587	0.357
7.62599	0.474
7.66497	0.576
7.70396	0.538
7.74295	0.558
7.78193	0.641
7.82092	0.699
7.85991	0.717
7.89889	0.675
7.93788	0.545
7.97686	0.555
8.01585	0.615
8.05484	0.626
8.09382	0.634
8.13281	0.681
8.17179	0.72
8.21078	0.73
8.24977	0.714
8.28875	0.714
8.32774	0.756
8.36672	0.767
8.40571	0.689
8.4447	0.698
8.48368	0.745
8.52267	0.759
8.56165	0.771
8.60064	0.774
8.63963	0.779
8.67861	0.782
8.7176	0.787
8.75658	0.792
8.79557	0.805
8.83456	0.808
8.87354	0.792
8.91253	0.759
8.95151	0.759
8.9905	0.756
9.02949	0.73
9.06847	0.719
9.10746	0.764
9.14644	0.785
9.18543	0.806
9.22442	0.813
9.2634	0.811
9.30239	0.814
9.34137	0.819
9.38036	0.818
9.41935	0.819
9.45833	0.818
9.49732	0.818
9.5363	0.81
9.57529	0.798
9.61428	0.788
9.65326	0.8
9.69225	0.816
9.73123	0.819
9.77022	0.756
9.80921	0.784
9.84819	0.821
9.88718	0.829
9.92616	0.836
9.96515	0.842
10.0041	0.847
10.0431	0.849
10.0821	0.85
10.1211	0.85
10.1601	0.849
10.1991	0.852
10.2381	0.834
10.277	0.834
10.316	0.832
10.355	0.832
10.394	0.837
10.433	0.839
10.472	0.842
10.511	0.842
10.5499	0.837
10.5889	0.839
10.6279	0.845
10.6669	0.845
10.7059	0.831
10.7449	0.836
10.7839	0.86
10.8228	0.878
10.8618	0.881
10.9008	0.881
10.9398	0.883
10.9788	0.886
11.0178	0.886
11.0568	0.881
11.0957	0.847
11.1347	0.772
11.1737	0.762
11.2127	0.805
11.2517	0.842
11.2907	0.871
11.3297	0.881
11.3686	0.884
11.4076	0.886
11.4466	0.887
11.4856	0.889
11.5246	0.889
11.5636	0.889
11.6026	0.889
11.6416	0.889
11.6805	0.883
11.7195	0.847
11.7585	0.823
11.7975	0.823
11.8365	0.824
11.8755	0.834
11.9145	0.834
11.9534	0.831
11.9924	0.81
12.0314	0.759
12.0704	0.706
12.1094	0.689
12.1484	0.712
12.1874	0.722
12.2263	0.68
12.2653	0.577
12.3043	0.508
12.3433	0.547
12.3823	0.665
12.4213	0.75
12.4603	0.798
12.4992	0.816
12.5382	0.808
12.5772	0.762
12.6162	0.766
12.6552	0.803
12.6942	0.831
12.7332	0.84
12.7721	0.849
12.8111	0.855
12.8501	0.857
12.8891	0.862
12.9281	0.86
12.9671	0.862
13.0061	0.865
13.045	0.863
13.084	0.862
13.123	0.85
13.162	0.803
13.201	0.738
13.24	0.621
13.279	0.579
13.3179	0.616
13.3569	0.688
13.3959	0.754
13.4349	0.777
13.4739	0.78
13.5129	0.785
13.5519	0.785
13.5909	0.787
13.6298	0.787
13.6688	0.787
13.7078	0.787
13.7468	0.787
13.7858	0.782
13.8248	0.78
13.8638	0.779
13.9027	0.777
13.9417	0.772
13.9807	0.764
14.0197	0.753
14.0587	0.73
14.0977	0.704
14.1367	0.676
14.1756	0.634
14.2146	0.62
14.2536	0.625
14.2926	0.649
14.3316	0.673
14.3706	0.689
14.4096	0.704
14.4485	0.722
14.4875	0.732
14.5265	0.733
14.5655	0.733
14.6045	0.733
14.6435	0.722
14.6825	0.711
14.7214	0.694
14.7604	0.68
14.7994	0.654
14.8384	0.633
14.8774	0.621
14.9164	0.616
14.9554	0.612
14.9943	0.607
15.0333	0.587
15.0723	0.576
15.1113	0.573
15.1503	0.571
15.1893	0.571
15.2283	0.573
15.2673	0.576
15.3062	0.581
15.3452	0.589
15.3842	0.595
15.4232	0.603
15.4622	0.608
15.5012	0.615
15.5402	0.62
15.5791	0.623
15.6181	0.625
15.6571	0.628
15.6961	0.629
15.7351	0.628
15.7741	0.628
15.8131	0.628
15.852	0.626
15.891	0.626
15.93	0.625
15.969	0.625
