Infrared Spectrum: 1(7), 4(8)-p-MENTHADIENE
Formula: C10 H16
CAS: 6876-10-4
Class: COBLENTZ
Instrument: Not specified, most likely a prism, grating, or hybrid spectrometer.
Sampling: TRANSMISSION
Resolution: 4
Origin: INTERNATIONAL FLAVORS & FRAGRANCES, INC.
MICROMETERS	TRANSMITTANCE
2.03	0.866
2.066	0.866
2.102	0.866
2.138	0.868
2.174	0.866
2.21	0.868
2.246	0.845
2.282	0.812
2.318	0.8169
2.354	0.832
2.39	0.852
2.426	0.86
2.462	0.86
2.498	0.861
2.534	0.872
2.57	0.877
2.606	0.888
2.642	0.892
2.678	0.897
2.714	0.897
2.75	0.901
2.786	0.903
2.822	0.906
2.858	0.909
2.894	0.907
2.93	0.898
2.966	0.9
3.002	0.906
3.038	0.907
3.074	0.911
3.11	0.911
3.146	0.9011
3.182	0.8321
3.218	0.5405
3.254	0.5524
3.29	0.22
3.326	0.164
3.362	0.134
3.398	0.1379
3.434	0.167
3.47	0.174
3.506	0.5154
3.542	0.6959
3.578	0.7907
3.614	0.812
3.65	0.82
3.686	0.881
3.722	0.895
3.758	0.894
3.794	0.9
3.83	0.924
3.866	0.932
3.902	0.937
3.938	0.943
3.974	0.94
4.01	0.94
4.046	0.95
4.082	0.952
4.118	0.949
4.154	0.94
4.19	0.95
4.226	0.953
4.262	0.957
4.298	0.953
4.334	0.963
4.37	0.972
4.406	0.975
4.442	0.969
4.478	0.969
4.514	0.967
4.55	0.97
4.586	0.969
4.622	0.975
4.658	0.981
4.694	0.983
4.73	0.99
4.766	0.983
4.802	0.976
4.838	0.98
4.874	0.975
4.91	0.972
4.946	0.98
4.982	0.984
5.018	0.9889
5.054	0.99
5.09	0.99
5.126	0.99
5.162	0.989
5.198	0.9866
5.234	0.9819
5.27	0.976
5.306	0.975
5.342	0.978
5.378	0.98
5.414	0.983
5.45	0.984
5.486	0.9813
5.522	0.9652
5.558	0.8784
5.594	0.8282
5.63	0.9059
5.666	0.9345
5.702	0.9362
5.738	0.9326
5.774	0.9372
5.81	0.94
5.846	0.94
5.882	0.9179
5.918	0.918
5.954	0.8109
5.99	0.5784
6.026	0.3965
6.062	0.6412
6.098	0.8194
6.134	0.866
6.17	0.8726
6.206	0.871
6.242	0.869
6.278	0.881
6.314	0.8862
6.35	0.8841
6.386	0.88
6.422	0.8652
6.458	0.8517
6.494	0.837
6.53	0.8315
6.566	0.8086
6.602	0.7946
6.638	0.786
6.674	0.7642
6.71	0.7096
6.746	0.6356
6.782	0.4959
6.818	0.3496
6.854	0.2216
6.89	0.2003
6.926	0.2466
6.962	0.3715
6.998	0.4803
7.034	0.5907
7.07	0.621
7.106	0.5493
7.142	0.6202
7.178	0.6434
7.214	0.5252
7.25	0.4225
7.286	0.5653
7.322	0.6845
7.358	0.7655
7.394	0.7928
7.43	0.7915
7.466	0.8196
7.502	0.716
7.538	0.7898
7.574	0.8421
7.61	0.8429
7.646	0.8092
7.682	0.811
7.718	0.8456
7.754	0.861
7.79	0.8616
7.826	0.8526
7.862	0.85
7.898	0.854
7.934	0.8427
7.97	0.8131
8.006	0.8152
8.042	0.6352
8.078	0.3614
8.114	0.5412
8.15	0.6833
8.186	0.7907
8.222	0.8461
8.258	0.8654
8.294	0.847
8.33	0.7918
8.366	0.535
8.402	0.7419
8.438	0.8163
8.474	0.8456
8.51	0.863
8.546	0.872
8.582	0.88
8.618	0.8599
8.654	0.8407
8.69	0.8424
8.726	0.8035
8.762	0.704
8.798	0.6016
8.834	0.6869
8.87	0.7525
8.906	0.7714
8.942	0.7379
8.978	0.6138
9.014	0.6228
9.05	0.702
9.086	0.7711
9.122	0.8156
9.158	0.8426
9.194	0.859
9.23	0.8783
9.266	0.888
9.302	0.888
9.338	0.891
9.374	0.8909
9.41	0.889
9.446	0.891
9.482	0.8881
9.518	0.861
9.554	0.8406
9.59	0.838
9.626	0.842
9.662	0.8544
9.698	0.8666
9.734	0.869
9.77	0.874
9.806	0.869
9.842	0.868
9.878	0.868
9.914	0.8719
9.95	0.874
9.986	0.8573
10.022	0.8362
10.058	0.83
10.094	0.7591
10.13	0.6689
10.166	0.5025
10.202	0.4752
10.238	0.6165
10.274	0.726
10.31	0.7958
10.346	0.8277
10.382	0.8378
10.418	0.845
10.454	0.845
10.49	0.851
10.526	0.8524
10.562	0.849
10.598	0.8573
10.634	0.8717
10.67	0.88
10.706	0.883
10.742	0.8781
10.778	0.8652
10.814	0.858
10.85	0.8554
10.886	0.8386
10.922	0.7975
10.958	0.7312
10.994	0.6312
11.03	0.5766
11.066	0.6055
11.102	0.5799
11.138	0.4284
11.174	0.2356
11.21	0.1641
11.246	0.1542
11.282	0.16
11.318	0.2171
11.354	0.3218
11.39	0.4353
11.426	0.5354
11.462	0.6312
11.498	0.7104
11.534	0.7783
11.57	0.8208
11.606	0.8481
11.642	0.8679
11.678	0.8809
11.714	0.895
11.75	0.9054
11.786	0.9146
11.822	0.917
11.858	0.921
11.894	0.923
11.93	0.923
11.966	0.926
12.002	0.9269
12.038	0.9261
12.074	0.929
12.11	0.93
12.146	0.93
12.182	0.935
12.218	0.934
12.254	0.9232
12.29	0.911
12.326	0.9174
12.362	0.928
12.398	0.932
12.434	0.9299
12.47	0.923
12.506	0.9121
12.542	0.8923
12.578	0.8832
12.614	0.883
12.65	0.8904
12.686	0.897
12.722	0.9005
12.758	0.904
12.794	0.895
12.83	0.9032
12.866	0.9152
12.902	0.92
12.938	0.9151
12.974	0.8831
13.01	0.8271
13.046	0.7992
13.082	0.8062
13.118	0.8388
13.154	0.8715
13.19	0.8982
13.226	0.9149
13.262	0.9262
13.298	0.9352
13.334	0.944
13.37	0.9442
13.406	0.946
13.442	0.946
13.478	0.941
13.514	0.94
13.55	0.937
13.586	0.9345
13.622	0.9236
13.658	0.9147
13.694	0.9012
13.73	0.8855
13.766	0.8515
13.802	0.7985
13.838	0.6812
13.874	0.457
13.91	0.4315
13.946	0.5505
13.982	0.6526
14.018	0.745
14.054	0.7958
14.09	0.8299
14.126	0.8423
14.162	0.8487
14.198	0.8553
14.234	0.861
14.27	0.865
14.306	0.8688
14.342	0.871
14.378	0.872
14.414	0.874
14.45	0.874
14.486	0.874
14.522	0.874
14.558	0.874
14.594	0.874
14.63	0.872
14.666	0.8739
14.702	0.871
14.738	0.869
14.774	0.8612
14.81	0.8584
14.846	0.8513
14.882	0.848
14.918	0.843
14.954	0.845
