Infrared Spectrum: Tributyl borate
Formula: C 12 H 27 B O 3
CAS: 688-74-4
State: gas
Origin: EPA-IR VAPOR PHASE LIBRARY
1/CM	ABSORBANCE
549.8	0.004646
559.445	0.004386
569.09	0.004406
578.734	0.004046
588.379	0.002636
598.024	0.001836
607.669	0.001426
617.313	0.0010634
626.958	0.001456
636.603	0.002186
646.248	0.004326
655.893	0.009556
665.537	0.025986
675.182	0.038286
684.827	0.022766
694.472	0.016156
704.116	0.013776
713.761	0.007886
723.406	0.005696
733.051	0.006036
742.695	0.007526
752.34	0.007476
761.985	0.006206
771.63	0.005076
781.275	0.004046
790.919	0.003756
800.564	0.003766
810.209	0.004306
819.854	0.003736
829.498	0.004366
839.143	0.004706
848.788	0.006116
858.433	0.006916
868.078	0.005596
877.722	0.005406
887.367	0.004736
897.012	0.005046
906.657	0.005376
916.301	0.004056
925.946	0.004146
935.591	0.005926
945.236	0.011276
954.88	0.019366
964.525	0.025836
974.17	0.025036
983.815	0.018666
993.46	0.021276
1003.1	0.030746
1012.75	0.052006
1022.39	0.075606
1032.04	0.071636
1041.68	0.053516
1051.33	0.046506
1060.97	0.068656
1070.62	0.090476
1080.26	0.062896
1089.91	0.034356
1099.55	0.025706
1109.2	0.024286
1118.84	0.023386
1128.49	0.018086
1138.13	0.016196
1147.78	0.015936
1157.42	0.014166
1167.07	0.012046
1176.71	0.011276
1186.36	0.011676
1196	0.013276
1205.64	0.017336
1215.29	0.025586
1224.93	0.040816
1234.58	0.055956
1244.22	0.062836
1253.87	0.072346
1263.51	0.082526
1273.16	0.086306
1282.8	0.108666
1292.45	0.164856
1302.09	0.227646
1311.74	0.285716
1321.38	0.443526
1331.03	0.633266
1340.67	0.640576
1350.32	0.522256
1359.96	0.371266
1369.61	0.214296
1379.25	0.112416
1388.9	0.087266
1398.54	0.103976
1408.18	0.227166
1417.83	0.423726
1427.47	0.279286
1437.12	0.223746
1446.76	0.128706
1456.41	0.094756
1466.05	0.088006
1475.7	0.101756
1485.34	0.159506
1494.99	0.099256
1504.63	0.038096
1514.28	0.021916
1523.92	0.015696
1533.57	0.012516
1543.21	0.010506
1552.86	0.008946
1562.5	0.007956
1572.15	0.007116
1581.79	0.006566
1591.44	0.005966
1601.08	0.005566
1610.73	0.005186
1620.37	0.004826
1630.01	0.004546
1639.66	0.004276
1649.3	0.004046
1658.95	0.004016
1668.59	0.003866
1678.24	0.003816
1687.88	0.003706
1697.53	0.003596
1707.17	0.003356
1716.82	0.003116
1726.46	0.002996
1736.11	0.002726
1745.75	0.002496
1755.4	0.002236
1765.04	0.002166
1774.69	0.002106
1784.33	0.002086
1793.98	0.002056
1803.62	0.001996
1813.27	0.001806
1822.91	0.001736
1832.55	0.001576
1842.2	0.001556
1851.84	0.001486
1861.49	0.001506
1871.13	0.001476
1880.78	0.001446
1890.42	0.001446
1900.07	0.001486
1909.71	0.001376
1919.36	0.001426
1929	0.001426
1938.65	0.001406
1948.29	0.001396
1957.94	0.001556
1967.58	0.001646
1977.23	0.001946
1986.87	0.002106
1996.52	0.002196
2006.16	0.002336
2015.81	0.002626
2025.45	0.003096
2035.1	0.003516
2044.74	0.003856
2054.38	0.003876
2064.03	0.003856
2073.67	0.003846
2083.32	0.003916
2092.96	0.004076
2102.61	0.003996
2112.25	0.003936
2121.9	0.003786
2131.54	0.003726
2141.19	0.003556
2150.83	0.003256
2160.48	0.002996
2170.12	0.002976
2179.77	0.002966
2189.41	0.002916
2199.06	0.002706
2208.7	0.002396
2218.35	0.002046
2227.99	0.001926
2237.64	0.001596
2247.28	0.001516
2256.92	0.001316
2266.57	0.0012148
2276.21	0.0010878
2285.86	0.0011559
2295.5	0.0011113
2305.15	0.0011694
2314.79	0.001103
2324.44	0.0011218
2334.08	0.001087
2343.73	0.0010817
2353.37	0.0010503
2363.02	0.0010772
2372.66	0.001147
2382.31	0.0011445
2391.95	0.0011314
2401.6	0.001162
2411.24	0.001112
2420.89	0.0010692
2430.53	0.0010531
2440.18	0.0011151
2449.82	0.0011369
2459.47	0.0011251
2469.11	0.0011999
2478.75	0.0011453
2488.4	0.0010735
2498.04	0.0009964
2507.69	0.0009677
2517.33	0.0010118
2526.98	0.0009759
2536.62	0.0010648
2546.27	0.0012231
2555.91	0.001466
2565.56	0.001776
2575.2	0.001836
2584.85	0.002076
2594.49	0.002126
2604.14	0.002156
2613.78	0.002216
2623.43	0.002436
2633.07	0.002466
2642.72	0.002776
2652.36	0.003196
2662.01	0.003646
2671.65	0.003996
2681.29	0.004116
2690.94	0.004276
2700.58	0.004516
2710.23	0.005046
2719.87	0.005346
2729.52	0.005636
2739.16	0.006766
2748.81	0.007266
2758.45	0.007276
2768.1	0.008036
2777.74	0.009336
2787.39	0.011586
2797.03	0.013676
2806.68	0.014936
2816.32	0.016966
2825.97	0.020576
2835.61	0.025986
2845.26	0.036186
2854.9	0.050626
2864.55	0.069636
2874.19	0.104786
2883.84	0.129056
2893.48	0.125556
2903.12	0.140036
2912.77	0.176916
2922.41	0.193216
2932.06	0.227976
2941.7	0.272506
2951.35	0.269236
2960.99	0.291676
2970.64	0.286186
2980.28	0.152786
2989.93	0.074176
2999.57	0.042606
3009.22	0.028456
3018.86	0.021096
3028.51	0.017116
3038.15	0.013536
3047.8	0.010256
3057.44	0.008136
3067.09	0.006876
3076.73	0.005976
3086.38	0.005366
3096.02	0.004936
3105.67	0.004376
3115.31	0.003906
3124.95	0.003536
3134.6	0.003316
3144.24	0.002916
3153.89	0.002776
3163.53	0.002556
3173.18	0.002256
3182.82	0.002306
3192.47	0.002306
3202.11	0.001766
3211.76	0.001546
3221.4	0.0012546
3231.05	0.0011672
3240.69	0.0009683
3250.34	0.000778
3259.98	0.0007179
3269.63	0.0005658
3279.27	0.0004963
3288.92	0.0004218
3298.56	0.0006785
3308.21	0.00036434
3317.85	0.00036185
3327.49	0.0004414
3337.14	0.0004077
3346.78	0.000276935
3356.43	0.000139
3366.07	0.0004294
3375.72	0.00027238
3385.36	0.00032143
3395.01	0.0003899
3404.65	0.00031813
3414.3	0.0003018
3423.94	0.0006693
3433.59	0.00035703
3443.23	0.0002599
3452.88	0.0003665
3462.52	0.00028799
3472.17	0.00035766
3481.81	0.0004352
3491.46	0.000282987
3501.1	0.000163
3510.75	0.0002228
3520.39	0.00035118
3530.04	0.0001781
3539.68	0.00031973
3549.32	0.0002476
3558.97	0.000275941
3568.61	0.00034455
3578.26	0.00037376
3587.9	0.000105
3597.55	0.00035357
3607.19	0.000164
3616.84	0.00027083
3626.48	0.00037428
3636.13	0.0005192
3645.77	0.0004775
3655.42	0.0007287
3665.06	0.0007105
3674.71	0.000977
3684.35	0.0008864
3694	0.0006203
3703.64	0.0005723
3713.29	0.0003794
3722.93	0.0006497
3732.58	0.0006037
3742.22	0.0004374
3751.86	0.0007525
3761.51	0.0005362
3771.15	0.0005991
3780.8	0.0005925
3790.44	0.0007411
3800.09	0.0004828
3809.73	0.0004943
3819.38	0.0008355
3829.02	0.0007234
3838.67	0.0006543
3848.31	0.000858
3857.96	0.000952
3867.6	0.0008316
3877.25	0.000895
3886.89	0.0009433
3896.54	0.0008217
3906.18	0.0009409
3915.83	0.0008119
3925.47	0.0007916
3935.12	0.0009441
3944.76	0.0008896
3954.41	0.0009478
3964.05	0.000897
3973.69	0.0010187
3983.34	0.0010317
3992.98	0.001416
