Infrared Spectrum: ACETONE Beta-MERCAPTOPROPIONHYDRAZONE
Formula: C6 H12 N2 O S
CAS: 689-42-9
State: SOLID (NUJOL MULL)
Melting point: 89-90 C
Class: COBLENTZ
Instrument: Not specified, most likely a prism, grating, or hybrid spectrometer.
Sampling: TRANSMISSION
Resolution: 4
Origin: ARTHUR D. LITTLE, INC.
1/CM	TRANSMITTANCE
703.77	0.501
711.31	0.512
718.85	0.519
726.39	0.535
733.93	0.539
741.469	0.539
749.009	0.529
756.549	0.536
764.089	0.537
771.629	0.472
779.169	0.541
786.709	0.557
794.249	0.555
801.789	0.551
809.329	0.548
816.868	0.555
824.408	0.556
831.948	0.555
839.488	0.553
847.028	0.552
854.568	0.549
862.108	0.544
869.648	0.537
877.188	0.529
884.727	0.501
892.267	0.427
899.807	0.315
907.347	0.446
914.887	0.432
922.427	0.356
929.967	0.447
937.507	0.495
945.047	0.499
952.587	0.492
960.126	0.458
967.666	0.382
975.206	0.312
982.746	0.364
990.286	0.218
997.826	0.126
1005.37	0.395
1012.91	0.39
1020.45	0.326
1027.99	0.37
1035.53	0.382
1043.07	0.442
1050.61	0.468
1058.15	0.45
1065.68	0.419
1073.22	0.35
1080.76	0.296
1088.3	0.359
1095.84	0.379
1103.38	0.375
1110.92	0.356
1118.46	0.276
1126	0.138
1133.54	0.045
1141.08	0.256
1148.62	0.139
1156.16	0.054
1163.7	0.099
1171.24	0.078
1178.78	0
1186.32	0.129
1193.86	0.316
1201.4	0.391
1208.94	0.386
1216.48	0.282
1224.02	0.078
1231.56	0.259
1239.1	0.366
1246.64	0.383
1254.18	0.467
1261.72	0.474
1269.26	0.463
1276.8	0.448
1284.34	0.43
1291.88	0.39
1299.42	0.267
1306.96	0.109
1314.5	0.102
1322.04	0.187
1329.58	0.275
1337.12	0.203
1344.66	0.061
1352.2	0.159
1359.74	0.215
1367.28	0.207
1374.82	0.209
1382.36	0.214
1389.9	0.222
1397.44	0.279
1404.98	0.359
1412.52	0.367
1420.06	0.338
1427.6	0.286
1435.14	0.258
1442.68	0.246
1450.22	0.243
1457.76	0.237
1465.3	0.283
1472.84	0.391
1480.38	0.47
1487.92	0.478
1495.46	0.471
1503	0.448
1510.54	0.396
1518.08	0.323
1525.62	0.234
1533.16	0.137
1540.7	0.047
1548.24	0
1555.78	0.015
1563.32	0.161
1570.86	0.299
1578.4	0.442
1585.94	0.476
1593.48	0.479
1601.02	0.464
1608.56	0.45
1616.1	0.402
1623.64	0.33
1631.18	0.284
1638.72	0.211
1646.26	0.139
1653.8	0.018
1661.34	0.002
1668.88	0
1676.42	0
1683.96	0.002
1691.5	0.098
1699.04	0.291
1706.58	0.563
1714.12	0.637
1721.66	0.684
1729.2	0.704
1736.74	0.717
1744.28	0.72
1751.82	0.723
1759.36	0.721
1766.9	0.715
1774.44	0.72
1781.98	0.739
1789.51	0.749
1797.05	0.756
1804.59	0.76
1812.13	0.768
1819.67	0.769
1827.21	0.773
1834.75	0.774
1842.29	0.777
1849.83	0.778
1857.37	0.778
1864.91	0.78
1872.45	0.781
1879.99	0.782
1887.53	0.782
1895.07	0.782
1902.61	0.782
1910.15	0.782
1917.69	0.784
1925.23	0.782
1932.77	0.782
1940.31	0.782
1947.85	0.782
1955.39	0.782
1962.93	0.781
1970.47	0.778
1978.01	0.782
1985.55	0.782
1993.09	0.782
2000.63	0.781
2008.17	0.784
2015.71	0.786
2023.25	0.786
2030.79	0.785
2038.33	0.785
2045.87	0.785
2053.41	0.784
2060.95	0.784
2068.49	0.784
2076.03	0.784
2083.57	0.784
2091.11	0.782
2098.65	0.782
2106.19	0.782
2113.73	0.782
2121.27	0.782
2128.81	0.781
2136.35	0.781
2143.89	0.781
2151.43	0.781
2158.97	0.781
2166.51	0.781
2174.05	0.781
2181.59	0.781
2189.13	0.778
2196.67	0.777
2204.21	0.774
2211.75	0.78
2219.29	0.782
2226.83	0.784
2234.37	0.786
2241.91	0.788
2249.45	0.788
2256.99	0.792
2264.53	0.793
2272.07	0.794
2279.61	0.794
2287.15	0.792
2294.69	0.789
2302.23	0.786
2309.77	0.786
2317.31	0.785
2324.85	0.782
2332.39	0.78
2339.93	0.778
2347.47	0.776
2355.01	0.776
2362.55	0.781
2370.09	0.78
2377.63	0.778
2385.17	0.78
2392.71	0.781
2400.25	0.782
2407.79	0.784
2415.33	0.784
2422.87	0.784
2430.41	0.784
2437.95	0.774
2445.49	0.782
2453.03	0.782
2460.57	0.781
2468.11	0.781
2475.65	0.781
2483.19	0.78
2490.73	0.778
2498.27	0.776
2505.81	0.772
2513.34	0.764
2520.88	0.758
2528.42	0.758
2535.96	0.757
2543.5	0.749
2551.04	0.737
2558.58	0.711
2566.12	0.552
2573.66	0.242
2581.2	0.528
2588.74	0.753
2596.28	0.766
2603.82	0.766
2611.36	0.758
2618.9	0.749
2626.44	0.747
2633.98	0.748
2641.52	0.75
2649.06	0.752
2656.6	0.75
2664.14	0.744
2671.68	0.745
2679.22	0.75
2686.76	0.753
2694.3	0.754
2701.84	0.75
2709.38	0.745
2716.92	0.74
2724.46	0.729
2732	0.72
2739.54	0.716
2747.08	0.732
2754.62	0.731
2762.16	0.727
2769.7	0.721
2777.24	0.72
2784.78	0.72
2792.32	0.72
2799.86	0.72
2807.4	0.717
2814.94	0.695
2822.48	0.665
2830.02	0.629
2837.56	0.597
2845.1	0.545
2852.64	0.442
2860.18	0.286
2867.72	0.123
2875.26	0.106
2882.8	0.125
2890.34	0.139
2897.88	0.167
2905.42	0.155
2912.96	0.098
2920.5	0.05
2928.04	0
2935.58	0
2943.12	0
2950.66	0
2958.2	0
2965.74	0.015
2973.28	0.03
2980.82	0.054
2988.36	0.105
2995.9	0.174
3003.44	0.193
3010.98	0.259
3018.52	0.356
3026.06	0.35
3033.6	0.324
3041.14	0.278
3048.68	0.215
3056.22	0.141
3063.76	0.111
3071.3	0.121
3078.84	0.163
3086.38	0.26
3093.92	0.339
3101.46	0.432
3109	0.47
3116.54	0.486
3124.08	0.492
3131.62	0.488
3139.16	0.472
3146.7	0.454
3154.24	0.427
3161.78	0.407
3169.32	0.371
3176.86	0.33
3184.4	0.288
3191.94	0.226
3199.48	0.154
3207.02	0.083
3214.56	0.053
3222.1	0.047
3229.64	0.042
3237.17	0.039
3244.71	0.042
3252.25	0.041
3259.79	0.049
3267.33	0.083
3274.87	0.201
3282.41	0.374
3289.95	0.533
3297.49	0.625
3305.03	0.672
3312.57	0.699
3320.11	0.721
3327.65	0.735
3335.19	0.737
3342.73	0.737
3350.27	0.736
