Infrared Spectrum: N-ACETYL-N'-MERCAPTOACETYLHYDRAZINE
Formula: C4 H8 N2 O2 S
CAS: 689-85-0
State: SOLID (NUJOL MULL)
Melting point: 121-122 C
Class: COBLENTZ
Instrument: Not specified, most likely a prism, grating, or hybrid spectrometer.
Sampling: TRANSMISSION
Resolution: 4
Origin: ARTHUR D. LITTLE, INC.
1/CM	TRANSMITTANCE
698.831	0.622
706.546	0.587
714.261	0.552
721.975	0.595
729.69	0.639
737.405	0.716
745.12	0.768
752.835	0.779
760.549	0.791
768.264	0.8
775.979	0.802
783.694	0.802
791.408	0.8
799.123	0.786
806.838	0.779
814.553	0.811
822.268	0.815
829.982	0.819
837.697	0.823
845.412	0.828
853.127	0.835
860.842	0.845
868.556	0.855
876.271	0.865
883.986	0.876
891.701	0.878
899.416	0.877
907.13	0.796
914.845	0.659
922.56	0.853
930.275	0.863
937.989	0.854
945.704	0.835
953.419	0.811
961.134	0.784
968.849	0.765
976.563	0.748
984.278	0.645
991.993	0.582
999.708	0.688
1007.42	0.846
1015.14	0.824
1022.85	0.765
1030.57	0.802
1038.28	0.828
1046	0.836
1053.71	0.822
1061.43	0.801
1069.14	0.78
1076.86	0.753
1084.57	0.715
1092.29	0.681
1100	0.649
1107.71	0.63
1115.43	0.592
1123.14	0.524
1130.86	0.546
1138.57	0.689
1146.29	0.69
1154	0.664
1161.72	0.621
1169.43	0.59
1177.15	0.592
1184.86	0.587
1192.58	0.569
1200.29	0.53
1208.01	0.484
1215.72	0.418
1223.44	0.533
1231.15	0.65
1238.87	0.617
1246.58	0.557
1254.3	0.501
1262.01	0.543
1269.73	0.673
1277.44	0.663
1285.16	0.639
1292.87	0.615
1300.58	0.609
1308.3	0.605
1316.01	0.601
1323.73	0.592
1331.44	0.574
1339.16	0.538
1346.87	0.445
1354.59	0.346
1362.3	0.38
1370.02	0.534
1377.73	0.573
1385.45	0.556
1393.16	0.49
1400.88	0.432
1408.59	0.391
1416.31	0.35
1424.02	0.297
1431.74	0.279
1439.45	0.243
1447.17	0.185
1454.88	0.148
1462.6	0.143
1470.31	0.145
1478.02	0.144
1485.74	0.135
1493.45	0.118
1501.17	0.126
1508.88	0.159
1516.6	0.164
1524.31	0.164
1532.03	0.158
1539.74	0.139
1547.46	0.125
1555.17	0.096
1562.89	0.069
1570.6	0.052
1578.32	0.047
1586.03	0.047
1593.75	0.048
1601.46	0.055
1609.18	0.077
1616.89	0.108
1624.61	0.181
1632.32	0.252
1640.04	0.326
1647.75	0.378
1655.46	0.425
1663.18	0.454
1670.89	0.497
1678.61	0.545
1686.32	0.591
1694.04	0.625
1701.75	0.68
1709.47	0.72
1717.18	0.751
1724.9	0.774
1732.61	0.8
1740.33	0.824
1748.04	0.842
1755.76	0.85
1763.47	0.864
1771.19	0.876
1778.9	0.881
1786.62	0.896
1794.33	0.917
1802.05	0.925
1809.76	0.926
1817.48	0.926
1825.19	0.926
1832.91	0.926
1840.62	0.926
1848.33	0.926
1856.05	0.926
1863.76	0.926
1871.48	0.926
1879.19	0.926
1886.91	0.926
1894.62	0.926
1902.34	0.926
1910.05	0.926
1917.77	0.926
1925.48	0.926
1933.2	0.926
1940.91	0.926
1948.63	0.926
1956.34	0.926
1964.06	0.926
1971.77	0.926
1979.49	0.926
1987.2	0.926
1994.92	0.926
2002.63	0.926
2010.35	0.926
2018.06	0.926
2025.77	0.926
2033.49	0.926
2041.2	0.926
2048.92	0.925
2056.63	0.926
2064.35	0.925
2072.06	0.925
2079.78	0.925
2087.49	0.925
2095.21	0.925
2102.92	0.925
2110.64	0.925
2118.35	0.925
2126.07	0.926
2133.78	0.926
2141.5	0.926
2149.21	0.926
2156.93	0.926
2164.64	0.926
2172.36	0.926
2180.07	0.926
2187.79	0.926
2195.5	0.925
2203.21	0.926
2210.93	0.926
2218.64	0.926
2226.36	0.926
2234.07	0.925
2241.79	0.925
2249.5	0.925
2257.22	0.925
2264.93	0.925
2272.65	0.921
2280.36	0.917
2288.08	0.914
2295.79	0.913
2303.51	0.904
2311.22	0.896
2318.94	0.886
2326.65	0.881
2334.37	0.88
2342.08	0.878
2349.8	0.881
2357.51	0.881
2365.23	0.88
2372.94	0.88
2380.66	0.882
2388.37	0.882
2396.08	0.88
2403.8	0.878
2411.51	0.876
2419.23	0.876
2426.94	0.871
2434.66	0.867
2442.37	0.864
2450.09	0.862
2457.8	0.856
2465.52	0.853
2473.23	0.849
2480.95	0.846
2488.66	0.842
2496.38	0.84
2504.09	0.835
2511.81	0.831
2519.52	0.828
2527.24	0.824
2534.95	0.817
2542.67	0.811
2550.38	0.802
2558.1	0.784
2565.81	0.734
2573.52	0.73
2581.24	0.8
2588.95	0.796
2596.67	0.791
2604.38	0.775
2612.1	0.761
2619.81	0.756
2627.53	0.753
2635.24	0.755
2642.96	0.755
2650.67	0.753
2658.39	0.751
2666.1	0.748
2673.82	0.747
2681.53	0.747
2689.25	0.747
2696.96	0.746
2704.68	0.742
2712.39	0.735
2720.11	0.728
2727.82	0.717
2735.54	0.716
2743.25	0.715
2750.97	0.715
2758.68	0.713
2766.39	0.712
2774.11	0.711
2781.82	0.708
2789.54	0.689
2797.25	0.671
2804.97	0.648
2812.68	0.619
2820.4	0.597
2828.11	0.541
2835.83	0.444
2843.54	0.333
2851.26	0.154
2858.97	0.103
2866.69	0.109
2874.4	0.123
2882.12	0.132
2889.83	0.137
2897.55	0.109
2905.26	0.068
2912.98	0.045
2920.69	0.03
2928.41	0.029
2936.12	0.036
2943.83	0.045
2951.55	0.048
2959.26	0.054
2966.98	0.079
2974.69	0.113
2982.41	0.185
2990.12	0.233
2997.84	0.243
3005.55	0.26
3013.27	0.317
3020.98	0.333
3028.7	0.332
3036.41	0.322
3044.13	0.311
3051.84	0.305
3059.56	0.309
3067.27	0.337
3074.99	0.354
3082.7	0.365
3090.42	0.359
3098.13	0.346
3105.85	0.333
3113.56	0.324
3121.27	0.317
3128.99	0.302
3136.7	0.291
3144.42	0.271
3152.13	0.24
3159.85	0.217
3167.56	0.198
3175.28	0.173
3182.99	0.15
3190.71	0.137
3198.42	0.112
3206.14	0.095
3213.85	0.086
3221.57	0.085
3229.28	0.085
3237	0.096
3244.71	0.123
3252.43	0.148
3260.14	0.188
3267.86	0.224
3275.57	0.264
3283.29	0.31
3291	0.351
3298.72	0.391
3306.43	0.449
3314.14	0.484
3321.86	0.536
3329.57	0.579
3337.29	0.623
3345	0.652
3352.72	0.698
3360.43	0.728
3368.15	0.768
3375.86	0.791
3383.58	0.817
3391.29	0.841
