Infrared Spectrum: Isopropyl acrylate
Formula: C 6 H 10 O 2
CAS: 689-12-3
State: gas
Origin: EPA-IR VAPOR PHASE LIBRARY
1/CM	ABSORBANCE
501.5	0.000108
513.074	0.00041222
524.648	0.0004818
536.222	0.00042225
547.796	0.0003202
559.37	0.000244
570.944	0
582.518	0.000163
594.092	0.0008318
605.666	0.0012081
617.24	0.0009428
628.814	0.0006043
640.388	0.0006167
651.962	0.0010273
663.536	0.001901
675.11	0.002631
686.684	0.001961
698.258	0.0008014
709.832	0.0005422
721.406	0.0006721
732.98	0.000813
744.554	0.0009294
756.128	0.0011994
767.702	0.001701
779.276	0.003251
790.85	0.007761
802.423	0.014881
813.997	0.019031
825.571	0.014661
837.145	0.008081
848.719	0.004781
860.293	0.006171
871.867	0.008421
883.441	0.008571
895.015	0.006721
906.589	0.006291
918.163	0.009331
929.737	0.018491
941.311	0.027021
952.885	0.028531
964.459	0.028871
976.033	0.028971
987.607	0.025881
999.181	0.016501
1010.76	0.010141
1022.33	0.011401
1033.9	0.030451
1045.48	0.051271
1057.05	0.043161
1068.63	0.018551
1080.2	0.016991
1091.77	0.030381
1103.35	0.067751
1114.92	0.093611
1126.49	0.077031
1138.07	0.054361
1149.64	0.039831
1161.22	0.039511
1172.79	0.076541
1184.36	0.169611
1195.94	0.238511
1207.51	0.155271
1219.09	0.036521
1230.66	0.024581
1242.23	0.034661
1253.81	0.069291
1265.38	0.110601
1276.96	0.099821
1288.53	0.065771
1300.1	0.052291
1311.68	0.022301
1323.25	0.010671
1334.83	0.009931
1346.4	0.010891
1357.97	0.013841
1369.55	0.021731
1381.12	0.036741
1392.7	0.046711
1404.27	0.062981
1415.84	0.054321
1427.42	0.018431
1438.99	0.010291
1450.57	0.011181
1462.14	0.013081
1473.71	0.012501
1485.29	0.008891
1496.86	0.005531
1508.44	0.004651
1520.01	0.004471
1531.58	0.003661
1543.16	0.002771
1554.73	0.002431
1566.31	0.002341
1577.88	0.002681
1589.45	0.003781
1601.03	0.006421
1612.6	0.010551
1624.18	0.013541
1635.75	0.015011
1647.32	0.012281
1658.9	0.006141
1670.47	0.005221
1682.05	0.006591
1693.62	0.010051
1705.19	0.018491
1716.77	0.048171
1728.34	0.116581
1739.92	0.162731
1751.49	0.121821
1763.06	0.049421
1774.64	0.017391
1786.21	0.008401
1797.79	0.005601
1809.36	0.004551
1820.93	0.003521
1832.51	0.002571
1844.08	0.002061
1855.66	0.002081
1867.23	0.002351
1878.8	0.002411
1890.38	0.002211
1901.95	0.002361
1913.53	0.003301
1925.1	0.004191
1936.67	0.003501
1948.25	0.002001
1959.82	0.001371
1971.4	0.0010626
1982.97	0.0009412
1994.54	0.0010286
2006.12	0.0012912
2017.69	0.001521
2029.27	0.001491
2040.84	0.001331
2052.41	0.001511
2063.99	0.001921
2075.56	0.002031
2087.14	0.001671
2098.71	0.001185
2110.28	0.0009382
2121.86	0.0008887
2133.43	0.0009752
2145.01	0.0009446
2156.58	0.0008128
2168.15	0.0006829
2179.73	0.0006108
2191.3	0.0005494
2202.88	0.0005758
2214.45	0.000583
2226.02	0.0005522
2237.6	0.000505
2249.17	0.0005268
2260.74	0.0005985
2272.32	0.0006773
2283.89	0.000775
2295.47	0.00089
2307.04	0.0009379
2318.61	0.0009592
2330.19	0.0008678
2341.76	0.0008451
2353.34	0.0009939
2364.91	0.0012157
2376.48	0.001341
2388.06	0.0013012
2399.63	0.0009018
2411.21	0.0005552
2422.78	0.0004748
2434.35	0.0004017
2445.93	0.0004908
2457.5	0.0005488
2469.08	0.0006395
2480.65	0.0006988
2492.22	0.0007324
2503.8	0.0007538
2515.37	0.0007801
2526.95	0.0007959
2538.52	0.0007666
2550.09	0.0006349
2561.67	0.0005911
2573.24	0.0005151
2584.82	0.0005319
2596.39	0.0005496
2607.96	0.0006197
2619.54	0.00066
2631.11	0.0005855
2642.69	0.0006053
2654.26	0.0006607
2665.83	0.0008053
2677.41	0.0008223
2688.98	0.0009499
2700.56	0.0009296
2712.13	0.0008666
2723.7	0.0008483
2735.28	0.0011072
2746.85	0.0012577
2758.43	0.0011555
2770	0.0011013
2781.57	0.0010868
2793.15	0.0011724
2804.72	0.001341
2816.3	0.001711
2827.87	0.001991
2839.44	0.002231
2851.02	0.002691
2862.59	0.003991
2874.17	0.007011
2885.74	0.009811
2897.31	0.010271
2908.89	0.010341
2920.46	0.012701
2932.04	0.018861
2943.61	0.023991
2955.18	0.021541
2966.76	0.024661
2978.33	0.050071
2989.91	0.063221
3001.48	0.037421
3013.05	0.014651
3024.63	0.007471
3036.2	0.007061
3047.78	0.006381
3059.35	0.004181
3070.92	0.003291
3082.5	0.003371
3094.07	0.003971
3105.65	0.005751
3117.22	0.005181
3128.79	0.002451
3140.37	0.001651
3151.94	0.001441
3163.52	0.001371
3175.09	0.001341
3186.66	0.0013045
3198.24	0.0013055
3209.81	0.0010914
3221.39	0.0009903
3232.96	0.0009519
3244.53	0.0006756
3256.11	0.0005443
3267.68	0.0004564
3279.26	0.00035651
3290.83	0.0004245
3302.4	0.00034428
3313.98	0.0004335
3325.55	0.00041956
3337.13	0.0004806
3348.7	0.0005068
3360.27	0.0005852
3371.85	0.0006059
3383.42	0.0005391
3395	0.0005202
3406.57	0.0005276
3418.14	0.0005981
3429.72	0.0007997
3441.29	0.0013051
3452.86	0.001941
3464.44	0.002311
3476.01	0.001841
3487.59	0.0010852
3499.16	0.0007247
3510.73	0.0005741
3522.31	0.0004255
3533.88	0.00036059
3545.46	0.0002533
3557.03	0.00032616
3568.6	0.00032426
3580.18	0.000293
3591.75	0.0002492
3603.33	0.000222
3614.9	0.0002719
3626.47	0.0002866
3638.05	0.0002713
3649.62	0.0002366
3661.2	0.00019
3672.77	0.000219
3684.34	0.0002313
3695.92	0.000219
3707.49	0.000226
3719.07	0.0002881
3730.64	0.000206
3742.21	0.000223
3753.79	0.0002579
3765.36	0.000337969
3776.94	0.00037773
3788.51	0.00037581
3800.08	0.00040481
3811.66	0.00037359
3823.23	0.00037984
3834.81	0.0003606
3846.38	0.00032359
3857.95	0.00038737
3869.53	0.00034238
3881.1	0.00036778
3892.68	0.0003138
3904.25	0.0002903
3915.82	0.00035082
3927.4	0.00039435
3938.97	0.0002906
3950.55	0.00035407
3962.12	0.0003127
3973.69	0.00032447
3985.27	0.000456
3996.84	0.00043048
