Infrared Spectrum: 6,10-Dimethyl-5,9-undecadien-2-one
Formula: C 13 H 22 O
CAS: 689-67-8
State: gas
Instrument: HP-GC/MS/IRD
Origin: NIST Mass Spectrometry Data Center
1/CM	ABSORBANCE
550	0.000948
562	0.000954
574	0.000756
586	0.000802
598	0.000624
610	0.000352
622	0.000218
634	0
646	6e-05
658	0.000166
670	0.000118
682	0.000178
694	0.000238
706	0.000302
718	0.000466
730	0.000676
742	0.000676
754	0.000554
766	0.000534
778	0.000738
790	0.000916
802	0.00124
814	0.001522
826	0.00198
838	0.001798
850	0.00138
862	0.001102
874	0.001018
886	0.000996
898	0.000814
910	0.000916
922	0.001068
934	0.001272
946	0.001232
958	0.001356
970	0.001384
982	0.001334
994	0.00123
1006	0.001056
1018	0.001062
1030	0.001076
1042	0.001124
1054	0.001118
1066	0.001046
1078	0.001198
1090	0.001704
1102	0.002188
1114	0.00217
1126	0.002062
1138	0.00337
1150	0.005608
1162	0.005534
1174	0.004312
1186	0.003542
1198	0.003314
1210	0.003434
1222	0.003494
1234	0.003098
1246	0.00249
1258	0.002194
1270	0.001986
1282	0.00154
1294	0.001442
1306	0.001766
1318	0.002606
1330	0.003612
1342	0.00478
1354	0.007402
1366	0.00784
1378	0.006236
1390	0.004908
1402	0.003446
1414	0.003532
1426	0.00407
1438	0.004798
1450	0.004824
1462	0.00348
1474	0.002252
1486	0.001574
1498	0.001224
1510	0.001102
1522	0.001098
1534	0.001022
1546	0.000996
1558	0.000914
1570	0.000816
1582	0.00072
1594	0.00065
1606	0.000636
1618	0.000654
1630	0.000692
1642	0.000834
1654	0.001204
1666	0.001616
1678	0.001854
1690	0.002776
1702	0.004758
1714	0.008462
1726	0.014654
1738	0.013624
1750	0.006594
1762	0.0031
1774	0.001522
1786	0.00087
1798	0.000544
1810	0.00042
1822	0.000322
1834	0.000286
1846	0.000212
1858	0.000208
1870	0.000184
1882	0.000172
1894	0.000134
1906	0.000124
1918	0.00013
1930	8.8e-05
1942	0.000114
1954	0.000112
1966	0.000128
1978	0.000104
1990	6.6e-05
2002	9.4e-05
2014	4.8e-05
2026	6.8e-05
2038	7e-05
2050	7.2e-05
2062	6.6e-05
2074	8.4e-05
2086	9.4e-05
2098	5.6e-05
2110	8.2e-05
2122	8e-05
2134	6.4e-05
2146	5.6e-05
2158	6.4e-05
2170	6.4e-05
2182	7.6e-05
2194	6.8e-05
2206	6.8e-05
2218	3.6e-05
2230	5e-05
2242	6e-06
2254	3e-05
2266	0
2278	3.6e-05
2290	3.4e-05
2302	3.8e-05
2314	5e-05
2326	4.4e-05
2338	4.2e-05
2350	1.6e-05
2362	5e-05
2374	2.2e-05
2386	2.6e-05
2398	3.8e-05
2410	4e-05
2422	6e-05
2434	7.6e-05
2446	3.4e-05
2458	7e-05
2470	7.8e-05
2482	9.4e-05
2494	8.6e-05
2506	0.000114
2518	6e-05
2530	6.6e-05
2542	9.6e-05
2554	8.4e-05
2566	0.000106
2578	9.4e-05
2590	7.8e-05
2602	8.6e-05
2614	0.000122
2626	0.000148
2638	0.000154
2650	0.000178
2662	0.000198
2674	0.00025
2686	0.000246
2698	0.000276
2710	0.000322
2722	0.000472
2734	0.000676
2746	0.00076
2758	0.000618
2770	0.000642
2782	0.000758
2794	0.000942
2806	0.001232
2818	0.001764
2830	0.002686
2842	0.004556
2854	0.007658
2866	0.009906
2878	0.009982
2890	0.011356
2902	0.01426
2914	0.01776
2926	0.02
2938	0.017254
2950	0.013296
2962	0.011984
2974	0.012034
2986	0.01032
2998	0.007954
3010	0.00605
3022	0.004614
3034	0.00373
3046	0.003038
3058	0.002478
3070	0.001838
3082	0.00137
3094	0.001076
3106	0.000854
3118	0.000628
3130	0.00051
3142	0.00035
3154	0.000264
3166	0.00021
3178	0.000156
3190	0.000172
3202	0.000148
3214	8.2e-05
3226	9.8e-05
3238	0.000146
3250	0.000128
3262	4.6e-05
3274	0.000114
3286	0.00011
3298	8.8e-05
3310	6.6e-05
3322	0.00016
3334	0.000168
3346	0.0001
3358	0.000148
3370	0.00011
3382	0.000162
3394	0.00016
3406	0.000188
3418	0.000208
3430	0.000328
3442	0.000382
3454	0.000396
3466	0.000182
3478	0.000208
3490	9.2e-05
3502	0.000102
3514	5.6e-05
3526	4.6e-05
3538	2.4e-05
3550	6.8e-05
3562	5.4e-05
3574	8.8e-05
3586	7.8e-05
3598	3.8e-05
3610	7.4e-05
3622	7.4e-05
3634	8.4e-05
3646	8.8e-05
3658	0.00012
3670	0.000132
3682	0.000146
3694	7.6e-05
3706	4.8e-05
3718	9e-05
3730	0.000106
3742	9.6e-05
3754	9.6e-05
3766	6e-05
3778	0.000154
3790	0.000104
3802	0.00014
3814	0.000112
3826	0.00015
3838	0.000162
