Infrared Spectrum: 2,3,4-Trimethoxyphenylacetonitrile
Formula: C 11 H 13 N O 3
CAS: 68913-85-9
State: gas
Origin: EPA-IR VAPOR PHASE LIBRARY
1/CM	ABSORBANCE
549.8	0.0010811
559.445	0.0011001
569.09	0.0006607
578.734	0.0010631
588.379	0.0006999
598.024	0.0008852
607.669	0.0010773
617.313	0.001019
626.958	0.0008748
636.603	0.001195
646.248	0.001295
655.893	0.001575
665.537	0.001745
675.182	0.002075
684.827	0.002225
694.472	0.001765
704.116	0.001475
713.761	0.0009437
723.406	0.0008001
733.051	0.001275
742.695	0.001625
752.34	0.001895
761.985	0.001825
771.63	0.001595
781.275	0.002385
790.919	0.004055
800.564	0.004375
810.209	0.003695
819.854	0.002415
829.498	0.001465
839.143	0.0010813
848.788	0.0008354
858.433	0.0009116
868.078	0.001395
877.722	0.002445
887.367	0.003075
897.012	0.002295
906.657	0.002275
916.301	0.003045
925.946	0.002615
935.591	0.002375
945.236	0.002735
954.88	0.003395
964.525	0.003595
974.17	0.002625
983.815	0.002625
993.46	0.003835
1003.1	0.006565
1012.75	0.012375
1022.39	0.015125
1032.04	0.015815
1041.68	0.019855
1051.33	0.017155
1060.97	0.011645
1070.62	0.014625
1080.26	0.022405
1089.91	0.026195
1099.55	0.030995
1109.2	0.026885
1118.84	0.013585
1128.49	0.006905
1138.13	0.004765
1147.78	0.005115
1157.42	0.006115
1167.07	0.006965
1176.71	0.006345
1186.36	0.007305
1196	0.008445
1205.64	0.007105
1215.29	0.006505
1224.93	0.007905
1234.58	0.011175
1244.22	0.014765
1253.87	0.019595
1263.51	0.019135
1273.16	0.017455
1282.8	0.021805
1292.45	0.024645
1302.09	0.018065
1311.74	0.012415
1321.38	0.008525
1331.03	0.005265
1340.67	0.003565
1350.32	0.002805
1359.96	0.002455
1369.61	0.002365
1379.25	0.002485
1388.9	0.003075
1398.54	0.004815
1408.18	0.010835
1417.83	0.020855
1427.47	0.019585
1437.12	0.013745
1446.76	0.011245
1456.41	0.015145
1466.05	0.025965
1475.7	0.024465
1485.34	0.026205
1494.99	0.033915
1504.63	0.014385
1514.28	0.005265
1523.92	0.003695
1533.57	0.003015
1543.21	0.002825
1552.86	0.002825
1562.5	0.002885
1572.15	0.003735
1581.79	0.005145
1591.44	0.007395
1601.08	0.008835
1610.73	0.005915
1620.37	0.002855
1630.01	0.001755
1639.66	0.001485
1649.3	0.001295
1658.95	0.0011296
1668.59	0.0009581
1678.24	0.0008958
1687.88	0.000875
1697.53	0.0008449
1707.17	0.0008933
1716.82	0.0008203
1726.46	0.0007856
1736.11	0.0007884
1745.75	0.0008166
1755.4	0.0007132
1765.04	0.0006575
1774.69	0.0007638
1784.33	0.0007439
1793.98	0.0006861
1803.62	0.0007128
1813.27	0.0007563
1822.91	0.0008104
1832.55	0.000858
1842.2	0.0007899
1851.84	0.0008012
1861.49	0.0007362
1871.13	0.0007396
1880.78	0.0007917
1890.42	0.0007231
1900.07	0.0007871
1909.71	0.0008006
1919.36	0.0008981
1929	0.0010422
1938.65	0.0010617
1948.29	0.0009407
1957.94	0.0008494
1967.58	0.0008949
1977.23	0.0008524
1986.87	0.0010125
1996.52	0.0009602
2006.16	0.0010239
2015.81	0.0009474
2025.45	0.0008166
2035.1	0.0008493
2044.74	0.000703
2054.38	0.0006539
2064.03	0.0006693
2073.67	0.0007635
2083.32	0.000762
2092.96	0.0006951
2102.61	0.000815
2112.25	0.0008298
2121.9	0.0007592
2131.54	0.0007879
2141.19	0.0007618
2150.83	0.0007654
2160.48	0.0007164
2170.12	0.0007186
2179.77	0.0007176
2189.41	0.0006648
2199.06	0.0006898
2208.7	0.0006631
2218.35	0.0005948
2227.99	0.0005599
2237.64	0.0005813
2247.28	0.0009498
2256.92	0.0010347
2266.57	0.0006443
2276.21	0.0005875
2285.86	0.0005645
2295.5	0.0004058
2305.15	0.0004767
2314.79	0.0004214
2324.44	0.0004781
2334.08	0.000472
2343.73	0.0005226
2353.37	0.0004918
2363.02	0.0004849
2372.66	0.0006277
2382.31	0.0005456
2391.95	0.0004232
2401.6	0.0005905
2411.24	0.0005259
2420.89	0.0006194
2430.53	0.0005665
2440.18	0.0004226
2449.82	0.0004057
2459.47	0.0006425
2469.11	0.0006052
2478.75	0.0005968
2488.4	0.000624
2498.04	0.0005565
2507.69	0.0006587
2517.33	0.0005626
2526.98	0.000527
2536.62	0.0005072
2546.27	0.0005624
2555.91	0.0006688
2565.56	0.0005668
2575.2	0.0006777
2584.85	0.0006344
2594.49	0.000789
2604.14	0.0006032
2613.78	0.0004679
2623.43	0.0004958
2633.07	0.0004117
2642.72	0.0004453
2652.36	0.0004304
2662.01	0.0003928
2671.65	0.0003972
2681.29	0.0004919
2690.94	0.0003154
2700.58	0.0004661
2710.23	0.0003602
2719.87	0.0004199
2729.52	0.0005754
2739.16	0.0006393
2748.81	0.0006185
2758.45	0.0006738
2768.1	0.0005775
2777.74	0.0005252
2787.39	0.0008955
2797.03	0.0011073
2806.68	0.001535
2816.32	0.002385
2825.97	0.004415
2835.61	0.007275
2845.26	0.008125
2854.9	0.006295
2864.55	0.004825
2874.19	0.004605
2883.84	0.005075
2893.48	0.005515
2903.12	0.006055
2912.77	0.007285
2922.41	0.008565
2932.06	0.011495
2941.7	0.016995
2951.35	0.018355
2960.99	0.013015
2970.64	0.010315
2980.28	0.008985
2989.93	0.008385
2999.57	0.009615
3009.22	0.009625
3018.86	0.006485
3028.51	0.004525
3038.15	0.003655
3047.8	0.003205
3057.44	0.002675
3067.09	0.002705
3076.73	0.002385
3086.38	0.002205
3096.02	0.001945
3105.67	0.001545
3115.31	0.001155
3124.95	0.0010528
3134.6	0.0006772
3144.24	0.0006042
3153.89	0.0007118
3163.53	0.00066
3173.18	0.0005712
3182.82	0.0003498
3192.47	0.0004425
3202.11	0.0003468
3211.76	0.0004981
3221.4	0.0003857
3231.05	0.0003685
3240.69	0.0003673
3250.34	0.0002857
3259.98	0.0003066
3269.63	0.000148903
3279.27	0.0003501
3288.92	0.0001811
3298.56	0.0003333
3308.21	0.0003831
3317.85	0.00024034
3327.49	0.0003505
3337.14	0.0004238
3346.78	0.0002792
3356.43	0.00020966
3366.07	0.0003355
3375.72	0.0004343
3385.36	0.0002606
3395.01	0.0002907
3404.65	0.00024397
3414.3	0.00023931
3423.94	0.00015798
3433.59	0.0002748
3443.23	0.00023166
3452.88	0.0003342
3462.52	0.0002728
3472.17	0.0004549
3481.81	0.0004756
3491.46	0.0003593
3501.1	0.00021535
3510.75	0.0004655
3520.39	0.0004895
3530.04	0.0003332
3539.68	0.0003838
3549.32	0.0002709
3558.97	0.0004001
3568.61	0.0004692
3578.26	0.000352
3587.9	0.0002526
3597.55	0.0003384
3607.19	0.0004262
3616.84	0.00023162
3626.48	0.000144471
3636.13	0.0004281
3645.77	0.0003164
3655.42	0.0003238
3665.06	0.0002788
3674.71	0.0005166
3684.35	0.0002824
3694	0.0001662
3703.64	0.00017131
3713.29	0.00017034
3722.93	0.0003444
3732.58	0.00018766
3742.22	0.0003148
3751.86	0.0005251
3761.51	6.2e-05
3771.15	0.00016832
3780.8	0.0002833
3790.44	0.0004535
3800.09	0.0004918
3809.73	0.0002659
3819.38	0.000391
3829.02	0.0004511
3838.67	0.0004954
3848.31	0.0004833
3857.96	0.0004293
3867.6	0.0003935
3877.25	0.0003237
3886.89	0.00016021
3896.54	0.000608
3906.18	0.0003676
3915.83	9.27e-05
3925.47	0.00046
3935.12	0.0003819
3944.76	0.0003986
3954.41	0.0006394
3964.05	0.0004695
3973.69	0.0005033
3983.34	0.0004755
3992.98	0.0003175
