Infrared Spectrum: ADENINE, 3-(o-CHLOROBENZYL)-, HYDROCHLORIDE
Formula: C12 H11 Cl2 N5
CAS: 68942-46-1
State: SOLID (1 mg / 650 mg KBr DISC)
Class: COBLENTZ III
Instrument: PERKIN-ELMER 221 (GRATING)
Instrument parameters: FILTER CHANGES AT 2490, 980 CM^-^1, GRATING FOR 4000-1428 CM^-^1, NaCl PRISM FOR 1428-650 CM^-^1
Sampling: TRANSMISSION
Resolution: 4
Origin: SOUTHERN RESEARCH INST.
1/CM	TRANSMITTANCE
598.383	0.9
608.086	0.899
617.79	0.898
627.493	0.895
637.197	0.877
646.9	0.853
656.604	0.863
666.307	0.845
676.011	0.759
685.714	0.681
695.418	0.727
705.121	0.692
714.825	0.729
724.528	0.774
734.232	0.732
743.935	0.324
753.639	0.461
763.342	0.676
773.046	0.744
782.749	0.699
792.453	0.874
802.156	0.891
811.86	0.795
821.563	0.935
831.267	0.927
840.97	0.944
850.674	0.975
860.377	0.959
870.081	0.87
879.784	0.969
889.488	0.98
899.191	0.984
908.895	0.982
918.598	0.959
928.302	0.902
938.005	0.944
947.709	0.902
957.412	0.96
967.116	0.954
976.819	0.94
986.523	0.925
996.226	0.899
1005.93	0.804
1015.63	0.792
1025.34	0.899
1035.04	0.895
1044.74	0.835
1054.45	0.69
1064.15	0.677
1073.85	0.933
1083.56	0.937
1093.26	0.935
1102.96	0.927
1112.67	0.898
1122.37	0.884
1132.08	0.836
1141.78	0.866
1151.48	0.897
1161.19	0.894
1170.89	0.865
1180.59	0.801
1190.3	0.796
1200	0.596
1209.7	0.677
1219.41	0.57
1229.11	0.581
1238.81	0.869
1248.52	0.898
1258.22	0.892
1267.92	0.863
1277.63	0.785
1287.33	0.848
1297.03	0.839
1306.74	0.816
1316.44	0.77
1326.15	0.616
1335.85	0.707
1345.55	0.681
1355.26	0.635
1364.96	0.682
1374.66	0.689
1384.37	0.674
1394.07	0.62
1403.77	0.388
1413.48	0.37
1423.18	0.256
1432.88	0.303
1442.59	0.419
1452.29	0.666
1461.99	0.823
1471.7	0.681
1481.4	0.614
1491.1	0.722
1500.81	0.745
1510.51	0.725
1520.22	0.656
1529.92	0.703
1539.62	0.814
1549.33	0.87
1559.03	0.858
1568.73	0.818
1578.44	0.718
1588.14	0.481
1597.84	0.643
1607.55	0.719
1617.25	0.557
1626.95	0.468
1636.66	0.615
1646.36	0.654
1656.06	0.521
1665.77	0.258
1675.47	0.174
1685.17	0.17
1694.88	0.382
1704.58	0.603
1714.29	0.761
1723.99	0.88
1733.69	0.929
1743.4	0.931
1753.1	0.944
1762.8	0.955
1772.51	0.961
1782.21	0.966
1791.91	0.973
1801.62	0.971
1811.32	0.967
1821.02	0.964
1830.73	0.963
1840.43	0.964
1850.13	0.963
1859.84	0.962
1869.54	0.962
1879.24	0.96
1888.95	0.957
1898.65	0.955
1908.36	0.952
1918.06	0.95
1927.76	0.933
1937.47	0.931
1947.17	0.932
1956.87	0.933
1966.58	0.932
1976.28	0.929
1985.98	0.925
1995.69	0.922
2005.39	0.921
2015.09	0.92
2024.8	0.917
2034.5	0.91
2044.2	0.907
2053.91	0.905
2063.61	0.904
2073.31	0.906
2083.02	0.904
2092.72	0.903
2102.43	0.9
2112.13	0.898
2121.83	0.898
2131.54	0.899
2141.24	0.9
2150.94	0.899
2160.65	0.896
2170.35	0.895
2180.05	0.893
2189.76	0.891
2199.46	0.889
2209.16	0.888
2218.87	0.886
2228.57	0.884
2238.27	0.881
2247.98	0.876
2257.68	0.874
2267.38	0.874
2277.09	0.875
2286.79	0.874
2296.5	0.872
2306.2	0.866
2315.9	0.86
2325.61	0.857
2335.31	0.853
2345.01	0.85
2354.72	0.848
2364.42	0.846
2374.12	0.845
2383.83	0.844
2393.53	0.837
2403.23	0.831
2412.94	0.832
2422.64	0.832
2432.34	0.829
2442.05	0.825
2451.75	0.824
2461.45	0.822
2471.16	0.822
2480.86	0.821
2490.57	0.8
2500.27	0.794
2509.97	0.79
2519.68	0.787
2529.38	0.782
2539.08	0.777
2548.79	0.763
2558.49	0.746
2568.19	0.75
2577.9	0.758
2587.6	0.759
2597.3	0.748
2607.01	0.73
2616.71	0.727
2626.41	0.725
2636.12	0.719
2645.82	0.707
2655.52	0.692
2665.23	0.694
2674.93	0.694
2684.64	0.689
2694.34	0.68
2704.04	0.674
2713.75	0.664
2723.45	0.655
2733.15	0.648
2742.86	0.643
2752.56	0.638
2762.26	0.619
2771.97	0.608
2781.67	0.583
2791.37	0.559
2801.08	0.548
2810.78	0.544
2820.48	0.539
2830.19	0.521
2839.89	0.51
2849.59	0.522
2859.3	0.581
2869	0.59
2878.71	0.575
2888.41	0.541
2898.11	0.5
2907.82	0.5
2917.52	0.507
2927.22	0.504
2936.93	0.485
2946.63	0.458
2956.33	0.448
2966.04	0.439
2975.74	0.432
2985.44	0.417
2995.15	0.393
3004.85	0.376
3014.55	0.369
3024.26	0.358
3033.96	0.326
3043.66	0.309
3053.37	0.305
3063.07	0.296
3072.78	0.3
3082.48	0.307
3092.18	0.33
3101.89	0.351
3111.59	0.369
3121.29	0.384
3131	0.4
3140.7	0.424
3150.4	0.445
3160.11	0.459
3169.81	0.462
3179.51	0.466
3189.22	0.47
3198.92	0.477
3208.62	0.488
3218.33	0.496
3228.03	0.509
3237.73	0.523
3247.44	0.537
3257.14	0.555
3266.85	0.587
3276.55	0.614
3286.25	0.643
3295.96	0.676
3305.66	0.701
3315.36	0.725
3325.07	0.734
3334.77	0.737
3344.47	0.751
3354.18	0.762
3363.88	0.777
3373.58	0.782
3383.29	0.785
3392.99	0.784
3402.69	0.783
3412.4	0.783
3422.1	0.784
3431.8	0.785
3441.51	0.786
3451.21	0.788
3460.92	0.789
3470.62	0.792
3480.32	0.796
3490.03	0.798
3499.73	0.8
3509.43	0.803
3519.14	0.807
3528.84	0.811
3538.54	0.815
3548.25	0.817
3557.95	0.82
3567.65	0.822
3577.36	0.825
3587.06	0.829
3596.76	0.833
3606.47	0.835
3616.17	0.837
3625.87	0.838
3635.58	0.839
3645.28	0.839
3654.99	0.84
3664.69	0.84
3674.39	0.84
3684.1	0.84
3693.8	0.84
3703.5	0.84
3713.21	0.84
3722.91	0.84
3732.61	0.838
3742.32	0.837
3752.02	0.837
3761.72	0.837
3771.43	0.839
3781.13	0.84
3790.83	0.838
3800.54	0.836
3810.24	0.833
3819.94	0.83
3829.65	0.827
3839.35	0.825
3849.06	0.823
3858.76	0.822
3868.46	0.82
3878.17	0.819
3887.87	0.818
3897.57	0.818
3907.28	0.818
3916.98	0.818
3926.68	0.817
3936.39	0.817
3946.09	0.817
3955.79	0.817
3965.5	0.816
3975.2	0.815
3984.9	0.814
3994.61	0.814
4004.31	0.815
