Infrared Spectrum: ADENINE, 3-(p-CHLOROBENZYL) HYDROCHLORIDE
Formula: C12 H11 Cl2 N5
CAS: 68942-48-3
State: SOLID (1 mg / 650 mg KBr DISC)
Class: COBLENTZ III
Instrument: PERKIN-ELMER 221 (GRATING)
Instrument parameters: FILTERS AT 980 CM ^-^1, GRATING FOR 4000-1428 CM^-^1, NaCl PRISM FOR 1428-650 CM^-^1
Sampling: TRANSMISSION
Resolution: 4
Origin: SOUTHERN RES. INSTITUTE
1/CM	TRANSMITTANCE
609.662	0.742
618.849	0.74
628.036	0.735
637.223	0.72
646.41	0.679
655.597	0.649
664.783	0.618
673.97	0.597
683.157	0.609
692.344	0.673
701.531	0.758
710.718	0.753
719.905	0.738
729.092	0.65
738.279	0.613
747.466	0.658
756.652	0.695
765.839	0.724
775.026	0.753
784.213	0.762
793.4	0.496
802.587	0.787
811.774	0.73
820.961	0.765
830.148	0.815
839.335	0.829
848.522	0.684
857.708	0.813
866.895	0.854
876.082	0.81
885.269	0.844
894.456	0.866
903.643	0.863
912.83	0.86
922.017	0.856
931.204	0.844
940.391	0.814
949.577	0.827
958.764	0.846
967.951	0.838
977.138	0.82
986.325	0.81
995.512	0.802
1004.7	0.723
1013.89	0.629
1023.07	0.801
1032.26	0.817
1041.45	0.8
1050.63	0.716
1059.82	0.783
1069.01	0.803
1078.19	0.778
1087.38	0.724
1096.57	0.612
1105.75	0.784
1114.94	0.727
1124.13	0.799
1133.32	0.743
1142.5	0.795
1151.69	0.797
1160.88	0.793
1170.06	0.748
1179.25	0.713
1188.44	0.734
1197.62	0.588
1206.81	0.57
1216	0.564
1225.18	0.459
1234.37	0.731
1243.56	0.803
1252.75	0.79
1261.93	0.773
1271.12	0.755
1280.31	0.754
1289.49	0.749
1298.68	0.732
1307.87	0.649
1317.05	0.692
1326.24	0.554
1335.43	0.675
1344.61	0.728
1353.8	0.704
1362.99	0.692
1372.18	0.682
1381.36	0.678
1390.55	0.636
1399.74	0.472
1408.92	0.371
1418.11	0.5
1427.3	0.378
1436.48	0.312
1445.67	0.445
1454.86	0.732
1464.04	0.75
1473.23	0.728
1482.42	0.665
1491.6	0.554
1500.79	0.629
1509.98	0.695
1519.17	0.6
1528.35	0.677
1537.54	0.766
1546.73	0.797
1555.91	0.789
1565.1	0.748
1574.29	0.734
1583.47	0.652
1592.66	0.515
1601.85	0.496
1611.03	0.616
1620.22	0.547
1629.41	0.511
1638.6	0.602
1647.78	0.494
1656.97	0.412
1666.16	0.295
1675.34	0.214
1684.53	0.213
1693.72	0.484
1702.9	0.643
1712.09	0.777
1721.28	0.797
1730.46	0.82
1739.65	0.834
1748.84	0.828
1758.03	0.831
1767.21	0.849
1776.4	0.853
1785.59	0.852
1794.77	0.85
1803.96	0.848
1813.15	0.848
1822.33	0.848
1831.52	0.85
1840.71	0.849
1849.89	0.847
1859.08	0.843
1868.27	0.841
1877.45	0.838
1886.64	0.837
1895.83	0.827
1905.02	0.819
1914.2	0.814
1923.39	0.81
1932.58	0.801
1941.76	0.807
1950.95	0.813
1960.14	0.811
1969.32	0.81
1978.51	0.807
1987.7	0.807
1996.88	0.806
2006.07	0.806
2015.26	0.806
2024.45	0.806
2033.63	0.804
2042.82	0.801
2052.01	0.798
2061.19	0.8
2070.38	0.801
2079.57	0.801
2088.75	0.801
2097.94	0.798
2107.13	0.796
2116.31	0.795
2125.5	0.795
2134.69	0.794
2143.87	0.794
2153.06	0.794
2162.25	0.793
2171.44	0.793
2180.62	0.792
2189.81	0.792
2199	0.791
2208.18	0.789
2217.37	0.789
2226.56	0.786
2235.74	0.783
2244.93	0.78
2254.12	0.779
2263.3	0.778
2272.49	0.778
2281.68	0.778
2290.87	0.777
2300.05	0.777
2309.24	0.775
2318.43	0.773
2327.61	0.764
2336.8	0.761
2345.99	0.759
2355.17	0.756
2364.36	0.755
2373.55	0.753
2382.73	0.751
2391.92	0.748
2401.11	0.745
2410.3	0.743
2419.48	0.744
2428.67	0.745
2437.86	0.744
2447.04	0.744
2456.23	0.744
2465.42	0.744
2474.6	0.743
2483.79	0.74
2492.98	0.734
2502.16	0.731
2511.35	0.728
2520.54	0.724
2529.72	0.716
2538.91	0.708
2548.1	0.701
2557.29	0.686
2566.47	0.67
2575.66	0.694
2584.85	0.695
2594.03	0.692
2603.22	0.687
2612.41	0.681
2621.59	0.676
2630.78	0.674
2639.97	0.67
2649.15	0.661
2658.34	0.658
2667.53	0.661
2676.72	0.664
2685.9	0.662
2695.09	0.657
2704.28	0.645
2713.46	0.632
2722.65	0.63
2731.84	0.627
2741.02	0.623
2750.21	0.615
2759.4	0.606
2768.58	0.592
2777.77	0.573
2786.96	0.564
2796.15	0.551
2805.33	0.535
2814.52	0.525
2823.71	0.522
2832.89	0.506
2842.08	0.49
2851.27	0.503
2860.45	0.524
2869.64	0.575
2878.83	0.567
2888.01	0.549
2897.2	0.518
2906.39	0.496
2915.57	0.496
2924.76	0.519
2933.95	0.515
2943.14	0.5
2952.32	0.473
2961.51	0.465
2970.7	0.46
2979.88	0.444
2989.07	0.429
2998.26	0.414
3007.44	0.404
3016.63	0.395
3025.82	0.384
3035	0.399
3044.19	0.411
3053.38	0.41
3062.57	0.402
3071.75	0.388
3080.94	0.374
3090.13	0.35
3099.31	0.329
3108.5	0.329
3117.69	0.341
3126.87	0.356
3136.06	0.379
3145.25	0.414
3154.43	0.457
3163.62	0.494
3172.81	0.511
3182	0.508
3191.18	0.501
3200.37	0.495
3209.56	0.488
3218.74	0.481
3227.93	0.475
3237.12	0.472
3246.3	0.473
3255.49	0.475
3264.68	0.477
3273.86	0.48
3283.05	0.484
3292.24	0.501
3301.42	0.542
3310.61	0.577
3319.8	0.596
3328.99	0.606
3338.17	0.628
3347.36	0.649
3356.55	0.656
3365.73	0.659
3374.92	0.658
3384.11	0.657
3393.29	0.654
3402.48	0.65
3411.67	0.648
3420.85	0.649
3430.04	0.65
3439.23	0.652
3448.42	0.653
3457.6	0.655
3466.79	0.656
3475.98	0.658
3485.16	0.659
3494.35	0.661
3503.54	0.664
3512.72	0.668
3521.91	0.673
3531.1	0.678
3540.28	0.684
3549.47	0.69
3558.66	0.697
3567.85	0.703
3577.03	0.71
3586.22	0.715
3595.41	0.719
3604.59	0.725
3613.78	0.729
3622.97	0.734
3632.15	0.739
3641.34	0.742
3650.53	0.743
3659.71	0.743
3668.9	0.743
3678.09	0.743
3687.27	0.743
3696.46	0.744
3705.65	0.744
3714.84	0.743
3724.02	0.743
3733.21	0.742
3742.4	0.741
3751.58	0.74
3760.77	0.739
3769.96	0.738
3779.14	0.737
3788.33	0.737
3797.52	0.736
3806.7	0.734
3815.89	0.733
3825.08	0.732
3834.27	0.731
3843.45	0.73
3852.64	0.728
3861.83	0.728
3871.01	0.727
3880.2	0.726
3889.39	0.725
3898.57	0.724
3907.76	0.723
3916.95	0.722
3926.13	0.722
3935.32	0.722
3944.51	0.721
3953.7	0.72
3962.88	0.719
3972.07	0.719
3981.26	0.718
3990.44	0.716
3999.63	0.714
4008.82	0.712
