Infrared Spectrum: CHLORPROMAZINE HYDROCHLORIDE
Formula: C17 H20 C L2 N2 S
CAS: 69-09-0
State: SOLID (1 mg / 200 mg KCl DISC)
Melting point: DECOMPOSES AROUND 180 C
Class: COBLENTZ III
Instrument: PERKIN-ELMER 21 (GRATING)
Instrument parameters: FILTER CHANGE AT 10 MICRON
Sampling: TRANSMISSION
Path length: 0.055 CM
Resolution: 2
MICROMETERS	TRANSMITTANCE
2	0.249
2.03329	0.253
2.06657	0.26
2.09986	0.266
2.13314	0.272
2.16643	0.277
2.19971	0.282
2.233	0.287
2.26629	0.292
2.29957	0.296
2.33286	0.299
2.36614	0.305
2.39943	0.309
2.43271	0.313
2.466	0.317
2.49929	0.319
2.53257	0.323
2.56586	0.328
2.59914	0.335
2.63243	0.342
2.66571	0.349
2.699	0.357
2.73229	0.363
2.76557	0.365
2.79886	0.351
2.83214	0.332
2.86543	0.275
2.89871	0.271
2.932	0.266
2.96528	0.268
2.99857	0.291
3.03186	0.325
3.06514	0.343
3.09843	0.355
3.13171	0.378
3.165	0.391
3.19828	0.403
3.23157	0.407
3.26486	0.392
3.29814	0.392
3.33143	0.393
3.36471	0.392
3.398	0.359
3.43128	0.361
3.46457	0.37
3.49786	0.379
3.53114	0.403
3.56443	0.424
3.59771	0.441
3.631	0.443
3.66428	0.443
3.69757	0.412
3.73086	0.366
3.76414	0.351
3.79743	0.351
3.83071	0.348
3.864	0.34
3.89728	0.317
3.93057	0.312
3.96386	0.331
3.99714	0.313
4.03043	0.317
4.06371	0.277
4.097	0.262
4.13028	0.254
4.16357	0.271
4.19686	0.288
4.23014	0.302
4.26343	0.319
4.29671	0.341
4.33	0.375
4.36328	0.41
4.39657	0.422
4.42986	0.43
4.46314	0.444
4.49643	0.455
4.52971	0.463
4.563	0.473
4.59628	0.476
4.62957	0.481
4.66286	0.491
4.69614	0.494
4.72943	0.501
4.76271	0.505
4.796	0.508
4.82928	0.512
4.86257	0.517
4.89585	0.521
4.92914	0.526
4.96243	0.531
4.99571	0.536
5.029	0.541
5.06228	0.545
5.09557	0.549
5.12885	0.554
5.16214	0.551
5.19543	0.55
5.22871	0.56
5.262	0.562
5.29528	0.562
5.32857	0.569
5.36185	0.564
5.39514	0.569
5.42843	0.577
5.46171	0.582
5.495	0.586
5.52828	0.588
5.56157	0.593
5.59485	0.594
5.62814	0.593
5.66143	0.596
5.69471	0.6
5.728	0.602
5.76128	0.602
5.79457	0.604
5.82785	0.611
5.86114	0.609
5.89443	0.609
5.92771	0.612
5.961	0.608
5.99428	0.602
6.02757	0.601
6.06085	0.601
6.09414	0.602
6.12743	0.611
6.16071	0.608
6.194	0.601
6.22728	0.601
6.26057	0.513
6.29385	0.454
6.32714	0.543
6.36043	0.39
6.39371	0.33
6.427	0.488
6.46028	0.562
6.49357	0.613
6.52685	0.627
6.56014	0.64
6.59342	0.655
6.62671	0.664
6.66	0.657
6.69328	0.552
6.72657	0.347
6.75985	0.348
6.79314	0.349
6.82642	0.193
6.85971	0.118
6.893	0.115
6.92628	0.211
6.95957	0.322
6.99285	0.381
7.02614	0.416
7.05942	0.378
7.09271	0.3
7.126	0.313
7.15928	0.418
7.19257	0.438
7.22585	0.438
7.25914	0.439
7.29242	0.495
7.32571	0.532
7.359	0.562
7.39228	0.569
7.42557	0.573
7.45885	0.557
7.49214	0.544
7.52542	0.48
7.55871	0.521
7.592	0.523
7.62528	0.532
7.65857	0.434
7.69185	0.437
7.72514	0.456
7.75842	0.399
7.79171	0.398
7.825	0.417
7.85828	0.492
7.89157	0.53
7.92485	0.548
7.95814	0.519
7.99142	0.382
8.02471	0.305
8.058	0.363
8.09128	0.41
8.12457	0.361
8.15785	0.384
8.19114	0.464
8.22442	0.507
8.25771	0.535
8.291	0.555
8.32428	0.582
8.35757	0.594
8.39085	0.601
8.42414	0.602
8.45742	0.574
8.49071	0.53
8.52399	0.501
8.55728	0.531
8.59057	0.506
8.62385	0.495
8.65714	0.535
8.69042	0.57
8.72371	0.579
8.75699	0.546
8.79028	0.531
8.82357	0.575
8.85685	0.532
8.89014	0.437
8.92342	0.524
8.95671	0.557
8.98999	0.551
9.02328	0.495
9.05657	0.47
9.08985	0.445
9.12314	0.407
9.15642	0.423
9.18971	0.493
9.22299	0.532
9.25628	0.565
9.28957	0.586
9.32285	0.596
9.35614	0.592
9.38942	0.575
9.42271	0.588
9.45599	0.575
9.48928	0.529
9.52257	0.511
9.55585	0.564
9.58914	0.579
9.62242	0.539
9.65571	0.473
9.68899	0.491
9.72228	0.554
9.75557	0.593
9.78885	0.609
9.82214	0.615
9.85542	0.618
9.88871	0.593
9.92199	0.593
9.95528	0.595
9.98857	0.585
10.0219	0.619
10.0551	0.63
10.0884	0.642
10.1217	0.65
10.155	0.659
10.1883	0.663
10.2216	0.657
10.2549	0.604
10.2881	0.527
10.3214	0.517
10.3547	0.519
10.388	0.541
10.4213	0.598
10.4546	0.633
10.4879	0.661
10.5211	0.674
10.5544	0.682
10.5877	0.686
10.621	0.676
10.6543	0.636
10.6876	0.537
10.7209	0.475
10.7541	0.442
10.7874	0.404
10.8207	0.497
10.854	0.546
10.8873	0.596
10.9206	0.619
10.9539	0.633
10.9871	0.643
11.0204	0.653
11.0537	0.662
11.087	0.673
11.1203	0.675
11.1536	0.682
11.1868	0.675
11.2201	0.67
11.2534	0.657
11.2867	0.624
11.32	0.602
11.3533	0.599
11.3866	0.585
11.4198	0.582
11.4531	0.588
11.4864	0.59
11.5197	0.565
11.553	0.56
11.5863	0.581
11.6196	0.599
11.6528	0.612
11.6861	0.614
11.7194	0.617
11.7527	0.615
11.786	0.613
11.8193	0.633
11.8526	0.645
11.8858	0.652
11.9191	0.651
11.9524	0.644
11.9857	0.663
12.019	0.689
12.0523	0.696
12.0856	0.703
12.1188	0.708
12.1521	0.714
12.1854	0.719
12.2187	0.725
12.252	0.727
12.2853	0.714
12.3186	0.69
12.3518	0.631
12.3851	0.501
12.4184	0.334
12.4517	0.304
12.485	0.439
12.5183	0.524
12.5516	0.569
12.5848	0.609
12.6181	0.631
12.6514	0.644
12.6847	0.663
12.718	0.673
12.7513	0.692
12.7846	0.706
12.8178	0.712
12.8511	0.712
12.8844	0.712
12.9177	0.706
12.951	0.711
12.9843	0.712
13.0176	0.712
13.0508	0.708
13.0841	0.675
13.1174	0.65
13.1507	0.629
13.184	0.585
13.2173	0.527
13.2506	0.437
13.2838	0.279
13.3171	0.249
13.3504	0.192
13.3837	0.241
13.417	0.351
13.4503	0.462
13.4836	0.53
13.5168	0.571
13.5501	0.571
13.5834	0.531
13.6167	0.462
13.65	0.399
13.6833	0.4
13.7166	0.495
13.7498	0.554
13.7831	0.59
13.8164	0.611
13.8497	0.615
13.883	0.63
13.9163	0.642
13.9496	0.656
13.9828	0.663
14.0161	0.675
14.0494	0.678
14.0827	0.683
14.116	0.689
14.1493	0.692
14.1826	0.693
14.2158	0.695
14.2491	0.694
14.2824	0.693
14.3157	0.689
14.349	0.694
14.3823	0.7
14.4156	0.705
14.4488	0.709
14.4821	0.709
14.5154	0.709
14.5487	0.709
14.582	0.708
14.6153	0.706
14.6486	0.705
14.6818	0.699
14.7151	0.693
14.7484	0.686
14.7817	0.684
14.815	0.689
14.8483	0.695
14.8816	0.7
14.9148	0.703
14.9481	0.707
14.9814	0.712
15.0147	0.715
15.048	0.715
