Infrared Spectrum: Ampicillin sodium salt
Formula: C 16 H 18 N 3 Na O 4 S
CAS: 69-52-3
State: solid
Instrument: Bruker Tensor 37 FTIR
Resolution: 0.96450084
Origin: Pacific Northwest National Laboratory Under IARPA Contract
1/cm	Reflectance
7498.99	0.747825
7481.63	0.734878
7464.27	0.728391
7446.91	0.720342
7429.55	0.7182
7412.19	0.713789
7394.84	0.709034
7377.48	0.701296
7360.12	0.70617
7342.76	0.689661
7325.4	0.684445
7308.04	0.686792
7290.68	0.681703
7273.32	0.681305
7255.96	0.674015
7238.6	0.671918
7221.24	0.682192
7203.88	0.680897
7186.52	0.680538
7169.16	0.681172
7151.8	0.672466
7134.44	0.664652
7117.08	0.629961
7099.72	0.602067
7082.36	0.589422
7065	0.574756
7047.64	0.530255
7030.28	0.480586
7012.92	0.465298
6995.56	0.480268
6978.2	0.516118
6960.84	0.567264
6943.48	0.608454
6926.12	0.632173
6908.76	0.635053
6891.4	0.638754
6874.04	0.645822
6856.68	0.655052
6839.32	0.648168
6821.96	0.636324
6804.6	0.624271
6787.24	0.620401
6769.88	0.592982
6752.52	0.514242
6735.16	0.461051
6717.8	0.447348
6700.44	0.454379
6683.08	0.487375
6665.72	0.480218
6648.36	0.468368
6631	0.49321
6613.64	0.540168
6596.28	0.556736
6578.92	0.559999
6561.56	0.58699
6544.2	0.590987
6526.85	0.596366
6509.49	0.595347
6492.13	0.596988
6474.77	0.59083
6457.41	0.583867
6440.05	0.5825
6422.69	0.575392
6405.33	0.560292
6387.97	0.521679
6370.61	0.48969
6353.25	0.480055
6335.89	0.480352
6318.53	0.485503
6301.17	0.486719
6283.81	0.479598
6266.45	0.461526
6249.09	0.425712
6231.73	0.377347
6214.37	0.333285
6197.01	0.350675
6179.65	0.344333
6162.29	0.344696
6144.93	0.36944
6127.57	0.369596
6110.21	0.36352
6092.85	0.336338
6075.49	0.315521
6058.13	0.291478
6040.77	0.287384
6023.41	0.285988
6006.05	0.294178
5988.69	0.300986
5971.33	0.289534
5953.97	0.264687
5936.61	0.277876
5919.25	0.247885
5901.89	0.280341
5884.53	0.266211
5867.17	0.255308
5849.81	0.258313
5832.45	0.250046
5815.09	0.255004
5797.73	0.248865
5780.37	0.21567
5763.01	0.259946
5745.65	0.282908
5728.29	0.285143
5710.93	0.284371
5693.57	0.294463
5676.21	0.301625
5658.86	0.308708
5641.5	0.301148
5624.14	0.292592
5606.78	0.266754
5589.42	0.208848
5572.06	0.132582
5554.7	0.106085
5537.34	0.0870738
5519.98	0.0759661
5502.62	0.0706322
5485.26	0.0691368
5467.9	0.0627913
5450.54	0.0486082
5433.18	0.0415475
5415.82	0.0403173
5398.46	0.0389457
5381.1	0.0446211
5363.74	0.0497276
5346.38	0.0520019
5329.02	0.0585794
5311.66	0.0653362
5294.3	0.059607
5276.94	0.0516426
5259.58	0.052286
5242.22	0.0441284
5224.86	0.0494975
5207.5	0.0522435
5190.14	0.0584146
5172.78	0.0761544
5155.42	0.0888565
5138.06	0.0991651
5120.7	0.109012
5103.34	0.117821
5085.98	0.120949
5068.62	0.120777
5051.26	0.129218
5033.9	0.129873
5016.54	0.135994
4999.18	0.141479
4981.82	0.15069
4964.46	0.150488
4947.1	0.144571
4929.74	0.145058
4912.38	0.147093
4895.02	0.157485
4877.66	0.161433
4860.3	0.166865
4842.94	0.165562
4825.58	0.166051
4808.22	0.167548
4790.86	0.165337
4773.51	0.161883
4756.15	0.153083
4738.79	0.130257
4721.43	0.122539
4704.07	0.106712
4686.71	0.0859019
4669.35	0.0658938
4651.99	0.0295247
4634.63	0.0258215
4617.27	0.03404
4599.91	0.0259706
4582.55	0.0256961
4565.19	0.0241692
4547.83	0.0305121
4530.47	0.0333252
4513.11	0.0278885
4495.75	0.0309916
4478.39	0.0313684
4461.03	0.0304367
4443.67	0.0297691
4426.31	0.0310898
4408.95	0.0285612
4391.59	0.0346762
4374.23	0.0340065
4356.87	0.0350764
4339.51	0.0393928
4322.15	0.0445848
4304.79	0.0526557
4287.43	0.0414595
4270.07	0.0595672
4252.71	0.0388469
4235.35	0.0391338
4217.99	0.0398889
4200.63	0.0369311
4183.27	0.0360699
4165.91	0.039556
4148.55	0.0362338
4131.19	0.0280601
4113.83	0.0293037
4096.47	0.0318439
4079.11	0.0321358
4061.75	0.0343476
4044.39	0.745497
4027.03	0.736635
4009.67	0.735739
3992.31	0.723633
3974.95	0.720171
3957.59	0.715169
3940.23	0.709854
3922.87	0.710599
3905.52	0.703729
3888.16	0.690362
3870.8	0.688847
3853.44	0.68396
3836.08	0.680918
3818.72	0.678476
3801.36	0.679492
3784	0.674874
3766.64	0.68269
3749.28	0.684645
3731.92	0.687492
3714.56	0.680562
3697.2	0.675791
3679.84	0.662614
3662.48	0.628032
3645.12	0.605593
3627.76	0.598758
3610.4	0.578692
3593.04	0.526582
3575.68	0.484342
3558.32	0.479852
3540.96	0.502873
3523.6	0.542993
3506.24	0.590997
3488.88	0.626717
3471.52	0.642251
3454.16	0.646481
3436.8	0.654521
3419.44	0.657837
3402.08	0.663238
3384.72	0.654847
3367.36	0.643095
3350	0.635323
3332.64	0.633454
3315.28	0.580229
3297.92	0.509295
3280.56	0.469357
3263.2	0.468479
3245.84	0.471383
3228.48	0.506131
3211.12	0.488718
3193.76	0.484592
3176.4	0.522914
3159.04	0.561745
3141.68	0.568935
3124.32	0.581854
3106.96	0.603618
3089.6	0.604324
3072.24	0.60686
3054.88	0.606469
3037.53	0.608562
3020.17	0.600087
3002.81	0.595669
2985.45	0.592715
2968.09	0.583287
2950.73	0.557881
2933.37	0.511903
2916.01	0.48352
2898.65	0.478545
2881.29	0.482436
2863.93	0.4888
2846.57	0.489494
2829.21	0.482624
2811.85	0.460262
2794.49	0.424834
2777.13	0.370859
2759.77	0.346804
2742.41	0.36565
2725.05	0.354296
2707.69	0.364266
2690.33	0.386306
2672.97	0.379288
2655.61	0.373787
2638.25	0.327032
2620.89	0.323653
2603.53	0.306429
2586.17	0.295312
2568.81	0.300211
2551.45	0.31059
2534.09	0.312253
2516.73	0.293909
2499.37	0.278195
2482.01	0.27726
2464.65	0.263033
2447.29	0.288425
2429.93	0.274141
2412.57	0.266487
2395.21	0.26688
2377.85	0.266468
2360.49	0.262445
2343.13	0.249333
2325.77	0.227544
2308.41	0.285476
2291.05	0.292489
2273.69	0.291818
2256.33	0.299439
2238.97	0.304472
2221.61	0.311319
2204.25	0.315465
2186.89	0.304955
2169.53	0.291296
2152.18	0.257409
2134.82	0.170797
2117.46	0.115717
2100.1	0.0949285
2082.74	0.0793145
2065.38	0.0706482
2048.02	0.0678585
2030.66	0.0659322
2013.3	0.05781
1995.94	0.0451986
1978.58	0.0414434
1961.22	0.0404619
1943.86	0.0414664
1926.5	0.0469719
1909.14	0.0508365
1891.78	0.0543127
1874.42	0.0615364
1857.06	0.0654355
1839.7	0.0594616
1822.34	0.0538142
1804.98	0.053437
1787.62	0.04175
1770.26	0.050716
1752.9	0.0570287
1735.54	0.0592148
1718.18	0.0846363
1700.82	0.0947286
1683.46	0.105781
1666.1	0.114208
1648.74	0.124167
1631.38	0.125067
1614.02	0.128829
1596.66	0.133476
1579.3	0.137033
1561.94	0.141595
1544.58	0.14962
1527.22	0.156841
1509.86	0.153758
1492.5	0.148715
1475.14	0.147021
1457.78	0.15161
1440.42	0.165324
1423.06	0.166594
1405.7	0.170435
1388.34	0.169179
1370.98	0.169697
1353.62	0.169472
1336.26	0.168301
1318.9	0.163413
1301.54	0.153558
1284.19	0.124166
1266.83	0.132958
1249.47	0.0980484
1232.11	0.0881249
1214.75	0.0552218
1197.39	0.0237174
1180.03	0.0279993
1162.67	0.0391995
1145.31	0.0239674
1127.95	0.0257526
1110.59	0.0249844
1093.23	0.0325344
1075.87	0.0320043
1058.51	0.0270121
1041.15	0.0360102
1023.79	0.0358727
1006.43	0.0267198
989.068	0.0322178
971.709	0.0285288
954.349	0.0301541
936.989	0.0363662
919.629	0.0355569
902.269	0.035112
884.91	0.0383821
867.55	0.0407393
850.19	0.0445244
832.83	0.0437474
815.47	0.0409096
798.111	0.0413772
780.751	0.0353104
763.391	0.038213
746.031	0.0322646
728.671	0.038011
711.312	0.0383574
693.952	0.0315962
676.592	0.0279367
659.232	0.0290353
641.872	0.0343799
624.513	0.0348551
607.153	0.0330258
