Infrared Spectrum: MANNITOL
Formula: C6 H14 O6
CAS: 69-65-8
State: SOLID (NUJOL MULL)
Class: COBLENTZ III
Instrument: BAIRD (PRISM)
Instrument parameters: NaCl PRISM
Sampling: TRANSMISSION
Resolution: 2
Origin: DOW CHEMICAL COMPANY
MICROMETERS	TRANSMITTANCE
2.015	0.712
2.05402	0.717
2.09305	0.726
2.13207	0.731
2.17109	0.733
2.21012	0.723
2.24914	0.721
2.28816	0.723
2.32719	0.729
2.36621	0.731
2.40523	0.732
2.44425	0.738
2.48328	0.743
2.5223	0.746
2.56132	0.751
2.60035	0.751
2.63937	0.75
2.67839	0.743
2.71742	0.721
2.75644	0.663
2.79546	0.569
2.83449	0.4
2.87351	0.18
2.91253	0.096
2.95156	0.106
2.99058	0.073
3.0296	0.103
3.06863	0.15
3.10765	0.26
3.14667	0.4
3.18569	0.479
3.22472	0.523
3.26374	0.535
3.30276	0.435
3.34179	0.161
3.38081	0.081
3.41983	0.15
3.45886	0.201
3.49788	0.552
3.5369	0.611
3.57593	0.63
3.61495	0.621
3.65397	0.63
3.693	0.651
3.73202	0.671
3.77104	0.694
3.81007	0.713
3.84909	0.728
3.88811	0.739
3.92713	0.746
3.96616	0.756
4.00518	0.768
4.0442	0.773
4.08323	0.781
4.12225	0.786
4.16127	0.784
4.2003	0.784
4.23932	0.8
4.27834	0.803
4.31737	0.808
4.35639	0.814
4.39541	0.816
4.43444	0.82
4.47346	0.82
4.51248	0.821
4.55151	0.821
4.59053	0.822
4.62955	0.822
4.66857	0.823
4.7076	0.823
4.74662	0.825
4.78564	0.826
4.82467	0.822
4.86369	0.826
4.90271	0.832
4.94174	0.828
4.98076	0.828
5.01978	0.834
5.05881	0.833
5.09783	0.834
5.13685	0.838
5.17588	0.837
5.2149	0.836
5.25392	0.834
5.29295	0.839
5.33197	0.844
5.37099	0.844
5.41001	0.843
5.44904	0.843
5.48806	0.842
5.52708	0.841
5.56611	0.839
5.60513	0.837
5.64415	0.836
5.68318	0.826
5.7222	0.825
5.76122	0.828
5.80025	0.823
5.83927	0.823
5.87829	0.821
5.91732	0.82
5.95634	0.82
5.99536	0.815
6.03438	0.817
6.07341	0.816
6.11243	0.81
6.15145	0.81
6.19048	0.814
6.2295	0.811
6.26852	0.808
6.30755	0.805
6.34657	0.8
6.38559	0.795
6.42462	0.786
6.46364	0.779
6.50266	0.77
6.54169	0.762
6.58071	0.743
6.61973	0.705
6.65876	0.665
6.69778	0.617
6.7368	0.551
6.77582	0.364
6.81485	0.323
6.85387	0.382
6.89289	0.415
6.93192	0.364
6.97094	0.305
7.00996	0.298
7.04899	0.374
7.08801	0.419
7.12703	0.446
7.16606	0.453
7.20508	0.437
7.2441	0.47
7.28313	0.589
7.32215	0.628
7.36117	0.651
7.4002	0.665
7.43922	0.669
7.47824	0.64
7.51726	0.581
7.55629	0.523
7.59531	0.493
7.63433	0.454
7.67336	0.481
7.71238	0.459
7.7514	0.348
7.79043	0.404
7.82945	0.501
7.86847	0.462
7.9075	0.458
7.94652	0.497
7.98554	0.509
8.02457	0.55
8.06359	0.562
8.10261	0.601
8.14164	0.636
8.18066	0.619
8.21968	0.595
8.2587	0.632
8.29773	0.687
8.33675	0.713
8.37577	0.728
8.4148	0.74
8.45382	0.743
8.49284	0.743
8.53187	0.743
8.57089	0.743
8.60991	0.745
8.64894	0.751
8.68796	0.754
8.72698	0.754
8.76601	0.755
8.80503	0.759
8.84405	0.75
8.88308	0.737
8.9221	0.716
8.96112	0.674
9.00014	0.64
9.03917	0.603
9.07819	0.522
9.11721	0.359
9.15624	0.18
9.19526	0.091
9.23428	0.078
9.27331	0.13
9.31233	0.323
9.35135	0.48
9.39038	0.569
9.4294	0.606
9.46842	0.583
9.50745	0.512
9.54647	0.464
9.58549	0.482
9.62452	0.525
9.66354	0.518
9.70256	0.352
9.74158	0.15
9.78061	0.08
9.81963	0.19
9.85865	0.43
9.89768	0.58
9.9367	0.655
9.97572	0.702
10.0147	0.728
10.0538	0.746
10.0928	0.754
10.1318	0.762
10.1708	0.766
10.2099	0.768
10.2489	0.768
10.2879	0.768
10.3269	0.759
10.366	0.733
10.405	0.712
10.444	0.732
10.483	0.754
10.522	0.76
10.5611	0.75
10.6001	0.72
10.6391	0.665
10.6781	0.613
10.7172	0.553
10.7562	0.563
10.7952	0.683
10.8342	0.745
10.8733	0.771
10.9123	0.783
10.9513	0.79
10.9903	0.798
11.0293	0.798
11.0684	0.79
11.1074	0.777
11.1464	0.751
11.1854	0.698
11.2245	0.623
11.2635	0.462
11.3025	0.347
11.3415	0.392
11.3806	0.515
11.4196	0.622
11.4586	0.663
11.4976	0.61
11.5366	0.561
11.5757	0.601
11.6147	0.712
11.6537	0.75
11.6927	0.761
11.7318	0.766
11.7708	0.77
11.8098	0.771
11.8488	0.77
11.8879	0.771
11.9269	0.766
11.9659	0.764
12.0049	0.762
12.044	0.754
12.083	0.754
12.122	0.751
12.161	0.749
12.2	0.743
12.2391	0.739
12.2781	0.732
12.3171	0.726
12.3561	0.717
12.3952	0.709
12.4342	0.7
12.4732	0.688
12.5122	0.673
12.5513	0.657
12.5903	0.638
12.6293	0.612
12.6683	0.579
12.7073	0.566
12.7464	0.572
12.7854	0.586
12.8244	0.596
12.8634	0.597
12.9025	0.592
12.9415	0.585
12.9805	0.58
13.0195	0.573
13.0586	0.568
13.0976	0.563
13.1366	0.562
13.1756	0.561
13.2146	0.559
13.2537	0.559
13.2927	0.557
13.3317	0.553
13.3707	0.553
13.4098	0.55
13.4488	0.544
13.4878	0.537
13.5268	0.53
13.5659	0.52
13.6049	0.512
13.6439	0.501
13.6829	0.488
13.7219	0.474
13.761	0.458
13.8	0.437
13.839	0.424
13.878	0.409
13.9171	0.392
13.9561	0.371
13.9951	0.349
14.0341	0.328
14.0732	0.308
14.1122	0.287
14.1512	0.271
14.1902	0.257
14.2292	0.249
14.2683	0.243
14.3073	0.24
14.3463	0.242
14.3853	0.249
14.4244	0.255
14.4634	0.265
14.5024	0.276
14.5414	0.286
14.5805	0.295
14.6195	0.301
14.6585	0.304
14.6975	0.306
14.7365	0.306
14.7756	0.301
14.8146	0.295
14.8536	0.289
14.8926	0.282
14.9317	0.279
14.9707	0.278
15.0097	0.279
15.0487	0.279
15.0878	0.277
15.1268	0.277
15.1658	0.279
15.2048	0.283
15.2438	0.284
15.2829	0.283
15.3219	0.282
15.3609	0.277
15.3999	0.275
15.439	0.272
15.478	0.265
15.517	0.256
15.556	0.249
15.5951	0.237
15.6341	0.223
15.6731	0.215
15.7121	0.202
15.7512	0.19
15.7902	0.179
15.8292	0.168
15.8682	0.16
15.9072	0.165
15.9463	0.198
