Infrared Spectrum: Maltose
Formula: C12 H22 O11
CAS: 69-79-4
State: SOLID (SPLIT MULL)
Melting point: 120 C
Class: COBLENTZ III
Instrument: DOW KBr FOREPRISM-GRATING
Instrument parameters: BLAZED AT 3.5, 12.0, 20.0 MICRON AND CHANGED AT 5.0, 7.5, 14.9 MICRON
Sampling: TRANSMISSION
Resolution: 2
Origin: DOW CHEMICAL COMPANY
1/CM	TRANSMITTANCE
3816	0.7507
3807	0.7551
3798	0.7598
3789	0.7649
3780	0.7695
3771	0.7737
3762	0.7785
3753	0.7849
3744	0.7908
3735	0.796
3726	0.8011
3717	0.8068
3708	0.8125
3699	0.8187
3690	0.8253
3681	0.8291
3672	0.8303
3663	0.8283
3654	0.8243
3645	0.8174
3636	0.8071
3627	0.7956
3618	0.7815
3609	0.7631
3600	0.7346
3591	0.7003
3582	0.6736
3573	0.6434
3564	0.5939
3555	0.5193
3546	0.4903
3537	0.4648
3528	0.4362
3519	0.398
3510	0.3572
3501	0.3048
3492	0.2678
3483	0.2161
3474	0.1729
3465	0.1521
3456	0.1292
3447	0.1042
3438	0.0811
3429	0.0661
3420	0.0626
3411	0.0612
3402	0.0601
3393	0.0554
3384	0.0451
3375	0.0311
3366	0.0205
3357	0.0165
3348	0.0166
3339	0.0175
3330	0.0187
3321	0.0197
3312	0.0204
3303	0.021
3294	0.0214
3285	0.0218
3276	0.0224
3267	0.0231
3258	0.0241
3249	0.0251
3240	0.0259
3231	0.0274
3222	0.0299
3213	0.0329
3204	0.0379
3195	0.0443
3186	0.0515
3177	0.0592
3168	0.0686
3159	0.0793
3150	0.0914
3141	0.1046
3132	0.1168
3123	0.1286
3114	0.1433
3105	0.1585
3096	0.1711
3087	0.1844
3078	0.2002
3069	0.2182
3060	0.2371
3051	0.2534
3042	0.2693
3033	0.2835
3024	0.2981
3015	0.3124
3006	0.3253
2997	0.3418
2988	0.3318
2979	0.3031
2970	0.3203
2961	0.3427
2952	0.2362
2943	0.2748
2934	0.2389
2925	0.2167
2916	0.2169
2907	0.2564
2898	0.2319
2889	0.2452
2880	0.2674
2871	0.2863
2862	0.2976
2853	0.3034
2844	0.3118
2835	0.3256
2826	0.3399
2817	0.353
2808	0.365
2799	0.3771
2790	0.3903
2781	0.4023
2772	0.4105
2763	0.4187
2754	0.4264
2745	0.434
2736	0.441
2727	0.446
2718	0.4475
2709	0.45
2700	0.4526
2691	0.4569
2682	0.462
2673	0.4684
2664	0.4753
2655	0.4875
2646	0.5031
2637	0.5147
2628	0.5216
2619	0.5312
2610	0.5395
2601	0.5471
2592	0.5518
2583	0.5566
2574	0.5605
2565	0.5641
2556	0.5677
2547	0.571
2538	0.5738
2529	0.5766
2520	0.5794
2511	0.5821
2502	0.585
2493	0.588
2484	0.591
2475	0.5941
2466	0.5981
2457	0.6027
2448	0.6072
2439	0.6124
2430	0.6178
2421	0.6231
2412	0.6284
2403	0.6334
2394	0.6387
2385	0.6441
2376	0.6468
2367	0.6487
2358	0.6505
2349	0.6532
2340	0.6575
2331	0.6654
2322	0.6651
2313	0.6637
2304	0.6667
2295	0.6708
2286	0.6749
2277	0.679
2268	0.6841
2259	0.6895
2250	0.6958
2241	0.7047
2232	0.7111
2223	0.7165
2214	0.7201
2205	0.7224
2196	0.7243
2187	0.7262
2178	0.7275
2169	0.7287
2160	0.7307
2151	0.7339
2142	0.7375
2133	0.7418
2124	0.7475
2115	0.7533
2106	0.7586
2097	0.764
2088	0.769
2079	0.7725
2070	0.7774
2061	0.7835
2052	0.7839
2043	0.786
2034	0.7899
2025	0.7924
2016	0.7954
2007	0.7984
1998	0.7953
1989	0.7625
1980	0.7921
1971	0.7997
1962	0.8006
1953	0.803
1944	0.8072
1935	0.8108
1926	0.8155
1917	0.8151
1908	0.8162
1899	0.818
1890	0.8257
1881	0.8294
1872	0.8298
1863	0.8304
1854	0.8311
1845	0.8342
1836	0.8365
1827	0.8383
1818	0.8382
1809	0.8408
1800	0.8455
1791	0.8464
1782	0.8424
1773	0.8425
1764	0.8441
1755	0.845
1746	0.848
1737	0.8456
1728	0.845
1719	0.8397
1710	0.8303
1701	0.8251
1692	0.8136
1683	0.7985
1674	0.7853
1665	0.7751
1656	0.7688
1647	0.7661
1638	0.7669
1629	0.7708
1620	0.781
1611	0.7968
1602	0.8086
1593	0.8158
1584	0.8216
1575	0.8246
1566	0.8243
1557	0.8261
1548	0.828
1539	0.8294
1530	0.8291
1521	0.8256
1512	0.8186
1503	0.806
1494	0.7883
1485	0.758
1476	0.6904
1467	0.5359
1458	0.4352
1449	0.4332
1440	0.4355
1431	0.2669
1422	0.3875
1413	0.4602
1404	0.476
1395	0.466
1386	0.4618
1377	0.3596
1368	0.4268
1359	0.3495
1350	0.3262
1341	0.3418
1332	0.4116
1323	0.395
1314	0.4329
1305	0.383
1296	0.4541
1287	0.459
1278	0.4403
1269	0.349
1260	0.4691
1251	0.4572
1242	0.4623
1233	0.4926
1224	0.4992
1215	0.5385
1206	0.5048
1197	0.533
1188	0.5548
1179	0.5698
1170	0.528
1161	0.4106
1152	0.2939
1143	0.212
1134	0.1531
1125	0.2091
1116	0.1856
1107	0.1208
1098	0.1394
1089	0.1792
1080	0.1019
1071	0.0658
1062	0.1716
1053	0.187
1044	0.0953
1035	0.0534
1026	0.0561
1017	0.0749
1008	0.1404
999	0.1762
990	0.1381
981	0.2166
972	0.3499
963	0.4599
954	0.5251
945	0.5625
936	0.574
927	0.569
918	0.5553
909	0.4096
900	0.3989
891	0.4834
882	0.5483
873	0.5401
864	0.5104
855	0.5046
846	0.4121
837	0.5407
828	0.5887
819	0.5971
810	0.5895
801	0.5618
792	0.5096
783	0.4234
774	0.403
765	0.4207
756	0.4087
747	0.4049
738	0.3947
729	0.376
720	0.3108
711	0.3782
702	0.3923
693	0.3718
684	0.3541
675	0.3449
666	0.3399
657	0.3403
648	0.3508
639	0.3212
630	0.3396
621	0.3402
612	0.3634
603	0.3872
594	0.3614
585	0.3518
576	0.3664
567	0.3704
558	0.3986
549	0.4255
540	0.3976
531	0.4494
522	0.4082
513	0.4616
504	0.5009
495	0.5189
486	0.5348
477	0.5456
468	0.5517
459	0.5275
450	0.5516
441	0.5425
432	0.5374
423	0.5292
414	0.5266
405	0.5195
396	0.5115
387	0.5023
