Infrared Spectrum: XANTHINE
Formula: C5 H4 N4 O2
CAS: 69-89-6
State: SOLID (1.8 mg / 360 mg KBr DISC)
Class: COBLENTZ II
Instrument: PERKIN-ELMER 180 (GRATING)
Instrument parameters: GRATINGS: 2000, 1000, 500, 250 CM^-^1; FILTER CHANGE: 2970, 2000, 1485, 1000, 743, 500, 372, 250, 186 CM^-^1.
Sampling: TRANSMISSION
Resolution: 2
Origin: K. K. DEB-NCI FREDERICK CANCER RESEARCH CENTER
1/CM	TRANSMITTANCE
253	0.3071
262	0.3713
271	0.4512
280	0.531
289	0.5989
298	0.633
307	0.6477
316	0.6528
325	0.6523
334	0.6394
343	0.6064
352	0.5538
361	0.6521
370	0.7165
379	0.757
388	0.7512
397	0.7363
406	0.7215
415	0.7014
424	0.6849
433	0.6913
442	0.7347
451	0.7431
460	0.7328
469	0.715
478	0.6642
487	0.5819
496	0.4237
505	0.4877
514	0.7572
523	0.5911
532	0.4007
541	0.3505
550	0.6646
559	0.8074
568	0.8126
577	0.8046
586	0.7866
595	0.7598
604	0.7088
613	0.534
622	0.6834
631	0.7919
640	0.7613
649	0.7747
658	0.7704
667	0.7604
676	0.7454
685	0.7252
694	0.6921
703	0.6972
712	0.6853
721	0.5538
730	0.6589
739	0.7183
748	0.6518
757	0.5897
766	0.4651
775	0.701
784	0.6836
793	0.646
802	0.6085
811	0.5709
820	0.5334
829	0.4958
838	0.4682
847	0.4444
856	0.424
865	0.5033
874	0.5548
883	0.5779
892	0.5855
901	0.5999
910	0.6547
919	0.7151
928	0.7655
937	0.7808
946	0.775
955	0.7381
964	0.699
973	0.8112
982	0.8133
991	0.8057
1000	0.7946
1009	0.7821
1018	0.7679
1027	0.751
1036	0.7375
1045	0.7723
1054	0.778
1063	0.7719
1072	0.7637
1081	0.7523
1090	0.7379
1099	0.7135
1108	0.6869
1117	0.6227
1126	0.5827
1135	0.6254
1144	0.6164
1153	0.4901
1162	0.5602
1171	0.6897
1180	0.6944
1189	0.6093
1198	0.4969
1207	0.4813
1216	0.66
1225	0.7377
1234	0.7324
1243	0.744
1252	0.7226
1261	0.6408
1270	0.7233
1279	0.7243
1288	0.7065
1297	0.6836
1306	0.6415
1315	0.5628
1324	0.4766
1333	0.426
1342	0.5539
1351	0.7082
1360	0.694
1369	0.6628
1378	0.6329
1387	0.6063
1396	0.5793
1405	0.5332
1414	0.4204
1423	0.4015
1432	0.4871
1441	0.468
1450	0.4932
1459	0.4177
1468	0.4319
1477	0.5285
1486	0.5896
1495	0.619
1504	0.6109
1513	0.5919
1522	0.5653
1531	0.537
1540	0.496
1549	0.4494
1558	0.3691
1567	0.3237
1576	0.3436
1585	0.4504
1594	0.4559
1603	0.42
1612	0.383
1621	0.3299
1630	0.2768
1639	0.2237
1648	0.159
1657	0.106
1666	0.0988
1675	0.0988
1684	0.0994
1693	0.0858
1702	0.0638
1711	0.0772
1720	0.1372
1729	0.2479
1738	0.3376
1747	0.4479
1756	0.4979
1765	0.5575
1774	0.6011
1783	0.6285
1792	0.6539
1801	0.6592
1810	0.6756
1819	0.7047
1828	0.7352
1837	0.7661
1846	0.7826
1855	0.7928
1864	0.7956
1873	0.7997
1882	0.8229
1891	0.8389
1900	0.847
1909	0.8549
1918	0.8627
1927	0.8701
1936	0.8769
1945	0.8823
1954	0.8829
1963	0.8811
1972	0.8788
1981	0.8797
1990	0.8827
1999	0.8886
2008	0.9001
2017	0.8976
2026	0.8947
2035	0.8921
2044	0.8882
2053	0.882
2062	0.8756
2071	0.8731
2080	0.8802
2089	0.8847
2098	0.8827
2107	0.8787
2116	0.875
2125	0.8709
2134	0.867
2143	0.8629
2152	0.8589
2161	0.856
2170	0.8533
2179	0.8501
2188	0.8469
2197	0.8435
2206	0.8402
2215	0.8367
2224	0.8328
2233	0.8287
2242	0.8247
2251	0.8205
2260	0.8165
2269	0.8123
2278	0.8079
2287	0.8029
2296	0.7976
2305	0.7922
2314	0.7868
2323	0.7808
2332	0.7748
2341	0.7693
2350	0.7641
2359	0.7602
2368	0.7571
2377	0.7537
2386	0.75
2395	0.7449
2404	0.7392
2413	0.7333
2422	0.7271
2431	0.7208
2440	0.7146
2449	0.7081
2458	0.7017
2467	0.6951
2476	0.6886
2485	0.682
2494	0.6757
2503	0.6694
2512	0.6631
2521	0.6571
2530	0.6527
2539	0.6497
2548	0.6338
2557	0.6088
2566	0.5939
2575	0.581
2584	0.5757
2593	0.571
2602	0.5672
2611	0.562
2620	0.5511
2629	0.5386
2638	0.5262
2647	0.5131
2656	0.5008
2665	0.4901
2674	0.4912
2683	0.4917
2692	0.4878
2701	0.4791
2710	0.4667
2719	0.4507
2728	0.43
2737	0.411
2746	0.3942
2755	0.3801
2764	0.3662
2773	0.3466
2782	0.3271
2791	0.3059
2800	0.2996
2809	0.3003
2818	0.2972
2827	0.294
2836	0.3103
2845	0.3271
2854	0.3319
2863	0.3262
2872	0.3158
2881	0.3073
2890	0.3176
2899	0.3355
2908	0.3551
2917	0.366
2926	0.3682
2935	0.3665
2944	0.361
2953	0.3537
2962	0.3443
2971	0.3328
2980	0.322
2989	0.3134
2998	0.3052
3007	0.3018
3016	0.3052
3025	0.324
3034	0.346
3043	0.3557
3052	0.3627
3061	0.3693
3070	0.3757
3079	0.3821
3088	0.3873
3097	0.3918
3106	0.3953
3115	0.3969
3124	0.3879
3133	0.3802
3142	0.4049
3151	0.4505
3160	0.4646
3169	0.4757
3178	0.4864
3187	0.498
3196	0.5093
3205	0.5228
3214	0.5443
3223	0.5699
3232	0.5911
3241	0.6119
3250	0.6301
3259	0.6468
3268	0.6693
3277	0.686
3286	0.703
3295	0.7217
3304	0.7359
3313	0.7474
3322	0.7543
3331	0.7585
3340	0.7609
3349	0.7627
3358	0.7644
3367	0.7663
3376	0.7683
3385	0.7698
3394	0.7712
3403	0.7725
3412	0.7744
3421	0.7764
3430	0.7806
3439	0.7855
3448	0.7894
3457	0.7925
3466	0.7956
3475	0.7987
3484	0.8019
3493	0.8056
3502	0.8094
3511	0.8143
3520	0.8194
3529	0.8243
3538	0.8292
3547	0.834
3556	0.8389
3565	0.8439
3574	0.8505
3583	0.8571
3592	0.8638
3601	0.8704
3610	0.8771
3619	0.8837
3628	0.8902
3637	0.8961
3646	0.8995
3655	0.9018
3664	0.9027
3673	0.9032
3682	0.9035
3691	0.9035
3700	0.9032
3709	0.9028
3718	0.9022
3727	0.9015
3736	0.9009
3745	0.8998
3754	0.8987
3763	0.898
3772	0.8973
3781	0.8965
3790	0.8959
