Infrared Spectrum: URIC ACID
Formula: C5 H4 N4 O3
CAS: 69-93-2
State: SOLID (KBr DISC)
Class: COBLENTZ II
Instrument: PERKIN-ELMER 180 (GRATING)
Instrument parameters: GRATINGS: 2000, 1000, 500, 250 CM^-^1; FILTER CHANGE: 2970, 2000, 1485, 1000, 743, 500, 372, 250, 186 CM^-^1.
Sampling: TRANSMISSION
Resolution: 2
Origin: K. K. DEB-NCI FREDERICK CANCER RESEARCH CENTER
1/CM	TRANSMITTANCE
407	0.846
416	0.8641
425	0.8661
434	0.8617
443	0.8485
452	0.8248
461	0.7839
470	0.7127
479	0.554
488	0.7885
497	0.8438
506	0.7904
515	0.6775
524	0.5996
533	0.7928
542	0.8531
551	0.831
560	0.7735
569	0.7012
578	0.6345
587	0.7794
596	0.7892
605	0.7541
614	0.6799
623	0.5681
632	0.7874
641	0.8084
650	0.7606
659	0.7346
668	0.7195
677	0.6959
686	0.6594
695	0.6085
704	0.5094
713	0.5597
722	0.647
731	0.5923
740	0.4839
749	0.4436
758	0.6237
767	0.5656
776	0.4756
785	0.4293
794	0.482
803	0.552
812	0.6042
821	0.6675
830	0.7139
839	0.7515
848	0.7842
857	0.7967
866	0.7786
875	0.7239
884	0.7125
893	0.78
902	0.8358
911	0.8619
920	0.8716
929	0.8716
938	0.8683
947	0.8622
956	0.8512
965	0.8272
974	0.7893
983	0.6942
992	0.4996
1001	0.6582
1010	0.8406
1019	0.8253
1028	0.7399
1037	0.8305
1046	0.8877
1055	0.8758
1064	0.8617
1073	0.844
1082	0.8241
1091	0.8022
1100	0.7671
1109	0.6785
1118	0.5659
1127	0.5116
1136	0.7231
1145	0.8484
1154	0.8453
1163	0.8343
1172	0.8201
1181	0.8077
1190	0.7952
1199	0.7835
1208	0.7703
1217	0.7489
1226	0.7261
1235	0.7386
1244	0.7193
1253	0.703
1262	0.6804
1271	0.6541
1280	0.6172
1289	0.5882
1298	0.502
1307	0.469
1316	0.5565
1325	0.6616
1334	0.5914
1343	0.5032
1352	0.4699
1361	0.6492
1370	0.6841
1379	0.6349
1388	0.5787
1397	0.5299
1406	0.5383
1415	0.5735
1424	0.6095
1433	0.5692
1442	0.5932
1451	0.641
1460	0.6246
1469	0.5951
1478	0.5698
1487	0.5419
1496	0.5533
1505	0.5447
1514	0.5305
1523	0.5108
1532	0.4898
1541	0.4671
1550	0.4428
1559	0.4156
1568	0.3707
1577	0.3277
1586	0.2964
1595	0.3471
1604	0.4176
1613	0.3623
1622	0.3071
1631	0.2518
1640	0.1965
1649	0.1881
1658	0.1492
1667	0.0939
1676	0.1067
1685	0.1364
1694	0.1745
1703	0.2129
1712	0.2652
1721	0.3219
1730	0.3527
1739	0.4018
1748	0.4543
1757	0.4919
1766	0.538
1775	0.5944
1784	0.6216
1793	0.6558
1802	0.6884
1811	0.7206
1820	0.7483
1829	0.776
1838	0.7985
1847	0.8172
1856	0.8324
1865	0.8442
1874	0.8566
1883	0.8685
1892	0.8799
1901	0.8901
1910	0.898
1919	0.9052
1928	0.9113
1937	0.9169
1946	0.9241
1955	0.9286
1964	0.9295
1973	0.9287
1982	0.9277
1991	0.927
2000	0.9314
2009	0.9238
2018	0.8998
2027	0.9002
2036	0.9185
2045	0.9312
2054	0.9312
2063	0.929
2072	0.9268
2081	0.9241
2090	0.921
2099	0.918
2108	0.915
2117	0.9116
2126	0.9086
2135	0.9059
2144	0.9035
2153	0.9005
2162	0.8975
2171	0.8944
2180	0.8913
2189	0.8879
2198	0.884
2207	0.88
2216	0.876
2225	0.8719
2234	0.8677
2243	0.8635
2252	0.8593
2261	0.8549
2270	0.8503
2279	0.8458
2288	0.8415
2297	0.8371
2306	0.8327
2315	0.8283
2324	0.8238
2333	0.8189
2342	0.8141
2351	0.8092
2360	0.8044
2369	0.7999
2378	0.7954
2387	0.7909
2396	0.7856
2405	0.7801
2414	0.7746
2423	0.7691
2432	0.7636
2441	0.7583
2450	0.7533
2459	0.7482
2468	0.7432
2477	0.738
2486	0.7327
2495	0.7275
2504	0.722
2513	0.7164
2522	0.711
2531	0.7052
2540	0.6971
2549	0.6891
2558	0.681
2567	0.6713
2576	0.6616
2585	0.6512
2594	0.6407
2603	0.6351
2612	0.6336
2621	0.6326
2630	0.6237
2639	0.6129
2648	0.601
2657	0.5865
2666	0.5719
2675	0.5581
2684	0.5534
2693	0.553
2702	0.5537
2711	0.5547
2720	0.5528
2729	0.5438
2738	0.5313
2747	0.516
2756	0.4945
2765	0.4807
2774	0.4701
2783	0.4611
2792	0.4536
2801	0.4471
2810	0.4418
2819	0.4393
2828	0.4456
2837	0.4644
2846	0.4861
2855	0.4952
2864	0.4952
2873	0.4898
2882	0.4824
2891	0.4732
2900	0.4644
2909	0.4566
2918	0.4536
2927	0.455
2936	0.4515
2945	0.444
2954	0.4342
2963	0.4223
2972	0.4079
2981	0.3943
2990	0.385
2999	0.3757
3008	0.3734
3017	0.3761
3026	0.3861
3035	0.3994
3044	0.4154
3053	0.4432
3062	0.4561
3071	0.4612
3080	0.4602
3089	0.4596
3098	0.4607
3107	0.4628
3116	0.465
3125	0.4668
3134	0.4719
3143	0.4794
3152	0.4883
3161	0.5066
3170	0.5191
3179	0.532
3188	0.546
3197	0.5599
3206	0.5739
3215	0.588
3224	0.6048
3233	0.6196
3242	0.6355
3251	0.6537
3260	0.6732
3269	0.6917
3278	0.7076
3287	0.7216
3296	0.7338
3305	0.7428
3314	0.752
3323	0.7612
3332	0.7686
3341	0.7746
3350	0.7788
3359	0.7795
3368	0.7806
3377	0.7831
3386	0.787
3395	0.7907
3404	0.794
3413	0.7971
3422	0.8003
3431	0.8034
3440	0.8066
3449	0.8097
3458	0.8129
3467	0.8167
3476	0.8207
3485	0.8246
3494	0.8287
3503	0.8328
3512	0.837
3521	0.8411
3530	0.845
3539	0.8487
3548	0.8523
3557	0.8558
3566	0.8593
3575	0.8627
3584	0.8662
3593	0.8693
3602	0.8723
3611	0.875
3620	0.8767
3629	0.8783
3638	0.8782
3647	0.8776
3656	0.8766
3665	0.8758
3674	0.8751
3683	0.8743
3692	0.8732
3701	0.872
3710	0.8709
3719	0.8696
3728	0.8684
3737	0.867
3746	0.8654
3755	0.8635
3764	0.8616
3773	0.8592
3782	0.857
3791	0.8548
