Infrared Spectrum: 2,2,-Dimethyl-3-hexene
Formula: C 8 H 16
CAS: 690-93-7
State: gas
Instrument: HP-GC/MS/IRD
Origin: NIST Mass Spectrometry Data Center
1/CM	ABSORBANCE
550	0.0002254
562	0.0002303
574	0.0001813
586	9.8e-05
598	0.0001421
610	0.0001666
622	4.9e-05
634	6.86e-05
646	0
658	0.0001568
670	0.0001421
682	0.0001225
694	0.0001127
706	0.0001372
718	8.33e-05
730	0.0001078
742	0.0001617
754	0.0001862
766	0.0001813
778	0.0002401
790	0.0002205
802	0.0002156
814	0.0001911
826	0.0002009
838	0.0002401
850	0.0002303
862	0.0003234
874	0.0003969
886	0.0007056
898	0.0013279
910	0.0020433
922	0.0021168
934	0.0019159
946	0.0023912
958	0.0039788
970	0.0052528
982	0.00392
994	0.0019649
1006	0.001225
1018	0.0013475
1030	0.0013181
1042	0.0008036
1054	0.0005978
1066	0.0005537
1078	0.0005586
1090	0.0004802
1102	0.0004165
1114	0.0003773
1126	0.0003136
1138	0.0002842
1150	0.000343
1162	0.0004165
1174	0.0006811
1186	0.0011613
1198	0.0015386
1210	0.0012152
1222	0.0008379
1234	0.0010976
1246	0.001519
1258	0.0017836
1270	0.0015925
1282	0.0010143
1294	0.0008771
1306	0.0011221
1318	0.0014553
1330	0.0017052
1342	0.0019012
1354	0.0031703
1366	0.0047726
1378	0.0037485
1390	0.0022393
1402	0.0015582
1414	0.0010976
1426	0.001274
1438	0.0018571
1450	0.0030968
1462	0.0044394
1474	0.0048755
1486	0.003381
1498	0.0013965
1510	0.0006419
1522	0.000392
1534	0.0002548
1546	0.0001862
1558	0.0001666
1570	0.0001372
1582	0.0001323
1594	0.0001372
1606	0.0001176
1618	0.0001323
1630	0.0001127
1642	0.0001078
1654	0.0001421
1666	0.0001323
1678	9.31e-05
1690	9.8e-05
1702	0.0001176
1714	0.0001176
1726	0.000147
1738	0.0001764
1750	0.000245
1762	0.0002107
1774	0.0002646
1786	0.0003577
1798	0.0003234
1810	0.000245
1822	0.0001715
1834	0.0001127
1846	7.84e-05
1858	0.0001029
1870	5.39e-05
1882	5.88e-05
1894	4.9e-05
1906	5.39e-05
1918	2.94e-05
1930	5.39e-05
1942	6.86e-05
1954	6.37e-05
1966	2.45e-05
1978	2.45e-05
1990	2.94e-05
2002	3.92e-05
2014	4.41e-05
2026	3.92e-05
2038	4.9e-05
2050	3.43e-05
2062	2.45e-05
2074	1.47e-05
2086	1.96e-05
2098	3.43e-05
2110	2.45e-05
2122	7.35e-05
2134	4.41e-05
2146	4.41e-05
2158	3.43e-05
2170	1.96e-05
2182	2.94e-05
2194	1.96e-05
2206	3.92e-05
2218	2.94e-05
2230	2.45e-05
2242	6.86e-05
2254	2.45e-05
2266	5.88e-05
2278	6.37e-05
2290	6.37e-05
2302	4.41e-05
2314	2.45e-05
2326	2.45e-05
2338	4.9e-05
2350	4.9e-05
2362	5.88e-05
2374	4.9e-05
2386	6.86e-05
2398	7.35e-05
2410	6.37e-05
2422	4.41e-05
2434	1.96e-05
2446	1.96e-05
2458	1.96e-05
2470	2.45e-05
2482	2.45e-05
2494	4.9e-05
2506	4.41e-05
2518	4.41e-05
2530	9.8e-05
2542	8.82e-05
2554	9.31e-05
2566	0.0001372
2578	0.0001421
2590	0.0001225
2602	0.0001274
2614	0.0001666
2626	0.0001225
2638	0.0001519
2650	0.0001911
2662	0.0002009
2674	0.0002254
2686	0.0002744
2698	0.0003528
2710	0.0004312
2722	0.0005096
2734	0.0005684
2746	0.0005782
2758	0.0005586
2770	0.0005978
2782	0.0007007
2794	0.0008673
2806	0.0011417
2818	0.0015092
2830	0.0020972
2842	0.0032928
2854	0.006125
2866	0.0105105
2878	0.0135926
2890	0.0138523
2902	0.0146314
2914	0.015876
2926	0.0168903
2938	0.0214375
2950	0.0324527
2962	0.0478779
2974	0.0400379
2986	0.016366
2998	0.0072814
3010	0.0052479
3022	0.0045325
3034	0.0035231
3046	0.0022295
3058	0.0014602
3070	0.0011711
3082	0.001029
3094	0.0009016
3106	0.0008575
3118	0.0007252
3130	0.0006909
3142	0.0005978
3154	0.0005488
3166	0.0005145
3178	0.0005733
3190	0.0005488
3202	0.0004998
3214	0.0004459
3226	0.0004557
3238	0.0004263
3250	0.0003871
3262	0.0002744
3274	0.0001764
3286	0.0001813
3298	0.000196
3310	0.0002695
3322	0.0001568
3334	0.0001323
3346	0.0001323
3358	0.0001078
3370	8.33e-05
3382	8.33e-05
3394	0.0001029
3406	0.0001078
3418	0.0001225
3430	8.82e-05
3442	8.33e-05
3454	7.84e-05
3466	8.82e-05
3478	3.43e-05
3490	0.0001127
3502	5.39e-05
3514	0
3526	4.41e-05
3538	5.39e-05
3550	1.96e-05
3562	1.96e-05
3574	1.96e-05
3586	3.92e-05
3598	3.43e-05
3610	1.47e-05
3622	7.84e-05
3634	5.39e-05
3646	4.41e-05
3658	9.31e-05
3670	2.94e-05
3682	4.41e-05
3694	2.45e-05
3706	8.82e-05
3718	5.39e-05
3730	6.86e-05
3742	8.82e-05
3754	7.35e-05
3766	6.37e-05
3778	0.0001274
3790	0.0001176
3802	0.0001372
3814	9.31e-05
3826	7.35e-05
3838	6.86e-05
