Infrared Spectrum: 2-Ethoxycinnamic acid
Formula: C 11 H 12 O 3
CAS: 69038-81-9
State: gas
Origin: EPA-IR VAPOR PHASE LIBRARY
1/CM	ABSORBANCE
549.9	0.016783
559.547	0.021113
569.193	0.026003
578.84	0.025413
588.486	0.018543
598.133	0.011863
607.779	0.008103
617.426	0.005693
627.072	0.004253
636.719	0.003463
646.365	0.003133
656.012	0.002853
665.658	0.002653
675.305	0.002633
684.951	0.002583
694.598	0.002323
704.245	0.002233
713.891	0.002803
723.538	0.004393
733.184	0.009603
742.831	0.023613
752.477	0.029913
762.124	0.017673
771.77	0.012493
781.417	0.012263
791.063	0.011953
800.71	0.013023
810.356	0.014233
820.003	0.012823
829.649	0.008683
839.296	0.006233
848.943	0.004883
858.589	0.004123
868.236	0.003883
877.882	0.004183
887.529	0.005523
897.175	0.007843
906.822	0.008953
916.468	0.008673
926.115	0.008263
935.761	0.007423
945.408	0.005283
955.054	0.003703
964.701	0.003333
974.347	0.003433
983.994	0.003443
993.64	0.003783
1003.29	0.004993
1012.93	0.007813
1022.58	0.013593
1032.23	0.022463
1041.87	0.029773
1051.52	0.025923
1061.17	0.016233
1070.81	0.014483
1080.46	0.019653
1090.11	0.032703
1099.75	0.062583
1109.4	0.129073
1119.05	0.153573
1128.69	0.085283
1138.34	0.053933
1147.99	0.039523
1157.63	0.029243
1167.28	0.021803
1176.92	0.018813
1186.57	0.014903
1196.22	0.014583
1205.86	0.021353
1215.51	0.032663
1225.16	0.043883
1234.8	0.058063
1244.45	0.067943
1254.1	0.053093
1263.74	0.030993
1273.39	0.024683
1283.04	0.026003
1292.68	0.024973
1302.33	0.020913
1311.98	0.014913
1321.62	0.010103
1331.27	0.008073
1340.92	0.007093
1350.56	0.006103
1360.21	0.006093
1369.86	0.007183
1379.5	0.010813
1389.15	0.017593
1398.79	0.019763
1408.44	0.016723
1418.09	0.015253
1427.73	0.013443
1437.38	0.014953
1447.03	0.026893
1456.67	0.026063
1466.32	0.015353
1475.97	0.024533
1485.61	0.032603
1495.26	0.023493
1504.91	0.010143
1514.55	0.004623
1524.2	0.003233
1533.85	0.002893
1543.49	0.002943
1553.14	0.003523
1562.79	0.005233
1572.43	0.008703
1582.08	0.012033
1591.73	0.017183
1601.37	0.019053
1611.02	0.013933
1620.67	0.015523
1630.31	0.021833
1639.96	0.019463
1649.6	0.009593
1659.25	0.005383
1668.9	0.004373
1678.54	0.004513
1688.19	0.005143
1697.84	0.006283
1707.48	0.008703
1717.13	0.013453
1726.78	0.021503
1736.42	0.034083
1746.07	0.061543
1755.72	0.093843
1765.36	0.075303
1775.01	0.040793
1784.66	0.026563
1794.3	0.017243
1803.95	0.009643
1813.6	0.005933
1823.24	0.004093
1832.89	0.003153
1842.54	0.002663
1852.18	0.002253
1861.83	0.002003
1871.47	0.001963
1881.12	0.002113
1890.77	0.002293
1900.41	0.002413
1910.06	0.002143
1919.71	0.002033
1929.35	0.002153
1939	0.001883
1948.65	0.0014237
1958.29	0.0012216
1967.94	0.00111
1977.59	0.0009412
1987.23	0.00078565
1996.88	0.0007814
2006.53	0.00081271
2016.17	0.000914
2025.82	0.0010379
2035.47	0.0011345
2045.11	0.0011327
2054.76	0.0010495
2064.41	0.0009587
2074.05	0.0007543
2083.7	0.000604
2093.35	0.000512
2102.99	0.000412
2112.64	0.000396
2122.28	0.000322
2131.93	0.000341
2141.58	0.000358
2151.22	0.000329
2160.87	0.000339
2170.52	0.000398
2180.16	0.000416
2189.81	0.000462
2199.46	0.000598
2209.1	0.000677
2218.75	0.0007163
2228.4	0.0006984
2238.04	0.000574
2247.69	0.000507
2257.34	0.000485
2266.98	0.000543
2276.63	0.000529
2286.28	0.000509
2295.92	0.000487
2305.57	0.000527
2315.22	0.000506
2324.86	0.000621
2334.51	0.000521
2344.16	0.000487
2353.8	0.000483
2363.45	0.000445
2373.09	0.000567
2382.74	0.000534
2392.39	0.000635
2402.03	0.00064
2411.68	0.000658
2421.33	0.000607
2430.97	0.00061
2440.62	0.000576
2450.27	0.000643
2459.91	0.00066
2469.56	0.000614
2479.21	0.000602
2488.85	0.0006
2498.5	0.000532
2508.15	0.000567
2517.79	0.00056
2527.44	0.000673
2537.09	0.0007129
2546.73	0.00063
2556.38	0.000487
2566.03	0.00037
2575.67	0.000284
2585.32	0.000218
2594.96	0.000169
2604.61	0.000135
2614.26	0.000112
2623.9	0.000107
2633.55	3.6e-05
2643.2	6.4e-05
2652.84	2.8e-05
2662.49	2.3e-05
2672.14	9.8e-05
2681.78	0.000107
2691.43	0.000166
2701.08	0.000205
2710.72	0.00017
2720.37	0.00021
2730.02	0.000404
2739.66	0.000544
2749.31	0.000557
2758.96	0.000578
2768.6	0.000547
2778.25	0.000503
2787.9	0.00061
2797.54	0.000509
2807.19	0.000614
2816.84	0.00081912
2826.48	0.0009448
2836.13	0.0012703
2845.77	0.0017544
2855.42	0.002423
2865.07	0.003533
2874.71	0.005523
2884.36	0.008273
2894.01	0.009453
2903.65	0.009013
2913.3	0.009043
2922.95	0.009733
2932.59	0.011093
2942.24	0.012373
2951.89	0.010273
2961.53	0.008893
2971.18	0.010993
2980.83	0.017203
2990.47	0.019583
3000.12	0.011593
3009.77	0.006623
3019.41	0.005513
3029.06	0.007063
3038.71	0.009013
3048.35	0.009063
3058	0.009213
3067.64	0.010713
3077.29	0.011493
3086.94	0.007953
3096.58	0.004183
3106.23	0.002873
3115.88	0.0016914
3125.52	0.00088268
3135.17	0.000592
3144.82	0.00078895
3154.46	0.000561
3164.11	0.000452
3173.76	0.000403
3183.4	0.00026
3193.05	0.000219
3202.7	0.000161
3212.34	0.000365
3221.99	0.000219
3231.64	0.000212
3241.28	0.000204
3250.93	0.000262
3260.58	0.000251
3270.22	0.000219
3279.87	0.000252
3289.52	0.000457
3299.16	0.000562
3308.81	0.00021
3318.45	0.000324
3328.1	0.000391
3337.75	0.000613
3347.39	0.000507
3357.04	0.000665
3366.69	0.000629
3376.33	0.0007279
3385.98	0.0007655
3395.63	0.0007061
3405.27	0.000799327
3414.92	0.000675
3424.57	0.0009223
3434.21	0.00083979
3443.86	0.000904
3453.51	0.00081484
3463.15	0.00088267
3472.8	0.0010792
3482.45	0.0011871
3492.09	0.0016343
3501.74	0.0016595
3511.39	0.001843
3521.03	0.002263
3530.68	0.002583
3540.33	0.003333
3549.97	0.004333
3559.62	0.010963
3569.26	0.027003
3578.91	0.032613
3588.56	0.015393
3598.2	0.004003
3607.85	0.002223
3617.5	0.0015851
3627.14	0.0012872
3636.79	0.0010926
3646.44	0.0007759
3656.08	0.0007611
3665.73	0.0007568
3675.38	0.00063
3685.02	0.000429
3694.67	0.000593
3704.32	0.0007403
3713.96	0.000661
3723.61	0.000627
3733.26	0.000666
3742.9	0.000649
3752.55	0.00068
3762.2	0.000621
3771.84	0.000654
3781.49	0.000575
3791.13	0.000605
3800.78	0.00067
3810.43	0.000593
3820.07	0.000683
3829.72	0.000653
3839.37	0.000601
3849.01	0.000671
3858.66	0.000546
3868.31	0.0007131
3877.95	0.0007002
3887.6	0.000638
3897.25	0.000561
3906.89	0.000647
3916.54	0.000585
3926.19	0.000611
3935.83	0.000527
3945.48	0.000569
3955.13	0.000492
3964.77	0.000616
3974.42	0.00063
3984.07	0.000444
3993.71	0.000691
