Infrared Spectrum: ISOBUTENYL AMINE, N,N-DIMETHYL-
Formula: C6 H13 N
CAS: 6906-32-7
State: LIQUID
Boiling point: 88 C
Class: COBLENTZ
Instrument: Not specified, most likely a prism, grating, or hybrid spectrometer.
Sampling: TRANSMISSION
Path length: 0.0030 CM
Resolution: 4
Origin: TENNESSEE EASTMAN COMPANY, RESEARCH LABORATORIES
MICROMETERS	TRANSMITTANCE
2.048	0.957
2.08904	0.955
2.13007	0.957
2.17111	0.955
2.21214	0.953
2.25318	0.875
2.29421	0.795
2.33525	0.788
2.37628	0.8
2.41732	0.819
2.45835	0.858
2.49939	0.86
2.54042	0.861
2.58146	0.872
2.62249	0.88
2.66353	0.895
2.70456	0.912
2.7456	0.933
2.78663	0.941
2.82767	0.945
2.8687	0.947
2.90974	0.945
2.95077	0.924
2.99181	0.911
3.03284	0.901
3.07388	0.897
3.11491	0.895
3.15595	0.863
3.19699	0.8
3.23802	0.737
3.27906	0.617
3.32009	0.401
3.36113	0.03
3.40216	0.027
3.4432	0.027
3.48423	0.027
3.52527	0.027
3.5663	0.027
3.60734	0.03
3.64837	0.087
3.68941	0.412
3.73044	0.616
3.77148	0.762
3.81251	0.837
3.85355	0.854
3.89458	0.866
3.93562	0.837
3.97665	0.849
4.01769	0.863
4.05872	0.851
4.09976	0.878
4.14079	0.901
4.18183	0.907
4.22286	0.921
4.2639	0.921
4.30493	0.918
4.34597	0.921
4.38701	0.95
4.42804	0.957
4.46908	0.96
4.51011	0.955
4.55115	0.952
4.59218	0.945
4.63322	0.892
4.67425	0.948
4.71529	0.941
4.75632	0.941
4.79736	0.941
4.83839	0.943
4.87943	0.919
4.92046	0.924
4.9615	0.928
5.00253	0.964
5.04357	0.988
5.0846	0.945
5.12564	0.947
5.16667	0.974
5.20771	0.97
5.24874	0.926
5.28978	0.926
5.33081	0.955
5.37185	0.96
5.41288	0.94
5.45392	0.926
5.49496	0.926
5.53599	0.931
5.57703	0.945
5.61806	0.936
5.6591	0.909
5.70013	0.843
5.74117	0.593
5.7822	0.598
5.82324	0.627
5.86427	0.566
5.90531	0.401
5.94634	0.116
5.98738	0.063
6.02841	0.377
6.06945	0.491
6.11048	0.619
6.15152	0.704
6.19255	0.752
6.23359	0.769
6.27462	0.773
6.31566	0.773
6.35669	0.796
6.39773	0.81
6.43876	0.81
6.4798	0.802
6.52083	0.766
6.56187	0.721
6.6029	0.667
6.64394	0.578
6.68498	0.447
6.72601	0.273
6.76705	0.126
6.80808	0.042
6.84912	0.034
6.89015	0.034
6.93119	0.034
6.97222	0.092
7.01326	0.209
7.05429	0.343
7.09533	0.389
7.13636	0.404
7.1774	0.366
7.21843	0.237
7.25947	0.081
7.3005	0.117
7.34154	0.348
7.38257	0.465
7.42361	0.416
7.46464	0.18
7.50568	0.23
7.54671	0.331
7.58775	0.334
7.62878	0.3
7.66982	0.208
7.71085	0.112
7.75189	0.051
7.79293	0.035
7.83396	0.083
7.875	0.232
7.91603	0.351
7.95707	0.401
7.9981	0.43
8.03914	0.385
8.08017	0.303
8.12121	0.271
8.16224	0.332
8.20328	0.39
8.24431	0.46
8.28535	0.506
8.32638	0.491
8.36742	0.459
8.40845	0.366
8.44949	0.218
8.49052	0.155
8.53156	0.189
8.57259	0.281
8.61363	0.286
8.65466	0.16
8.6957	0.063
8.73673	0.093
8.77777	0.266
8.8188	0.365
8.85984	0.389
8.90087	0.375
8.94191	0.31
8.98295	0.228
9.02398	0.133
9.06502	0.068
9.10605	0.039
9.14709	0.032
9.18812	0.03
9.22916	0.046
9.27019	0.126
9.31123	0.199
9.35226	0.232
9.3933	0.232
9.43433	0.204
9.47537	0.172
9.5164	0.117
9.55744	0.066
9.59847	0.052
9.63951	0.063
9.68054	0.102
9.72158	0.085
9.76261	0.063
9.80365	0.117
9.84468	0.237
9.88572	0.346
9.92675	0.435
9.96779	0.5
10.0088	0.523
10.0499	0.53
10.0909	0.525
10.1319	0.47
10.173	0.443
10.214	0.481
10.255	0.544
10.2961	0.597
10.3371	0.61
10.3781	0.614
10.4192	0.569
10.4602	0.503
10.5012	0.51
10.5423	0.597
10.5833	0.653
10.6244	0.703
10.6654	0.721
10.7064	0.725
10.7475	0.725
10.7885	0.723
10.8295	0.725
10.8706	0.725
10.9116	0.718
10.9526	0.709
10.9937	0.701
11.0347	0.696
11.0757	0.686
11.1168	0.668
11.1578	0.636
11.1988	0.593
11.2399	0.532
11.2809	0.436
11.322	0.283
11.363	0.148
11.404	0.068
11.4451	0.059
11.4861	0.134
11.5271	0.269
11.5682	0.38
11.6092	0.426
11.6502	0.441
11.6913	0.411
11.7323	0.336
11.7733	0.232
11.8144	0.121
11.8554	0.054
11.8964	0.037
11.9375	0.035
11.9785	0.061
12.0195	0.143
12.0606	0.261
12.1016	0.354
12.1427	0.426
12.1837	0.518
12.2247	0.592
12.2658	0.641
12.3068	0.677
12.3478	0.713
12.3889	0.728
12.4299	0.747
12.4709	0.759
12.512	0.767
12.553	0.773
12.594	0.79
12.6351	0.807
12.6761	0.827
12.7171	0.843
12.7582	0.853
12.7992	0.865
12.8403	0.872
12.8813	0.88
12.9223	0.887
12.9634	0.894
13.0044	0.899
13.0454	0.901
13.0865	0.906
13.1275	0.909
13.1685	0.914
13.2096	0.916
13.2506	0.916
13.2916	0.918
13.3327	0.918
13.3737	0.918
13.4147	0.918
13.4558	0.918
13.4968	0.918
13.5379	0.918
13.5789	0.918
13.6199	0.918
13.661	0.918
13.702	0.918
13.743	0.918
13.7841	0.918
13.8251	0.918
13.8661	0.918
13.9072	0.918
13.9482	0.918
13.9892	0.918
14.0303	0.916
14.0713	0.916
14.1123	0.916
14.1534	0.916
14.1944	0.914
14.2354	0.909
14.2765	0.907
14.3175	0.906
14.3586	0.897
14.3996	0.89
14.4406	0.89
14.4817	0.885
14.5227	0.873
14.5637	0.87
14.6048	0.865
14.6458	0.86
14.6868	0.851
14.7279	0.848
14.7689	0.839
14.8099	0.836
14.851	0.831
14.892	0.817
14.933	0.805
14.9741	0.788
15.0151	0.786
15.0562	0.788
15.0972	0.788
15.1382	0.781
15.1793	0.773
15.2203	0.771
15.2613	0.766
15.3024	0.764
15.3434	0.762
15.3844	0.761
15.4255	0.757
15.4665	0.755
15.5075	0.752
15.5486	0.747
15.5896	0.744
15.6306	0.738
15.6717	0.726
15.7127	0.72
15.7537	0.715
15.7948	0.713
15.8358	0.711
15.8769	0.711
15.9179	0.704
15.9589	0.703
16	0.699
