Infrared Spectrum: cis-4-Methyl-2-pentene
Formula: C 6 H 12
CAS: 691-38-3
State: gas
Instrument: HP-GC/MS/IRD
Origin: NIST Mass Spectrometry Data Center
1/CM	ABSORBANCE
550	0.0001078
562	0.0002058
574	0.0003626
586	0.0010731
598	0.0010976
610	0.0005929
622	0.000245
634	3.43e-05
646	0.000196
658	0.0004459
670	0.0007252
682	0.0018522
694	0.0050029
706	0.009996
718	0.0120638
730	0.009163
742	0.0040866
754	0.0012642
766	0.0006664
778	0.0003283
790	0.0003528
802	0.0005586
814	0.000735
826	0.0008477
838	0.000441
850	0.0002842
862	0.0002499
874	0.0002548
886	0.0003332
898	0.0004263
910	0.0005341
922	0.0008036
934	0.0018473
946	0.0036015
958	0.0040376
970	0.0027097
982	0.0010976
994	0.0006958
1006	0.0006174
1018	0.0005831
1030	0.0006321
1042	0.0006223
1054	0.0005145
1066	0.0006713
1078	0.0009947
1090	0.0014504
1102	0.0017591
1114	0.0017101
1126	0.0012985
1138	0.0010584
1150	0.0013671
1162	0.0015582
1174	0.0010927
1186	0.0005096
1198	0.0003871
1210	0.000441
1222	0.0004214
1234	0.0004067
1246	0.000539
1258	0.0006958
1270	0.0008624
1282	0.0014161
1294	0.0027489
1306	0.003283
1318	0.001666
1330	0.0013622
1342	0.0017444
1354	0.0027587
1366	0.0038171
1378	0.0046256
1390	0.004312
1402	0.004214
1414	0.0041111
1426	0.0036456
1438	0.0039151
1450	0.0054096
1462	0.0062083
1474	0.0053606
1486	0.0034986
1498	0.0020482
1510	0.001421
1522	0.0012005
1534	0.0010584
1546	0.0009163
1558	0.0007987
1570	0.0007056
1582	0.000588
1594	0.0005537
1606	0.0005292
1618	0.0005782
1630	0.0007791
1642	0.0010927
1654	0.0015827
1666	0.0018571
1678	0.0017052
1690	0.0012054
1702	0.0007546
1714	0.0004998
1726	0.0003871
1738	0.0003822
1750	0.0003479
1762	0.0002254
1774	0.0001764
1786	0.0001323
1798	0.0001078
1810	0.0001029
1822	9.8e-05
1834	0.0001029
1846	0.0001029
1858	0.0001029
1870	0.0001078
1882	0.0001323
1894	0.0001029
1906	0.0001127
1918	0.0001225
1930	9.31e-05
1942	9.8e-05
1954	9.31e-05
1966	0.0001519
1978	0.0001911
1990	0.0002254
2002	0.0001911
2014	0.0001519
2026	8.82e-05
2038	8.82e-05
2050	0.0001225
2062	0.0001078
2074	7.35e-05
2086	9.8e-05
2098	6.37e-05
2110	4.9e-05
2122	4.9e-05
2134	4.9e-05
2146	1.96e-05
2158	0
2170	9.8e-06
2182	7.84e-05
2194	5.39e-05
2206	2.94e-05
2218	3.92e-05
2230	6.37e-05
2242	4.41e-05
2254	6.37e-05
2266	0.0001225
2278	0.0001323
2290	0.0001225
2302	9.8e-05
2314	0.0001078
2326	7.35e-05
2338	8.33e-05
2350	0.0001127
2362	0.000147
2374	0.000147
2386	0.0001764
2398	0.0001617
2410	0.0001862
2422	0.0001421
2434	0.0001666
2446	0.0001764
2458	0.0001813
2470	0.0001666
2482	0.0001715
2494	0.0002058
2506	0.0002107
2518	0.0001568
2530	0.0002107
2542	0.0002303
2554	0.000245
2566	0.0002989
2578	0.0003381
2590	0.0003528
2602	0.0003724
2614	0.0004018
2626	0.0003479
2638	0.0002842
2650	0.0002891
2662	0.0003087
2674	0.0003087
2686	0.0004067
2698	0.0004459
2710	0.0006713
2722	0.0009212
2734	0.0010682
2746	0.0010633
2758	0.0010339
2770	0.001127
2782	0.0011858
2794	0.0013965
2806	0.0017199
2818	0.0021217
2830	0.0027685
2842	0.0039935
2854	0.0068453
2866	0.0129948
2878	0.0171549
2890	0.0181055
2902	0.0181104
2914	0.0211925
2926	0.0262199
2938	0.0299978
2950	0.0357945
2962	0.049
2974	0.0436737
2986	0.0282485
2998	0.0172088
3010	0.0172333
3022	0.016611
3034	0.011809
3046	0.0069727
3058	0.0044688
3070	0.0034986
3082	0.0028224
3094	0.0021511
3106	0.0015876
3118	0.0012838
3130	0.0011319
3142	0.0011172
3154	0.0010486
3166	0.0009996
3178	0.0010045
3190	0.0008036
3202	0.0007742
3214	0.0006272
3226	0.0004459
3238	0.0003528
3250	0.0002352
3262	0.0002793
3274	0.0002842
3286	0.0002989
3298	0.0003675
3310	0.0003675
3322	0.0003136
3334	0.0002744
3346	0.0002156
3358	0.0002156
3370	0.000196
3382	0.000196
3394	0.0002695
3406	0.0001862
3418	0.0001176
3430	0.000147
3442	0.000147
3454	0.0001715
3466	0.0001372
3478	0.0001421
3490	6.37e-05
3502	0.0001274
3514	0.0001617
3526	0.0001715
3538	0.0001617
3550	0.0001519
3562	0.0001274
3574	0.0001568
3586	0.000147
3598	8.33e-05
3610	6.86e-05
3622	9.8e-05
3634	5.88e-05
3646	2.45e-05
3658	7.35e-05
3670	0.0001078
3682	0.0001323
3694	0.0002009
3706	9.8e-05
3718	0.0001862
3730	0.0001274
3742	0.0001421
3754	9.8e-05
3766	0.0001421
3778	0.0001519
3790	0.0002107
3802	0.0001176
3814	0.0001862
3826	0.000245
3838	0.0002744
