Infrared Spectrum: ISOPROPYL-Beta-CHLORO PROPIONATE
Formula: C6 H11 Cl O2
CAS: 691-93-0
State: SOLUTION (10% CCl4 FOR 2.5-7.5, 10% CS2 FOR 7.5-16 MICRONS)
Class: COBLENTZ
Instrument: Not specified, most likely a prism, grating, or hybrid spectrometer.
Sampling: TRANSMISSION
Path length: 0.01 CM, 0.01 CM
Resolution: 4
Origin: DOW CHEMICAL COMPANY
MICROMETERS	TRANSMITTANCE
2.022	0.882
2.06218	0.874
2.10236	0.88
2.14254	0.882
2.18272	0.872
2.2229	0.859
2.26308	0.864
2.30326	0.87
2.34344	0.87
2.38362	0.872
2.4238	0.885
2.46398	0.9
2.50416	0.902
2.54434	0.905
2.58452	0.908
2.6247	0.915
2.66488	0.908
2.70506	0.91
2.74524	0.9
2.78542	0.879
2.8256	0.864
2.86577	0.837
2.90595	0.855
2.94613	0.862
2.98631	0.867
3.02649	0.865
3.06667	0.864
3.10685	0.864
3.14703	0.874
3.18721	0.882
3.22739	0.874
3.26757	0.839
3.30775	0.566
3.34793	0.317
3.38811	0.556
3.42829	0.71
3.46847	0.812
3.50865	0.875
3.54883	0.902
3.58901	0.918
3.62919	0.915
3.66937	0.92
3.70955	0.922
3.74973	0.93
3.78991	0.935
3.83009	0.933
3.87027	0.937
3.91045	0.937
3.95063	0.933
3.99081	0.935
4.03099	0.94
4.07117	0.937
4.11135	0.942
4.15153	0.942
4.19171	0.915
4.23189	0.903
4.27207	0.903
4.31225	0.923
4.35243	0.925
4.39261	0.943
4.43279	0.953
4.47297	0.963
4.51315	0.963
4.55332	0.965
4.5935	0.968
4.63368	0.966
4.67386	0.963
4.71404	0.958
4.75422	0.961
4.7944	0.956
4.83458	0.958
4.87476	0.963
4.91494	0.961
4.95512	0.955
4.9953	0.953
5.03548	0.955
5.07566	0.961
5.11584	0.963
5.15602	0.961
5.1962	0.955
5.23638	0.956
5.27656	0.961
5.31674	0.953
5.35692	0.928
5.3971	0.918
5.43728	0.915
5.47746	0.913
5.51764	0.872
5.55782	0.842
5.598	0.789
5.63818	0.652
5.67836	0.407
5.71854	0.051
5.75872	0.034
5.7989	0.102
5.83908	0.543
5.87926	0.675
5.91944	0.781
5.95962	0.836
5.9998	0.85
6.03998	0.839
6.08016	0.834
6.12034	0.836
6.16052	0.811
6.20069	0.771
6.24087	0.698
6.28105	0.64
6.32123	0.619
6.36141	0.561
6.40159	0.5
6.44177	0.485
6.48195	0.569
6.52213	0.63
6.56231	0.667
6.60249	0.716
6.64267	0.773
6.68285	0.794
6.72303	0.771
6.76321	0.451
6.80339	0.465
6.84357	0.501
6.88375	0.541
6.92393	0.543
6.96411	0.552
7.00429	0.524
7.04447	0.541
7.08465	0.591
7.12483	0.637
7.16501	0.468
7.20519	0.223
7.24537	0.071
7.28555	0.107
7.32573	0.337
7.36591	0.42
7.40609	0.321
7.44627	0.302
7.48645	0.38
7.52663	0.521
7.56681	0.554
7.60699	0.437
7.64717	0.379
7.68735	0.392
7.72753	0.483
7.76771	0.491
7.80789	0.405
7.84807	0.274
7.88824	0.201
7.92842	0.13
7.9686	0.089
8.00878	0.142
8.04896	0.188
8.08914	0.163
8.12932	0.12
8.1695	0.089
8.20968	0.082
8.24986	0.091
8.29004	0.112
8.33022	0.137
8.3704	0.112
8.41058	0.081
8.45076	0.102
8.49094	0.243
8.53112	0.352
8.5713	0.38
8.61148	0.298
8.65166	0.201
8.69184	0.122
8.73202	0.122
8.7722	0.23
8.81238	0.362
8.85256	0.402
8.89274	0.38
8.93292	0.268
8.9731	0.147
9.01328	0.023
9.05346	0.033
9.09364	0.16
9.13382	0.42
9.174	0.557
9.21418	0.685
9.25436	0.751
9.29454	0.799
9.33472	0.821
9.3749	0.829
9.41508	0.849
9.45526	0.852
9.49544	0.852
9.53561	0.826
9.57579	0.804
9.61597	0.804
9.65615	0.816
9.69633	0.836
9.73651	0.85
9.77669	0.852
9.81687	0.85
9.85705	0.844
9.89723	0.827
9.93741	0.822
9.97759	0.806
10.0178	0.764
10.058	0.69
10.0981	0.607
10.1383	0.544
10.1785	0.552
10.2187	0.614
10.2589	0.673
10.299	0.716
10.3392	0.715
10.3794	0.678
10.4196	0.642
10.4597	0.622
10.4999	0.63
10.5401	0.653
10.5803	0.627
10.6205	0.511
10.6606	0.432
10.7008	0.417
10.741	0.508
10.7812	0.605
10.8214	0.657
10.8615	0.634
10.9017	0.602
10.9419	0.644
10.9821	0.693
11.0223	0.711
11.0624	0.663
11.1026	0.637
11.1428	0.683
11.183	0.75
11.2232	0.783
11.2633	0.798
11.3035	0.804
11.3437	0.801
11.3839	0.794
11.4241	0.764
11.4642	0.735
11.5044	0.683
11.5446	0.6
11.5848	0.534
11.625	0.562
11.6651	0.624
11.7053	0.675
11.7455	0.713
11.7857	0.75
11.8259	0.786
11.866	0.811
11.9062	0.819
11.9464	0.819
11.9866	0.806
12.0268	0.746
12.0669	0.662
12.1071	0.498
12.1473	0.432
12.1875	0.475
12.2277	0.647
12.2678	0.713
12.308	0.763
12.3482	0.783
12.3884	0.796
12.4286	0.801
12.4687	0.801
12.5089	0.794
12.5491	0.783
12.5893	0.769
12.6295	0.751
12.6696	0.74
12.7098	0.723
12.75	0.713
12.7902	0.706
12.8304	0.706
12.8705	0.706
12.9107	0.71
12.9509	0.723
12.9911	0.735
13.0313	0.756
13.0714	0.764
13.1116	0.773
13.1518	0.776
13.192	0.778
13.2322	0.776
13.2723	0.776
13.3125	0.778
13.3527	0.784
13.3929	0.788
13.4331	0.789
13.4732	0.794
13.5134	0.799
13.5536	0.802
13.5938	0.802
13.634	0.801
13.6741	0.794
13.7143	0.793
13.7545	0.791
13.7947	0.783
13.8348	0.778
13.875	0.774
13.9152	0.768
13.9554	0.756
13.9956	0.748
14.0357	0.743
14.0759	0.733
14.1161	0.723
14.1563	0.711
14.1965	0.7
14.2366	0.687
14.2768	0.673
14.317	0.663
14.3572	0.649
14.3974	0.639
14.4375	0.619
14.4777	0.6
14.5179	0.572
14.5581	0.541
14.5983	0.509
14.6384	0.458
14.6786	0.42
14.7188	0.375
14.759	0.339
14.7992	0.314
14.8393	0.307
14.8795	0.306
14.9197	0.309
14.9599	0.326
15.0001	0.349
15.0402	0.372
15.0804	0.385
15.1206	0.392
15.1608	0.445
15.201	0.433
15.2411	0.417
15.2813	0.413
15.3215	0.41
15.3617	0.408
15.4019	0.407
15.442	0.407
15.4822	0.405
15.5224	0.405
15.5626	0.403
15.6028	0.402
15.6429	0.402
15.6831	0.402
15.7233	0.399
15.7635	0.392
15.8037	0.389
15.8438	0.384
15.884	0.379
