Infrared Spectrum: 3-Iodobenzonitrile
Formula: C 7 H 4 I N
CAS: 69113-59-3
State: gas
Origin: EPA-IR VAPOR PHASE LIBRARY
1/CM	ABSORBANCE
549.8	0.001731
559.445	0.001741
569.09	0.002991
578.734	0.001451
588.379	0.0008922
598.024	0.0006088
607.669	0.0007898
617.313	0.0006752
626.958	0.0009721
636.603	0.002001
646.248	0.004891
655.893	0.016011
665.537	0.018711
675.182	0.024931
684.827	0.021771
694.472	0.010261
704.116	0.003551
713.761	0.001611
723.406	0.001741
733.051	0.003711
742.695	0.004751
752.34	0.003121
761.985	0.007641
771.63	0.027151
781.275	0.053671
790.919	0.045141
800.564	0.035761
810.209	0.022181
819.854	0.007521
829.498	0.003091
839.143	0.002521
848.788	0.001471
858.433	0.0009579
868.078	0.002271
877.722	0.005871
887.367	0.009721
897.012	0.007171
906.657	0.004711
916.301	0.003391
925.946	0.002351
935.591	0.002301
945.236	0.002101
954.88	0.0008732
964.525	0.0005763
974.17	0.0009368
983.815	0.002431
993.46	0.008051
1003.1	0.008151
1012.75	0.002841
1022.39	0.001381
1032.04	0.002111
1041.68	0.004521
1051.33	0.006041
1060.97	0.009491
1070.62	0.016221
1080.26	0.012031
1089.91	0.004131
1099.55	0.001651
1109.2	0.001511
1118.84	0.001431
1128.49	0.0011715
1138.13	0.0012589
1147.78	0.001059
1157.42	0.001441
1167.07	0.002241
1176.71	0.006151
1186.36	0.015391
1196	0.007641
1205.64	0.002221
1215.29	0.002101
1224.93	0.0009225
1234.58	0.001471
1244.22	0.002831
1253.87	0.004651
1263.51	0.003131
1273.16	0.001491
1282.8	0.0012764
1292.45	0.002141
1302.09	0.003991
1311.74	0.002651
1321.38	0.0012291
1331.03	0.0009704
1340.67	0.001431
1350.32	0.001521
1359.96	0.0009825
1369.61	0.0009136
1379.25	0.002251
1388.9	0.007261
1398.54	0.013631
1408.18	0.012301
1417.83	0.006231
1427.47	0.002811
1437.12	0.002921
1446.76	0.008401
1456.41	0.015501
1466.05	0.025401
1475.7	0.025151
1485.34	0.004741
1494.99	0.001521
1504.63	0.001321
1514.28	0.001621
1523.92	0.002581
1533.57	0.006541
1543.21	0.014961
1552.86	0.036021
1562.5	0.048311
1572.15	0.018641
1581.79	0.014011
1591.44	0.011801
1601.08	0.002911
1610.73	0.001441
1620.37	0.0012514
1630.01	0.0008713
1639.66	0.0008833
1649.3	0.000899
1658.95	0.0008706
1668.59	0.0009779
1678.24	0.0012296
1687.88	0.003231
1697.53	0.004211
1707.17	0.001441
1716.82	0.0008555
1726.46	0.0007725
1736.11	0.0008434
1745.75	0.001075
1755.4	0.001571
1765.04	0.002241
1774.69	0.002381
1784.33	0.002041
1793.98	0.002091
1803.62	0.002181
1813.27	0.001941
1822.91	0.001881
1832.55	0.001491
1842.2	0.0010157
1851.84	0.0011773
1861.49	0.001311
1871.13	0.001821
1880.78	0.003551
1890.42	0.002781
1900.07	0.0009019
1909.71	0.0005776
1919.36	0.0007845
1929	0.0011801
1938.65	0.002131
1948.29	0.002351
1957.94	0.001531
1967.58	0.0007948
1977.23	0.0006048
1986.87	0.0005819
1996.52	0.0006003
2006.16	0.0005349
2015.81	0.0004772
2025.45	0.0004552
2035.1	0.00038868
2044.74	0.0004619
2054.38	0.0005091
2064.03	0.0005385
2073.67	0.0005292
2083.32	0.0004795
2092.96	0.000507
2102.61	0.0005205
2112.25	0.0005371
2121.9	0.0005676
2131.54	0.0005287
2141.19	0.0004525
2150.83	0.000473
2160.48	0.0005645
2170.12	0.0005029
2179.77	0.0005415
2189.41	0.0005034
2199.06	0.000633
2208.7	0.0008173
2218.35	0.001951
2227.99	0.005841
2237.64	0.007491
2247.28	0.002751
2256.92	0.0009867
2266.57	0.0006982
2276.21	0.0007083
2285.86	0.0005883
2295.5	0.0005547
2305.15	0.0005587
2314.79	0.0004988
2324.44	0.0005736
2334.08	0.0007756
2343.73	0.0012078
2353.37	0.0012857
2363.02	0.0011021
2372.66	0.0009816
2382.31	0.000889
2391.95	0.0008128
2401.6	0.0005937
2411.24	0.0005588
2420.89	0.0006038
2430.53	0.0006806
2440.18	0.0005212
2449.82	0.0005507
2459.47	0.000709
2469.11	0.0007936
2478.75	0.0008562
2488.4	0.0008577
2498.04	0.000752
2507.69	0.0008479
2517.33	0.000943
2526.98	0.0006433
2536.62	0.0005359
2546.27	0.000609
2555.91	0.0005777
2565.56	0.0007312
2575.2	0.0007738
2584.85	0.0007365
2594.49	0.0007059
2604.14	0.0005868
2613.78	0.000595
2623.43	0.0006719
2633.07	0.0006165
2642.72	0.0006444
2652.36	0.0005608
2662.01	0.0006025
2671.65	0.0005859
2681.29	0.0006502
2690.94	0.0007751
2700.58	0.0006503
2710.23	0.0006015
2719.87	0.0005115
2729.52	0.0005786
2739.16	0.0007046
2748.81	0.0008005
2758.45	0.0008718
2768.1	0.0010769
2777.74	0.0009798
2787.39	0.0007523
2797.03	0.0006385
2806.68	0.0005028
2816.32	0.000568
2825.97	0.000499
2835.61	0.0005327
2845.26	0.0005389
2854.9	0.0005416
2864.55	0.0004203
2874.19	0.0004968
2883.84	0.0004631
2893.48	0.00038664
2903.12	0.0004817
2912.77	0.000455
2922.41	0.000659
2932.06	0.0007073
2941.7	0.0005123
2951.35	0.0005056
2960.99	0.0004575
2970.64	0.00034983
2980.28	0.0004345
2989.93	0.0007081
2999.57	0.0006968
3009.22	0.0007437
3018.86	0.0009819
3028.51	0.0008466
3038.15	0.0010839
3047.8	0.001361
3057.44	0.002751
3067.09	0.006041
3076.73	0.008291
3086.38	0.005811
3096.02	0.003231
3105.67	0.001651
3115.31	0.0008769
3124.95	0.0008898
3134.6	0.000727
3144.24	0.0005938
3153.89	0.0006296
3163.53	0.0005878
3173.18	0.0007188
3182.82	0.000436
3192.47	0.0005287
3202.11	0.00032407
3211.76	0.0002837
3221.4	0.0002865
3231.05	0.0002385
3240.69	0.00038654
3250.34	0.0004053
3259.98	0.00038423
3269.63	0.0002847
3279.27	0.00026
3288.92	0.0004835
3298.56	0.0005014
3308.21	0.0004855
3317.85	0.0005609
3327.49	0.0002797
3337.14	0.0004048
3346.78	0.00032569
3356.43	0.00031688
3366.07	0.00034836
3375.72	0.0004861
3385.36	0.000417
3395.01	0.0004498
3404.65	0.000589
3414.3	0.0010135
3423.94	0.000892
3433.59	0.0006257
3443.23	0.0004459
3452.88	0.0004745
3462.52	0.000479
3472.17	0.00038381
3481.81	0.0005458
3491.46	0.0004973
3501.1	0.00039403
3510.75	0.000427
3520.39	0.0004798
3530.04	0.000543
3539.68	0.0004743
3549.32	0.0004441
3558.97	0.0002771
3568.61	0.0004189
3578.26	0.00035847
3587.9	0.00039161
3597.55	0.0002318
3607.19	0.00034358
3616.84	0.000305951
3626.48	0.0005346
3636.13	0.0004512
3645.77	0.0002138
3655.42	0.00039281
3665.06	0.000358
3674.71	0.0004649
3684.35	0.0006046
3694	0.0006095
3703.64	0.0004424
3713.29	0.000449
3722.93	0.00032114
3732.58	0.0005802
3742.22	0.0006332
3751.86	0.0005598
3761.51	0.0006109
3771.15	0.0002906
3780.8	0.00031196
3790.44	0.0002434
3800.09	0.0005134
3809.73	0.0006162
3819.38	0.0005731
3829.02	0.00052
3838.67	0.0002284
3848.31	0.0002895
3857.96	0.0004413
3867.6	0.0004728
3877.25	0.000473
3886.89	0.000475
3896.54	0.0004123
3906.18	0.00029496
3915.83	0.0004241
3925.47	0.00032826
3935.12	0.0004436
3944.76	0.0002618
3954.41	0.00033908
3964.05	0.00037846
3973.69	0.0002085
3983.34	0.0002512
3992.98	0.0004367
