Infrared Spectrum: Di(2-thienyl)disulphide
Formula: C 8 H 6 S 4
CAS: 6911-51-9
State: gas
Origin: EPA-IR VAPOR PHASE LIBRARY
1/CM	ABSORBANCE
549.8	0.0013623
559.445	0.003984
569.09	0.003654
578.734	0.001534
588.379	0.0011735
598.024	0.0006953
607.669	0.001584
617.313	0.001454
626.958	0.002254
636.603	0.002644
646.248	0.002744
655.893	0.005204
665.537	0.010574
675.182	0.016154
684.827	0.026004
694.472	0.095774
704.116	0.099724
713.761	0.024804
723.406	0.011434
733.051	0.007744
742.695	0.006174
752.34	0.003484
761.985	0.002024
771.63	0.0013535
781.275	0.001934
790.919	0.003304
800.564	0.003814
810.209	0.004204
819.854	0.010164
829.498	0.020314
839.143	0.015814
848.788	0.028394
858.433	0.013894
868.078	0.004734
877.722	0.002624
887.367	0.001754
897.012	0.002234
906.657	0.001384
916.301	0.002084
925.946	0.001954
935.591	0.001534
945.236	0.001744
954.88	0.001984
964.525	0.003214
974.17	0.005834
983.815	0.011084
993.46	0.009954
1003.1	0.004264
1012.75	0.002164
1022.39	0.001954
1032.04	0.002034
1041.68	0.002834
1051.33	0.005754
1060.97	0.004274
1070.62	0.003074
1080.26	0.006154
1089.91	0.006344
1099.55	0.001484
1109.2	0.002234
1118.84	0.003104
1128.49	0.001764
1138.13	0.002564
1147.78	0.0012238
1157.42	0.001554
1167.07	0.001384
1176.71	0.002064
1186.36	0.002594
1196	0.001328
1205.64	0.006344
1215.29	0.031804
1224.93	0.022184
1234.58	0.003784
1244.22	0.001814
1253.87	0.001794
1263.51	0.002444
1273.16	0.001051
1282.8	0.001674
1292.45	0.0007302
1302.09	0.0010467
1311.74	0.001554
1321.38	0.001634
1331.03	0.002214
1340.67	0.002614
1350.32	0.001954
1359.96	0.002764
1369.61	0.004084
1379.25	0.007234
1388.9	0.013784
1398.54	0.020274
1408.18	0.013654
1417.83	0.005304
1427.47	0.003534
1437.12	0.002704
1446.76	0.002004
1456.41	0.002124
1466.05	0.002004
1475.7	0.001994
1485.34	0.002234
1494.99	0.002544
1504.63	0.002904
1514.28	0.003504
1523.92	0.005624
1533.57	0.004884
1543.21	0.002174
1552.86	0.001584
1562.5	0.001784
1572.15	0.001664
1581.79	0.002134
1591.44	0.003124
1601.08	0.002864
1610.73	0.001984
1620.37	0.001604
1630.01	0.001694
1639.66	0.002114
1649.3	0.003104
1658.95	0.002994
1668.59	0.001764
1678.24	0.0012786
1687.88	0.0013314
1697.53	0.001594
1707.17	0.001924
1716.82	0.002964
1726.46	0.003144
1736.11	0.001734
1745.75	0.0011437
1755.4	0.001414
1765.04	0.001564
1774.69	0.002094
1784.33	0.003654
1793.98	0.004724
1803.62	0.002744
1813.27	0.001484
1822.91	0.001384
1832.55	0.0010837
1842.2	0.0011579
1851.84	0.0012528
1861.49	0.0012034
1871.13	0.0010508
1880.78	0.0011484
1890.42	0.0011948
1900.07	0.0008954
1909.71	0.0013529
1919.36	0.0009752
1929	0.0009113
1938.65	0.0011188
1948.29	0.0009252
1957.94	0.0008973
1967.58	0.0012637
1977.23	0.0011914
1986.87	0.0011632
1996.52	0.0008538
2006.16	0.0009303
2015.81	0.0009275
2025.45	0.0011435
2035.1	0.0012322
2044.74	0.0010382
2054.38	0.0011614
2064.03	0.001454
2073.67	0.001594
2083.32	0.001414
2092.96	0.0011895
2102.61	0.0011385
2112.25	0.0011714
2121.9	0.0011248
2131.54	0.0011307
2141.19	0.0010395
2150.83	0.0011247
2160.48	0.0012307
2170.12	0.001834
2179.77	0.001874
2189.41	0.001684
2199.06	0.0011391
2208.7	0.0011391
2218.35	0.0009905
2227.99	0.0011667
2237.64	0.0012344
2247.28	0.001384
2256.92	0.0012549
2266.57	0.0012569
2276.21	0.0012048
2285.86	0.0009213
2295.5	0.0010946
2305.15	0.0013146
2314.79	0.0011759
2324.44	0.0012985
2334.08	0.0013353
2343.73	0.0011705
2353.37	0.0009454
2363.02	0.001434
2372.66	0.001894
2382.31	0.001844
2391.95	0.001784
2401.6	0.0012997
2411.24	0.0011672
2420.89	0.0013036
2430.53	0.0012288
2440.18	0.0012153
2449.82	0.0009776
2459.47	0.0010002
2469.11	0.0010771
2478.75	0.0013458
2488.4	0.001102
2498.04	0.0010597
2507.69	0.0007834
2517.33	0.0008902
2526.98	0.0009034
2536.62	0.0009451
2546.27	0.0009958
2555.91	0.0010435
2565.56	0.0011633
2575.2	0.0010344
2584.85	0.0012992
2594.49	0.0008183
2604.14	0.0011263
2613.78	0.0011662
2623.43	0.0011046
2633.07	0.0009413
2642.72	0.0011038
2652.36	0.0011519
2662.01	0.0012593
2671.65	0.0009183
2681.29	0.0012649
2690.94	0.0009355
2700.58	0.0010483
2710.23	0.0011827
2719.87	0.0010103
2729.52	0.0009985
2739.16	0.0012177
2748.81	0.0009798
2758.45	0.0008867
2768.1	0.0011019
2777.74	0.0012999
2787.39	0.001374
2797.03	0.001574
2806.68	0.0012116
2816.32	0.0012061
2825.97	0.001162
2835.61	0.0011061
2845.26	0.0010809
2854.9	0.0010592
2864.55	0.0011093
2874.19	0.001149
2883.84	0.0008024
2893.48	0.0007234
2903.12	0.000464
2912.77	0.000821
2922.41	0.0006942
2932.06	0.0005036
2941.7	0.0006683
2951.35	0.0006648
2960.99	0.001112
2970.64	0.0007824
2980.28	0.0009998
2989.93	0.0010522
2999.57	0.0012421
3009.22	0.0010775
3018.86	0.0010267
3028.51	0.0007574
3038.15	0.0009228
3047.8	0.0010461
3057.44	0.001594
3067.09	0.002844
3076.73	0.007784
3086.38	0.009674
3096.02	0.006104
3105.67	0.003044
3115.31	0.002994
3124.95	0.0013521
3134.6	0.0012221
3144.24	0.0010085
3153.89	0.0008979
3163.53	0.0007989
3173.18	0.0010594
3182.82	0.0002908
3192.47	0.0008582
3202.11	0.001167
3211.76	0.0010933
3221.4	0.0010316
3231.05	0.0009459
3240.69	0.0007588
3250.34	0.0006027
3259.98	0.0007488
3269.63	0.0008656
3279.27	0.000163
3288.92	0.0007094
3298.56	0.001017
3308.21	0.0006461
3317.85	0.0009462
3327.49	0.0010793
3337.14	0.0009343
3346.78	0.0005425
3356.43	0.000979
3366.07	0.0002648
3375.72	0.0010138
3385.36	0.000301
3395.01	0.0009394
3404.65	4.7e-05
3414.3	0.0009048
3423.94	0.0005323
3433.59	0.001244
3443.23	0.000921
3452.88	0.0011574
3462.52	0.0006755
3472.17	0.0009042
3481.81	0.0009065
3491.46	0.0005855
3501.1	0.0008177
3510.75	0.0005244
3520.39	0.000258
3530.04	0.000917
3539.68	0.0010837
3549.32	6.8e-05
3558.97	0.0005469
3568.61	0.0010939
3578.26	0.0011115
3587.9	0.0010715
3597.55	0.0008318
3607.19	0.0008892
3616.84	0.0005358
3626.48	0.0004904
3636.13	0.0012095
3645.77	0.0003352
3655.42	0.0008928
3665.06	0.0010398
3674.71	0.0009085
3684.35	0.0008212
3694	0.000465
3703.64	0.0008618
3713.29	0.0003281
3722.93	0.0013315
3732.58	0.0008902
3742.22	0.0008136
3751.86	0.0012828
3761.51	0.0011927
3771.15	0.0008072
3780.8	0.0010581
3790.44	0.0007176
3800.09	0.0012881
3809.73	0.0013338
3819.38	0.0013021
3829.02	0.001904
3838.67	0.0010795
3848.31	0.0011296
3857.96	0.000705
3867.6	0.0004907
3877.25	0.0006402
3886.89	0.0011889
3896.54	0
3906.18	0.0013136
3915.83	0.000879
3925.47	0.0009667
3935.12	0.0012881
3944.76	0.0013557
3954.41	0.001664
3964.05	0.0010345
3973.69	0.0010369
3983.34	0.0009621
3992.98	0.0008001
