Infrared Spectrum: 4-ISOPROPYL-2,3-DIMETHYL-1-CYCLOPENTENE
Formula: C10 H18
CAS: 6912-05-6
Class: COBLENTZ
Instrument: Not specified, most likely a prism, grating, or hybrid spectrometer.
Sampling: TRANSMISSION
Resolution: 4
Origin: INTERNATIONAL FLAVORS & FRAGRANCES, INC.
MICROMETERS	TRANSMITTANCE
2.024	0.939
2.0613	0.939
2.09861	0.941
2.13591	0.942
2.17322	0.942
2.21052	0.941
2.24782	0.939
2.28513	0.936
2.32243	0.903
2.35974	0.876
2.39704	0.889
2.43434	0.913
2.47165	0.915
2.50895	0.915
2.54626	0.921
2.58356	0.929
2.62086	0.929
2.65817	0.93
2.69547	0.932
2.73277	0.935
2.77008	0.944
2.80738	0.942
2.84469	0.936
2.88199	0.939
2.91929	0.938
2.9566	0.936
2.9939	0.936
3.03121	0.936
3.06851	0.935
3.10581	0.935
3.14312	0.927
3.18042	0.909
3.21773	0.906
3.25503	0.9
3.29233	0.85
3.32964	0.628
3.36694	0.448
3.40425	0.098
3.44155	0.077
3.47885	0.131
3.51616	0.126
3.55346	0.368
3.59077	0.726
3.62807	0.818
3.66537	0.873
3.70268	0.876
3.73998	0.889
3.77728	0.913
3.81459	0.922
3.85189	0.916
3.8892	0.9
3.9265	0.919
3.9638	0.932
4.00111	0.935
4.03841	0.938
4.07572	0.938
4.11302	0.938
4.15032	0.938
4.18763	0.938
4.22493	0.939
4.26224	0.935
4.29954	0.935
4.33684	0.944
4.37415	0.947
4.41145	0.947
4.44876	0.947
4.48606	0.944
4.52336	0.939
4.56067	0.942
4.59797	0.947
4.63528	0.945
4.67258	0.947
4.70988	0.947
4.74719	0.947
4.78449	0.947
4.8218	0.948
4.8591	0.948
4.8964	0.95
4.93371	0.947
4.97101	0.945
5.00831	0.945
5.04562	0.948
5.08292	0.947
5.12023	0.944
5.15753	0.942
5.19483	0.942
5.23214	0.944
5.26944	0.945
5.30675	0.947
5.34405	0.945
5.38135	0.944
5.41866	0.945
5.45596	0.947
5.49327	0.945
5.53057	0.945
5.56787	0.942
5.60518	0.941
5.64248	0.944
5.67979	0.944
5.71709	0.942
5.75439	0.939
5.7917	0.936
5.829	0.935
5.86631	0.932
5.90361	0.932
5.94091	0.919
5.97822	0.906
6.01552	0.845
6.05282	0.723
6.09013	0.841
6.12743	0.894
6.16474	0.903
6.20204	0.91
6.23934	0.918
6.27665	0.919
6.31395	0.919
6.35126	0.921
6.38856	0.921
6.42586	0.922
6.46317	0.925
6.50047	0.927
6.53778	0.924
6.57508	0.918
6.61238	0.916
6.64969	0.903
6.68699	0.882
6.7243	0.853
6.7616	0.75
6.7989	0.501
6.83621	0.317
6.87351	0.302
6.91082	0.276
6.94812	0.314
6.98542	0.425
7.02273	0.625
7.06003	0.738
7.09734	0.799
7.13464	0.818
7.17194	0.818
7.20925	0.744
7.24655	0.469
7.28385	0.457
7.32116	0.305
7.35846	0.489
7.39577	0.738
7.43307	0.815
7.47037	0.805
7.50768	0.758
7.54498	0.79
7.58229	0.811
7.61959	0.796
7.65689	0.83
7.6942	0.868
7.7315	0.856
7.76881	0.832
7.80611	0.839
7.84341	0.868
7.88072	0.885
7.91802	0.891
7.95533	0.886
7.99263	0.882
8.02993	0.877
8.06724	0.873
8.10454	0.861
8.14185	0.867
8.17915	0.885
8.21645	0.889
8.25376	0.889
8.29106	0.886
8.32836	0.88
8.36567	0.877
8.40297	0.879
8.44028	0.882
8.47758	0.873
8.51488	0.877
8.55219	0.873
8.58949	0.859
8.6268	0.842
8.6641	0.777
8.7014	0.756
8.73871	0.812
8.77601	0.865
8.81332	0.88
8.85062	0.882
8.88792	0.858
8.92523	0.847
8.96253	0.867
8.99984	0.861
9.03714	0.761
9.07444	0.566
9.11175	0.607
9.14905	0.717
9.18636	0.787
9.22366	0.802
9.26096	0.808
9.29827	0.861
9.33557	0.87
9.37288	0.861
9.41018	0.858
9.44748	0.877
9.48479	0.888
9.52209	0.888
9.55939	0.88
9.5967	0.838
9.634	0.796
9.67131	0.797
9.70861	0.799
9.74591	0.803
9.78322	0.799
9.82052	0.779
9.85783	0.773
9.89513	0.771
9.93243	0.747
9.96974	0.719
10.007	0.694
10.0443	0.744
10.0816	0.808
10.119	0.839
10.1563	0.858
10.1936	0.838
10.2309	0.799
10.2682	0.827
10.3055	0.856
10.3428	0.862
10.3801	0.868
10.4174	0.873
10.4547	0.889
10.492	0.898
10.5293	0.901
10.5666	0.904
10.6039	0.912
10.6412	0.912
10.6785	0.907
10.7158	0.889
10.7531	0.877
10.7904	0.871
10.8277	0.876
10.865	0.871
10.9023	0.868
10.9396	0.873
10.9769	0.892
11.0142	0.91
11.0516	0.915
11.0889	0.919
11.1262	0.924
11.1635	0.924
11.2008	0.919
11.2381	0.91
11.2754	0.895
11.3127	0.883
11.35	0.873
11.3873	0.865
11.4246	0.868
11.4619	0.874
11.4992	0.883
11.5365	0.882
11.5738	0.876
11.6111	0.853
11.6484	0.823
11.6857	0.794
11.723	0.755
11.7603	0.717
11.7976	0.679
11.8349	0.643
11.8722	0.564
11.9095	0.519
11.9468	0.518
11.9842	0.563
12.0215	0.638
12.0588	0.691
12.0961	0.725
12.1334	0.741
12.1707	0.744
12.208	0.755
12.2453	0.758
12.2826	0.762
12.3199	0.77
12.3572	0.787
12.3945	0.812
12.4318	0.845
12.4691	0.864
12.5064	0.871
12.5437	0.874
12.581	0.889
12.6183	0.895
12.6556	0.907
12.6929	0.909
12.7302	0.907
12.7675	0.907
12.8048	0.907
12.8421	0.91
12.8794	0.91
12.9167	0.91
12.9541	0.91
12.9914	0.91
13.0287	0.91
13.066	0.91
13.1033	0.91
13.1406	0.906
13.1779	0.9
13.2152	0.895
13.2525	0.894
13.2898	0.892
13.3271	0.888
13.3644	0.883
13.4017	0.879
13.439	0.877
13.4763	0.879
13.5136	0.88
13.5509	0.88
13.5882	0.882
13.6255	0.879
13.6628	0.876
13.7001	0.874
13.7374	0.873
13.7747	0.871
13.812	0.87
13.8493	0.87
13.8867	0.867
13.924	0.868
13.9613	0.87
13.9986	0.868
14.0359	0.865
14.0732	0.862
14.1105	0.861
14.1478	0.861
14.1851	0.859
14.2224	0.853
14.2597	0.848
14.297	0.848
14.3343	0.845
14.3716	0.841
14.4089	0.836
14.4462	0.833
14.4835	0.833
14.5208	0.832
14.5581	0.823
14.5954	0.821
14.6327	0.82
14.67	0.818
14.7073	0.818
14.7446	0.815
14.7819	0.815
14.8192	0.811
14.8566	0.802
14.8939	0.799
14.9312	0.793
14.9685	0.782
