Infrared Spectrum: 5-AMINO-3-METHYLTHIO-1,2,4-THIADIAZOLE
Formula: C3 H5 N3 S2
CAS: 6913-13-9
State: SOLID (PELLET)
Class: COBLENTZ
Instrument: Not specified, most likely a prism, grating, or hybrid spectrometer.
Sampling: TRANSMISSION
Resolution: 4
Origin: TENNESSEE EASTMAN COMPANY, RESEARCH LABORATORIES
MICROMETERS	TRANSMITTANCE
2.007	0.936
2.0469	0.945
2.08679	0.951
2.12669	0.955
2.16659	0.951
2.20649	0.926
2.24638	0.923
2.28628	0.921
2.32618	0.923
2.36607	0.926
2.40597	0.93
2.44587	0.93
2.48577	0.936
2.52566	0.94
2.56556	0.94
2.60546	0.941
2.64535	0.946
2.68525	0.95
2.72515	0.95
2.76505	0.94
2.80494	0.908
2.84484	0.886
2.88474	0.83
2.92463	0.675
2.96453	0.424
3.00443	0.227
3.04433	0.221
3.08422	0.332
3.12412	0.539
3.16402	0.419
3.20391	0.226
3.24381	0.173
3.28371	0.419
3.32361	0.605
3.3635	0.655
3.4034	0.562
3.4433	0.808
3.48319	0.863
3.52309	0.901
3.56299	0.92
3.60289	0.915
3.64278	0.866
3.68268	0.811
3.72258	0.896
3.76247	0.93
3.80237	0.941
3.84227	0.948
3.88217	0.953
3.92206	0.96
3.96196	0.958
4.00186	0.96
4.04175	0.96
4.08165	0.961
4.12155	0.96
4.16145	0.961
4.20134	0.956
4.24124	0.956
4.28114	0.936
4.32103	0.92
4.36093	0.941
4.40083	0.951
4.44073	0.953
4.48062	0.953
4.52052	0.946
4.56042	0.95
4.60031	0.956
4.64021	0.963
4.68011	0.961
4.72001	0.96
4.7599	0.96
4.7998	0.951
4.8397	0.948
4.87959	0.948
4.91949	0.948
4.95939	0.95
4.99929	0.958
5.03918	0.956
5.07908	0.956
5.11898	0.953
5.15887	0.951
5.19877	0.951
5.23867	0.951
5.27857	0.953
5.31846	0.955
5.35836	0.953
5.39826	0.955
5.43815	0.953
5.47805	0.946
5.51795	0.946
5.55785	0.941
5.59774	0.936
5.63764	0.938
5.67754	0.938
5.71743	0.935
5.75733	0.925
5.79723	0.925
5.83713	0.921
5.87702	0.911
5.91692	0.898
5.95682	0.876
5.99671	0.841
6.03661	0.813
6.07651	0.64
6.11641	0.317
6.1563	0.204
6.1962	0.627
6.2361	0.748
6.27599	0.8
6.31589	0.8
6.35579	0.748
6.39569	0.625
6.43558	0.507
6.47548	0.272
6.51538	0.043
6.55527	0.252
6.59517	0.667
6.63507	0.793
6.67497	0.821
6.71486	0.828
6.75476	0.833
6.79466	0.773
6.83455	0.6
6.87445	0.059
6.91435	0.351
6.95425	0.292
6.99414	0.542
7.03404	0.638
7.07394	0.712
7.11383	0.733
7.15373	0.752
7.19363	0.795
7.23353	0.805
7.27342	0.806
7.31332	0.813
7.35322	0.831
7.39312	0.845
7.43301	0.853
7.47291	0.853
7.51281	0.836
7.5527	0.708
7.5926	0.444
7.6325	0.723
7.6724	0.732
7.71229	0.723
7.75219	0.667
7.79209	0.542
7.83198	0.359
7.87188	0.166
7.91178	0.058
7.95168	0.031
7.99157	0.043
8.03147	0.212
8.07137	0.404
8.11126	0.504
8.15116	0.57
8.19106	0.637
8.23096	0.673
8.27085	0.698
8.31075	0.707
8.35065	0.717
8.39054	0.725
8.43044	0.73
8.47034	0.742
8.51024	0.748
8.55013	0.755
8.59003	0.763
8.62993	0.765
8.66982	0.77
8.70972	0.772
8.74962	0.772
8.78952	0.772
8.82941	0.768
8.86931	0.762
8.90921	0.748
8.9491	0.737
8.989	0.732
9.0289	0.727
9.0688	0.727
9.10869	0.733
9.14859	0.753
9.18849	0.767
9.22838	0.777
9.26828	0.785
9.30818	0.793
9.34808	0.795
9.38797	0.8
9.42787	0.805
9.46777	0.811
9.50766	0.816
9.54756	0.818
9.58746	0.821
9.62736	0.823
9.66725	0.826
9.70715	0.83
9.74705	0.831
9.78694	0.83
9.82684	0.833
9.86674	0.84
9.90664	0.848
9.94653	0.853
9.98643	0.856
10.0263	0.86
10.0662	0.863
10.1061	0.861
10.146	0.831
10.1859	0.72
10.2258	0.74
10.2657	0.813
10.3056	0.793
10.3455	0.72
10.3854	0.752
10.4253	0.74
10.4652	0.499
10.5051	0.592
10.545	0.798
10.5849	0.833
10.6248	0.863
10.6647	0.876
10.7046	0.886
10.7445	0.896
10.7844	0.905
10.8243	0.91
10.8642	0.911
10.9041	0.913
10.944	0.915
10.9839	0.92
11.0238	0.921
11.0637	0.925
11.1035	0.923
11.1434	0.925
11.1833	0.925
11.2232	0.923
11.2631	0.925
11.303	0.926
11.3429	0.928
11.3828	0.93
11.4227	0.931
11.4626	0.93
11.5025	0.931
11.5424	0.931
11.5823	0.931
11.6222	0.933
11.6621	0.935
11.702	0.936
11.7419	0.936
11.7818	0.936
11.8217	0.935
11.8616	0.938
11.9015	0.938
11.9414	0.938
11.9813	0.94
12.0212	0.94
12.0611	0.94
12.101	0.938
12.1409	0.94
12.1808	0.941
12.2207	0.938
12.2606	0.94
12.3005	0.94
12.3404	0.938
12.3803	0.938
12.4202	0.938
12.4601	0.935
12.5	0.928
12.5398	0.925
12.5797	0.925
12.6196	0.903
12.6595	0.85
12.6994	0.72
12.7393	0.562
12.7792	0.632
12.8191	0.78
12.859	0.841
12.8989	0.873
12.9388	0.893
12.9787	0.901
13.0186	0.908
13.0585	0.911
13.0984	0.911
13.1383	0.913
13.1782	0.913
13.2181	0.913
13.258	0.913
13.2979	0.913
13.3378	0.911
13.3777	0.911
13.4176	0.908
13.4575	0.9
13.4974	0.89
13.5373	0.873
13.5772	0.861
13.6171	0.855
13.657	0.851
13.6969	0.845
13.7368	0.831
13.7767	0.818
13.8166	0.808
13.8565	0.808
13.8964	0.82
13.9362	0.828
13.9761	0.835
14.016	0.841
14.0559	0.848
14.0958	0.851
14.1357	0.855
14.1756	0.858
14.2155	0.855
14.2554	0.836
14.2953	0.818
14.3352	0.815
14.3751	0.82
14.415	0.84
14.4549	0.851
14.4948	0.853
14.5347	0.855
14.5746	0.846
14.6145	0.81
14.6544	0.783
14.6943	0.768
14.7342	0.778
14.7741	0.83
14.814	0.88
14.8539	0.916
14.8938	0.926
14.9337	0.928
14.9736	0.925
15.0135	0.918
15.0534	0.916
15.0933	0.916
15.1332	0.916
15.1731	0.913
15.213	0.9
15.2529	0.89
15.2928	0.876
15.3326	0.863
15.3725	0.855
15.4124	0.846
15.4523	0.84
15.4922	0.825
15.5321	0.816
15.572	0.803
15.6119	0.798
15.6518	0.788
15.6917	0.777
15.7316	0.767
15.7715	0.753
15.8114	0.737
15.8513	0.723
15.8912	0.717
15.9311	0.71
15.971	0.707
