Infrared Spectrum: Ethyldimethylchlorosilane
Formula: C 4 H 11 Cl Si
CAS: 6917-76-6
State: gas
Origin: EPA-IR VAPOR PHASE LIBRARY
1/CM	ABSORBANCE
549.9	0.00414
559.547	0.00441
569.193	0.00467
578.84	0.00579
588.486	0.00897
598.133	0.02149
607.779	0.04296
617.426	0.05473
627.072	0.04294
636.719	0.02059
646.365	0.01254
656.012	0.013
665.658	0.01479
675.305	0.01989
684.951	0.03339
694.598	0.05212
704.245	0.06063
713.891	0.0512
723.538	0.03393
733.184	0.026
742.831	0.02706
752.477	0.03213
762.124	0.04115
771.77	0.06649
781.417	0.11065
791.063	0.16049
800.71	0.17181
810.356	0.17682
820.003	0.17732
829.649	0.16307
839.296	0.1485
848.943	0.12967
858.589	0.09142
868.236	0.05724
877.882	0.03835
887.529	0.02808
897.175	0.02075
906.822	0.01543
916.468	0.01212
926.115	0.01046
935.761	0.01041
945.408	0.01381
955.054	0.02152
964.701	0.02882
974.347	0.02554
983.994	0.01962
993.64	0.0214
1003.29	0.02891
1012.93	0.0307
1022.58	0.02224
1032.23	0.01141
1041.87	0.00525
1051.52	0.00342
1061.17	0.00281
1070.81	0.0024848
1080.46	0.0023322
1090.11	0.0023064
1099.75	0.0021783
1109.4	0.0019396
1119.05	0.001451
1128.69	0.001456
1138.34	0.001196
1147.99	0.001282
1157.63	0.0015635
1167.28	0.0015201
1176.92	0.0020504
1186.57	0.0025523
1196.22	0.00328
1205.86	0.00471
1215.51	0.00823
1225.16	0.01453
1234.8	0.02753
1244.45	0.05405
1254.1	0.08284
1263.74	0.09585
1273.39	0.06456
1283.04	0.02649
1292.68	0.01095
1302.33	0.00796
1311.98	0.00717
1321.62	0.00628
1331.27	0.00504
1340.92	0.00397
1350.56	0.00358
1360.21	0.00387
1369.86	0.00485
1379.5	0.0068
1389.15	0.0099
1398.79	0.01403
1408.44	0.01755
1418.09	0.01875
1427.73	0.01459
1437.38	0.01036
1447.03	0.00964
1456.67	0.0109
1466.32	0.01121
1475.97	0.00955
1485.61	0.00693
1495.26	0.00475
1504.91	0.00357
1514.55	0.00312
1524.2	0.0027
1533.85	0.00265
1543.49	0.0023691
1553.14	0.0020628
1562.79	0.0018047
1572.43	0.00166449
1582.08	0.00166284
1591.73	0.00166472
1601.37	0.00167269
1611.02	0.00165103
1620.67	0.0015843
1630.31	0.001515
1639.96	0.001241
1649.6	0.001112
1659.25	0.000954
1668.9	0.000846
1678.54	0.000835
1688.19	0.000708
1697.84	0.00062
1707.48	0.000781
1717.13	0.0008
1726.78	0.000807
1736.42	0.000729
1746.07	0.000736
1755.72	0.00058
1765.36	0.0005
1775.01	0.00046
1784.66	0.00044
1794.3	0.00048
1803.95	0.00046
1813.6	0.00055
1823.24	0.000634
1832.89	0.000811
1842.54	0.001039
1852.18	0.001266
1861.83	0.001444
1871.47	0.0015846
1881.12	0.001479
1890.77	0.001268
1900.41	0.001115
1910.06	0.00109
1919.71	0.00117
1929.35	0.001423
1939	0.0017859
1948.65	0.0020901
1958.29	0.0021271
1967.94	0.0018892
1977.59	0.001478
1987.23	0.001214
1996.88	0.001091
2006.53	0.001053
2016.17	0.00109
2025.82	0.001089
2035.47	0.001129
2045.11	0.001295
2054.76	0.001378
2064.41	0.001316
2074.05	0.00122
2083.7	0.000991
2093.35	0.00099
2102.99	0.000972
2112.64	0.000968
2122.28	0.000909
2131.93	0.000803
2141.58	0.000657
2151.22	0.000657
2160.87	0.000644
2170.52	0.000624
2180.16	0.000631
2189.81	0.000706
2199.46	0.000703
2209.1	0.000796
2218.75	0.000764
2228.4	0.000692
2238.04	0.000637
2247.69	0.00054
2257.34	0.00051
2266.98	0.00042
2276.63	0.00041
2286.28	0.00033
2295.92	0.00031
2305.57	0.00027
2315.22	0.00025
2324.86	0.00024
2334.51	0.00023
2344.16	0.00034
2353.8	0.00037
2363.45	0.00037
2373.09	0.00038
2382.74	0.0004
2392.39	0.00044
2402.03	0.00034
2411.68	0.00032
2421.33	0.00028
2430.97	0.00024
2440.62	0.00029
2450.27	0.00033
2459.91	0.00028
2469.56	0.00025
2479.21	0.00026
2488.85	0.00028
2498.5	0.00037
2508.15	0.0004
2517.79	0.00033
2527.44	0.00024
2537.09	0.0001
2546.73	5e-05
2556.38	0.00012
2566.03	0.00012
2575.67	5e-05
2585.32	0
2594.96	7e-05
2604.61	8e-05
2614.26	0.00024
2623.9	0.00037
2633.55	0.00042
2643.2	0.0005
2652.84	0.000631
2662.49	0.000655
2672.14	0.00059
2681.78	0.000648
2691.43	0.000647
2701.08	0.000752
2710.72	0.000779
2720.37	0.000867
2730.02	0.001232
2739.66	0.0018241
2749.31	0.0024059
2758.96	0.0025192
2768.6	0.0024694
2778.25	0.00309
2787.9	0.00433
2797.54	0.00583
2807.19	0.00698
2816.84	0.0076
2826.48	0.00759
2836.13	0.00767
2845.77	0.00825
2855.42	0.00978
2865.07	0.01491
2874.71	0.03163
2884.36	0.05057
2894.01	0.05782
2903.65	0.05411
2913.3	0.04966
2922.95	0.05012
2932.59	0.04905
2942.24	0.04925
2951.89	0.06703
2961.53	0.09602
2971.18	0.10633
2980.83	0.07957
2990.47	0.03888
3000.12	0.01797
3009.77	0.01129
3019.41	0.00893
3029.06	0.00793
3038.71	0.00737
3048.35	0.00674
3058	0.00645
3067.64	0.00649
3077.29	0.00642
3086.94	0.00655
3096.58	0.00616
3106.23	0.00584
3115.88	0.0054
3125.52	0.00472
3135.17	0.00376
3144.82	0.00303
3154.46	0.0024387
3164.11	0.0019849
3173.76	0.00168651
3183.4	0.00132
3193.05	0.001202
3202.7	0.000854
3212.34	0.000654
3221.99	0.00069
3231.64	0.00029
3241.28	0.00014
3250.93	0.00032
3260.58	0.00017
3270.22	0.00017
3279.87	0.0002
3289.52	0.00026
3299.16	0.00021
3308.81	0.00034
3318.45	0.00028
3328.1	0.00031
3337.75	0.00022
3347.39	0.00023
3357.04	0.00031
3366.69	0.00026
3376.33	0.00028
3385.98	0.00024
3395.63	0.00015
3405.27	0.0004
3414.92	0.0004
3424.57	0.00025
3434.21	0.0004
3443.86	0.00061
3453.51	0.00057
3463.15	0.00062
3472.8	0.00049
3482.45	0.000627
3492.09	0.000841
3501.74	0.00061
3511.39	0.000709
3521.03	0.000712
3530.68	0.000769
3540.33	0.000956
3549.97	0.001156
3559.62	0.001077
3569.26	0.00112
3578.91	0.001159
3588.56	0.001264
3598.2	0.001362
3607.85	0.001297
3617.5	0.0015899
3627.14	0.0014
3636.79	0.001199
3646.44	0.00162387
3656.08	0.0015687
3665.73	0.00167654
3675.38	0.001461
3685.02	0.0017308
3694.67	0.00168573
3704.32	0.0017678
3713.96	0.0019712
3723.61	0.0020072
3733.26	0.0021129
3742.9	0.0019428
3752.55	0.0018822
3762.2	0.0019542
3771.84	0.0015382
3781.49	0.001423
3791.13	0.001279
3800.78	0.001094
3810.43	0.001026
3820.07	0.001127
3829.72	0.001171
3839.37	0.001058
3849.01	0.00102
3858.66	0.001184
3868.31	0.001277
3877.95	0.001257
3887.6	0.001295
3897.25	0.001253
3906.89	0.001158
3916.54	0.001038
3926.19	0.000956
3935.83	0.000932
3945.48	0.000889
3955.13	0.000769
3964.77	0.000699
3974.42	0.000659
3984.07	0.000746
3993.71	0.000633
