Infrared Spectrum: trans-2,5-Dimethyl-3-hexene
Formula: C 8 H 16
CAS: 692-70-6
State: gas
Instrument: HP-GC/MS/IRD
Origin: NIST Mass Spectrometry Data Center
1/CM	ABSORBANCE
550	0.0001134
562	5.4e-06
574	9.72e-05
586	9.72e-05
598	0.0002646
610	0.0001296
622	0.0002376
634	0.0001458
646	0.0002376
658	0.0001998
670	0.0001782
682	0.0002052
694	0.0001998
706	0.0002214
718	0.0002322
730	0.0002808
742	0.0002538
754	0.0002376
766	0.0002808
778	0.0002376
790	0.0003024
802	0.0003672
814	0.00054
826	0.0005022
838	0.0004374
850	0.0004914
862	0.0004212
874	0.000432
886	0.0005076
898	0.0005994
910	0.0007614
922	0.001107
934	0.0017658
946	0.0035208
958	0.007155
970	0.0086238
982	0.004968
994	0.0021168
1006	0.001053
1018	0.0007236
1030	0.0005616
1042	0.000513
1054	0.0004212
1066	0.0005022
1078	0.0006696
1090	0.0010476
1102	0.0013608
1114	0.0011502
1126	0.0007614
1138	0.0005616
1150	0.000594
1162	0.000918
1174	0.0012366
1186	0.00081
1198	0.0005292
1210	0.0004374
1222	0.0004374
1234	0.0006048
1246	0.0008424
1258	0.0007884
1270	0.0008586
1282	0.0012474
1294	0.0019818
1306	0.002565
1318	0.0028296
1330	0.0028512
1342	0.002484
1354	0.0029376
1366	0.0036396
1378	0.0040716
1390	0.0033696
1402	0.0018522
1414	0.0011772
1426	0.00135
1438	0.0021168
1450	0.0034506
1462	0.0050868
1474	0.00486
1486	0.0027648
1498	0.0012096
1510	0.0006426
1522	0.0003942
1534	0.0002862
1546	0.000216
1558	0.0002268
1570	0.0002376
1582	0.000243
1594	0.0002538
1606	0.0001998
1618	0.0001944
1630	0.0002376
1642	0.0002754
1654	0.0002646
1666	0.0002916
1678	0.00027
1690	0.0001998
1702	0.0001944
1714	0.0001836
1726	0.0002268
1738	0.0002376
1750	0.00027
1762	0.0004158
1774	0.0004806
1786	0.000486
1798	0.0003996
1810	0.0002376
1822	0.0001674
1834	0.0001458
1846	0.0001296
1858	9.18e-05
1870	9.72e-05
1882	9.18e-05
1894	5.94e-05
1906	7.02e-05
1918	7.56e-05
1930	5.4e-05
1942	5.4e-05
1954	3.24e-05
1966	2.7e-05
1978	5.4e-05
1990	2.16e-05
2002	3.78e-05
2014	3.78e-05
2026	3.78e-05
2038	5.4e-05
2050	4.32e-05
2062	3.24e-05
2074	1.08e-05
2086	0
2098	0
2110	1.08e-05
2122	0
2134	2.16e-05
2146	1.08e-05
2158	1.62e-05
2170	5.4e-05
2182	3.78e-05
2194	4.32e-05
2206	2.7e-05
2218	2.7e-05
2230	5.4e-06
2242	2.7e-05
2254	3.78e-05
2266	2.7e-05
2278	5.4e-05
2290	5.4e-05
2302	4.86e-05
2314	3.78e-05
2326	1.08e-05
2338	3.78e-05
2350	1.62e-05
2362	2.7e-05
2374	7.02e-05
2386	0.0001134
2398	8.1e-05
2410	7.56e-05
2422	9.72e-05
2434	5.4e-05
2446	6.48e-05
2458	0.000108
2470	0.0001512
2482	9.72e-05
2494	0.0001134
2506	5.94e-05
2518	0.0001134
2530	0.0001242
2542	0.000162
2554	0.0001998
2566	0.000243
2578	0.0003186
2590	0.0003564
2602	0.0002862
2614	0.0002646
2626	0.0002484
2638	0.0002862
2650	0.0002484
2662	0.0002538
2674	0.0002376
2686	0.0002862
2698	0.0003348
2710	0.0004698
2722	0.000675
2734	0.0006804
2746	0.0007182
2758	0.000756
2770	0.0007614
2782	0.0007776
2794	0.0008748
2806	0.0010962
2818	0.0013608
2830	0.001728
2842	0.0025866
2854	0.0048708
2866	0.0108702
2878	0.0160596
2890	0.0149256
2902	0.0138834
2914	0.0145098
2926	0.0163782
2938	0.0203256
2950	0.02889
2962	0.050652
2974	0.0458622
2986	0.018117
2998	0.00756
3010	0.0046656
3022	0.003645
3034	0.0027378
3046	0.001944
3058	0.001512
3070	0.0013446
3082	0.001188
3094	0.0011448
3106	0.0009558
3118	0.0007668
3130	0.0006534
3142	0.000648
3154	0.0006642
3166	0.0006966
3178	0.0007776
3190	0.0007398
3202	0.0006534
3214	0.0005562
3226	0.0004752
3238	0.0003456
3250	0.0003078
3262	0.0001782
3274	0.0002052
3286	0.0001728
3298	0.000189
3310	0.0001836
3322	0.0002268
3334	0.0002376
3346	0.000243
3358	0.0002106
3370	0.0002052
3382	0.000189
3394	0.000135
3406	0.0001512
3418	0.0001242
3430	0.0001512
3442	0.000135
3454	0.0001242
3466	0.0001998
3478	0.0001782
3490	0.0001458
3502	0.0001296
3514	0.0001134
3526	9.18e-05
3538	0.0001188
3550	9.72e-05
3562	0.000108
3574	5.4e-05
3586	4.32e-05
3598	0.0001134
3610	8.64e-05
3622	5.94e-05
3634	0.0001296
3646	8.64e-05
3658	8.1e-05
3670	8.64e-05
3682	0.0001134
3694	0.0001296
3706	5.94e-05
3718	0.0001512
3730	0.0001026
3742	9.72e-05
3754	0.0001458
3766	0.0001242
3778	0.0001404
3790	0.000243
3802	0.0001836
3814	0.0002322
3826	0.0001944
3838	0.0002214
