Infrared Spectrum: trans-2-Methyl-3-hexene
Formula: C 7 H 14
CAS: 692-24-0
State: gas
Instrument: HP-GC/MS/IRD
Origin: NIST Mass Spectrometry Data Center
1/CM	ABSORBANCE
550	0.0002064
562	0.0001824
574	0.0001776
586	0.000144
598	0.0002112
610	0.0001104
622	9.6e-05
634	8.16e-05
646	0.0001104
658	4.8e-05
670	0.0001008
682	0.0001632
694	0.0002112
706	0.0001536
718	0.0001968
730	0.000192
742	0.0002112
754	0.0002784
766	0.0003648
778	0.0003984
790	0.000312
802	0.0003456
814	0.0003648
826	0.0005712
838	0.0006384
850	0.0005184
862	0.0004704
874	0.00048
886	0.0007584
898	0.0010464
910	0.0012288
922	0.0015312
934	0.0028176
946	0.0050832
958	0.0069216
970	0.006816
982	0.004512
994	0.0023376
1006	0.0014256
1018	0.001584
1030	0.0013536
1042	0.000864
1054	0.000744
1066	0.000864
1078	0.0009504
1090	0.0010848
1102	0.0010416
1114	0.0008256
1126	0.0006624
1138	0.000576
1150	0.0006576
1162	0.0006576
1174	0.0007632
1186	0.0006288
1198	0.0004608
1210	0.0003648
1222	0.000384
1234	0.00048
1246	0.0006432
1258	0.0009264
1270	0.0011664
1282	0.0013536
1294	0.0016512
1306	0.0021168
1318	0.00264
1330	0.0026016
1342	0.0022656
1354	0.0023952
1366	0.0026832
1378	0.0031728
1390	0.0028272
1402	0.0018
1414	0.0014448
1426	0.0016704
1438	0.0025632
1450	0.0038688
1462	0.005064
1474	0.004464
1486	0.0026016
1498	0.0012768
1510	0.000696
1522	0.0004032
1534	0.0002688
1546	0.0002496
1558	0.0001488
1570	0.000168
1582	0.0002352
1594	0.0002304
1606	0.0002304
1618	0.0002352
1630	0.0002352
1642	0.000264
1654	0.00024
1666	0.0002688
1678	0.000264
1690	0.00024
1702	0.000264
1714	0.0002928
1726	0.0002736
1738	0.0002832
1750	0.0002832
1762	0.0003456
1774	0.000456
1786	0.0004896
1798	0.0004032
1810	0.0002784
1822	0.0001968
1834	0.0001584
1846	0.0001392
1858	0.0001248
1870	0.0001104
1882	6.72e-05
1894	8.16e-05
1906	6.24e-05
1918	6.72e-05
1930	2.4e-05
1942	3.84e-05
1954	3.84e-05
1966	1.92e-05
1978	4.32e-05
1990	2.88e-05
2002	3.84e-05
2014	4.8e-05
2026	2.88e-05
2038	3.36e-05
2050	4.32e-05
2062	2.88e-05
2074	3.84e-05
2086	9.6e-06
2098	5.28e-05
2110	1.92e-05
2122	1.92e-05
2134	2.4e-05
2146	3.36e-05
2158	2.88e-05
2170	1.44e-05
2182	4.8e-06
2194	5.76e-05
2206	7.2e-05
2218	6.72e-05
2230	6.72e-05
2242	4.8e-05
2254	5.28e-05
2266	4.8e-05
2278	4.8e-05
2290	6.72e-05
2302	5.76e-05
2314	5.28e-05
2326	5.76e-05
2338	6.24e-05
2350	5.28e-05
2362	7.2e-05
2374	9.12e-05
2386	0.0001248
2398	0.0001344
2410	0.0001296
2422	0.0001056
2434	8.64e-05
2446	7.68e-05
2458	9.6e-05
2470	0.0001008
2482	0.0001104
2494	7.68e-05
2506	8.64e-05
2518	8.64e-05
2530	0.0001008
2542	0.0001392
2554	0.0001824
2566	0.0001968
2578	0.0002736
2590	0.0002496
2602	0.0002784
2614	0.0002688
2626	0.0002544
2638	0.0002592
2650	0.00024
2662	0.0002448
2674	0.0002304
2686	0.000288
2698	0.0003312
2710	0.000456
2722	0.0005904
2734	0.0007344
2746	0.000744
2758	0.0007872
2770	0.000768
2782	0.00084
2794	0.0010176
2806	0.0013488
2818	0.0017568
2830	0.0023808
2842	0.0037728
2854	0.0067008
2866	0.0114096
2878	0.0160032
2890	0.0169728
2902	0.016152
2914	0.0166224
2926	0.0186528
2938	0.023088
2950	0.0294288
2962	0.044664
2974	0.0447408
2986	0.0232704
2998	0.0107088
3010	0.0066336
3022	0.0051264
3034	0.0039216
3046	0.0026928
3058	0.0019104
3070	0.0015888
3082	0.0013728
3094	0.0012672
3106	0.001128
3118	0.0010368
3130	0.0009696
3142	0.00084
3154	0.0006816
3166	0.000648
3178	0.000624
3190	0.0005952
3202	0.0004944
3214	0.0004656
3226	0.00036
3238	0.0002976
3250	0.0002016
3262	0.000168
3274	0.0001584
3286	0.0001776
3298	0.0001776
3310	0.0001488
3322	0.0001584
3334	0.0001584
3346	0.0001824
3358	0.0001584
3370	0.0001632
3382	0.0001632
3394	0.000144
3406	0.0001536
3418	0.0001584
3430	0.0001152
3442	0.0001488
3454	0.000192
3466	0.0001824
3478	8.64e-05
3490	0.0001344
3502	8.16e-05
3514	7.2e-05
3526	0.00012
3538	0.0001056
3550	0.0001296
3562	0.0001104
3574	0.0001488
3586	0.0001056
3598	0.0001296
3610	0.0001248
3622	0.00012
3634	0.0001872
3646	0.0001248
3658	0.0001056
3670	0.0001632
3682	0.0001536
3694	0.0001392
3706	0.0001728
3718	0.000192
3730	0.000168
3742	0.0001776
3754	0.0001296
3766	0.0001728
3778	0.0002352
3790	0.0002064
3802	0.0002448
3814	0.0002016
3826	0.0001824
3838	0.0002208
