Infrared Spectrum: N,N'-ETHYLENEBIS(MERCAPTOACETAMIDE)
Formula: C6 H12 N2 O2 S2
CAS: 692-93-3
State: SOLID(MINERAL OIL MULL)
Melting point: 140-142 C
Class: COBLENTZ
Instrument: Not specified, most likely a prism, grating, or hybrid spectrometer.
Sampling: TRANSMISSION
Resolution: 4
Origin: ARTHUR D. LITTLE, INC.
1/CM	TRANSMITTANCE
661.175	0.612
669.534	0.594
677.892	0.511
686.251	0.43
694.609	0.542
702.968	0.573
711.326	0.497
719.685	0.413
728.044	0.425
736.402	0.52
744.761	0.647
753.119	0.699
761.478	0.647
769.837	0.752
778.195	0.825
786.554	0.879
794.912	0.883
803.271	0.885
811.629	0.9
819.988	0.913
828.347	0.916
836.705	0.914
845.064	0.911
853.422	0.911
861.781	0.909
870.14	0.899
878.498	0.89
886.857	0.872
895.215	0.867
903.574	0.858
911.932	0.843
920.291	0.819
928.65	0.774
937.008	0.648
945.367	0.408
953.725	0.69
962.084	0.788
970.442	0.791
978.801	0.787
987.16	0.786
995.518	0.808
1003.88	0.829
1012.24	0.854
1020.59	0.878
1028.95	0.902
1037.31	0.928
1045.67	0.934
1054.03	0.921
1062.39	0.885
1070.75	0.827
1079.1	0.862
1087.46	0.913
1095.82	0.902
1104.18	0.89
1112.54	0.872
1120.9	0.851
1129.26	0.815
1137.61	0.76
1145.97	0.669
1154.33	0.465
1162.69	0.288
1171.05	0.604
1179.41	0.793
1187.77	0.788
1196.12	0.753
1204.48	0.692
1212.84	0.622
1221.2	0.44
1229.56	0.429
1237.92	0.476
1246.28	0.253
1254.63	0.545
1262.99	0.731
1271.35	0.706
1279.71	0.658
1288.07	0.572
1296.43	0.469
1304.79	0.327
1313.14	0.418
1321.5	0.461
1329.86	0.297
1338.22	0.339
1346.58	0.46
1354.94	0.507
1363.3	0.478
1371.65	0.405
1380.01	0.376
1388.37	0.401
1396.73	0.38
1405.09	0.335
1413.45	0.268
1421.81	0.223
1430.16	0.2
1438.52	0.16
1446.88	0.118
1455.24	0.166
1463.6	0.179
1471.96	0.295
1480.32	0.356
1488.67	0.358
1497.03	0.345
1505.39	0.311
1513.75	0.283
1522.11	0.233
1530.47	0.186
1538.83	0.093
1547.18	0.039
1555.54	0.043
1563.9	0.054
1572.26	0.117
1580.62	0.204
1588.98	0.241
1597.34	0.244
1605.69	0.183
1614.05	0.12
1622.41	0.057
1630.77	0.034
1639.13	0.039
1647.49	0.069
1655.85	0.082
1664.2	0.169
1672.56	0.311
1680.92	0.439
1689.28	0.558
1697.64	0.667
1706	0.718
1714.36	0.749
1722.71	0.773
1731.07	0.787
1739.43	0.804
1747.79	0.82
1756.15	0.832
1764.51	0.844
1772.87	0.854
1781.22	0.858
1789.58	0.862
1797.94	0.864
1806.3	0.867
1814.66	0.867
1823.02	0.868
1831.38	0.869
1839.73	0.872
1848.09	0.874
1856.45	0.875
1864.81	0.876
1873.17	0.878
1881.53	0.879
1889.89	0.881
1898.24	0.882
1906.6	0.883
1914.96	0.885
1923.32	0.886
1931.68	0.888
1940.04	0.889
1948.4	0.89
1956.75	0.892
1965.11	0.893
1973.47	0.895
1981.83	0.896
1990.19	0.897
1998.55	0.899
2006.91	0.9
2015.27	0.902
2023.62	0.903
2031.98	0.904
2040.34	0.906
2048.7	0.907
2057.06	0.909
2065.42	0.91
2073.78	0.911
2082.13	0.913
2090.49	0.914
2098.85	0.916
2107.21	0.917
2115.57	0.918
2123.93	0.918
2132.29	0.92
2140.64	0.921
2149	0.923
2157.36	0.924
2165.72	0.925
2174.08	0.925
2182.44	0.927
2190.8	0.928
2199.15	0.93
2207.51	0.931
2215.87	0.931
2224.23	0.932
2232.59	0.934
2240.95	0.935
2249.31	0.935
2257.66	0.937
2266.02	0.938
2274.38	0.939
2282.74	0.941
2291.1	0.941
2299.46	0.942
2307.82	0.944
2316.17	0.945
2324.53	0.946
2332.89	0.948
2341.25	0.948
2349.61	0.949
2357.97	0.949
2366.33	0.951
2374.68	0.951
2383.04	0.951
2391.4	0.951
2399.76	0.951
2408.12	0.949
2416.48	0.948
2424.84	0.946
2433.19	0.944
2441.55	0.939
2449.91	0.934
2458.27	0.928
2466.63	0.924
2474.99	0.92
2483.35	0.902
2491.7	0.881
2500.06	0.847
2508.42	0.804
2516.78	0.7
2525.14	0.577
2533.5	0.537
2541.86	0.565
2550.21	0.784
2558.57	0.902
2566.93	0.918
2575.29	0.92
2583.65	0.916
2592.01	0.906
2600.37	0.899
2608.72	0.896
2617.08	0.893
2625.44	0.888
2633.8	0.882
2642.16	0.879
2650.52	0.875
2658.88	0.871
2667.23	0.867
2675.59	0.864
2683.95	0.861
2692.31	0.861
2700.67	0.86
2709.03	0.851
2717.39	0.843
2725.74	0.847
2734.1	0.85
2742.46	0.847
2750.82	0.84
2759.18	0.829
2767.54	0.809
2775.9	0.783
2784.25	0.756
2792.61	0.737
2800.97	0.721
2809.33	0.697
2817.69	0.661
2826.05	0.565
2834.41	0.363
2842.76	0.138
2851.12	0.061
2859.48	0.072
2867.84	0.081
2876.2	0.086
2884.56	0.079
2892.92	0.044
2901.27	0.02
2909.63	0.015
2917.99	0.012
2926.35	0.011
2934.71	0.016
2943.07	0.029
2951.43	0.034
2959.78	0.053
2968.14	0.114
2976.5	0.206
2984.86	0.331
2993.22	0.437
3001.58	0.514
3009.94	0.539
3018.29	0.548
3026.65	0.539
3035.01	0.525
3043.37	0.499
3051.73	0.454
3060.09	0.404
3068.45	0.331
3076.8	0.26
3085.16	0.239
3093.52	0.286
3101.88	0.397
3110.24	0.492
3118.6	0.525
3126.96	0.535
3135.31	0.535
3143.67	0.528
3152.03	0.504
3160.39	0.479
3168.75	0.45
3177.11	0.4
3185.47	0.362
3193.82	0.307
3202.18	0.264
3210.54	0.239
3218.9	0.225
3227.26	0.201
3235.62	0.166
3243.98	0.118
3252.33	0.071
3260.69	0.037
3269.05	0.027
3277.41	0.027
3285.77	0.036
3294.13	0.057
3302.49	0.103
3310.85	0.152
3319.2	0.23
3327.56	0.328
3335.92	0.433
3344.28	0.555
3352.64	0.65
3361	0.728
3369.36	0.795
3377.71	0.843
3386.07	0.885
3394.43	0.917
3402.79	0.937
3411.15	0.942
3419.51	0.946
3427.87	0.949
3436.22	0.951
3444.58	0.951
3452.94	0.949
3461.3	0.949
3469.66	0.948
3478.02	0.946
3486.38	0.945
3494.73	0.944
