Infrared Spectrum: trans-2-Methyl-3-heptene
Formula: C 8 H 16
CAS: 692-96-6
State: gas
Instrument: HP-GC/MS/IRD
Origin: NIST Mass Spectrometry Data Center
1/CM	ABSORBANCE
550	0.0002656
562	0.0001088
574	5.12e-05
586	0.0002944
598	6.4e-05
610	0.0001344
622	7.68e-05
634	3.84e-05
646	0.0002112
658	0.0001056
670	8.32e-05
682	0.0001216
694	8e-05
706	0.0001248
718	0.0001728
730	0.000112
742	0.0001632
754	0.0002752
766	0.0004224
778	0.0004032
790	0.0004032
802	0.0003456
814	0.000224
826	0.0002496
838	0.0002176
850	0.000224
862	0.0002432
874	0.0003232
886	0.0004192
898	0.000448
910	0.00048
922	0.000688
934	0.0012288
946	0.0024896
958	0.0042048
970	0.00472
982	0.0031808
994	0.0015904
1006	0.0009472
1018	0.0006112
1030	0.0005568
1042	0.0008032
1054	0.0008096
1066	0.00072
1078	0.0006208
1090	0.000672
1102	0.0007072
1114	0.0005184
1126	0.0004224
1138	0.0003264
1150	0.0003168
1162	0.0003968
1174	0.0004672
1186	0.000352
1198	0.0002656
1210	0.00032
1222	0.0003808
1234	0.0003584
1246	0.0004704
1258	0.0006784
1270	0.0007424
1282	0.0007456
1294	0.0009344
1306	0.0011008
1318	0.0012288
1330	0.0015232
1342	0.0015968
1354	0.0014816
1366	0.001712
1378	0.0021632
1390	0.001936
1402	0.0011104
1414	0.000832
1426	0.0010272
1438	0.0017248
1450	0.0026304
1462	0.0033728
1474	0.002912
1486	0.0015648
1498	0.000784
1510	0.000464
1522	0.0003008
1534	0.000224
1546	0.0002016
1558	0.0001536
1570	0.0001952
1582	0.000176
1594	0.0001632
1606	0.0001472
1618	0.0001536
1630	0.0001344
1642	0.0001408
1654	0.0001376
1666	0.0001984
1678	0.0001696
1690	0.0001632
1702	0.000144
1714	0.0001536
1726	0.0001824
1738	0.0002048
1750	0.000272
1762	0.0002944
1774	0.0002272
1786	0.000176
1798	0.0001216
1810	0.0001216
1822	0.0001312
1834	0.0001216
1846	0.0001184
1858	0.0001056
1870	8.96e-05
1882	8.64e-05
1894	5.76e-05
1906	6.08e-05
1918	2.88e-05
1930	5.12e-05
1942	4.16e-05
1954	6.4e-06
1966	2.56e-05
1978	2.56e-05
1990	2.88e-05
2002	3.2e-05
2014	5.44e-05
2026	4.48e-05
2038	5.44e-05
2050	3.52e-05
2062	3.52e-05
2074	2.56e-05
2086	3.84e-05
2098	3.2e-05
2110	2.24e-05
2122	3.52e-05
2134	2.24e-05
2146	3.84e-05
2158	2.24e-05
2170	2.88e-05
2182	4.16e-05
2194	4.48e-05
2206	2.88e-05
2218	4.8e-05
2230	2.24e-05
2242	2.56e-05
2254	1.6e-05
2266	3.2e-05
2278	3.52e-05
2290	4.48e-05
2302	5.76e-05
2314	2.88e-05
2326	3.2e-05
2338	3.2e-05
2350	4.48e-05
2362	2.24e-05
2374	4.8e-05
2386	3.2e-05
2398	3.52e-05
2410	3.2e-05
2422	3.2e-05
2434	3.2e-05
2446	3.52e-05
2458	2.56e-05
2470	1.6e-05
2482	9.6e-06
2494	2.24e-05
2506	2.56e-05
2518	4.8e-05
2530	6.08e-05
2542	6.4e-05
2554	7.68e-05
2566	0.000128
2578	0.0001248
2590	0.0001344
2602	0.0001344
2614	0.0001408
2626	0.000144
2638	0.00016
2650	0.0001824
2662	0.0002016
2674	0.000192
2686	0.0002048
2698	0.0002112
2710	0.0003008
2722	0.0003648
2734	0.0004256
2746	0.0004704
2758	0.0004992
2770	0.0005248
2782	0.0005792
2794	0.0007264
2806	0.000944
2818	0.0012416
2830	0.001888
2842	0.0032576
2854	0.005248
2866	0.0084672
2878	0.0121184
2890	0.0116832
2902	0.0112032
2914	0.0131584
2926	0.0166592
2938	0.0197216
2950	0.021296
2962	0.0299648
2974	0.028128
2986	0.0129504
2998	0.0061184
3010	0.0039072
3022	0.0031136
3034	0.0024704
3046	0.001808
3058	0.0012896
3070	0.0010144
3082	0.0008736
3094	0.0006976
3106	0.0005984
3118	0.0005024
3130	0.0004416
3142	0.0004096
3154	0.0003872
3166	0.0004064
3178	0.000352
3190	0.0003392
3202	0.00032
3214	0.0002272
3226	0.0002048
3238	0.000128
3250	8.32e-05
3262	9.92e-05
3274	8.32e-05
3286	7.04e-05
3298	4.8e-05
3310	6.72e-05
3322	6.08e-05
3334	3.2e-05
3346	6.4e-05
3358	9.28e-05
3370	6.72e-05
3382	7.36e-05
3394	6.08e-05
3406	5.12e-05
3418	5.76e-05
3430	4.16e-05
3442	1.92e-05
3454	5.12e-05
3466	6.72e-05
3478	4.48e-05
3490	8.32e-05
3502	5.76e-05
3514	3.84e-05
3526	4.48e-05
3538	4.16e-05
3550	3.84e-05
3562	2.24e-05
3574	5.12e-05
3586	3.52e-05
3598	1.28e-05
3610	1.28e-05
3622	4.8e-05
3634	4.8e-05
3646	1.92e-05
3658	3.84e-05
3670	1.6e-05
3682	2.88e-05
3694	7.68e-05
3706	0.0001056
3718	6.4e-05
3730	6.08e-05
3742	3.2e-05
3754	4.8e-05
3766	2.88e-05
3778	9.6e-05
3790	5.76e-05
3802	7.04e-05
3814	9.28e-05
3826	8.96e-05
3838	7.36e-05
