Infrared Spectrum: HYDANTOIN, 1-CHLORO-5,5-DIMETHYL-
Formula: C5 H7 Cl N2 O2
CAS: 6921-17-1
State: SOLID (OIL MULL)
Class: COBLENTZ III
Instrument: BAIRD (GRATING)
Instrument parameters: NaCl PRISM
Sampling: TRANSMISSION
Resolution: 2
Origin: WYANDOTTE CHEMICALS CORP.
1/CM	TRANSMITTANCE
4000	0.4392
3991	0.4403
3982	0.4412
3973	0.442
3964	0.4428
3955	0.4435
3946	0.4446
3937	0.446
3928	0.4474
3919	0.4489
3910	0.4504
3901	0.4526
3892	0.4547
3883	0.4569
3874	0.459
3865	0.461
3856	0.4632
3847	0.4646
3838	0.4657
3829	0.4669
3820	0.4683
3811	0.4698
3802	0.4716
3793	0.4733
3784	0.4751
3775	0.477
3766	0.4791
3757	0.4812
3748	0.4834
3739	0.4856
3730	0.4876
3721	0.4896
3712	0.4915
3703	0.4934
3694	0.4954
3685	0.4973
3676	0.4992
3667	0.501
3658	0.5029
3649	0.5048
3640	0.5067
3631	0.5085
3622	0.51
3613	0.5115
3604	0.513
3595	0.5144
3586	0.5153
3577	0.5162
3568	0.5171
3559	0.5177
3550	0.5181
3541	0.5186
3532	0.5188
3523	0.5181
3514	0.5155
3505	0.5117
3496	0.5062
3487	0.5002
3478	0.4959
3469	0.4935
3460	0.4916
3451	0.4897
3442	0.4881
3433	0.4869
3424	0.4862
3415	0.4864
3406	0.487
3397	0.4922
3388	0.4979
3379	0.502
3370	0.505
3361	0.5072
3352	0.5082
3343	0.5084
3334	0.5087
3325	0.5079
3316	0.4943
3307	0.4549
3298	0.4112
3289	0.3672
3280	0.323
3271	0.2785
3262	0.2339
3253	0.189
3244	0.1439
3235	0.1091
3226	0.0749
3217	0.0605
3208	0.0545
3199	0.0525
3190	0.0567
3181	0.0724
3172	0.087
3163	0.1018
3154	0.1166
3145	0.1316
3136	0.1465
3127	0.1617
3118	0.1768
3109	0.1921
3100	0.2074
3091	0.2188
3082	0.2222
3073	0.2242
3064	0.2252
3055	0.2442
3046	0.2677
3037	0.2913
3028	0.3026
3019	0.3041
3010	0.2974
3001	0.2555
2992	0.2076
2983	0.1595
2974	0.111
2965	0.0645
2956	0.0469
2947	0.0374
2938	0.0343
2929	0.0336
2920	0.0358
2911	0.0463
2902	0.0729
2893	0.0892
2884	0.1106
2875	0.1176
2866	0.1158
2857	0.1052
2848	0.1029
2839	0.2226
2830	0.3786
2821	0.4541
2812	0.4824
2803	0.508
2794	0.5252
2785	0.5367
2776	0.5458
2767	0.5515
2758	0.5544
2749	0.5553
2740	0.5547
2731	0.5514
2722	0.5437
2713	0.5248
2704	0.497
2695	0.476
2686	0.4955
2677	0.5248
2668	0.5466
2659	0.5652
2650	0.5834
2641	0.598
2632	0.6074
2623	0.61
2614	0.612
2605	0.6143
2596	0.6184
2587	0.6227
2578	0.6273
2569	0.6321
2560	0.6372
2551	0.6422
2542	0.6471
2533	0.6518
2524	0.6555
2515	0.6587
2506	0.661
2497	0.6625
2488	0.6638
2479	0.6647
2470	0.6658
2461	0.6697
2452	0.6756
2443	0.6806
2434	0.6821
2425	0.6772
2416	0.6658
2407	0.6642
2398	0.6757
2389	0.6891
2380	0.6998
2371	0.7033
2362	0.7008
2353	0.6976
2344	0.6961
2335	0.6971
2326	0.7006
2317	0.7058
2308	0.7146
2299	0.7258
2290	0.7362
2281	0.743
2272	0.7488
2263	0.7538
2254	0.7587
2245	0.7645
2236	0.7682
2227	0.7711
2218	0.7745
2209	0.7791
2200	0.7854
2191	0.7871
2182	0.7875
2173	0.7889
2164	0.7937
2155	0.7996
2146	0.8028
2137	0.8025
2128	0.8022
2119	0.8042
2110	0.8133
2101	0.8231
2092	0.8294
2083	0.8321
2074	0.8324
2065	0.8391
2056	0.8462
2047	0.8502
2038	0.8528
2029	0.8552
2020	0.8546
2011	0.8528
2002	0.8515
1993	0.8578
1984	0.8677
1975	0.8718
1966	0.8738
1957	0.8762
1948	0.8787
1939	0.8806
1930	0.8823
1921	0.8827
1912	0.8828
1903	0.8823
1894	0.877
1885	0.8603
1876	0.8411
1867	0.8181
1858	0.7865
1849	0.7449
1840	0.7065
1831	0.66
1822	0.5789
1813	0.4974
1804	0.365
1795	0.2569
1786	0.1362
1777	0.0425
1768	0.0355
1759	0.0348
1750	0.0382
1741	0.0193
1732	0.018
1723	0.0324
1714	0.0602
1705	0.1054
1696	0.1495
1687	0.2091
1678	0.2845
1669	0.3342
1660	0.3736
1651	0.4425
1642	0.4674
1633	0.4838
1624	0.5053
1615	0.5277
1606	0.5482
1597	0.572
1588	0.6033
1579	0.6223
1570	0.6646
1561	0.6708
1552	0.6733
1543	0.7001
1534	0.7
1525	0.6957
1516	0.6958
1507	0.6955
1498	0.6608
1489	0.548
1480	0.368
1471	0.2199
1462	0.2947
1453	0.3948
1444	0.4542
1435	0.5989
1426	0.6209
1417	0.6461
1408	0.565
1399	0.1762
1390	0.1226
1381	0.0815
1372	0.165
1363	0.0421
1354	0.1095
1345	0.296
1336	0.4347
1327	0.5318
1318	0.5564
1309	0.4289
1300	0.4212
1291	0.5358
1282	0.5925
1273	0.6407
1264	0.6822
1255	0.7001
1246	0.6965
1237	0.5417
1228	0.2746
1219	0.1149
1210	0.1946
1201	0.3466
1192	0.4653
1183	0.568
1174	0.622
1165	0.6483
1156	0.655
1147	0.5376
1138	0.536
1129	0.6798
1120	0.7247
1111	0.7426
1102	0.6884
1093	0.2516
1084	0.2133
1075	0.551
1066	0.6367
1057	0.5415
1048	0.6085
1039	0.6776
1030	0.7122
1021	0.7458
1012	0.7746
1003	0.7908
994	0.8273
985	0.8423
976	0.846
967	0.8561
958	0.863
949	0.8467
940	0.6806
931	0.4009
922	0.7108
913	0.8005
904	0.8505
895	0.8643
886	0.8781
877	0.89
868	0.8921
859	0.8871
850	0.8893
841	0.8931
832	0.8934
823	0.887
814	0.8681
805	0.836
796	0.5109
787	0.7004
778	0.6493
769	0.4665
760	0.3394
751	0.6662
742	0.7197
733	0.4527
724	0.4787
715	0.6747
706	0.7892
697	0.8387
688	0.8596
679	0.8377
670	0.6857
661	0.349
652	0.5858
643	0.3491
634	0.495
