Infrared Spectrum: Methylenediformamide
Formula: C 3 H 6 N 2 O 2
CAS: 6921-98-8
State: gas
Origin: EPA-IR VAPOR PHASE LIBRARY
1/CM	ABSORBANCE
549.8	0.0174
559.445	0.01675
569.09	0.0165
578.734	0.01603
588.379	0.01462
598.024	0.01267
607.669	0.01177
617.313	0.0105
626.958	0.01021
636.603	0.00899
646.248	0.00741
655.893	0.00603
665.537	0.00506
675.182	0.00454
684.827	0.00425
694.472	0.00404
704.116	0.00391
713.761	0.00406
723.406	0.0039
733.051	0.00416
742.695	0.00415
752.34	0.00442
761.985	0.00434
771.63	0.00473
781.275	0.00493
790.919	0.00495
800.564	0.00457
810.209	0.00387
819.854	0.00405
829.498	0.00387
839.143	0.00331
848.788	0.00345
858.433	0.00328
868.078	0.0034
877.722	0.00388
887.367	0.00408
897.012	0.00446
906.657	0.00488
916.301	0.00615
925.946	0.00728
935.591	0.00921
945.236	0.01144
954.88	0.01383
964.525	0.0151
974.17	0.01336
983.815	0.01084
993.46	0.009
1003.1	0.00786
1012.75	0.0078
1022.39	0.00658
1032.04	0.00566
1041.68	0.00455
1051.33	0.00439
1060.97	0.00459
1070.62	0.00434
1080.26	0.00487
1089.91	0.00585
1099.55	0.00716
1109.2	0.01073
1118.84	0.01658
1128.49	0.02309
1138.13	0.03604
1147.78	0.06072
1157.42	0.09786
1167.07	0.13367
1176.71	0.12751
1186.36	0.0928
1196	0.04105
1205.64	0.02512
1215.29	0.02031
1224.93	0.01665
1234.58	0.01502
1244.22	0.01163
1253.87	0.00942
1263.51	0.00827
1273.16	0.00801
1282.8	0.01039
1292.45	0.01114
1302.09	0.01094
1311.74	0.0084
1321.38	0.00682
1331.03	0.00594
1340.67	0.00601
1350.32	0.0068
1359.96	0.009
1369.61	0.01412
1379.25	0.02304
1388.9	0.02989
1398.54	0.02668
1408.18	0.01794
1417.83	0.01498
1427.47	0.01828
1437.12	0.02482
1446.76	0.03328
1456.41	0.04729
1466.05	0.07694
1475.7	0.11603
1485.34	0.12511
1494.99	0.10392
1504.63	0.06197
1514.28	0.03734
1523.92	0.02287
1533.57	0.01356
1543.21	0.00871
1552.86	0.00611
1562.5	0.0045
1572.15	0.00353
1581.79	0.00311
1591.44	0.0028
1601.08	0.00281
1610.73	0.00286
1620.37	0.0033
1630.01	0.00405
1639.66	0.0055
1649.3	0.00791
1658.95	0.01222
1668.59	0.02009
1678.24	0.0309
1687.88	0.04445
1697.53	0.07226
1707.17	0.14846
1716.82	0.2644
1726.46	0.27921
1736.11	0.2353
1745.75	0.12871
1755.4	0.08007
1765.04	0.0367
1774.69	0.0256
1784.33	0.01627
1793.98	0.00827
1803.62	0.00479
1813.27	0.00342
1822.91	0.00258
1832.55	0.00217
1842.2	0.00172
1851.84	0.00169
1861.49	0.00155
1871.13	0.00152
1880.78	0.00157
1890.42	0.0016
1900.07	0.0017
1909.71	0.00166
1919.36	0.00161
1929	0.00153
1938.65	0.0014
1948.29	0.00142
1957.94	0.00137
1967.58	0.00131
1977.23	0.00134
1986.87	0.00128
1996.52	0.00114
2006.16	0.00116
2015.81	0.00122
2025.45	0.00122
2035.1	0.00123
2044.74	0.00116
2054.38	0.00121
2064.03	0.00125
2073.67	0.00133
2083.32	0.00145
2092.96	0.00161
2102.61	0.00175
2112.25	0.00191
2121.9	0.00211
2131.54	0.00206
2141.19	0.00192
2150.83	0.0016
2160.48	0.0015
2170.12	0.00129
2179.77	0.00123
2189.41	0.00117
2199.06	0.00109
2208.7	0.00107
2218.35	0.0011
2227.99	0.0011
2237.64	0.001
2247.28	0.00108
2256.92	0.0009562
2266.57	0.00107
2276.21	0.00108
2285.86	0.00107
2295.5	0.00101
2305.15	0.0009407
2314.79	0.0009647
2324.44	0.00103
2334.08	0.00101
2343.73	0.00103
2353.37	0.00101
2363.02	0.00107
2372.66	0.00112
2382.31	0.00128
2391.95	0.00107
2401.6	0.00137
2411.24	0.00136
2420.89	0.00153
2430.53	0.00168
2440.18	0.00178
2449.82	0.00178
2459.47	0.00157
2469.11	0.00134
2478.75	0.00136
2488.4	0.00107
2498.04	0.00108
2507.69	0.001
2517.33	0.00104
2526.98	0.00106
2536.62	0.0009859
2546.27	0.00101
2555.91	0.00107
2565.56	0.00103
2575.2	0.00108
2584.85	0.00124
2594.49	0.0012
2604.14	0.00118
2613.78	0.00122
2623.43	0.00171
2633.07	0.00189
2642.72	0.00199
2652.36	0.002
2662.01	0.00219
2671.65	0.0022
2681.29	0.00216
2690.94	0.00217
2700.58	0.00249
2710.23	0.00258
2719.87	0.00332
2729.52	0.00497
2739.16	0.00868
2748.81	0.01107
2758.45	0.01104
2768.1	0.00764
2777.74	0.00521
2787.39	0.00451
2797.03	0.00496
2806.68	0.0062
2816.32	0.00901
2825.97	0.01487
2835.61	0.02691
2845.26	0.04564
2854.9	0.05603
2864.55	0.05574
2874.19	0.04008
2883.84	0.02646
2893.48	0.01653
2903.12	0.01071
2912.77	0.0072
2922.41	0.00568
2932.06	0.00525
2941.7	0.00573
2951.35	0.00695
2960.99	0.00778
2970.64	0.0079
2980.28	0.00745
2989.93	0.00609
2999.57	0.00447
3009.22	0.00311
3018.86	0.00251
3028.51	0.00203
3038.15	0.00188
3047.8	0.00179
3057.44	0.00158
3067.09	0.00155
3076.73	0.00176
3086.38	0.00184
3096.02	0.00247
3105.67	0.00286
3115.31	0.00275
3124.95	0.00216
3134.6	0.00171
3144.24	0.00157
3153.89	0.00145
3163.53	0.00129
3173.18	0.00127
3182.82	0.00151
3192.47	0.00154
3202.11	0.00163
3211.76	0.00159
3221.4	0.00152
3231.05	0.00149
3240.69	0.00149
3250.34	0.00156
3259.98	0.00164
3269.63	0.00178
3279.27	0.00163
3288.92	0.00179
3298.56	0.0019
3308.21	0.00196
3317.85	0.00189
3327.49	0.00208
3337.14	0.002
3346.78	0.00216
3356.43	0.00267
3366.07	0.0026
3375.72	0.00293
3385.36	0.00333
3395.01	0.00391
3404.65	0.00533
3414.3	0.00749
3423.94	0.01007
3433.59	0.01281
3443.23	0.01796
3452.88	0.02662
3462.52	0.03234
3472.17	0.02867
3481.81	0.01879
3491.46	0.00873
3501.1	0.00443
3510.75	0.00309
3520.39	0.00231
3530.04	0.00186
3539.68	0.00138
3549.32	0.00108
3558.97	0.0008169
3568.61	0.0009313
3578.26	0.0006512
3587.9	0.0008774
3597.55	0.0007596
3607.19	0.0005975
3616.84	0.0005301
3626.48	0.0006022
3636.13	0.0006691
3645.77	0.0006796
3655.42	0.0005761
3665.06	0.0005086
3674.71	0.000419
3684.35	0.0008785
3694	0.0004103
3703.64	0.0005095
3713.29	0.000716
3722.93	0.00063
3732.58	0.0005024
3742.22	0.0006316
3751.86	0.0005578
3761.51	0.0006131
3771.15	0.000529
3780.8	0.0009003
3790.44	0.0007569
3800.09	0.0006166
3809.73	0.0006164
3819.38	0.0005729
3829.02	0.00059
3838.67	0.0004969
3848.31	0.0005021
3857.96	0.0005213
3867.6	0.0006147
3877.25	0.0004595
3886.89	0.0004679
3896.54	0.0006301
3906.18	0.0005172
3915.83	0.0006219
3925.47	0.0007443
3935.12	0.0005514
3944.76	0.0006207
3954.41	0.0008055
3964.05	0.0005609
3973.69	0.000691
3983.34	0.0005594
3992.98	0.000899
