Infrared Spectrum: PROPYLAMINE, 3,3'-(2,2-DIMETHYL TRIMETHYLENEDIOXY)BIS-
Formula: C11 H26 N2 O2
CAS: 6921-05-7
Class: COBLENTZ
Instrument: Not specified, most likely a prism, grating, or hybrid spectrometer.
Sampling: TRANSMISSION
Path length: SMEAR
Resolution: 4
Origin: TENNESSEE EASTMAN COMPANY, RESEARCH LABORATORIES
MICROMETERS	TRANSMITTANCE
2.027	0.931
2.0679	0.939
2.10879	0.939
2.14969	0.945
2.19059	0.948
2.23148	0.95
2.27238	0.934
2.31328	0.9
2.35417	0.9
2.39507	0.902
2.43597	0.91
2.47686	0.919
2.51776	0.921
2.55865	0.926
2.59955	0.931
2.64045	0.939
2.68134	0.945
2.72224	0.95
2.76314	0.95
2.80403	0.945
2.84493	0.931
2.88583	0.898
2.92672	0.809
2.96762	0.514
3.00852	0.526
3.04941	0.504
3.09031	0.516
3.13121	0.603
3.1721	0.631
3.213	0.732
3.2539	0.787
3.29479	0.799
3.33569	0.668
3.37659	0.084
3.41748	0.041
3.45838	0.042
3.49928	0.034
3.54017	0.144
3.58107	0.264
3.62196	0.42
3.66286	0.509
3.70376	0.566
3.74465	0.643
3.78555	0.763
3.82645	0.814
3.86734	0.867
3.90824	0.903
3.94914	0.927
3.99003	0.95
4.03093	0.958
4.07183	0.967
4.11272	0.972
4.15362	0.975
4.19452	0.979
4.23541	0.979
4.27631	0.979
4.31721	0.979
4.3581	0.979
4.399	0.981
4.4399	0.982
4.48079	0.986
4.52169	0.977
4.56259	0.97
4.60348	0.972
4.64438	0.957
4.68527	0.955
4.72617	0.958
4.76707	0.955
4.80796	0.95
4.84886	0.946
4.88976	0.943
4.93065	0.943
4.97155	0.95
5.01245	0.96
5.05334	0.962
5.09424	0.967
5.13514	0.972
5.17603	0.975
5.21693	0.977
5.25783	0.977
5.29872	0.975
5.33962	0.974
5.38052	0.975
5.42141	0.979
5.46231	0.982
5.50321	0.987
5.5441	0.991
5.585	0.993
5.6259	0.993
5.66679	0.993
5.70769	0.989
5.74858	0.979
5.78948	0.963
5.83038	0.951
5.87127	0.939
5.91217	0.914
5.95307	0.89
5.99396	0.849
6.03486	0.799
6.07576	0.74
6.11665	0.662
6.15755	0.576
6.19845	0.519
6.23934	0.478
6.28024	0.471
6.32114	0.521
6.36203	0.595
6.40293	0.651
6.44383	0.72
6.48472	0.742
6.52562	0.782
6.56652	0.795
6.60741	0.795
6.64831	0.773
6.68921	0.615
6.7301	0.25
6.771	0.231
6.81189	0.264
6.85279	0.313
6.89369	0.456
6.93458	0.506
6.97548	0.5
7.01638	0.49
7.05727	0.559
7.09817	0.531
7.13907	0.461
7.17996	0.396
7.22086	0.307
7.26176	0.212
7.30265	0.317
7.34355	0.31
7.38445	0.212
7.42534	0.358
7.46624	0.504
7.50714	0.677
7.54803	0.708
7.58893	0.687
7.62983	0.646
7.67072	0.586
7.71162	0.559
7.75252	0.533
7.79341	0.499
7.83431	0.521
7.8752	0.567
7.9161	0.626
7.957	0.65
7.99789	0.617
8.03879	0.536
8.07969	0.533
8.12058	0.54
8.16148	0.552
8.20238	0.583
8.24327	0.608
8.28417	0.636
8.32507	0.639
8.36596	0.566
8.40686	0.507
8.44776	0.5
8.48865	0.511
8.52955	0.493
8.57045	0.459
8.61134	0.437
8.65224	0.423
8.69314	0.394
8.73403	0.322
8.77493	0.214
8.81583	0.106
8.85672	0.041
8.89762	0.025
8.93851	0.02
8.97941	0.018
9.02031	0.017
9.0612	0.017
9.1021	0.02
9.143	0.025
9.18389	0.046
9.22479	0.089
9.26569	0.145
9.30658	0.19
9.34748	0.204
9.38838	0.214
9.42927	0.248
9.47017	0.277
9.51107	0.283
9.55196	0.274
9.59286	0.262
9.63376	0.259
9.67465	0.265
9.71555	0.284
9.75645	0.31
9.79734	0.337
9.83824	0.363
9.87914	0.391
9.92003	0.416
9.96093	0.427
10.0018	0.435
10.0427	0.439
10.0836	0.445
10.1245	0.454
10.1654	0.473
10.2063	0.497
10.2472	0.504
10.2881	0.511
10.329	0.516
10.3699	0.519
10.4108	0.523
10.4517	0.519
10.4926	0.495
10.5335	0.468
10.5744	0.433
10.6153	0.406
10.6562	0.377
10.6971	0.349
10.738	0.324
10.7789	0.308
10.8198	0.293
10.8607	0.286
10.9015	0.276
10.9424	0.272
10.9833	0.269
11.0242	0.269
11.0651	0.269
11.106	0.265
11.1469	0.257
11.1878	0.246
11.2287	0.24
11.2696	0.234
11.3105	0.229
11.3514	0.228
11.3923	0.228
11.4332	0.228
11.4741	0.228
11.515	0.228
11.5559	0.228
11.5968	0.224
11.6377	0.219
11.6786	0.212
11.7195	0.202
11.7604	0.193
11.8013	0.185
11.8422	0.178
11.8831	0.174
11.924	0.169
11.9649	0.166
12.0058	0.164
12.0467	0.162
12.0875	0.162
12.1284	0.162
12.1693	0.162
12.2102	0.166
12.2511	0.169
12.292	0.174
12.3329	0.18
12.3738	0.186
12.4147	0.198
12.4556	0.205
12.4965	0.217
12.5374	0.228
12.5783	0.246
12.6192	0.262
12.6601	0.272
12.701	0.289
12.7419	0.3
12.7828	0.303
12.8237	0.308
12.8646	0.313
12.9055	0.32
12.9464	0.325
12.9873	0.331
13.0282	0.339
13.0691	0.351
13.11	0.368
13.1509	0.397
13.1918	0.418
13.2327	0.445
13.2735	0.471
13.3144	0.504
13.3553	0.528
13.3962	0.555
13.4371	0.583
13.478	0.6
13.5189	0.617
13.5598	0.629
13.6007	0.641
13.6416	0.65
13.6825	0.662
13.7234	0.672
13.7643	0.677
13.8052	0.684
13.8461	0.692
13.887	0.698
13.9279	0.703
13.9688	0.706
14.0097	0.71
14.0506	0.713
14.0915	0.718
14.1324	0.722
14.1733	0.725
14.2142	0.727
14.2551	0.728
14.296	0.73
14.3369	0.73
14.3778	0.73
14.4187	0.73
14.4595	0.73
14.5004	0.73
14.5413	0.734
14.5822	0.734
14.6231	0.73
14.664	0.732
14.7049	0.734
14.7458	0.734
14.7867	0.732
14.8276	0.73
14.8685	0.727
14.9094	0.727
14.9503	0.723
14.9912	0.722
15.0321	0.72
15.073	0.715
15.1139	0.711
15.1548	0.711
15.1957	0.706
15.2366	0.701
15.2775	0.698
15.3184	0.696
15.3593	0.694
15.4002	0.691
15.4411	0.687
15.482	0.686
15.5229	0.682
15.5638	0.682
15.6047	0.68
15.6455	0.677
15.6864	0.675
15.7273	0.674
15.7682	0.672
15.8091	0.67
15.85	0.67
15.8909	0.67
15.9318	0.67
15.9727	0.67
