Infrared Spectrum: 10-Dodecyn-1-ol
Formula: C 12 H 22 O
CAS: 69221-99-4
State: gas
Origin: EPA-IR VAPOR PHASE LIBRARY
1/CM	ABSORBANCE
549.8	0.001458
559.445	0.002008
569.09	0.0012492
578.734	0.001244
588.379	0.001368
598.024	0.0005857
607.669	0.0007778
617.313	0.001668
626.958	0.0004215
636.603	0.00095
646.248	0.0005211
655.893	0.0011848
665.537	0.0004667
675.182	0.0008795
684.827	0.0010542
694.472	0.0010654
704.116	0.001488
713.761	0.002268
723.406	0.001708
733.051	0.0013322
742.695	0.001758
752.34	0.001568
761.985	0.001888
771.63	0.0012246
781.275	0.0012421
790.919	0.001778
800.564	0.001438
810.209	0.0009141
819.854	0.001638
829.498	0.0009489
839.143	0.0009558
848.788	0.001438
858.433	0.001548
868.078	0.002198
877.722	0.001688
887.367	0.002428
897.012	0.002338
906.657	0.002728
916.301	0.002288
925.946	0.002568
935.591	0.003208
945.236	0.003208
954.88	0.003888
964.525	0.004288
974.17	0.004758
983.815	0.005828
993.46	0.007108
1003.1	0.008718
1012.75	0.011018
1022.39	0.012998
1032.04	0.017938
1041.68	0.019038
1051.33	0.020478
1060.97	0.016198
1070.62	0.012338
1080.26	0.010288
1089.91	0.007408
1099.55	0.004428
1109.2	0.003488
1118.84	0.003788
1128.49	0.002828
1138.13	0.003378
1147.78	0.002748
1157.42	0.002948
1167.07	0.002118
1176.71	0.003338
1186.36	0.004018
1196	0.003698
1205.64	0.003498
1215.29	0.003688
1224.93	0.005398
1234.58	0.004348
1244.22	0.004598
1253.87	0.005288
1263.51	0.005018
1273.16	0.004668
1282.8	0.005638
1292.45	0.005638
1302.09	0.005528
1311.74	0.005908
1321.38	0.007008
1331.03	0.008208
1340.67	0.008088
1350.32	0.008498
1359.96	0.008298
1369.61	0.007808
1379.25	0.008628
1388.9	0.007868
1398.54	0.006028
1408.18	0.004848
1417.83	0.004798
1427.47	0.005088
1437.12	0.008158
1446.76	0.009848
1456.41	0.010588
1466.05	0.009578
1475.7	0.006538
1485.34	0.004218
1494.99	0.003038
1504.63	0.002148
1514.28	0.002088
1523.92	0.001728
1533.57	0.001728
1543.21	0.001698
1552.86	0.001508
1562.5	0.0012083
1572.15	0.0010727
1581.79	0.0011416
1591.44	0.0008146
1601.08	0.0008591
1610.73	0.0008206
1620.37	0.0007499
1630.01	0.0005535
1639.66	0.0005627
1649.3	0.0007052
1658.95	0.0009019
1668.59	0.0006135
1678.24	0.0007721
1687.88	0.0005595
1697.53	0.0008285
1707.17	0.0007256
1716.82	0.0007506
1726.46	0.00035517
1736.11	0.0005908
1745.75	0.00042156
1755.4	0.0006396
1765.04	0.0006302
1774.69	0.0005956
1784.33	0.0004575
1793.98	0.0006484
1803.62	0.0006214
1813.27	0.0005596
1822.91	0.0006625
1832.55	0.000448
1842.2	0.0006286
1851.84	0.0007148
1861.49	0.0007859
1871.13	0.0005289
1880.78	0.0005792
1890.42	0.0007447
1900.07	0.0006556
1909.71	0.0006185
1919.36	0.0005349
1929	0.0006895
1938.65	0.0006636
1948.29	0.0005089
1957.94	0.0007084
1967.58	0.0006818
1977.23	0.0006599
1986.87	0.0006236
1996.52	0.0007207
2006.16	0.0007376
2015.81	0.0007376
2025.45	0.0008627
2035.1	0.0008844
2044.74	0.0010473
2054.38	0.00096
2064.03	0.0009074
2073.67	0.0009783
2083.32	0.0006169
2092.96	0.0006179
2102.61	0.0007336
2112.25	0.0007812
2121.9	0.0006191
2131.54	0.0006203
2141.19	0.0006726
2150.83	0.000796
2160.48	0.0006776
2170.12	0.0007427
2179.77	0.0005627
2189.41	0.0008388
2199.06	0.0006474
2208.7	0.0004345
2218.35	0.0006182
2227.99	0.0006841
2237.64	0.0006983
2247.28	0.0005823
2256.92	0.0006544
2266.57	0.0006393
2276.21	0.0007969
2285.86	0.0007471
2295.5	0.0007321
2305.15	0.0007381
2314.79	0.00041134
2324.44	0.0008486
2334.08	0.0008244
2343.73	0.0010483
2353.37	0.0007923
2363.02	0.0004785
2372.66	0.0007548
2382.31	0.0008208
2391.95	0.0009458
2401.6	0.0007594
2411.24	0.0008857
2420.89	0.0008597
2430.53	0.0007745
2440.18	0.000748
2449.82	0.0007137
2459.47	0.0006974
2469.11	0.0008049
2478.75	0.0009303
2488.4	0.0008615
2498.04	0.0007714
2507.69	0.000717
2517.33	0.0009959
2526.98	0.0010334
2536.62	0.0010538
2546.27	0.0008618
2555.91	0.0007167
2565.56	0.0009456
2575.2	0.0010812
2584.85	0.0011844
2594.49	0.0012611
2604.14	0.0011404
2613.78	0.001398
2623.43	0.001538
2633.07	0.001458
2642.72	0.001458
2652.36	0.001918
2662.01	0.001878
2671.65	0.001918
2681.29	0.002078
2690.94	0.002388
2700.58	0.002038
2710.23	0.002138
2719.87	0.002058
2729.52	0.002528
2739.16	0.002968
2748.81	0.003118
2758.45	0.003318
2768.1	0.003488
2777.74	0.003328
2787.39	0.003778
2797.03	0.004168
2806.68	0.004918
2816.32	0.006418
2825.97	0.008148
2835.61	0.011198
2845.26	0.018958
2854.9	0.036718
2864.55	0.052428
2874.19	0.046898
2883.84	0.036418
2893.48	0.033048
2903.12	0.041478
2912.77	0.060788
2922.41	0.094058
2932.06	0.138448
2941.7	0.128868
2951.35	0.072598
2960.99	0.035528
2970.64	0.020588
2980.28	0.012868
2989.93	0.008488
2999.57	0.007008
3009.22	0.005498
3018.86	0.004628
3028.51	0.004218
3038.15	0.003298
3047.8	0.002968
3057.44	0.002368
3067.09	0.002228
3076.73	0.001578
3086.38	0.001818
3096.02	0.001325
3105.67	0.0007209
3115.31	0.0012651
3124.95	0.0010786
3134.6	0.0006859
3144.24	0.0009081
3153.89	0.001358
3163.53	0.0011754
3173.18	0.0008062
3182.82	0.0006838
3192.47	0.0008651
3202.11	0.000878
3211.76	0.0006238
3221.4	0.000219
3231.05	0.0009181
3240.69	0.000607
3250.34	0.00043342
3259.98	0.000642
3269.63	0.000203
3279.27	0.0007325
3288.92	0.000205
3298.56	0.0006469
3308.21	0.0005137
3317.85	0.0006692
3327.49	0.0004888
3337.14	0.0003059
3346.78	0.0006119
3356.43	0.0003201
3366.07	0.0004473
3375.72	0.0009814
3385.36	0.0008445
3395.01	0.000851
3404.65	0.0010442
3414.3	0.0012247
3423.94	0.0008068
3433.59	0.0010684
3443.23	0.000583
3452.88	0.0006836
3462.52	0.000135
3472.17	0.0009488
3481.81	0.001418
3491.46	0.0010003
3501.1	0.001194
3510.75	0.0006932
3520.39	0.0005762
3530.04	0.000668
3539.68	0.0005178
3549.32	0
3558.97	0.0006213
3568.61	0.0011642
3578.26	0.0006154
3587.9	0.0006051
3597.55	0.0005525
3607.19	0.0011789
3616.84	0.001448
3626.48	0.0011813
3636.13	0.001578
3645.77	0.002708
3655.42	0.004408
3665.06	0.005858
3674.71	0.005508
3684.35	0.003138
3694	0.001688
3703.64	0.0008385
3713.29	0.001588
3722.93	0.001558
3732.58	0.0009523
3742.22	0.000879
3751.86	0.0006535
3761.51	0.0005897
3771.15	0.001448
3780.8	0.0009813
3790.44	0.000985
3800.09	0.000787
3809.73	0.0009501
3819.38	0.0012132
3829.02	0.0008977
3838.67	0.0010778
3848.31	0.000562
3857.96	0.0012438
3867.6	0.0009347
3877.25	0.0011748
3886.89	0.0008879
3896.54	0.0006799
3906.18	0.0011146
3915.83	0.0010621
3925.47	0.0008859
3935.12	0.0010008
3944.76	0.0009913
3954.41	0.0008393
3964.05	0.001368
3973.69	0.0008004
3983.34	0.0006825
3992.98	0.0010577
