Infrared Spectrum: 3,5-Di-t-butyl-4-hydroxybenzyl ether
Formula: C 30 H 46 O 3
CAS: 6922-60-7
State: gas
Origin: EPA-IR VAPOR PHASE LIBRARY
1/CM	ABSORBANCE
549.8	0.00146
559.445	0.00111
569.09	0.00146
578.734	0.00101
588.379	0.00104
598.024	0.00131
607.669	0.00176
617.313	0.00191
626.958	0.0018
636.603	0.00168
646.248	0.00171
655.893	0.00222
665.537	0.00279
675.182	0.00255
684.827	0.00158
694.472	0.0009583
704.116	0.0007407
713.761	0.0006585
723.406	0.0006206
733.051	0.0006642
742.695	0.0009993
752.34	0.00181
761.985	0.00362
771.63	0.00381
781.275	0.00341
790.919	0.00277
800.564	0.00202
810.209	0.00184
819.854	0.00109
829.498	0.0007867
839.143	0.0008689
848.788	0.00119
858.433	0.00314
868.078	0.00761
877.722	0.01055
887.367	0.00741
897.012	0.00346
906.657	0.00229
916.301	0.00246
925.946	0.00281
935.591	0.00258
945.236	0.00219
954.88	0.00222
964.525	0.00231
974.17	0.00232
983.815	0.00243
993.46	0.00229
1003.1	0.00253
1012.75	0.00314
1022.39	0.00357
1032.04	0.00356
1041.68	0.00382
1051.33	0.00514
1060.97	0.00826
1070.62	0.014
1080.26	0.02147
1089.91	0.02514
1099.55	0.02152
1109.2	0.0176
1118.84	0.01602
1128.49	0.00942
1138.13	0.00809
1147.78	0.01274
1157.42	0.02297
1167.07	0.02217
1176.71	0.0154
1186.36	0.01619
1196	0.01918
1205.64	0.02519
1215.29	0.02118
1224.93	0.02195
1234.58	0.02262
1244.22	0.01916
1253.87	0.01446
1263.51	0.00905
1273.16	0.0064
1282.8	0.00549
1292.45	0.00548
1302.09	0.00708
1311.74	0.01023
1321.38	0.00769
1331.03	0.00581
1340.67	0.00905
1350.32	0.01394
1359.96	0.0145
1369.61	0.01984
1379.25	0.01238
1388.9	0.01079
1398.54	0.01549
1408.18	0.00888
1417.83	0.01115
1427.47	0.02165
1437.12	0.02899
1446.76	0.01914
1456.41	0.01222
1466.05	0.00996
1475.7	0.00989
1485.34	0.00948
1494.99	0.00467
1504.63	0.00254
1514.28	0.00177
1523.92	0.00135
1533.57	0.00113
1543.21	0.00102
1552.86	0.0009313
1562.5	0.000904
1572.15	0.0009225
1581.79	0.00107
1591.44	0.00121
1601.08	0.00113
1610.73	0.00107
1620.37	0.00107
1630.01	0.00144
1639.66	0.00182
1649.3	0.0018
1658.95	0.00106
1668.59	0.000718
1678.24	0.0005796
1687.88	0.0004947
1697.53	0.0005668
1707.17	0.0008596
1716.82	0.0008265
1726.46	0.0006136
1736.11	0.0007067
1745.75	0.0009932
1755.4	0.00134
1765.04	0.00119
1774.69	0.00105
1784.33	0.0009145
1793.98	0.0007319
1803.62	0.0005548
1813.27	0.0004737
1822.91	0.0004267
1832.55	0.0004106
1842.2	0.0003578
1851.84	0.0003376
1861.49	0.0003238
1871.13	0.000288
1880.78	0.0003134
1890.42	0.0003579
1900.07	0.0003715
1909.71	0.0003427
1919.36	0.000386
1929	0.0004392
1938.65	0.0004692
1948.29	0.0003337
1957.94	0.0004126
1967.58	0.0004156
1977.23	0.0004374
1986.87	0.0004317
1996.52	0.0005166
2006.16	0.0004755
2015.81	0.0005021
2025.45	0.0004441
2035.1	0.0003953
2044.74	0.0003573
2054.38	0.0003109
2064.03	0.0002989
2073.67	0.0003064
2083.32	0.0002965
2092.96	0.000325
2102.61	0.0003938
2112.25	0.0004172
2121.9	0.0003957
2131.54	0.0003185
2141.19	0.0002839
2150.83	0.0002511
2160.48	0.0002877
2170.12	0.0003616
2179.77	0.0002845
2189.41	0.0003001
2199.06	0.0003154
2208.7	0.0003157
2218.35	0.0003934
2227.99	0.0003012
2237.64	0.0003322
2247.28	0.0003615
2256.92	0.000363
2266.57	0.0003069
2276.21	0.0002987
2285.86	0.0004081
2295.5	0.0003662
2305.15	0.0003274
2314.79	0.0003496
2324.44	0.0004279
2334.08	0.0003229
2343.73	0.0003767
2353.37	0.0003951
2363.02	0.0003528
2372.66	0.0004116
2382.31	0.0005092
2391.95	0.0005806
2401.6	0.000539
2411.24	0.0005086
2420.89	0.0005382
2430.53	0.0004773
2440.18	0.0004784
2449.82	0.000456
2459.47	0.0005161
2469.11	0.0004589
2478.75	0.0004284
2488.4	0.0004405
2498.04	0.0003579
2507.69	0.0004342
2517.33	0.0004455
2526.98	0.0003065
2536.62	0.00047
2546.27	0.0005757
2555.91	0.0006327
2565.56	0.0005595
2575.2	0.0005088
2584.85	0.0004655
2594.49	0.000498
2604.14	0.0005509
2613.78	0.0005729
2623.43	0.0005869
2633.07	0.0006231
2642.72	0.0006727
2652.36	0.0008019
2662.01	0.0007432
2671.65	0.0007997
2681.29	0.0009471
2690.94	0.00104
2700.58	0.00107
2710.23	0.00117
2719.87	0.00141
2729.52	0.00156
2739.16	0.0014
2748.81	0.00149
2758.45	0.00161
2768.1	0.00167
2777.74	0.00202
2787.39	0.00241
2797.03	0.00269
2806.68	0.00309
2816.32	0.00387
2825.97	0.0048
2835.61	0.0067
2845.26	0.01041
2854.9	0.01617
2864.55	0.01942
2874.19	0.02469
2883.84	0.02776
2893.48	0.02507
2903.12	0.02582
2912.77	0.031
2922.41	0.03499
2932.06	0.03436
2941.7	0.03723
2951.35	0.05006
2960.99	0.06979
2970.64	0.07621
2980.28	0.04142
2989.93	0.01757
2999.57	0.01283
3009.22	0.01075
3018.86	0.00619
3028.51	0.00426
3038.15	0.00338
3047.8	0.00302
3057.44	0.00304
3067.09	0.00363
3076.73	0.00388
3086.38	0.00284
3096.02	0.00207
3105.67	0.00156
3115.31	0.00144
3124.95	0.00129
3134.6	0.00129
3144.24	0.0012
3153.89	0.00119
3163.53	0.00111
3173.18	0.00105
3182.82	0.0011
3192.47	0.0009096
3202.11	0.0009525
3211.76	0.0008545
3221.4	0.0007177
3231.05	0.000738
3240.69	0.0007058
3250.34	0.0007015
3259.98	0.000651
3269.63	0.0007036
3279.27	0.0005703
3288.92	0.0007619
3298.56	0.0004944
3308.21	0.0006515
3317.85	0.0007068
3327.49	0.0005356
3337.14	0.0005735
3346.78	0.0004987
3356.43	0.0005502
3366.07	0.0005101
3375.72	0.0005334
3385.36	0.0005328
3395.01	0.0005579
3404.65	0.0007848
3414.3	0.0006043
3423.94	0.0006357
3433.59	0.0005373
3443.23	0.0005249
3452.88	0.0005109
3462.52	0.0004238
3472.17	0.0004246
3481.81	0.0004602
3491.46	0.00037
3501.1	0.0004011
3510.75	0.000396
3520.39	0.0004197
3530.04	0.0004571
3539.68	0.000352
3549.32	0.0004309
3558.97	0.0005092
3568.61	0.0005726
3578.26	0.0004694
3587.9	0.0007766
3597.55	0.0009371
3607.19	0.00103
3616.84	0.0017
3626.48	0.00223
3636.13	0.00415
3645.77	0.00882
3655.42	0.02149
3665.06	0.03272
3674.71	0.01929
3684.35	0.00868
3694	0.00436
3703.64	0.00245
3713.29	0.00154
3722.93	0.00126
3732.58	0.0008644
3742.22	0.0006399
3751.86	0.0006578
3761.51	0.000593
3771.15	0.00061
3780.8	0.0006345
3790.44	0.0005927
3800.09	0.0006649
3809.73	0.0006089
3819.38	0.0006592
3829.02	0.0006942
3838.67	0.0006695
3848.31	0.0007544
3857.96	0.0006247
3867.6	0.0006658
3877.25	0.0007468
3886.89	0.0007838
3896.54	0.0008664
3906.18	0.0008496
3915.83	0.0006101
3925.47	0.0005581
3935.12	0.0004522
3944.76	0.0005942
3954.41	0.0004567
3964.05	0.0005599
3973.69	0.0005055
3983.34	0.0004988
3992.98	0.0004873
