Infrared Spectrum: Monocrotophos
Formula: C 7 H 14 N O 5 P
CAS: 6923-22-4
State: gas
Instrument: HP-GC/MS/IRD
Origin: NIST Mass Spectrometry Data Center
1/CM	ABSORBANCE
550	0.0075748
562	0.005742
574	0.00319
586	0.0014616
598	0.0007424
610	0.0005684
622	0.0003712
634	0.0001392
646	0.0001972
658	0.0001508
670	0.000348
682	0.0005568
694	0.000928
706	0.0014732
718	0.0024476
730	0.0040948
742	0.0050808
754	0.00464
766	0.004408
778	0.0050692
790	0.0076328
802	0.0166112
814	0.02117
826	0.0150916
838	0.0206712
850	0.0314592
862	0.027956
874	0.0190124
886	0.0230608
898	0.0293944
910	0.0175624
922	0.010092
934	0.0099992
946	0.0154396
958	0.0281648
970	0.0307284
982	0.0193604
994	0.0155904
1006	0.0196388
1018	0.0347884
1030	0.0721636
1042	0.108588
1054	0.115977
1066	0.0957812
1078	0.06757
1090	0.039092
1102	0.0261928
1114	0.0232928
1126	0.0247544
1138	0.03654
1150	0.0536964
1162	0.0413192
1174	0.025346
1186	0.0176784
1198	0.0135256
1210	0.0115884
1222	0.0132588
1234	0.0154396
1246	0.0123772
1258	0.0094656
1270	0.0107416
1282	0.0195228
1294	0.0326424
1306	0.0356932
1318	0.0319
1330	0.0164488
1342	0.0096396
1354	0.008004
1366	0.006902
1378	0.0084448
1390	0.0152308
1402	0.0140476
1414	0.010672
1426	0.010382
1438	0.0092452
1450	0.0109968
1462	0.0138388
1474	0.0200216
1486	0.0297772
1498	0.0305892
1510	0.0207524
1522	0.0142216
1534	0.0106256
1546	0.0080388
1558	0.0061944
1570	0.0049648
1582	0.0042688
1594	0.0041296
1606	0.004698
1618	0.006612
1630	0.0114724
1642	0.024708
1654	0.0464116
1666	0.0338024
1678	0.0207756
1690	0.030624
1702	0.0488244
1714	0.033118
1726	0.0129804
1738	0.0058
1750	0.0032944
1762	0.0021228
1774	0.0015892
1786	0.001276
1798	0.001102
1810	0.000986
1822	0.0008468
1834	0.000812
1846	0.0008236
1858	0.0008816
1870	0.0009048
1882	0.0009164
1894	0.0009164
1906	0.000986
1918	0.000986
1930	0.0009744
1942	0.0009396
1954	0.0007888
1966	0.0005684
1978	0.000406
1990	0.0002784
2002	0.0001856
2014	0.000174
2026	0.0001972
2038	0.000232
2050	0.0002204
2062	0.0001856
2074	0.0001276
2086	0.0001508
2098	0.000174
2110	0.0002668
2122	0.0003596
2134	0.0003596
2146	0.0003016
2158	0.0001856
2170	0.0001044
2182	0.0001392
2194	0.0001276
2206	8.12e-05
2218	4.64e-05
2230	0
2242	3.48e-05
2254	4.64e-05
2266	0.000116
2278	9.28e-05
2290	0.0001508
2302	0.000116
2314	0.000116
2326	9.28e-05
2338	8.12e-05
2350	8.12e-05
2362	0.0001276
2374	0.0001392
2386	0.0001276
2398	0.0001044
2410	0.0001044
2422	0.0001044
2434	9.28e-05
2446	0.0001508
2458	0.000174
2470	0.0001508
2482	0.0001276
2494	0.0001392
2506	0.000116
2518	0.0001392
2530	0.0001508
2542	0.000232
2554	0.0002436
2566	0.0002436
2578	0.000232
2590	0.000232
2602	0.0002552
2614	0.00029
2626	0.0002668
2638	0.0002784
2650	0.0002088
2662	0.0002088
2674	0.0001856
2686	0.000174
2698	0.000232
2710	0.0002436
2722	0.0002668
2734	0.00029
2746	0.0002784
2758	0.000348
2770	0.0004292
2782	0.0005684
2794	0.0007888
2806	0.0013108
2818	0.002146
2830	0.002088
2842	0.0026564
2854	0.0048604
2866	0.0076444
2878	0.0053824
2890	0.0052316
2902	0.0062872
2914	0.007888
2926	0.0100688
2938	0.0119016
2950	0.0143956
2962	0.0207756
2974	0.0144652
2986	0.0080504
2998	0.0069484
3010	0.0064496
3022	0.0058348
3034	0.0048604
3046	0.0038048
3058	0.0033408
3070	0.0030276
3082	0.0026448
3094	0.0021576
3106	0.0016588
3118	0.0013108
3130	0.000986
3142	0.0007424
3154	0.0005684
3166	0.0004292
3178	0.0002668
3190	0.0002552
3202	0.000232
3214	0.0001856
3226	0.0001856
3238	0.0001392
3250	0.000174
3262	0.0001392
3274	0.000174
3286	0.0002088
3298	0.0002668
3310	0.0003016
3322	0.0003364
3334	0.000406
3346	0.0004176
3358	0.0004872
3370	0.0004524
3382	0.0004988
3394	0.0005916
3406	0.0006264
3418	0.00058
3430	0.0007888
3442	0.001276
3454	0.0015428
3466	0.0025404
3478	0.0040484
3490	0.0032828
3502	0.0013688
3514	0.000638
3526	0.000406
3538	0.0002552
3550	0.0002088
3562	0.0001392
3574	0.0001392
3586	0.000116
3598	0.0001044
3610	0.000116
3622	0.0001276
3634	0.000174
3646	0.0001856
3658	0.0003596
3670	0.0004756
3682	0.0003944
3694	0.0002668
3706	0.0001392
3718	0.0001624
3730	0.0001044
3742	0.0001392
3754	0.0001276
3766	0.000174
3778	0.0001856
3790	0.000116
3802	0.000116
3814	0.0001856
3826	0.0001508
3838	0.000174
