Infrared Spectrum: Alpha-(DIMETHYLAMINO)-4,6-DINITRO-o-CRESOL
Formula: C9 H11 N3 O5
CAS: 69245-80-3
State: SOLID(MINERAL OIL MULL)
Class: COBLENTZ
Instrument: Not specified, most likely a prism, grating, or hybrid spectrometer.
Sampling: TRANSMISSION
Resolution: 4
Origin: DOW CHEMICAL COMPANY
MICROMETERS	TRANSMITTANCE
2.007	0.671
2.04766	0.675
2.08831	0.681
2.12897	0.688
2.16963	0.693
2.21028	0.693
2.25094	0.696
2.2916	0.703
2.33225	0.708
2.37291	0.717
2.41357	0.727
2.45422	0.735
2.49488	0.749
2.53554	0.75
2.57619	0.75
2.61685	0.752
2.65751	0.764
2.69816	0.755
2.73882	0.76
2.77948	0.759
2.82013	0.759
2.86079	0.76
2.90144	0.762
2.9421	0.764
2.98276	0.764
3.02341	0.76
3.06407	0.76
3.10473	0.737
3.14538	0.69
3.18604	0.634
3.2267	0.555
3.26735	0.459
3.30801	0.392
3.34867	0.313
3.38932	0.17
3.42998	0.217
3.47064	0.281
3.51129	0.365
3.55195	0.439
3.59261	0.414
3.63326	0.442
3.67392	0.516
3.71458	0.574
3.75523	0.621
3.79589	0.664
3.83655	0.688
3.8772	0.688
3.91786	0.656
3.95852	0.555
3.99917	0.557
4.03983	0.644
4.08049	0.722
4.12114	0.76
4.1618	0.772
4.20246	0.774
4.24311	0.784
4.28377	0.811
4.32443	0.828
4.36508	0.836
4.40574	0.831
4.4464	0.836
4.48705	0.851
4.52771	0.856
4.56836	0.853
4.60902	0.853
4.64968	0.86
4.69033	0.861
4.73099	0.865
4.77165	0.868
4.8123	0.868
4.85296	0.863
4.89362	0.867
4.93427	0.872
4.97493	0.873
5.01559	0.872
5.05624	0.87
5.0969	0.863
5.13756	0.87
5.17821	0.87
5.21887	0.88
5.25953	0.88
5.30018	0.887
5.34084	0.877
5.3815	0.88
5.42215	0.873
5.46281	0.87
5.50347	0.878
5.54412	0.877
5.58478	0.878
5.62544	0.873
5.66609	0.872
5.70675	0.868
5.74741	0.873
5.78806	0.882
5.82872	0.882
5.86938	0.873
5.91003	0.868
5.95069	0.86
5.99135	0.853
6.032	0.786
6.07266	0.681
6.11332	0.631
6.15397	0.447
6.19463	0.217
6.23528	0.203
6.27594	0.531
6.3166	0.449
6.35725	0.244
6.39791	0.348
6.43857	0.56
6.47922	0.545
6.51988	0.42
6.56054	0.281
6.60119	0.37
6.64185	0.525
6.68251	0.461
6.72316	0.358
6.76382	0.291
6.80448	0.373
6.84513	0.553
6.88579	0.577
6.92645	0.505
6.9671	0.565
7.00776	0.663
7.04842	0.67
7.08907	0.604
7.12973	0.658
7.17039	0.72
7.21104	0.626
7.2517	0.405
7.29236	0.239
7.33301	0.609
7.37367	0.639
7.41433	0.523
7.45498	0.321
7.49564	0.195
7.5363	0.05
7.57695	0.069
7.61761	0.276
7.65827	0.402
7.69892	0.355
7.73958	0.271
7.78024	0.259
7.82089	0.2
7.86155	0.202
7.9022	0.356
7.94286	0.444
7.98352	0.367
8.02417	0.341
8.06483	0.501
8.10549	0.577
8.14614	0.621
8.1868	0.712
8.22746	0.75
8.26811	0.769
8.30877	0.797
8.34943	0.799
8.39008	0.813
8.43074	0.821
8.4714	0.828
8.51205	0.833
8.55271	0.838
8.59337	0.841
8.63402	0.841
8.67468	0.841
8.71534	0.829
8.75599	0.764
8.79665	0.557
8.83731	0.303
8.87796	0.163
8.91862	0.39
8.95928	0.612
8.99993	0.739
9.04059	0.772
9.08125	0.804
9.1219	0.819
9.16256	0.813
9.20322	0.799
9.24387	0.801
9.28453	0.821
9.32519	0.811
9.36584	0.786
9.4065	0.73
9.44716	0.68
9.48781	0.739
9.52847	0.782
9.56912	0.75
9.60978	0.72
9.65044	0.777
9.69109	0.769
9.73175	0.629
9.77241	0.611
9.81306	0.811
9.85372	0.843
9.89438	0.868
9.93503	0.87
9.97569	0.872
10.0163	0.865
10.057	0.872
10.0977	0.882
10.1383	0.892
10.179	0.898
10.2196	0.9
10.2603	0.902
10.3009	0.904
10.3416	0.91
10.3823	0.912
10.4229	0.912
10.4636	0.91
10.5042	0.909
10.5449	0.905
10.5855	0.902
10.6262	0.897
10.6669	0.88
10.7075	0.851
10.7482	0.74
10.7888	0.68
10.8295	0.779
10.8701	0.789
10.9108	0.732
10.9514	0.754
10.9921	0.814
11.0328	0.821
11.0734	0.823
11.1141	0.811
11.1547	0.772
11.1954	0.819
11.236	0.843
11.2767	0.853
11.3174	0.856
11.358	0.851
11.3987	0.851
11.4393	0.853
11.48	0.858
11.5206	0.858
11.5613	0.856
11.602	0.856
11.6426	0.851
11.6833	0.85
11.7239	0.833
11.7646	0.818
11.8052	0.73
11.8459	0.569
11.8866	0.508
11.9272	0.631
11.9679	0.739
12.0085	0.782
12.0492	0.796
12.0898	0.777
12.1305	0.755
12.1711	0.76
12.2118	0.789
12.2525	0.803
12.2931	0.811
12.3338	0.818
12.3744	0.819
12.4151	0.819
12.4557	0.821
12.4964	0.821
12.5371	0.823
12.5777	0.823
12.6184	0.824
12.659	0.824
12.6997	0.824
12.7403	0.826
12.781	0.829
12.8217	0.831
12.8623	0.831
12.903	0.831
12.9436	0.831
12.9843	0.823
13.0249	0.806
13.0656	0.801
13.1062	0.803
13.1469	0.797
13.1876	0.754
13.2282	0.646
13.2689	0.562
13.3095	0.619
13.3502	0.75
13.3908	0.779
13.4315	0.789
13.4722	0.792
13.5128	0.789
13.5535	0.787
13.5941	0.779
13.6348	0.772
13.6754	0.762
13.7161	0.75
13.7568	0.74
13.7974	0.72
13.8381	0.688
13.8787	0.621
13.9194	0.54
13.96	0.493
14.0007	0.525
14.0413	0.599
14.082	0.648
14.1227	0.668
14.1633	0.661
14.204	0.619
14.2446	0.599
14.2853	0.599
14.3259	0.629
14.3666	0.654
14.4073	0.67
14.4479	0.671
14.4886	0.671
14.5292	0.67
14.5699	0.658
14.6105	0.651
14.6512	0.646
14.6919	0.638
14.7325	0.629
14.7732	0.621
14.8138	0.612
14.8545	0.601
14.8951	0.587
14.9358	0.587
14.9765	0.599
15.0171	0.584
15.0578	0.572
15.0984	0.562
15.1391	0.558
15.1797	0.552
15.2204	0.548
15.261	0.538
15.3017	0.531
15.3424	0.521
15.383	0.513
15.4237	0.503
15.4643	0.489
15.505	0.473
15.5456	0.452
15.5863	0.432
15.627	0.397
15.6676	0.353
15.7083	0.326
15.7489	0.318
15.7896	0.319
15.8302	0.329
15.8709	0.326
