Infrared Spectrum: p-Methoxyheptanophenone
Formula: C 14 H 20 O 2
CAS: 69287-13-4
State: gas
Origin: EPA-IR VAPOR PHASE LIBRARY
1/CM	ABSORBANCE
549.8	0.005413
559.445	0.007633
569.09	0.009623
578.734	0.010483
588.379	0.010653
598.024	0.009173
607.669	0.006773
617.313	0.004893
626.958	0.004033
636.603	0.004153
646.248	0.002843
655.893	0.002383
665.537	0.002153
675.182	0.001813
684.827	0.001923
694.472	0.002123
704.116	0.002203
713.761	0.002253
723.406	0.002443
733.051	0.002713
742.695	0.003003
752.34	0.003043
761.985	0.003243
771.63	0.003813
781.275	0.003863
790.919	0.005953
800.564	0.010563
810.209	0.011133
819.854	0.013713
829.498	0.019663
839.143	0.020183
848.788	0.012533
858.433	0.007083
868.078	0.004573
877.722	0.003743
887.367	0.003523
897.012	0.003263
906.657	0.002853
916.301	0.003033
925.946	0.003333
935.591	0.004583
945.236	0.007063
954.88	0.010713
964.525	0.012863
974.17	0.015683
983.815	0.015853
993.46	0.013573
1003.1	0.012743
1012.75	0.013943
1022.39	0.020633
1032.04	0.028313
1041.68	0.027643
1051.33	0.015663
1060.97	0.008103
1070.62	0.005883
1080.26	0.004563
1089.91	0.004823
1099.55	0.006713
1109.2	0.010443
1118.84	0.009363
1128.49	0.007643
1138.13	0.008503
1147.78	0.012953
1157.42	0.031153
1167.07	0.098913
1176.71	0.078993
1186.36	0.028233
1196	0.025143
1205.64	0.032123
1215.29	0.039553
1224.93	0.061473
1234.58	0.079103
1244.22	0.099513
1253.87	0.120433
1263.51	0.080653
1273.16	0.045003
1282.8	0.040333
1292.45	0.043923
1302.09	0.042933
1311.74	0.036053
1321.38	0.027643
1331.03	0.021933
1340.67	0.020193
1350.32	0.022163
1359.96	0.020643
1369.61	0.013973
1379.25	0.009643
1388.9	0.008103
1398.54	0.008793
1408.18	0.015183
1417.83	0.017583
1427.47	0.012133
1437.12	0.014683
1446.76	0.019983
1456.41	0.021023
1466.05	0.024253
1475.7	0.018863
1485.34	0.012783
1494.99	0.018343
1504.63	0.041043
1514.28	0.032023
1523.92	0.009993
1533.57	0.006253
1543.21	0.006193
1552.86	0.007353
1562.5	0.012003
1572.15	0.024753
1581.79	0.035563
1591.44	0.060943
1601.08	0.100643
1610.73	0.063823
1620.37	0.023133
1630.01	0.010813
1639.66	0.007463
1649.3	0.007053
1658.95	0.007743
1668.59	0.010663
1678.24	0.023553
1687.88	0.065773
1697.53	0.082343
1707.17	0.034503
1716.82	0.010803
1726.46	0.005483
1736.11	0.003983
1745.75	0.003133
1755.4	0.002823
1765.04	0.002733
1774.69	0.002303
1784.33	0.001723
1793.98	0.001493
1803.62	0.001513
1813.27	0.001393
1822.91	0.0012015
1832.55	0.0011529
1842.2	0.0011445
1851.84	0.001333
1861.49	0.001553
1871.13	0.001493
1880.78	0.001553
1890.42	0.001773
1900.07	0.001973
1909.71	0.001733
1919.36	0.001473
1929	0.001493
1938.65	0.001563
1948.29	0.001323
1957.94	0.0012585
1967.58	0.001413
1977.23	0.001533
1986.87	0.001323
1996.52	0.0012189
2006.16	0.0012618
2015.81	0.001603
2025.45	0.001733
2035.1	0.001933
2044.74	0.002293
2054.38	0.002713
2064.03	0.002593
2073.67	0.002283
2083.32	0.001743
2092.96	0.001313
2102.61	0.0010462
2112.25	0.0009363
2121.9	0.0007094
2131.54	0.0007279
2141.19	0.0006143
2150.83	0.0007179
2160.48	0.0006526
2170.12	0.0006906
2179.77	0.0006898
2189.41	0.0005926
2199.06	0.0005933
2208.7	0.000678
2218.35	0.0005879
2227.99	0.0005591
2237.64	0.000622
2247.28	0.0006231
2256.92	0.000697
2266.57	0.0008469
2276.21	0.0009273
2285.86	0.0009784
2295.5	0.0009916
2305.15	0.0010905
2314.79	0.0009387
2324.44	0.0008167
2334.08	0.0008544
2343.73	0.0008042
2353.37	0.0007282
2363.02	0.0006977
2372.66	0.0007193
2382.31	0.000762
2391.95	0.0011594
2401.6	0.001226
2411.24	0.0011738
2420.89	0.0011947
2430.53	0.0011966
2440.18	0.0009831
2449.82	0.0009386
2459.47	0.0009678
2469.11	0.000905
2478.75	0.0009813
2488.4	0.0011301
2498.04	0.0011502
2507.69	0.0012037
2517.33	0.001433
2526.98	0.001543
2536.62	0.001693
2546.27	0.002063
2555.91	0.002383
2565.56	0.002143
2575.2	0.001903
2584.85	0.001623
2594.49	0.001543
2604.14	0.001463
2613.78	0.001463
2623.43	0.001383
2633.07	0.001373
2642.72	0.0011393
2652.36	0.0012125
2662.01	0.0011803
2671.65	0.001353
2681.29	0.001483
2690.94	0.001273
2700.58	0.001303
2710.23	0.001303
2719.87	0.001323
2729.52	0.001453
2739.16	0.001923
2748.81	0.002053
2758.45	0.002253
2768.1	0.002303
2777.74	0.002523
2787.39	0.002903
2797.03	0.003673
2806.68	0.004553
2816.32	0.005943
2825.97	0.007783
2835.61	0.011763
2845.26	0.021683
2854.9	0.027303
2864.55	0.032383
2874.19	0.032033
2883.84	0.030363
2893.48	0.028583
2903.12	0.034473
2912.77	0.045503
2922.41	0.061833
2932.06	0.079053
2941.7	0.080273
2951.35	0.067483
2960.99	0.066193
2970.64	0.060343
2980.28	0.031883
2989.93	0.018463
2999.57	0.015693
3009.22	0.020103
3018.86	0.013973
3028.51	0.007853
3038.15	0.007343
3047.8	0.007813
3057.44	0.007323
3067.09	0.006873
3076.73	0.007913
3086.38	0.006383
3096.02	0.005883
3105.67	0.004713
3115.31	0.003353
3124.95	0.002553
3134.6	0.001823
3144.24	0.002003
3153.89	0.001573
3163.53	0.001323
3173.18	0.0011519
3182.82	0.000773
3192.47	0.0009099
3202.11	0.0008186
3211.76	0.0007964
3221.4	0.0007377
3231.05	0.000468
3240.69	0.0004548
3250.34	0.0004641
3259.98	0.0004004
3269.63	0.0004336
3279.27	0.0004655
3288.92	0.00034173
3298.56	0.0004799
3308.21	0.000376
3317.85	0.0006475
3327.49	0.00028892
3337.14	0.0006254
3346.78	0.0007215
3356.43	0.0011288
3366.07	0.001188
3375.72	0.001503
3385.36	0.0011203
3395.01	0.0008875
3404.65	0.0006136
3414.3	0.0002188
3423.94	0.00035267
3433.59	0.0002228
3443.23	0.00030571
3452.88	0.0002397
3462.52	0.0003824
3472.17	0.00028607
3481.81	0.0004097
3491.46	0.0002617
3501.1	0.000147
3510.75	0.00034577
3520.39	0.00025509
3530.04	0.0004158
3539.68	0.000203
3549.32	0.0004081
3558.97	0.000193
3568.61	0.0001636
3578.26	0.0001682
3587.9	0.0002019
3597.55	0.00033083
3607.19	0.0004577
3616.84	0.0002156
3626.48	0.0002306
3636.13	0.0002373
3645.77	0.0004746
3655.42	0.0003679
3665.06	0.0005229
3674.71	0.0005856
3684.35	0.000453
3694	0.00033358
3703.64	0.0003651
3713.29	0.000269863
3722.93	0.0006
3732.58	0.00030015
3742.22	0.0002412
3751.86	0.000442
3761.51	0.0004786
3771.15	0.00028413
3780.8	0.0004996
3790.44	0.0004921
3800.09	0.0005336
3809.73	0.0004039
3819.38	0.00029505
3829.02	0.0004382
3838.67	0.000102
3848.31	0.0004982
3857.96	0.0005524
3867.6	0.00033622
3877.25	0.0005229
3886.89	0.0004931
3896.54	0.0007644
3906.18	0.00030296
3915.83	0.00032782
3925.47	0.0003348
3935.12	0.0006091
3944.76	0.0005174
3954.41	0.0004174
3964.05	0.0006268
3973.69	0.0006099
3983.34	0.0008316
3992.98	0.0007989
