Infrared Spectrum: 1-Amino-4-methylpiperazine
Formula: C5 H13 N3
CAS: 6928-85-4
State: LIQUID (NEAT)
Class: COBLENTZ II
Instrument: BECKMAN IR-9 (GRATING)
Instrument parameters: ORDER CHANGES: 670, 1200, 2000 CM^-^1
Sampling: TRANSMISSION
Path length: CAPILLARY
Resolution: 2
Origin: DOW CHEMICAL COMPANY
1/CM	TRANSMITTANCE
3800	1.0234
3791	1.0236
3782	1.0239
3773	1.0242
3764	1.0246
3755	1.0255
3746	1.0259
3737	1.0261
3728	1.0258
3719	1.0254
3710	1.0249
3701	1.0242
3692	1.0237
3683	1.0232
3674	1.0228
3665	1.0223
3656	1.0215
3647	1.0199
3638	1.0181
3629	1.0159
3620	1.0123
3611	1.0086
3602	1.0042
3593	0.9991
3584	0.9939
3575	0.9887
3566	0.9836
3557	0.9784
3548	0.9734
3539	0.9684
3530	0.9636
3521	0.9587
3512	0.954
3503	0.9488
3494	0.9436
3485	0.9384
3476	0.9334
3467	0.9285
3458	0.9237
3449	0.9188
3440	0.9138
3431	0.9083
3422	0.903
3413	0.8983
3404	0.8941
3395	0.89
3386	0.8857
3377	0.8811
3368	0.8762
3359	0.8721
3350	0.8637
3341	0.844
3332	0.8198
3323	0.7836
3314	0.7485
3305	0.7262
3296	0.7147
3287	0.7155
3278	0.724
3269	0.7354
3260	0.7462
3251	0.7578
3242	0.7699
3233	0.7741
3224	0.7743
3215	0.7736
3206	0.7756
3197	0.784
3188	0.7915
3179	0.7961
3170	0.7969
3161	0.7938
3152	0.7807
3143	0.7634
3134	0.7578
3125	0.7692
3116	0.7874
3107	0.8068
3098	0.8304
3089	0.8488
3080	0.8642
3071	0.8773
3062	0.8891
3053	0.8992
3044	0.9078
3035	0.9133
3026	0.9144
3017	0.9132
3008	0.9092
2999	0.9028
2990	0.8875
2981	0.8445
2972	0.601
2963	0.5249
2954	0.4716
2945	0.3232
2936	0.2589
2927	0.3752
2918	0.4673
2909	0.4915
2900	0.5668
2891	0.5935
2882	0.5368
2873	0.567
2864	0.6362
2855	0.6166
2846	0.4341
2837	0.3938
2828	0.3793
2819	0.2794
2810	0.1764
2801	0.1438
2792	0.1589
2783	0.269
2774	0.3995
2765	0.4412
2756	0.5397
2747	0.5171
2738	0.5351
2729	0.6192
2720	0.7034
2711	0.7875
2702	0.8132
2693	0.7957
2684	0.7399
2675	0.7399
2666	0.8275
2657	0.8742
2648	0.9021
2639	0.9228
2630	0.9378
2621	0.9509
2612	0.9631
2603	0.9744
2594	0.9858
2585	0.9927
2576	0.9975
2567	0.9985
2558	0.9944
2549	0.9941
2540	0.9964
2531	0.998
2522	0.9989
2513	1.0002
2504	1.0023
2495	1.0053
2486	1.0084
2477	1.012
2468	1.0155
2459	1.0184
2450	1.0214
2441	1.0225
2432	1.0238
2423	1.0244
2414	1.0244
2405	1.0244
2396	1.0246
2387	1.0249
2378	1.0261
2369	1.0273
2360	1.0287
2351	1.0292
2342	1.0297
2333	1.0298
2324	1.0291
2315	1.0267
2306	1.0263
2297	1.0257
2288	1.0261
2279	1.0264
2270	1.0268
2261	1.0271
2252	1.0283
2243	1.0294
2234	1.0301
2225	1.0307
2216	1.0314
2207	1.0321
2198	1.0325
2189	1.0328
2180	1.0332
2171	1.0339
2162	1.035
2153	1.0371
2144	1.0386
2135	1.0392
2126	1.0385
2117	1.0373
2108	1.0359
2099	1.0361
2090	1.0367
2081	1.037
2072	1.0371
2063	1.0371
2054	1.0374
2045	1.0377
2036	1.04
2027	1.0425
2018	1.0443
2009	1.045
2000	1.0415
1991	1.0378
1982	1.0396
1973	1.0389
1964	1.0358
1955	1.0337
1946	1.0321
1937	1.0311
1928	1.0307
1919	1.0309
1910	1.033
1901	1.0371
1892	1.039
1883	1.0395
1874	1.0402
1865	1.0411
1856	1.0421
1847	1.0436
1838	1.0446
1829	1.045
1820	1.0455
1811	1.0457
1802	1.0454
1793	1.0443
1784	1.0437
1775	1.0441
1766	1.0438
1757	1.043
1748	1.0415
1739	1.0409
1730	1.0403
1721	1.0368
1712	1.0321
1703	1.0282
1694	1.0246
1685	1.017
1676	1.0091
1667	1.0023
1658	0.9948
1649	0.9811
1640	0.9613
1631	0.9201
1622	0.8548
1613	0.776
1604	0.755
1595	0.7951
1586	0.8838
1577	0.9446
1568	0.9798
1559	0.9963
1550	1.0073
1541	1.0128
1532	1.0147
1523	1.0125
1514	1.0075
1505	1.0004
1496	0.9863
1487	0.9587
1478	0.8863
1469	0.7248
1460	0.393
1451	0.405
1442	0.6094
1433	0.8495
1424	0.9164
1415	0.9425
1406	0.9516
1397	0.9478
1388	0.8788
1379	0.8752
1370	0.619
1361	0.7512
1352	0.8903
1343	0.8396
1334	0.8185
1325	0.7312
1316	0.7243
1307	0.8304
1298	0.6356
1289	0.552
1280	0.4155
1271	0.7891
1262	0.8209
1253	0.9251
1244	0.99
1235	0.9946
1226	1.0113
1217	1.0177
1208	1.0063
1199	0.9778
1190	0.9555
1181	0.8912
1172	0.8045
1163	0.3759
1154	0.4656
1145	0.3691
1136	0.6107
1127	0.7631
1118	0.6331
1109	0.6096
1100	0.8544
1091	0.8414
1082	0.8504
1073	0.8331
1064	0.9221
1055	0.7232
1046	0.8365
1037	0.7401
1028	0.6678
1019	0.7674
1010	0.6055
1001	0.9236
992	0.9628
983	0.9213
974	0.876
965	0.8381
956	0.8265
947	0.8463
938	0.9334
929	0.8136
920	0.6246
911	0.704
902	0.8025
893	0.9018
884	0.9594
875	0.9717
866	0.9591
857	0.9434
848	0.9232
839	0.9013
830	0.8747
821	0.8355
812	0.6711
803	0.2997
794	0.6275
785	0.8087
776	0.813
767	0.9016
758	0.9638
749	0.9921
740	1.0077
731	1.0177
722	1.0224
713	1.0242
704	1.0251
695	1.0244
686	1.0221
677	1.0195
668	1.0152
659	1.0111
650	1.0065
641	0.9975
632	0.8978
623	1.0065
614	0.9924
605	0.976
596	0.9725
587	0.977
578	0.9892
569	1.0003
560	1.0025
551	1.003
542	1
533	0.9902
524	0.9428
515	0.9875
506	0.9802
497	0.9623
488	0.9467
479	0.9265
470	0.8965
461	0.8581
452	0.8333
443	0.8221
434	0.7372
425	0.6939
416	0.6814
407	0.6854
