Infrared Spectrum: 3-Undecanol
Formula: C 11 H 24 O
CAS: 6929-08-4
State: gas
Instrument: HP-GC/MS/IRD
Origin: NIST Mass Spectrometry Data Center
1/CM	ABSORBANCE
550	0.000513
562	0.0002592
574	0.000135
586	0.0002214
598	0.0001782
610	3.78e-05
622	0.0001458
634	2.16e-05
646	1.08e-05
658	9.72e-05
670	4.32e-05
682	7.02e-05
694	0.0002268
706	0.0003942
718	0.0006156
730	0.0005454
742	0.0004428
754	0.0003402
766	0.0003942
778	0.0004968
790	0.0004374
802	0.0003996
814	0.000378
826	0.0003726
838	0.0004698
850	0.0005346
862	0.0005832
874	0.0006966
886	0.0007992
898	0.0009936
910	0.0013122
922	0.001674
934	0.001944
946	0.0022734
958	0.0032454
970	0.0042606
982	0.0039798
994	0.0035424
1006	0.0031644
1018	0.0027216
1030	0.0026028
1042	0.0024408
1054	0.0024516
1066	0.0025002
1078	0.0025812
1090	0.0027648
1102	0.0029862
1114	0.002997
1126	0.0029754
1138	0.0024786
1150	0.0017172
1162	0.0015282
1174	0.0015174
1186	0.0016632
1198	0.0018414
1210	0.00216
1222	0.0025056
1234	0.0025434
1246	0.0023976
1258	0.00216
1270	0.002052
1282	0.0020142
1294	0.0020034
1306	0.0019278
1318	0.001782
1330	0.0018144
1342	0.0022572
1354	0.0028728
1366	0.0032832
1378	0.003618
1390	0.0033588
1402	0.0023004
1414	0.00162
1426	0.00162
1438	0.002457
1450	0.004023
1462	0.005292
1474	0.0037584
1486	0.0016848
1498	0.000891
1510	0.0005778
1522	0.0003996
1534	0.0003132
1546	0.0002646
1558	0.0002268
1570	0.0002322
1582	0.0001674
1594	0.000189
1606	0.000135
1618	0.0001296
1630	0.0001188
1642	0.0001134
1654	8.64e-05
1666	8.1e-05
1678	8.1e-05
1690	7.02e-05
1702	7.56e-05
1714	5.4e-05
1726	7.02e-05
1738	5.94e-05
1750	3.78e-05
1762	3.78e-05
1774	2.7e-05
1786	4.32e-05
1798	1.62e-05
1810	2.16e-05
1822	2.7e-05
1834	3.24e-05
1846	3.24e-05
1858	3.24e-05
1870	1.62e-05
1882	4.32e-05
1894	3.78e-05
1906	4.32e-05
1918	2.16e-05
1930	3.24e-05
1942	2.7e-05
1954	2.16e-05
1966	1.08e-05
1978	2.7e-05
1990	2.16e-05
2002	2.16e-05
2014	4.32e-05
2026	3.24e-05
2038	5.94e-05
2050	5.4e-05
2062	3.24e-05
2074	4.32e-05
2086	3.24e-05
2098	1.62e-05
2110	5.4e-06
2122	1.62e-05
2134	2.7e-05
2146	2.7e-05
2158	1.08e-05
2170	1.62e-05
2182	1.08e-05
2194	2.7e-05
2206	2.16e-05
2218	1.62e-05
2230	2.16e-05
2242	1.62e-05
2254	2.7e-05
2266	3.78e-05
2278	3.78e-05
2290	3.78e-05
2302	3.78e-05
2314	5.94e-05
2326	5.4e-05
2338	3.78e-05
2350	5.4e-05
2362	4.32e-05
2374	5.94e-05
2386	6.48e-05
2398	7.02e-05
2410	8.64e-05
2422	6.48e-05
2434	6.48e-05
2446	5.94e-05
2458	4.86e-05
2470	4.86e-05
2482	4.32e-05
2494	4.86e-05
2506	6.48e-05
2518	9.18e-05
2530	0.000108
2542	0.0001296
2554	0.0001458
2566	0.0001944
2578	0.0002106
2590	0.0002646
2602	0.0002862
2614	0.0003294
2626	0.0003618
2638	0.0004428
2650	0.0004806
2662	0.0005562
2674	0.0006372
2686	0.0006588
2698	0.0006534
2710	0.0006372
2722	0.0006696
2734	0.0007722
2746	0.0008748
2758	0.0009018
2770	0.001026
2782	0.0011988
2794	0.0015066
2806	0.0019332
2818	0.0026082
2830	0.0038988
2842	0.0068094
2854	0.0143586
2866	0.0209736
2878	0.0188028
2890	0.0167454
2902	0.018009
2914	0.0273294
2926	0.0462348
2938	0.0523314
2950	0.0341172
2962	0.0259092
2974	0.0229878
2986	0.0108594
2998	0.0053136
3010	0.0031158
3022	0.0021546
3034	0.0016308
3046	0.001296
3058	0.0010908
3070	0.000945
3082	0.0008046
3094	0.0006912
3106	0.0005832
3118	0.0004536
3130	0.0004374
3142	0.000378
3154	0.0003402
3166	0.0002916
3178	0.0002808
3190	0.000216
3202	0.0001674
3214	0.0001242
3226	8.64e-05
3238	5.4e-05
3250	5.94e-05
3262	4.32e-05
3274	3.24e-05
3286	3.78e-05
3298	1.62e-05
3310	3.78e-05
3322	3.24e-05
3334	3.24e-05
3346	1.62e-05
3358	5.4e-05
3370	4.86e-05
3382	8.64e-05
3394	0.0001134
3406	8.64e-05
3418	0.0001188
3430	0.0001134
3442	0.0001188
3454	9.72e-05
3466	0.0001242
3478	9.18e-05
3490	9.18e-05
3502	9.72e-05
3514	8.1e-05
3526	7.02e-05
3538	6.48e-05
3550	9.18e-05
3562	9.18e-05
3574	0.0001026
3586	0.0001134
3598	0.0001944
3610	0.0002646
3622	0.0004698
3634	0.0008154
3646	0.001431
3658	0.001782
3670	0.0009828
3682	0.0004698
3694	0.000297
3706	0.0002214
3718	0.0001944
3730	0.0001566
3742	0.0001674
3754	0.000189
3766	0.0001242
3778	0.0001836
3790	0.0001728
3802	0.0002052
3814	0.0002052
3826	0.0002322
3838	0.0002268
