Infrared Spectrum: 2-Decanone
Formula: C 10 H 20 O
CAS: 693-54-9
State: gas
Instrument: HP-GC/MS/IRD
Origin: NIST Mass Spectrometry Data Center
1/CM	ABSORBANCE
550	0.0005076
562	0.000235
574	0.0003196
586	0.0007473
598	0.0008037
610	0.0004042
622	7.52e-05
634	1.41e-05
646	0
658	2.82e-05
670	3.76e-05
682	0.0002585
694	0.0003901
706	0.0008225
718	0.0010575
730	0.0009541
742	0.0006157
754	0.0004653
766	0.0004465
778	0.0004042
790	0.000329
802	0.0002961
814	0.0002726
826	0.0002491
838	0.0002538
850	0.0002773
862	0.0003337
874	0.000423
886	0.0004935
898	0.0005781
910	0.0007379
922	0.0009917
934	0.0011421
946	0.0011938
958	0.0012643
970	0.0012079
982	0.0010575
994	0.0009259
1006	0.0007426
1018	0.000658
1030	0.0006298
1042	0.0006298
1054	0.0006533
1066	0.0006768
1078	0.0006909
1090	0.0007849
1102	0.0010011
1114	0.0014147
1126	0.0017578
1138	0.002867
1150	0.0057669
1162	0.0074636
1174	0.0054144
1186	0.0043193
1198	0.0039433
1210	0.003807
1222	0.0036002
1234	0.0030315
1246	0.0024769
1258	0.002256
1270	0.0021009
1282	0.0022372
1294	0.002303
1306	0.0024064
1318	0.0026367
1330	0.0034075
1342	0.0054191
1354	0.0092026
1366	0.0096867
1378	0.0056541
1390	0.0035344
1402	0.0028529
1414	0.0032148
1426	0.0034451
1438	0.0037553
1450	0.004747
1462	0.0053486
1474	0.0036613
1486	0.0019223
1498	0.0011844
1510	0.0009353
1522	0.0008178
1534	0.0007379
1546	0.0006486
1558	0.0006063
1570	0.0005029
1582	0.0004794
1594	0.000423
1606	0.0003854
1618	0.0003807
1630	0.0004324
1642	0.0005029
1654	0.0006909
1666	0.0010246
1678	0.0017813
1690	0.0033746
1702	0.0062933
1714	0.0116889
1726	0.0195426
1738	0.018048
1750	0.0090522
1762	0.0042018
1774	0.0019975
1786	0.0009917
1798	0.0005593
1810	0.0003525
1822	0.0002444
1834	0.0001974
1846	0.000141
1858	0.0001269
1870	9.4e-05
1882	8.46e-05
1894	8.46e-05
1906	6.58e-05
1918	5.17e-05
1930	3.29e-05
1942	4.23e-05
1954	3.29e-05
1966	3.76e-05
1978	3.29e-05
1990	2.82e-05
2002	1.41e-05
2014	3.76e-05
2026	4.23e-05
2038	6.11e-05
2050	7.52e-05
2062	6.58e-05
2074	6.11e-05
2086	8.46e-05
2098	6.58e-05
2110	7.05e-05
2122	6.58e-05
2134	8.46e-05
2146	6.58e-05
2158	7.05e-05
2170	5.17e-05
2182	4.7e-05
2194	5.17e-05
2206	2.82e-05
2218	2.35e-05
2230	2.35e-05
2242	2.82e-05
2254	4.7e-05
2266	9.4e-06
2278	4.7e-06
2290	3.29e-05
2302	4.23e-05
2314	6.11e-05
2326	4.7e-05
2338	3.76e-05
2350	5.64e-05
2362	2.82e-05
2374	5.17e-05
2386	3.76e-05
2398	4.23e-05
2410	4.7e-05
2422	3.76e-05
2434	2.35e-05
2446	5.64e-05
2458	1.88e-05
2470	7.52e-05
2482	4.23e-05
2494	7.05e-05
2506	8.46e-05
2518	0.0001175
2530	0.0001504
2542	0.000141
2554	0.0001128
2566	0.0001645
2578	0.0001739
2590	0.0002068
2602	0.0002162
2614	0.0002538
2626	0.0002914
2638	0.0003243
2650	0.0004042
2662	0.0004512
2674	0.0005217
2686	0.0005217
2698	0.0005264
2710	0.0004982
2722	0.0005264
2734	0.0006392
2746	0.0007238
2758	0.000752
2770	0.0008413
2782	0.0010152
2794	0.0013583
2806	0.0018283
2818	0.0024299
2830	0.0034075
2842	0.005687
2854	0.0120461
2866	0.0179587
2878	0.0163748
2890	0.0146969
2902	0.0168918
2914	0.0250933
2926	0.0409323
2938	0.0460224
2950	0.0333183
2962	0.0255727
2974	0.0188564
2986	0.008695
2998	0.0051841
3010	0.0040185
3022	0.0029187
3034	0.0020915
3046	0.0016309
3058	0.0013959
3070	0.0012126
3082	0.0010152
3094	0.0008789
3106	0.0007285
3118	0.0006157
3130	0.0004982
3142	0.0004089
3154	0.0003666
3166	0.0003337
3178	0.0002961
3190	0.0002632
3202	0.0002444
3214	0.0001598
3226	0.0001457
3238	0.0001128
3250	9.87e-05
3262	9.4e-05
3274	9.87e-05
3286	8.46e-05
3298	7.99e-05
3310	7.52e-05
3322	7.05e-05
3334	9.4e-05
3346	8.93e-05
3358	0.0001222
3370	0.0001598
3382	0.0001269
3394	0.0001927
3406	0.0002162
3418	0.0002632
3430	0.0003901
3442	0.0004465
3454	0.0004136
3466	0.0002256
3478	0.0001457
3490	7.52e-05
3502	5.64e-05
3514	5.17e-05
3526	3.29e-05
3538	5.64e-05
3550	2.35e-05
3562	2.35e-05
3574	1.88e-05
3586	6.58e-05
3598	7.52e-05
3610	6.58e-05
3622	6.58e-05
3634	0.0001128
3646	7.52e-05
3658	9.87e-05
3670	0.0001363
3682	0.0001269
3694	0.000141
3706	8.46e-05
3718	0.0001222
3730	8.93e-05
3742	9.4e-05
3754	0.0001457
3766	0.0001598
3778	0.0001034
3790	0.0001457
3802	0.0001692
3814	0.0001316
3826	0.0001692
3838	0.0001551
