Infrared Spectrum: Ethyl hydrogen sebacate
Formula: C 12 H 22 O 4
CAS: 693-55-0
State: gas
Origin: EPA-IR VAPOR PHASE LIBRARY
1/CM	ABSORBANCE
549.9	0.01548
559.547	0.0176
569.193	0.0177
578.84	0.01825
588.486	0.01954
598.133	0.02037
607.779	0.02085
617.426	0.01993
627.072	0.0186
636.719	0.01592
646.365	0.01229
656.012	0.0099
665.658	0.00842
675.305	0.00778
684.951	0.00746
694.598	0.00755
704.245	0.00788
713.891	0.00843
723.538	0.00847
733.184	0.00768
742.831	0.00695
752.477	0.00649
762.124	0.006
771.77	0.00571
781.417	0.00525
791.063	0.00478
800.71	0.00461
810.356	0.00501
820.003	0.00566
829.649	0.00609
839.296	0.00634
848.943	0.0065
858.589	0.0067
868.236	0.00659
877.882	0.00608
887.529	0.00533
897.175	0.00457
906.822	0.00414
916.468	0.00394
926.115	0.00396
935.761	0.00389
945.408	0.00403
955.054	0.00429
964.701	0.00491
974.347	0.00609
983.994	0.00803
993.64	0.01078
1003.29	0.0142
1012.93	0.01789
1022.58	0.0201
1032.23	0.02029
1041.87	0.01951
1051.52	0.02057
1061.17	0.02493
1070.81	0.03257
1080.46	0.04234
1090.11	0.05013
1099.75	0.05505
1109.4	0.0659
1119.05	0.08001
1128.69	0.0811
1138.34	0.077
1147.99	0.08034
1157.63	0.08555
1167.28	0.08866
1176.92	0.08488
1186.57	0.07618
1196.22	0.07119
1205.86	0.06587
1215.51	0.06013
1225.16	0.05576
1234.8	0.05394
1244.45	0.05217
1254.1	0.04812
1263.74	0.04095
1273.39	0.03389
1283.04	0.02904
1292.68	0.02624
1302.33	0.02462
1311.98	0.02355
1321.62	0.02301
1331.27	0.02346
1340.92	0.02644
1350.56	0.03071
1360.21	0.03228
1369.86	0.02951
1379.5	0.02505
1389.15	0.01939
1398.79	0.01417
1408.44	0.01212
1418.09	0.01344
1427.73	0.01927
1437.38	0.02971
1447.03	0.02512
1456.67	0.02298
1466.32	0.01919
1475.97	0.01171
1485.61	0.00718
1495.26	0.00522
1504.91	0.00422
1514.55	0.00366
1524.2	0.0033
1533.85	0.00311
1543.49	0.00298
1553.14	0.0029078
1562.79	0.0028937
1572.43	0.0028178
1582.08	0.0027024
1591.73	0.002686
1601.37	0.002511
1611.02	0.002468
1620.67	0.0025117
1630.31	0.0025152
1639.96	0.0026378
1649.6	0.0028069
1659.25	0.00306
1668.9	0.00352
1678.54	0.00424
1688.19	0.00546
1697.84	0.00763
1707.48	0.01167
1717.13	0.01921
1726.78	0.03351
1736.42	0.05876
1746.07	0.09657
1755.72	0.14606
1765.36	0.16147
1775.01	0.15826
1784.66	0.11732
1794.3	0.06868
1803.95	0.04001
1813.6	0.02137
1823.24	0.01157
1832.89	0.00709
1842.54	0.00496
1852.18	0.00385
1861.83	0.00327
1871.47	0.0028944
1881.12	0.0026725
1890.77	0.0024988
1900.41	0.0023678
1910.06	0.0022732
1919.71	0.0022521
1929.35	0.0022498
1939	0.0022855
1948.65	0.0022996
1958.29	0.0023039
1967.94	0.0022749
1977.59	0.0023282
1987.23	0.0023539
1996.88	0.0023932
2006.53	0.0024356
2016.17	0.0025288
2025.82	0.0025282
2035.47	0.0025234
2045.11	0.0025066
2054.76	0.002406
2064.41	0.0023043
2074.05	0.0021293
2083.7	0.0020247
2093.35	0.0018751
2102.99	0.001782
2112.64	0.001718
2122.28	0.001667
2131.93	0.001645
2141.58	0.001616
2151.22	0.001664
2160.87	0.00165
2170.52	0.001653
2180.16	0.001635
2189.81	0.001648
2199.46	0.001637
2209.1	0.001648
2218.75	0.001605
2228.4	0.001602
2238.04	0.001553
2247.69	0.001563
2257.34	0.001558
2266.98	0.001524
2276.63	0.001541
2286.28	0.001479
2295.92	0.001514
2305.57	0.00155
2315.22	0.001535
2324.86	0.001536
2334.51	0.001502
2344.16	0.001566
2353.8	0.001517
2363.45	0.001525
2373.09	0.001562
2382.74	0.001514
2392.39	0.001476
2402.03	0.001447
2411.68	0.00143
2421.33	0.00142
2430.97	0.00141
2440.62	0.001372
2450.27	0.00134
2459.91	0.001327
2469.56	0.001246
2479.21	0.001282
2488.85	0.001282
2498.5	0.001258
2508.15	0.001284
2517.79	0.00132
2527.44	0.001287
2537.09	0.001297
2546.73	0.001287
2556.38	0.001242
2566.03	0.001286
2575.67	0.001295
2585.32	0.001367
2594.96	0.001439
2604.61	0.001486
2614.26	0.001522
2623.9	0.001547
2633.55	0.001598
2643.2	0.001643
2652.84	0.001759
2662.49	0.001753
2672.14	0.0019086
2681.78	0.00195603
2691.43	0.00193693
2701.08	0.0019226
2710.72	0.001728
2720.37	0.001706
2730.02	0.001729
2739.66	0.001684
2749.31	0.001796
2758.96	0.0018634
2768.6	0.00199952
2778.25	0.0021909
2787.9	0.002533
2797.54	0.00308
2807.19	0.00376
2816.84	0.00482
2826.48	0.00649
2836.13	0.00941
2845.77	0.01574
2855.42	0.02895
2865.07	0.0433
2874.71	0.0375
2884.36	0.02664
2894.01	0.02418
2903.65	0.03118
2913.3	0.04869
2922.95	0.07645
2932.59	0.10593
2942.24	0.11173
2951.89	0.09303
2961.53	0.07037
2971.18	0.04105
2980.83	0.02606
2990.47	0.01855
3000.12	0.01446
3009.77	0.01142
3019.41	0.00939
3029.06	0.00786
3038.71	0.00613
3048.35	0.00461
3058	0.00362
3067.64	0.00296
3077.29	0.0025134
3086.94	0.0022296
3096.58	0.001809
3106.23	0.001619
3115.88	0.00135
3125.52	0.001136
3135.17	0.000947
3144.82	0.00068
3154.46	0.00062
3164.11	0.00038
3173.76	0.0004
3183.4	0.00045
3193.05	0.00033
3202.7	0.00021
3212.34	0.00019
3221.99	0.00019
3231.64	9e-05
3241.28	0.00023
3250.93	1e-05
3260.58	0.00013
3270.22	7e-05
3279.87	3e-05
3289.52	0.00015
3299.16	5e-05
3308.81	2e-05
3318.45	8e-05
3328.1	0.00023
3337.75	0.00027
3347.39	0.00025
3357.04	0.0003
3366.69	0.00029
3376.33	0.00027
3385.98	0.00031
3395.63	0.00044
3405.27	0.00043
3414.92	0.00047
3424.57	0.00054
3434.21	0.00068
3443.86	0.00077
3453.51	0.00076
3463.15	0.00091
3472.8	0.001216
3482.45	0.001541
3492.09	0.00193866
3501.74	0.0021125
3511.39	0.0020997
3521.03	0.0022734
3530.68	0.0024601
3540.33	0.00332
3549.97	0.00509
3559.62	0.01124
3569.26	0.03302
3578.91	0.0404
3588.56	0.01197
3598.2	0.00464
3607.85	0.0025242
3617.5	0.001795
3627.14	0.001476
3636.79	0.001309
3646.44	0.001194
3656.08	0.001025
3665.73	0.000962
3675.38	0.00081
3685.02	0.00076
3694.67	0.0008
3704.32	0.00071
3713.96	0.00074
3723.61	0.00078
3733.26	0.00074
3742.9	0.00081
3752.55	0.00083
3762.2	0.0008
3771.84	0.0008
3781.49	0.000945
3791.13	0.00088
3800.78	0.00083
3810.43	0.00093
3820.07	0.00092
3829.72	0.0009
3839.37	0.00089
3849.01	0.00087
3858.66	0.00087
3868.31	0.00095
3877.95	0.001021
3887.6	0.001014
3897.25	0.000976
3906.89	0.001083
3916.54	0.001041
3926.19	0.001099
3935.83	0.001082
3945.48	0.001098
3955.13	0.001191
3964.77	0.001253
3974.42	0.001199
3984.07	0.001209
3993.71	0.001253
