Infrared Spectrum: 2-Chloroethyl ethyl sulfide (CEES)
Formula: C 4 H 9 C 1 S
CAS: 693-07-2
State: liquid
Instrument: Bruker Tensor 27 FTIR
Resolution: 0.48212986
Origin: Pacific Northwest National Laboratory Under IARPA Contract
1/cm	dispersion index
7797.49	1.47141
7778.93	1.47141
7760.37	1.47141
7741.81	1.47141
7723.24	1.47141
7704.68	1.4714
7686.12	1.4714
7667.56	1.4714
7649	1.47139
7630.44	1.47139
7611.88	1.47139
7593.31	1.47138
7574.75	1.47138
7556.19	1.47137
7537.63	1.47137
7519.07	1.47137
7500.51	1.47137
7481.95	1.47137
7463.38	1.47136
7444.82	1.47136
7426.26	1.47136
7407.7	1.47135
7389.14	1.47135
7370.58	1.47135
7352.02	1.47134
7333.46	1.47134
7314.89	1.47133
7296.33	1.47133
7277.77	1.47132
7259.21	1.47132
7240.65	1.47131
7222.09	1.47131
7203.53	1.4713
7184.96	1.47129
7166.4	1.47129
7147.84	1.47128
7129.28	1.47128
7110.72	1.47127
7092.16	1.47126
7073.6	1.47125
7055.03	1.47125
7036.47	1.47124
7017.91	1.47123
6999.35	1.47122
6980.79	1.47121
6962.23	1.4712
6943.67	1.47118
6925.1	1.47117
6906.54	1.47114
6887.98	1.47113
6869.42	1.47111
6850.86	1.47111
6832.3	1.47114
6813.74	1.47112
6795.17	1.47115
6776.61	1.47118
6758.05	1.47123
6739.49	1.47127
6720.93	1.47124
6702.37	1.4712
6683.81	1.47118
6665.25	1.47115
6646.68	1.47113
6628.12	1.47112
6609.56	1.47111
6591	1.4711
6572.44	1.47109
6553.88	1.47107
6535.32	1.47105
6516.75	1.47104
6498.19	1.47103
6479.63	1.47101
6461.07	1.471
6442.51	1.47098
6423.95	1.47096
6405.39	1.47094
6386.82	1.47092
6368.26	1.47091
6349.7	1.47089
6331.14	1.47087
6312.58	1.47085
6294.02	1.47082
6275.46	1.47079
6256.89	1.47076
6238.33	1.47072
6219.77	1.47069
6201.21	1.47064
6182.65	1.47058
6164.09	1.47051
6145.53	1.47041
6126.96	1.4702
6108.4	1.47021
6089.84	1.47046
6071.28	1.47068
6052.72	1.47067
6034.16	1.47056
6015.6	1.47067
5997.03	1.47085
5978.47	1.47081
5959.91	1.47074
5941.35	1.47064
5922.79	1.47056
5904.23	1.47048
5885.67	1.47046
5867.11	1.47048
5848.54	1.47048
5829.98	1.47039
5811.42	1.47028
5792.86	1.47015
5774.3	1.47007
5755.74	1.47001
5737.18	1.46992
5718.61	1.46994
5700.05	1.46982
5681.49	1.46977
5662.93	1.46966
5644.37	1.46957
5625.81	1.46943
5607.25	1.46925
5588.68	1.46901
5570.12	1.46877
5551.56	1.46854
5533	1.4682
5514.44	1.46777
5495.88	1.46739
5477.32	1.46684
5458.75	1.46592
5440.19	1.46454
5421.63	1.46219
5403.07	1.45655
5384.51	1.45664
5365.95	1.46553
5347.39	1.48211
5328.82	1.4819
5310.26	1.48022
5291.7	1.477
5273.14	1.47501
5254.58	1.47462
5236.02	1.47404
5217.46	1.47342
5198.89	1.47291
5180.33	1.47254
5161.77	1.47213
5143.21	1.47199
5124.65	1.47171
5106.09	1.47161
5087.53	1.47167
5068.97	1.47137
5050.4	1.47112
5031.84	1.47079
5013.28	1.47074
4994.72	1.47056
4976.16	1.4706
4957.6	1.47035
4939.04	1.47004
4920.47	1.46989
4901.91	1.46965
4883.35	1.46955
4864.79	1.46924
4846.23	1.46887
4827.67	1.46848
4809.11	1.468
4790.54	1.46753
4771.98	1.46687
4753.42	1.46671
4734.86	1.46581
4716.3	1.46488
4697.74	1.46377
4679.18	1.46176
4660.61	1.45858
4642.05	1.45162
4623.49	1.45408
4604.93	1.47741
4586.37	1.47715
4567.81	1.46507
4549.25	1.45417
4530.68	1.47262
4512.12	1.463
4493.56	1.48915
4475	1.47663
4456.44	1.47843
4437.88	1.4703
4419.32	1.47031
4400.75	1.47207
4382.19	1.48068
4363.63	1.47272
4345.07	1.46766
4326.51	1.46884
4307.95	1.46361
4289.39	1.45549
4270.83	1.45076
4252.26	1.34923
4233.7	1.52189
4215.14	1.51952
4196.58	1.50171
4178.02	1.49454
4159.46	1.49045
4140.9	1.48753
4122.33	1.48467
4103.77	1.49144
4085.21	3.93667e-05
4066.65	4.54593e-05
4048.09	4.71708e-05
4029.53	4.83355e-05
4010.97	4.87455e-05
3992.4	4.6419e-05
3973.84	4.08048e-05
3955.28	3.86818e-05
3936.72	3.89551e-05
3918.16	3.84768e-05
3899.6	5.23066e-05
3881.04	6.57933e-05
3862.47	6.8463e-05
3843.91	9.24265e-05
3825.35	0.000104065
3806.79	0.000101326
3788.23	0.000111596
3769.67	9.99573e-05
3751.11	0.000109541
3732.54	9.65343e-05
3713.98	8.42109e-05
3695.42	9.51646e-05
3676.86	8.48943e-05
3658.3	8.62641e-05
3639.74	6.59984e-05
3621.18	6.8258e-05
3602.61	6.8463e-05
3584.05	6.75731e-05
3565.49	6.67516e-05
3546.93	5.93575e-05
3528.37	5.36066e-05
3509.81	5.22383e-05
3491.25	4.82672e-05
3472.69	4.95671e-05
3454.12	4.86772e-05
3435.56	4.75823e-05
3417	4.23112e-05
3398.44	3.9025e-05
3379.88	3.84084e-05
3361.32	3.93667e-05
3342.76	4.09414e-05
3324.19	4.32011e-05
3305.63	4.53226e-05
3287.07	5.05268e-05
3268.51	5.73043e-05
3249.95	6.12071e-05
3231.39	6.70948e-05
3212.83	9.58494e-05
3194.26	0.000245784
3175.7	0.000329995
3157.14	0.000595633
3138.58	0.000855795
3120.02	0.000659988
3101.46	0.00115019
3082.9	0.00102695
3064.33	0.00123234
3045.77	0.000780484
3027.21	0.000373811
3008.65	0.000178006
2990.09	0.00013008
2971.53	0.000104065
2952.97	9.65343e-05
2934.4	0.000121865
2915.84	0.000172528
2897.28	0.000155412
2878.72	0.000137612
2860.16	9.92724e-05
2841.6	9.79026e-05
2823.04	0.000129397
2804.47	0.000109541
2785.91	8.83187e-05
2767.35	7.94182e-05
2748.79	5.33332e-05
2730.23	4.80621e-05
2711.67	7.32557e-05
2693.11	9.31099e-05
2674.55	9.99573e-05
2655.98	8.69489e-05
2637.42	5.15534e-05
2618.86	3.75869e-05
2600.3	1.7801e-05
2581.74	2.21138e-05
2563.18	3.03978e-05
2544.62	1.82794e-05
2526.05	2.56735e-05
2507.49	2.50584e-05
2488.93	4.39543e-05
2470.37	0.000104065
2451.81	0.000212921
2433.25	0.000551817
2414.69	0.00297132
2396.12	0.00397773
2377.56	0.00408043
2359	0.00280016
2340.44	0.00248523
2321.88	0.00358749
2303.32	0.00302609
2284.76	0.00201968
2266.19	0.00147881
2247.63	0.00104749
2229.07	0.000814717
2210.51	0.0011228
2191.95	0.00148566
2173.39	0.00109542
2154.83	0.00108172
2136.26	0.000445013
2117.7	0.000219084
2099.14	0.000156782
2080.58	0.000570986
2062.02	0.000910565
2043.46	0.000985875
2024.9	0.00112965
2006.33	0.000931104
1987.77	0.00102695
1969.21	0.000896873
1950.65	0.000862641
1932.09	0.000588787
1913.53	0.000296447
1894.97	0.000180059
1876.41	0.000430635
1857.84	0.000746252
1839.28	0.000712021
1820.72	0.0011228
1802.16	0.00219768
1783.6	0.00230037
1765.04	0.00245784
1746.48	0.00375865
1727.91	0.00637396
1709.35	0.0147197
1690.79	0.120496
1672.23	0.095849
1653.67	0.0842102
1635.11	0.0848948
1616.55	0.02629
1597.98	0.00540177
1579.42	0.00234145
1560.86	0.00497045
1542.3	0.00247838
1523.74	0.00115019
1505.18	0.000481984
1486.62	0.000828408
1468.05	0.00059084
1449.49	0.00232776
1430.93	0.0014035
1412.37	0.0031904
1393.81	0.0031014
1375.25	0.00164312
1356.69	0.00100641
1338.12	0.000896873
1319.56	0.00238253
1301	0.00206075
1282.44	0.00285493
1263.88	0.00108172
1245.32	0.00108857
1226.76	0.00154728
1208.19	0.00178005
1189.63	0.00138981
1171.07	0.000780484
1152.51	0.000167735
1133.95	0.000122549
1115.39	5.10052e-05
1096.83	0.000414889
1078.27	0.000910565
1059.7	0.00544285
1041.14	0.00223191
1022.58	0.00268377
1004.02	0.00402566
985.458	0.00388873
966.897	0.00705174
948.335	0.0158835
929.774	0.157466
911.213	0.163628
892.651	0.0539493
874.09	0.0199914
855.528	0.0601795
836.967	0.173897
818.406	0.0480614
799.844	0.0444328
781.283	0.0143089
762.721	0.0780484
744.16	0.0132819
725.599	0.0677104
707.037	0.048883
688.476	0.106803
669.915	0.0303294
651.353	0.0126658
632.792	0.0691482
614.23	0.0185536
595.669	0.0601795
577.108	0.110911
558.546	0.173897
539.985	0.193067
521.423	0.109542
502.862	0.00627811
484.301	0.000698328
465.739	0.000453229
447.178	0.00212922
428.616	0.00605218
410.055	0.0538123
