Infrared Spectrum: 3-(Butylamino)propionitrile
Formula: C 7 H 14 N 2
CAS: 693-51-6
State: gas
Origin: EPA-IR VAPOR PHASE LIBRARY
1/CM	ABSORBANCE
549.8	0.003146
559.445	0.003316
569.09	0.003416
578.734	0.003566
588.379	0.003926
598.024	0.004326
607.669	0.004676
617.313	0.005446
626.958	0.006006
636.603	0.007206
646.248	0.008306
655.893	0.009136
665.537	0.009956
675.182	0.010306
684.827	0.010346
694.472	0.010176
704.116	0.009866
713.761	0.009626
723.406	0.009046
733.051	0.008376
742.695	0.007416
752.34	0.006376
761.985	0.005086
771.63	0.004256
781.275	0.003706
790.919	0.003336
800.564	0.003176
810.209	0.003006
819.854	0.003096
829.498	0.003056
839.143	0.002876
848.788	0.002566
858.433	0.002376
868.078	0.002076
877.722	0.002056
887.367	0.001946
897.012	0.002006
906.657	0.002056
916.301	0.002016
925.946	0.002516
935.591	0.002736
945.236	0.003206
954.88	0.003426
964.525	0.003696
974.17	0.003836
983.815	0.003836
993.46	0.003366
1003.1	0.003606
1012.75	0.003236
1022.39	0.002796
1032.04	0.003226
1041.68	0.003286
1051.33	0.003566
1060.97	0.003936
1070.62	0.003876
1080.26	0.004016
1089.91	0.004846
1099.55	0.006756
1109.2	0.010186
1118.84	0.017546
1128.49	0.030356
1138.13	0.035596
1147.78	0.026236
1157.42	0.016206
1167.07	0.008946
1176.71	0.005686
1186.36	0.004736
1196	0.004386
1205.64	0.005046
1215.29	0.005336
1224.93	0.005546
1234.58	0.004436
1244.22	0.003976
1253.87	0.004456
1263.51	0.004006
1273.16	0.003796
1282.8	0.003886
1292.45	0.004296
1302.09	0.004896
1311.74	0.005906
1321.38	0.007016
1331.03	0.008696
1340.67	0.010536
1350.32	0.012966
1359.96	0.014436
1369.61	0.012306
1379.25	0.009596
1388.9	0.007436
1398.54	0.005736
1408.18	0.005716
1417.83	0.007716
1427.47	0.011306
1437.12	0.013196
1446.76	0.014746
1456.41	0.019446
1466.05	0.024956
1475.7	0.023586
1485.34	0.013286
1494.99	0.006336
1504.63	0.003896
1514.28	0.002786
1523.92	0.002156
1533.57	0.001816
1543.21	0.001376
1552.86	0.001296
1562.5	0.001176
1572.15	0.0010569
1581.79	0.0010263
1591.44	0.0008418
1601.08	0.0007899
1610.73	0.000821
1620.37	0.0007173
1630.01	0.0006761
1639.66	0.0008197
1649.3	0.0006966
1658.95	0.0007217
1668.59	0.0006982
1678.24	0.0007045
1687.88	0.0006202
1697.53	0.0007038
1707.17	0.0005967
1716.82	0.000628
1726.46	0.0005657
1736.11	0.0006683
1745.75	0.0005647
1755.4	0.0006088
1765.04	0.0006329
1774.69	0.0007164
1784.33	0.0006389
1793.98	0.000693
1803.62	0.0006518
1813.27	0.000728
1822.91	0.0007318
1832.55	0.0006011
1842.2	0.0005845
1851.84	0.0006915
1861.49	0.0006802
1871.13	0.0005418
1880.78	0.00055
1890.42	0.0005909
1900.07	0.0004555
1909.71	0.0004202
1919.36	0.0003999
1929	0.0004853
1938.65	0.0004516
1948.29	0.0003921
1957.94	0.000472
1967.58	0.0003763
1977.23	0.0003919
1986.87	0.0004184
1996.52	0.0003945
2006.16	0.000391
2015.81	0.000441
2025.45	0.0004295
2035.1	0.0004687
2044.74	0.0005262
2054.38	0.0005465
2064.03	0.0004775
2073.67	0.000533
2083.32	0.0005803
2092.96	0.0005337
2102.61	0.0005147
2112.25	0.0005059
2121.9	0.0004825
2131.54	0.0005159
2141.19	0.000532
2150.83	0.0005166
2160.48	0.0004505
2170.12	0.0005809
2179.77	0.0005398
2189.41	0.0005407
2199.06	0.0005636
2208.7	0.0005826
2218.35	0.0007489
2227.99	0.0009172
2237.64	0.001496
2247.28	0.002456
2256.92	0.002346
2266.57	0.001296
2276.21	0.0008329
2285.86	0.0006475
2295.5	0.0006309
2305.15	0.0005745
2314.79	0.000536
2324.44	0.0005667
2334.08	0.0005411
2343.73	0.0005096
2353.37	0.0005035
2363.02	0.0006035
2372.66	0.0005968
2382.31	0.0006008
2391.95	0.0005434
2401.6	0.0006518
2411.24	0.0006985
2420.89	0.0006374
2430.53	0.0006218
2440.18	0.000704
2449.82	0.000586
2459.47	0.0005754
2469.11	0.0006126
2478.75	0.0005568
2488.4	0.0006162
2498.04	0.0005838
2507.69	0.0006228
2517.33	0.0007053
2526.98	0.0006775
2536.62	0.0007347
2546.27	0.0007842
2555.91	0.000945
2565.56	0.0009569
2575.2	0.0008791
2584.85	0.0010882
2594.49	0.001326
2604.14	0.001366
2613.78	0.001526
2623.43	0.001656
2633.07	0.001596
2642.72	0.001806
2652.36	0.002106
2662.01	0.002376
2671.65	0.002706
2681.29	0.002966
2690.94	0.003306
2700.58	0.003616
2710.23	0.003966
2719.87	0.004176
2729.52	0.004496
2739.16	0.004896
2748.81	0.005326
2758.45	0.005596
2768.1	0.005936
2777.74	0.006746
2787.39	0.008336
2797.03	0.011156
2806.68	0.015846
2816.32	0.022636
2825.97	0.030066
2835.61	0.035156
2845.26	0.037006
2854.9	0.037066
2864.55	0.038046
2874.19	0.039516
2883.84	0.040426
2893.48	0.038026
2903.12	0.038736
2912.77	0.047646
2922.41	0.062066
2932.06	0.076996
2941.7	0.081696
2951.35	0.071846
2960.99	0.068306
2970.64	0.066216
2980.28	0.042976
2989.93	0.020836
2999.57	0.011746
3009.22	0.007716
3018.86	0.005526
3028.51	0.004516
3038.15	0.003566
3047.8	0.002966
3057.44	0.002386
3067.09	0.002266
3076.73	0.001846
3086.38	0.001866
3096.02	0.001606
3105.67	0.001376
3115.31	0.001346
3124.95	0.001236
3134.6	0.0009702
3144.24	0.0008868
3153.89	0.0010301
3163.53	0.0009996
3173.18	0.0009031
3182.82	0.0010213
3192.47	0.0009359
3202.11	0.0009095
3211.76	0.0006411
3221.4	0.0006531
3231.05	0.0006306
3240.69	0.0003782
3250.34	0.0005219
3259.98	0.0004097
3269.63	0.0003529
3279.27	0.0003096
3288.92	0.0003349
3298.56	0.0002595
3308.21	0.0003505
3317.85	0.0003153
3327.49	0.0005529
3337.14	0.0004146
3346.78	0.0003329
3356.43	0.0004997
3366.07	0.0006762
3375.72	0.0007385
3385.36	0.0005881
3395.01	0.0007255
3404.65	0.0004949
3414.3	0.0005334
3423.94	0.0004585
3433.59	0.00021881
3443.23	0.0002338
3452.88	0.0001569
3462.52	0.00020428
3472.17	0.00021903
3481.81	0.0002513
3491.46	0.0003017
3501.1	0.00015627
3510.75	9.28e-05
3520.39	9.43e-05
3530.04	0.00012202
3539.68	0.0002314
3549.32	0.0002354
3558.97	0.00021778
3568.61	0.000127948
3578.26	0.0001
3587.9	8.49e-05
3597.55	0.00016716
3607.19	0.00020322
3616.84	0.0002746
3626.48	0.00016577
3636.13	0.00018838
3645.77	0.0002988
3655.42	0.000324
3665.06	0.0002905
3674.71	0.0002865
3684.35	0.0002963
3694	0.0003389
3703.64	0.00018677
3713.29	0.0003088
3722.93	0.00028
3732.58	0.0001124
3742.22	0.00020313
3751.86	0.0003344
3761.51	0.0002866
3771.15	0.00021428
3780.8	0.0003949
3790.44	0.0003625
3800.09	0.0002839
3809.73	0.00015486
3819.38	0.0003697
3829.02	0.000305
3838.67	0.0003231
3848.31	0.00019325
3857.96	0.00018194
3867.6	0.00018394
3877.25	0.00012355
3886.89	0.000130056
3896.54	0.0002726
3906.18	0.00015693
3915.83	0.0002705
3925.47	0.0003631
3935.12	0.0004702
3944.76	0.000342
3954.41	0.0003376
3964.05	0.0004136
3973.69	0.0004612
3983.34	0.0004353
3992.98	0.0004755
