Infrared Spectrum: sec-Octylamine
Formula: C 8 H 19 N
CAS: 693-16-3
State: gas
Origin: EPA-IR VAPOR PHASE LIBRARY
1/CM	ABSORBANCE
549.8	0.003014
559.445	0.002614
569.09	0.002784
578.734	0.003484
588.379	0.003044
598.024	0.002814
607.669	0.002744
617.313	0.002824
626.958	0.002944
636.603	0.003024
646.248	0.003284
655.893	0.003634
665.537	0.003944
675.182	0.004204
684.827	0.004584
694.472	0.005194
704.116	0.006094
713.761	0.007274
723.406	0.008674
733.051	0.010004
742.695	0.011404
752.34	0.013614
761.985	0.016154
771.63	0.019224
781.275	0.021664
790.919	0.021414
800.564	0.017804
810.209	0.013764
819.854	0.010664
829.498	0.008654
839.143	0.007164
848.788	0.006354
858.433	0.005354
868.078	0.004494
877.722	0.003994
887.367	0.003634
897.012	0.003404
906.657	0.003194
916.301	0.003204
925.946	0.002904
935.591	0.002734
945.236	0.002684
954.88	0.002454
964.525	0.002424
974.17	0.002624
983.815	0.002724
993.46	0.002724
1003.1	0.002724
1012.75	0.002894
1022.39	0.002884
1032.04	0.003184
1041.68	0.003794
1051.33	0.004214
1060.97	0.004214
1070.62	0.004354
1080.26	0.004594
1089.91	0.004584
1099.55	0.004164
1109.2	0.004314
1118.84	0.004664
1128.49	0.005384
1138.13	0.006234
1147.78	0.006494
1157.42	0.005064
1167.07	0.003884
1176.71	0.003284
1186.36	0.003154
1196	0.003074
1205.64	0.003184
1215.29	0.003304
1224.93	0.002964
1234.58	0.002614
1244.22	0.002744
1253.87	0.002674
1263.51	0.002764
1273.16	0.002834
1282.8	0.002834
1292.45	0.003144
1302.09	0.003594
1311.74	0.004074
1321.38	0.004734
1331.03	0.005874
1340.67	0.007294
1350.32	0.008244
1359.96	0.009154
1369.61	0.011294
1379.25	0.012544
1388.9	0.009824
1398.54	0.005934
1408.18	0.004164
1417.83	0.003774
1427.47	0.004314
1437.12	0.006074
1446.76	0.009134
1456.41	0.012274
1466.05	0.012314
1475.7	0.008914
1485.34	0.005374
1494.99	0.003614
1504.63	0.002894
1514.28	0.002474
1523.92	0.002254
1533.57	0.002054
1543.21	0.002044
1552.86	0.002094
1562.5	0.002114
1572.15	0.002594
1581.79	0.003124
1591.44	0.004014
1601.08	0.005414
1610.73	0.007454
1620.37	0.008634
1630.01	0.007294
1639.66	0.005074
1649.3	0.003174
1658.95	0.002294
1668.59	0.001724
1678.24	0.001454
1687.88	0.0012396
1697.53	0.0010806
1707.17	0.0010441
1716.82	0.0009097
1726.46	0.0008705
1736.11	0.0008976
1745.75	0.0007736
1755.4	0.0008442
1765.04	0.000786
1774.69	0.0007247
1784.33	0.000723
1793.98	0.0007265
1803.62	0.0007083
1813.27	0.0007206
1822.91	0.0006794
1832.55	0.0006549
1842.2	0.0006284
1851.84	0.000616
1861.49	0.0006134
1871.13	0.000596
1880.78	0.0005565
1890.42	0.000574
1900.07	0.0005833
1909.71	0.0004734
1919.36	0.0005377
1929	0.00051763
1938.65	0.00046977
1948.29	0.00045379
1957.94	0.000429738
1967.58	0.0003801
1977.23	0.00046241
1986.87	0.000429991
1996.52	0.0004112
2006.16	0.000444
2015.81	0.0005662
2025.45	0.0005466
2035.1	0.0005292
2044.74	0.0005586
2054.38	0.00052122
2064.03	0.0005344
2073.67	0.00050677
2083.32	0.00044752
2092.96	0.00043447
2102.61	0.000429168
2112.25	0.0003771
2121.9	0.0004082
2131.54	0.0003861
2141.19	0.000430792
2150.83	0.00049953
2160.48	0.00048542
2170.12	0.00045273
2179.77	0.00050615
2189.41	0.0003954
2199.06	0.0003441
2208.7	0.00044799
2218.35	0.00045257
2227.99	0.0003857
2237.64	0.000294
2247.28	0.0003978
2256.92	0.00041964
2266.57	0.000426407
2276.21	0.0003667
2285.86	0.0003811
2295.5	0.0003957
2305.15	0.00048349
2314.79	0.00043448
2324.44	0.000426349
2334.08	0.00042169
2343.73	0.00041655
2353.37	0.00049507
2363.02	0.00044584
2372.66	0.00052383
2382.31	0.00041594
2391.95	0.0005275
2401.6	0.0005875
2411.24	0.0005447
2420.89	0.0003836
2430.53	0.00049876
2440.18	0.00047224
2449.82	0.00043901
2459.47	0.00049409
2469.11	0.0005342
2478.75	0.00046304
2488.4	0.0003572
2498.04	0.00043416
2507.69	0.0005545
2517.33	0.00049746
2526.98	0.0006693
2536.62	0.0006409
2546.27	0.0007183
2555.91	0.0007527
2565.56	0.0009424
2575.2	0.0008758
2584.85	0.001044
2594.49	0.0011774
2604.14	0.0012198
2613.78	0.0013155
2623.43	0.001484
2633.07	0.001584
2642.72	0.001704
2652.36	0.001794
2662.01	0.001924
2671.65	0.001994
2681.29	0.002024
2690.94	0.001944
2700.58	0.002014
2710.23	0.001944
2719.87	0.002134
2729.52	0.002414
2739.16	0.002594
2748.81	0.002674
2758.45	0.002604
2768.1	0.002684
2777.74	0.003134
2787.39	0.003684
2797.03	0.004534
2806.68	0.005754
2816.32	0.007264
2825.97	0.009894
2835.61	0.014344
2845.26	0.023044
2854.9	0.036094
2864.55	0.045854
2874.19	0.046844
2883.84	0.043464
2893.48	0.041374
2903.12	0.049194
2912.77	0.068794
2922.41	0.097904
2932.06	0.117164
2941.7	0.103344
2951.35	0.079874
2960.99	0.079994
2970.64	0.075054
2980.28	0.044744
2989.93	0.021784
2999.57	0.011704
3009.22	0.007754
3018.86	0.005704
3028.51	0.004234
3038.15	0.003594
3047.8	0.002884
3057.44	0.002564
3067.09	0.002044
3076.73	0.002064
3086.38	0.001934
3096.02	0.001604
3105.67	0.001504
3115.31	0.001346
3124.95	0.0013651
3134.6	0.0012504
3144.24	0.0011218
3153.89	0.0011758
3163.53	0.0009563
3173.18	0.0009934
3182.82	0.0010194
3192.47	0.0011454
3202.11	0.0010181
3211.76	0.0007741
3221.4	0.0005314
3231.05	0.0005275
3240.69	0.00049226
3250.34	0.00044782
3259.98	0.0003901
3269.63	0.0003507
3279.27	0.0004531
3288.92	0.000252
3298.56	0.000304
3308.21	0.00049061
3317.85	0.0008253
3327.49	0.0012533
3337.14	0.0012378
3346.78	0.0009009
3356.43	0.0007455
3366.07	0.00041831
3375.72	0.000296
3385.36	0.0005578
3395.01	0.00049574
3404.65	0.00045141
3414.3	0.00048518
3423.94	0.000133
3433.59	0.000241
3443.23	0.000245
3452.88	0.000186
3462.52	0.000137
3472.17	0.0003
3481.81	8.5e-05
3491.46	0.000127
3501.1	0.000279
3510.75	0.000106
3520.39	0.000213
3530.04	0.00031
3539.68	0.000274
3549.32	0.000129
3558.97	0.000104
3568.61	0.000207
3578.26	0.00022
3587.9	0.000234
3597.55	0.000169
3607.19	0.0005375
3616.84	0.000292
3626.48	0.000294
3636.13	0.00048727
3645.77	0.000272
3655.42	0.00028
3665.06	0.000199
3674.71	0.000317
3684.35	0.00027
3694	0.000294
3703.64	0.000281
3713.29	0.000319
3722.93	0.0003881
3732.58	0.00027
3742.22	0.00043873
3751.86	0.0005262
3761.51	0.000362
3771.15	0.0003537
3780.8	0.00047182
3790.44	0.000314
3800.09	0.000228
3809.73	0.0005959
3819.38	0.000296
3829.02	0.00041972
3838.67	0.0003545
3848.31	0.0004086
3857.96	0.0006348
3867.6	0.0003899
3877.25	7.4e-05
3886.89	0.000159
3896.54	0.000182
3906.18	0.0006233
3915.83	0.0003541
3925.47	0.0005275
3935.12	0.0004903
3944.76	0.0003856
3954.41	0.00050034
3964.05	0.000301
3973.69	0.000309
3983.34	0.0003426
3992.98	0.0005667
