Infrared Spectrum: DODECANE DIOIC ACID
Formula: C12 H22 O4
CAS: 693-23-2
State: SOLID (KBr PELLET)
Melting point: 122-123 C
Class: COBLENTZ
Instrument: Not specified, most likely a prism, grating, or hybrid spectrometer.
Sampling: TRANSMISSION
Resolution: 4
Origin: TENNESSEE EASTMAN COMPANY, RESEARCH LABORATORIES
MICROMETERS	TRANSMITTANCE
2.014	0.994
2.05489	0.996
2.09579	1
2.13668	0.998
2.17758	0.998
2.21847	0.998
2.25937	1
2.30026	0.998
2.34115	1
2.38205	0.998
2.42294	0.998
2.46384	0.994
2.50473	0.993
2.54563	0.993
2.58652	0.993
2.62741	0.993
2.66831	0.991
2.7092	0.991
2.7501	0.984
2.79099	0.972
2.83189	0.936
2.87278	0.901
2.91367	0.865
2.95457	0.86
2.99546	0.862
3.03636	0.862
3.07725	0.819
3.11815	0.77
3.15904	0.71
3.19993	0.64
3.24083	0.56
3.28172	0.504
3.32262	0.48
3.36351	0.398
3.40441	0.178
3.4453	0.407
3.48619	0.332
3.52709	0.621
3.56798	0.659
3.60888	0.664
3.64977	0.683
3.69067	0.681
3.73156	0.669
3.77245	0.662
3.81335	0.678
3.85424	0.689
3.89514	0.734
3.93603	0.749
3.97693	0.781
4.01782	0.824
4.05871	0.865
4.09961	0.901
4.1405	0.93
4.1814	0.943
4.22229	0.95
4.26319	0.945
4.30408	0.95
4.34497	0.96
4.38587	0.969
4.42676	0.967
4.46766	0.965
4.50855	0.969
4.54945	0.96
4.59034	0.962
4.63123	0.962
4.67213	0.962
4.71302	0.962
4.75392	0.962
4.79481	0.965
4.83571	0.967
4.8766	0.964
4.91749	0.962
4.95839	0.96
4.99928	0.96
5.04018	0.96
5.08107	0.957
5.12197	0.95
5.16286	0.947
5.20375	0.945
5.24465	0.942
5.28554	0.938
5.32644	0.93
5.36733	0.928
5.40823	0.921
5.44912	0.914
5.49001	0.901
5.53091	0.877
5.5718	0.87
5.6127	0.848
5.65359	0.831
5.69449	0.793
5.73538	0.71
5.77627	0.57
5.81717	0.243
5.85806	0.064
5.89896	0.049
5.93985	0.223
5.98075	0.562
6.02164	0.718
6.06253	0.752
6.10343	0.795
6.14432	0.819
6.18522	0.844
6.22611	0.868
6.26701	0.882
6.3079	0.882
6.34879	0.884
6.38969	0.887
6.43058	0.904
6.47148	0.899
6.51237	0.909
6.55327	0.901
6.59416	0.902
6.63505	0.902
6.67595	0.901
6.71684	0.873
6.75774	0.775
6.79863	0.62
6.83953	0.71
6.88042	0.706
6.92131	0.558
6.96221	0.4
7.0031	0.512
7.044	0.58
7.08489	0.526
7.12579	0.734
7.16668	0.812
7.20757	0.827
7.24847	0.827
7.28936	0.822
7.33026	0.814
7.37115	0.79
7.41205	0.79
7.45294	0.751
7.49383	0.599
7.53473	0.672
7.57562	0.763
7.61652	0.735
7.65741	0.628
7.69831	0.504
7.7392	0.429
7.78009	0.33
7.82099	0.398
7.86188	0.586
7.90278	0.684
7.94367	0.758
7.98457	0.773
8.02546	0.683
8.06635	0.551
8.10725	0.453
8.14814	0.485
8.18904	0.594
8.22993	0.688
8.27083	0.759
8.31172	0.788
8.35261	0.688
8.39351	0.533
8.4344	0.64
8.4753	0.756
8.51619	0.8
8.55709	0.817
8.59798	0.829
8.63887	0.836
8.67977	0.843
8.72066	0.851
8.76156	0.855
8.80245	0.855
8.84335	0.85
8.88424	0.846
8.92513	0.846
8.96603	0.848
9.00692	0.848
9.04782	0.851
9.08871	0.851
9.12961	0.856
9.1705	0.862
9.2114	0.87
9.25229	0.87
9.29318	0.838
9.33408	0.817
9.37497	0.829
9.41587	0.834
9.45676	0.851
9.49766	0.863
9.53855	0.872
9.57944	0.873
9.62034	0.87
9.66123	0.856
9.70213	0.856
9.74302	0.862
9.78392	0.862
9.82481	0.863
9.8657	0.868
9.9066	0.87
9.94749	0.87
9.98839	0.87
10.0293	0.868
10.0702	0.855
10.1111	0.853
10.152	0.853
10.1929	0.848
10.2338	0.827
10.2746	0.812
10.3155	0.798
10.3564	0.781
10.3973	0.77
10.4382	0.741
10.4791	0.72
10.52	0.696
10.5609	0.671
10.6018	0.645
10.6427	0.633
10.6836	0.613
10.7245	0.599
10.7654	0.594
10.8063	0.596
10.8472	0.618
10.8881	0.642
10.929	0.676
10.9698	0.7
11.0107	0.712
11.0516	0.729
11.0925	0.756
11.1334	0.79
11.1743	0.805
11.2152	0.814
11.2561	0.821
11.297	0.836
11.3379	0.85
11.3788	0.865
11.4197	0.877
11.4606	0.887
11.5015	0.896
11.5424	0.902
11.5833	0.906
11.6242	0.913
11.6651	0.918
11.7059	0.925
11.7468	0.93
11.7877	0.933
11.8286	0.936
11.8695	0.938
11.9104	0.94
11.9513	0.942
11.9922	0.943
12.0331	0.943
12.074	0.942
12.1149	0.942
12.1558	0.943
12.1967	0.945
12.2376	0.947
12.2785	0.947
12.3194	0.947
12.3603	0.947
12.4011	0.94
12.442	0.933
12.4829	0.925
12.5238	0.913
12.5647	0.911
12.6056	0.936
12.6465	0.947
12.6874	0.948
12.7283	0.948
12.7692	0.947
12.8101	0.947
12.851	0.947
12.8919	0.947
12.9328	0.947
12.9737	0.948
13.0146	0.947
13.0555	0.95
13.0964	0.952
13.1372	0.952
13.1781	0.952
13.219	0.952
13.2599	0.95
13.3008	0.947
13.3417	0.938
13.3826	0.936
13.4235	0.931
13.4644	0.921
13.5053	0.904
13.5462	0.896
13.5871	0.901
13.628	0.908
13.6689	0.904
13.7098	0.867
13.7507	0.827
13.7916	0.824
13.8324	0.843
13.8733	0.867
13.9142	0.884
13.9551	0.897
13.996	0.902
14.0369	0.904
14.0778	0.906
14.1187	0.904
14.1596	0.899
14.2005	0.892
14.2414	0.88
14.2823	0.868
14.3232	0.856
14.3641	0.843
14.405	0.831
14.4459	0.817
14.4868	0.798
14.5277	0.78
14.5685	0.754
14.6094	0.737
14.6503	0.724
14.6912	0.718
14.7321	0.715
14.773	0.718
14.8139	0.729
14.8548	0.742
14.8957	0.747
14.9366	0.749
14.9775	0.749
15.0184	0.747
15.0593	0.749
15.1002	0.751
15.1411	0.749
15.182	0.744
15.2229	0.739
15.2637	0.735
15.3046	0.73
15.3455	0.724
15.3864	0.718
15.4273	0.71
15.4682	0.7
15.5091	0.696
15.55	0.689
15.5909	0.683
15.6318	0.674
15.6727	0.667
15.7136	0.66
15.7545	0.649
15.7954	0.647
15.8363	0.642
15.8772	0.637
15.9181	0.628
15.959	0.626
