Infrared Spectrum: Methyl 4-cyanoacetylbenzoate
Formula: C 11 H 9 N O 3
CAS: 69316-08-1
State: gas
Origin: EPA-IR VAPOR PHASE LIBRARY
1/CM	ABSORBANCE
549.8	0.0011698
559.445	0.0012397
569.09	0.001652
578.735	0.002862
588.38	0.002392
598.025	0.001532
607.67	0.0008627
617.315	0.0008876
626.96	0.0010073
636.605	0.0010848
646.251	0.0009002
655.896	0.0010145
665.541	0.001492
675.186	0.001842
684.831	0.002492
694.476	0.004192
704.121	0.005142
713.766	0.004402
723.411	0.003102
733.056	0.003492
742.701	0.004962
752.346	0.004682
761.991	0.004642
771.636	0.005062
781.281	0.004352
790.926	0.002802
800.571	0.002322
810.216	0.002502
819.861	0.003432
829.507	0.003202
839.152	0.002362
848.797	0.003332
858.442	0.004012
868.087	0.002442
877.732	0.0012115
887.377	0.0012707
897.022	0.001472
906.667	0.002302
916.312	0.003572
925.957	0.003912
935.602	0.002452
945.247	0.001532
954.892	0.001882
964.537	0.002632
974.182	0.002152
983.827	0.001662
993.472	0.002882
1003.12	0.008882
1012.76	0.017572
1022.41	0.005922
1032.05	0.003112
1041.7	0.002112
1051.34	0.002042
1060.99	0.002452
1070.63	0.003742
1080.28	0.006412
1089.92	0.012852
1099.57	0.027832
1109.21	0.040272
1118.86	0.025322
1128.5	0.011112
1138.15	0.005702
1147.79	0.004232
1157.44	0.004042
1167.08	0.005292
1176.73	0.008412
1186.37	0.010672
1196.02	0.011132
1205.66	0.012762
1215.31	0.011272
1224.95	0.013632
1234.6	0.016402
1244.24	0.019062
1253.89	0.035042
1263.53	0.067572
1273.18	0.099032
1282.82	0.065962
1292.47	0.028872
1302.11	0.018062
1311.76	0.013412
1321.4	0.009612
1331.05	0.005962
1340.69	0.003902
1350.34	0.003272
1359.98	0.003322
1369.63	0.003002
1379.27	0.002972
1388.92	0.003292
1398.56	0.005302
1408.21	0.008542
1417.85	0.007582
1427.5	0.005392
1437.14	0.010842
1446.79	0.006972
1456.43	0.003092
1466.08	0.002372
1475.73	0.001952
1485.37	0.001682
1495.02	0.002542
1504.66	0.003752
1514.31	0.002212
1523.95	0.002012
1533.6	0.002002
1543.24	0.001842
1552.89	0.001772
1562.53	0.002292
1572.18	0.002942
1581.82	0.001702
1591.47	0.0013467
1601.11	0.001742
1610.76	0.002252
1620.4	0.002072
1630.05	0.001692
1639.69	0.001502
1649.34	0.001682
1658.98	0.001982
1668.63	0.002612
1678.27	0.003602
1687.92	0.005542
1697.56	0.010752
1707.21	0.024682
1716.85	0.037592
1726.5	0.027602
1736.14	0.024992
1745.79	0.053382
1755.43	0.042982
1765.08	0.012112
1774.72	0.005852
1784.37	0.003742
1794.01	0.002792
1803.66	0.002332
1813.3	0.001962
1822.95	0.0014154
1832.59	0.0011016
1842.24	0.0010232
1851.88	0.000843
1861.53	0.0006685
1871.17	0.0006839
1880.82	0.0006617
1890.46	0.0005807
1900.11	0.0006987
1909.75	0.0008758
1919.4	0.001164
1929.04	0.0012862
1938.69	0.0011495
1948.33	0.0009096
1957.98	0.0006814
1967.62	0.0005791
1977.27	0.000459515
1986.91	0.000451215
1996.56	0.0004356
2006.2	0.00044884
2015.85	0.0004861
2025.49	0.000454665
2035.14	0.000435
2044.78	0.00046865
2054.43	0.0005575
2064.07	0.0006759
2073.72	0.0007364
2083.36	0.0008056
2093.01	0.000704
2102.65	0.0006134
2112.3	0.00051574
2121.94	0.0004284
2131.59	0.0004292
2141.23	0.0003586
2150.88	0.0003921
2160.52	0.000333
2170.17	0.000369
2179.81	0.0003689
2189.46	0.000373
2199.1	0.0004386
2208.75	0.0006741
2218.39	0.00051257
2228.04	0.0004021
2237.68	0.0003699
2247.33	0.0005804
2256.97	0.0007193
2266.62	0.0006156
2276.26	0.0004086
2285.91	0.000451568
2295.55	0.00047949
2305.2	0.0004342
2314.84	0.0004072
2324.49	0.0003937
2334.13	0.0004341
2343.78	0.0004081
2353.42	0.0004363
2363.07	0.00044636
2372.72	0.0004184
2382.36	0.000461792
2392.01	0.0003963
2401.65	0.00047178
2411.3	0.0004039
2420.94	0.0003615
2430.59	0.000331
2440.23	0.0003721
2449.88	0.0003693
2459.52	0.000333
2469.17	0.0003675
2478.81	0.000336
2488.46	0.00035
2498.1	0.0003993
2507.75	0.000457935
2517.39	0.0003601
2527.04	0.00044534
2536.68	0.0004413
2546.33	0.0003799
2555.97	0.0004105
2565.62	0.0003887
2575.26	0.0004266
2584.91	0.00033
2594.55	0.0003749
2604.2	0.000344
2613.84	0.0004419
2623.49	0.000293
2633.13	0.000329
2642.78	0.000297
2652.42	0.000315
2662.07	0.000262
2671.71	0.000317
2681.36	0.00029
2691	0.000271
2700.65	0.000243
2710.29	0.000289
2719.94	0.000243
2729.58	0.000341
2739.23	0.000274
2748.87	0.000254
2758.52	0.000296
2768.16	0.000343
2777.81	0.000345
2787.45	0.000289
2797.1	0.0003842
2806.74	0.0004392
2816.39	0.0003766
2826.03	0.00050048
2835.68	0.0006825
2845.32	0.0013636
2854.97	0.001982
2864.61	0.0010355
2874.26	0.0008549
2883.9	0.0008124
2893.55	0.0010711
2903.19	0.0013973
2912.84	0.001522
2922.48	0.001632
2932.13	0.001762
2941.77	0.001852
2951.42	0.003662
2961.06	0.010102
2970.71	0.005282
2980.35	0.001832
2990	0.001732
2999.64	0.002082
3009.29	0.002072
3018.93	0.001932
3028.58	0.001962
3038.22	0.001782
3047.87	0.001472
3057.51	0.001482
3067.16	0.0013893
3076.8	0.0011365
3086.45	0.0010809
3096.09	0.0011598
3105.74	0.0010098
3115.38	0.0007102
3125.03	0.0006043
3134.67	0.000460048
3144.32	0.000352
3153.96	0.000233
3163.61	0.00034
3173.25	0.000209
3182.9	0.000224
3192.54	0.0002
3202.19	0.000209
3211.83	0.000217
3221.48	0.000174
3231.12	0.000169
3240.77	0.000165
3250.41	0.000127
3260.06	0.000195
3269.7	0.000124
3279.35	0.00023
3289	0.000188
3298.64	0.000222
3308.29	0.000124
3317.93	0.000208
3327.58	0.000117
3337.22	0.000126
3346.87	0.000144
3356.51	4.7e-05
3366.16	0.0002
3375.8	0.000199
3385.45	9.2e-05
3395.09	0.0004364
3404.74	0.00046263
3414.38	0.0006688
3424.03	0.0003566
3433.67	0.000309
3443.32	0.000273
3452.96	0.00033
3462.61	0.000195
3472.25	0.0006314
3481.9	0.0005724
3491.54	0.00047121
3501.19	0.000257
3510.83	0.000256
3520.48	0.000224
3530.12	0.000299
3539.77	0.000253
3549.41	0.0006017
3559.06	0.000242
3568.7	0.000126
3578.35	0.000198
3587.99	0.000164
3597.64	7.2e-05
3607.28	0.000224
3616.93	0.000239
3626.57	0.000142
3636.22	0.000118
3645.86	0.000171
3655.51	0.000184
3665.15	0.000195
3674.8	0.000214
3684.44	0.000186
3694.09	0.000205
3703.73	0.00017
3713.38	0.000152
3723.02	0.000303
3732.67	9.8e-05
3742.31	0.000285
3751.96	0.00014
3761.6	0.000293
3771.25	0.000211
3780.89	0.000284
3790.54	0.00019
3800.18	0.000257
3809.83	0.000142
3819.47	0.0002
3829.12	0.000317
3838.76	0.000265
3848.41	0.000213
3858.05	6.8e-05
3867.7	0.000233
3877.34	0.000244
3886.99	0.000193
3896.63	0.00019
3906.28	0.000226
3915.92	0.000136
3925.57	0.000256
3935.21	0.000305
3944.86	0.000142
3954.5	0.000189
3964.15	0.00024
3973.79	0.000229
3983.44	0.000271
3993.08	0.000231
