Infrared Spectrum: 2,6-Dibromotoluene
Formula: C 7 H 6 Br 2
CAS: 69321-60-4
State: gas
Instrument: HP-GC/MS/IRD
Origin: NIST Mass Spectrometry Data Center
1/CM	ABSORBANCE
550	0.00025
562	0.0004
574	0.00033
586	0.00096
598	0.00031
610	0
622	9e-05
634	0.00011
646	0.0005
658	0.00084
670	0.00317
682	0.01451
694	0.0325
706	0.07595
718	0.04119
730	0.01784
742	0.01313
754	0.03027
766	0.0691
778	0.03391
790	0.00397
802	0.00094
814	0.00059
826	0.00031
838	0.00016
850	0.0001
862	0.0007
874	0.00113
886	0.00026
898	0.00033
910	0.00047
922	0.00131
934	0.00249
946	0.00555
958	0.00998
970	0.01988
982	0.03235
994	0.03669
1006	0.0197
1018	0.01422
1030	0.01711
1042	0.02082
1054	0.02442
1066	0.01932
1078	0.01456
1090	0.00532
1102	0.00207
1114	0.0015
1126	0.00162
1138	0.00192
1150	0.00623
1162	0.00376
1174	0.00174
1186	0.00684
1198	0.00544
1210	0.00468
1222	0.00128
1234	0.00234
1246	0.00579
1258	0.00438
1270	0.00217
1282	0.00248
1294	0.00091
1306	0.0008
1318	0.00092
1330	0.00116
1342	0.00151
1354	0.00232
1366	0.00359
1378	0.00873
1390	0.01384
1402	0.01349
1414	0.03039
1426	0.09084
1438	0.07411
1450	0.02414
1462	0.01502
1474	0.01234
1486	0.00746
1498	0.00511
1510	0.00486
1522	0.00653
1534	0.01355
1546	0.03951
1558	0.07159
1570	0.02457
1582	0.00965
1594	0.00439
1606	0.00213
1618	0.00151
1630	0.00132
1642	0.00177
1654	0.00426
1666	0.00329
1678	0.00078
1690	0.00054
1702	0.00044
1714	0.00066
1726	0.00086
1738	0.00062
1750	0.0005
1762	0.00079
1774	0.0018
1786	0.0021
1798	0.00072
1810	0.00028
1822	0.00035
1834	0.00087
1846	0.00312
1858	0.00204
1870	0.00058
1882	0.00035
1894	0.00066
1906	0.00171
1918	0.00268
1930	0.00159
1942	0.00051
1954	0.00018
1966	5e-05
1978	0
1990	8e-05
2002	0.00013
2014	0.00013
2026	0.00016
2038	0.00016
2050	0.00012
2062	9e-05
2074	0.00011
2086	5e-05
2098	5e-05
2110	7e-05
2122	0.0001
2134	0.00016
2146	9e-05
2158	5e-05
2170	8e-05
2182	0.00017
2194	0.00012
2206	3e-05
2218	0.00011
2230	0.00014
2242	0.0001
2254	0.00011
2266	0.00012
2278	0.00021
2290	0.00041
2302	0.00058
2314	0.00049
2326	0.00019
2338	6e-05
2350	9e-05
2362	0.00011
2374	0.00014
2386	0.0002
2398	0.00035
2410	0.00051
2422	0.00047
2434	0.00041
2446	0.00048
2458	0.00055
2470	0.00042
2482	0.00031
2494	0.00038
2506	0.00035
2518	0.00015
2530	6e-05
2542	3e-05
2554	9e-05
2566	0.00025
2578	0.00058
2590	0.00086
2602	0.00078
2614	0.00066
2626	0.00053
2638	0.00034
2650	0.00014
2662	7e-05
2674	0.0001
2686	7e-05
2698	6e-05
2710	5e-05
2722	9e-05
2734	0.00019
2746	0.00032
2758	0.00043
2770	0.00028
2782	0.00025
2794	0.00034
2806	0.00056
2818	0.00072
2830	0.00076
2842	0.00096
2854	0.00165
2866	0.00239
2878	0.00232
2890	0.00207
2902	0.00254
2914	0.00374
2926	0.00633
2938	0.00947
2950	0.00874
2962	0.00632
2974	0.00424
2986	0.00283
2998	0.00243
3010	0.00242
3022	0.00296
3034	0.0044
3046	0.00653
3058	0.00817
3070	0.00729
3082	0.00741
3094	0.00466
3106	0.00379
3118	0.00292
3130	0.00129
3142	0.00045
3154	0.00027
3166	0.0002
3178	0.00017
3190	0.00018
3202	0.00012
3214	6e-05
3226	4e-05
3238	4e-05
3250	0.0001
3262	6e-05
3274	5e-05
3286	0.00011
3298	9e-05
3310	8e-05
3322	7e-05
3334	7e-05
3346	7e-05
3358	3e-05
3370	5e-05
3382	4e-05
3394	7e-05
3406	0.0001
3418	9e-05
3430	5e-05
3442	9e-05
3454	0.00011
3466	0.00014
3478	0.0001
3490	0.00016
3502	9e-05
3514	0.0002
3526	0.00013
3538	0.00015
3550	0.00012
3562	0.00014
3574	0.00013
3586	0.00013
3598	0.00015
3610	0.00016
3622	0.0002
3634	0.00018
3646	0.00022
3658	0.00016
3670	0.00021
3682	0.00021
3694	0.00015
3706	0.00013
3718	0.00019
3730	0.00014
3742	0.00014
3754	0.00023
3766	0.00022
3778	0.00045
3790	0.0006
3802	0.00036
3814	0.00029
3826	0.00035
3838	0.00038
