Infrared Spectrum: 4-Bromo-3-methylaniline
Formula: C 7 H 8 Br N
CAS: 6933-10-4
State: gas
Instrument: HP-GC/MS/IRD
Origin: NIST Mass Spectrometry Data Center
1/CM	ABSORBANCE
550	0.0067206
562	0.0098394
574	0.010005
586	0.0135585
598	0.0251574
610	0.0158493
622	0.003519
634	0.0070311
646	0.0131445
658	0.0228804
670	0.025944
682	0.0228045
694	0.014835
706	0.0089838
718	0.0061824
730	0.0071829
742	0.0063963
754	0.0049335
766	0.005106
778	0.0084939
790	0.0177537
802	0.0247572
814	0.0134826
826	0.0072657
838	0.0113712
850	0.0164013
862	0.0098049
874	0.0035052
886	0.0013179
898	0.0006417
910	0.0002967
922	0.000759
934	0.0013041
946	0.0015042
958	0.0014076
970	0.0015594
982	0.0017319
994	0.0026496
1006	0.0042159
1018	0.016836
1030	0.0338859
1042	0.0107778
1054	0.004071
1066	0.0036639
1078	0.0057132
1090	0.0086043
1102	0.0066447
1114	0.0041469
1126	0.0055062
1138	0.0121371
1150	0.0081006
1162	0.0044436
1174	0.011523
1186	0.0038157
1198	0
1210	0.000276
1222	0.0026634
1234	0.005658
1246	0.023115
1258	0.0260751
1270	0.0049197
1282	0.0077418
1294	0.0271032
1306	0.0399372
1318	0.0101223
1330	0.0024219
1342	0.0010695
1354	0.0013455
1366	0.0022563
1378	0.0027048
1390	0.0033051
1402	0.0041331
1414	0.0095496
1426	0.0167187
1438	0.0147453
1450	0.0138345
1462	0.0260337
1474	0.059685
1486	0.0534957
1498	0.0269583
1510	0.0100395
1522	0.0061893
1534	0.0060306
1546	0.0074451
1558	0.0103155
1570	0.0176157
1582	0.0259095
1594	0.0259302
1606	0.0271653
1618	0.057339
1630	0.0623553
1642	0.0221697
1654	0.0067482
1666	0.0040779
1678	0.003519
1690	0.0026289
1702	0.0016836
1714	0.001518
1726	0.0019389
1738	0.0013662
1750	0.0006141
1762	0.0003933
1774	0.0002829
1786	0.000138
1798	2.07e-05
1810	4.14e-05
1822	0.0001863
1834	0.0006762
1846	0.0016974
1858	0.0021459
1870	0.0012144
1882	0.0005934
1894	0.0006072
1906	0.0006624
1918	0.0004761
1930	0.0004002
1942	0.0004485
1954	0.0004623
1966	0.0006072
1978	0.0006141
1990	0.0003933
2002	0.0002898
2014	0.0003312
2026	0.0003381
2038	0.0003795
2050	0.0005451
2062	0.0007245
2074	0.0005658
2086	0.0004899
2098	0.0004002
2110	0.000345
2122	0.0003105
2134	0.0003036
2146	0.0003588
2158	0.0003933
2170	0.0004623
2182	0.0005382
2194	0.0005244
2206	0.0004278
2218	0.0003864
2230	0.0004761
2242	0.0004899
2254	0.0004278
2266	0.0004071
2278	0.0004485
2290	0.0004692
2302	0.0004416
2314	0.0003312
2326	0.0003312
2338	0.0003174
2350	0.0003795
2362	0.0003105
2374	0.0002829
2386	0.000276
2398	0.0003312
2410	0.0004209
2422	0.0005106
2434	0.0004071
2446	0.0003105
2458	0.0003312
2470	0.0005175
2482	0.000483
2494	0.000345
2506	0.0003795
2518	0.0003174
2530	0.0003588
2542	0.000483
2554	0.0007383
2566	0.0006831
2578	0.0004692
2590	0.0004002
2602	0.0005175
2614	0.0005244
2626	0.0003105
2638	0.0003312
2650	0.0003243
2662	0.0004347
2674	0.0005865
2686	0.0006348
2698	0.0005934
2710	0.0006348
2722	0.0006969
2734	0.0007521
2746	0.0009867
2758	0.0008142
2770	0.0005175
2782	0.0004761
2794	0.000552
2806	0.0007452
2818	0.0009108
2830	0.0012696
2842	0.0020355
2854	0.0033051
2866	0.0044436
2878	0.0041814
2890	0.0036156
2902	0.003933
2914	0.0058305
2926	0.0098394
2938	0.011523
2950	0.00897
2962	0.0076866
2974	0.0083007
2986	0.009246
2998	0.0093495
3010	0.0129237
3022	0.0152214
3034	0.0106536
3046	0.0103086
3058	0.0096807
3070	0.0063273
3082	0.0044643
3094	0.0038088
3106	0.0025944
3118	0.0013869
3130	0.0008901
3142	0.0007245
3154	0.0007314
3166	0.0005796
3178	0.0005451
3190	0.0006141
3202	0.0009315
3214	0.0013179
3226	0.0014352
3238	0.001311
3250	0.0009798
3262	0.0006762
3274	0.0004623
3286	0.000345
3298	0.0003657
3310	0.0003933
3322	0.0002553
3334	0.0003036
3346	0.0003933
3358	0.0005451
3370	0.0009177
3382	0.0018906
3394	0.0043401
3406	0.0089148
3418	0.0091287
3430	0.0052371
3442	0.0020355
3454	0.0014559
3466	0.0022425
3478	0.0040158
3490	0.0057615
3502	0.005589
3514	0.0038985
3526	0.0019872
3538	0.0009315
3550	0.000483
3562	0.0004416
3574	0.0003657
3586	0.0003864
3598	0.0004278
3610	0.000345
3622	0.0003864
3634	0.0002898
3646	0.0002967
3658	0.0003312
3670	0.0003105
3682	0.0003933
3694	0.0004485
3706	0.0003519
3718	0.000414
3730	0.0005244
3742	0.0004347
3754	0.0004968
3766	0.0004416
3778	0.0003864
3790	0.0004416
3802	0.0005037
3814	0.0005106
3826	0.0005451
3838	0.0007038
