Infrared Spectrum: 2,4,5-TRICHLOROPHENYL-N,N-DIMETHYL CARBAMATE
Formula: C9 H8 Cl3 N O2
CAS: 6935-06-4
State: SOLUTION (10% CCl4 FOR 5000-1330, 10% CS2 FOR 1330-625 CM^-^1)
Class: COBLENTZ
Instrument: Not specified, most likely a prism, grating, or hybrid spectrometer.
Sampling: TRANSMISSION
Path length: 0.0131 CM, 0.0123 CM
Resolution: 4
Origin: DOW CHEMICAL COMPANY
MICROMETERS	TRANSMITTANCE
2.053	0.903
2.09304	0.903
2.13308	0.903
2.17312	0.895
2.21316	0.888
2.2532	0.896
2.29324	0.901
2.33328	0.903
2.37332	0.905
2.41337	0.91
2.45341	0.915
2.49345	0.923
2.53349	0.93
2.57353	0.925
2.61357	0.925
2.65361	0.926
2.69365	0.916
2.73369	0.906
2.77373	0.883
2.81377	0.871
2.85381	0.871
2.89385	0.873
2.93389	0.875
2.97393	0.876
3.01397	0.88
3.05401	0.883
3.09406	0.886
3.1341	0.861
3.17414	0.825
3.21418	0.856
3.25422	0.835
3.29426	0.815
3.3343	0.647
3.37434	0.532
3.41438	0.705
3.45442	0.801
3.49446	0.841
3.5345	0.891
3.57454	0.913
3.61458	0.93
3.65462	0.923
3.69466	0.93
3.7347	0.938
3.77474	0.935
3.81479	0.928
3.85483	0.93
3.89487	0.935
3.93491	0.935
3.97495	0.93
4.01499	0.941
4.05503	0.948
4.09507	0.948
4.13511	0.943
4.17515	0.933
4.21519	0.928
4.25523	0.923
4.29527	0.916
4.33531	0.92
4.37535	0.941
4.41539	0.953
4.45543	0.951
4.49548	0.955
4.53552	0.951
4.57556	0.936
4.6156	0.931
4.65564	0.94
4.69568	0.946
4.73572	0.951
4.77576	0.951
4.8158	0.953
4.85584	0.948
4.89588	0.936
4.93592	0.928
4.97596	0.926
5.016	0.928
5.05604	0.943
5.09608	0.948
5.13612	0.938
5.17617	0.94
5.21621	0.953
5.25625	0.943
5.29629	0.918
5.33633	0.916
5.37637	0.905
5.41641	0.896
5.45645	0.885
5.49649	0.861
5.53653	0.821
5.57657	0.765
5.61661	0.579
5.65665	0.267
5.69669	0.061
5.73673	0.053
5.77677	0.309
5.81681	0.534
5.85686	0.675
5.8969	0.8
5.93694	0.848
5.97698	0.851
6.01702	0.838
6.05706	0.841
6.0971	0.856
6.13714	0.83
6.17718	0.768
6.21722	0.698
6.25726	0.6
6.2973	0.574
6.33734	0.54
6.37738	0.495
6.41742	0.422
6.45746	0.417
6.4975	0.454
6.53754	0.469
6.57759	0.464
6.61763	0.424
6.65767	0.396
6.69771	0.339
6.73775	0.227
6.77779	0.081
6.81783	0.066
6.85787	0.109
6.89791	0.129
6.93795	0.484
6.97799	0.597
7.01803	0.487
7.05807	0.334
7.09811	0.297
7.13815	0.134
7.17819	0.054
7.21823	0.181
7.25828	0.415
7.29832	0.502
7.33836	0.339
7.3784	0.118
7.41844	0.405
7.45848	0.693
7.49852	0.765
7.53856	0.795
7.5786	0.8
7.61864	0.795
7.65868	0.78
7.69872	0.76
7.73876	0.735
7.7788	0.675
7.81884	0.575
7.85888	0.544
7.89892	0.495
7.93897	0.44
7.97901	0.337
8.01905	0.146
8.05909	0.101
8.09913	0.193
8.13917	0.337
8.17921	0.555
8.21925	0.647
8.25929	0.655
8.29933	0.61
8.33937	0.557
8.37941	0.53
8.41945	0.475
8.45949	0.381
8.49953	0.266
8.53957	0.166
8.57961	0.079
8.61966	0.031
8.6597	0.014
8.69974	0.026
8.73978	0.081
8.77982	0.131
8.81986	0.154
8.8599	0.109
8.89994	0.048
8.93998	0.169
8.98002	0.399
9.02006	0.562
9.0601	0.599
9.10014	0.58
9.14018	0.52
9.18022	0.435
9.22026	0.249
9.2603	0.096
9.30034	0.391
9.34039	0.54
9.38043	0.554
9.42047	0.603
9.46051	0.678
9.50055	0.743
9.54059	0.801
9.58063	0.821
9.62067	0.826
9.66071	0.83
9.70075	0.83
9.74079	0.806
9.78083	0.752
9.82087	0.635
9.86091	0.495
9.90095	0.351
9.94099	0.364
9.98103	0.594
10.0211	0.76
10.0611	0.828
10.1012	0.86
10.1412	0.878
10.1812	0.888
10.2213	0.901
10.2613	0.911
10.3014	0.92
10.3414	0.925
10.3814	0.926
10.4215	0.928
10.4615	0.93
10.5016	0.93
10.5416	0.928
10.5816	0.923
10.6217	0.901
10.6617	0.87
10.7018	0.815
10.7418	0.778
10.7818	0.811
10.8219	0.883
10.8619	0.896
10.902	0.898
10.942	0.885
10.982	0.87
11.0221	0.86
11.0621	0.843
11.1022	0.813
11.1422	0.782
11.1823	0.692
11.2223	0.512
11.2623	0.277
11.3024	0.229
11.3424	0.339
11.3825	0.487
11.4225	0.597
11.4625	0.642
11.5026	0.657
11.5426	0.627
11.5827	0.58
11.6227	0.6
11.6627	0.655
11.7028	0.683
11.7428	0.703
11.7829	0.722
11.8229	0.745
11.8629	0.752
11.903	0.742
11.943	0.705
11.9831	0.662
12.0231	0.584
12.0631	0.537
12.1032	0.589
12.1432	0.705
12.1833	0.782
12.2233	0.81
12.2633	0.818
12.3034	0.82
12.3434	0.816
12.3835	0.801
12.4235	0.797
12.4636	0.815
12.5036	0.845
12.5436	0.858
12.5837	0.858
12.6237	0.851
12.6638	0.848
12.7038	0.833
12.7438	0.821
12.7839	0.805
12.8239	0.782
12.864	0.747
12.904	0.697
12.944	0.63
12.9841	0.565
13.0241	0.525
13.0642	0.524
13.1042	0.545
13.1442	0.584
13.1843	0.608
13.2243	0.608
13.2644	0.577
13.3044	0.525
13.3444	0.474
13.3845	0.417
13.4245	0.412
13.4646	0.459
13.5046	0.557
13.5446	0.62
13.5847	0.668
13.6247	0.703
13.6648	0.72
13.7048	0.732
13.7448	0.747
13.7849	0.757
13.8249	0.765
13.865	0.772
13.905	0.775
13.9451	0.775
13.9851	0.772
14.0251	0.768
14.0652	0.762
14.1052	0.755
14.1453	0.75
14.1853	0.745
14.2253	0.738
14.2654	0.733
14.3054	0.722
14.3455	0.713
14.3855	0.698
14.4255	0.677
14.4656	0.642
14.5056	0.603
14.5457	0.555
14.5857	0.5
14.6257	0.442
14.6658	0.417
14.7058	0.437
14.7459	0.509
14.7859	0.559
14.8259	0.589
14.866	0.599
14.906	0.602
14.9461	0.607
14.9861	0.607
15.0261	0.597
15.0662	0.589
15.1062	0.575
15.1463	0.56
15.1863	0.55
15.2264	0.539
15.2664	0.527
15.3064	0.52
15.3465	0.515
15.3865	0.512
15.4266	0.509
15.4666	0.5
15.5066	0.49
15.5467	0.48
15.5867	0.475
15.6268	0.474
15.6668	0.472
15.7068	0.469
15.7469	0.467
15.7869	0.464
15.827	0.462
15.867	0.462
