Infrared Spectrum: 2-Cyanobenzenesulphonyl chloride
Formula: C 7 H 4 Cl N O 2 S
CAS: 69360-26-5
State: gas
Origin: EPA-IR VAPOR PHASE LIBRARY
1/CM	ABSORBANCE
549.8	0.02158
559.445	0.0137
569.09	0.01649
578.734	0.04153
588.379	0.07863
598.024	0.05701
607.669	0.01895
617.313	0.00629
626.958	0.00433
636.603	0.0025
646.248	0.00195
655.893	0.0027
665.537	0.00507
675.182	0.015
684.827	0.01473
694.472	0.00436
704.116	0.00301
713.761	0.00317
723.406	0.00557
733.051	0.00457
742.695	0.00479
752.34	0.01206
761.985	0.02412
771.63	0.01219
781.275	0.00632
790.919	0.00632
800.564	0.00333
810.209	0.00242
819.854	0.00196
829.498	0.0011529
839.143	0.0016897
848.788	0.00241
858.433	0.00195
868.078	0.0014803
877.722	0.00192
887.367	0.0015557
897.012	0.0011629
906.657	0.00194
916.301	0.0017092
925.946	0.0015071
935.591	0.0015238
945.236	0.00196
954.88	0.0017267
964.525	0.0016396
974.17	0.0018207
983.815	0.0014595
993.46	0.0007856
1003.1	0.0018019
1012.75	0.0013554
1022.39	0.0017553
1032.04	0.0012792
1041.68	0.0017614
1051.33	0.00345
1060.97	0.00569
1070.62	0.00282
1080.26	0.0025
1089.91	0.00115
1099.55	0.00278
1109.2	0.00229
1118.84	0.00488
1128.49	0.00613
1138.13	0.00378
1147.78	0.00268
1157.42	0.00634
1167.07	0.01162
1176.71	0.02407
1186.36	0.03674
1196	0.04817
1205.64	0.02789
1215.29	0.00706
1224.93	0.00289
1234.58	0.00283
1244.22	0.00282
1253.87	0.00221
1263.51	0.00449
1273.16	0.00495
1282.8	0.0034
1292.45	0.00282
1302.09	0.0019
1311.74	0.0017746
1321.38	0.00204
1331.03	0.00241
1340.67	0.00291
1350.32	0.00292
1359.96	0.00339
1369.61	0.00489
1379.25	0.00801
1388.9	0.01491
1398.54	0.03692
1408.18	0.04863
1417.83	0.02106
1427.47	0.0075
1437.12	0.00895
1446.76	0.0069
1456.41	0.00446
1466.05	0.0064
1475.7	0.00776
1485.34	0.00389
1494.99	0.00191
1504.63	0.0016882
1514.28	0.0016681
1523.92	0.002
1533.57	0.0016507
1543.21	0.0016846
1552.86	0.00209
1562.5	0.00304
1572.15	0.00299
1581.79	0.00189
1591.44	0.0016248
1601.08	0.0018013
1610.73	0.0014498
1620.37	0.0016472
1630.01	0.00188
1639.66	0.00188
1649.3	0.0017653
1658.95	0.0012498
1668.59	0.0013312
1678.24	0.0013659
1687.88	0.001351
1697.53	0.0012631
1707.17	0.0015202
1716.82	0.0016516
1726.46	0.0015425
1736.11	0.0010661
1745.75	0.0013031
1755.4	0.0014547
1765.04	0.0013336
1774.69	0.0011724
1784.33	0.0012284
1793.98	0.0011116
1803.62	0.001243
1813.27	0.0013691
1822.91	0.0017501
1832.55	0.00198
1842.2	0.0019
1851.84	0.0018408
1861.49	0.0015963
1871.13	0.001691
1880.78	0.0013206
1890.42	0.0013216
1900.07	0.0013895
1909.71	0.0012053
1919.36	0.0014152
1929	0.0013778
1938.65	0.0017864
1948.29	0.00194
1957.94	0.0017934
1967.58	0.0017484
1977.23	0.0013785
1986.87	0.001656
1996.52	0.0013933
2006.16	0.0010973
2015.81	0.0010907
2025.45	0.0012712
2035.1	0.0012114
2044.74	0.0015109
2054.38	0.0013441
2064.03	0.0013149
2073.67	0.0011338
2083.32	0.0013685
2092.96	0.0012922
2102.61	0.0016164
2112.25	0.0011706
2121.9	0.0012062
2131.54	0.0012555
2141.19	0.0013097
2150.83	0.001089
2160.48	0.001287
2170.12	0.0011747
2179.77	0.001304
2189.41	0.0012163
2199.06	0.0012766
2208.7	0.0013116
2218.35	0.0012623
2227.99	0.0012346
2237.64	0.0016801
2247.28	0.0014962
2256.92	0.0013047
2266.57	0.0012723
2276.21	0.0013638
2285.86	0.00158
2295.5	0.0013787
2305.15	0.0013785
2314.79	0.0015342
2324.44	0.0013227
2334.08	0.0013409
2343.73	0.0014224
2353.37	0.001212
2363.02	0.0012404
2372.66	0.0011949
2382.31	0.0012483
2391.95	0.001373
2401.6	0.0011912
2411.24	0.0010928
2420.89	0.0011858
2430.53	0.0011128
2440.18	0.0012226
2449.82	0.0014677
2459.47	0.0012701
2469.11	0.001059
2478.75	0.0012296
2488.4	0.001116
2498.04	0.0013746
2507.69	0.0012794
2517.33	0.0013614
2526.98	0.0014428
2536.62	0.0012088
2546.27	0.0014298
2555.91	0.00139
2565.56	0.0018104
2575.2	0.0017265
2584.85	0.0015418
2594.49	0.00222
2604.14	0.0017031
2613.78	0.0015499
2623.43	0.0009987
2633.07	0.0013329
2642.72	0.0011618
2652.36	0.0012942
2662.01	0.0013135
2671.65	0.0012577
2681.29	0.0012135
2690.94	0.0015434
2700.58	0.0015735
2710.23	0.0015923
2719.87	0.0014093
2729.52	0.0013587
2739.16	0.0012039
2748.81	0.0013968
2758.45	0.0012747
2768.1	0.0010683
2777.74	0.0015189
2787.39	0.0015007
2797.03	0.001359
2806.68	0.0013633
2816.32	0.0014665
2825.97	0.0014696
2835.61	0.00151
2845.26	0.0016552
2854.9	0.0018319
2864.55	0.0016456
2874.19	0.0009998
2883.84	0.0012942
2893.48	0.0012047
2903.12	0.0014057
2912.77	0.0013515
2922.41	0.0016264
2932.06	0.0012632
2941.7	0.0014857
2951.35	0.0016644
2960.99	0.0015027
2970.64	0.0016429
2980.28	0.0017831
2989.93	0.0016388
2999.57	0.00196
3009.22	0.0015765
3018.86	0.0017001
3028.51	0.00195
3038.15	0.00193
3047.8	0.00195
3057.44	0.0014965
3067.09	0.00247
3076.73	0.00373
3086.38	0.00351
3096.02	0.00261
3105.67	0.00252
3115.31	0.0018337
3124.95	0.00223
3134.6	0.00192
3144.24	0.00191
3153.89	0.00194
3163.53	0.0015505
3173.18	0.0018245
3182.82	0.0011852
3192.47	0.0012643
3202.11	0.0011292
3211.76	0.001779
3221.4	0.0013293
3231.05	0.0012177
3240.69	0.00199
3250.34	0.0018556
3259.98	0.000527
3269.63	0.0011296
3279.27	0.0018048
3288.92	0.0008441
3298.56	0.0011226
3308.21	0.0017894
3317.85	0.0013232
3327.49	0.0015161
3337.14	0.0018406
3346.78	0.0011794
3356.43	0.0012866
3366.07	0.0014055
3375.72	0.0018041
3385.36	0.001203
3395.01	0.0016501
3404.65	0.0012431
3414.3	0.0018595
3423.94	0.0013878
3433.59	0.0011232
3443.23	0.0016221
3452.88	0.0009032
3462.52	0.00094399
3472.17	0.0010736
3481.81	0.0007915
3491.46	0.00188
3501.1	0.001021
3510.75	0.00087645
3520.39	0.0017074
3530.04	0.0017059
3539.68	0.00093038
3549.32	0.0012075
3558.97	0.001483
3568.61	0.0013082
3578.26	0.001225
3587.9	0.0010086
3597.55	0.0017618
3607.19	0.0014683
3616.84	0.0010678
3626.48	0.0010491
3636.13	0.0011912
3645.77	0.0010991
3655.42	0.0015812
3665.06	0.00204
3674.71	0.0018448
3684.35	0.0014022
3694	0.00195
3703.64	0.0015147
3713.29	0.0011905
3722.93	0.0018118
3732.58	0.00202
3742.22	0.001556
3751.86	0.00191
3761.51	0.0011986
3771.15	0.001748
3780.8	0.00203
3790.44	0.001659
3800.09	0.0018539
3809.73	0.00187
3819.38	0.0010433
3829.02	0.00215
3838.67	0.000759
3848.31	0.001065
3857.96	0.0012888
3867.6	0.00181
3877.25	0.00201
3886.89	0.0012375
3896.54	0.001247
3906.18	0.0015984
3915.83	0.00207
3925.47	0.0012212
3935.12	0.00208
3944.76	0.0018242
3954.41	0.0014924
3964.05	0.0012118
3973.69	0.000996
3983.34	0.0014949
3992.98	0.0015129
