Infrared Spectrum: 2,6-Difluorobenzylamine
Formula: C 7 H 7 F 2 N
CAS: 69385-30-4
State: gas
Instrument: HP-GC/MS/IRD
Origin: NIST Mass Spectrometry Data Center
1/CM	ABSORBANCE
550	0.0078608
562	0.0053176
574	0.0013736
586	0.0002176
598	0.0006664
610	0.0011016
622	0.0018088
634	0.0027472
646	0.0049096
658	0.0117776
670	0.0186456
682	0.0131512
694	0.0102408
706	0.0203048
718	0.03672
730	0.0358632
742	0.0242488
754	0.028492
766	0.0590376
778	0.108011
790	0.0757656
802	0.0293896
814	0.0204
826	0.0245072
838	0.032164
850	0.0349248
862	0.023392
874	0.0127976
886	0.0091256
898	0.0095064
910	0.0114104
922	0.0110704
934	0.0089896
946	0.0087176
958	0.0105672
970	0.0144024
982	0.0268328
994	0.059024
1006	0.0719984
1018	0.0498032
1030	0.0351016
1042	0.021148
1054	0.01326
1066	0.0105672
1078	0.005984
1090	0.0033592
1102	0.0034816
1114	0.0052088
1126	0.0098464
1138	0.0160888
1150	0.0206312
1162	0.0317968
1174	0.033252
1186	0.0210528
1198	0.0156672
1210	0.0136272
1222	0.0269552
1234	0.047124
1246	0.0379848
1258	0.0423096
1270	0.053244
1282	0.0236912
1294	0.0066096
1306	0.004964
1318	0.005848
1330	0.0082144
1342	0.0118864
1354	0.0125392
1366	0.0109072
1378	0.010948
1390	0.0112472
1402	0.0086088
1414	0.0055896
1426	0.006052
1438	0.0124576
1450	0.040868
1462	0.113438
1474	0.130519
1486	0.0549168
1498	0.0154496
1510	0.0061744
1522	0.005032
1534	0.0086224
1546	0.0154088
1558	0.0249424
1570	0.0372776
1582	0.0564264
1594	0.0637704
1606	0.0627232
1618	0.0807568
1630	0.0532576
1642	0.0175304
1654	0.0076976
1666	0.0042976
1678	0.002924
1690	0.0017952
1702	0.001156
1714	0.0011288
1726	0.0017408
1738	0.0027744
1750	0.0018496
1762	0.0004352
1774	0.0003672
1786	0.000408
1798	0.0005984
1810	0.001428
1822	0.0026248
1834	0.0019856
1846	0.0005576
1858	0.0001496
1870	0
1882	0.0002176
1894	0.001768
1906	0.0039032
1918	0.0024888
1930	0.000408
1942	0.0002992
1954	0.0001496
1966	6.8e-05
1978	2.72e-05
1990	5.44e-05
2002	8.16e-05
2014	0.0001088
2026	0.000136
2038	0.000204
2050	0.0002176
2062	0.0002312
2074	0.0002176
2086	0.0002448
2098	0.0002856
2110	0.0003944
2122	0.0005848
2134	0.00068
2146	0.000612
2158	0.0004216
2170	0.0003808
2182	0.0003808
2194	0.0004216
2206	0.0004216
2218	0.0004488
2230	0.000612
2242	0.0008432
2254	0.0012376
2266	0.0013736
2278	0.0012512
2290	0.0011968
2302	0.000952
2314	0.000612
2326	0.000476
2338	0.0004896
2350	0.0003672
2362	0.0002992
2374	0.0003536
2386	0.000476
2398	0.0006528
2410	0.0006664
2422	0.0006664
2434	0.0006664
2446	0.0005712
2458	0.0005848
2470	0.0006936
2482	0.0007888
2494	0.0009384
2506	0.0009112
2518	0.0008704
2530	0.0008976
2542	0.0007208
2554	0.000408
2566	0.000272
2578	0.0002312
2590	0.0002448
2602	0.0002992
2614	0.0003128
2626	0.0003536
2638	0.0004352
2650	0.0004488
2662	0.0005032
2674	0.0005168
2686	0.000544
2698	0.0006256
2710	0.0006392
2722	0.0007888
2734	0.0009792
2746	0.0011696
2758	0.0013464
2770	0.00136
2782	0.0012784
2794	0.0011288
2806	0.0012512
2818	0.0015368
2830	0.0021896
2842	0.0031144
2854	0.0047464
2866	0.0078744
2878	0.0115328
2890	0.0118456
2902	0.0089624
2914	0.0067048
2926	0.0067864
2938	0.0082552
2950	0.0111248
2962	0.0140216
2974	0.012444
2986	0.008024
2998	0.0047872
3010	0.0032776
3022	0.00272
3034	0.0028288
3046	0.0024344
3058	0.002788
3070	0.005032
3082	0.0073984
3094	0.0064192
3106	0.0033456
3118	0.0009928
3130	0.0003808
3142	0.0003944
3154	0.0003944
3166	0.0004352
3178	0.0004216
3190	0.000408
3202	0.0004352
3214	0.0004216
3226	0.0004216
3238	0.0004352
3250	0.0003536
3262	0.00034
3274	0.000272
3286	0.0003128
3298	0.0003128
3310	0.0003808
3322	0.0003536
3334	0.000544
3346	0.0012104
3358	0.0016048
3370	0.0010064
3382	0.0005984
3394	0.0005712
3406	0.00102
3418	0.002108
3430	0.0023392
3442	0.0014008
3454	0.0007888
3466	0.0005304
3478	0.0004488
3490	0.0004352
3502	0.0003128
3514	0.0003264
3526	0.0003808
3538	0.0003128
3550	0.0003128
3562	0.0003672
3574	0.0003672
3586	0.0002856
3598	0.0003128
3610	0.0003808
3622	0.0004216
3634	0.0003944
3646	0.0003672
3658	0.0003536
3670	0.0002992
3682	0.0002856
3694	0.0002856
3706	0.0003128
3718	0.0003128
3730	0.0003128
3742	0.0003128
3754	0.0003672
3766	0.0003536
3778	0.0003264
3790	0.0003264
3802	0.0004216
3814	0.0004352
3826	0.0003536
3838	0.0004624
