Infrared Spectrum: IMIDAZOLE-4-CARBOXAMIDE, 5-(3,3-DIBENZYLTRIAZENO)-
Formula: C18 H18 N6 O
CAS: 6939-30-6
State: SOLID (1 mg / 650 mg KBr DISC)
Class: COBLENTZ III
Instrument: PERKIN-ELMER 221 (GRATING)
Instrument parameters: FILTER AT 980 CM ^-^1, GRATING FOR 4000-1248 CM ^-^1, NaCl PRISM FOR 1428-650 CM ^-^1
Sampling: TRANSMISSION
Resolution: 4
Origin: SOUTHERN RES. INSTITUTE
1/CM	TRANSMITTANCE
632.11	0.437
641.284	0.598
650.459	0.612
659.633	0.744
668.807	0.768
677.982	0.677
687.156	0.286
696.33	0.243
705.505	0.639
714.679	0.775
723.853	0.428
733.028	0.339
742.202	0.58
751.376	0.269
760.551	0.817
769.725	0.847
778.899	0.815
788.074	0.696
797.248	0.612
806.422	0.662
815.597	0.706
824.771	0.711
833.945	0.686
843.12	0.675
852.294	0.606
861.468	0.546
870.643	0.595
879.817	0.707
888.991	0.623
898.166	0.602
907.34	0.523
916.514	0.57
925.689	0.644
934.863	0.629
944.037	0.59
953.212	0.615
962.386	0.694
971.56	0.72
980.735	0.604
989.909	0.477
999.083	0.489
1008.26	0.807
1017.43	0.765
1026.61	0.644
1035.78	0.8
1044.96	0.767
1054.13	0.694
1063.3	0.533
1072.48	0.241
1081.65	0.425
1090.83	0.619
1100	0.594
1109.18	0.65
1118.35	0.718
1127.52	0.695
1136.7	0.58
1145.87	0.431
1155.05	0.408
1164.22	0.442
1173.4	0.357
1182.57	0.214
1191.74	0.215
1200.92	0.395
1210.09	0.596
1219.27	0.581
1228.44	0.635
1237.62	0.679
1246.79	0.622
1255.96	0.521
1265.14	0.466
1274.31	0.463
1283.49	0.337
1292.66	0.418
1301.84	0.402
1311.01	0.279
1320.19	0.133
1329.36	0.09
1338.53	0.071
1347.71	0.206
1356.88	0.487
1366.06	0.485
1375.23	0.374
1384.41	0.228
1393.58	0.177
1402.75	0.225
1411.93	0.286
1421.1	0.144
1430.28	0.11
1439.45	0.106
1448.63	0.082
1457.8	0.244
1466.97	0.291
1476.15	0.441
1485.32	0.412
1494.5	0.257
1503.67	0.549
1512.85	0.52
1522.02	0.69
1531.19	0.667
1540.37	0.576
1549.54	0.487
1558.72	0.515
1567.89	0.573
1577.07	0.543
1586.24	0.442
1595.42	0.358
1604.59	0.264
1613.76	0.201
1622.94	0.309
1632.11	0.333
1641.29	0.203
1650.46	0.095
1659.64	0.021
1668.81	0.03
1677.98	0.299
1687.16	0.653
1696.33	0.764
1705.51	0.804
1714.68	0.824
1723.86	0.823
1733.03	0.815
1742.2	0.819
1751.38	0.816
1760.55	0.812
1769.73	0.805
1778.9	0.801
1788.08	0.789
1797.25	0.775
1806.42	0.767
1815.6	0.767
1824.77	0.768
1833.95	0.769
1843.12	0.766
1852.3	0.765
1861.47	0.766
1870.65	0.768
1879.82	0.774
1888.99	0.79
1898.17	0.803
1907.34	0.816
1916.52	0.816
1925.69	0.811
1934.87	0.8
1944.04	0.808
1953.21	0.814
1962.39	0.825
1971.56	0.834
1980.74	0.838
1989.91	0.838
1999.09	0.839
2008.26	0.84
2017.43	0.84
2026.61	0.84
2035.78	0.838
2044.96	0.835
2054.13	0.834
2063.31	0.832
2072.48	0.828
2081.65	0.825
2090.83	0.822
2100	0.821
2109.18	0.82
2118.35	0.814
2127.53	0.809
2136.7	0.807
2145.88	0.803
2155.05	0.798
2164.22	0.795
2173.4	0.792
2182.57	0.784
2191.75	0.781
2200.92	0.771
2210.1	0.764
2219.27	0.758
2228.44	0.754
2237.62	0.745
2246.79	0.734
2255.97	0.721
2265.14	0.712
2274.32	0.698
2283.49	0.687
2292.66	0.676
2301.84	0.663
2311.01	0.646
2320.19	0.625
2329.36	0.615
2338.54	0.611
2347.71	0.6
2356.89	0.581
2366.06	0.576
2375.23	0.574
2384.41	0.567
2393.58	0.558
2402.76	0.542
2411.93	0.536
2421.11	0.527
2430.28	0.514
2439.45	0.508
2448.63	0.501
2457.8	0.495
2466.98	0.491
2476.15	0.479
2485.33	0.463
2494.5	0.447
2503.67	0.431
2512.85	0.42
2522.02	0.41
2531.2	0.396
2540.37	0.389
2549.55	0.385
2558.72	0.38
2567.89	0.371
2577.07	0.362
2586.24	0.354
2595.42	0.346
2604.59	0.346
2613.77	0.36
2622.94	0.367
2632.12	0.372
2641.29	0.373
2650.46	0.371
2659.64	0.372
2668.81	0.375
2677.99	0.38
2687.16	0.384
2696.34	0.381
2705.51	0.377
2714.68	0.363
2723.86	0.352
2733.03	0.339
2742.21	0.323
2751.38	0.318
2760.56	0.319
2769.73	0.321
2778.9	0.322
2788.08	0.321
2797.25	0.319
2806.43	0.313
2815.6	0.312
2824.78	0.314
2833.95	0.317
2843.12	0.32
2852.3	0.333
2861.47	0.363
2870.65	0.385
2879.82	0.403
2889	0.423
2898.17	0.428
2907.35	0.427
2916.52	0.414
2925.69	0.394
2934.87	0.382
2944.04	0.371
2953.22	0.351
2962.39	0.33
2971.57	0.336
2980.74	0.356
2989.91	0.37
2999.09	0.375
3008.26	0.373
3017.44	0.352
3026.61	0.324
3035.79	0.319
3044.96	0.319
3054.13	0.32
3063.31	0.322
3072.48	0.342
3081.66	0.352
3090.83	0.352
3100.01	0.348
3109.18	0.314
3118.35	0.266
3127.53	0.243
3136.7	0.237
3145.88	0.233
3155.05	0.232
3164.23	0.241
3173.4	0.269
3182.58	0.339
3191.75	0.363
3200.92	0.38
3210.1	0.422
3219.27	0.485
3228.45	0.522
3237.62	0.522
3246.8	0.517
3255.97	0.499
3265.14	0.484
3274.32	0.491
3283.49	0.541
3292.67	0.549
3301.84	0.511
3311.02	0.504
3320.19	0.505
3329.36	0.504
3338.54	0.453
3347.71	0.399
3356.89	0.265
3366.06	0.16
3375.24	0.124
3384.41	0.203
3393.58	0.343
3402.76	0.457
3411.93	0.552
3421.11	0.619
3430.28	0.669
3439.46	0.702
3448.63	0.717
3457.81	0.723
3466.98	0.731
3476.15	0.742
3485.33	0.752
3494.5	0.756
3503.68	0.761
3512.85	0.764
3522.03	0.766
3531.2	0.768
3540.37	0.771
3549.55	0.772
3558.72	0.774
3567.9	0.774
3577.07	0.775
3586.25	0.777
3595.42	0.777
3604.59	0.777
3613.77	0.777
3622.94	0.777
3632.12	0.778
3641.29	0.777
3650.47	0.776
3659.64	0.775
3668.81	0.774
3677.99	0.774
3687.16	0.773
3696.34	0.771
3705.51	0.77
3714.69	0.77
3723.86	0.77
3733.04	0.77
3742.21	0.769
3751.38	0.768
3760.56	0.768
3769.73	0.768
3778.91	0.767
3788.08	0.765
3797.26	0.762
3806.43	0.76
