Infrared Spectrum: PYRROLIDINE, N-[2,6-DIOXO-4-PIPERIDINYL)ACETYL]-
Formula: C11 H16 N2 O3
CAS: 6939-31-7
State: SOLID (0.9 mg / 650 mg KBr DISC)
Class: COBLENTZ III
Instrument: PERKIN-ELMER 221 (GRATING)
Instrument parameters: FILTER AT 980 CM^-^1. GRATING 4000-1428 CM^-^1, NaCl PRISM 1428-650 CM^-^1
Sampling: TRANSMISSION
Resolution: 2
Origin: SOUTHERN RESEARCH INSTITUTE
1/CM	TRANSMITTANCE
549.642	0.895
558.86	0.9269
568.078	0.9545
577.296	0.7528
586.514	0.8941
595.733	0.9197
604.951	0.915
614.169	0.9119
623.387	0.9022
632.605	0.8545
641.823	0.7622
651.041	0.911
660.259	0.9396
669.478	0.9254
678.696	0.9145
687.914	0.9019
697.132	0.8922
706.35	0.8676
715.568	0.8513
724.786	0.8681
734.004	0.8616
743.222	0.8482
752.441	0.8338
761.659	0.822
770.877	0.8092
780.095	0.792
789.313	0.7447
798.531	0.736
807.749	0.7466
816.967	0.7298
826.185	0.6853
835.404	0.643
844.622	0.639
853.84	0.5539
863.058	0.4634
872.276	0.5106
881.494	0.5837
890.712	0.6746
899.93	0.7522
909.149	0.7344
918.367	0.7484
927.585	0.7993
936.803	0.7722
946.021	0.7606
955.239	0.8061
964.457	0.8005
973.675	0.833
982.893	0.8253
992.112	0.7967
1001.33	0.7684
1010.55	0.816
1019.77	0.8086
1028.98	0.796
1038.2	0.6971
1047.42	0.803
1056.64	0.797
1065.86	0.797
1075.07	0.7844
1084.29	0.7745
1093.51	0.7689
1102.73	0.7243
1111.95	0.648
1121.17	0.6809
1130.38	0.6699
1139.6	0.4436
1148.82	0.6184
1158.04	0.6793
1167.26	0.6207
1176.47	0.6325
1185.69	0.6189
1194.91	0.6431
1204.13	0.65
1213.35	0.6623
1222.56	0.5751
1231.78	0.4422
1241	0.5276
1250.22	0.4492
1259.44	0.241
1268.66	0.3659
1277.87	0.5112
1287.09	0.3031
1296.31	0.2386
1305.53	0.4634
1314.75	0.548
1323.96	0.603
1333.18	0.595
1342.4	0.5198
1351.62	0.3574
1360.84	0.3176
1370.05	0.5207
1379.27	0.4519
1388.49	0.5169
1397.71	0.6282
1406.93	0.6153
1416.14	0.572
1425.36	0.4424
1434.58	0.41
1443.8	0.3236
1453.02	0.2695
1462.24	0.3806
1471.45	0.4851
1480.67	0.5925
1489.89	0.7529
1499.11	0.8146
1508.33	0.8285
1517.54	0.83
1526.76	0.8287
1535.98	0.8207
1545.2	0.801
1554.42	0.7951
1563.63	0.743
1572.85	0.7081
1582.07	0.6565
1591.29	0.5725
1600.51	0.5042
1609.73	0.3666
1618.94	0.203
1628.16	0.062
1637.38	0.1539
1646.6	0.3638
1655.82	0.4269
1665.03	0.418
1674.25	0.2992
1683.47	0.1687
1692.69	0.1
1701.91	0.1558
1711.12	0.2292
1720.34	0.2709
1729.56	0.1956
1738.78	0.2509
1748	0.4305
1757.22	0.5123
1766.43	0.5796
1775.65	0.6189
1784.87	0.6683
1794.09	0.6861
1803.31	0.7134
1812.52	0.73
1821.74	0.7496
1830.96	0.763
1840.18	0.7749
1849.4	0.7965
1858.61	0.8122
1867.83	0.8215
1877.05	0.8284
1886.27	0.833
1895.49	0.836
1904.71	0.84
1913.92	0.846
1923.14	0.8527
1932.36	0.8586
1941.58	0.8639
1950.8	0.8693
1960.01	0.874
1969.23	0.8781
1978.45	0.882
1987.67	0.885
1996.89	0.887
2006.1	0.887
2015.32	0.889
2024.54	0.889
2033.76	0.889
2042.98	0.889
2052.19	0.889
2061.41	0.8896
2070.63	0.89
2079.85	0.89
2089.07	0.89
2098.29	0.89
2107.5	0.89
2116.72	0.89
2125.94	0.89
2135.16	0.89
2144.38	0.89
2153.59	0.89
2162.81	0.89
2172.03	0.89
2181.25	0.89
2190.47	0.891
2199.68	0.891
2208.9	0.891
2218.12	0.891
2227.34	0.891
2236.56	0.891
2245.78	0.891
2254.99	0.89
2264.21	0.889
2273.43	0.887
2282.65	0.8824
2291.87	0.878
2301.08	0.8744
2310.3	0.871
2319.52	0.87
2328.74	0.8706
2337.96	0.871
2347.17	0.87
2356.39	0.869
2365.61	0.869
2374.83	0.871
2384.05	0.871
2393.27	0.873
2402.48	0.874
2411.7	0.875
2420.92	0.875
2430.14	0.875
2439.36	0.875
2448.57	0.877
2457.79	0.877
2467.01	0.877
2476.23	0.8757
2485.45	0.8704
2494.66	0.8736
2503.88	0.874
2513.1	0.874
2522.32	0.873
2531.54	0.873
2540.75	0.873
2549.97	0.871
2559.19	0.871
2568.41	0.8704
2577.63	0.8694
2586.85	0.863
2596.06	0.861
2605.28	0.857
2614.5	0.854
2623.72	0.8507
2632.94	0.849
2642.15	0.849
2651.37	0.848
2660.59	0.846
2669.81	0.845
2679.03	0.844
2688.24	0.844
2697.46	0.844
2706.68	0.845
2715.9	0.844
2725.12	0.844
2734.34	0.84
2743.55	0.838
2752.77	0.8367
2761.99	0.8301
2771.21	0.824
2780.43	0.8177
2789.64	0.8084
2798.86	0.8
2808.08	0.7775
2817.3	0.7601
2826.52	0.7431
2835.73	0.7241
2844.95	0.6975
2854.17	0.6657
2863.39	0.6369
2872.61	0.5688
2881.83	0.5286
2891.04	0.5868
2900.26	0.602
2909.48	0.5984
2918.7	0.6155
2927.92	0.635
2937.13	0.6291
2946.35	0.5751
2955.57	0.52
2964.79	0.527
2974.01	0.5274
2983.22	0.5902
2992.44	0.6883
3001.66	0.7186
3010.88	0.7174
3020.1	0.712
3029.32	0.6987
3038.53	0.6831
3047.75	0.6674
3056.97	0.6394
3066.19	0.602
3075.41	0.5555
3084.62	0.546
3093.84	0.5553
3103.06	0.5735
3112.28	0.593
3121.5	0.591
3130.71	0.587
3139.93	0.5824
3149.15	0.5717
3158.37	0.5631
3167.59	0.5471
3176.8	0.5172
3186.02	0.4944
3195.24	0.4956
3204.46	0.5
3213.68	0.5149
3222.9	0.5465
3232.11	0.5801
3241.33	0.6218
3250.55	0.6636
3259.77	0.7025
3268.99	0.7245
3278.2	0.7463
3287.42	0.7625
3296.64	0.7836
3305.86	0.7943
3315.08	0.797
3324.29	0.795
3333.51	0.7811
3342.73	0.7767
3351.95	0.7727
3361.17	0.77
3370.39	0.7664
3379.6	0.763
3388.82	0.758
3398.04	0.755
3407.26	0.752
3416.48	0.752
3425.69	0.754
3434.91	0.755
3444.13	0.758
3453.35	0.763
3462.57	0.768
3471.78	0.772
3481	0.776
3490.22	0.7796
3499.44	0.783
3508.66	0.785
3517.88	0.788
3527.09	0.8006
3536.31	0.8063
3545.53	0.8126
3554.75	0.8196
3563.97	0.8273
3573.18	0.833
3582.4	0.8399
3591.62	0.8496
3600.84	0.858
3610.06	0.8616
3619.27	0.8683
3628.49	0.8706
3637.71	0.873
3646.93	0.873
3656.15	0.873
3665.37	0.873
3674.58	0.873
3683.8	0.871
3693.02	0.871
3702.24	0.873
3711.46	0.873
3720.67	0.873
3729.89	0.871
3739.11	0.871
3748.33	0.871
3757.55	0.87
