Infrared Spectrum: 1-Chloro-2,3,3-trifluorocyclobutene
Formula: C 4 H 2 Cl F 3
CAS: 694-62-2
State: gas
Origin: EPA-IR VAPOR PHASE LIBRARY
1/CM	ABSORBANCE
549.8	0.00229
559.445	0.0015034
569.09	0.0012635
578.735	0.00120545
588.38	0.0013076
598.025	0.0012919
607.67	0.0013792
617.315	0.0019715
626.96	0.00306
636.605	0.00407
646.251	0.00215
655.896	0.0015214
665.541	0.00119222
675.186	0.0016004
684.831	0.00303
694.476	0.00678
704.121	0.01228
713.766	0.01793
723.411	0.02488
733.056	0.02394
742.701	0.01323
752.346	0.00625
761.991	0.00337
771.636	0.0020596
781.281	0.0018427
790.926	0.0017777
800.571	0.00319
810.216	0.0127
819.861	0.04829
829.507	0.06406
839.152	0.04599
848.797	0.01902
858.442	0.00455
868.087	0.00219
877.732	0.0016229
887.377	0.00248
897.022	0.00402
906.667	0.00884
916.312	0.02046
925.957	0.03188
935.602	0.03046
945.247	0.01641
954.892	0.00527
964.537	0.00231
974.182	0.00322
983.827	0.00599
993.472	0.01165
1003.12	0.02447
1012.76	0.04499
1022.41	0.05419
1032.05	0.0376
1041.7	0.02264
1051.34	0.02186
1060.99	0.01556
1070.63	0.00946
1080.28	0.00612
1089.92	0.00678
1099.57	0.00851
1109.21	0.01872
1118.86	0.04838
1128.5	0.05672
1138.15	0.03607
1147.79	0.01352
1157.44	0.01605
1167.08	0.04166
1176.73	0.09133
1186.37	0.13311
1196.02	0.08767
1205.66	0.04175
1215.31	0.02441
1224.95	0.0303
1234.6	0.02803
1244.24	0.01523
1253.89	0.00787
1263.53	0.00618
1273.18	0.00801
1282.82	0.0118
1292.47	0.01212
1302.11	0.00937
1311.76	0.01034
1321.4	0.01864
1331.05	0.04897
1340.69	0.12001
1350.34	0.21168
1359.98	0.22696
1369.63	0.14275
1379.27	0.04442
1388.92	0.01612
1398.56	0.00712
1408.21	0.00368
1417.85	0.00278
1427.5	0.0035
1437.14	0.00732
1446.79	0.01896
1456.43	0.02002
1466.08	0.01019
1475.73	0.00321
1485.37	0.00229
1495.02	0.0021246
1504.66	0.0019967
1514.31	0.0016182
1523.95	0.0017197
1533.6	0.0015245
1543.24	0.0013999
1552.89	0.0013835
1562.53	0.0012927
1572.18	0.000982
1581.82	0.000906
1591.47	0.001001
1601.11	0.0012613
1610.76	0.0017085
1620.4	0.0020342
1630.05	0.002072
1639.69	0.0020592
1649.34	0.0021151
1658.98	0.0020277
1668.63	0.00254
1678.27	0.00433
1687.92	0.01013
1697.56	0.02528
1707.21	0.05005
1716.85	0.06243
1726.5	0.04887
1736.14	0.01716
1745.79	0.00515
1755.43	0.00329
1765.08	0.00215
1774.72	0.0013757
1784.37	0.001021
1794.01	0.000837
1803.66	0.000989
1813.3	0.00116839
1822.95	0.0014961
1832.59	0.001663
1842.24	0.0020464
1851.88	0.00232
1861.53	0.00226
1871.17	0.0017066
1880.82	0.00117784
1890.46	0.00112139
1900.11	0.001261
1909.75	0.0013048
1919.4	0.0010598
1929.04	0.00086
1938.69	0.000831
1948.33	0.00093
1957.98	0.0010985
1967.62	0.0012404
1977.27	0.0015251
1986.91	0.0014496
1996.56	0.00116752
2006.2	0.000957
2015.85	0.000799
2025.49	0.000855
2035.14	0.00073
2044.78	0.000889
2054.43	0.00114432
2064.07	0.0012663
2073.72	0.0014924
2083.36	0.0014927
2093.01	0.0014414
2102.65	0.0013718
2112.3	0.0013229
2121.94	0.00112065
2131.59	0.000781
2141.23	0.000829
2150.88	0.000864
2160.52	0.001
2170.17	0.0011032
2179.81	0.0012352
2189.46	0.00120232
2199.1	0.00113458
2208.75	0.000884
2218.39	0.000682
2228.04	0.000773
2237.68	0.000858
2247.33	0.000773
2256.97	0.000678
2266.62	0.000635
2276.26	0.000723
2285.91	0.000702
2295.55	0.000727
2305.2	0.000811
2314.84	0.000826
2324.49	0.000683
2334.13	0.000986
2343.78	0.0012807
2353.42	0.0015961
2363.07	0.0017436
2372.72	0.0014012
2382.36	0.0011145
2392.01	0.000997
2401.65	0.0011167
2411.3	0.0010949
2420.94	0.0012499
2430.59	0.0012104
2440.23	0.00113736
2449.88	0.0010373
2459.52	0.000788
2469.17	0.000717
2478.81	0.000612
2488.46	0.000533
2498.1	0.000447
2507.75	0.000467
2517.39	0.000439
2527.04	0.000606
2536.68	0.000722
2546.33	0.0007
2555.97	0.000554
2565.62	0.000506
2575.26	0.000313
2584.91	0.000327
2594.55	0.000256
2604.2	0.000372
2613.84	0.000188
2623.49	0.000284
2633.13	0.000363
2642.78	0.000396
2652.42	0.000148
2662.07	0.000196
2671.71	0.000171
2681.36	0.000312
2691	0.000386
2700.65	0.000204
2710.29	0.000211
2719.94	0.000185
2729.58	0.00012
2739.23	0.00013
2748.87	0.00012
2758.52	0.000161
2768.16	0.00012
2777.81	0.00011
2787.45	0.000174
2797.1	0.000244
2806.74	0.000342
2816.39	0.000333
2826.03	0.000404
2835.68	0.000624
2845.32	0.000683
2854.97	0.000755
2864.61	0.00115394
2874.26	0.0016665
2883.9	0.0018574
2893.55	0.0013952
2903.19	0.000607
2912.84	0.000636
2922.48	0.000581
2932.13	0.000573
2941.77	0.0014841
2951.42	0.00423
2961.06	0.00838
2970.71	0.00823
2980.35	0.00435
2990	0.00273
2999.64	0.00362
3009.29	0.00396
3018.93	0.0021054
3028.58	0.000755
3038.22	0.000327
3047.87	0.000229
3057.51	0.000311
3067.16	0.000467
3076.8	0.00042
3086.45	0.000398
3096.09	0.000182
3105.74	0.000192
3115.38	0.00013
3125.03	0.000252
3134.67	0.000187
3144.32	0.00016
3153.96	0.000157
3163.61	0.000371
3173.25	0.00012
3182.9	0.000317
3192.54	0.000355
3202.19	0.000355
3211.83	0.000346
3221.48	0.00015
3231.12	0.000435
3240.77	0.000257
3250.41	0.000334
3260.06	0.000316
3269.7	0.000298
3279.35	0.000297
3289	0.000345
3298.64	0.000315
3308.29	0.000293
3317.93	0.000464
3327.58	0.000396
3337.22	0.00043
3346.87	0.000496
3356.51	0.000502
3366.16	0.000474
3375.8	0.000451
3385.45	0.000507
3395.09	0.000632
3404.74	0.000449
3414.38	0.000393
3424.03	0.000633
3433.67	0.000534
3443.32	0.00042
3452.96	0.000533
3462.61	0.000421
3472.25	0.000269
3481.9	0.000469
3491.54	0.000496
3501.19	0.000437
3510.83	0.000355
3520.48	0.000584
3530.12	0.000323
3539.77	0.000435
3549.41	0.000469
3559.06	0.000726
3568.7	0.000533
3578.35	0.000516
3587.99	0.000744
3597.64	0.000541
3607.28	0.000574
3616.93	0.000673
3626.57	0.000628
3636.22	0.000595
3645.86	0.000521
3655.51	0.000463
3665.15	0.000616
3674.8	0.000526
3684.44	0.000585
3694.09	0.000452
3703.73	0.000641
3713.38	0.000705
3723.02	0.000542
3732.67	0.000632
3742.31	0.000493
3751.96	0.000606
3761.6	0.00063
3771.25	0.000586
3780.89	0.000606
3790.54	0.00051
3800.18	0.000524
3809.83	0.000525
3819.47	0.000697
3829.12	0.000592
3838.76	0.000643
3848.41	0.000684
3858.05	0.000633
3867.7	0.000445
3877.34	0.000511
3886.99	0.000578
3896.63	0.000548
3906.28	0.000519
3915.92	0.000533
3925.57	0.00056
3935.21	0.000717
3944.86	0.000422
3954.5	0.00052
3964.15	0.000509
3973.79	0.000557
3983.44	0.000526
3993.08	0.000464
