Infrared Spectrum: 5-Methylenebicyclo[2.2.1]-2-heptene
Formula: C 8 H 10
CAS: 694-91-7
State: gas
Instrument: HP-GC/MS/IRD
Origin: NIST Mass Spectrometry Data Center
1/CM	ABSORBANCE
550	0.0009966
562	0.0002332
574	0.0001848
586	6.82e-05
598	0.0002464
610	0.0003146
622	0.0002464
634	8.8e-06
646	2.42e-05
658	0.0004422
670	0.0021054
682	0.0035772
694	0.0035354
706	0.0051832
718	0.007942
730	0.0067386
742	0.0029634
754	0.0007942
766	0.000539
778	0.0006622
790	0.0006204
802	0.0005104
814	0.0008074
826	0.001628
838	0.0021912
850	0.0022968
862	0.0042834
874	0.0075812
886	0.0075086
898	0.0049874
910	0.002189
922	0.001166
934	0.0007018
946	0.0004796
958	0.0004796
970	0.0003586
982	0.0004422
994	0.0005764
1006	0.0007612
1018	0.0007128
1030	0.0003762
1042	0.0001232
1054	3.52e-05
1066	7.48e-05
1078	0.000231
1090	0.000352
1102	0.0003828
1114	0.0004268
1126	0.0006204
1138	0.0007722
1150	0.0007172
1162	0.0005258
1174	0.0004906
1186	0.0003608
1198	0.0002772
1210	0.000198
1222	0.0002596
1234	0.0003014
1246	0.0003828
1258	0.0004796
1270	0.0005126
1282	0.0004466
1294	0.0003828
1306	0.0008074
1318	0.001551
1330	0.0017248
1342	0.0010582
1354	0.0003828
1366	0.0002398
1378	0.0003124
1390	0.0004048
1402	0.0005764
1414	0.0007546
1426	0.0011836
1438	0.0015532
1450	0.0012804
1462	0.0008206
1474	0.0003762
1486	0.0002156
1498	0.0001628
1510	0.000187
1522	0.0002354
1534	0.0002464
1546	0.000418
1558	0.0007612
1570	0.0010252
1582	0.0009064
1594	0.000704
1606	0.0007392
1618	0.0009636
1630	0.0012958
1642	0.0024024
1654	0.0038214
1666	0.0039622
1678	0.0023188
1690	0.0008228
1702	0.0005324
1714	0.0003872
1726	0.0002904
1738	0.0003828
1750	0.0005698
1762	0.000737
1774	0.0006556
1786	0.000407
1798	0.0002662
1810	0.0002244
1822	0.0001716
1834	0.0001848
1846	0.0001672
1858	0.000154
1870	0.000154
1882	0.0001584
1894	0.0001518
1906	0.000154
1918	0.0001386
1930	0.0001364
1942	0.000132
1954	0.0001188
1966	0.000132
1978	7.92e-05
1990	9.68e-05
2002	0.0001122
2014	0.000121
2026	0.0001254
2038	0.0001628
2050	0.0001606
2062	0.0001694
2074	0.0001892
2086	0.0002002
2098	0.0001738
2110	0.0001848
2122	0.0001826
2134	0.0001672
2146	0.0001628
2158	0.0002002
2170	0.000198
2182	0.0002332
2194	0.0002002
2206	0.000165
2218	0.0001562
2230	0.0001518
2242	0.0001364
2254	0.0001496
2266	0.0001562
2278	0.0001408
2290	0.0001342
2302	0.0001034
2314	0.000143
2326	8.58e-05
2338	8.58e-05
2350	8.14e-05
2362	5.5e-05
2374	8.36e-05
2386	7.48e-05
2398	6.16e-05
2410	7.04e-05
2422	5.5e-05
2434	5.94e-05
2446	7.26e-05
2458	6.38e-05
2470	4.4e-05
2482	4.62e-05
2494	4.18e-05
2506	5.94e-05
2518	3.52e-05
2530	5.5e-05
2542	5.72e-05
2554	7.48e-05
2566	4.18e-05
2578	5.72e-05
2590	4.18e-05
2602	4.84e-05
2614	2.42e-05
2626	1.32e-05
2638	1.76e-05
2650	3.3e-05
2662	4.18e-05
2674	4.4e-05
2686	2.64e-05
2698	6.6e-05
2710	4.84e-05
2722	7.48e-05
2734	5.72e-05
2746	2.42e-05
2758	2.64e-05
2770	7.7e-05
2782	5.5e-05
2794	9.24e-05
2806	0.0001606
2818	0.000297
2830	0.000594
2842	0.001298
2854	0.0022286
2866	0.0028908
2878	0.0029414
2890	0.0026664
2902	0.0028534
2914	0.0044748
2926	0.0070972
2938	0.0092092
2950	0.01045
2962	0.0130284
2974	0.0194854
2986	0.022
2998	0.0153076
3010	0.0060588
3022	0.0014806
3034	0.001001
3046	0.0019778
3058	0.0045738
3070	0.0068882
3082	0.0059422
3094	0.0028402
3106	0.000924
3118	0.0007018
3130	0.000759
3142	0.0006336
3154	0.000363
3166	0.0001496
3178	7.04e-05
3190	5.94e-05
3202	1.98e-05
3214	5.5e-05
3226	3.08e-05
3238	3.74e-05
3250	5.5e-05
3262	5.72e-05
3274	3.52e-05
3286	7.48e-05
3298	9.68e-05
3310	7.26e-05
3322	0.0001276
3334	1.32e-05
3346	4.84e-05
3358	5.06e-05
3370	7.26e-05
3382	3.74e-05
3394	9.68e-05
3406	0.0001298
3418	0.0001034
3430	0.0001232
3442	0.0001364
3454	7.7e-05
3466	9.68e-05
3478	6.38e-05
3490	8.58e-05
3502	5.06e-05
3514	7.04e-05
3526	7.48e-05
3538	9.24e-05
3550	5.06e-05
3562	2.2e-05
3574	6.6e-06
3586	1.54e-05
3598	4.18e-05
3610	7.92e-05
3622	2.42e-05
3634	5.94e-05
3646	0.0001122
3658	1.98e-05
3670	4.62e-05
3682	0.0001298
3694	3.96e-05
3706	7.48e-05
3718	0.0001122
3730	0.0001122
3742	0.0001518
3754	0.0001012
3766	0.0001364
3778	0.0001518
3790	0.0001672
3802	0.0001606
3814	0.0001364
3826	0.000132
3838	0.0002002
