Infrared Spectrum: Bicyclo[3.3.0]octane
Formula: C 8 H 14
CAS: 694-72-4
State: gas
Instrument: HP-GC/MS/IRD
Origin: NIST Mass Spectrometry Data Center
1/CM	ABSORBANCE
550	9.28e-05
562	5.22e-05
574	0.000116
586	0.0001218
598	0.0001798
610	6.38e-05
622	4.64e-05
634	3.48e-05
646	0.0001102
658	6.38e-05
670	9.28e-05
682	4.64e-05
694	2.32e-05
706	5.8e-05
718	1.74e-05
730	6.38e-05
742	6.96e-05
754	4.06e-05
766	7.54e-05
778	8.7e-05
790	5.8e-05
802	5.8e-05
814	9.28e-05
826	0.0001624
838	9.28e-05
850	0.0001102
862	0.0001392
874	0.000261
886	0.0003538
898	0.0005278
910	0.0006322
922	0.0004698
934	0.0002958
946	0.0001682
958	0.0001334
970	0.000145
982	0.0001508
994	0.000203
1006	0.0002262
1018	0.0001914
1030	0.000116
1042	8.12e-05
1054	7.54e-05
1066	4.64e-05
1078	5.8e-06
1090	4.64e-05
1102	5.8e-05
1114	5.8e-05
1126	9.28e-05
1138	9.28e-05
1150	7.54e-05
1162	6.96e-05
1174	0.000145
1186	0.0001624
1198	0.0001856
1210	0.000203
1222	0.0002436
1234	0.00029
1246	0.00029
1258	0.0002146
1270	0.0002262
1282	0.0002494
1294	0.0003016
1306	0.0003422
1318	0.0004002
1330	0.0003944
1342	0.000261
1354	0.0001508
1366	0.000116
1378	0.0001334
1390	0.0001566
1402	0.0002262
1414	0.0003016
1426	0.000493
1438	0.001305
1450	0.002262
1462	0.0027782
1474	0.002349
1486	0.0013224
1498	0.0006148
1510	0.0002958
1522	0.0001682
1534	9.28e-05
1546	7.54e-05
1558	6.38e-05
1570	5.22e-05
1582	5.22e-05
1594	3.48e-05
1606	4.64e-05
1618	4.06e-05
1630	3.48e-05
1642	4.06e-05
1654	5.22e-05
1666	4.06e-05
1678	6.38e-05
1690	2.9e-05
1702	2.9e-05
1714	3.48e-05
1726	4.06e-05
1738	4.06e-05
1750	4.64e-05
1762	3.48e-05
1774	3.48e-05
1786	4.64e-05
1798	4.64e-05
1810	5.22e-05
1822	5.22e-05
1834	3.48e-05
1846	4.06e-05
1858	2.9e-05
1870	2.9e-05
1882	3.48e-05
1894	5.8e-06
1906	2.32e-05
1918	2.32e-05
1930	5.8e-06
1942	2.9e-05
1954	5.8e-06
1966	5.8e-06
1978	5.8e-06
1990	1.74e-05
2002	1.74e-05
2014	3.48e-05
2026	3.48e-05
2038	4.64e-05
2050	1.16e-05
2062	3.48e-05
2074	3.48e-05
2086	2.9e-05
2098	2.9e-05
2110	1.74e-05
2122	1.16e-05
2134	1.16e-05
2146	4.64e-05
2158	5.8e-05
2170	5.22e-05
2182	9.28e-05
2194	8.7e-05
2206	7.54e-05
2218	9.28e-05
2230	8.12e-05
2242	6.96e-05
2254	6.96e-05
2266	5.8e-05
2278	6.38e-05
2290	8.7e-05
2302	9.86e-05
2314	8.7e-05
2326	0.000116
2338	0.0001102
2350	9.86e-05
2362	9.86e-05
2374	6.96e-05
2386	4.06e-05
2398	3.48e-05
2410	1.16e-05
2422	1.74e-05
2434	1.74e-05
2446	2.9e-05
2458	2.9e-05
2470	1.74e-05
2482	3.48e-05
2494	4.64e-05
2506	4.06e-05
2518	4.06e-05
2530	4.06e-05
2542	5.8e-05
2554	8.7e-05
2566	0.0001102
2578	0.0001334
2590	0.0001798
2602	0.0001914
2614	0.000174
2626	0.0001624
2638	0.0001566
2650	0.0001624
2662	0.0001276
2674	0.000116
2686	0.000116
2698	0.0001276
2710	0.000145
2722	0.0001798
2734	0.000232
2746	0.0002958
2758	0.0003364
2770	0.0003886
2782	0.0004524
2794	0.0005278
2806	0.0006728
2818	0.0009164
2830	0.0014326
2842	0.0028188
2854	0.007801
2866	0.0154106
2878	0.0166054
2890	0.0112636
2902	0.0095874
2914	0.0136532
2926	0.0239366
2938	0.0428446
2950	0.055361
2962	0.044747
2974	0.0201492
2986	0.0059218
2998	0.002697
3010	0.001624
3022	0.0010092
3034	0.0007308
3046	0.0005278
3058	0.0004234
3070	0.0003886
3082	0.0003016
3094	0.0002378
3106	0.000232
3118	0.0002378
3130	0.0002262
3142	0.0002146
3154	0.0001566
3166	0.0001334
3178	0.0001102
3190	9.86e-05
3202	8.7e-05
3214	9.86e-05
3226	0.000116
3238	5.22e-05
3250	4.06e-05
3262	5.8e-05
3274	9.28e-05
3286	9.28e-05
3298	0.0001044
3310	9.28e-05
3322	8.12e-05
3334	8.12e-05
3346	1.74e-05
3358	4.06e-05
3370	1.74e-05
3382	3.48e-05
3394	2.32e-05
3406	2.32e-05
3418	1.74e-05
3430	1.16e-05
3442	0
3454	4.64e-05
3466	8.7e-05
3478	7.54e-05
3490	9.28e-05
3502	6.96e-05
3514	6.38e-05
3526	5.22e-05
3538	8.12e-05
3550	5.8e-05
3562	5.8e-05
3574	5.8e-05
3586	4.06e-05
3598	5.22e-05
3610	4.64e-05
3622	4.64e-05
3634	2.9e-05
3646	9.86e-05
3658	8.7e-05
3670	6.38e-05
3682	7.54e-05
3694	0.0001044
3706	8.7e-05
3718	9.28e-05
3730	0.0001044
3742	7.54e-05
3754	8.12e-05
3766	0.000116
3778	0.000116
3790	0.0001276
3802	9.86e-05
3814	0.000145
3826	0.0001624
3838	0.000145
