Infrared Spectrum: 3-Ethylcyclopentene
Formula: C 7 H 12
CAS: 694-35-9
State: gas
Instrument: HP-GC/MS/IRD
Origin: NIST Mass Spectrometry Data Center
1/CM	ABSORBANCE
550	0.000639
562	0.000408
574	0.000447
586	0.000501
598	0.000501
610	0.000435
622	0.000264
634	0.000318
646	0.000324
658	0.000624
670	0.001086
682	0.002151
694	0.003666
706	0.005226
718	0.00609
730	0.004701
742	0.002823
754	0.001611
766	0.000975
778	0.000861
790	0.000795
802	0.000678
814	0.000474
826	0.00039
838	0.000351
850	0.000393
862	0.000216
874	8.4e-05
886	0.000306
898	0.001071
910	0.001221
922	0.000957
934	0.000603
946	0.000429
958	0.000438
970	0.000786
982	0.001062
994	0.00123
1006	0.000954
1018	0.000678
1030	0.000357
1042	0.000357
1054	0.00066
1066	0.000696
1078	0.000735
1090	0.000753
1102	0.000708
1114	0.000384
1126	0.000153
1138	8.1e-05
1150	0.000114
1162	0.00018
1174	0.000144
1186	9.6e-05
1198	9.6e-05
1210	0.000132
1222	0.000237
1234	0.0003
1246	0.000453
1258	0.000573
1270	0.000603
1282	0.000519
1294	0.000474
1306	0.000393
1318	0.000408
1330	0.000537
1342	0.000804
1354	0.001305
1366	0.001476
1378	0.001494
1390	0.001386
1402	0.000771
1414	0.000498
1426	0.000687
1438	0.001359
1450	0.002553
1462	0.00291
1474	0.002334
1486	0.001203
1498	0.000534
1510	0.000258
1522	0.00018
1534	0.000114
1546	8.7e-05
1558	7.8e-05
1570	0.000153
1582	0.000171
1594	0.000303
1606	0.000534
1618	0.00063
1630	0.000693
1642	0.000753
1654	0.00063
1666	0.000462
1678	0.000249
1690	0.000192
1702	0.000111
1714	6.6e-05
1726	4.5e-05
1738	3e-05
1750	3.9e-05
1762	3e-05
1774	1.5e-05
1786	2.4e-05
1798	9e-06
1810	2.7e-05
1822	4.8e-05
1834	6e-06
1846	4.2e-05
1858	7.2e-05
1870	9e-05
1882	4.2e-05
1894	5.4e-05
1906	3.6e-05
1918	6.9e-05
1930	7.5e-05
1942	6.9e-05
1954	6e-05
1966	7.2e-05
1978	4.5e-05
1990	6e-05
2002	6.6e-05
2014	8.4e-05
2026	0.000102
2038	6.3e-05
2050	6e-05
2062	7.5e-05
2074	0.000102
2086	5.1e-05
2098	6.9e-05
2110	9.6e-05
2122	0.000105
2134	6.9e-05
2146	7.8e-05
2158	0.000111
2170	0.000129
2182	0.000111
2194	0.000147
2206	0.000165
2218	0.000144
2230	0.00012
2242	0.000105
2254	0.000102
2266	0.000117
2278	9.6e-05
2290	9.3e-05
2302	0.000117
2314	0.000102
2326	0.000111
2338	0.000111
2350	0.000117
2362	0.000144
2374	0.000147
2386	0.000105
2398	9.6e-05
2410	0.000117
2422	0.000147
2434	0.000102
2446	7.5e-05
2458	7.2e-05
2470	0.000105
2482	0.000105
2494	9.3e-05
2506	0.000108
2518	0.000123
2530	0.000156
2542	0.000183
2554	0.00018
2566	0.00021
2578	0.00021
2590	0.000237
2602	0.000165
2614	0.000222
2626	0.000219
2638	0.000207
2650	0.000204
2662	0.000231
2674	0.00024
2686	0.00024
2698	0.000276
2710	0.0003
2722	0.000378
2734	0.000435
2746	0.000567
2758	0.000585
2770	0.000705
2782	0.000909
2794	0.001173
2806	0.00156
2818	0.002223
2830	0.003708
2842	0.007476
2854	0.013389
2866	0.017292
2878	0.017181
2890	0.015327
2902	0.015573
2914	0.019362
2926	0.024345
2938	0.02751
2950	0.0291
2962	0.029109
2974	0.022023
2986	0.011619
2998	0.00459
3010	0.00258
3022	0.002334
3034	0.003426
3046	0.006432
3058	0.008493
3070	0.007128
3082	0.003075
3094	0.001107
3106	0.000624
3118	0.000474
3130	0.000429
3142	0.000459
3154	0.000462
3166	0.000411
3178	0.000351
3190	0.00036
3202	0.000345
3214	0.00033
3226	0.000288
3238	0.000219
3250	0.000162
3262	0.00018
3274	0.00015
3286	0.000144
3298	7.8e-05
3310	0.000108
3322	5.7e-05
3334	0.000102
3346	0.000105
3358	0.000117
3370	0.000111
3382	6.9e-05
3394	7.8e-05
3406	9.6e-05
3418	0.000135
3430	0.000102
3442	0.000108
3454	9.9e-05
3466	0.000126
3478	0.000114
3490	0.000105
3502	0.00012
3514	0.000129
3526	0.000141
3538	0.000162
3550	0.000186
3562	0.000123
3574	0.000132
3586	0.000156
3598	0.000189
3610	0.000204
3622	0.000162
3634	0.000213
3646	0.00018
3658	0.000219
3670	0.000183
3682	0.000213
3694	0.000267
3706	0.000273
3718	0.000246
3730	0.000255
3742	0.000213
3754	0.000207
3766	0.000261
3778	0.000231
3790	0.000243
3802	0.000324
3814	0.000276
3826	0.000354
3838	0.000321
