Infrared Spectrum: Silane, phenyl-,
Formula: C6 H8 Si
CAS: 694-53-1
State: SOLUTION (12% CCl4 FOR 3800-1300, 2% CS2 FOR 1300-600, AND 12% CCl4 FOR 600-250)
Boiling point: 120 C
Class: COBLENTZ III
Instrument: PERKIN-ELMER 521 (GRATING)
Instrument parameters: FILTERS AT 3150, 2500, 2000, 1150, 700, 410. GRATING CHANGES: 2000, 630
Path length: 0.012 CM, 0.011 CM, AND 0.010 CM
Resolution: 2
Origin: DOW CORNING CORP.
1/CM	TRANSMITTANCE
240	0.7804
249	0.7929
258	0.8052
267	0.8068
276	0.8139
285	0.8137
294	0.8336
303	0.8431
312	0.8511
321	0.8723
330	0.874
339	0.8787
348	0.8779
357	0.8589
366	0.849
375	0.7771
384	0.4103
393	0.4939
402	0.8084
411	0.8188
420	0.7845
429	0.8174
438	0.8156
447	0.8118
456	0.8078
465	0.8059
474	0.8081
483	0.8152
492	0.8211
501	0.8258
510	0.8271
519	0.8253
528	0.8233
537	0.8219
546	0.8214
555	0.8213
564	0.8182
573	0.8108
582	0.7925
591	0.7734
600	0.7738
609	0.7811
618	0.7712
627	0.7269
636	0.6265
645	0.285
654	0.4612
663	0.6897
672	0.7408
681	0.7642
690	0.7236
699	0.1516
708	0.7078
717	0.8222
726	0.8512
735	0.858
744	0.8379
753	0.8663
762	0.8804
771	0.8843
780	0.8853
789	0.8836
798	0.8813
807	0.8802
816	0.8782
825	0.8762
834	0.8723
843	0.8579
852	0.8503
861	0.848
870	0.8463
879	0.8342
888	0.8088
897	0.7588
906	0.5041
915	0
924	0.2129
933	0.4815
942	0.5541
951	0.7075
960	0.8035
969	0.8327
978	0.847
987	0.858
996	0.8616
1005	0.8679
1014	0.8718
1023	0.8752
1032	0.8771
1041	0.8773
1050	0.875
1059	0.864
1068	0.8694
1077	0.8787
1086	0.8827
1095	0.8791
1104	0.8467
1113	0.5506
1122	0.7426
1131	0.9004
1140	0.9124
1149	0.911
1158	0.9103
1167	0.9084
1176	0.9074
1185	0.9079
1194	0.9091
1203	0.9134
1212	0.9127
1221	0.9125
1230	0.9095
1239	0.905
1248	0.9028
1257	0.9032
1266	0.9017
1275	0.8826
1284	0.892
1293	0.8958
1302	0.7488
1311	0.836
1320	0.8238
1329	0.6071
1338	0.8417
1347	0.8536
1356	0.8509
1365	0.824
1374	0.7843
1383	0.8227
1392	0.8438
1401	0.8232
1410	0.8064
1419	0.7344
1428	0.1144
1437	0.7583
1446	0.8001
1455	0.8144
1464	0.8498
1473	0.8308
1482	0.5793
1491	0.8474
1500	0.8527
1509	0.8573
1518	0.8628
1527	0.8546
1536	0.8455
1545	0.7943
1554	0.8186
1563	0.823
1572	0.8228
1581	0.8069
1590	0.64
1599	0.8207
1608	0.8229
1617	0.831
1626	0.8632
1635	0.8693
1644	0.8629
1653	0.8557
1662	0.8098
1671	0.8372
1680	0.8621
1689	0.8601
1698	0.8704
1707	0.8742
1716	0.8716
1725	0.868
1734	0.8612
1743	0.8573
1752	0.854
1761	0.7993
1770	0.8507
1779	0.8628
1788	0.8717
1797	0.8637
1806	0.8207
1815	0.7399
1824	0.8234
1833	0.8338
1842	0.8469
1851	0.8542
1860	0.8463
1869	0.8264
1878	0.7713
1887	0.7498
1896	0.7773
1905	0.8385
1914	0.8607
1923	0.8662
1932	0.8596
1941	0.85
1950	0.7742
1959	0.7753
1968	0.7932
1977	0.8249
1986	0.8425
1995	0.852
2004	0.8511
2013	0.8446
2022	0.8353
2031	0.8223
2040	0.8035
2049	0.7798
2058	0.748
2067	0.7145
2076	0.6819
2085	0.6499
2094	0.6122
2103	0.5591
2112	0.4852
2121	0.2434
2130	0.1698
2139	0.0579
2148	0
2157	0
2166	0
2175	0
2184	0.0752
2193	0.1717
2202	0.2682
2211	0.3523
2220	0.4537
2229	0.5176
2238	0.5822
2247	0.6376
2256	0.6816
2265	0.7131
2274	0.7474
2283	0.7707
2292	0.7903
2301	0.806
2310	0.8136
2319	0.8147
2328	0.8344
2337	0.8337
2346	0.8327
2355	0.8372
2364	0.849
2373	0.8545
2382	0.8592
2391	0.8626
2400	0.8641
2409	0.8654
2418	0.8671
2427	0.8685
2436	0.8693
2445	0.8699
2454	0.87
2463	0.87
2472	0.8699
2481	0.8695
2490	0.8693
2499	0.8693
2508	0.8693
2517	0.8692
2526	0.8691
2535	0.869
2544	0.8691
2553	0.8691
2562	0.8689
2571	0.8686
2580	0.8682
2589	0.8675
2598	0.8669
2607	0.8654
2616	0.8625
2625	0.86
2634	0.8694
2643	0.8687
2652	0.8693
2661	0.8674
2670	0.8662
2679	0.8642
2688	0.8622
2697	0.8561
2706	0.8502
2715	0.8584
2724	0.8648
2733	0.8643
2742	0.8634
2751	0.8621
2760	0.8608
2769	0.8593
2778	0.8575
2787	0.8554
2796	0.8533
2805	0.8508
2814	0.8478
2823	0.8526
2832	0.8575
2841	0.8444
2850	0.8214
2859	0.8137
2868	0.8279
2877	0.831
2886	0.8335
2895	0.8246
2904	0.8107
2913	0.7792
2922	0.7534
2931	0.7652
2940	0.7833
2949	0.8031
2958	0.8115
2967	0.799
2976	0.7998
2985	0.7939
2994	0.7704
3003	0.6926
3012	0.5205
3021	0.4755
3030	0.4198
3039	0.5299
3048	0.6523
3057	0.5061
3066	0.36
3075	0.3805
3084	0.2403
3093	0.5237
3102	0.5674
3111	0.7764
3120	0.831
3129	0.8463
3138	0.8466
3147	0.7983
3156	0.8681
3165	0.8739
3174	0.8768
3183	0.88
3192	0.8821
3201	0.884
3210	0.8851
3219	0.8862
3228	0.8869
3237	0.8869
3246	0.8869
3255	0.887
3264	0.887
3273	0.8869
3282	0.8866
3291	0.8863
3300	0.886
3309	0.8857
3318	0.8852
3327	0.8844
3336	0.8836
3345	0.8828
3354	0.882
3363	0.8809
3372	0.8799
3381	0.8788
3390	0.8781
3399	0.8778
3408	0.8777
3417	0.8774
3426	0.8772
3435	0.8772
3444	0.8776
3453	0.878
3462	0.8784
3471	0.8787
3480	0.8789
3489	0.879
3498	0.8791
3507	0.8792
3516	0.8797
3525	0.8804
3534	0.8811
3543	0.8817
3552	0.8824
3561	0.8831
3570	0.8839
3579	0.8846
3588	0.8851
3597	0.8847
3606	0.8845
3615	0.8843
3624	0.8841
3633	0.8819
3642	0.8775
3651	0.8805
3660	0.8925
3669	0.891
3678	0.8884
3687	0.885
3696	0.881
3705	0.8783
3714	0.8789
3723	0.8826
3732	0.8866
3741	0.889
3750	0.8907
3759	0.8893
3768	0.8845
3777	0.8835
3786	0.8847
3795	0.8867
3804	0.8893
3813	0.8922
