Infrared Spectrum: p-Bromomandelic acid
Formula: C 8 H 7 Br O 3
CAS: 6940-50-7
State: gas
Instrument: HP-GC/MS/IRD
Origin: NIST Mass Spectrometry Data Center
1/CM	ABSORBANCE
550	0.0108
562	0.009366
574	0.006462
586	0.004458
598	0.005544
610	0.00786
622	0.011052
634	0.01212
646	0.00978
658	0.007002
670	0.004158
682	0.002076
694	0.001902
706	0.002838
718	0.004164
730	0.01032
742	0.009324
754	0.00231
766	0.001314
778	0.001776
790	0.003672
802	0.007404
814	0.009228
826	0.00543
838	0.002892
850	0.002928
862	0.003828
874	0.00357
886	0.004482
898	0.005148
910	0.002742
922	0.001896
934	0.002214
946	0.001146
958	0.000564
970	0.000402
982	0.00045
994	0.001818
1006	0.011904
1018	0.016242
1030	0.005316
1042	0.008118
1054	0.014124
1066	0.02901
1078	0.043176
1090	0.027246
1102	0.020688
1114	0.022638
1126	0.030708
1138	0.035754
1150	0.02364
1162	0.014286
1174	0.012492
1186	0.011166
1198	0.00777
1210	0.005448
1222	0.00555
1234	0.0063
1246	0.006894
1258	0.007482
1270	0.00813
1282	0.008154
1294	0.00876
1306	0.009906
1318	0.01275
1330	0.014544
1342	0.013224
1354	0.010572
1366	0.007626
1378	0.005874
1390	0.00525
1402	0.005568
1414	0.003948
1426	0.002046
1438	0.00138
1450	0.001188
1462	0.001752
1474	0.005382
1486	0.017994
1498	0.009174
1510	0.001458
1522	0.000324
1534	0
1546	2.4e-05
1558	0.000228
1570	0.00072
1582	0.002502
1594	0.00471
1606	0.001518
1618	0.00069
1630	0.000678
1642	0.000522
1654	0.000414
1666	0.000384
1678	0.000708
1690	0.000972
1702	0.001746
1714	0.003882
1726	0.006576
1738	0.007608
1750	0.013272
1762	0.033468
1774	0.06
1786	0.041172
1798	0.027054
1810	0.01689
1822	0.009198
1834	0.004104
1846	0.002022
1858	0.00114
1870	0.00078
1882	0.000792
1894	0.000966
1906	0.000846
1918	0.000408
1930	0.00015
1942	6e-05
1954	4.8e-05
1966	2.4e-05
1978	1.8e-05
1990	4.2e-05
2002	4.8e-05
2014	8.4e-05
2026	0.00015
2038	0.000162
2050	0.000144
2062	0.000144
2074	0.00012
2086	0.000156
2098	0.000168
2110	0.000174
2122	0.000228
2134	0.000258
2146	0.00027
2158	0.000294
2170	0.0003
2182	0.000294
2194	0.000354
2206	0.000354
2218	0.000378
2230	0.00042
2242	0.000426
2254	0.00051
2266	0.000558
2278	0.00066
2290	0.000936
2302	0.001374
2314	0.001848
2326	0.002142
2338	0.001986
2350	0.001674
2362	0.0027
2374	0.002106
2386	0.000798
2398	0.000414
2410	0.000444
2422	0.000438
2434	0.000432
2446	0.000462
2458	0.00048
2470	0.000462
2482	0.000426
2494	0.000432
2506	0.000426
2518	0.000402
2530	0.00042
2542	0.000438
2554	0.000408
2566	0.000414
2578	0.000438
2590	0.000444
2602	0.000432
2614	0.000384
2626	0.000372
2638	0.000354
2650	0.000372
2662	0.000396
2674	0.000402
2686	0.000306
2698	0.000348
2710	0.000348
2722	0.000426
2734	0.00039
2746	0.000384
2758	0.000396
2770	0.000444
2782	0.00045
2794	0.000492
2806	0.000594
2818	0.000654
2830	0.000732
2842	0.000774
2854	0.000984
2866	0.001068
2878	0.001128
2890	0.001326
2902	0.001974
2914	0.002322
2926	0.00201
2938	0.001476
2950	0.00117
2962	0.001038
2974	0.000894
2986	0.000798
2998	0.000702
3010	0.000804
3022	0.00105
3034	0.001572
3046	0.00156
3058	0.00141
3070	0.001212
3082	0.001554
3094	0.00186
3106	0.00108
3118	0.000558
3130	0.000402
3142	0.000372
3154	0.000342
3166	0.000336
3178	0.000354
3190	0.000366
3202	0.000414
3214	0.000324
3226	0.000306
3238	0.000318
3250	0.000354
3262	0.00036
3274	0.000444
3286	0.000402
3298	0.00045
3310	0.000468
3322	0.000504
3334	0.000438
3346	0.000468
3358	0.000402
3370	0.000492
3382	0.000444
3394	0.000516
3406	0.000474
3418	0.000588
3430	0.000678
3442	0.00072
3454	0.000798
3466	0.000996
3478	0.001434
3490	0.002004
3502	0.002682
3514	0.003018
3526	0.003312
3538	0.003882
3550	0.006624
3562	0.0192
3574	0.036084
3586	0.016782
3598	0.005934
3610	0.0033
3622	0.002688
3634	0.003294
3646	0.003672
3658	0.002424
3670	0.001434
3682	0.000906
3694	0.00069
3706	0.0006
3718	0.000546
3730	0.000654
3742	0.000576
3754	0.000492
3766	0.000456
3778	0.000432
3790	0.00054
3802	0.000468
3814	0.000498
3826	0.000498
3838	0.00057
