Infrared Spectrum: 1-(m-CHLOROPHENYL)-3,3-DIMETHYL-2-THIOUREA
Formula: C9 H11 Cl N2 S
CAS: 6943-20-0
State: SOLID (MINERAL OIL MULL)
Class: COBLENTZ
Instrument: Not specified, most likely a prism, grating, or hybrid spectrometer.
Sampling: TRANSMISSION
Resolution: 4
Origin: DOW CHEMICAL COMPANY
MICROMETERS	TRANSMITTANCE
2.048	0.624
2.08924	0.634
2.13048	0.641
2.17172	0.643
2.21295	0.643
2.25419	0.643
2.29543	0.648
2.33667	0.656
2.37791	0.663
2.41915	0.674
2.46039	0.691
2.50163	0.699
2.54286	0.704
2.5841	0.71
2.62534	0.713
2.66658	0.72
2.70782	0.722
2.74906	0.725
2.7903	0.73
2.83154	0.735
2.87277	0.739
2.91401	0.73
2.95525	0.674
2.99649	0.591
3.03773	0.542
3.07897	0.629
3.12021	0.656
3.16145	0.679
3.20268	0.677
3.24392	0.655
3.28516	0.626
3.3264	0.409
3.36764	0.099
3.40888	0.219
3.45012	0.279
3.49136	0.62
3.53259	0.77
3.57383	0.792
3.61507	0.795
3.65631	0.797
3.69755	0.797
3.73879	0.802
3.78003	0.809
3.82127	0.819
3.8625	0.828
3.90374	0.83
3.94498	0.831
3.98622	0.833
4.02746	0.838
4.0687	0.843
4.10994	0.847
4.15118	0.847
4.19241	0.854
4.23365	0.859
4.27489	0.862
4.31613	0.861
4.35737	0.866
4.39861	0.864
4.43985	0.862
4.48109	0.864
4.52232	0.871
4.56356	0.874
4.6048	0.876
4.64604	0.878
4.68728	0.881
4.72852	0.883
4.76976	0.886
4.811	0.888
4.85223	0.888
4.89347	0.893
4.93471	0.897
4.97595	0.9
5.01719	0.902
5.05843	0.903
5.09967	0.903
5.14091	0.895
5.18214	0.91
5.22338	0.909
5.26462	0.912
5.30586	0.914
5.3471	0.909
5.38834	0.91
5.42958	0.917
5.47082	0.919
5.51205	0.924
5.55329	0.926
5.59453	0.924
5.63577	0.919
5.67701	0.912
5.71825	0.917
5.75949	0.931
5.80073	0.931
5.84196	0.931
5.8832	0.931
5.92444	0.927
5.96568	0.926
6.00692	0.922
6.04816	0.914
6.0894	0.903
6.13064	0.891
6.17187	0.838
6.21311	0.665
6.25435	0.456
6.29559	0.612
6.33683	0.735
6.37807	0.641
6.41931	0.449
6.46055	0.439
6.50178	0.615
6.54302	0.73
6.58426	0.765
6.6255	0.737
6.66674	0.682
6.70798	0.499
6.74922	0.519
6.79046	0.485
6.83169	0.487
6.87293	0.607
6.91417	0.727
6.95541	0.765
6.99665	0.73
7.03789	0.783
7.07913	0.806
7.12037	0.787
7.1616	0.763
7.20284	0.595
7.24408	0.457
7.28532	0.593
7.32656	0.732
7.3678	0.746
7.40904	0.687
7.45028	0.552
7.49151	0.332
7.53275	0.248
7.57399	0.312
7.61523	0.384
7.65647	0.468
7.69771	0.607
7.73895	0.703
7.78019	0.744
7.82142	0.777
7.86266	0.795
7.9039	0.807
7.94514	0.809
7.98638	0.771
8.02762	0.763
8.06886	0.818
8.1101	0.826
8.15133	0.837
8.19257	0.847
8.23381	0.833
8.27505	0.777
8.31629	0.765
8.35753	0.813
8.39877	0.826
8.44001	0.826
8.48124	0.823
8.52248	0.807
8.56372	0.794
8.60496	0.775
8.6462	0.716
8.68744	0.656
8.72868	0.593
8.76992	0.584
8.81115	0.641
8.85239	0.701
8.89363	0.742
8.93487	0.771
8.97611	0.785
9.01735	0.759
9.05859	0.674
9.09983	0.626
9.14106	0.692
9.1823	0.759
9.22354	0.804
9.26478	0.79
9.30602	0.756
9.34726	0.775
9.3885	0.77
9.42974	0.746
9.47097	0.756
9.51221	0.811
9.55345	0.828
9.59469	0.837
9.63593	0.847
9.67717	0.857
9.71841	0.862
9.75965	0.867
9.80088	0.871
9.84212	0.874
9.88336	0.878
9.9246	0.879
9.96584	0.871
10.0071	0.828
10.0483	0.861
10.0896	0.885
10.1308	0.883
10.172	0.885
10.2133	0.883
10.2545	0.879
10.2957	0.874
10.337	0.879
10.3782	0.885
10.4195	0.879
10.4607	0.859
10.5019	0.835
10.5432	0.828
10.5844	0.852
10.6257	0.867
10.6669	0.885
10.7081	0.885
10.7494	0.893
10.7906	0.898
10.8319	0.9
10.8731	0.902
10.9143	0.905
10.9556	0.905
10.9968	0.905
11.038	0.905
11.0793	0.903
11.1205	0.871
11.1618	0.857
11.203	0.878
11.2442	0.871
11.2855	0.756
11.3267	0.694
11.368	0.696
11.4092	0.644
11.4504	0.728
11.4917	0.821
11.5329	0.855
11.5742	0.871
11.6154	0.879
11.6566	0.886
11.6979	0.888
11.7391	0.888
11.7803	0.888
11.8216	0.897
11.8628	0.9
11.9041	0.903
11.9453	0.903
11.9865	0.907
12.0278	0.909
12.069	0.91
12.1103	0.912
12.1515	0.914
12.1927	0.914
12.234	0.912
12.2752	0.91
12.3164	0.91
12.3577	0.912
12.3989	0.914
12.4402	0.914
12.4814	0.909
12.5226	0.893
12.5639	0.828
12.6051	0.771
12.6464	0.806
12.6876	0.771
12.7288	0.694
12.7701	0.744
12.8113	0.843
12.8526	0.859
12.8938	0.869
12.935	0.869
12.9763	0.869
13.0175	0.871
13.0587	0.871
13.1	0.867
13.1412	0.862
13.1825	0.859
13.2237	0.855
13.2649	0.84
13.3062	0.838
13.3474	0.835
13.3887	0.819
13.4299	0.799
13.4711	0.775
13.5124	0.73
13.5536	0.668
13.5948	0.605
13.6361	0.519
13.6773	0.466
13.7186	0.447
13.7598	0.481
13.801	0.557
13.8423	0.62
13.8835	0.686
13.9248	0.713
13.966	0.73
14.0072	0.744
14.0485	0.747
14.0897	0.737
14.131	0.68
14.1722	0.608
14.2134	0.547
14.2547	0.547
14.2959	0.607
14.3371	0.658
14.3784	0.694
14.4196	0.701
14.4609	0.704
14.5021	0.704
14.5433	0.698
14.5846	0.687
14.6258	0.675
14.6671	0.667
14.7083	0.667
14.7495	0.667
14.7908	0.667
14.832	0.667
14.8733	0.665
14.9145	0.66
14.9557	0.65
14.997	0.646
15.0382	0.639
15.0794	0.631
15.1207	0.626
15.1619	0.619
15.2032	0.612
15.2444	0.607
15.2856	0.602
15.3269	0.596
15.3681	0.584
15.4094	0.578
15.4506	0.564
15.4918	0.548
15.5331	0.536
15.5743	0.533
15.6155	0.53
15.6568	0.528
15.698	0.518
15.7393	0.512
15.7805	0.511
15.8217	0.509
15.863	0.507
