Infrared Spectrum: 2-PHENYL-3-METHYL-4-HYDROXY-QUINOLINE
Formula: C16 H13 N O
CAS: 6943-08-4
State: SOLID (1.0% IN KBr PELLET)
Class: COBLENTZ
Instrument: Not specified, most likely a prism, grating, or hybrid spectrometer.
Sampling: TRANSMISSION
Path length: 0.0355 CM
Resolution: 4
Origin: ANDERSON PHYSICAL LABORATORY
1/CM	TRANSMITTANCE
661.049	0.699
669.476	0.617
677.903	0.581
686.33	0.5661
694.757	0.1952
703.184	0.2759
711.611	0.7409
720.038	0.888
728.465	0.866
736.892	0.809
745.319	0.686
753.746	0.2133
762.173	0.294
770.599	0.4439
779.026	0.758
787.453	0.767
795.88	0.879
804.307	0.855
812.734	0.762
821.161	0.722
829.588	0.749
838.015	0.7939
846.442	0.842
854.869	0.839
863.296	0.812
871.723	0.801
880.15	0.788
888.577	0.791
897.004	0.906
905.431	0.909
913.858	0.888
922.285	0.818
930.712	0.861
939.139	0.911
947.566	0.903
955.993	0.867
964.42	0.834
972.847	0.807
981.273	0.788
989.7	0.794
998.127	0.761
1006.55	0.6141
1014.98	0.3939
1023.41	0.6898
1031.84	0.83
1040.26	0.872
1048.69	0.881
1057.12	0.875
1065.54	0.854
1073.97	0.815
1082.4	0.843
1090.82	0.863
1099.25	0.851
1107.68	0.807
1116.1	0.7909
1124.53	0.839
1132.96	0.828
1141.39	0.803
1149.81	0.767
1158.24	0.726
1166.67	0.752
1175.09	0.6392
1183.52	0.49
1191.95	0.4209
1200.37	0.7249
1208.8	0.786
1217.23	0.788
1225.66	0.77
1234.08	0.696
1242.51	0.563
1250.94	0.466
1259.36	0.4689
1267.79	0.7069
1276.22	0.764
1284.64	0.752
1293.07	0.738
1301.5	0.696
1309.92	0.623
1318.35	0.629
1326.78	0.63
1335.21	0.614
1343.63	0.5271
1352.06	0.3941
1360.49	0.1661
1368.91	0.2039
1377.34	0.3069
1385.77	0.554
1394.19	0.463
1402.62	0.373
1411.05	0.465
1419.48	0.506
1427.9	0.4121
1436.33	0.313
1444.76	0.318
1453.18	0.285
1461.61	0.24
1470.04	0.177
1478.46	0.052
1486.89	0.034
1495.32	0.034
1503.75	0.049
1512.17	0.1149
1520.6	0.1539
1529.03	0.237
1537.45	0.2101
1545.88	0.091
1554.31	0.117
1562.73	0.229
1571.16	0.235
1579.59	0.178
1588.01	0.187
1596.44	0.2799
1604.87	0.325
1613.3	0.348
1621.72	0.343
1630.15	0.1801
1638.58	0.2849
1647	0.6059
1655.43	0.867
1663.86	0.896
1672.28	0.903
1680.71	0.921
1689.14	0.93
1697.57	0.942
1705.99	0.951
1714.42	0.953
1722.85	0.954
1731.27	0.953
1739.7	0.954
1748.13	0.953
1756.55	0.95
1764.98	0.947
1773.41	0.948
1781.83	0.951
1790.26	0.948
1798.69	0.938
1807.12	0.924
1815.54	0.914
1823.97	0.921
1832.4	0.929
1840.82	0.93
1849.25	0.936
1857.68	0.939
1866.1	0.948
1874.53	0.953
1882.96	0.947
1891.39	0.945
1899.81	0.942
1908.24	0.945
1916.67	0.95
1925.09	0.95
1933.52	0.95
1941.95	0.947
1950.37	0.93
1958.8	0.93
1967.23	0.932
1975.65	0.945
1984.08	0.95
1992.51	0.95
2000.94	0.9563
2009.36	0.958
2017.79	0.959
2026.22	0.959
2034.64	0.9567
2043.07	0.954
2051.5	0.953
2059.92	0.956
2068.35	0.9555
2076.78	0.9535
2085.21	0.953
2093.63	0.948
2102.06	0.945
2110.49	0.945
2118.91	0.9424
2127.34	0.941
2135.77	0.9419
2144.19	0.9461
2152.62	0.9496
2161.05	0.95
2169.47	0.9494
2177.9	0.9459
2186.33	0.9423
2194.76	0.9408
2203.18	0.937
2211.61	0.9324
2220.04	0.9292
2228.46	0.9194
2236.89	0.9106
2245.32	0.9054
2253.74	0.9033
2262.17	0.9
2270.6	0.8989
2279.03	0.8921
2287.45	0.8827
2295.88	0.8726
2304.31	0.867
2312.73	0.864
2321.16	0.861
2329.59	0.8597
2338.01	0.857
2346.44	0.857
2354.87	0.858
2363.29	0.858
2371.72	0.858
2380.15	0.8556
2388.58	0.854
2397	0.8477
2405.43	0.8357
2413.86	0.8333
2422.28	0.8311
2430.71	0.8258
2439.14	0.8123
2447.56	0.8018
2455.99	0.8
2464.42	0.797
2472.85	0.7901
2481.27	0.7831
2489.7	0.77
2498.13	0.7648
2506.55	0.7585
2514.98	0.747
2523.41	0.741
2531.83	0.7332
2540.26	0.7154
2548.69	0.7032
2557.12	0.6979
2565.54	0.682
2573.97	0.6683
2582.4	0.6515
2590.82	0.6317
2599.25	0.6107
2607.68	0.5941
2616.1	0.5792
2624.53	0.5636
2632.96	0.5442
2641.38	0.5373
2649.81	0.5314
2658.24	0.5248
2666.67	0.5101
2675.09	0.4919
2683.52	0.476
2691.95	0.4648
2700.37	0.4543
2708.8	0.4289
2717.23	0.4012
2725.65	0.3824
2734.08	0.352
2742.51	0.325
2750.94	0.2994
2759.36	0.2611
2767.79	0.2489
2776.22	0.2348
2784.64	0.2167
2793.07	0.201
2801.5	0.1859
2809.92	0.1694
2818.35	0.1623
2826.78	0.1534
2835.2	0.1476
2843.63	0.147
2852.06	0.147
2860.49	0.1484
2868.91	0.1534
2877.34	0.156
2885.77	0.157
2894.19	0.159
2902.62	0.1594
2911.05	0.1614
2919.47	0.1796
2927.9	0.2012
2936.33	0.2193
2944.76	0.2376
2953.18	0.2637
2961.61	0.2769
2970.04	0.281
2978.46	0.2857
2986.89	0.292
2995.32	0.294
3003.74	0.294
3012.17	0.292
3020.6	0.282
3029.02	0.27
3037.45	0.26
3045.88	0.255
3054.31	0.2591
3062.73	0.2755
3071.16	0.2876
3079.59	0.3042
3088.01	0.3369
3096.44	0.383
3104.87	0.4087
3113.29	0.4259
3121.72	0.4672
3130.15	0.51
3138.58	0.5373
3147	0.5531
3155.43	0.5632
3163.86	0.568
3172.28	0.5726
3180.71	0.5788
3189.14	0.582
3197.56	0.582
3205.99	0.582
3214.42	0.584
3222.84	0.5873
3231.27	0.5958
3239.7	0.6082
3248.13	0.6403
3256.55	0.6706
3264.98	0.6976
3273.41	0.7069
3281.83	0.7128
3290.26	0.711
3298.69	0.7038
3307.11	0.699
3315.54	0.6953
3323.97	0.6885
3332.4	0.686
3340.82	0.6847
3349.25	0.6773
3357.68	0.658
3366.1	0.6476
3374.53	0.64
3382.96	0.6352
3391.38	0.6262
3399.81	0.621
3408.24	0.62
3416.66	0.6209
3425.09	0.6208
3433.52	0.6191
3441.95	0.6194
3450.37	0.621
3458.8	0.6262
3467.23	0.6314
3475.65	0.6372
3484.08	0.639
3492.51	0.6472
3500.93	0.652
3509.36	0.659
3517.79	0.662
3526.22	0.6652
3534.64	0.6695
3543.07	0.6808
3551.5	0.6871
3559.92	0.6935
3568.35	0.7006
3576.78	0.7048
3585.2	0.708
3593.63	0.7109
3602.06	0.714
3610.49	0.7156
3618.91	0.716
3627.34	0.717
3635.77	0.719
3644.19	0.7198
3652.62	0.7201
3661.05	0.7214
3669.47	0.72
3677.9	0.7192
3686.33	0.7166
3694.75	0.71
3703.18	0.7028
3711.61	0.699
3720.04	0.6989
3728.46	0.698
3736.89	0.698
3745.32	0.698
3753.74	0.696
3762.17	0.695
3770.6	0.693
3779.02	0.6921
3787.45	0.6916
3795.88	0.6882
3804.31	0.686
3812.73	0.686
3821.16	0.686
3829.59	0.686
3838.01	0.684
3846.44	0.683
3854.87	0.683
3863.29	0.683
3871.72	0.683
3880.15	0.6811
3888.57	0.6796
3897	0.6761
3905.43	0.674
3913.86	0.674
3922.28	0.674
3930.71	0.672
3939.14	0.671
3947.56	0.669
3955.99	0.669
3964.42	0.669
