Infrared Spectrum: 9H-Purine, 9-butyl-
Formula: C9 H12 N4
CAS: 6943-34-6
State: LIQUID (NEAT)
Class: COBLENTZ
Instrument: PERKIN-ELMER 21 (GRATING)
Instrument parameters: FILTER CHANGE ABOUT 1090 CM^-^1
Sampling: TRANSMISSION
Path length: CAPILLARY
Resolution: 2
Origin: SOUTHERN RESEARCH INSTITUTE
1/CM	TRANSMITTANCE
605.713	0.6353
614.735	0.627
623.757	0.6077
632.779	0.4925
641.801	0.3808
650.823	0.2756
659.845	0.5914
668.867	0.7772
677.889	0.8372
686.911	0.8676
695.933	0.8676
704.955	0.8562
713.977	0.8339
722.999	0.8285
732.021	0.8195
741.043	0.7633
750.065	0.7352
759.087	0.6246
768.109	0.7008
777.131	0.738
786.153	0.6905
795.175	0.3679
804.197	0.3776
813.219	0.6325
822.241	0.7551
831.263	0.7595
840.285	0.7549
849.306	0.7604
858.328	0.7651
867.35	0.7527
876.372	0.714
885.394	0.6655
894.416	0.6106
903.438	0.3903
912.46	0.4868
921.482	0.4638
930.504	0.5347
939.526	0.6217
948.548	0.6421
957.57	0.6486
966.592	0.723
975.614	0.7273
984.636	0.7293
993.658	0.7446
1002.68	0.7488
1011.7	0.7521
1020.72	0.7525
1029.75	0.7526
1038.77	0.7507
1047.79	0.7429
1056.81	0.7331
1065.83	0.7254
1074.86	0.7099
1083.88	0.6616
1092.9	0.501
1101.92	0.2742
1110.94	0.5053
1119.97	0.6493
1128.99	0.6792
1138.01	0.653
1147.03	0.5795
1156.05	0.6666
1165.08	0.6998
1174.1	0.6754
1183.12	0.5748
1192.14	0.464
1201.16	0.1702
1210.19	0.1529
1219.21	0.3232
1228.23	0.509
1237.25	0.5501
1246.27	0.3518
1255.3	0.4996
1264.32	0.5991
1273.34	0.5949
1282.36	0.6123
1291.38	0.5668
1300.41	0.375
1309.43	0.1108
1318.45	0.297
1327.47	0.5234
1336.49	0.5485
1345.52	0.4843
1354.54	0.1052
1363.56	0.3471
1372.58	0.3665
1381.6	0.3509
1390.63	0.353
1399.65	0.406
1408.67	0.2995
1417.69	0.0995
1426.71	0.2955
1435.74	0.5866
1444.76	0.571
1453.78	0.3805
1462.8	0.3848
1471.82	0.3709
1480.85	0.5143
1489.87	0.5918
1498.89	0.4996
1507.91	0.2022
1516.93	0.4189
1525.96	0.5554
1534.98	0.6344
1544	0.6465
1553.02	0.6453
1562.04	0.6127
1571.07	0.5453
1580.09	0.2921
1589.11	0.1173
1598.13	0.1212
1607.15	0.0784
1616.17	0.3927
1625.2	0.5978
1634.22	0.6281
1643.24	0.6466
1652.26	0.6558
1661.28	0.6562
1670.31	0.6577
1679.33	0.6618
1688.35	0.6696
1697.37	0.6784
1706.39	0.6842
1715.42	0.6853
1724.44	0.6777
1733.46	0.6719
1742.48	0.6693
1751.5	0.6733
1760.53	0.6797
1769.55	0.6785
1778.57	0.6787
1787.59	0.6788
1796.61	0.6789
1805.64	0.6791
1814.66	0.6795
1823.68	0.6786
1832.7	0.6759
1841.72	0.6801
1850.75	0.682
1859.77	0.6825
1868.79	0.6791
1877.81	0.6693
1886.83	0.6716
1895.86	0.6746
1904.88	0.6788
1913.9	0.6843
1922.92	0.6872
1931.94	0.6852
1940.97	0.6846
1949.99	0.6846
1959.01	0.6894
1968.03	0.6894
1977.05	0.6903
1986.08	0.6928
1995.1	0.6895
2004.12	0.6874
2013.14	0.6899
2022.16	0.6932
2031.19	0.6932
2040.21	0.6922
2049.23	0.6919
2058.25	0.6915
2067.27	0.6911
2076.3	0.6905
2085.32	0.6899
2094.34	0.689
2103.36	0.6882
2112.38	0.6873
2121.41	0.6863
2130.43	0.6854
2139.45	0.6841
2148.47	0.6827
2157.49	0.6828
2166.52	0.6829
2175.54	0.6827
2184.56	0.6823
2193.58	0.6816
2202.6	0.6791
2211.63	0.6779
2220.65	0.6807
2229.67	0.6832
2238.69	0.6828
2247.71	0.6825
2256.74	0.6835
2265.76	0.6865
2274.78	0.6869
2283.8	0.6868
2292.82	0.6866
2301.85	0.6876
2310.87	0.6884
2319.89	0.6885
2328.91	0.6877
2337.93	0.6872
2346.96	0.6865
2355.98	0.6862
2365	0.6849
2374.02	0.6759
2383.04	0.6703
2392.07	0.672
2401.09	0.6769
2410.11	0.6743
2419.13	0.6733
2428.15	0.6733
2437.18	0.6734
2446.2	0.6736
2455.22	0.6738
2464.24	0.6717
2473.26	0.6701
2482.29	0.6722
2491.31	0.674
2500.33	0.6749
2509.35	0.6797
2518.37	0.6828
2527.4	0.6838
2536.42	0.6832
2545.44	0.6819
2554.46	0.6808
2563.48	0.6802
2572.5	0.6791
2581.53	0.6763
2590.55	0.6818
2599.57	0.6855
2608.59	0.6851
2617.61	0.6825
2626.64	0.6753
2635.66	0.6744
2644.68	0.6719
2653.7	0.6682
2662.72	0.667
2671.75	0.6686
2680.77	0.6651
2689.79	0.6631
2698.81	0.663
2707.83	0.6673
2716.86	0.6685
2725.88	0.6654
2734.9	0.6607
2743.92	0.6545
2752.94	0.6515
2761.97	0.6494
2770.99	0.6442
2780.01	0.6446
2789.03	0.6414
2798.05	0.6331
2807.08	0.6234
2816.1	0.611
2825.12	0.5925
2834.14	0.5719
2843.16	0.538
2852.19	0.4946
2861.21	0.4436
2870.23	0.3991
2879.25	0.3885
2888.27	0.3967
2897.3	0.4059
2906.32	0.4136
2915.34	0.3914
2924.36	0.3212
2933.38	0.2787
2942.41	0.253
2951.43	0.2534
2960.45	0.2557
2969.47	0.2628
2978.49	0.3286
2987.52	0.4003
2996.54	0.46
3005.56	0.5142
3014.58	0.532
3023.6	0.5382
3032.63	0.5299
3041.65	0.5218
3050.67	0.5105
3059.69	0.5055
3068.71	0.5055
3077.74	0.5082
3086.76	0.5138
3095.78	0.5223
3104.8	0.5392
3113.82	0.5562
3122.85	0.5848
3131.87	0.6047
3140.89	0.6259
3149.91	0.6265
3158.93	0.6354
3167.96	0.635
3176.98	0.6311
3186	0.6277
3195.02	0.6237
3204.04	0.6177
3213.07	0.6173
3222.09	0.6163
3231.11	0.6167
3240.13	0.6175
3249.15	0.6104
3258.18	0.6083
3267.2	0.6067
3276.22	0.6037
3285.24	0.6002
3294.26	0.5974
3303.29	0.5946
3312.31	0.5927
3321.33	0.5955
3330.35	0.5944
3339.37	0.5893
3348.4	0.5845
3357.42	0.5807
3366.44	0.5756
3375.46	0.5689
3384.48	0.5533
3393.51	0.5448
3402.53	0.5401
3411.55	0.5382
3420.57	0.5334
3429.59	0.5277
3438.62	0.5256
3447.64	0.5259
3456.66	0.5271
3465.68	0.5302
3474.7	0.5337
3483.73	0.5363
3492.75	0.5395
3501.77	0.5427
3510.79	0.546
3519.81	0.5495
3528.83	0.5515
3537.86	0.5541
3546.88	0.5638
3555.9	0.5668
3564.92	0.5794
3573.94	0.591
3582.97	0.5961
3591.99	0.6026
3601.01	0.6095
3610.03	0.6112
3619.05	0.6199
3628.08	0.632
3637.1	0.6425
3646.12	0.6488
3655.14	0.6523
3664.16	0.6608
3673.19	0.6643
3682.21	0.6666
3691.23	0.6706
3700.25	0.6742
3709.27	0.6744
3718.3	0.6726
3727.32	0.6733
3736.34	0.6785
3745.36	0.6888
3754.38	0.6901
3763.41	0.6892
3772.43	0.684
3781.45	0.6768
3790.47	0.6786
3799.49	0.6804
3808.52	0.6822
3817.54	0.6906
3826.56	0.6889
3835.58	0.6844
3844.6	0.6848
3853.63	0.6865
3862.65	0.6857
3871.67	0.6868
3880.69	0.688
3889.71	0.6875
3898.74	0.6814
3907.76	0.6754
3916.78	0.6772
3925.8	0.675
3934.82	0.6688
3943.85	0.669
3952.87	0.6687
3961.89	0.6681
3970.91	0.6672
3979.93	0.6624
3988.96	0.653
3997.98	0.6482
4007	0.6379
