Infrared Spectrum: Di-n-octadecylamine, hydrochloride
Formula: C36 H76 Cl N
CAS: 6944-28-1
State: SOLID (KBr DISC, 0.9% WT.)
Class: COBLENTZ III
Instrument: PERKIN-ELMER 157
Sampling: TRANSMISSION
Resolution: 2
Origin: BRITISH PETROLEUM CO. LTD., ENGLAND
1/CM	TRANSMITTANCE
668	1.0232
677	1.006
686	0.9683
695	0.9231
704	0.8657
713	0.6709
722	0.2214
731	0.6229
740	0.7475
749	0.799
758	0.7971
767	0.7777
776	0.7393
785	0.6946
794	0.7084
803	0.8067
812	0.8041
821	0.7971
830	0.7983
839	0.7989
848	0.7897
857	0.776
866	0.7684
875	0.7488
884	0.6799
893	0.6678
902	0.7449
911	0.7652
920	0.7539
929	0.7599
938	0.7622
947	0.7531
956	0.7428
965	0.7419
974	0.7305
983	0.7229
992	0.7074
1001	0.6896
1010	0.6736
1019	0.6479
1028	0.6172
1037	0.567
1046	0.5719
1055	0.6319
1064	0.63
1073	0.6484
1082	0.6859
1091	0.7033
1100	0.6912
1109	0.6832
1118	0.6888
1127	0.6868
1136	0.7048
1145	0.6948
1154	0.6787
1163	0.689
1172	0.6898
1181	0.6879
1190	0.6848
1199	0.6805
1208	0.6759
1217	0.6727
1226	0.6711
1235	0.6633
1244	0.6558
1253	0.6473
1262	0.6402
1271	0.6283
1280	0.6156
1289	0.6072
1298	0.6014
1307	0.6003
1316	0.5992
1325	0.5977
1334	0.5849
1343	0.5633
1352	0.5412
1361	0.5581
1370	0.5201
1379	0.4401
1388	0.5081
1397	0.5196
1406	0.5002
1415	0.4679
1424	0.4824
1433	0.4362
1442	0.3331
1451	0.2208
1460	0.1559
1469	0.0506
1478	0.1284
1487	0.2707
1496	0.4133
1505	0.4587
1514	0.5006
1523	0.5181
1532	0.5194
1541	0.5199
1550	0.5201
1559	0.5194
1568	0.5103
1577	0.4956
1586	0.469
1595	0.4456
1604	0.4561
1613	0.4857
1622	0.5158
1631	0.5206
1640	0.5213
1649	0.5216
1658	0.5221
1667	0.522
1676	0.5218
1685	0.5215
1694	0.5213
1703	0.5211
1712	0.521
1721	0.5207
1730	0.5205
1739	0.5205
1748	0.5202
1757	0.5193
1766	0.5184
1775	0.5173
1784	0.5155
1793	0.5107
1802	0.5075
1811	0.5053
1820	0.5032
1829	0.4999
1838	0.4948
1847	0.4885
1856	0.4817
1865	0.4813
1874	0.4811
1883	0.4813
1892	0.4815
1901	0.4818
1910	0.4822
1919	0.482
1928	0.4818
1937	0.4814
1946	0.4808
1955	0.4798
1964	0.478
1973	0.4758
1982	0.4733
1991	0.4706
2000	0.468
2009	0.4655
2018	0.4632
2027	0.4608
2036	0.4587
2045	0.4566
2054	0.4546
2063	0.4526
2072	0.4507
2081	0.4489
2090	0.447
2099	0.4453
2108	0.4435
2117	0.4418
2126	0.4399
2135	0.4377
2144	0.4355
2153	0.4328
2162	0.4297
2171	0.4279
2180	0.4263
2189	0.4209
2198	0.418
2207	0.4161
2216	0.4141
2225	0.4085
2234	0.406
2243	0.4041
2252	0.4021
2261	0.3998
2270	0.3974
2279	0.3946
2288	0.3915
2297	0.385
2306	0.3746
2315	0.3622
2324	0.3502
2333	0.3393
2342	0.3292
2351	0.3199
2360	0.3127
2369	0.3077
2378	0.3041
2387	0.3016
2396	0.3001
2405	0.2952
2414	0.2747
2423	0.2432
2432	0.2111
2441	0.1778
2450	0.1448
2459	0.1406
2468	0.1897
2477	0.2417
2486	0.2454
2495	0.2445
2504	0.2348
2513	0.2178
2522	0.2057
2531	0.1964
2540	0.1897
2549	0.1887
2558	0.1885
2567	0.1891
2576	0.1893
2585	0.1816
2594	0.1697
2603	0.1608
2612	0.1514
2621	0.1421
2630	0.1331
2639	0.1253
2648	0.1189
2657	0.1044
2666	0.092
2675	0.0841
2684	0.0738
2693	0.0612
2702	0.0519
2711	0.0442
2720	0.0398
2729	0.0384
2738	0.0376
2747	0.0368
2756	0.034
2765	0.0295
2774	0.0287
2783	0.0286
2792	0.0284
2801	0.0278
2810	0.0257
2819	0.0221
2828	0.0188
2837	0.0163
2846	0.0147
2855	0.0142
2864	0.0144
2873	0.0148
2882	0.0156
2891	0.0171
2900	0.0192
2909	0.0221
2918	0.0248
2927	0.0255
2936	0.026
2945	0.0264
2954	0.0267
2963	0.0307
2972	0.0387
2981	0.048
2990	0.0562
2999	0.0642
3008	0.072
3017	0.0776
3026	0.0853
3035	0.0936
3044	0.0985
3053	0.1021
3062	0.1134
3071	0.1193
3080	0.1218
3089	0.1274
3098	0.1328
3107	0.136
3116	0.1366
3125	0.137
3134	0.1374
3143	0.1379
3152	0.1385
3161	0.1391
3170	0.1394
3179	0.1397
3188	0.1399
3197	0.1402
3206	0.1404
3215	0.1406
3224	0.1407
3233	0.1409
3242	0.141
3251	0.1411
3260	0.1412
3269	0.1413
3278	0.1414
3287	0.1415
3296	0.1416
3305	0.1416
3314	0.1417
3323	0.1417
3332	0.1417
3341	0.1418
3350	0.1418
3359	0.1418
3368	0.1419
3377	0.1419
3386	0.1418
3395	0.1418
3404	0.1418
3413	0.1417
3422	0.1417
3431	0.1416
3440	0.1416
3449	0.1415
3458	0.1414
3467	0.1414
3476	0.1413
3485	0.1412
3494	0.1411
3503	0.141
3512	0.1408
3521	0.1408
3530	0.1407
3539	0.1405
3548	0.1403
3557	0.14
3566	0.1398
3575	0.1395
3584	0.139
3593	0.1385
3602	0.1376
3611	0.1354
3620	0.1329
3629	0.1312
3638	0.1299
3647	0.1288
3656	0.128
3665	0.1271
3674	0.1267
3683	0.1263
3692	0.1259
3701	0.1255
3710	0.1252
3719	0.1251
3728	0.1248
3737	0.1246
3746	0.1243
3755	0.1241
3764	0.1238
3773	0.1235
3782	0.1233
3791	0.1229
3800	0.1228
3809	0.1228
3818	0.1228
3827	0.1228
3836	0.1229
3845	0.1229
3854	0.1227
3863	0.1226
3872	0.1225
3881	0.1224
3890	0.1222
3899	0.1221
3908	0.122
3917	0.1219
3926	0.1217
3935	0.1213
3944	0.1208
3953	0.1201
3962	0.119
3971	0.1179
3980	0.1169
3989	0.1159
3998	0.115
