Infrared Spectrum: 2-Amino-5-bromo-3-nitropyridine
Formula: C 5 H 4 Br N 3 O 2
CAS: 6945-68-2
State: gas
Origin: EPA-IR VAPOR PHASE LIBRARY
1/CM	ABSORBANCE
549.8	0.0005543
559.445	0.000109
569.09	0.000302
578.735	0
588.38	0.000388
598.025	0.000393
607.67	0.000245
617.315	0.000398
626.96	0.00047
636.605	0.000502
646.251	0.00031
655.896	0.000459
665.541	0.000445
675.186	0.000405
684.831	0.0006036
694.476	0.0007993
704.121	0.0015364
713.766	0.0011958
723.411	0.0005683
733.056	0.00072045
742.701	0.000449
752.346	0.000630837
761.991	0.0007525
771.636	0.0009515
781.281	0.0009331
790.926	0.0007836
800.571	0.0006101
810.216	0.0007619
819.861	0.0009179
829.507	0.0009211
839.152	0.000871
848.797	0.00070794
858.442	0.00062286
868.087	0.0005285
877.732	0.00064949
887.377	0.00068759
897.022	0.0008477
906.667	0.0010633
916.312	0.0011419
925.957	0.000897
935.602	0.0005794
945.247	0.0005944
954.892	0.0006132
964.537	0.00062019
974.182	0.000492
983.827	0.0005539
993.472	0.000448
1003.12	0.000472
1012.76	0.0006133
1022.41	0.0005356
1032.05	0.000523
1041.7	0.00064554
1051.34	0.000522
1060.99	0.00063652
1070.63	0.0006018
1080.28	0.0005852
1089.92	0.0005819
1099.57	0.0005473
1109.21	0.000312
1118.86	0.0005566
1128.5	0.0008686
1138.15	0.0009154
1147.79	0.000465
1157.44	0.000355
1167.08	0.000425
1176.73	0.000488
1186.37	0.000626363
1196.02	0.0010608
1205.66	0.0013239
1215.31	0.002255
1224.95	0.002625
1234.6	0.002355
1244.24	0.0016088
1253.89	0.0010032
1263.53	0.0007392
1273.18	0.0006821
1282.82	0.0007512
1292.47	0.00071524
1302.11	0.0008018
1311.76	0.0010826
1321.4	0.001745
1331.05	0.002105
1340.69	0.002635
1350.34	0.002785
1359.98	0.0012472
1369.63	0.0008597
1379.27	0.0009414
1388.92	0.0014973
1398.56	0.0014099
1408.21	0.0008286
1417.85	0.0008192
1427.5	0.0010809
1437.14	0.001905
1446.79	0.002665
1456.43	0.002155
1466.08	0.0013154
1475.73	0.0010289
1485.37	0.001117
1495.02	0.0011917
1504.66	0.001675
1514.31	0.002805
1523.95	0.003335
1533.6	0.002265
1543.24	0.002055
1552.89	0.002815
1562.53	0.003025
1572.18	0.001805
1581.82	0.0013284
1591.47	0.0015058
1601.11	0.002735
1610.76	0.006005
1620.4	0.007975
1630.05	0.004395
1639.69	0.001885
1649.34	0.001137
1658.98	0.0008703
1668.63	0.0008553
1678.27	0.0007578
1687.92	0.00070023
1697.56	0.0008233
1707.21	0.00067025
1716.85	0.0008087
1726.5	0.00068847
1736.14	0.0007112
1745.79	0.0006402
1755.43	0.00068083
1765.08	0.0006623
1774.72	0.00065283
1784.37	0.0005903
1794.01	0.00071159
1803.66	0.00067603
1813.3	0.00070309
1822.95	0.00068667
1832.59	0.00068503
1842.24	0.00070636
1851.88	0.00070898
1861.53	0.00071209
1871.17	0.0007498
1880.82	0.00065294
1890.46	0.00067476
1900.11	0.00070111
1909.75	0.0007155
1919.4	0.0007384
1929.04	0.0007125
1938.69	0.00070408
1948.33	0.00069966
1957.98	0.00069809
1967.62	0.00071944
1977.27	0.00070358
1986.91	0.00066924
1996.56	0.00068919
2006.2	0.00072292
2015.85	0.0007477
2025.49	0.00071195
2035.14	0.0007787
2044.78	0.00072394
2054.43	0.00072354
2064.07	0.0007309
2073.72	0.0007906
2083.36	0.0007448
2093.01	0.0007796
2102.65	0.00072046
2112.3	0.0007608
2121.94	0.0007766
2131.59	0.0008017
2141.23	0.0007306
2150.88	0.0007473
2160.52	0.0007433
2170.17	0.0007448
2179.81	0.0007779
2189.46	0.0007507
2199.1	0.0007353
2208.75	0.00071271
2218.39	0.0007754
2228.04	0.0008008
2237.68	0.0007825
2247.33	0.0008127
2256.97	0.0007739
2266.62	0.0008437
2276.26	0.000805
2285.91	0.0008355
2295.55	0.0008273
2305.2	0.0007824
2314.84	0.0007146
2324.49	0.0007951
2334.13	0.0008714
2343.78	0.0007758
2353.42	0.0008138
2363.07	0.0009085
2372.72	0.0008404
2382.36	0.0007496
2392.01	0.0008414
2401.65	0.0008586
2411.3	0.000859
2420.94	0.000912
2430.59	0.0008078
2440.23	0.0007731
2449.88	0.000849
2459.52	0.0008713
2469.17	0.0008753
2478.81	0.0008231
2488.46	0.0008027
2498.1	0.0007831
2507.75	0.000835
2517.39	0.0008619
2527.04	0.0008046
2536.68	0.0008198
2546.33	0.0008834
2555.97	0.000847
2565.62	0.000864
2575.26	0.0008359
2584.91	0.0008536
2594.55	0.0007688
2604.2	0.0008118
2613.84	0.0007651
2623.49	0.0007846
2633.13	0.00071785
2642.78	0.0008702
2652.42	0.0007852
2662.07	0.000764
2671.71	0.0008822
2681.36	0.0008526
2691	0.000811
2700.65	0.0008535
2710.29	0.0008969
2719.94	0.0008469
2729.58	0.0008181
2739.23	0.0009043
2748.87	0.0007832
2758.52	0.0008041
2768.16	0.0008149
2777.81	0.0008632
2787.45	0.000868
2797.1	0.0008993
2806.74	0.000881
2816.39	0.0008478
2826.03	0.0008884
2835.68	0.0008581
2845.32	0.0008839
2854.97	0.0008936
2864.61	0.0008606
2874.26	0.0007794
2883.9	0.0008105
2893.55	0.000932
2903.19	0.000841
2912.84	0.0008299
2922.48	0.0008972
2932.13	0.000788
2941.77	0.0007688
2951.42	0.00068389
2961.06	0.0008839
2970.71	0.0007561
2980.35	0.0007676
2990	0.0007414
2999.64	0.00070905
3009.29	0.00071622
3018.93	0.0007426
3028.58	0.00072051
3038.22	0.0009286
3047.87	0.0008356
3057.51	0.0008381
3067.16	0.0008507
3076.8	0.00081
3086.45	0.0007678
3096.09	0.0008887
3105.74	0.0007717
3115.38	0.0008471
3125.03	0.0007751
3134.67	0.00071237
3144.32	0.0008355
3153.96	0.0008073
3163.61	0.0008356
3173.25	0.00071392
3182.9	0.0007297
3192.54	0.00070768
3202.19	0.0005385
3211.83	0.0006028
3221.48	0.0007668
3231.12	0.000737
3240.77	0.000666
3250.41	0.0007644
3260.06	0.0008058
3269.7	0.0008521
3279.35	0.00066695
3289	0.0007364
3298.64	0.0005623
3308.29	0.0007332
3317.93	0.0007276
3327.58	0.00070665
3337.22	0.0005843
3346.87	0.00071418
3356.51	0.00067423
3366.16	0.00066717
3375.8	0.00065138
3385.45	0.00067568
3395.09	0.0008716
3404.74	0.0014945
3414.38	0.001965
3424.03	0.001915
3433.67	0.0008734
3443.32	0.0009198
3452.96	0.0005444
3462.61	0.00070568
3472.25	0.00071571
3481.9	0.0007011
3491.54	0.00071062
3501.19	0.0008303
3510.83	0.0009033
3520.48	0.001207
3530.12	0.001645
3539.77	0.0014763
3549.41	0.0013346
3559.06	0.0008599
3568.7	0.0008892
3578.35	0.0005598
3587.99	0.00068615
3597.64	0.0005781
3607.28	0.000625817
3616.93	0.0008572
3626.57	0.00068807
3636.22	0.00070573
3645.86	0.00066308
3655.51	0.0005886
3665.15	0.0005976
3674.8	0.000726
3684.44	0.0008072
3694.09	0.0007397
3703.73	0.00067885
3713.38	0.00068171
3723.02	0.00068942
3732.67	0.00065076
3742.31	0.0007771
3751.96	0.0007727
3761.6	0.0005975
3771.25	0.00061875
3780.89	0.0005891
3790.54	0.000482
3800.18	0.0007505
3809.83	0.00063957
3819.47	0.0008013
3829.12	0.0007433
3838.76	0.0007467
3848.41	0.00069619
3858.05	0.00066944
3867.7	0.0007259
3877.34	0.0007829
3886.99	0.0007832
3896.63	0.00061562
3906.28	0.0008444
3915.92	0.00070752
3925.57	0.0007876
3935.21	0.0007321
3944.86	0.0008546
3954.5	0.0007879
3964.15	0.0008907
3973.79	0.00070617
3983.44	0.0008215
3993.08	0.0007554
