Infrared Spectrum: 2-Iodo-4-methyl-6-nitrophenol
Formula: C 7 H 6 I N O 3
CAS: 69492-91-7
State: gas
Origin: EPA-IR VAPOR PHASE LIBRARY
1/CM	ABSORBANCE
549.8	0.0054914
559.445	0.0106014
569.09	0.0061714
578.734	0.0040814
588.379	0.0037714
598.024	0.0041114
607.669	0.0060814
617.313	0.0060514
626.958	0.0056814
636.603	0.0068714
646.248	0.0088014
655.893	0.0106914
665.537	0.0130014
675.182	0.0162814
684.827	0.0166114
694.472	0.0144914
704.116	0.0121314
713.761	0.0143814
723.406	0.0345614
733.051	0.0240214
742.695	0.0072414
752.34	0.0088314
761.985	0.0196314
771.63	0.0157914
781.275	0.0164714
790.919	0.0114414
800.564	0.0041814
810.209	0.0017714
819.854	0.0017814
829.498	0.0023714
839.143	0.0050014
848.788	0.0052914
858.433	0.0069414
868.078	0.0140114
877.722	0.0065914
887.367	0.0023014
897.012	0.0023214
906.657	0.0031714
916.301	0.0051414
925.946	0.0115214
935.591	0.0180814
945.236	0.0074314
954.88	0.0022014
964.525	0.0015214
974.17	0.0019214
983.815	0.0023214
993.46	0.0030814
1003.1	0.0037414
1012.75	0.0030914
1022.39	0.0027114
1032.04	0.0022614
1041.68	0.0039514
1051.33	0.0053414
1060.97	0.0061014
1070.62	0.0097914
1080.26	0.0269814
1089.91	0.0278814
1099.55	0.0095714
1109.2	0.0078314
1118.84	0.0089014
1128.49	0.0089014
1138.13	0.0119014
1147.78	0.0214614
1157.42	0.0282514
1167.07	0.0315814
1176.71	0.0233814
1186.36	0.0131014
1196	0.0117814
1205.64	0.0159814
1215.29	0.0279214
1224.93	0.0294714
1234.58	0.0301214
1244.22	0.0688214
1253.87	0.0796314
1263.51	0.0581314
1273.16	0.0393714
1282.8	0.0256814
1292.45	0.0266014
1302.09	0.0465014
1311.74	0.0679814
1321.38	0.0822414
1331.03	0.0766514
1340.67	0.0718014
1350.32	0.0635614
1359.96	0.0417714
1369.61	0.0248414
1379.25	0.0200814
1388.9	0.0258014
1398.54	0.0424814
1408.18	0.0604914
1417.83	0.0555214
1427.47	0.0363914
1437.12	0.0250014
1446.76	0.0287514
1456.41	0.0504614
1466.05	0.0675114
1475.7	0.0429714
1485.34	0.0172014
1494.99	0.0133514
1504.63	0.0131514
1514.28	0.0161714
1523.92	0.0241414
1533.57	0.0468514
1543.21	0.106441
1552.86	0.118421
1562.5	0.0551514
1572.15	0.0234314
1581.79	0.0138514
1591.44	0.0126514
1601.08	0.0154314
1610.73	0.0187814
1620.37	0.0203414
1630.01	0.0120114
1639.66	0.0046314
1649.3	0.0033414
1658.95	0.0033814
1668.59	0.0033814
1678.24	0.0028314
1687.88	0.0019214
1697.53	0.0013214
1707.17	0.0012414
1716.82	0.0014414
1726.46	0.0015814
1736.11	0.0014714
1745.75	0.0013914
1755.4	0.0017414
1765.04	0.0032714
1774.69	0.0045414
1784.33	0.0026714
1793.98	0.0013414
1803.62	0.0012814
1813.27	0.0015914
1822.91	0.0012914
1832.55	0.0008488
1842.2	0.0005721
1851.84	0.0005207
1861.49	0.0006774
1871.13	0.0006687
1880.78	0.0006291
1890.42	0.0004858
1900.07	0.0004901
1909.71	0.0005081
1919.36	0.0005793
1929	0.000602
1938.65	0.0005531
1948.29	0.0005491
1957.94	0.0005526
1967.58	0.0005783
1977.23	0.0005197
1986.87	0.0004981
1996.52	0.0005481
2006.16	0.0005645
2015.81	0.0006423
2025.45	0.0006476
2035.1	0.0005881
2044.74	0.0005493
2054.38	0.0004343
2064.03	0.000504
2073.67	0.0005055
2083.32	0.0005654
2092.96	0.0005566
2102.61	0.0004897
2112.25	0.0003823
2121.9	0.000341
2131.54	0.000339
2141.19	0.0002899
2150.83	0.0004085
2160.48	0.0004364
2170.12	0.0005295
2179.77	0.0005412
2189.41	0.0004818
2199.06	0.0005293
2208.7	0.0005505
2218.35	0.0005137
2227.99	0.0005759
2237.64	0.0007632
2247.28	0.0008093
2256.92	0.00083
2266.57	0.0006148
2276.21	0.0005956
2285.86	0.0006828
2295.5	0.0008005
2305.15	0.0007527
2314.79	0.0007182
2324.44	0.0007474
2334.08	0.000879
2343.73	0.0007825
2353.37	0.000746
2363.02	0.0007703
2372.66	0.0007296
2382.31	0.0009355
2391.95	0.0012514
2401.6	0.0010888
2411.24	0.0011414
2420.89	0.0010431
2430.53	0.0009808
2440.18	0.0009436
2449.82	0.0008624
2459.47	0.0009244
2469.11	0.0010288
2478.75	0.0011414
2488.4	0.0011514
2498.04	0.0010317
2507.69	0.0011514
2517.33	0.0011514
2526.98	0.0012514
2536.62	0.0016114
2546.27	0.0018714
2555.91	0.0017214
2565.56	0.0015014
2575.2	0.0014114
2584.85	0.0014814
2594.49	0.0014614
2604.14	0.0015914
2613.78	0.0016514
2623.43	0.0016114
2633.07	0.0015914
2642.72	0.0014014
2652.36	0.0014114
2662.01	0.0012914
2671.65	0.0012114
2681.29	0.0012214
2690.94	0.0012814
2700.58	0.0015214
2710.23	0.0016014
2719.87	0.0016714
2729.52	0.0014614
2739.16	0.0016214
2748.81	0.0020814
2758.45	0.0023214
2768.1	0.0020914
2777.74	0.0021914
2787.39	0.0022814
2797.03	0.0023514
2806.68	0.0026114
2816.32	0.0026314
2825.97	0.0026114
2835.61	0.0028514
2845.26	0.0033714
2854.9	0.0044914
2864.55	0.0058314
2874.19	0.0072514
2883.84	0.0072314
2893.48	0.0065214
2903.12	0.0067114
2912.77	0.0074414
2922.41	0.0091514
2932.06	0.0130914
2941.7	0.0136514
2951.35	0.0084114
2960.99	0.0059314
2970.64	0.0052214
2980.28	0.0046414
2989.93	0.0045014
2999.57	0.0043514
3009.22	0.0047214
3018.86	0.0053314
3028.51	0.0051214
3038.15	0.0045814
3047.8	0.0047414
3057.44	0.0044714
3067.09	0.0039214
3076.73	0.0043314
3086.38	0.0042514
3096.02	0.0032514
3105.67	0.0031414
3115.31	0.0034714
3124.95	0.0039414
3134.6	0.0044114
3144.24	0.0051614
3153.89	0.0061214
3163.53	0.0075914
3173.18	0.0094614
3182.82	0.0115014
3192.47	0.0139814
3202.11	0.0161514
3211.76	0.0174614
3221.4	0.0181814
3231.05	0.0188014
3240.69	0.0186614
3250.34	0.0179014
3259.98	0.0171814
3269.63	0.0159314
3279.27	0.0151414
3288.92	0.0144514
3298.56	0.0138114
3308.21	0.0136114
3317.85	0.0128714
3327.49	0.0123314
3337.14	0.0115214
3346.78	0.0105914
3356.43	0.0100314
3366.07	0.0092514
3375.72	0.0085314
3385.36	0.0076414
3395.01	0.0072514
3404.65	0.0067114
3414.3	0.0063914
3423.94	0.0059614
3433.59	0.0055614
3443.23	0.0051714
3452.88	0.0049514
3462.52	0.0047214
3472.17	0.0045514
3481.81	0.0041814
3491.46	0.0040114
3501.1	0.0037414
3510.75	0.0042814
3520.39	0.0043314
3530.04	0.0034514
3539.68	0.0030514
3549.32	0.0027714
3558.97	0.0023814
3568.61	0.0022014
3578.26	0.0021614
3587.9	0.0015814
3597.55	0.0015814
3607.19	0.0012814
3616.84	0.0010705
3626.48	0.0009541
3636.13	0.000784
3645.77	0.0007707
3655.42	0.0006315
3665.06	0.0004374
3674.71	0.0005721
3684.35	0.0005725
3694	0.0003369
3703.64	0.000401
3713.29	0.0002694
3722.93	0.00014263
3732.58	0.00015554
3742.22	0.0003671
3751.86	0.0002678
3761.51	0.0003058
3771.15	0.0003253
3780.8	0.000205
3790.44	0.0002819
3800.09	0.0003164
3809.73	0.00010885
3819.38	0.0002825
3829.02	7.24e-05
3838.67	9.1237e-05
3848.31	0.000251
3857.96	0.00018659
3867.6	0.0002038
3877.25	6.94e-05
3886.89	0.0002536
3896.54	0.0002541
3906.18	0.0004281
3915.83	0.0003862
3925.47	0.0003198
3935.12	0.0002461
3944.76	0.0002737
3954.41	0.0001921
3964.05	0.0003858
3973.69	8.876e-05
3983.34	0.0002847
3992.98	0.000442
