Infrared Spectrum: 1,3-Dimethylpiperidine
Formula: C7 H15 N
CAS: 695-35-2
State: SOLUTION (10% CCl4 FOR 3800-1330, 10% CS2 FOR 1330-400 CM^-^1)
Class: COBLENTZ III
Instrument: DOW KBr FOREPRISM-GRATING
Instrument parameters: BLAZED AT 3.5, 12.0, 20.0 MICRON AND CHANGED AT 5.0, 7.5, 14.9 MICRON
Sampling: TRANSMISSION
Path length: 0.011 CM, 0.011 CM
Resolution: 2
Origin: DOW CHEMICAL COMPANY
1/CM	TRANSMITTANCE
3800	0.9107
3791	0.9122
3782	0.9088
3773	0.9074
3764	0.9061
3755	0.9056
3746	0.9066
3737	0.9084
3728	0.9093
3719	0.9093
3710	0.9063
3701	0.8958
3692	0.886
3683	0.8931
3674	0.9028
3665	0.9043
3656	0.9025
3647	0.8897
3638	0.8878
3629	0.8917
3620	0.8974
3611	0.9003
3602	0.9008
3593	0.9009
3584	0.8989
3575	0.8944
3566	0.8896
3557	0.8842
3548	0.8799
3539	0.8743
3530	0.8696
3521	0.8633
3512	0.8581
3503	0.8522
3494	0.8463
3485	0.8406
3476	0.8355
3467	0.8303
3458	0.8251
3449	0.82
3440	0.816
3431	0.812
3422	0.8081
3413	0.8058
3404	0.8034
3395	0.8019
3386	0.8012
3377	0.8002
3368	0.8
3359	0.7997
3350	0.7995
3341	0.7993
3332	0.7992
3323	0.799
3314	0.7989
3305	0.7998
3296	0.7987
3287	0.7971
3278	0.7953
3269	0.7928
3260	0.7904
3251	0.7879
3242	0.7858
3233	0.7838
3224	0.7821
3215	0.781
3206	0.7792
3197	0.7807
3188	0.7831
3179	0.7878
3170	0.7927
3161	0.7979
3152	0.8027
3143	0.8063
3134	0.8117
3125	0.816
3116	0.8204
3107	0.8249
3098	0.8303
3089	0.8352
3080	0.8371
3071	0.8412
3062	0.8397
3053	0.8386
3044	0.8339
3035	0.8232
3026	0.8058
3017	0.7928
3008	0.7496
2999	0.6518
2990	0.5018
2981	0.2745
2972	0.112
2963	0.0499
2954	0.0334
2945	0.0276
2936	0.0237
2927	0.0212
2918	0.0396
2909	0.0561
2900	0.0855
2891	0.1108
2882	0.125
2873	0.1522
2864	0.1998
2855	0.132
2846	0.1535
2837	0.3302
2828	0.429
2819	0.4369
2810	0.3468
2801	0.2328
2792	0.1184
2783	0.0484
2774	0.0374
2765	0.0929
2756	0.2092
2747	0.2336
2738	0.2809
2729	0.32
2720	0.2532
2711	0.2754
2702	0.456
2693	0.4764
2684	0.4981
2675	0.5836
2666	0.6146
2657	0.6445
2648	0.702
2639	0.6578
2630	0.6661
2621	0.7099
2612	0.7743
2603	0.7877
2594	0.7972
2585	0.8066
2576	0.8158
2567	0.8236
2558	0.8281
2549	0.8316
2540	0.8353
2531	0.8326
2522	0.8299
2513	0.8321
2504	0.8369
2495	0.8428
2486	0.8493
2477	0.8573
2468	0.8649
2459	0.8726
2450	0.876
2441	0.8758
2432	0.8745
2423	0.8772
2414	0.8801
2405	0.884
2396	0.8859
2387	0.888
2378	0.891
2369	0.8906
2360	0.8847
2351	0.8626
2342	0.8672
2333	0.8754
2324	0.8873
2315	0.8919
2306	0.8918
2297	0.8932
2288	0.8975
2279	0.9037
2270	0.9068
2261	0.9096
2252	0.9113
2243	0.9116
2234	0.9114
2225	0.9106
2216	0.9106
2207	0.9123
2198	0.9142
2189	0.9148
2180	0.9158
2171	0.9179
2162	0.9177
2153	0.918
2144	0.9186
2135	0.9192
2126	0.9201
2117	0.921
2108	0.9219
2099	0.923
2090	0.9239
2081	0.9241
2072	0.9244
2063	0.9253
2054	0.9279
2045	0.9285
2036	0.9303
2027	0.932
2018	0.9299
2009	0.9216
2000	0.9308
1991	0.9346
1982	0.9371
1973	0.9412
1964	0.9589
1955	0.9556
1946	0.949
1937	0.9479
1928	0.947
1919	0.9464
1910	0.9477
1901	0.952
1892	0.954
1883	0.9552
1874	0.9528
1865	0.9476
1856	0.947
1847	0.9466
1838	0.9469
1829	0.9475
1820	0.9486
1811	0.9505
1802	0.9489
1793	0.9506
1784	0.9524
1775	0.9474
1766	0.9441
1757	0.9337
1748	0.9077
1739	0.8903
1730	0.9061
1721	0.9218
1712	0.932
1703	0.9131
1694	0.9208
1685	0.8919
1676	0.9031
1667	0.9141
1658	0.9135
1649	0.9069
1640	0.9158
1631	0.9096
1622	0.908
1613	0.9108
1604	0.8885
1595	0.8557
1586	0.8375
1577	0.8288
1568	0.7924
1559	0.7035
1550	0.7331
1541	0.7834
1532	0.8275
1523	0.8294
1514	0.8412
1505	0.8562
1496	0.8471
1487	0.7436
1478	0.5852
1469	0.1033
1460	0.2052
1451	0.177
1442	0.2381
1433	0.6998
1424	0.7458
1415	0.809
1406	0.8105
1397	0.7962
1388	0.6527
1379	0.4832
1370	0.5775
1361	0.8001
1352	0.7325
1343	0.8109
1334	0.8223
1325	0.8157
1316	0.7419
1307	0.7637
1298	0.6173
1289	0.2918
1280	0.5169
1271	0.3661
1262	0.6361
1253	0.4608
1244	0.7986
1235	0.8417
1226	0.8544
1217	0.554
1208	0.776
1199	0.8025
1190	0.8438
1181	0.817
1172	0.2812
1163	0.5343
1154	0.4985
1145	0.1187
1136	0.3829
1127	0.6736
1118	0.7795
1109	0.6244
1100	0.5263
1091	0.7616
1082	0.4926
1073	0.7337
1064	0.2918
1055	0.6958
1046	0.7818
1037	0.8212
1028	0.7222
1019	0.6302
1010	0.8653
1001	0.8677
992	0.8384
983	0.7745
974	0.3886
965	0.7456
956	0.8049
947	0.8645
938	0.9088
929	0.9278
920	0.9325
911	0.9287
902	0.8945
893	0.5702
884	0.8618
875	0.8655
866	0.8325
857	0.7243
848	0.813
839	0.3924
830	0.8509
821	0.9049
812	0.8729
803	0.9289
794	0.9319
785	0.8984
776	0.468
767	0.8912
758	0.9245
749	0.9193
740	0.9428
731	0.9428
722	0.9462
713	0.9463
704	0.9465
695	0.9509
686	0.9547
677	0.963
668	0.9796
659	0.9631
650	0.9241
641	0.9263
632	0.9454
623	0.9552
614	0.9615
605	0.9649
596	0.9688
587	0.9717
578	0.9727
569	0.9722
560	0.9025
551	0.9397
542	0.9543
533	0.9584
524	0.9612
515	0.965
506	0.97
497	0.9755
488	0.981
479	0.9856
470	0.9876
461	0.9798
452	0.9706
443	0.9246
434	0.8476
425	0.8392
416	0.7727
407	0.64
398	0.4338
389	0.3516
