Infrared Spectrum: TRICYCLO[2.2.1.0^2^,^6]-HEPTANE, 3-BROMO-
Formula: C7 H9 Br
CAS: 695-02-3
State: SOLUTION (10% CCl4 FOR 4000-1320, 10% CS2 FOR 1320-450 CM^-^1) VS SOLVENT
Class: COBLENTZ III
Instrument: CARY 90 (GRATING)
Instrument parameters: ORDER CHANGES: 3000, 2000, 1200 CM^-^1
Sampling: TRANSMISSION
Path length: 0.010 CM, AND 0.010 CM
Resolution: 2
Origin: DOW CHEMICAL COMPANY
1/CM	TRANSMITTANCE
3800	0.9289
3791	0.9287
3782	0.9285
3773	0.9282
3764	0.928
3755	0.9277
3746	0.9278
3737	0.9278
3728	0.9278
3719	0.9278
3710	0.9278
3701	0.9278
3692	0.9278
3683	0.9278
3674	0.928
3665	0.9275
3656	0.9268
3647	0.926
3638	0.9246
3629	0.9232
3620	0.9214
3611	0.9197
3602	0.9197
3593	0.9235
3584	0.9264
3575	0.9268
3566	0.9266
3557	0.9243
3548	0.923
3539	0.9224
3530	0.9218
3521	0.9261
3512	0.9292
3503	0.9303
3494	0.9306
3485	0.929
3476	0.9265
3467	0.9237
3458	0.9207
3449	0.9177
3440	0.9165
3431	0.9154
3422	0.9142
3413	0.9141
3404	0.9149
3395	0.9156
3386	0.9168
3377	0.9182
3368	0.9195
3359	0.9207
3350	0.9221
3341	0.9234
3332	0.9246
3323	0.9249
3314	0.9254
3305	0.9257
3296	0.9258
3287	0.925
3278	0.9243
3269	0.9235
3260	0.9227
3251	0.9223
3242	0.9218
3233	0.9214
3224	0.9211
3215	0.9208
3206	0.9206
3197	0.9205
3188	0.9206
3179	0.9206
3170	0.9197
3161	0.9187
3152	0.9177
3143	0.9156
3134	0.9135
3125	0.9101
3116	0.9057
3107	0.8825
3098	0.7915
3089	0.6989
3080	0.6618
3071	0.6836
3062	0.7718
3053	0.8564
3044	0.8758
3035	0.863
3026	0.8261
3017	0.6865
3008	0.5746
2999	0.6392
2990	0.6696
2981	0.5073
2972	0.3732
2963	0.353
2954	0.2373
2945	0.3386
2936	0.5144
2927	0.6901
2918	0.6374
2909	0.7061
2900	0.8105
2891	0.6946
2882	0.423
2873	0.4269
2864	0.7774
2855	0.8631
2846	0.8943
2837	0.91
2828	0.9171
2819	0.9215
2810	0.9232
2801	0.925
2792	0.9261
2783	0.927
2774	0.928
2765	0.9289
2756	0.9299
2747	0.9302
2738	0.9305
2729	0.9308
2720	0.9311
2711	0.9313
2702	0.9317
2693	0.9317
2684	0.9316
2675	0.9315
2666	0.9314
2657	0.9313
2648	0.9312
2639	0.9314
2630	0.9317
2621	0.9318
2612	0.9321
2603	0.9324
2594	0.9325
2585	0.9325
2576	0.9328
2567	0.9328
2558	0.933
2549	0.9332
2540	0.9334
2531	0.9337
2522	0.934
2513	0.9342
2504	0.9347
2495	0.9352
2486	0.9335
2477	0.9312
2468	0.9331
2459	0.9348
2450	0.9361
2441	0.9332
2432	0.932
2423	0.9314
2414	0.9324
2405	0.9333
2396	0.9335
2387	0.9331
2378	0.9328
2369	0.9328
2360	0.9327
2351	0.9331
2342	0.9336
2333	0.9339
2324	0.9344
2315	0.9347
2306	0.9351
2297	0.9354
2288	0.9358
2279	0.9361
2270	0.9364
2261	0.937
2252	0.9377
2243	0.9371
2234	0.9367
2225	0.9368
2216	0.9368
2207	0.938
2198	0.9391
2189	0.9396
2180	0.9402
2171	0.9403
2162	0.9397
2153	0.9388
2144	0.9373
2135	0.9362
2126	0.9371
2117	0.9382
2108	0.9395
2099	0.9403
2090	0.9404
2081	0.9405
2072	0.94
2063	0.9395
2054	0.9391
2045	0.9366
2036	0.9332
2027	0.9313
2018	0.9368
2009	0.9428
2000	0.9228
1991	0.9057
1982	0.9146
1973	0.9209
1964	0.9213
1955	0.9196
1946	0.9133
1937	0.9081
1928	0.908
1919	0.9096
1910	0.9116
1901	0.914
1892	0.9168
1883	0.9158
1874	0.9078
1865	0.9167
1856	0.9073
1847	0.9083
1838	0.9146
1829	0.9157
1820	0.9082
1811	0.9027
1802	0.9006
1793	0.899
1784	0.8954
1775	0.8917
1766	0.8871
1757	0.8828
1748	0.8737
1739	0.7935
1730	0.826
1721	0.8582
1712	0.8867
1703	0.894
1694	0.8956
1685	0.9061
1676	0.912
1667	0.912
1658	0.9091
1649	0.9075
1640	0.9085
1631	0.9036
1622	0.8942
1613	0.8923
1604	0.8953
1595	0.8955
1586	0.8877
1577	0.8838
1568	0.8856
1559	0.8834
1550	0.8789
1541	0.8859
1532	0.901
1523	0.9095
1514	0.9092
1505	0.9139
1496	0.9161
1487	0.9139
1478	0.8957
1469	0.8297
1460	0.7699
1451	0.7788
1442	0.7858
1433	0.8871
1424	0.9089
1415	0.9171
1406	0.9218
1397	0.9241
1388	0.9234
1379	0.9202
1370	0.9136
1361	0.8968
1352	0.7745
1343	0.8212
1334	0.8624
1325	0.8737
1316	0.5609
1307	0.4602
1298	0.4099
1289	0.7244
1280	0.8416
1271	0.8454
1262	0.7167
1253	0.6825
1244	0.6325
1235	0.7095
1226	0.635
1217	0.2346
1208	0.3352
1199	0.7004
1190	0.7618
1181	0.8064
1172	0.4408
1163	0.6451
1154	0.8328
1145	0.8373
1136	0.7626
1127	0.7707
1118	0.8297
1109	0.8596
1100	0.8748
1091	0.8501
1082	0.8525
1073	0.8241
1064	0.7478
1055	0.5989
1046	0.8054
1037	0.8283
1028	0.8428
1019	0.8368
1010	0.8217
1001	0.8546
992	0.8698
983	0.8596
974	0.8365
965	0.8262
956	0.4865
947	0.843
938	0.8592
929	0.6845
920	0.7158
911	0.6208
902	0.6122
893	0.7197
884	0.7525
875	0.808
866	0.8751
857	0.8753
848	0.8854
839	0.8744
830	0.8235
821	0.7461
812	0.1479
803	0.1246
794	0.4834
785	0.7628
776	0.8632
767	0.8551
758	0.8411
749	0.8425
740	0.2084
731	0.2933
722	0.5836
713	0.7876
704	0.7872
695	0.9277
686	0.8999
677	0.592
668	0.9303
659	0.9384
650	0.9403
641	0.7358
632	0.9616
623	0.9707
614	0.9785
605	0.9936
596	0.9883
587	0.9958
578	1.0054
569	1.007
560	1.0065
551	1.0043
542	1.0017
533	0.9984
524	0.9948
515	0.9908
506	0.9868
