Infrared Spectrum: 5,5-DIMETHYLOXAZOLIDINE-2,4-DIONE
Formula: C5 H7 N O3
CAS: 695-53-4
State: SOLUTION (7% CHCl3)
Class: COBLENTZ
Instrument: Not specified, most likely a prism, grating, or hybrid spectrometer.
Sampling: TRANSMISSION
Path length: 0.009 CM
Resolution: 4
MICROMETERS	TRANSMITTANCE
2.068	0.944
2.10442	0.946
2.14084	0.942
2.17726	0.938
2.21368	0.933
2.2501	0.935
2.28653	0.931
2.32295	0.926
2.35937	0.926
2.39579	0.913
2.43221	0.92
2.46863	0.924
2.50505	0.926
2.54147	0.922
2.57789	0.926
2.61431	0.931
2.65073	0.929
2.68715	0.933
2.72358	0.92
2.76	0.928
2.79642	0.895
2.83284	0.829
2.86926	0.803
2.90568	0.798
2.9421	0.627
2.97852	0.683
3.01494	0.6
3.05136	0.505
3.08778	0.442
3.1242	0.413
3.16063	0.446
3.19705	0.496
3.23347	0.537
3.26989	0.508
3.30631	0.5
3.34273	0.523
3.37915	0.588
3.41557	0.699
3.45199	0.755
3.48841	0.789
3.52483	0.816
3.56125	0.821
3.59768	0.803
3.6341	0.775
3.67052	0.758
3.70694	0.771
3.74336	0.816
3.77978	0.848
3.8162	0.861
3.85262	0.87
3.88904	0.874
3.92546	0.874
3.96188	0.875
3.9983	0.877
4.03473	0.87
4.07115	0.859
4.10757	0.856
4.14399	0.852
4.18041	0.854
4.21683	0.861
4.25325	0.875
4.28967	0.899
4.32609	0.901
4.36251	0.886
4.39893	0.883
4.43535	0.89
4.47178	0.897
4.5082	0.897
4.54462	0.895
4.58104	0.897
4.61746	0.897
4.65388	0.897
4.6903	0.895
4.72672	0.892
4.76314	0.89
4.79956	0.89
4.83598	0.897
4.8724	0.888
4.90883	0.881
4.94525	0.87
4.98167	0.857
5.01809	0.857
5.05451	0.847
5.09093	0.829
5.12735	0.811
5.16377	0.816
5.20019	0.827
5.23661	0.816
5.27303	0.794
5.30945	0.798
5.34588	0.785
5.3823	0.741
5.41872	0.688
5.45514	0.57
5.49156	0.251
5.52798	0.052
5.5644	0.167
5.60082	0.348
5.63724	0.201
5.67366	0.014
5.71008	0.005
5.7465	0.007
5.78293	0.01
5.81935	0.158
5.85577	0.384
5.89219	0.643
5.92861	0.735
5.96503	0.764
6.00145	0.771
6.03787	0.775
6.07429	0.787
6.11071	0.798
6.14713	0.805
6.18355	0.807
6.21998	0.807
6.2564	0.816
6.29282	0.814
6.32924	0.818
6.36566	0.823
6.40208	0.827
6.4385	0.807
6.47492	0.798
6.51134	0.798
6.54776	0.764
6.58418	0.735
6.6206	0.751
6.65703	0.771
6.69345	0.782
6.72987	0.798
6.76629	0.791
6.80271	0.793
6.83913	0.665
6.87555	0.48
6.91197	0.688
6.94839	0.701
6.98481	0.676
7.02123	0.714
7.05765	0.715
7.09408	0.692
7.1305	0.606
7.16692	0.426
7.20334	0.17
7.23976	0.19
7.27618	0.368
7.3126	0.187
7.34902	0.131
7.38544	0.134
7.42186	0.174
7.45828	0.293
7.4947	0.42
7.53113	0.483
7.56755	0.519
7.60397	0.517
7.64039	0.568
7.67681	0.598
7.71323	0.593
7.74965	0.465
7.78607	0.224
7.82249	0.122
7.85891	0.233
7.89533	0.462
7.93175	0.571
7.96818	0.647
8.0046	0.687
8.04102	0.694
8.07744	0.66
8.11386	0.575
8.15028	0.501
8.1867	0.483
8.22312	0.507
8.25954	0.544
8.29596	0.577
8.33238	0.526
8.3688	0.303
8.40523	0.151
8.44165	0.098
8.47807	0.091
8.51449	0.257
8.55091	0.386
8.58733	0.568
8.62375	0.651
8.66017	0.694
8.69659	0.742
8.73301	0.769
8.76943	0.778
8.80586	0.782
8.84228	0.789
8.8787	0.793
8.91512	0.794
8.95154	0.782
8.98796	0.742
9.02438	0.669
9.0608	0.552
9.09722	0.525
9.13364	0.566
9.17006	0.591
9.20648	0.721
9.24291	0.767
9.27933	0.794
9.31575	0.812
9.35217	0.814
9.38859	0.823
9.42501	0.839
9.46143	0.854
9.49785	0.852
9.53427	0.823
9.57069	0.796
9.60711	0.757
9.64353	0.758
9.67996	0.766
9.71638	0.746
9.7528	0.613
9.78922	0.491
9.82564	0.325
9.86206	0.25
9.89848	0.192
9.9349	0.134
9.97132	0.156
10.0077	0.39
10.0442	0.597
10.0806	0.714
10.117	0.766
10.1534	0.791
10.1898	0.811
10.2263	0.814
10.2627	0.811
10.2991	0.811
10.3355	0.802
10.372	0.782
10.4084	0.732
10.4448	0.586
10.4812	0.498
10.5176	0.525
10.5541	0.624
10.5905	0.715
10.6269	0.769
10.6633	0.791
10.6997	0.816
10.7362	0.823
10.7726	0.827
10.809	0.823
10.8454	0.83
10.8818	0.836
10.9183	0.836
10.9547	0.834
10.9911	0.82
11.0275	0.791
11.0639	0.746
11.1004	0.715
11.1368	0.733
11.1732	0.76
11.2096	0.782
11.2461	0.796
11.2825	0.803
11.3189	0.807
11.3553	0.805
11.3917	0.798
11.4282	0.798
11.4646	0.807
11.501	0.816
11.5374	0.814
11.5738	0.809
11.6103	0.814
11.6467	0.809
11.6831	0.809
11.7195	0.812
11.7559	0.809
11.7924	0.807
11.8288	0.8
11.8652	0.796
11.9016	0.798
11.938	0.8
11.9745	0.791
12.0109	0.782
12.0473	0.775
12.0837	0.769
12.1202	0.767
12.1566	0.764
12.193	0.757
12.2294	0.75
12.2658	0.739
12.3023	0.726
12.3387	0.724
12.3751	0.715
12.4115	0.706
12.4479	0.694
12.4844	0.697
12.5208	0.703
12.5572	0.71
12.5936	0.721
12.63	0.739
12.6665	0.757
12.7029	0.782
12.7393	0.821
12.7757	0.854
12.8121	0.883
12.8486	0.929
12.885	0.982
12.9214	1
12.9578	0.998
12.9943	0.998
13.0307	0.998
13.0671	0.998
13.1035	1
13.1399	1
13.1764	1
13.2128	1
13.2492	1
13.2856	1
13.322	1
13.3585	1
13.3949	1
13.4313	0.998
13.4677	0.996
13.5041	0.998
13.5406	0.998
13.577	0.998
13.6134	0.998
13.6498	0.998
13.6862	0.998
13.7227	0.996
13.7591	0.98
13.7955	0.935
13.8319	0.883
13.8684	0.82
13.9048	0.776
13.9412	0.708
13.9776	0.67
14.014	0.658
14.0505	0.651
14.0869	0.654
14.1233	0.654
14.1597	0.652
14.1961	0.652
14.2326	0.652
14.269	0.658
14.3054	0.654
14.3418	0.654
14.3782	0.661
14.4147	0.672
14.4511	0.679
14.4875	0.681
14.5239	0.692
14.5603	0.694
14.5968	0.692
14.6332	0.699
14.6696	0.699
14.706	0.696
14.7425	0.71
14.7789	0.717
14.8153	0.732
14.8517	0.742
14.8881	0.75
14.9246	0.769
14.961	0.782
14.9974	0.764
15.0338	0.701
15.0702	0.687
15.1067	0.694
15.1431	0.694
15.1795	0.685
15.2159	0.661
15.2523	0.613
15.2888	0.571
15.3252	0.53
15.3616	0.53
15.398	0.559
15.4344	0.552
