Infrared Spectrum: 2-AMINO-4-METHYL PYRIDINE
Formula: C6 H8 N2
CAS: 695-34-1
State: SOLID (MINERAL OIL MULL)
Class: COBLENTZ
Instrument: Not specified, most likely a prism, grating, or hybrid spectrometer.
Sampling: TRANSMISSION
Resolution: 4
Origin: WYANDOTTE CHEMICALS CORP., WYANDOTTE, MICHIGAN, USA
MICROMETERS	TRANSMITTANCE
2.02	0.36
2.06078	0.377
2.10155	0.386
2.14233	0.392
2.18311	0.394
2.22388	0.391
2.26466	0.397
2.30544	0.404
2.34621	0.418
2.38699	0.426
2.42777	0.445
2.46854	0.45
2.50932	0.459
2.5501	0.465
2.59087	0.481
2.63165	0.486
2.67243	0.517
2.7132	0.525
2.75398	0.539
2.79476	0.557
2.83553	0.576
2.87631	0.576
2.91709	0.397
2.95786	0.212
2.99864	0.377
3.03942	0.418
3.08019	0.423
3.12097	0.448
3.16175	0.348
3.20252	0.272
3.2433	0.292
3.28408	0.287
3.32485	0.234
3.36563	0.037
3.40641	0.027
3.44718	0.028
3.48796	0.052
3.52874	0.124
3.56951	0.472
3.61029	0.517
3.65107	0.549
3.69184	0.53
3.73262	0.535
3.7734	0.561
3.81417	0.576
3.85495	0.579
3.89573	0.602
3.9365	0.629
3.97728	0.634
4.01806	0.649
4.05883	0.656
4.09961	0.664
4.14039	0.666
4.18116	0.671
4.22194	0.673
4.26272	0.666
4.30349	0.673
4.34427	0.688
4.38505	0.714
4.42582	0.727
4.4666	0.727
4.50738	0.732
4.54815	0.736
4.58893	0.739
4.62971	0.738
4.67048	0.748
4.71126	0.767
4.75204	0.768
4.79281	0.767
4.83359	0.77
4.87436	0.778
4.91514	0.789
4.95592	0.797
4.99669	0.807
5.03747	0.819
5.07825	0.821
5.11902	0.831
5.1598	0.838
5.20058	0.838
5.24135	0.848
5.28213	0.814
5.32291	0.85
5.36368	0.86
5.40446	0.872
5.44524	0.88
5.48601	0.892
5.52679	0.904
5.56757	0.916
5.60834	0.914
5.64912	0.925
5.6899	0.931
5.73067	0.896
5.77145	0.931
5.81223	0.913
5.853	0.908
5.89378	0.938
5.93456	0.925
5.97533	0.858
6.01611	0.574
6.05689	0.267
6.09766	0.357
6.13844	0.493
6.17922	0.324
6.21999	0.588
6.26077	0.675
6.30155	0.615
6.34232	0.53
6.3831	0.29
6.42388	0.365
6.46465	0.51
6.50543	0.549
6.54621	0.6
6.58698	0.607
6.62776	0.559
6.66854	0.454
6.70931	0.5
6.75009	0.414
6.79087	0.113
6.83164	0.1
6.87242	0.1
6.9132	0.166
6.95397	0.304
6.99475	0.457
7.03553	0.598
7.0763	0.651
7.11708	0.675
7.15786	0.685
7.19863	0.617
7.23941	0.44
7.28019	0.392
7.32096	0.547
7.36174	0.673
7.40252	0.685
7.44329	0.688
7.48407	0.681
7.52485	0.777
7.56562	0.811
7.6064	0.69
7.64718	0.506
7.68795	0.685
7.72873	0.75
7.76951	0.775
7.81028	0.755
7.85106	0.588
7.89184	0.561
7.93261	0.7
7.97339	0.76
8.01417	0.78
8.05494	0.773
8.09572	0.78
8.1365	0.823
8.17727	0.848
8.21805	0.855
8.25883	0.857
8.2996	0.87
8.34038	0.887
8.38116	0.897
8.42193	0.899
8.46271	0.76
8.50349	0.761
8.54426	0.857
8.58504	0.875
8.62582	0.892
8.66659	0.904
8.70737	0.913
8.74815	0.93
8.78892	0.937
8.8297	0.943
8.87048	0.93
8.91125	0.938
8.95203	0.938
8.99281	0.94
9.03358	0.938
9.07436	0.933
9.11514	0.931
9.15591	0.926
9.19669	0.916
9.23747	0.901
9.27824	0.894
9.31902	0.899
9.3598	0.909
9.40057	0.916
9.44135	0.916
9.48213	0.914
9.5229	0.897
9.56368	0.867
9.60446	0.85
9.64523	0.85
9.68601	0.88
9.72679	0.914
9.76756	0.921
9.80834	0.93
9.84912	0.921
9.88989	0.906
9.93067	0.901
9.97145	0.906
10.0122	0.908
10.053	0.882
10.0938	0.77
10.1346	0.649
10.1753	0.693
10.2161	0.785
10.2569	0.828
10.2977	0.85
10.3384	0.869
10.3792	0.824
10.42	0.807
10.4608	0.892
10.5015	0.914
10.5423	0.916
10.5831	0.923
10.6239	0.911
10.6646	0.802
10.7054	0.76
10.7462	0.858
10.787	0.894
10.8278	0.908
10.8685	0.916
10.9093	0.914
10.9501	0.916
10.9909	0.921
11.0316	0.931
11.0724	0.928
11.1132	0.925
11.154	0.925
11.1947	0.916
11.2355	0.918
11.2763	0.909
11.3171	0.909
11.3579	0.913
11.3986	0.916
11.4394	0.904
11.4802	0.899
11.521	0.86
11.5617	0.802
11.6025	0.693
11.6433	0.603
11.6841	0.698
11.7248	0.809
11.7656	0.879
11.8064	0.899
11.8472	0.916
11.8879	0.921
11.9287	0.92
11.9695	0.921
12.0103	0.928
12.0511	0.925
12.0918	0.923
12.1326	0.913
12.1734	0.906
12.2142	0.904
12.2549	0.897
12.2957	0.889
12.3365	0.874
12.3773	0.863
12.418	0.835
12.4588	0.806
12.4996	0.756
12.5404	0.698
12.5812	0.607
12.6219	0.435
12.6627	0.26
12.7035	0.272
12.7443	0.343
12.785	0.561
12.8258	0.676
12.8666	0.727
12.9074	0.748
12.9481	0.748
12.9889	0.726
13.0297	0.714
13.0705	0.795
13.1112	0.818
13.152	0.799
13.1928	0.78
13.2336	0.761
13.2744	0.767
13.3151	0.763
13.3559	0.767
13.3967	0.782
13.4375	0.811
13.4782	0.828
13.519	0.836
13.5598	0.836
13.6006	0.814
13.6413	0.806
13.6821	0.785
13.7229	0.767
13.7637	0.748
13.8044	0.721
13.8452	0.692
13.886	0.676
13.9268	0.661
13.9676	0.663
14.0083	0.666
14.0491	0.664
14.0899	0.668
14.1307	0.664
14.1714	0.67
14.2122	0.673
14.253	0.673
14.2938	0.681
14.3345	0.692
14.3753	0.698
14.4161	0.705
14.4569	0.709
14.4977	0.719
14.5384	0.726
14.5792	0.729
14.62	0.731
14.6608	0.734
14.7015	0.738
14.7423	0.736
14.7831	0.739
14.8239	0.743
14.8646	0.744
14.9054	0.739
14.9462	0.741
14.987	0.726
15.0277	0.692
15.0685	0.654
15.1093	0.687
15.1501	0.719
15.1909	0.727
15.2316	0.715
15.2724	0.698
15.3132	0.69
15.354	0.678
15.3947	0.67
15.4355	0.656
15.4763	0.644
15.5171	0.637
15.5578	0.63
15.5986	0.622
15.6394	0.613
15.6802	0.605
15.721	0.598
15.7617	0.574
15.8025	0.574
15.8433	0.564
15.8841	0.547
15.9248	0.539
15.9656	0.527
