Infrared Spectrum: BIS-(2,4,6-TRICHLORO-3-NITRO-5-METHYL-BENZENE)
Formula: C14 H6 N2 Cl6 O4
CAS: 6950-45-4
State: SOLID (1.0% IN KBr PELLET)
Class: COBLENTZ
Instrument: Not specified, most likely a prism, grating, or hybrid spectrometer.
Sampling: TRANSMISSION
Path length: 0.0355 CM THICK
Resolution: 4
Origin: ANDERSON PHYSICAL LABORATORY
1/CM	TRANSMITTANCE
670.625	0.65
679.063	0.653
687.5	0.658
695.938	0.658
704.375	0.644
712.813	0.598
721.25	0.539
729.688	0.589
738.125	0.607
746.563	0.665
755	0.644
763.438	0.4962
771.875	0.5329
780.313	0.571
788.75	0.6819
797.188	0.694
805.626	0.631
814.063	0.688
822.501	0.679
830.938	0.622
839.376	0.368
847.813	0.3349
856.251	0.677
864.688	0.737
873.126	0.776
881.563	0.781
890.001	0.773
898.438	0.766
906.876	0.758
915.313	0.746
923.751	0.725
932.188	0.71
940.626	0.695
949.064	0.634
957.501	0.5511
965.939	0.455
974.376	0.425
982.814	0.637
991.251	0.713
999.689	0.707
1008.13	0.668
1016.56	0.652
1025	0.572
1033.44	0.502
1041.88	0.586
1050.31	0.683
1058.75	0.73
1067.19	0.743
1075.63	0.751
1084.06	0.752
1092.5	0.752
1100.94	0.748
1109.38	0.733
1117.81	0.721
1126.25	0.688
1134.69	0.677
1143.13	0.703
1151.56	0.68
1160	0.712
1168.44	0.712
1176.88	0.706
1185.31	0.701
1193.75	0.697
1202.19	0.689
1210.63	0.677
1219.06	0.652
1227.5	0.632
1235.94	0.628
1244.38	0.616
1252.81	0.563
1261.25	0.554
1269.69	0.587
1278.13	0.5531
1286.56	0.439
1295	0.514
1303.44	0.481
1311.88	0.49
1320.31	0.494
1328.75	0.43
1337.19	0.304
1345.63	0.182
1354.07	0.19
1362.5	0.263
1370.94	0.265
1379.38	0.331
1387.82	0.328
1396.25	0.307
1404.69	0.337
1413.13	0.532
1421.57	0.619
1430	0.643
1438.44	0.631
1446.88	0.61
1455.32	0.589
1463.75	0.593
1472.19	0.605
1480.63	0.601
1489.07	0.598
1497.5	0.575
1505.94	0.547
1514.38	0.502
1522.82	0.4431
1531.25	0.374
1539.69	0.239
1548.13	0.137
1556.57	0.043
1565	0.061
1573.44	0.191
1581.88	0.331
1590.32	0.515
1598.75	0.599
1607.19	0.647
1615.63	0.661
1624.07	0.664
1632.5	0.674
1640.94	0.647
1649.38	0.569
1657.82	0.553
1666.25	0.637
1674.69	0.695
1683.13	0.734
1691.57	0.743
1700	0.772
1708.44	0.778
1716.88	0.784
1725.32	0.766
1733.75	0.772
1742.19	0.763
1750.63	0.776
1759.07	0.785
1767.5	0.784
1775.94	0.775
1784.38	0.785
1792.82	0.776
1801.25	0.779
1809.69	0.785
1818.13	0.785
1826.57	0.782
1835	0.782
1843.44	0.772
1851.88	0.778
1860.32	0.775
1868.75	0.77
1877.19	0.772
1885.63	0.769
1894.07	0.758
1902.5	0.761
1910.94	0.76
1919.38	0.752
1927.82	0.752
1936.25	0.751
1944.69	0.748
1953.13	0.746
1961.57	0.746
1970	0.745
1978.44	0.743
1986.88	0.742
1995.32	0.739
2003.76	0.737
2012.19	0.737
2020.63	0.736
2029.07	0.7338
2037.51	0.733
2045.94	0.7295
2054.38	0.727
2062.82	0.725
2071.26	0.724
2079.69	0.722
2088.13	0.7215
2096.57	0.7195
2105.01	0.719
2113.44	0.7187
2121.88	0.7169
2130.32	0.7134
2138.76	0.712
2147.19	0.7114
2155.63	0.71
2164.07	0.709
2172.51	0.706
2180.94	0.704
2189.38	0.703
2197.82	0.701
2206.26	0.7
2214.69	0.698
2223.13	0.6974
2231.57	0.697
2240.01	0.695
2248.44	0.6947
2256.88	0.694
2265.32	0.692
2273.76	0.691
2282.19	0.689
2290.63	0.6884
2299.07	0.688
2307.51	0.6878
2315.94	0.685
2324.38	0.6812
2332.82	0.6762
2341.26	0.674
2349.69	0.674
2358.13	0.674
2366.57	0.674
2375.01	0.674
2383.44	0.6764
2391.88	0.6812
2400.32	0.6847
2408.76	0.6825
2417.19	0.6736
2425.63	0.671
2434.07	0.67
2442.51	0.67
2450.94	0.67
2459.38	0.668
2467.82	0.6641
2476.26	0.6619
2484.69	0.661
2493.13	0.661
2501.57	0.6592
2510.01	0.656
2518.44	0.655
2526.88	0.653
2535.32	0.653
2543.76	0.652
2552.19	0.6512
2560.63	0.65
2569.07	0.6491
2577.51	0.649
2585.94	0.6481
2594.38	0.6463
2602.82	0.6441
2611.26	0.643
2619.69	0.6421
2628.13	0.641
2636.57	0.6381
2645.01	0.637
2653.45	0.6361
2661.88	0.634
2670.32	0.634
2678.76	0.631
2687.2	0.629
2695.63	0.6253
2704.07	0.623
2712.51	0.622
2720.95	0.621
2729.38	0.6193
2737.82	0.619
2746.26	0.6185
2754.7	0.617
2763.13	0.617
2771.57	0.616
2780.01	0.614
2788.45	0.613
2796.88	0.613
2805.32	0.611
2813.76	0.6107
2822.2	0.608
2830.63	0.607
2839.07	0.605
2847.51	0.5987
2855.95	0.5964
2864.38	0.595
2872.82	0.59
2881.26	0.5884
2889.7	0.5865
2898.13	0.5806
2906.57	0.5738
2915.01	0.5704
2923.45	0.569
2931.88	0.5652
2940.32	0.5619
2948.76	0.56
2957.2	0.562
2965.63	0.5654
2974.07	0.5681
2982.51	0.5697
2990.95	0.5731
2999.38	0.575
3007.82	0.577
3016.26	0.5787
3024.7	0.58
3033.13	0.58
3041.57	0.58
3050.01	0.58
3058.45	0.58
3066.88	0.58
3075.32	0.5779
3083.76	0.577
3092.2	0.575
3100.63	0.575
3109.07	0.574
3117.51	0.572
3125.95	0.571
3134.38	0.571
3142.82	0.571
3151.26	0.569
3159.7	0.5684
3168.13	0.5653
3176.57	0.562
3185.01	0.562
3193.45	0.5594
3201.88	0.5543
3210.32	0.5527
3218.76	0.551
3227.2	0.5504
3235.63	0.5453
3244.07	0.539
3252.51	0.538
3260.95	0.536
3269.38	0.5351
3277.82	0.5346
3286.26	0.5326
3294.7	0.5293
3303.13	0.5242
3311.57	0.5226
3320.01	0.5206
3328.45	0.5186
3336.89	0.5152
3345.32	0.5106
3353.76	0.5053
3362.2	0.4976
3370.64	0.496
3379.07	0.4894
3387.51	0.4845
3395.95	0.4789
3404.39	0.4731
3412.82	0.4677
3421.26	0.4586
3429.7	0.4543
3438.14	0.451
3446.57	0.4476
3455.01	0.443
3463.45	0.4405
3471.89	0.439
3480.32	0.4392
3488.76	0.44
3497.2	0.442
3505.64	0.443
3514.07	0.445
3522.51	0.4455
3530.95	0.449
3539.39	0.452
3547.82	0.454
3556.26	0.4565
3564.7	0.4625
3573.14	0.466
3581.57	0.4676
3590.01	0.4725
3598.45	0.4773
3606.89	0.482
3615.32	0.4856
3623.76	0.4912
3632.2	0.4956
3640.64	0.4972
3649.07	0.5023
3657.51	0.5071
3665.95	0.509
3674.39	0.514
3682.82	0.5156
3691.26	0.517
3699.7	0.518
3708.14	0.5211
3716.57	0.5233
3725.01	0.5252
3733.45	0.526
3741.89	0.526
3750.32	0.526
3758.76	0.526
3767.2	0.526
3775.64	0.5303
3784.07	0.5353
3792.51	0.5389
3800.95	0.541
3809.39	0.5408
3817.82	0.539
3826.26	0.5384
3834.7	0.5363
3843.14	0.536
3851.57	0.536
3860.01	0.5372
3868.45	0.538
3876.89	0.536
3885.32	0.5368
3893.76	0.538
3902.2	0.538
3910.64	0.5377
3919.07	0.536
3927.51	0.536
3935.95	0.536
3944.39	0.536
3952.82	0.536
3961.26	0.536
