Infrared Spectrum: Imidazole-4-carboxamide, 5-amino-N-(2-hydroxyethyl)-
Formula: C6 H10 N4 O2
CAS: 6950-30-7
State: SOLID (1 mg / 650 mg KBr DISC)
Class: COBLENTZ III
Instrument: PERKIN-ELMER 221 (GRATING)
Instrument parameters: FILTER AT 980 CM^-^1. GRATING 4000-1428 CM^-^1, NaCl PRISM 1428-650 CM^-^1
Sampling: TRANSMISSION
Resolution: 2
Origin: SOUTHERN RESEARCH INSTITUTE
1/CM	TRANSMITTANCE
637.85	0.7597
646.892	0.7624
655.935	0.7638
664.977	0.7634
674.02	0.7605
683.062	0.7561
692.105	0.7429
701.147	0.7204
710.19	0.7833
719.232	0.7782
728.275	0.7568
737.317	0.705
746.36	0.678
755.402	0.677
764.445	0.657
773.487	0.748
782.53	0.7608
791.572	0.7546
800.615	0.7016
809.657	0.7045
818.7	0.7586
827.742	0.7755
836.785	0.8023
845.827	0.8451
854.87	0.8422
863.912	0.8311
872.955	0.7911
881.997	0.6342
891.04	0.7645
900.082	0.8579
909.125	0.8672
918.167	0.8658
927.21	0.8592
936.252	0.8425
945.295	0.8127
954.337	0.8602
963.38	0.8581
972.422	0.8501
981.465	0.8388
990.507	0.8264
999.55	0.8133
1008.59	0.7982
1017.63	0.7406
1026.68	0.6333
1035.72	0.6733
1044.76	0.5889
1053.8	0.3568
1062.85	0.5516
1071.89	0.7212
1080.93	0.7776
1089.97	0.7791
1099.02	0.7936
1108.06	0.8061
1117.1	0.807
1126.14	0.8045
1135.19	0.7995
1144.23	0.7845
1153.27	0.7621
1162.31	0.7475
1171.36	0.7727
1180.4	0.7601
1189.44	0.6935
1198.48	0.591
1207.53	0.645
1216.57	0.6346
1225.61	0.6446
1234.65	0.7472
1243.7	0.82
1252.74	0.8145
1261.78	0.7831
1270.82	0.7136
1279.87	0.5708
1288.91	0.8036
1297.95	0.7974
1306.99	0.7627
1316.04	0.7101
1325.08	0.6384
1334.12	0.5528
1343.16	0.6597
1352.21	0.6851
1361.25	0.7199
1370.29	0.6415
1379.33	0.657
1388.38	0.615
1397.42	0.5078
1406.46	0.3675
1415.5	0.4401
1424.55	0.5041
1433.59	0.5969
1442.63	0.6713
1451.67	0.6914
1460.72	0.7017
1469.76	0.6912
1478.8	0.6564
1487.84	0.635
1496.89	0.5471
1505.93	0.6034
1514.97	0.6801
1524.01	0.6596
1533.06	0.5989
1542.1	0.5342
1551.14	0.5701
1560.18	0.571
1569.23	0.4516
1578.27	0.3087
1587.31	0.2341
1596.35	0.2811
1605.4	0.3508
1614.44	0.287
1623.48	0.2334
1632.52	0.2203
1641.57	0.3366
1650.61	0.5051
1659.65	0.59
1668.69	0.6791
1677.74	0.7305
1686.78	0.7807
1695.82	0.8128
1704.86	0.8377
1713.91	0.8564
1722.95	0.8699
1731.99	0.8787
1741.03	0.8911
1750.08	0.8978
1759.12	0.9043
1768.16	0.909
1777.2	0.9135
1786.25	0.9172
1795.29	0.9203
1804.33	0.9225
1813.37	0.9242
1822.42	0.9242
1831.46	0.9236
1840.5	0.9225
1849.54	0.9205
1858.59	0.9191
1867.63	0.9177
1876.67	0.9163
1885.71	0.9148
1894.76	0.9133
1903.8	0.912
1912.84	0.9113
1921.88	0.9101
1930.93	0.9081
1939.97	0.9062
1949.01	0.9051
1958.05	0.9045
1967.1	0.9034
1976.14	0.902
1985.18	0.9006
1994.22	0.8994
2003.27	0.8983
2012.31	0.897
2021.35	0.8956
2030.39	0.8938
2039.44	0.8919
2048.48	0.8895
2057.52	0.8871
2066.56	0.8847
2075.61	0.8822
2084.65	0.8796
2093.69	0.8771
2102.73	0.8751
2111.78	0.8734
2120.82	0.8702
2129.86	0.8692
2138.9	0.8691
2147.95	0.8697
2156.99	0.8706
2166.03	0.8715
2175.07	0.8714
2184.12	0.8706
2193.16	0.8693
2202.2	0.8666
2211.24	0.8637
2220.29	0.8609
2229.33	0.8579
2238.37	0.8545
2247.41	0.8512
2256.46	0.8484
2265.5	0.8463
2274.54	0.8442
2283.58	0.8419
2292.63	0.8395
2301.67	0.8366
2310.71	0.8339
2319.75	0.8311
2328.8	0.8281
2337.84	0.8279
2346.88	0.8299
2355.92	0.8308
2364.97	0.828
2374.01	0.8238
2383.05	0.8182
2392.09	0.8108
2401.14	0.8046
2410.18	0.7984
2419.22	0.7914
2428.26	0.7825
2437.31	0.775
2446.35	0.768
2455.39	0.7648
2464.43	0.7602
2473.48	0.7568
2482.52	0.7341
2491.56	0.7536
2500.6	0.7501
2509.65	0.7442
2518.69	0.7419
2527.73	0.7389
2536.77	0.7311
2545.82	0.7217
2554.86	0.7154
2563.9	0.7089
2572.94	0.7026
2581.99	0.6965
2591.03	0.6905
2600.07	0.6834
2609.11	0.675
2618.16	0.6607
2627.2	0.6491
2636.24	0.6445
2645.28	0.6435
2654.33	0.6432
2663.37	0.6424
2672.41	0.639
2681.45	0.635
2690.5	0.6308
2699.54	0.6263
2708.58	0.6203
2717.62	0.6176
2726.67	0.6165
2735.71	0.6159
2744.75	0.6127
2753.79	0.5912
2762.84	0.5788
2771.88	0.5654
2780.92	0.553
2789.96	0.5496
2799.01	0.5499
2808.05	0.5506
2817.09	0.5547
2826.13	0.5601
2835.18	0.5615
2844.22	0.5542
2853.26	0.5492
2862.3	0.5459
2871.35	0.5442
2880.39	0.544
2889.43	0.5447
2898.47	0.5428
2907.52	0.537
2916.56	0.5283
2925.6	0.5083
2934.64	0.4835
2943.69	0.4992
2952.73	0.485
2961.77	0.4753
2970.81	0.5013
2979.86	0.5304
2988.9	0.537
2997.94	0.5351
3006.98	0.5276
3016.03	0.5188
3025.07	0.508
3034.11	0.4959
3043.15	0.4846
3052.2	0.4772
3061.24	0.4746
3070.28	0.4706
3079.32	0.4658
3088.37	0.4606
3097.41	0.4545
3106.45	0.4487
3115.49	0.44
3124.54	0.4389
3133.58	0.4384
3142.62	0.4363
3151.66	0.4291
3160.71	0.4281
3169.75	0.4281
3178.79	0.4295
3187.83	0.4311
3196.88	0.438
3205.92	0.4552
3214.96	0.4649
3224	0.4644
3233.05	0.4643
3242.09	0.4648
3251.13	0.4617
3260.17	0.4531
3269.22	0.4419
3278.26	0.423
3287.3	0.359
3296.34	0.2949
3305.39	0.3153
3314.43	0.4428
3323.47	0.4774
3332.51	0.4663
3341.56	0.4039
3350.6	0.3521
3359.64	0.3517
3368.68	0.4119
3377.73	0.4522
3386.77	0.4525
3395.81	0.4406
3404.85	0.3817
3413.9	0.318
3422.94	0.397
3431.98	0.523
3441.02	0.5592
3450.07	0.6002
3459.11	0.6314
3468.15	0.651
3477.19	0.6678
3486.24	0.7027
3495.28	0.7092
3504.32	0.716
3513.36	0.7262
3522.41	0.7355
3531.45	0.7422
3540.49	0.7514
3549.53	0.7649
3558.58	0.7741
3567.62	0.7968
3576.66	0.809
3585.7	0.8189
3594.75	0.8233
3603.79	0.8332
3612.83	0.8414
3621.87	0.8534
3630.92	0.8699
3639.96	0.8753
3649	0.8785
3658.04	0.8809
3667.09	0.8824
3676.13	0.8835
3685.17	0.8843
3694.21	0.885
3703.26	0.8852
3712.3	0.8853
3721.34	0.8845
3730.38	0.881
3739.43	0.8778
3748.47	0.8773
3757.51	0.878
3766.55	0.879
3775.6	0.8799
3784.64	0.8804
3793.68	0.8796
3802.72	0.8781
3811.77	0.8763
3820.81	0.8742
3829.85	0.8717
3838.89	0.8692
3847.94	0.8682
3856.98	0.867
3866.02	0.8669
3875.06	0.8684
3884.11	0.8695
3893.15	0.8671
3902.19	0.8631
3911.23	0.8616
3920.28	0.8606
3929.32	0.8602
3938.36	0.8601
3947.4	0.8604
3956.45	0.8617
3965.49	0.8634
3974.53	0.8623
3983.57	0.8573
3992.62	0.8555
4001.66	0.8551
4010.7	0.8542
