Infrared Spectrum: UREA, 1-METHYL-3-(2-PHENYLETHYL)-
Formula: C10 H14 N2 O
CAS: 6953-30-6
State: SOLID (1 mg / 650 mg KBr DISC)
Class: COBLENTZ III
Instrument: PERKIN-ELMER 221 (GRATING)
Instrument parameters: GRATING FOR 4000-1428, FILTERS AT 2490, 980, NaCl PRISM FOR 1428-650 CM^-^1
Sampling: TRANSMISSION
Resolution: 4
Origin: SOUTHERN RESEARCH INSTITUTE
1/CM	TRANSMITTANCE
637.624	0.649
646.8	0.6262
655.976	0.6111
665.152	0.6089
674.328	0.6158
683.504	0.6402
692.68	0.6196
701.856	0.3496
711.032	0.714
720.208	0.752
729.384	0.75
738.56	0.7169
747.736	0.5576
756.912	0.6879
766.088	0.787
775.264	0.7555
784.44	0.8582
793.616	0.8693
802.792	0.88
811.968	0.875
821.144	0.876
830.32	0.887
839.496	0.8861
848.672	0.8817
857.848	0.895
867.024	0.895
876.2	0.892
885.376	0.892
894.552	0.8904
903.728	0.8829
912.904	0.8266
922.08	0.886
931.256	0.886
940.432	0.8819
949.609	0.8747
958.785	0.871
967.961	0.8451
977.137	0.857
986.313	0.849
995.489	0.848
1004.66	0.828
1013.84	0.824
1023.02	0.8075
1032.19	0.7807
1041.37	0.804
1050.54	0.7785
1059.72	0.7763
1068.9	0.7813
1078.07	0.78
1087.25	0.7759
1096.42	0.801
1105.6	0.7945
1114.78	0.791
1123.95	0.7845
1133.13	0.7727
1142.3	0.7654
1151.48	0.7336
1160.66	0.7252
1169.83	0.727
1179.01	0.7323
1188.18	0.7379
1197.36	0.731
1206.54	0.727
1215.71	0.7123
1224.89	0.6798
1234.06	0.625
1243.24	0.5435
1252.42	0.5027
1261.59	0.5632
1270.77	0.6643
1279.95	0.696
1289.12	0.6815
1298.3	0.6096
1307.47	0.6399
1316.65	0.7415
1325.83	0.7576
1335	0.7673
1344.18	0.789
1353.35	0.79
1362.53	0.786
1371.71	0.7841
1380.88	0.78
1390.06	0.774
1399.23	0.7483
1408.41	0.7267
1417.59	0.6918
1426.76	0.7296
1435.94	0.739
1445.11	0.71
1454.29	0.6466
1463.47	0.685
1472.64	0.6293
1481.82	0.5987
1490.99	0.6712
1500.17	0.5893
1509.35	0.627
1518.52	0.5397
1527.7	0.5027
1536.87	0.5216
1546.05	0.4919
1555.23	0.4339
1564.4	0.3648
1573.58	0.2932
1582.75	0.2092
1591.93	0.2139
1601.11	0.2547
1610.28	0.2477
1619.46	0.1782
1628.63	0.1992
1637.81	0.3018
1646.99	0.3834
1656.16	0.4742
1665.34	0.5462
1674.51	0.6035
1683.69	0.6715
1692.87	0.7364
1702.04	0.7645
1711.22	0.794
1720.39	0.8166
1729.57	0.8481
1738.75	0.8531
1747.92	0.863
1757.1	0.866
1766.27	0.8738
1775.45	0.883
1784.63	0.8928
1793.8	0.897
1802.98	0.8962
1812.15	0.8913
1821.33	0.9016
1830.51	0.9086
1839.68	0.9191
1848.86	0.922
1858.03	0.924
1867.21	0.9228
1876.39	0.9066
1885.56	0.908
1894.74	0.917
1903.91	0.926
1913.09	0.926
1922.27	0.926
1931.44	0.9259
1940.62	0.9169
1949.79	0.903
1958.97	0.9208
1968.15	0.925
1977.32	0.926
1986.5	0.926
1995.67	0.926
2004.85	0.926
2014.03	0.924
2023.2	0.924
2032.38	0.924
2041.55	0.9246
2050.73	0.9247
2059.91	0.924
2069.08	0.922
2078.26	0.921
2087.43	0.921
2096.61	0.921
2105.79	0.921
2114.96	0.921
2124.14	0.921
2133.31	0.922
2142.49	0.922
2151.67	0.922
2160.84	0.922
2170.02	0.922
2179.19	0.9203
2188.37	0.917
2197.55	0.9133
2206.72	0.913
2215.9	0.913
2225.07	0.9133
2234.25	0.9146
2243.43	0.916
2252.6	0.9163
2261.78	0.9146
2270.95	0.916
2280.13	0.916
2289.31	0.914
2298.48	0.913
2307.66	0.913
2316.83	0.912
2326.01	0.91
2335.19	0.91
2344.36	0.91
2353.54	0.91
2362.71	0.91
2371.89	0.91
2381.07	0.91
2390.24	0.91
2399.42	0.91
2408.59	0.91
2417.77	0.909
2426.95	0.909
2436.12	0.9093
2445.3	0.908
2454.47	0.908
2463.65	0.908
2472.83	0.907
2482	0.9033
2491.18	0.899
2500.35	0.8963
2509.53	0.8936
2518.71	0.893
2527.88	0.893
2537.06	0.893
2546.24	0.892
2555.41	0.8903
2564.59	0.888
2573.76	0.887
2582.94	0.886
2592.12	0.884
2601.29	0.884
2610.47	0.8823
2619.64	0.882
2628.82	0.879
2638	0.876
2647.17	0.876
2656.35	0.876
2665.52	0.875
2674.7	0.874
2683.88	0.8693
2693.05	0.869
2702.23	0.866
2711.4	0.8636
2720.58	0.863
2729.76	0.863
2738.93	0.862
2748.11	0.862
2757.28	0.859
2766.46	0.858
2775.64	0.848
2784.81	0.844
2793.99	0.8302
2803.16	0.8103
2812.34	0.7806
2821.52	0.7897
2830.69	0.7876
2839.87	0.7692
2849.04	0.7396
2858.22	0.6951
2867.4	0.667
2876.57	0.663
2885.75	0.6717
2894.92	0.683
2904.1	0.6793
2913.28	0.6558
2922.45	0.645
2931.63	0.641
2940.8	0.6427
2949.98	0.6552
2959.16	0.7022
2968.33	0.723
2977.51	0.7454
2986.68	0.747
2995.86	0.7477
3005.04	0.7433
3014.21	0.738
3023.39	0.7107
3032.56	0.7241
3041.74	0.7513
3050.92	0.7426
3060.09	0.722
3069.27	0.7645
3078.44	0.781
3087.62	0.778
3096.8	0.787
3105.97	0.78
3115.15	0.7683
3124.32	0.7536
3133.5	0.7312
3142.68	0.722
3151.85	0.7267
3161.03	0.731
3170.2	0.7334
3179.38	0.735
3188.56	0.735
3197.73	0.7313
3206.91	0.73
3216.08	0.7126
3225.26	0.6992
3234.44	0.6759
3243.61	0.6576
3252.79	0.6403
3261.96	0.6092
3271.14	0.588
3280.32	0.5492
3289.49	0.5124
3298.67	0.4819
3307.84	0.4283
3317.02	0.3832
3326.2	0.3328
3335.37	0.3037
3344.55	0.3131
3353.72	0.351
3362.9	0.4115
3372.08	0.4897
3381.25	0.5212
3390.43	0.5753
3399.6	0.6109
3408.78	0.6491
3417.96	0.6804
3427.13	0.7074
3436.31	0.7211
3445.48	0.7244
3454.66	0.7317
3463.84	0.7437
3473.01	0.7527
3482.19	0.756
3491.36	0.759
3500.54	0.7647
3509.72	0.7697
3518.89	0.7767
3528.07	0.781
3537.24	0.7847
3546.42	0.794
3555.6	0.7977
3564.77	0.8067
3573.95	0.81
3583.12	0.8147
3592.3	0.8197
3601.48	0.825
3610.65	0.825
3619.83	0.8397
3629	0.842
3638.18	0.842
3647.36	0.8426
3656.53	0.8417
3665.71	0.845
3674.88	0.845
3684.06	0.844
3693.24	0.846
3702.41	0.8497
3711.59	0.85
3720.76	0.85
3729.94	0.8497
3739.12	0.85
3748.29	0.85
3757.47	0.8497
3766.65	0.852
3775.82	0.852
3785	0.852
3794.17	0.8506
3803.35	0.85
3812.53	0.85
3821.7	0.848
3830.88	0.8466
3840.05	0.848
3849.23	0.849
3858.41	0.849
3867.58	0.849
3876.76	0.849
3885.93	0.849
3895.11	0.849
3904.29	0.849
3913.46	0.8483
3922.64	0.849
3931.81	0.848
3940.99	0.8487
3950.17	0.849
3959.34	0.849
3968.52	0.8457
3977.69	0.848
3986.87	0.848
3996.05	0.846
4005.22	0.848
4014.4	0.848
