Infrared Spectrum: 2,4-Dimethylcyclohexanol
Formula: C 8 H 16 O
CAS: 69542-91-2
State: gas
Instrument: HP-GC/MS/IRD
Origin: NIST Mass Spectrometry Data Center
1/CM	ABSORBANCE
550	0.0002668
562	0.0001102
574	0.000203
586	0.000783
598	0.0010701
610	0.0006119
622	0.0002465
634	0.0002581
646	0.0002233
658	0.0001508
670	0.0002494
682	0.0002871
694	0.0002204
706	0.0002581
718	0.000261
730	0.000145
742	0.0002088
754	0.0002871
766	0.0003422
778	0.0003132
790	0.0002581
802	0.0001798
814	0.0003654
826	0.0006119
838	0.0008584
850	0.0006815
862	0.0004437
874	0.0003828
886	0.0005191
898	0.0005829
910	0.0010295
922	0.0010063
934	0.0009657
946	0.0014616
958	0.0015167
970	0.0011397
982	0.0013949
994	0.002088
1006	0.0029087
1018	0.0043384
1030	0.0080446
1042	0.0150916
1054	0.0129514
1066	0.0036656
1078	0.0017603
1090	0.0022562
1102	0.0028188
1114	0.0021808
1126	0.001682
1138	0.0016675
1150	0.0014413
1162	0.0011832
1174	0.00116
1186	0.0011629
1198	0.0014993
1210	0.0019981
1222	0.002291
1234	0.002117
1246	0.0019227
1258	0.0019256
1270	0.0017661
1282	0.001682
1294	0.0015515
1306	0.001479
1318	0.0013804
1330	0.0014558
1342	0.00174
1354	0.0022185
1366	0.003103
1378	0.0035583
1390	0.0026448
1402	0.0013833
1414	0.0009831
1426	0.0011107
1438	0.0022446
1450	0.0045675
1462	0.0048836
1474	0.0027782
1486	0.0011484
1498	0.0005423
1510	0.0003393
1522	0.0002668
1534	0.0002407
1546	0.0002001
1558	0.0001769
1570	0.0001711
1582	0.0001769
1594	0.000203
1606	0.0001885
1618	0.0001711
1630	0.0001827
1642	0.0001682
1654	0.0001595
1666	0.0001566
1678	8.7e-05
1690	7.25e-05
1702	3.77e-05
1714	4.35e-05
1726	2.9e-05
1738	3.19e-05
1750	6.09e-05
1762	3.19e-05
1774	4.35e-05
1786	5.8e-05
1798	3.48e-05
1810	2.03e-05
1822	6.09e-05
1834	5.8e-05
1846	1.45e-05
1858	4.06e-05
1870	4.64e-05
1882	2.9e-06
1894	5.22e-05
1906	3.48e-05
1918	2.61e-05
1930	6.96e-05
1942	4.93e-05
1954	5.8e-05
1966	6.09e-05
1978	4.93e-05
1990	4.06e-05
2002	2.9e-05
2014	3.19e-05
2026	3.19e-05
2038	4.35e-05
2050	8.7e-05
2062	6.38e-05
2074	9.28e-05
2086	8.12e-05
2098	7.83e-05
2110	5.51e-05
2122	5.51e-05
2134	4.35e-05
2146	4.06e-05
2158	3.19e-05
2170	4.35e-05
2182	6.09e-05
2194	4.64e-05
2206	6.09e-05
2218	7.83e-05
2230	6.67e-05
2242	4.93e-05
2254	7.54e-05
2266	9.86e-05
2278	7.25e-05
2290	0.0001102
2302	0.0001247
2314	0.0001363
2326	0.0001247
2338	0.000145
2350	0.0001595
2362	0.0001827
2374	0.0001537
2386	0.0001479
2398	0.0001769
2410	0.0001914
2422	0.000232
2434	0.0001914
2446	0.0001682
2458	0.0001914
2470	0.0001856
2482	0.0001711
2494	0.0001711
2506	0.000145
2518	0.0001769
2530	0.0001711
2542	0.0001827
2554	0.0001856
2566	0.0002233
2578	0.00029
2590	0.0003335
2602	0.0003944
2614	0.0004727
2626	0.0004872
2638	0.0005133
2650	0.0005278
2662	0.0004988
2674	0.0004843
2686	0.0004611
2698	0.0004785
2710	0.0005481
2722	0.000609
2734	0.0007569
2746	0.0007917
2758	0.0007917
2770	0.0008004
2782	0.0008265
2794	0.0010295
2806	0.0013456
2818	0.0018183
2830	0.0031436
2842	0.0063916
2854	0.0104371
2866	0.0127339
2878	0.0151467
2890	0.0149147
2902	0.015805
2914	0.0218341
2926	0.0289391
2938	0.0253692
2950	0.0204218
2962	0.0197983
2974	0.0113796
2986	0.0043877
2998	0.0017748
3010	0.0008526
3022	0.0006322
3034	0.0005452
3046	0.0005597
3058	0.0005945
3070	0.0006206
3082	0.0005307
3094	0.0005365
3106	0.0005017
3118	0.0004321
3130	0.0004031
3142	0.0003886
3154	0.0004147
3166	0.0004089
3178	0.0003045
3190	0.0002958
3202	0.0002581
3214	0.0001276
3226	0.0001363
3238	0.0001508
3250	0.0001131
3262	0.0001189
3274	0.0001073
3286	0.0001566
3298	7.54e-05
3310	0.0001479
3322	6.67e-05
3334	7.54e-05
3346	9.57e-05
3358	9.28e-05
3370	0.0001073
3382	0.0001218
3394	0.0001595
3406	0.0001624
3418	0.0001363
3430	9.86e-05
3442	0.0001276
3454	0.0001943
3466	0.0001392
3478	0.0001015
3490	0.0001102
3502	8.41e-05
3514	2.9e-05
3526	8.12e-05
3538	9.57e-05
3550	0.0001015
3562	8.7e-05
3574	5.8e-05
3586	0.0001102
3598	7.54e-05
3610	0.000203
3622	0.0004321
3634	0.0008178
3646	0.0015805
3658	0.0018589
3670	0.0009367
3682	0.0002494
3694	0.0001972
3706	0.0001537
3718	0.0001073
3730	0.0001015
3742	0.0001073
3754	0.0001073
3766	0.0001508
3778	8.7e-05
3790	0.0001044
3802	9.57e-05
3814	0.000174
3826	0.0001769
3838	0.0002581
