Infrared Spectrum: Fluorene-4-carboxylic acid
Formula: C 14 H 10 O 2
CAS: 6954-55-8
State: gas
Origin: EPA-IR VAPOR PHASE LIBRARY
1/CM	ABSORBANCE
549.8	0.010256
559.445	0.012206
569.09	0.018856
578.734	0.023366
588.379	0.023736
598.024	0.016526
607.669	0.010176
617.313	0.013876
626.958	0.032526
636.603	0.019456
646.248	0.007106
655.893	0.003906
665.537	0.003716
675.182	0.004346
684.827	0.012226
694.472	0.022016
704.116	0.010026
713.761	0.005566
723.406	0.017156
733.051	0.048296
742.695	0.055926
752.34	0.055186
761.985	0.026446
771.63	0.012986
781.275	0.008446
790.919	0.006116
800.564	0.005236
810.209	0.003566
819.854	0.002596
829.498	0.002956
839.143	0.002076
848.788	0.001876
858.433	0.002216
868.078	0.002636
877.722	0.002336
887.367	0.002146
897.012	0.002636
906.657	0.003216
916.301	0.006516
925.946	0.007286
935.591	0.003676
945.236	0.003786
954.88	0.004426
964.525	0.003706
974.17	0.003366
983.815	0.002626
993.46	0.005526
1003.1	0.009156
1012.75	0.004806
1022.39	0.005066
1032.04	0.006946
1041.68	0.006406
1051.33	0.006656
1060.97	0.012946
1070.62	0.030526
1080.26	0.038706
1089.91	0.031416
1099.55	0.056776
1109.2	0.099076
1118.84	0.105486
1128.49	0.046786
1138.13	0.022896
1147.78	0.017996
1157.42	0.024936
1167.07	0.030736
1176.71	0.022366
1186.36	0.020876
1196	0.037976
1205.64	0.032976
1215.29	0.016816
1224.93	0.012976
1234.58	0.010136
1244.22	0.008516
1253.87	0.008826
1263.51	0.010766
1273.16	0.014796
1282.8	0.023436
1292.45	0.024556
1302.09	0.017976
1311.74	0.019826
1321.38	0.022246
1331.03	0.023306
1340.67	0.019416
1350.32	0.017246
1359.96	0.014516
1369.61	0.010186
1379.25	0.007616
1388.9	0.006506
1398.54	0.008716
1408.18	0.013776
1417.83	0.020946
1427.47	0.023866
1437.12	0.010876
1446.76	0.011046
1456.41	0.017116
1466.05	0.010726
1475.7	0.004526
1485.34	0.003056
1494.99	0.002316
1504.63	0.002476
1514.28	0.002256
1523.92	0.001966
1533.57	0.001826
1543.21	0.001736
1552.86	0.002256
1562.5	0.003516
1572.15	0.006296
1581.79	0.009106
1591.44	0.007786
1601.08	0.004596
1610.73	0.003066
1620.37	0.002266
1630.01	0.002216
1639.66	0.002176
1649.3	0.002486
1658.95	0.002886
1668.59	0.003396
1678.24	0.003526
1687.88	0.004076
1697.53	0.005436
1707.17	0.008436
1716.82	0.013346
1726.46	0.020326
1736.11	0.030016
1745.75	0.055426
1755.4	0.144306
1765.04	0.118876
1774.69	0.036136
1784.33	0.029916
1793.98	0.022466
1803.62	0.011806
1813.27	0.006506
1822.91	0.004376
1832.55	0.003936
1842.2	0.003056
1851.84	0.002546
1861.49	0.002686
1871.13	0.002476
1880.78	0.002286
1890.42	0.002206
1900.07	0.002496
1909.71	0.002376
1919.36	0.002456
1929	0.003406
1938.65	0.003316
1948.29	0.002306
1957.94	0.001396
1967.58	0.0009756
1977.23	0.0008111
1986.87	0.0008145
1996.52	0.0008386
2006.16	0.0009068
2015.81	0.0007567
2025.45	0.0009186
2035.1	0.0009823
2044.74	0.000887
2054.38	0.0007773
2064.03	0.0006088
2073.67	0.00067
2083.32	0.0006893
2092.96	0.0006851
2102.61	0.0006651
2112.25	0.0006981
2121.9	0.0005431
2131.54	0.0006374
2141.19	0.0004882
2150.83	0.0005107
2160.48	0.0006006
2170.12	0.0005977
2179.77	0.0006666
2189.41	0.0006755
2199.06	0.0005544
2208.7	0.000695
2218.35	0.0006355
2227.99	0.0007472
2237.64	0.0005934
2247.28	0.0006389
2256.92	0.0007727
2266.57	0.0008267
2276.21	0.0006949
2285.86	0.0008427
2295.5	0.0006907
2305.15	0.0007936
2314.79	0.0005608
2324.44	0.0007214
2334.08	0.0008366
2343.73	0.000661
2353.37	0.0007806
2363.02	0.0007761
2372.66	0.0007782
2382.31	0.0007656
2391.95	0.0008216
2401.6	0.0009267
2411.24	0.0006953
2420.89	0.0006287
2430.53	0.0006704
2440.18	0.0006454
2449.82	0.0006965
2459.47	0.0007152
2469.11	0.0006032
2478.75	0.0005576
2488.4	0.0006215
2498.04	0.0006849
2507.69	0.0006673
2517.33	0.0006833
2526.98	0.000581
2536.62	0.0006294
2546.27	0.0005
2555.91	0.0005165
2565.56	0.0004485
2575.2	0.0004167
2584.85	0.0006781
2594.49	0.0005477
2604.14	0.0004893
2613.78	0.0006148
2623.43	0.0005467
2633.07	0.000498
2642.72	0.0005654
2652.36	0.0004852
2662.01	0.0004723
2671.65	0.0005074
2681.29	0.0007104
2690.94	0.0005619
2700.58	0.0005964
2710.23	0.0003982
2719.87	0.0002981
2729.52	0.0004563
2739.16	0.0003507
2748.81	0.0004908
2758.45	0.0006514
2768.1	0.0006269
2777.74	0.0009386
2787.39	0.0011018
2797.03	0.001846
2806.68	0.001936
2816.32	0.001676
2825.97	0.0010241
2835.61	0.000745
2845.26	0.0008562
2854.9	0.0007175
2864.55	0.0009242
2874.19	0.0010187
2883.84	0.001336
2893.48	0.002626
2903.12	0.007756
2912.77	0.011146
2922.41	0.009346
2932.06	0.003736
2941.7	0.001276
2951.35	0.0008797
2960.99	0.000985
2970.64	0.0009412
2980.28	0.001426
2989.93	0.002096
2999.57	0.002806
3009.22	0.003796
3018.86	0.005826
3028.51	0.009176
3038.15	0.010076
3047.8	0.014906
3057.44	0.021046
3067.09	0.023316
3076.73	0.024946
3086.38	0.014226
3096.02	0.004596
3105.67	0.002596
3115.31	0.002516
3124.95	0.002566
3134.6	0.001946
3144.24	0.001806
3153.89	0.002306
3163.53	0.002406
3173.18	0.001416
3182.82	0.0009894
3192.47	0.0011008
3202.11	0.000715
3211.76	0.0008044
3221.4	0.00063
3231.05	0.0004105
3240.69	0.0006296
3250.34	0.00023985
3259.98	0.0005603
3269.63	1.1e-05
3279.27	0.000395
3288.92	0.0005458
3298.56	0.000379
3308.21	0.0003552
3317.85	0.0004904
3327.49	0.0005122
3337.14	0.0006368
3346.78	0.0006898
3356.43	0.00026786
3366.07	0.0003561
3375.72	0.00024648
3385.36	0.0004518
3395.01	0.0005239
3404.65	0.0003751
3414.3	0.0003877
3423.94	0.0003367
3433.59	0.000354
3443.23	0.0006165
3452.88	0.0004969
3462.52	0.0001808
3472.17	0.0008786
3481.81	0.0008022
3491.46	0.001506
3501.1	0.001676
3510.75	0.001416
3520.39	0.001416
3530.04	0.001586
3539.68	0.001726
3549.32	0.004196
3558.97	0.018246
3568.61	0.038096
3578.26	0.042126
3587.9	0.016426
3597.55	0.003426
3607.19	0.002436
3616.84	0.002136
3626.48	0.001916
3636.13	0.0011451
3645.77	0.0007171
3655.42	0.000501
3665.06	0.000524
3674.71	0.0003421
3684.35	0.000681
3694	0.0005962
3703.64	0.0005829
3713.29	0.0004164
3722.93	0.000174
3732.58	0.0004671
3742.22	0.0005782
3751.86	0.0004798
3761.51	0.0004994
3771.15	0.00027545
3780.8	0.0003992
3790.44	0.0004289
3800.09	0.000603
3809.73	0.0003314
3819.38	0.0006646
3829.02	0.000625
3838.67	0.0004983
3848.31	0.000415
3857.96	0.0004089
3867.6	0.0006196
3877.25	0.0006416
3886.89	0.0005799
3896.54	0.0006482
3906.18	0.000503
3915.83	0.00026391
3925.47	0.000502
3935.12	0.0004078
3944.76	0.0003766
3954.41	0.000105
3964.05	0.0004289
3973.69	0.00022158
3983.34	0.0004455
3992.98	0.0003536
