Infrared Spectrum: Urea, 1-[p-(dimethylaminophenyl)]-3-methyl-
Formula: C10 H15 N3 O
CAS: 6956-24-7
State: SOLID (1 mg / 650 mg KBr DISC)
Class: COBLENTZ III
Instrument: PERKIN-ELMER 221 (GRATING)
Instrument parameters: FILTER AT 2490, 980 CM^-^1. GRATING 4000-1428 CM^-^1, NaCl PRISM 1428-650 CM^-^1
Sampling: TRANSMISSION
Resolution: 2
Origin: SOUTHERN RESEARCH INSTITUTE
1/CM	TRANSMITTANCE
663	0.5536
672	0.5546
681	0.5786
690	0.6275
699	0.6771
708	0.7058
717	0.718
726	0.7626
735	0.7654
744	0.7412
753	0.7236
762	0.734
771	0.812
780	0.8128
789	0.7856
798	0.6764
807	0.5639
816	0.4412
825	0.6399
834	0.8115
843	0.8413
852	0.8479
861	0.8492
870	0.849
879	0.8476
888	0.8432
897	0.8358
906	0.8257
915	0.8113
924	0.7857
933	0.723
942	0.6669
951	0.8359
960	0.8208
969	0.8027
978	0.7922
987	0.7644
996	0.7635
1005	0.7554
1014	0.7465
1023	0.735
1032	0.7171
1041	0.6921
1050	0.6523
1059	0.6359
1068	0.6807
1077	0.6717
1086	0.6597
1095	0.637
1104	0.602
1113	0.5578
1122	0.5616
1131	0.6026
1140	0.5967
1149	0.5468
1158	0.4804
1167	0.5508
1176	0.4471
1185	0.647
1194	0.6337
1203	0.5352
1212	0.4417
1221	0.4685
1230	0.4883
1239	0.4572
1248	0.455
1257	0.4975
1266	0.569
1275	0.6082
1284	0.5267
1293	0.5091
1302	0.5634
1311	0.584
1320	0.6008
1329	0.5071
1338	0.4621
1347	0.6013
1356	0.7335
1365	0.7402
1374	0.7288
1383	0.7045
1392	0.6536
1401	0.576
1410	0.5911
1419	0.6416
1428	0.6033
1437	0.5027
1446	0.5636
1455	0.5603
1464	0.5484
1473	0.5118
1482	0.5106
1491	0.4721
1500	0.3725
1509	0.2573
1518	0.2535
1527	0.3844
1536	0.4341
1545	0.348
1554	0.2914
1563	0.3229
1572	0.3107
1581	0.2938
1590	0.3104
1599	0.2869
1608	0.236
1617	0.2492
1626	0.1995
1635	0.1942
1644	0.2757
1653	0.373
1662	0.4916
1671	0.5484
1680	0.6137
1689	0.6568
1698	0.7053
1707	0.7457
1716	0.775
1725	0.8
1734	0.8275
1743	0.85
1752	0.8675
1761	0.8817
1770	0.8938
1779	0.9049
1788	0.9145
1797	0.9244
1806	0.9321
1815	0.9372
1824	0.9386
1833	0.9374
1842	0.9337
1851	0.9286
1860	0.9165
1869	0.9052
1878	0.9208
1887	0.9307
1896	0.9335
1905	0.9448
1914	0.9496
1923	0.95
1932	0.9486
1941	0.946
1950	0.9422
1959	0.9404
1968	0.9386
1977	0.9361
1986	0.9336
1995	0.9311
2004	0.9292
2013	0.9273
2022	0.9255
2031	0.9241
2040	0.9226
2049	0.9217
2058	0.9218
2067	0.922
2076	0.9238
2085	0.9237
2094	0.9191
2103	0.9148
2112	0.9105
2121	0.9093
2130	0.9089
2139	0.9089
2148	0.9092
2157	0.909
2166	0.9087
2175	0.9063
2184	0.9039
2193	0.9008
2202	0.8969
2211	0.8952
2220	0.894
2229	0.8928
2238	0.8923
2247	0.8917
2256	0.8911
2265	0.8905
2274	0.8899
2283	0.889
2292	0.8881
2301	0.8873
2310	0.8868
2319	0.8862
2328	0.8853
2337	0.8841
2346	0.883
2355	0.8818
2364	0.8799
2373	0.8777
2382	0.8755
2391	0.8734
2400	0.8713
2409	0.8693
2418	0.8673
2427	0.8654
2436	0.8634
2445	0.8612
2454	0.859
2463	0.8568
2472	0.8546
2481	0.8523
2490	0.85
2499	0.8477
2508	0.8457
2517	0.8438
2526	0.8413
2535	0.8385
2544	0.8358
2553	0.8331
2562	0.8304
2571	0.8278
2580	0.8246
2589	0.8214
2598	0.818
2607	0.8138
2616	0.8096
2625	0.8057
2634	0.8018
2643	0.7982
2652	0.7947
2661	0.7914
2670	0.7885
2679	0.7856
2688	0.7836
2697	0.7816
2706	0.7791
2715	0.7755
2724	0.7708
2733	0.761
2742	0.7493
2751	0.7336
2760	0.7124
2769	0.6851
2778	0.6538
2787	0.6034
2796	0.5853
2805	0.5919
2814	0.6579
2823	0.6529
2832	0.6339
2841	0.6203
2850	0.6108
2859	0.6153
2868	0.5925
2877	0.5836
2886	0.584
2895	0.5861
2904	0.6107
2913	0.6101
2922	0.5936
2931	0.5762
2940	0.5693
2949	0.611
2958	0.6503
2967	0.6492
2976	0.6428
2985	0.6366
2994	0.6469
3003	0.6484
3012	0.6356
3021	0.6297
3030	0.6264
3039	0.6424
3048	0.6805
3057	0.688
3066	0.6799
3075	0.6645
3084	0.6555
3093	0.6496
3102	0.6456
3111	0.6414
3120	0.634
3129	0.6205
3138	0.6027
3147	0.5967
3156	0.5937
3165	0.5912
3174	0.5905
3183	0.5898
3192	0.5884
3201	0.5781
3210	0.5517
3219	0.5214
3228	0.4941
3237	0.4693
3246	0.4425
3255	0.4151
3264	0.3945
3273	0.3772
3282	0.3734
3291	0.3867
3300	0.4075
3309	0.4069
3318	0.3805
3327	0.3659
3336	0.3792
3345	0.4144
3354	0.4459
3363	0.4844
3372	0.5181
3381	0.5503
3390	0.5769
3399	0.5946
3408	0.6134
3417	0.6318
3426	0.6491
3435	0.6643
3444	0.6759
3453	0.6853
3462	0.6927
3471	0.6975
3480	0.7023
3489	0.7063
3498	0.7104
3507	0.7141
3516	0.7165
3525	0.719
3534	0.7216
3543	0.7242
3552	0.7285
3561	0.7333
3570	0.7386
3579	0.7426
3588	0.7457
3597	0.7486
3606	0.7512
3615	0.7539
3624	0.7565
3633	0.7586
3642	0.76
3651	0.7615
3660	0.763
3669	0.7637
3678	0.7633
3687	0.7629
3696	0.7625
3705	0.7621
3714	0.761
3723	0.7599
3732	0.7588
3741	0.7575
3750	0.7558
3759	0.7542
3768	0.7531
3777	0.7524
3786	0.7517
3795	0.751
3804	0.7503
3813	0.7497
3822	0.7492
3831	0.7489
3840	0.7486
3849	0.7483
3858	0.7479
3867	0.7478
3876	0.7478
3885	0.7478
3894	0.7478
3903	0.7479
3912	0.7479
3921	0.7482
3930	0.7488
3939	0.7493
3948	0.7499
3957	0.7502
3966	0.7502
3975	0.7501
3984	0.75
3993	0.7498
