Infrared Spectrum: ACETAMIDE, N-(7-AMINOFLUOREN-2-YL)-
Formula: C15 H14 N2 O
CAS: 6957-50-2
State: SOLID (SPLIT MULL), FLUOROLUBE FOR 3800-1330 CM^-^1, NUJOL FOR 1330-400 CM^-^1
Class: COBLENTZ III
Instrument: DOW KBr FOREPRISM-GRATING
Instrument parameters: BLAZED AT 3.5, 12.0, 20.0 MICRON AND CHANGED AT 5.0, 7.5, 14.9 MICRON
Sampling: TRANSMISSION
Resolution: 2
Origin: DOW CHEMICAL COMPANY
1/CM	TRANSMITTANCE
389	0.8028
398	0.8098
407	0.8151
416	0.7883
425	0.7186
434	0.7351
443	0.8143
452	0.8131
461	0.8005
470	0.8097
479	0.8441
488	0.8706
497	0.8747
506	0.8795
515	0.8067
524	0.8758
533	0.8271
542	0.675
551	0.9063
560	0.8975
569	0.8463
578	0.8786
587	0.8466
596	0.8288
605	0.7575
614	0.6047
623	0.8596
632	0.8568
641	0.8365
650	0.8105
659	0.7811
668	0.7992
677	0.776
686	0.7391
695	0.6739
704	0.4734
713	0.6908
722	0.5248
731	0.5186
740	0.6106
749	0.576
758	0.5665
767	0.6112
776	0.5959
785	0.591
794	0.5903
803	0.6062
812	0.4986
821	0.2651
830	0.3109
839	0.4912
848	0.5721
857	0.6118
866	0.4462
875	0.6194
884	0.7134
893	0.7561
902	0.7783
911	0.7948
920	0.7857
929	0.7597
938	0.6631
947	0.7314
956	0.7769
965	0.7515
974	0.7919
983	0.7956
992	0.788
1001	0.7119
1010	0.7182
1019	0.6825
1028	0.7324
1037	0.6808
1046	0.7168
1055	0.7078
1064	0.6872
1073	0.6661
1082	0.6594
1091	0.6568
1100	0.65
1109	0.6497
1118	0.614
1127	0.4771
1136	0.5785
1145	0.5691
1154	0.6565
1163	0.684
1172	0.6789
1181	0.6721
1190	0.6615
1199	0.6132
1208	0.629
1217	0.5696
1226	0.6006
1235	0.5527
1244	0.4773
1253	0.4507
1262	0.2623
1271	0.2703
1280	0.4939
1289	0.4858
1298	0.3349
1307	0.3525
1316	0.4645
1325	0.5329
1334	0.4732
1343	0.3194
1352	0.3298
1361	0.3971
1370	0.3668
1379	0.4405
1388	0.427
1397	0.3939
1406	0.4028
1415	0.3643
1424	0.351
1433	0.4314
1442	0.4275
1451	0.3956
1460	0.3412
1469	0.2478
1478	0.3558
1487	0.5191
1496	0.5086
1505	0.519
1514	0.4787
1523	0.4352
1532	0.3962
1541	0.363
1550	0.3774
1559	0.5112
1568	0.4894
1577	0.4168
1586	0.356
1595	0.339
1604	0.395
1613	0.3262
1622	0.4824
1631	0.491
1640	0.4757
1649	0.4358
1658	0.3796
1667	0.3214
1676	0.4427
1685	0.6945
1694	0.6956
1703	0.671
1712	0.6515
1721	0.6337
1730	0.6226
1739	0.6152
1748	0.607
1757	0.5986
1766	0.5918
1775	0.5856
1784	0.5796
1793	0.5737
1802	0.5677
1811	0.5619
1820	0.5569
1829	0.552
1838	0.5474
1847	0.543
1856	0.5386
1865	0.535
1874	0.5324
1883	0.536
1892	0.5371
1901	0.5362
1910	0.534
1919	0.5308
1928	0.5272
1937	0.5238
1946	0.5203
1955	0.5166
1964	0.5126
1973	0.5062
1982	0.5
1991	0.4936
2000	0.4884
2009	0.4849
2018	0.482
2027	0.479
2036	0.476
2045	0.473
2054	0.47
2063	0.467
2072	0.464
2081	0.461
2090	0.4585
2099	0.4559
2108	0.4534
2117	0.4508
2126	0.4482
2135	0.4456
2144	0.443
2153	0.4403
2162	0.4376
2171	0.4348
2180	0.4321
2189	0.4294
2198	0.4266
2207	0.4241
2216	0.4225
2225	0.4198
2234	0.4147
2243	0.4095
2252	0.4042
2261	0.3988
2270	0.3934
2279	0.3876
2288	0.3841
2297	0.3824
2306	0.3808
2315	0.3794
2324	0.3782
2333	0.3771
2342	0.3772
2351	0.3777
2360	0.3784
2369	0.3787
2378	0.3792
2387	0.3795
2396	0.3799
2405	0.3802
2414	0.38
2423	0.3797
2432	0.3798
2441	0.3799
2450	0.3788
2459	0.3777
2468	0.3766
2477	0.3754
2486	0.3742
2495	0.3729
2504	0.3716
2513	0.3705
2522	0.3694
2531	0.3684
2540	0.3674
2549	0.3662
2558	0.3653
2567	0.3639
2576	0.3626
2585	0.3612
2594	0.36
2603	0.3584
2612	0.3571
2621	0.3555
2630	0.3541
2639	0.3526
2648	0.3509
2657	0.3494
2666	0.3478
2675	0.346
2684	0.3446
2693	0.343
2702	0.3414
2711	0.3398
2720	0.3382
2729	0.3366
2738	0.335
2747	0.3334
2756	0.3318
2765	0.3303
2774	0.3287
2783	0.3271
2792	0.325
2801	0.3226
2810	0.3203
2819	0.318
2828	0.3159
2837	0.3135
2846	0.3105
2855	0.3069
2864	0.3058
2873	0.3043
2882	0.301
2891	0.2964
2900	0.2917
2909	0.2863
2918	0.2792
2927	0.2747
2936	0.2744
2945	0.2756
2954	0.277
2963	0.2783
2972	0.2797
2981	0.28
2990	0.2781
2999	0.2759
3008	0.2729
3017	0.2698
3026	0.2688
3035	0.2678
3044	0.2679
3053	0.2711
3062	0.2772
3071	0.2903
3080	0.2934
3089	0.2897
3098	0.2846
3107	0.2815
3116	0.2791
3125	0.2793
3134	0.2782
3143	0.2759
3152	0.2719
3161	0.2674
3170	0.2641
3179	0.2616
3188	0.261
3197	0.2601
3206	0.2576
3215	0.2549
3224	0.2533
3233	0.2541
3242	0.2576
3251	0.2612
3260	0.2639
3269	0.2657
3278	0.2671
3287	0.2667
3296	0.2654
3305	0.274
3314	0.2868
3323	0.2931
3332	0.2867
3341	0.2755
3350	0.2628
3359	0.249
3368	0.2442
3377	0.3143
3386	0.325
3395	0.3234
3404	0.3212
3413	0.319
3422	0.3167
3431	0.3143
3440	0.3122
3449	0.3104
3458	0.3085
3467	0.3068
3476	0.3056
3485	0.3045
3494	0.3034
3503	0.3022
3512	0.3011
3521	0.3002
3530	0.2994
3539	0.2987
3548	0.2979
3557	0.2972
3566	0.2964
3575	0.2948
3584	0.2932
3593	0.2916
3602	0.29
3611	0.2884
3620	0.287
3629	0.2857
3638	0.2844
3647	0.2831
3656	0.2818
3665	0.2806
3674	0.2803
3683	0.2799
3692	0.2797
3701	0.2794
3710	0.2791
3719	0.2788
3728	0.2783
3737	0.2776
3746	0.2768
3755	0.2763
3764	0.2763
3773	0.2763
3782	0.2763
3791	0.2763
3800	0.2763
