Infrared Spectrum: 2-Butanol, 3,3'-iminodi-
Formula: C8 H19 N O2
CAS: 6959-06-4
State: LIQUID (NEAT)
Class: COBLENTZ III
Instrument: DOW KBr FOREPRISM-GRATING
Instrument parameters: BLAZED AT 3.5, 12.0, 20.0 MICRON AND CHANGED AT 5.0, 7.5, 14.9 MICRON
Sampling: TRANSMISSION
Path length: CAPILLARY
Resolution: 2
Origin: DOW CHEMICAL COMPANY
1/CM	TRANSMITTANCE
458	0.5801
467	0.5769
476	0.5742
485	0.5737
494	0.5725
503	0.5664
512	0.5584
521	0.549
530	0.5391
539	0.5305
548	0.5255
557	0.5236
566	0.5218
575	0.5203
584	0.5195
593	0.5201
602	0.5207
611	0.5221
620	0.522
629	0.5176
638	0.5093
647	0.5112
656	0.5196
665	0.5301
674	0.5337
683	0.5399
692	0.5442
701	0.5481
710	0.5498
719	0.549
728	0.545
737	0.542
746	0.5391
755	0.5365
764	0.5385
773	0.5371
782	0.5327
791	0.543
800	0.5612
809	0.5609
818	0.5784
827	0.5854
836	0.5828
845	0.5719
854	0.5673
863	0.5968
872	0.6567
881	0.5755
890	0.4893
899	0.4275
908	0.3879
917	0.4448
926	0.4144
935	0.5545
944	0.5898
953	0.6075
962	0.645
971	0.5946
980	0.6
989	0.5215
998	0.4238
1007	0.3637
1016	0.4226
1025	0.4936
1034	0.5181
1043	0.4676
1052	0.3613
1061	0.2911
1070	0.2553
1079	0.2279
1088	0.2035
1097	0.2192
1106	0.2372
1115	0.2512
1124	0.2697
1133	0.3086
1142	0.3568
1151	0.3762
1160	0.3805
1169	0.4071
1178	0.503
1187	0.5592
1196	0.6449
1205	0.6845
1214	0.6838
1223	0.6641
1232	0.6358
1241	0.5956
1250	0.5479
1259	0.4797
1268	0.4354
1277	0.4194
1286	0.4048
1295	0.3982
1304	0.4059
1313	0.4089
1322	0.4032
1331	0.4103
1340	0.4378
1349	0.4636
1358	0.454
1367	0.3673
1376	0.231
1385	0.2204
1394	0.3643
1403	0.3514
1412	0.3333
1421	0.3712
1430	0.3874
1439	0.3396
1448	0.2481
1457	0.2378
1466	0.293
1475	0.3866
1484	0.4842
1493	0.5973
1502	0.6501
1511	0.7006
1520	0.724
1529	0.7365
1538	0.7412
1547	0.7418
1556	0.7397
1565	0.7357
1574	0.734
1583	0.7391
1592	0.745
1601	0.7428
1610	0.7334
1619	0.7192
1628	0.707
1637	0.707
1646	0.7069
1655	0.7042
1664	0.7172
1673	0.7415
1682	0.763
1691	0.7811
1700	0.7931
1709	0.8031
1718	0.8103
1727	0.8149
1736	0.818
1745	0.821
1754	0.8226
1763	0.8239
1772	0.8249
1781	0.826
1790	0.8279
1799	0.829
1808	0.8297
1817	0.8302
1826	0.8307
1835	0.8311
1844	0.8315
1853	0.8318
1862	0.8321
1871	0.832
1880	0.8318
1889	0.8318
1898	0.8318
1907	0.8319
1916	0.8319
1925	0.8319
1934	0.8315
1943	0.8311
1952	0.8309
1961	0.8308
1970	0.8312
1979	0.8321
1988	0.8334
1997	0.8371
2006	0.8396
2015	0.8392
2024	0.8396
2033	0.8398
2042	0.8401
2051	0.8404
2060	0.8406
2069	0.8405
2078	0.84
2087	0.8394
2096	0.839
2105	0.8384
2114	0.8378
2123	0.8371
2132	0.8362
2141	0.8354
2150	0.8347
2159	0.8342
2168	0.8338
2177	0.8337
2186	0.8337
2195	0.8334
2204	0.8332
2213	0.8327
2222	0.8323
2231	0.8318
2240	0.8314
2249	0.8313
2258	0.8312
2267	0.8311
2276	0.8296
2285	0.8278
2294	0.8261
2303	0.8243
2312	0.8224
2321	0.8205
2330	0.8188
2339	0.8171
2348	0.8149
2357	0.8121
2366	0.8115
2375	0.8116
2384	0.8118
2393	0.8117
2402	0.8104
2411	0.8084
2420	0.8062
2429	0.8036
2438	0.8006
2447	0.7964
2456	0.7923
2465	0.7882
2474	0.7844
2483	0.7811
2492	0.777
2501	0.7725
2510	0.7679
2519	0.7629
2528	0.7547
2537	0.746
2546	0.7369
2555	0.7283
2564	0.7209
2573	0.7135
2582	0.706
2591	0.6984
2600	0.6931
2609	0.6883
2618	0.6843
2627	0.6796
2636	0.6735
2645	0.6667
2654	0.6597
2663	0.6527
2672	0.6447
2681	0.6364
2690	0.6277
2699	0.6186
2708	0.6096
2717	0.601
2726	0.5962
2735	0.5941
2744	0.5922
2753	0.5882
2762	0.5819
2771	0.5723
2780	0.5557
2789	0.5309
2798	0.5048
2807	0.4755
2816	0.4465
2825	0.4175
2834	0.3885
2843	0.3594
2852	0.3304
2861	0.3021
2870	0.2813
2879	0.2253
2888	0.2303
2897	0.2338
2906	0.232
2915	0.2256
2924	0.2059
2933	0.2005
2942	0.2459
2951	0.2896
2960	0.215
2969	0.0621
2978	0.0567
2987	0.139
2996	0.2636
3005	0.4802
3014	0.5175
3023	0.5339
3032	0.5322
3041	0.5273
3050	0.5178
3059	0.5075
3068	0.4979
3077	0.4888
3086	0.4783
3095	0.4671
3104	0.4553
3113	0.4431
3122	0.43
3131	0.4152
3140	0.4005
3149	0.3858
3158	0.3703
3167	0.3542
3176	0.338
3185	0.3219
3194	0.3083
3203	0.2946
3212	0.2801
3221	0.2654
3230	0.2512
3239	0.2374
3248	0.2243
3257	0.2112
3266	0.1979
3275	0.1829
3284	0.1698
3293	0.1581
3302	0.1485
3311	0.1409
3320	0.1368
3329	0.1336
3338	0.1314
3347	0.1294
3356	0.1287
3365	0.1279
3374	0.1304
3383	0.1283
3392	0.1297
3401	0.1318
3410	0.1359
3419	0.1409
3428	0.1507
3437	0.1658
3446	0.1803
3455	0.1922
3464	0.2141
3473	0.242
3482	0.2734
3491	0.3167
3500	0.3519
3509	0.4124
3518	0.4363
3527	0.4645
3536	0.5001
3545	0.5304
3554	0.5677
3563	0.6238
3572	0.6631
3581	0.6955
3590	0.7178
3599	0.7378
3608	0.7616
3617	0.7819
3626	0.7983
3635	0.8117
3644	0.8227
3653	0.8317
3662	0.8389
3671	0.8436
3680	0.8472
3689	0.8515
3698	0.8572
3707	0.861
3716	0.8642
3725	0.8653
3734	0.8663
3743	0.8672
3752	0.868
3761	0.8688
3770	0.8691
3779	0.869
3788	0.8684
