Infrared Spectrum: Cyclooctanol
Formula: C 8 H 16 O
CAS: 696-71-9
State: gas
Instrument: HP-GC/MS/IRD
Origin: NIST Mass Spectrometry Data Center
1/CM	ABSORBANCE
550	0.0005394
562	0.0002088
574	0.0002088
586	0.0001566
598	0.000116
610	5.8e-05
622	5.8e-06
634	5.22e-05
646	0.000145
658	6.38e-05
670	0.0001102
682	0.0001218
694	0.0002146
706	0.0003364
718	0.000319
730	0.0003712
742	0.0004292
754	0.0005394
766	0.0007134
778	0.0008468
790	0.0008642
802	0.0008874
814	0.0008178
826	0.000551
838	0.0005162
850	0.0004814
862	0.0005046
874	0.0007076
886	0.0009686
898	0.0011194
910	0.000986
922	0.0009164
934	0.0013688
946	0.0020184
958	0.002842
970	0.0045066
982	0.0066758
994	0.0066874
1006	0.0047328
1018	0.0032712
1030	0.0035902
1042	0.0065192
1054	0.0080446
1066	0.0054114
1078	0.0034974
1090	0.0031262
1102	0.0028072
1114	0.002726
1126	0.0024476
1138	0.0018676
1150	0.0014616
1162	0.0015254
1174	0.001885
1186	0.0021344
1198	0.0024012
1210	0.002784
1222	0.0032538
1234	0.0035322
1246	0.0035612
1258	0.0032596
1270	0.0026274
1282	0.0021054
1294	0.0016994
1306	0.0014906
1318	0.0015602
1330	0.0018618
1342	0.0022388
1354	0.0026796
1366	0.0028536
1378	0.0025926
1390	0.002117
1402	0.0016704
1414	0.0013166
1426	0.001624
1438	0.0036598
1450	0.0059682
1462	0.00609
1474	0.0047212
1486	0.0026796
1498	0.0011194
1510	0.0004408
1522	0.0003074
1534	0.0002494
1546	0.0001682
1558	0.0001334
1570	0.0001508
1582	0.0001856
1594	0.0001624
1606	0.0001276
1618	0.000116
1630	0.0001102
1642	9.86e-05
1654	6.38e-05
1666	7.54e-05
1678	7.54e-05
1690	5.22e-05
1702	1.74e-05
1714	2.9e-05
1726	6.38e-05
1738	4.64e-05
1750	1.74e-05
1762	6.38e-05
1774	5.22e-05
1786	5.8e-05
1798	3.48e-05
1810	4.64e-05
1822	5.8e-05
1834	5.22e-05
1846	4.06e-05
1858	7.54e-05
1870	6.38e-05
1882	8.7e-05
1894	7.54e-05
1906	7.54e-05
1918	6.96e-05
1930	8.7e-05
1942	8.7e-05
1954	7.54e-05
1966	6.96e-05
1978	7.54e-05
1990	4.64e-05
2002	6.96e-05
2014	5.8e-05
2026	4.06e-05
2038	4.06e-05
2050	4.64e-05
2062	4.06e-05
2074	3.48e-05
2086	4.64e-05
2098	5.22e-05
2110	6.96e-05
2122	6.38e-05
2134	7.54e-05
2146	7.54e-05
2158	6.38e-05
2170	5.22e-05
2182	4.64e-05
2194	5.8e-05
2206	6.38e-05
2218	4.64e-05
2230	7.54e-05
2242	6.38e-05
2254	6.38e-05
2266	8.12e-05
2278	5.8e-05
2290	4.64e-05
2302	6.38e-05
2314	5.8e-05
2326	2.9e-05
2338	2.9e-05
2350	2.32e-05
2362	0
2374	1.74e-05
2386	5.8e-06
2398	4.06e-05
2410	0
2422	5.22e-05
2434	6.38e-05
2446	6.38e-05
2458	4.64e-05
2470	5.22e-05
2482	4.64e-05
2494	5.8e-05
2506	4.06e-05
2518	5.8e-05
2530	8.7e-05
2542	0.0001044
2554	0.000145
2566	0.000174
2578	0.000174
2590	0.0002262
2602	0.0002378
2614	0.0002784
2626	0.000348
2638	0.0003828
2650	0.0004814
2662	0.0005974
2674	0.0008236
2686	0.000986
2698	0.0010788
2710	0.0009802
2722	0.0008642
2734	0.0007482
2746	0.0007366
2758	0.0007656
2770	0.000841
2782	0.001015
2794	0.0012702
2806	0.0015718
2818	0.0019894
2830	0.002755
2842	0.0053882
2854	0.0120524
2866	0.0169012
2878	0.0154338
2890	0.014094
2902	0.0191458
2914	0.033872
2926	0.0548854
2938	0.0541024
2950	0.031987
2962	0.0147668
2974	0.006467
2986	0.0028826
2998	0.0015138
3010	0.0009454
3022	0.0006902
3034	0.000493
3046	0.0003248
3058	0.0002726
3070	0.000232
3082	0.0001856
3094	0.0001798
3106	0.0001624
3118	0.0001508
3130	0.0001508
3142	0.0001276
3154	0.0001044
3166	5.8e-05
3178	7.54e-05
3190	5.8e-05
3202	8.7e-05
3214	6.96e-05
3226	2.32e-05
3238	3.48e-05
3250	5.22e-05
3262	1.74e-05
3274	6.96e-05
3286	5.8e-06
3298	0
3310	4.06e-05
3322	1.74e-05
3334	1.16e-05
3346	2.9e-05
3358	5.22e-05
3370	8.12e-05
3382	8.12e-05
3394	9.86e-05
3406	0.0001276
3418	0.0001392
3430	0.0001276
3442	9.28e-05
3454	9.28e-05
3466	4.64e-05
3478	6.38e-05
3490	4.64e-05
3502	1.74e-05
3514	5.8e-05
3526	3.48e-05
3538	6.38e-05
3550	1.74e-05
3562	5.22e-05
3574	5.8e-05
3586	3.48e-05
3598	0.0001276
3610	0.0001392
3622	0.0003886
3634	0.00116
3646	0.0022968
3658	0.0019024
3670	0.000609
3682	0.000232
3694	0.0001624
3706	0.0001218
3718	0.0001218
3730	0.0001102
3742	5.8e-05
3754	8.12e-05
3766	0.000116
3778	0.0001624
3790	0.000145
3802	0.0001334
3814	0.0001392
3826	0.0001566
3838	0.0001102
