Infrared Spectrum: Hydrouracil, 5-methyl-
Formula: C5 H8 N2 O2
CAS: 696-04-8
State: SOLID (KBr DISC)
Class: COBLENTZ III
Instrument: PERKIN-ELMER 21 (GRATING)
Instrument parameters: FILTER CHANGE ABOUT 1090 CM^-^1
Sampling: TRANSMISSION
Resolution: 2
Origin: SOUTHERN RESEARCH INSTITUTE
1/CM	TRANSMITTANCE
604	0.8045
613.027	0.8013
622.053	0.791
631.08	0.7659
640.106	0.7342
649.133	0.6898
658.159	0.6532
667.186	0.6158
676.212	0.5763
685.239	0.5473
694.265	0.5366
703.292	0.666
712.318	0.6626
721.345	0.6424
730.371	0.6127
739.398	0.568
748.424	0.449
757.451	0.3512
766.477	0.5217
775.504	0.5374
784.53	0.5467
793.557	0.4789
802.583	0.3997
811.61	0.3492
820.636	0.3503
829.663	0.3956
838.689	0.4807
847.716	0.5628
856.742	0.6593
865.769	0.7038
874.795	0.73
883.822	0.7416
892.848	0.7413
901.875	0.7398
910.901	0.7374
919.928	0.749
928.954	0.7553
937.981	0.7565
947.007	0.7652
956.034	0.7717
965.06	0.7734
974.087	0.7687
983.113	0.7655
992.14	0.7618
1001.17	0.76
1010.19	0.7716
1019.22	0.77
1028.25	0.764
1037.27	0.761
1046.3	0.7576
1055.33	0.7502
1064.35	0.7396
1073.38	0.7228
1082.4	0.6469
1091.43	0.6723
1100.46	0.6052
1109.48	0.6091
1118.51	0.6046
1127.54	0.5118
1136.56	0.6416
1145.59	0.6625
1154.62	0.6379
1163.64	0.689
1172.67	0.6681
1181.7	0.6381
1190.72	0.6146
1199.75	0.5661
1208.78	0.4919
1217.8	0.2851
1226.83	0.0884
1235.86	0.0627
1244.88	0.0915
1253.91	0.3751
1262.93	0.6024
1271.96	0.6427
1280.99	0.6395
1290.01	0.6896
1299.04	0.729
1308.07	0.7222
1317.09	0.6973
1326.12	0.6385
1335.15	0.5237
1344.17	0.544
1353.2	0.6063
1362.23	0.5972
1371.25	0.5685
1380.28	0.4391
1389.31	0.2646
1398.33	0.2665
1407.36	0.4418
1416.39	0.4373
1425.41	0.3772
1434.44	0.4268
1443.46	0.4536
1452.49	0.4522
1461.52	0.4063
1470.54	0.4044
1479.57	0.4506
1488.6	0.3127
1497.62	0.1905
1506.65	0.2334
1515.68	0.4096
1524.7	0.4531
1533.73	0.5392
1542.76	0.617
1551.78	0.6501
1560.81	0.69
1569.84	0.7156
1578.86	0.6903
1587.89	0.679
1596.92	0.6628
1605.94	0.6379
1614.97	0.6087
1623.99	0.5767
1633.02	0.549
1642.05	0.5209
1651.07	0.4713
1660.1	0.395
1669.13	0.2828
1678.15	0.2096
1687.18	0.1388
1696.21	0.0877
1705.23	0.0416
1714.26	0.0425
1723.29	0.0536
1732.31	0.0508
1741.34	0.0557
1750.37	0.0663
1759.39	0.0778
1768.42	0.1679
1777.45	0.3378
1786.47	0.4305
1795.5	0.485
1804.52	0.5372
1813.55	0.5809
1822.58	0.6108
1831.6	0.6345
1840.63	0.6545
1849.66	0.6724
1858.68	0.6904
1867.71	0.7072
1876.74	0.7217
1885.76	0.7271
1894.79	0.7314
1903.82	0.742
1912.84	0.75
1921.87	0.7601
1930.9	0.7634
1939.92	0.7644
1948.95	0.7655
1957.98	0.7796
1967	0.7816
1976.03	0.7842
1985.05	0.787
1994.08	0.7867
2003.11	0.7815
2012.13	0.7778
2021.16	0.7824
2030.19	0.7877
2039.21	0.7892
2048.24	0.7917
2057.27	0.7975
2066.29	0.8062
2075.32	0.8021
2084.35	0.7995
2093.37	0.7983
2102.4	0.8006
2111.43	0.8105
2120.45	0.8047
2129.48	0.792
2138.51	0.7916
2147.53	0.792
2156.56	0.7926
2165.58	0.7943
2174.61	0.7966
2183.64	0.7994
2192.66	0.8027
2201.69	0.8016
2210.72	0.7966
2219.74	0.7925
2228.77	0.7904
2237.8	0.789
2246.82	0.7882
2255.85	0.7882
2264.88	0.7886
2273.9	0.7879
2282.93	0.7846
2291.96	0.7788
2300.98	0.7734
2310.01	0.7688
2319.04	0.7655
2328.06	0.7632
2337.09	0.7639
2346.11	0.7657
2355.14	0.7638
2364.17	0.758
2373.19	0.7639
2382.22	0.7691
2391.25	0.7682
2400.27	0.7658
2409.3	0.7626
2418.33	0.7637
2427.35	0.7607
2436.38	0.7454
2445.41	0.7435
2454.43	0.7436
2463.46	0.7459
2472.49	0.7503
2481.51	0.7498
2490.54	0.7434
2499.57	0.7374
2508.59	0.7365
2517.62	0.7358
2526.64	0.7352
2535.67	0.7345
2544.7	0.7315
2553.72	0.7273
2562.75	0.7226
2571.78	0.717
2580.8	0.7103
2589.83	0.7055
2598.86	0.7026
2607.88	0.7021
2616.91	0.703
2625.94	0.7078
2634.96	0.7186
2643.99	0.7249
2653.02	0.7065
2662.04	0.6988
2671.07	0.6943
2680.1	0.6896
2689.12	0.6851
2698.15	0.6807
2707.17	0.6734
2716.2	0.6676
2725.23	0.661
2734.25	0.6454
2743.28	0.6333
2752.31	0.6233
2761.33	0.6111
2770.36	0.5971
2779.39	0.5808
2788.41	0.5587
2797.44	0.5255
2806.47	0.5001
2815.49	0.4801
2824.52	0.4585
2833.55	0.4326
2842.57	0.4111
2851.6	0.4091
2860.63	0.3971
2869.65	0.3722
2878.68	0.3532
2887.7	0.3413
2896.73	0.3336
2905.76	0.3328
2914.78	0.339
2923.81	0.353
2932.84	0.3686
2941.86	0.3723
2950.89	0.3761
2959.92	0.3831
2968.94	0.3815
2977.97	0.3506
2987	0.3239
2996.02	0.3299
3005.05	0.3327
3014.08	0.3298
3023.1	0.3242
3032.13	0.3182
3041.16	0.3108
3050.18	0.2965
3059.21	0.2484
3068.23	0.2294
3077.26	0.2194
3086.29	0.2144
3095.31	0.21
3104.34	0.2058
3113.37	0.2152
3122.39	0.2369
3131.42	0.2466
3140.45	0.2588
3149.47	0.2581
3158.5	0.253
3167.53	0.2426
3176.55	0.2309
3185.58	0.2176
3194.61	0.2039
3203.63	0.1883
3212.66	0.1713
3221.69	0.158
3230.71	0.1536
3239.74	0.1576
3248.77	0.1629
3257.79	0.171
3266.82	0.1884
3275.84	0.2244
3284.87	0.239
3293.9	0.2705
3302.92	0.3065
3311.95	0.3434
3320.98	0.3752
3330	0.3987
3339.03	0.4184
3348.06	0.4299
3357.08	0.4393
3366.11	0.4457
3375.14	0.4491
3384.16	0.4519
3393.19	0.4553
3402.22	0.4599
3411.24	0.465
3420.27	0.4733
3429.3	0.4822
3438.32	0.4868
3447.35	0.4924
3456.37	0.5036
3465.4	0.5181
3474.43	0.5233
3483.45	0.5378
3492.48	0.5492
3501.51	0.5476
3510.53	0.5562
3519.56	0.5595
3528.59	0.5709
3537.61	0.5721
3546.64	0.5759
3555.67	0.5938
3564.69	0.599
3573.72	0.6067
3582.75	0.6229
3591.77	0.6334
3600.8	0.6397
3609.83	0.646
3618.85	0.6527
3627.88	0.6611
3636.9	0.6701
3645.93	0.6749
3654.96	0.6769
3663.98	0.6835
3673.01	0.6931
3682.04	0.6915
3691.06	0.6911
3700.09	0.6909
3709.12	0.6918
3718.14	0.6948
3727.17	0.6999
3736.2	0.7066
3745.22	0.7095
3754.25	0.7105
3763.28	0.7111
3772.3	0.711
3781.33	0.7098
3790.36	0.7045
3799.38	0.7029
3808.41	0.7028
3817.43	0.7036
3826.46	0.7127
3835.49	0.7132
3844.51	0.7124
3853.54	0.7106
3862.57	0.7079
3871.59	0.7088
3880.62	0.7106
3889.65	0.7052
3898.67	0.6987
3907.7	0.6988
3916.73	0.6986
3925.75	0.6981
3934.78	0.6979
3943.81	0.6979
3952.83	0.698
3961.86	0.6984
3970.89	0.6988
3979.91	0.6993
3988.94	0.6882
3997.96	0.6838
4006.99	0.6739
