Infrared Spectrum: Allylmorpholine
Formula: C 7 H 13 N O
CAS: 696-57-1
State: gas
Instrument: HP-GC/MS/IRD
Origin: NIST Mass Spectrometry Data Center
1/CM	ABSORBANCE
550	0.0005544
562	0.0008052
574	0.0011781
586	0.0019008
598	0.0020559
610	0.0010098
622	0.0005841
634	0.0005247
646	0.0004026
658	0.0004026
670	0.0002409
682	0.0001848
694	0.0001848
706	0.0001155
718	0.0001188
730	5.28e-05
742	7.26e-05
754	0.0001485
766	0.0002574
778	0.0005412
790	0.0012639
802	0.0017424
814	0.0012078
826	0.0006732
838	0.0010791
850	0.0028644
862	0.006798
874	0.0063987
886	0.0040326
898	0.0055638
910	0.0074085
922	0.0093126
934	0.0068508
946	0.0029898
958	0.001914
970	0.0023232
982	0.0043857
994	0.0090255
1006	0.0131934
1018	0.0088902
1030	0.0036531
1042	0.0023364
1054	0.0020724
1066	0.0027951
1078	0.0033132
1090	0.0044121
1102	0.0102762
1114	0.0232683
1126	0.0329901
1138	0.0245949
1150	0.0105501
1162	0.004785
1174	0.0025212
1186	0.0016236
1198	0.0016368
1210	0.0017457
1222	0.0017424
1234	0.0025014
1246	0.0030228
1258	0.003498
1270	0.0050226
1282	0.0070719
1294	0.0076692
1306	0.0055176
1318	0.0047421
1330	0.0060456
1342	0.0061941
1354	0.0047388
1366	0.0031812
1378	0.0025905
1390	0.0020493
1402	0.0018348
1414	0.0028116
1426	0.003399
1438	0.0033792
1450	0.0049203
1462	0.0047553
1474	0.0022341
1486	0.0007425
1498	0.0003168
1510	0.0001914
1522	0.000165
1534	0.0001287
1546	9.9e-05
1558	5.61e-05
1570	0.0001023
1582	0.0001353
1594	0.0001452
1606	0.0001881
1618	0.00033
1630	0.0008778
1642	0.0014685
1654	0.0009207
1666	0.0002013
1678	6.93e-05
1690	2.97e-05
1702	4.29e-05
1714	6.93e-05
1726	7.59e-05
1738	4.62e-05
1750	2.64e-05
1762	6.6e-06
1774	1.65e-05
1786	1.32e-05
1798	1.98e-05
1810	6.27e-05
1822	0.0001485
1834	0.0004224
1846	0.0007161
1858	0.000594
1870	0.0002244
1882	8.91e-05
1894	8.58e-05
1906	0.0001617
1918	0.0002013
1930	0.0002574
1942	0.0002508
1954	0.0002343
1966	0.0003201
1978	0.0004389
1990	0.0003861
2002	0.000198
2014	6.27e-05
2026	5.61e-05
2038	4.95e-05
2050	1.98e-05
2062	2.31e-05
2074	5.28e-05
2086	7.26e-05
2098	5.94e-05
2110	5.28e-05
2122	3.63e-05
2134	3.63e-05
2146	7.26e-05
2158	3.63e-05
2170	2.64e-05
2182	2.97e-05
2194	6.6e-06
2206	2.31e-05
2218	2.31e-05
2230	6.93e-05
2242	0.0001056
2254	0.0001287
2266	0.0001056
2278	0.0001023
2290	0.0001221
2302	8.25e-05
2314	9.24e-05
2326	2.31e-05
2338	9.9e-06
2350	4.29e-05
2362	0
2374	7.92e-05
2386	8.25e-05
2398	7.92e-05
2410	8.25e-05
2422	5.28e-05
2434	6.93e-05
2446	5.94e-05
2458	8.91e-05
2470	8.58e-05
2482	0.0001023
2494	8.91e-05
2506	0.0001155
2518	9.9e-05
2530	0.0001056
2542	0.0001419
2554	0.0001947
2566	0.0003036
2578	0.0003168
2590	0.0002607
2602	0.0004059
2614	0.0004686
2626	0.0006072
2638	0.0008679
2650	0.0012606
2662	0.0015246
2674	0.0020163
2686	0.0026928
2698	0.0029667
2710	0.0028413
2722	0.0030624
2734	0.0040194
2746	0.0054417
2758	0.0067089
2770	0.0077451
2782	0.0108768
2794	0.0176253
2806	0.0229416
2818	0.0197769
2830	0.0129954
2842	0.0109791
2854	0.0168927
2866	0.0204468
2878	0.0141768
2890	0.0111771
2902	0.0125268
2914	0.0141306
2926	0.0154209
2938	0.0150315
2950	0.0151833
2962	0.0213213
2974	0.0211761
2986	0.0098538
2998	0.0038973
3010	0.0027456
3022	0.0023166
3034	0.0013926
3046	0.0011715
3058	0.0014388
3070	0.0023199
3082	0.0038049
3094	0.0035376
3106	0.0014586
3118	0.0004917
3130	0.00033
3142	0.000264
3154	0.0002772
3166	0.0002442
3178	0.0001749
3190	0.0001683
3202	0.0001881
3214	0.0001881
3226	0.0002145
3238	0.0001815
3250	0.000132
3262	8.91e-05
3274	8.58e-05
3286	8.91e-05
3298	0.0001221
3310	9.57e-05
3322	8.91e-05
3334	6.93e-05
3346	7.92e-05
3358	4.62e-05
3370	7.59e-05
3382	9.9e-06
3394	7.92e-05
3406	7.26e-05
3418	6.93e-05
3430	8.58e-05
3442	8.58e-05
3454	0.0001386
3466	0.0001155
3478	3.63e-05
3490	6.93e-05
3502	7.26e-05
3514	8.58e-05
3526	7.26e-05
3538	7.92e-05
3550	7.26e-05
3562	0.0001287
3574	0.0001188
3586	0.0001056
3598	7.92e-05
3610	0.0001155
3622	0.0001023
3634	0.0001089
3646	9.57e-05
3658	0.0001287
3670	7.92e-05
3682	6.27e-05
3694	0.0001188
3706	0.0001518
3718	0.0001221
3730	9.9e-05
3742	6.6e-05
3754	0.000165
3766	0.0001551
3778	0.0001518
3790	0.0001815
3802	0.0002112
3814	0.0001716
3826	0.0001419
3838	0.0001617
