Infrared Spectrum: Isopropylcyclohexane
Formula: C 9 H 18
CAS: 696-29-7
State: gas
Instrument: HP-GC/MS/IRD
Origin: NIST Mass Spectrometry Data Center
1/CM	ABSORBANCE
550	0.0001225
562	0.0001475
574	9.25e-05
586	2e-05
598	6.25e-05
610	0.000135
622	2.25e-05
634	0.0001225
646	9.5e-05
658	6.25e-05
670	1.75e-05
682	0.0001025
694	5.25e-05
706	6.25e-05
718	7.75e-05
730	8e-05
742	0.0001025
754	2e-05
766	6.75e-05
778	5.75e-05
790	0.0001475
802	3.5e-05
814	8.25e-05
826	0.00021
838	0.00021
850	0.0002725
862	0.0002225
874	0.0002075
886	0.000345
898	0.0003025
910	0.0002225
922	0.0001475
934	0.0001525
946	0.0001075
958	0.0001075
970	0.0001225
982	0.0001325
994	0.000205
1006	0.00023
1018	0.00028
1030	0.00022
1042	0.0001225
1054	0.00016
1066	0.0001875
1078	0.000185
1090	0.0001575
1102	9.25e-05
1114	0.0001125
1126	0.000125
1138	0.0001625
1150	0.000225
1162	0.0002925
1174	0.00032
1186	0.0002975
1198	0.00022
1210	0.000165
1222	0.0001375
1234	0.0002625
1246	0.0002775
1258	0.00038
1270	0.000385
1282	0.00032
1294	0.0002975
1306	0.00029
1318	0.0003175
1330	0.00038
1342	0.00039
1354	0.00052
1366	0.000855
1378	0.0012325
1390	0.001105
1402	0.0005675
1414	0.0003175
1426	0.000395
1438	0.00098
1450	0.001935
1462	0.001965
1474	0.0013
1486	0.0006725
1498	0.0003025
1510	0.0001125
1522	7.25e-05
1534	8.75e-05
1546	8.25e-05
1558	3.5e-05
1570	8.5e-05
1582	0.0001025
1594	0.0001
1606	9.75e-05
1618	5.5e-05
1630	8e-05
1642	6.5e-05
1654	5e-06
1666	8.75e-05
1678	6.25e-05
1690	7e-05
1702	3.5e-05
1714	4e-05
1726	8e-05
1738	4e-05
1750	6e-05
1762	7e-05
1774	6e-05
1786	5.75e-05
1798	5.5e-05
1810	7e-05
1822	5.25e-05
1834	6e-05
1846	4.5e-05
1858	4.75e-05
1870	3.5e-05
1882	0.0001
1894	7.25e-05
1906	7.25e-05
1918	4.75e-05
1930	3.25e-05
1942	6.25e-05
1954	5.75e-05
1966	5.75e-05
1978	3.75e-05
1990	3.75e-05
2002	5.25e-05
2014	4.5e-05
2026	3.5e-05
2038	3e-05
2050	2.75e-05
2062	4.5e-05
2074	4.5e-05
2086	4.5e-05
2098	3.25e-05
2110	2e-05
2122	2.25e-05
2134	4.25e-05
2146	4e-05
2158	3.75e-05
2170	2.25e-05
2182	6.75e-05
2194	4.75e-05
2206	4.5e-05
2218	6e-05
2230	3.75e-05
2242	4.5e-05
2254	3.25e-05
2266	2.5e-05
2278	1.5e-05
2290	1.25e-05
2302	2.25e-05
2314	1.5e-05
2326	1.25e-05
2338	2.5e-06
2350	3.25e-05
2362	2e-05
2374	4.5e-05
2386	6.5e-05
2398	5.75e-05
2410	5.25e-05
2422	5.5e-05
2434	4.5e-05
2446	2e-05
2458	3.5e-05
2470	2.75e-05
2482	6.25e-05
2494	4.75e-05
2506	4e-05
2518	3.75e-05
2530	5e-05
2542	6.25e-05
2554	6.25e-05
2566	8.5e-05
2578	0.00012
2590	0.00017
2602	0.00018
2614	0.0002
2626	0.00021
2638	0.00024
2650	0.0002625
2662	0.0003425
2674	0.0003725
2686	0.0003025
2698	0.000265
2710	0.0002575
2722	0.000245
2734	0.00029
2746	0.00028
2758	0.0003025
2770	0.0003225
2782	0.0004075
2794	0.00051
2806	0.0006325
2818	0.00079
2830	0.00116
2842	0.002815
2854	0.0072175
2866	0.0092775
2878	0.00738
2890	0.00584
2902	0.0066
2914	0.0114825
2926	0.0212325
2938	0.0238625
2950	0.0155775
2962	0.01103
2974	0.0078825
2986	0.003545
2998	0.00139
3010	0.0007075
3022	0.0005125
3034	0.000445
3046	0.00036
3058	0.00027
3070	0.0002575
3082	0.000225
3094	0.000215
3106	0.0002175
3118	0.0002075
3130	0.000155
3142	0.00019
3154	0.0001975
3166	0.0002025
3178	0.0001725
3190	0.00015
3202	0.000175
3214	0.000135
3226	7.25e-05
3238	8.5e-05
3250	0.0001225
3262	7.75e-05
3274	3.25e-05
3286	8.25e-05
3298	7.5e-05
3310	4e-05
3322	7e-05
3334	5.75e-05
3346	9e-05
3358	7.25e-05
3370	6e-05
3382	8.25e-05
3394	5.25e-05
3406	4.5e-05
3418	4.75e-05
3430	4.75e-05
3442	5.75e-05
3454	5e-05
3466	5.75e-05
3478	3e-05
3490	7.75e-05
3502	5.75e-05
3514	4e-05
3526	2.25e-05
3538	5.5e-05
3550	5.75e-05
3562	4.5e-05
3574	8.5e-05
3586	4.5e-05
3598	7.75e-05
3610	7.5e-06
3622	8e-05
3634	5.5e-05
3646	7.5e-06
3658	5.75e-05
3670	3e-05
3682	7.25e-05
3694	5.25e-05
3706	9.25e-05
3718	6.25e-05
3730	7.5e-06
3742	3e-05
3754	5.75e-05
3766	0.0001025
3778	8.5e-05
3790	9e-05
3802	7e-05
3814	2.75e-05
3826	5.75e-05
3838	2.5e-05
