Infrared Spectrum: 6-Methylnicotinamide
Formula: C 7 H 8 N 2 O
CAS: 6960-22-1
State: gas
Origin: EPA-IR VAPOR PHASE LIBRARY
1/CM	ABSORBANCE
549.8	0.005752
559.445	0.004392
569.09	0.004022
578.734	0.006902
588.379	0.010172
598.024	0.007822
607.669	0.004942
617.313	0.004722
626.958	0.005592
636.603	0.007312
646.248	0.007102
655.893	0.006252
665.537	0.006472
675.182	0.007372
684.827	0.008252
694.472	0.011162
704.116	0.013822
713.761	0.012992
723.406	0.011782
733.051	0.014982
742.695	0.022182
752.34	0.030272
761.985	0.022292
771.63	0.015252
781.275	0.011212
790.919	0.010762
800.564	0.010932
810.209	0.010882
819.854	0.011992
829.498	0.013092
839.143	0.013932
848.788	0.012032
858.433	0.009802
868.078	0.008072
877.722	0.007762
887.367	0.007472
897.012	0.006942
906.657	0.006652
916.301	0.006552
925.946	0.006552
935.591	0.006062
945.236	0.006052
954.88	0.006502
964.525	0.007112
974.17	0.006902
983.815	0.006582
993.46	0.005672
1003.1	0.006652
1012.75	0.010542
1022.39	0.012602
1032.04	0.010342
1041.68	0.007492
1051.33	0.007002
1060.97	0.008502
1070.62	0.011752
1080.26	0.010612
1089.91	0.005832
1099.55	0.004432
1109.2	0.004112
1118.84	0.006102
1128.49	0.010412
1138.13	0.013082
1147.78	0.011552
1157.42	0.004742
1167.07	0.003492
1176.71	0.003062
1186.36	0.004202
1196	0.003632
1205.64	0.003802
1215.29	0.005662
1224.93	0.008492
1234.58	0.013622
1244.22	0.013162
1253.87	0.009642
1263.51	0.008232
1273.16	0.010212
1282.8	0.016052
1292.45	0.018952
1302.09	0.017702
1311.74	0.019352
1321.38	0.031262
1331.03	0.065742
1340.67	0.102302
1350.32	0.094912
1359.96	0.072652
1369.61	0.061902
1379.25	0.050892
1388.9	0.034092
1398.54	0.017842
1408.18	0.010562
1417.83	0.007932
1427.47	0.006762
1437.12	0.006362
1446.76	0.006672
1456.41	0.007832
1466.05	0.010612
1475.7	0.015572
1485.34	0.019712
1494.99	0.016632
1504.63	0.010032
1514.28	0.006942
1523.92	0.007082
1533.57	0.008542
1543.21	0.011362
1552.86	0.016442
1562.5	0.024932
1572.15	0.040652
1581.79	0.074882
1591.44	0.112772
1601.08	0.108372
1610.73	0.061582
1620.37	0.023162
1630.01	0.010952
1639.66	0.008462
1649.3	0.008322
1658.95	0.010532
1668.59	0.014852
1678.24	0.020272
1687.88	0.027412
1697.53	0.046382
1707.17	0.105052
1716.82	0.185302
1726.46	0.184472
1736.11	0.085692
1745.75	0.034272
1755.4	0.020862
1765.04	0.015602
1774.69	0.009192
1784.33	0.004932
1793.98	0.003112
1803.62	0.002542
1813.27	0.002422
1822.91	0.002422
1832.55	0.002492
1842.2	0.002722
1851.84	0.002762
1861.49	0.002072
1871.13	0.001822
1880.78	0.001532
1890.42	0.001572
1900.07	0.001972
1909.71	0.002072
1919.36	0.001952
1929	0.001712
1938.65	0.001692
1948.29	0.001892
1957.94	0.001762
1967.58	0.001532
1977.23	0.0010853
1986.87	0.0009336
1996.52	0.0009187
2006.16	0.0007287
2015.81	0.0007152
2025.45	0.0009379
2035.1	0.0010042
2044.74	0.0010799
2054.38	0.0011686
2064.03	0.001076
2073.67	0.0008796
2083.32	0.0007823
2092.96	0.0007841
2102.61	0.0005983
2112.25	0.0006595
2121.9	0.0005292
2131.54	0.0006251
2141.19	0.0006934
2150.83	0.0006199
2160.48	0.0007186
2170.12	0.0007751
2179.77	0.0008224
2189.41	0.0009835
2199.06	0.0009147
2208.7	0.001084
2218.35	0.000972
2227.99	0.0007782
2237.64	0.000712
2247.28	0.000744
2256.92	0.0007256
2266.57	0.0007261
2276.21	0.0008122
2285.86	0.0007822
2295.5	0.000667
2305.15	0.0007603
2314.79	0.0005208
2324.44	0.00036399
2334.08	0.000559
2343.73	0.0004679
2353.37	0.0005757
2363.02	0.0006188
2372.66	0.0006507
2382.31	0.0008035
2391.95	0.0009135
2401.6	0.0009911
2411.24	0.0011185
2420.89	0.001332
2430.53	0.001362
2440.18	0.0010062
2449.82	0.0010428
2459.47	0.0009911
2469.11	0.0010329
2478.75	0.0009645
2488.4	0.0009767
2498.04	0.000717
2507.69	0.0006269
2517.33	0.000663
2526.98	0.000491
2536.62	0.000678
2546.27	0.0006331
2555.91	0.0004798
2565.56	0.000426
2575.2	0.0006368
2584.85	0.00069
2594.49	0.0006582
2604.14	0.0009424
2613.78	0.0011193
2623.43	0.0009278
2633.07	0.0008423
2642.72	0.0007511
2652.36	0.0007532
2662.01	0.0007156
2671.65	0.0006186
2681.29	0.0008427
2690.94	0.0005431
2700.58	0.0006616
2710.23	0.0008665
2719.87	0.0007917
2729.52	0.0009544
2739.16	0.0007937
2748.81	0.0009015
2758.45	0.0006495
2768.1	0.0009093
2777.74	0.0008406
2787.39	0.0011318
2797.03	0.0010363
2806.68	0.0010691
2816.32	0.0009919
2825.97	0.0012508
2835.61	0.001512
2845.26	0.002002
2854.9	0.002502
2864.55	0.002832
2874.19	0.003112
2883.84	0.003042
2893.48	0.003002
2903.12	0.003432
2912.77	0.004392
2922.41	0.006662
2932.06	0.010232
2941.7	0.010452
2951.35	0.007092
2960.99	0.004802
2970.64	0.004412
2980.28	0.004532
2989.93	0.004912
2999.57	0.006292
3009.22	0.010032
3018.86	0.012752
3028.51	0.011092
3038.15	0.007682
3047.8	0.006262
3057.44	0.006332
3067.09	0.006322
3076.73	0.006312
3086.38	0.005822
3096.02	0.005242
3105.67	0.004062
3115.31	0.002452
3124.95	0.001602
3134.6	0.001432
3144.24	0.0009786
3153.89	0.001322
3163.53	0.001282
3173.18	0.0012021
3182.82	0.0009486
3192.47	0.0009876
3202.11	0.0008379
3211.76	0.0007857
3221.4	0.000559
3231.05	0.00034945
3240.69	0.0006426
3250.34	0.0004776
3259.98	0.0003863
3269.63	0.0005265
3279.27	0.0005939
3288.92	0.0009056
3298.56	0.0008797
3308.21	0.0011917
3317.85	0.0011685
3327.49	0.0007588
3337.14	0.0008105
3346.78	0.00072
3356.43	0.0009493
3366.07	0.0010761
3375.72	0.001812
3385.36	0.002272
3395.01	0.003482
3404.65	0.005862
3414.3	0.010642
3423.94	0.016672
3433.59	0.020812
3443.23	0.015822
3452.88	0.007782
3462.52	0.003682
3472.17	0.002232
3481.81	0.002212
3491.46	0.002332
3501.1	0.002782
3510.75	0.003962
3520.39	0.006342
3530.04	0.009052
3539.68	0.012052
3549.32	0.014672
3558.97	0.013052
3568.61	0.007212
3578.26	0.002532
3587.9	0.001442
3597.55	0.0011583
3607.19	0.0005915
3616.84	0.0006457
3626.48	0.0007209
3636.13	0.0003511
3645.77	0.00063
3655.42	0.0004466
3665.06	0.0006296
3674.71	0.000551
3684.35	0.0004935
3694	0.0004979
3703.64	0.0005597
3713.29	0.0003871
3722.93	0.0004159
3732.58	0.0005469
3742.22	0.000116
3751.86	0.0002709
3761.51	0.000276686
3771.15	0.0004254
3780.8	0.0004402
3790.44	0.00036854
3800.09	0.0001883
3809.73	0.000236
3819.38	0.0004718
3829.02	0.0004296
3838.67	0.0002526
3848.31	0.000161
3857.96	0.000280017
3867.6	0.0006984
3877.25	0.00032294
3886.89	0.0004505
3896.54	0.00055
3906.18	0.0002414
3915.83	0.00032802
3925.47	0.00030485
3935.12	0.00033093
3944.76	0.0005665
3954.41	0.00032885
3964.05	0.00030173
3973.69	0.0004691
3983.34	0.0004295
3992.98	0.0004237
