Infrared Spectrum: 4'-(.beta.-Chloroethyl)acetophenone
Formula: C 10 H 11 Cl O
CAS: 69614-95-5
State: gas
Origin: EPA-IR VAPOR PHASE LIBRARY
1/CM	ABSORBANCE
549.8	0.00197
559.445	0.00494
569.09	0.01016
578.734	0.01139
588.379	0.01133
598.024	0.01057
607.669	0.00575
617.313	0.00293
626.958	0.00261
636.603	0.0039
646.248	0.00641
655.893	0.00876
665.537	0.01178
675.182	0.02036
684.827	0.01341
694.472	0.00525
704.116	0.00422
713.761	0.00485
723.406	0.00458
733.051	0.00292
742.695	0.00285
752.34	0.00621
761.985	0.01011
771.63	0.00413
781.275	0.00303
790.919	0.00412
800.564	0.00708
810.209	0.01224
819.854	0.01346
829.498	0.00938
839.143	0.00697
848.788	0.00561
858.433	0.00351
868.078	0.0021
877.722	0.0018
887.367	0.00234
897.012	0.00373
906.657	0.00563
916.301	0.00451
925.946	0.00366
935.591	0.00604
945.236	0.01347
954.88	0.01749
964.525	0.00886
974.17	0.0046
983.815	0.00335
993.46	0.00313
1003.1	0.00425
1012.75	0.01025
1022.39	0.00992
1032.04	0.00471
1041.68	0.00279
1051.33	0.00254
1060.97	0.00292
1070.62	0.00455
1080.26	0.00325
1089.91	0.00217
1099.55	0.00264
1109.2	0.00282
1118.84	0.00303
1128.49	0.00224
1138.13	0.00229
1147.78	0.00272
1157.42	0.00274
1167.07	0.00369
1176.71	0.00992
1186.36	0.02008
1196	0.00997
1205.64	0.00625
1215.29	0.00764
1224.93	0.01381
1234.58	0.02287
1244.22	0.03169
1253.87	0.07389
1263.51	0.10346
1273.16	0.0353
1282.8	0.01701
1292.45	0.01558
1302.09	0.01399
1311.74	0.0103
1321.38	0.00846
1331.03	0.00802
1340.67	0.0092
1350.32	0.01703
1359.96	0.03287
1369.61	0.02152
1379.25	0.0086
1388.9	0.0065
1398.54	0.00906
1408.18	0.01487
1417.83	0.01389
1427.47	0.01029
1437.12	0.00975
1446.76	0.00919
1456.41	0.00662
1466.05	0.00423
1475.7	0.00303
1485.34	0.00243
1494.99	0.00215
1504.63	0.00203
1514.28	0.00212
1523.92	0.00224
1533.57	0.00231
1543.21	0.00252
1552.86	0.00306
1562.5	0.00486
1572.15	0.00632
1581.79	0.00498
1591.44	0.0076
1601.08	0.01866
1610.73	0.02514
1620.37	0.01119
1630.01	0.00551
1639.66	0.00453
1649.3	0.00474
1658.95	0.0061
1668.59	0.00786
1678.24	0.01187
1687.88	0.02781
1697.53	0.0788
1707.17	0.10199
1716.82	0.03987
1726.46	0.01442
1736.11	0.00753
1745.75	0.00567
1755.4	0.00452
1765.04	0.00299
1774.69	0.00176
1784.33	0.00138
1793.98	0.00155
1803.62	0.00168
1813.27	0.0011374
1822.91	0.0008727
1832.55	0.0007767
1842.2	0.0007141
1851.84	0.0006705
1861.49	0.0006753
1871.13	0.0007495
1880.78	0.0009809
1890.42	0.00135
1900.07	0.00159
1909.71	0.00167
1919.36	0.00159
1929	0.00141
1938.65	0.00131
1948.29	0.0009335
1957.94	0.0006292
1967.58	0.0005108
1977.23	0.0004003
1986.87	0.0004306
1996.52	0.0004392
2006.16	0.0004735
2015.81	0.0005361
2025.45	0.000655
2035.1	0.0006767
2044.74	0.0005526
2054.38	0.0003608
2064.03	0.0003039
2073.67	0.0002708
2083.32	0.0003074
2092.96	0.0002851
2102.61	0.0003178
2112.25	0.0002818
2121.9	0.00024741
2131.54	0.0002841
2141.19	0.00026397
2150.83	0.00020432
2160.48	0.00026141
2170.12	0.00025863
2179.77	0.0002902
2189.41	0.0003641
2199.06	0.0003814
2208.7	0.0004199
2218.35	0.0003813
2227.99	0.0002864
2237.64	0.00026623
2247.28	0.0003004
2256.92	0.0003176
2266.57	0.0002764
2276.21	0.0003542
2285.86	0.000454
2295.5	0.0005175
2305.15	0.0006313
2314.79	0.000602
2324.44	0.0005357
2334.08	0.0004736
2343.73	0.0003933
2353.37	0.0003465
2363.02	0.0004184
2372.66	0.0003281
2382.31	0.000446
2391.95	0.0003728
2401.6	0.0003722
2411.24	0.0002891
2420.89	0.0003184
2430.53	0.0004361
2440.18	0.0004105
2449.82	0.00043
2459.47	0.0002891
2469.11	0.00026619
2478.75	0.00026318
2488.4	0.0002877
2498.04	0.0004476
2507.69	0.0004144
2517.33	0.0005146
2526.98	0.0004615
2536.62	0.0003648
2546.27	0.000299
2555.91	0.0004623
2565.56	0.000395
2575.2	0.0004324
2584.85	0.0004125
2594.49	0.0004335
2604.14	0.0004902
2613.78	0.0004862
2623.43	0.0005683
2633.07	0.0004207
2642.72	0.0005727
2652.36	0.0004551
2662.01	0.0003675
2671.65	0.0003937
2681.29	0.0003395
2690.94	0.000448
2700.58	0.0004109
2710.23	0.0002967
2719.87	0.0003405
2729.52	0.0003538
2739.16	0.0003542
2748.81	0.0003859
2758.45	0.0005218
2768.1	0.000546
2777.74	0.0005293
2787.39	0.0006331
2797.03	0.0005964
2806.68	0.000545
2816.32	0.0007359
2825.97	0.0009713
2835.61	0.00138
2845.26	0.00208
2854.9	0.00271
2864.55	0.0032
2874.19	0.00364
2883.84	0.00373
2893.48	0.00319
2903.12	0.00402
2912.77	0.00577
2922.41	0.00604
2932.06	0.00586
2941.7	0.00695
2951.35	0.0089
2960.99	0.01226
2970.64	0.01445
2980.28	0.00977
2989.93	0.00744
2999.57	0.01116
3009.22	0.01186
3018.86	0.00966
3028.51	0.0099
3038.15	0.01075
3047.8	0.00762
3057.44	0.00655
3067.09	0.00594
3076.73	0.00587
3086.38	0.00593
3096.02	0.0051
3105.67	0.00326
3115.31	0.00231
3124.95	0.00182
3134.6	0.00123
3144.24	0.0008281
3153.89	0.0007167
3163.53	0.0005087
3173.18	0.0003828
3182.82	0.0003135
3192.47	0.0003366
3202.11	0.0003764
3211.76	0.0003906
3221.4	0.0003397
3231.05	0.00025363
3240.69	0.00023991
3250.34	0.0001371
3259.98	0.0001582
3269.63	0.0001413
3279.27	0.00023078
3288.92	0.00019713
3298.56	0.00022871
3308.21	0.0002839
3317.85	0.0002277
3327.49	0.0002956
3337.14	0.00020263
3346.78	0.00021334
3356.43	0.0003057
3366.07	0.0004753
3375.72	0.0010506
3385.36	0.00183
3395.01	0.00192
3404.65	0.001
3414.3	0.0005468
3423.94	0.0004877
3433.59	0.0003111
3443.23	0.00025389
3452.88	0.0002739
3462.52	0.0001579
3472.17	0.00020255
3481.81	0.0001398
3491.46	0.00016845
3501.1	9.29e-05
3510.75	0.0001307
3520.39	6.5e-05
3530.04	0.0001827
3539.68	0.00022022
3549.32	8.11e-05
3558.97	0.0001097
3568.61	0.00023772
3578.26	0.00021672
3587.9	0.00022939
3597.55	0.00023647
3607.19	0.0001328
3616.84	0.00018032
3626.48	0.000178381
3636.13	4.9e-05
3645.77	0.0001264
3655.42	0.0003578
3665.06	0.00025202
3674.71	0.00025146
3684.35	0.0001035
3694	0.00022205
3703.64	0.0002691
3713.29	0.0003733
3722.93	0.0003033
3732.58	0.0003031
3742.22	0.0002287
3751.86	0.000146
3761.51	0.00022095
3771.15	0.00021706
3780.8	0.00020798
3790.44	0.0002766
3800.09	0.0001142
3809.73	0.00024716
3819.38	2.6e-05
3829.02	0.0003549
3838.67	0.000170514
3848.31	0.00018325
3857.96	0.0003286
3867.6	0.00022226
3877.25	0.0002784
3886.89	0.00025684
3896.54	0.00018786
3906.18	0.00020036
3915.83	0.000177077
3925.47	0.00019288
3935.12	0.00022278
3944.76	0.00019928
3954.41	0.0002851
3964.05	0.0003712
3973.69	0.0002108
3983.34	0.00024372
3992.98	0.0002766
