Infrared Spectrum: Imidazole-4(5)-carboxylic acid, 5(4)-nitro, hydrazide
Formula: C4 H5 N5 O3
CAS: 6961-41-7
State: SOLID (1 mg / 650 mg KBr DISC)
Class: COBLENTZ III
Instrument: PERKIN-ELMER 221 (GRATING)
Instrument parameters: FILTER AT 980 CM^-^1. GRATING 4000-1428 CM^-^1, NaCl PRISM 1428-650 CM^-^1
Resolution: 2
Origin: SOUTHERN RESEARCH INSTITUTE
1/CM	TRANSMITTANCE
642.365	0.4363
651.394	0.8522
660.424	0.89
669.453	0.8969
678.482	0.9057
687.512	0.9101
696.541	0.9108
705.571	0.9101
714.6	0.908
723.629	0.9037
732.659	0.8965
741.688	0.8398
750.717	0.8994
759.747	0.8958
768.776	0.8801
777.806	0.8812
786.835	0.8685
795.864	0.8359
804.894	0.7908
813.923	0.5326
822.952	0.6922
831.982	0.8567
841.011	0.8244
850.04	0.7907
859.07	0.7384
868.099	0.6359
877.129	0.4867
886.158	0.4624
895.187	0.7176
904.217	0.8065
913.246	0.7353
922.275	0.6406
931.305	0.5583
940.334	0.4522
949.364	0.3145
958.393	0.4281
967.422	0.4032
976.452	0.4914
985.481	0.7792
994.51	0.8594
1003.54	0.8718
1012.57	0.8696
1021.6	0.8643
1030.63	0.8567
1039.66	0.849
1048.69	0.8415
1057.72	0.8301
1066.75	0.8012
1075.77	0.7395
1084.8	0.5923
1093.83	0.7543
1102.86	0.7882
1111.89	0.755
1120.92	0.7272
1129.95	0.7428
1138.98	0.7638
1148.01	0.7546
1157.04	0.7205
1166.07	0.7244
1175.1	0.7331
1184.13	0.7201
1193.16	0.7013
1202.19	0.6778
1211.22	0.6362
1220.24	0.4639
1229.27	0.4973
1238.3	0.5959
1247.33	0.4468
1256.36	0.4028
1265.39	0.6578
1274.42	0.5635
1283.45	0.4549
1292.48	0.4411
1301.51	0.3821
1310.54	0.2777
1319.57	0.2379
1328.6	0.1925
1337.63	0.5937
1346.66	0.5258
1355.69	0.2971
1364.71	0.203
1373.74	0.4734
1382.77	0.7334
1391.8	0.7312
1400.83	0.6965
1409.86	0.6437
1418.89	0.4972
1427.92	0.4181
1436.95	0.3821
1445.98	0.5656
1455.01	0.5781
1464.04	0.3737
1473.07	0.1842
1482.1	0.5158
1491.13	0.4096
1500.16	0.2362
1509.18	0.1375
1518.21	0.1706
1527.24	0.3246
1536.27	0.4941
1545.3	0.6637
1554.33	0.7624
1563.36	0.7621
1572.39	0.7062
1581.42	0.6313
1590.45	0.5423
1599.48	0.4024
1608.51	0.4548
1617.54	0.5835
1626.57	0.6068
1635.6	0.5584
1644.63	0.4048
1653.65	0.1989
1662.68	0.1736
1671.71	0.4029
1680.74	0.6444
1689.77	0.7867
1698.8	0.8411
1707.83	0.8815
1716.86	0.8889
1725.89	0.901
1734.92	0.9009
1743.95	0.9039
1752.98	0.9015
1762.01	0.8923
1771.04	0.8764
1780.07	0.8616
1789.09	0.8617
1798.12	0.8554
1807.15	0.8334
1816.18	0.7993
1825.21	0.7932
1834.24	0.7938
1843.27	0.7922
1852.3	0.7882
1861.33	0.7861
1870.36	0.7924
1879.39	0.7983
1888.42	0.8038
1897.45	0.8095
1906.48	0.8158
1915.51	0.8229
1924.54	0.8294
1933.56	0.8355
1942.59	0.8398
1951.62	0.8463
1960.65	0.8524
1969.68	0.8595
1978.71	0.8633
1987.74	0.8663
1996.77	0.8672
2005.8	0.8668
2014.83	0.8666
2023.86	0.8668
2032.89	0.8675
2041.92	0.8675
2050.95	0.8666
2059.98	0.8655
2069.01	0.8642
2078.03	0.8627
2087.06	0.8612
2096.09	0.8596
2105.12	0.8554
2114.15	0.8498
2123.18	0.845
2132.21	0.8399
2141.24	0.8359
2150.27	0.8338
2159.3	0.8352
2168.33	0.8337
2177.36	0.829
2186.39	0.8217
2195.42	0.8165
2204.45	0.8134
2213.48	0.8084
2222.5	0.8029
2231.53	0.789
2240.56	0.782
2249.59	0.7777
2258.62	0.7779
2267.65	0.7768
2276.68	0.7721
2285.71	0.7644
2294.74	0.7528
2303.77	0.739
2312.8	0.726
2321.83	0.7227
2330.86	0.7193
2339.89	0.7061
2348.92	0.7012
2357.95	0.6911
2366.97	0.6701
2376	0.6612
2385.03	0.6544
2394.06	0.6505
2403.09	0.6481
2412.12	0.6444
2421.15	0.6353
2430.18	0.6255
2439.21	0.6158
2448.24	0.5881
2457.27	0.5833
2466.3	0.5794
2475.33	0.561
2484.36	0.553
2493.39	0.5277
2502.42	0.5174
2511.44	0.508
2520.47	0.5113
2529.5	0.5074
2538.53	0.4926
2547.56	0.4603
2556.59	0.4412
2565.62	0.4307
2574.65	0.4171
2583.68	0.4173
2592.71	0.4489
2601.74	0.4475
2610.77	0.4374
2619.8	0.4227
2628.83	0.4048
2637.86	0.3918
2646.89	0.3973
2655.91	0.4535
2664.94	0.4513
2673.97	0.4409
2683	0.4245
2692.03	0.4111
2701.06	0.393
2710.09	0.3904
2719.12	0.3955
2728.15	0.4007
2737.18	0.3992
2746.21	0.396
2755.24	0.3873
2764.27	0.3731
2773.3	0.3723
2782.33	0.3804
2791.35	0.3861
2800.38	0.3878
2809.41	0.3935
2818.44	0.4157
2827.47	0.462
2836.5	0.5059
2845.53	0.5415
2854.56	0.53
2863.59	0.4624
2872.62	0.3999
2881.65	0.3893
2890.68	0.3934
2899.71	0.411
2908.74	0.4238
2917.77	0.4528
2926.8	0.4872
2935.82	0.5185
2944.85	0.5356
2953.88	0.518
2962.91	0.4963
2971.94	0.499
2980.97	0.5252
2990	0.5259
2999.03	0.4938
3008.06	0.4962
3017.09	0.5239
3026.12	0.5586
3035.15	0.5813
3044.18	0.6008
3053.21	0.6159
3062.24	0.6287
3071.27	0.6571
3080.29	0.6625
3089.32	0.666
3098.35	0.6695
3107.38	0.682
3116.41	0.6845
3125.44	0.6767
3134.47	0.6684
3143.5	0.6581
3152.53	0.6365
3161.56	0.5698
3170.59	0.6772
3179.62	0.6595
3188.65	0.6453
3197.68	0.644
3206.71	0.6412
3215.74	0.6349
3224.76	0.6226
3233.79	0.6069
3242.82	0.5859
3251.85	0.585
3260.88	0.5893
3269.91	0.5986
3278.94	0.612
3287.97	0.614
3297	0.6103
3306.03	0.5717
3315.06	0.5215
3324.09	0.4264
3333.12	0.4719
3342.15	0.4984
3351.18	0.4621
3360.21	0.3689
3369.23	0.3417
3378.26	0.3584
3387.29	0.4004
3396.32	0.4915
3405.35	0.5719
3414.38	0.5923
3423.41	0.6126
3432.44	0.6203
3441.47	0.6235
3450.5	0.6273
3459.53	0.6347
3468.56	0.6428
3477.59	0.6504
3486.62	0.6595
3495.65	0.6638
3504.68	0.6684
3513.7	0.6742
3522.73	0.6778
3531.76	0.6791
3540.79	0.681
3549.82	0.6867
3558.85	0.7004
3567.88	0.7113
3576.91	0.7209
3585.94	0.7283
3594.97	0.7337
3604	0.7397
3613.03	0.7446
3622.06	0.7484
3631.09	0.7593
3640.12	0.7643
3649.15	0.7647
3658.17	0.7646
3667.2	0.7678
3676.23	0.7659
3685.26	0.7653
3694.29	0.7688
3703.32	0.7712
3712.35	0.7712
3721.38	0.7697
3730.41	0.7675
3739.44	0.7647
3748.47	0.7639
3757.5	0.7635
3766.53	0.7645
3775.56	0.7646
3784.59	0.7616
3793.61	0.7569
3802.64	0.7548
3811.67	0.7535
3820.7	0.7517
3829.73	0.75
3838.76	0.7482
3847.79	0.7462
3856.82	0.744
3865.85	0.7378
3874.88	0.7375
3883.91	0.7375
3892.94	0.7375
3901.97	0.7374
3911	0.7374
