Infrared Spectrum: 2-Chlorobenzenesulphonamide
Formula: C 6 H 6 Cl N O 2 S
CAS: 6961-82-6
State: gas
Origin: EPA-IR VAPOR PHASE LIBRARY
1/CM	ABSORBANCE
549.8	0.019864
559.445	0.015894
569.09	0.022064
578.734	0.054394
588.379	0.065704
598.024	0.035324
607.669	0.018844
617.313	0.014164
626.958	0.012204
636.603	0.011854
646.248	0.011454
655.893	0.016444
665.537	0.022154
675.182	0.016824
684.827	0.012314
694.472	0.011394
704.116	0.010884
713.761	0.011244
723.406	0.010534
733.051	0.012624
742.695	0.034584
752.34	0.059944
761.985	0.037464
771.63	0.016174
781.275	0.010284
790.919	0.008924
800.564	0.008964
810.209	0.009254
819.854	0.010454
829.498	0.012764
839.143	0.017814
848.788	0.026904
858.433	0.035804
868.078	0.032514
877.722	0.020224
887.367	0.010714
897.012	0.007114
906.657	0.005294
916.301	0.004104
925.946	0.003674
935.591	0.003484
945.236	0.003304
954.88	0.003184
964.525	0.002894
974.17	0.002014
983.815	0.001614
993.46	0.001914
1003.1	0.002074
1012.75	0.002364
1022.39	0.004894
1032.04	0.013894
1041.68	0.026054
1051.33	0.020414
1060.97	0.006674
1070.62	0.003844
1080.26	0.003354
1089.91	0.002644
1099.55	0.004314
1109.2	0.007074
1118.84	0.010324
1128.49	0.011464
1138.13	0.009104
1147.78	0.008564
1157.42	0.016514
1167.07	0.040734
1176.71	0.087974
1186.36	0.093754
1196	0.034654
1205.64	0.011184
1215.29	0.005954
1224.93	0.004954
1234.58	0.004684
1244.22	0.007144
1253.87	0.011784
1263.51	0.009704
1273.16	0.005164
1282.8	0.004044
1292.45	0.003364
1302.09	0.002904
1311.74	0.003114
1321.38	0.003894
1331.03	0.004504
1340.67	0.005244
1350.32	0.006874
1359.96	0.012254
1369.61	0.029154
1379.25	0.071224
1388.9	0.096724
1398.54	0.053354
1408.18	0.018044
1417.83	0.015874
1427.47	0.022304
1437.12	0.026654
1446.76	0.024324
1456.41	0.022174
1466.05	0.013864
1475.7	0.004914
1485.34	0.003794
1494.99	0.003874
1504.63	0.004644
1514.28	0.005554
1523.92	0.008024
1533.57	0.013634
1543.21	0.020334
1552.86	0.018664
1562.5	0.013944
1572.15	0.013994
1581.79	0.010724
1591.44	0.004944
1601.08	0.002484
1610.73	0.002254
1620.37	0.002244
1630.01	0.001744
1639.66	0.001184
1649.3	0.0008729
1658.95	0.000811
1668.59	0.0008656
1678.24	0.0010804
1687.88	0.0012087
1697.53	0.001394
1707.17	0.001674
1716.82	0.0012348
1726.46	0.0009171
1736.11	0.0009841
1745.75	0.0008622
1755.4	0.0007012
1765.04	0.0007649
1774.69	0.0006643
1784.33	0.0008424
1793.98	0.000836
1803.62	0.0013211
1813.27	0.001694
1822.91	0.001604
1832.55	0.0012768
1842.2	0.0013021
1851.84	0.0011993
1861.49	0.0008574
1871.13	0.0008379
1880.78	0.000566
1890.42	0.0007151
1900.07	0.0009755
1909.71	0.0010397
1919.36	0.0012681
1929	0.002054
1938.65	0.001634
1948.29	0.0010944
1957.94	0.0013766
1967.58	0.0012411
1977.23	0.0007883
1986.87	0.0006561
1996.52	0.0005475
2006.16	0.0005817
2015.81	0.0006144
2025.45	0.0006092
2035.1	0.0005637
2044.74	0.0005064
2054.38	0.0005193
2064.03	0.00046566
2073.67	0.0005083
2083.32	0.0005274
2092.96	0.0006165
2102.61	0.0006089
2112.25	0.0006188
2121.9	0.0005213
2131.54	0.0005923
2141.19	0.0005431
2150.83	0.0006461
2160.48	0.0004994
2170.12	0.0006777
2179.77	0.000515
2189.41	0.0005085
2199.06	0.0005158
2208.7	0.000693
2218.35	0.0005522
2227.99	0.00042866
2237.64	0.0004878
2247.28	0.0007143
2256.92	0.00046829
2266.57	0.0006701
2276.21	0.000507
2285.86	0.0006036
2295.5	0.0007262
2305.15	0.0006561
2314.79	0.0005999
2324.44	0.0006692
2334.08	0.0006985
2343.73	0.000655
2353.37	0.0009119
2363.02	0.0006587
2372.66	0.0006621
2382.31	0.0008188
2391.95	0.0006337
2401.6	0.000684
2411.24	0.0008563
2420.89	0.0007861
2430.53	0.00045137
2440.18	0.0005722
2449.82	0.0005521
2459.47	0.00039974
2469.11	0.0003513
2478.75	0.00048344
2488.4	0.0007052
2498.04	0.0007912
2507.69	0.00045892
2517.33	0.0005582
2526.98	0.0005802
2536.62	0.0008817
2546.27	0.001113
2555.91	0.0011682
2565.56	0.000871
2575.2	0.0007581
2584.85	0.0007641
2594.49	0.0007401
2604.14	0.000619
2613.78	0.0009314
2623.43	0.0007875
2633.07	0.000619
2642.72	0.0003718
2652.36	0.00046364
2662.01	0.0003401
2671.65	0.0005657
2681.29	0.0004661
2690.94	0.0005654
2700.58	0.000501
2710.23	0.000568
2719.87	0.00046038
2729.52	0.00038659
2739.16	0.000258
2748.81	0.0002932
2758.45	0.00045663
2768.1	0.00043429
2777.74	0.0003571
2787.39	0.0003576
2797.03	0.0002923
2806.68	0.0003574
2816.32	0.000523
2825.97	0.0003314
2835.61	0.00039017
2845.26	0.0003152
2854.9	0.000208
2864.55	0.0002925
2874.19	0.0003384
2883.84	0.00045598
2893.48	0.0005973
2903.12	0.0004744
2912.77	0.0003711
2922.41	0.000176
2932.06	0.000147
2941.7	0.0005462
2951.35	0.0006208
2960.99	0.00046633
2970.64	0.0005832
2980.28	0.0006381
2989.93	0.0007333
2999.57	0.0008116
3009.22	0.0008763
3018.86	0.0007772
3028.51	0.0007655
3038.15	0.0008067
3047.8	0.0012235
3057.44	0.002674
3067.09	0.006854
3076.73	0.009194
3086.38	0.005844
3096.02	0.001974
3105.67	0.0010641
3115.31	0.0010413
3124.95	0.0009385
3134.6	0.0012708
3144.24	0.001131
3153.89	0.0013674
3163.53	0.0005461
3173.18	0.0005553
3182.82	0.0007376
3192.47	0.0007667
3202.11	0.0006629
3211.76	0.0007078
3221.4	0.0005036
3231.05	0.0006838
3240.69	0.0008344
3250.34	0.0007634
3259.98	0.0007478
3269.63	0.0010739
3279.27	0.0008831
3288.92	0.0007939
3298.56	0.0009547
3308.21	0.0009284
3317.85	0.0006773
3327.49	0.0013726
3337.14	0.001704
3346.78	0.002524
3356.43	0.005344
3366.07	0.011244
3375.72	0.017464
3385.36	0.013404
3395.01	0.005274
3404.65	0.001964
3414.3	0.001554
3423.94	0.001844
3433.59	0.002034
3443.23	0.002244
3452.88	0.003814
3462.52	0.006664
3472.17	0.012744
3481.81	0.018614
3491.46	0.015674
3501.1	0.007054
3510.75	0.003104
3520.39	0.002234
3530.04	0.001864
3539.68	0.001434
3549.32	0.0010684
3558.97	0.0010684
3568.61	0.000937
3578.26	0.0008068
3587.9	0.0011802
3597.55	0.0009986
3607.19	0.0007876
3616.84	0.0006249
3626.48	0.0011452
3636.13	0.0009443
3645.77	0.0007957
3655.42	0.000844
3665.06	0.0010411
3674.71	0.0010858
3684.35	0.0008907
3694	0.0008404
3703.64	0.0008433
3713.29	0.0008393
3722.93	0.0007661
3732.58	0.0008576
3742.22	0.0010364
3751.86	0.0010631
3761.51	0.0011761
3771.15	0.0010059
3780.8	0.0009367
3790.44	0.0007166
3800.09	0.0010453
3809.73	0.001161
3819.38	0.0009093
3829.02	0.000568
3838.67	0.0008373
3848.31	0.0008665
3857.96	0.0007927
3867.6	0.0008485
3877.25	0.0007938
3886.89	0.00041424
3896.54	0.0006414
3906.18	0.0005615
3915.83	0.0005407
3925.47	0.000696
3935.12	0.0009694
3944.76	0.000189
3954.41	0.0011965
3964.05	0.0010256
3973.69	0.0010369
3983.34	0.0005469
3992.98	0.0006252
