Infrared Spectrum: 2-Octane isothiocyanate
Formula: C 9 H 17 N S
CAS: 69626-80-8
State: gas
Origin: EPA-IR VAPOR PHASE LIBRARY
1/CM	ABSORBANCE
549.8	0.0096158
559.445	0.0085158
569.09	0.0067958
578.734	0.0046658
588.379	0.0032158
598.024	0.0024458
607.669	0.0019958
617.313	0.0014758
626.958	0.0014958
636.603	0.0018458
646.248	0.0016358
655.893	0.0017358
665.537	0.0013158
675.182	0.0013458
684.827	0.0016358
694.472	0.0019458
704.116	0.0020158
713.761	0.0022858
723.406	0.0027358
733.051	0.0025858
742.695	0.0020458
752.34	0.0017258
761.985	0.0019058
771.63	0.0014158
781.275	0.0012958
790.919	0.0015058
800.564	0.0018958
810.209	0.0017258
819.854	0.0012158
829.498	0.0011458
839.143	0.0013458
848.788	0.0017558
858.433	0.0019358
868.078	0.0023058
877.722	0.0023358
887.367	0.0026858
897.012	0.0022058
906.657	0.0019558
916.301	0.0019158
925.946	0.0015158
935.591	0.0016858
945.236	0.0022958
954.88	0.0034058
964.525	0.0047358
974.17	0.0051958
983.815	0.0052458
993.46	0.0054658
1003.1	0.0050758
1012.75	0.0042958
1022.39	0.0035058
1032.04	0.0026958
1041.68	0.0027658
1051.33	0.0029258
1060.97	0.0030958
1070.62	0.0028658
1080.26	0.0025158
1089.91	0.0023158
1099.55	0.0031758
1109.2	0.0046758
1118.84	0.0069658
1128.49	0.0085658
1138.13	0.0094958
1147.78	0.0096058
1157.42	0.0065558
1167.07	0.0036058
1176.71	0.0030058
1186.36	0.0032558
1196	0.0033158
1205.64	0.0026058
1215.29	0.0026258
1224.93	0.0025758
1234.58	0.0023058
1244.22	0.0026958
1253.87	0.0031658
1263.51	0.0038358
1273.16	0.0046658
1282.8	0.0059258
1292.45	0.0079358
1302.09	0.0110858
1311.74	0.0163958
1321.38	0.0265458
1331.03	0.0441158
1340.67	0.0473958
1350.32	0.0280358
1359.96	0.0160058
1369.61	0.0123158
1379.25	0.0139458
1388.9	0.0126058
1398.54	0.0064658
1408.18	0.0041358
1417.83	0.0036458
1427.47	0.0042058
1437.12	0.0065758
1446.76	0.0104858
1456.41	0.0140558
1466.05	0.0133458
1475.7	0.0083658
1485.34	0.0044058
1494.99	0.0027158
1504.63	0.0019158
1514.28	0.0015258
1523.92	0.0012358
1533.57	0.0011158
1543.21	0.000964
1552.86	0.0008226
1562.5	0.0007936
1572.15	0.000867
1581.79	0.000787
1591.44	0.0006921
1601.08	0.0006632
1610.73	0.0006614
1620.37	0.0005394
1630.01	0.0007068
1639.66	0.0006424
1649.3	0.0006457
1658.95	0.0007037
1668.59	0.0006344
1678.24	0.0007419
1687.88	0.0007738
1697.53	0.0007018
1707.17	0.0006794
1716.82	0.0006571
1726.46	0.0006943
1736.11	0.0006673
1745.75	0.000662
1755.4	0.0006582
1765.04	0.0007956
1774.69	0.0007198
1784.33	0.0008518
1793.98	0.0008867
1803.62	0.0009662
1813.27	0.0010358
1822.91	0.0010858
1832.55	0.0011958
1842.2	0.0013758
1851.84	0.0016758
1861.49	0.0019158
1871.13	0.0025458
1880.78	0.0031258
1890.42	0.0040958
1900.07	0.0053258
1909.71	0.0069758
1919.36	0.0091258
1929	0.0121058
1938.65	0.0158658
1948.29	0.0206458
1957.94	0.0268058
1967.58	0.0349258
1977.23	0.0454158
1986.87	0.0585758
1996.52	0.0753058
2006.16	0.0964158
2015.81	0.123576
2025.45	0.157136
2035.1	0.192636
2044.74	0.221076
2054.38	0.231806
2064.03	0.221826
2073.67	0.196196
2083.32	0.161786
2092.96	0.127796
2102.61	0.101366
2112.25	0.0837758
2121.9	0.0725758
2131.54	0.0649858
2141.19	0.0591758
2150.83	0.0533658
2160.48	0.0461858
2170.12	0.0375958
2179.77	0.0294758
2189.41	0.0233358
2199.06	0.0188358
2208.7	0.0153158
2218.35	0.0122058
2227.99	0.0095758
2237.64	0.0074858
2247.28	0.0059958
2256.92	0.0049458
2266.57	0.0042358
2276.21	0.0036858
2285.86	0.0031058
2295.5	0.0024858
2305.15	0.0021058
2314.79	0.0017358
2324.44	0.0015358
2334.08	0.0013558
2343.73	0.0013458
2353.37	0.0012058
2363.02	0.0010298
2372.66	0.00103
2382.31	0.0010377
2391.95	0.0010353
2401.6	0.0011358
2411.24	0.0010407
2420.89	0.0010663
2430.53	0.0010001
2440.18	0.0009809
2449.82	0.0010527
2459.47	0.0010339
2469.11	0.0009359
2478.75	0.0010151
2488.4	0.0010311
2498.04	0.001054
2507.69	0.0011058
2517.33	0.0011158
2526.98	0.0011458
2536.62	0.0013458
2546.27	0.0013458
2555.91	0.0014458
2565.56	0.0015858
2575.2	0.0019058
2584.85	0.0019758
2594.49	0.0019858
2604.14	0.0019658
2613.78	0.0018858
2623.43	0.0018558
2633.07	0.0019358
2642.72	0.0019958
2652.36	0.0022658
2662.01	0.0024558
2671.65	0.0028258
2681.29	0.0030258
2690.94	0.0034658
2700.58	0.0039358
2710.23	0.0042458
2719.87	0.0045058
2729.52	0.0045858
2739.16	0.0044658
2748.81	0.0041558
2758.45	0.0035358
2768.1	0.0032958
2777.74	0.0033558
2787.39	0.0034658
2797.03	0.0039458
2806.68	0.0045558
2816.32	0.0053058
2825.97	0.0065958
2835.61	0.0087258
2845.26	0.0135358
2854.9	0.0256658
2864.55	0.0391458
2874.19	0.0400658
2883.84	0.0362058
2893.48	0.0317958
2903.12	0.0371058
2912.77	0.0537158
2922.41	0.0786558
2932.06	0.111046
2941.7	0.121646
2951.35	0.0871858
2960.99	0.0634358
2970.64	0.0625658
2980.28	0.0527158
2989.93	0.0473558
2999.57	0.0202358
3009.22	0.0095758
3018.86	0.0064858
3028.51	0.0051358
3038.15	0.0041458
3047.8	0.0035158
3057.44	0.0028658
3067.09	0.0025758
3076.73	0.0021058
3086.38	0.0019558
3096.02	0.0019058
3105.67	0.0018858
3115.31	0.0016758
3124.95	0.0015758
3134.6	0.0014558
3144.24	0.0010858
3153.89	0.0010231
3163.53	0.0009615
3173.18	0.0012358
3182.82	0.0010657
3192.47	0.0009429
3202.11	0.0009375
3211.76	0.0009641
3221.4	0.0007602
3231.05	0.0005207
3240.69	0.0006254
3250.34	0.0004258
3259.98	0.0002399
3269.63	0.0003812
3279.27	0.0001835
3288.92	0.000245
3298.56	3.96e-05
3308.21	0.0003536
3317.85	0.000313
3327.49	0.000326
3337.14	0.0002094
3346.78	0.0003883
3356.43	0.0001661
3366.07	0.0003022
3375.72	0.0003224
3385.36	0.0004405
3395.01	0.0002076
3404.65	0.0003641
3414.3	0.0002385
3423.94	0.0002888
3433.59	0.0001904
3443.23	0.0001827
3452.88	8.2553e-05
3462.52	0.0002815
3472.17	0.0003373
3481.81	0.0002479
3491.46	0.0002759
3501.1	0.00015209
3510.75	0.000222
3520.39	0.0003669
3530.04	0.000279
3539.68	0.00013951
3549.32	0.0002482
3558.97	0.0004115
3568.61	0.0002904
3578.26	0.0002716
3587.9	0.00014333
3597.55	9.317e-05
3607.19	0.0004023
3616.84	0.0004217
3626.48	0.000316
3636.13	0.0005375
3645.77	0.0003688
3655.42	0.0004974
3665.06	0.0003693
3674.71	0.0004661
3684.35	0.0003798
3694	0.0002674
3703.64	0.0004175
3713.29	0.000386
3722.93	0.0003227
3732.58	0.0004887
3742.22	0.0002079
3751.86	0.000275
3761.51	0.0002502
3771.15	0.000443
3780.8	0.000529
3790.44	0.0002904
3800.09	0.0006563
3809.73	0.0004497
3819.38	0.0003059
3829.02	0.0002672
3838.67	0.0006295
3848.31	0.0007162
3857.96	0.0005101
3867.6	0.0005423
3877.25	0.0005706
3886.89	0.0006446
3896.54	0.000801
3906.18	0.0007483
3915.83	0.0007299
3925.47	0.0010715
3935.12	0.0010858
3944.76	0.0009559
3954.41	0.0010557
3964.05	0.0010958
3973.69	0.001008
3983.34	0.0012058
3992.98	0.0012958
