Infrared Spectrum: Anisyl butyrate
Formula: C 12 H 16 O 3
CAS: 6963-56-0
State: gas
Instrument: HP-GC/MS/IRD
Origin: NIST Mass Spectrometry Data Center
1/CM	ABSORBANCE
550	0.0011045
562	0.0021902
574	0.0016168
586	0.0009917
598	0.0007379
610	0.0004935
622	0.0003995
634	0.0002538
646	0.0001363
658	9.87e-05
670	4.7e-06
682	0.0001175
694	0.0001786
706	0.0004089
718	0.0004794
730	0.0004277
742	0.0005687
754	0.0008131
766	0.0008977
778	0.0011045
790	0.0019223
802	0.0035344
814	0.0055648
826	0.0068432
838	0.005311
850	0.0042159
862	0.0023688
874	0.0015933
886	0.001269
898	0.0011562
910	0.0012737
922	0.0016403
934	0.0023688
946	0.0024628
958	0.0044039
970	0.0083378
982	0.009165
994	0.0070735
1006	0.0054144
1018	0.0054708
1030	0.0091274
1042	0.0128968
1054	0.0087232
1066	0.0067069
1078	0.0082626
1090	0.0110779
1102	0.0107818
1114	0.0084741
1126	0.0073696
1138	0.0095786
1150	0.0181373
1162	0.0400675
1174	0.041172
1186	0.0241627
1198	0.0194204
1210	0.016967
1222	0.0185932
1234	0.0272647
1246	0.0419945
1258	0.0307333
1270	0.0185321
1282	0.0132916
1294	0.0133621
1306	0.009447
1318	0.0057528
1330	0.0051512
1342	0.0064484
1354	0.0064578
1366	0.0050995
1378	0.0048457
1390	0.0035109
1402	0.0023735
1414	0.0023218
1426	0.0030832
1438	0.0043616
1450	0.0058609
1462	0.006909
1474	0.0058374
1486	0.0040326
1498	0.0067821
1510	0.0226258
1522	0.0160364
1534	0.0034122
1546	0.0016121
1558	0.0012831
1570	0.0015933
1582	0.0028153
1594	0.0043992
1606	0.0080981
1618	0.0079101
1630	0.0030268
1642	0.0014711
1654	0.0010011
1666	0.0009306
1678	0.0009682
1690	0.0012596
1702	0.0019834
1714	0.0034451
1726	0.0062181
1738	0.0138368
1750	0.0299061
1762	0.0237068
1774	0.0089723
1786	0.0039668
1798	0.0021573
1810	0.0012361
1822	0.0008131
1834	0.0005781
1846	0.0005123
1858	0.0005405
1870	0.0005734
1882	0.0006157
1894	0.0004935
1906	0.000376
1918	0.0003337
1930	0.0003337
1942	0.0003243
1954	0.0003243
1966	0.0003196
1978	0.0003525
1990	0.0003948
2002	0.0004371
2014	0.0004606
2026	0.0004888
2038	0.0004747
2050	0.0005029
2062	0.0005452
2074	0.0005405
2086	0.0004089
2098	0.000235
2110	0.0001551
2122	0.0001034
2134	6.58e-05
2146	5.17e-05
2158	9.4e-06
2170	9.4e-06
2182	4.7e-06
2194	3.76e-05
2206	1.41e-05
2218	4.7e-05
2230	2.35e-05
2242	2.82e-05
2254	6.58e-05
2266	0.0001222
2278	0.0001175
2290	0.0001363
2302	7.52e-05
2314	8.46e-05
2326	6.11e-05
2338	5.17e-05
2350	2.82e-05
2362	0
2374	0
2386	0
2398	0
2410	1.88e-05
2422	7.05e-05
2434	2.35e-05
2446	7.52e-05
2458	6.58e-05
2470	9.87e-05
2482	9.87e-05
2494	0.0001222
2506	0.0001269
2518	0.0001269
2530	0.0001645
2542	0.0002397
2554	0.0002115
2566	9.4e-05
2578	0.0001081
2590	0.0001034
2602	9.87e-05
2614	7.52e-05
2626	9.4e-05
2638	6.11e-05
2650	8.46e-05
2662	5.64e-05
2674	9.4e-05
2686	8.93e-05
2698	0.0001034
2710	9.4e-05
2722	0.0001504
2734	0.0001504
2746	0.0002773
2758	0.0002914
2770	0.0003572
2782	0.0004418
2794	0.0005546
2806	0.000799
2818	0.0012784
2830	0.0020821
2842	0.004136
2854	0.0035438
2866	0.0029845
2878	0.004512
2890	0.0059549
2902	0.0057575
2914	0.0066411
2926	0.0080558
2938	0.0114821
2950	0.0142786
2962	0.0145747
2974	0.0140342
2986	0.010434
2998	0.0074777
3010	0.0070876
3022	0.0038211
3034	0.0033793
3046	0.0031161
3058	0.0020304
3070	0.0020727
3082	0.0019082
3094	0.0013865
3106	0.001128
3118	0.0008836
3130	0.0006486
3142	0.0004606
3154	0.0003055
3166	0.0002914
3178	0.0002068
3190	0.0002397
3202	0.0002021
3214	0.0001692
3226	0.0001081
3238	0.0001175
3250	6.11e-05
3262	7.99e-05
3274	4.7e-06
3286	6.11e-05
3298	0.0001081
3310	7.05e-05
3322	9.4e-05
3334	8.93e-05
3346	0.0001316
3358	5.17e-05
3370	3.29e-05
3382	8.93e-05
3394	9.4e-05
3406	9.4e-05
3418	0.0001269
3430	7.05e-05
3442	0.000141
3454	0.0001786
3466	0.0002303
3478	0.0004089
3490	0.000376
3502	0.0003525
3514	0.0003008
3526	0.0002256
3538	0.000188
3550	0.0001598
3562	0.0001457
3574	0.0001222
3586	0.0001222
3598	0.0001222
3610	7.99e-05
3622	0.0001081
3634	0.0001034
3646	8.46e-05
3658	0.0001128
3670	0.0001927
3682	0.000141
3694	0.0001269
3706	0.0001504
3718	0.0001692
3730	0.0001551
3742	0.0002115
3754	0.0001645
3766	0.0001363
3778	0.0001739
3790	0.0002162
3802	0.0002397
3814	0.0002444
3826	0.0002115
3838	0.0001645
