Infrared Spectrum: Thiophene-3-acetic acid
Formula: C 6 H 6 O 2 S
CAS: 6964-21-2
State: gas
Origin: EPA-IR VAPOR PHASE LIBRARY
1/CM	ABSORBANCE
549.8	0.005098
559.445	0.007758
569.09	0.011308
578.734	0.022858
588.379	0.035828
598.024	0.029938
607.669	0.020338
617.313	0.025168
626.958	0.029148
636.603	0.029448
646.248	0.028428
655.893	0.024478
665.537	0.017708
675.182	0.013068
684.827	0.011008
694.472	0.007928
704.116	0.006188
713.761	0.006718
723.406	0.008768
733.051	0.011418
742.695	0.016208
752.34	0.019588
761.985	0.019968
771.63	0.020358
781.275	0.017408
790.919	0.010858
800.564	0.006198
810.209	0.004348
819.854	0.005038
829.498	0.009768
839.143	0.013098
848.788	0.010978
858.433	0.008678
868.078	0.007888
877.722	0.005398
887.367	0.004048
897.012	0.003888
906.657	0.003518
916.301	0.003908
925.946	0.003758
935.591	0.004638
945.236	0.006168
954.88	0.005488
964.525	0.003548
974.17	0.002268
983.815	0.003108
993.46	0.002408
1003.1	0.002138
1012.75	0.001718
1022.39	0.002438
1032.04	0.002368
1041.68	0.003028
1051.33	0.005158
1060.97	0.008328
1070.62	0.015168
1080.26	0.025188
1089.91	0.040308
1099.55	0.064758
1109.2	0.089878
1118.84	0.080138
1128.49	0.047048
1138.13	0.031798
1147.78	0.022618
1157.42	0.017088
1167.07	0.015158
1176.71	0.013918
1186.36	0.013398
1196	0.015308
1205.64	0.015758
1215.29	0.014228
1224.93	0.011048
1234.58	0.013718
1244.22	0.012108
1253.87	0.011418
1263.51	0.010108
1273.16	0.009148
1282.8	0.008938
1292.45	0.008498
1302.09	0.009098
1311.74	0.009228
1321.38	0.009888
1331.03	0.011668
1340.67	0.015168
1350.32	0.017178
1359.96	0.015288
1369.61	0.011888
1379.25	0.009748
1388.9	0.009568
1398.54	0.010438
1408.18	0.010808
1417.83	0.009468
1427.47	0.008148
1437.12	0.007688
1446.76	0.006458
1456.41	0.005318
1466.05	0.003898
1475.7	0.002498
1485.34	0.001778
1494.99	0.001868
1504.63	0.001838
1514.28	0.001978
1523.92	0.002638
1533.57	0.003908
1543.21	0.003998
1552.86	0.003168
1562.5	0.002288
1572.15	0.001768
1581.79	0.0014165
1591.44	0.0012745
1601.08	0.0014095
1610.73	0.001598
1620.37	0.0012217
1630.01	0.001518
1639.66	0.001838
1649.3	0.001608
1658.95	0.001708
1668.59	0.002028
1678.24	0.002408
1687.88	0.002768
1697.53	0.003288
1707.17	0.004628
1716.82	0.006588
1726.46	0.010268
1736.11	0.017368
1745.75	0.029418
1755.4	0.046538
1765.04	0.067438
1774.69	0.089848
1784.33	0.095548
1793.98	0.078338
1803.62	0.051368
1813.27	0.027408
1822.91	0.012988
1832.55	0.006918
1842.2	0.004188
1851.84	0.002828
1861.49	0.002298
1871.13	0.001808
1880.78	0.001728
1890.42	0.001648
1900.07	0.001508
1909.71	0.0012113
1919.36	0.0011598
1929	0.0011119
1938.65	0.0013836
1948.29	0.0012641
1957.94	0.0013588
1967.58	0.0012059
1977.23	0.0013028
1986.87	0.0012716
1996.52	0.001381
2006.16	0.0013293
2015.81	0.0011371
2025.45	0.0012715
2035.1	0.0010876
2044.74	0.0012022
2054.38	0.0010952
2064.03	0.0011186
2073.67	0.0011733
2083.32	0.001022
2092.96	0.0009947
2102.61	0.001092
2112.25	0.000736
2121.9	0.0008761
2131.54	0.0011675
2141.19	0.001004
2150.83	0.000941
2160.48	0.0013172
2170.12	0.0012187
2179.77	0.0011661
2189.41	0.0013383
2199.06	0.001458
2208.7	0.0013214
2218.35	0.001498
2227.99	0.0012755
2237.64	0.0011532
2247.28	0.0012084
2256.92	0.0012063
2266.57	0.0012951
2276.21	0.0011577
2285.86	0.0011548
2295.5	0.0013475
2305.15	0.001428
2314.79	0.001648
2324.44	0.001588
2334.08	0.001688
2343.73	0.001548
2353.37	0.001498
2363.02	0.002048
2372.66	0.001798
2382.31	0.001478
2391.95	0.001127
2401.6	0.0010895
2411.24	0.0009943
2420.89	0.001208
2430.53	0.0010064
2440.18	0.0009974
2449.82	0.0010388
2459.47	0.0007749
2469.11	0.0008906
2478.75	0.0008914
2488.4	0.0010765
2498.04	0.0010986
2507.69	0.0007647
2517.33	0.0008923
2526.98	0.001096
2536.62	0.0009267
2546.27	0.0009883
2555.91	0.0011338
2565.56	0.0009989
2575.2	0.0010463
2584.85	0.0011185
2594.49	0.001018
2604.14	0.0006986
2613.78	0.0007504
2623.43	0.0010541
2633.07	0.001003
2642.72	0.0009563
2652.36	0.0007738
2662.01	0.0008005
2671.65	0.0007455
2681.29	0.0009379
2690.94	0.0011372
2700.58	0.0009032
2710.23	0.0006968
2719.87	0.0009402
2729.52	0.0009998
2739.16	0.0008377
2748.81	0.0008305
2758.45	0.0008445
2768.1	0.0012521
2777.74	0.000869
2787.39	0.0011446
2797.03	0.0006757
2806.68	0.0012011
2816.32	0.0009517
2825.97	0.0012597
2835.61	0.0011104
2845.26	0.0010715
2854.9	0.0011202
2864.55	0.0013106
2874.19	0.0012828
2883.84	0.001698
2893.48	0.001858
2903.12	0.001748
2912.77	0.002718
2922.41	0.003778
2932.06	0.004458
2941.7	0.004518
2951.35	0.003728
2960.99	0.003158
2970.64	0.002638
2980.28	0.002658
2989.93	0.002468
2999.57	0.001848
3009.22	0.002268
3018.86	0.001528
3028.51	0.001448
3038.15	0.0012754
3047.8	0.001578
3057.44	0.001698
3067.09	0.001838
3076.73	0.001988
3086.38	0.001598
3096.02	0.001768
3105.67	0.0013312
3115.31	0.001978
3124.95	0.0013218
3134.6	0.0011966
3144.24	0.001428
3153.89	0.0008996
3163.53	0.001101
3173.18	0.0010243
3182.82	0.0010058
3192.47	0.0009315
3202.11	0.0006913
3211.76	0.0010241
3221.4	0.0007819
3231.05	0.000958
3240.69	0.0011812
3250.34	0.000861
3259.98	0.0009255
3269.63	0.0012401
3279.27	0.0007332
3288.92	0.0010612
3298.56	0.0006834
3308.21	0.0008879
3317.85	0.0014198
3327.49	0.0009117
3337.14	0.0008835
3346.78	0.0008944
3356.43	0.0008605
3366.07	0.0011124
3375.72	0.001468
3385.36	0.000412
3395.01	0.0006632
3404.65	0.0008081
3414.3	0.0006986
3423.94	0.0005449
3433.59	0.0007644
3443.23	0.0013916
3452.88	0.0011701
3462.52	0.001488
3472.17	0.001438
3481.81	0.0011996
3491.46	0.001458
3501.1	0.001708
3510.75	0.001838
3520.39	0.001848
3530.04	0.002518
3539.68	0.004218
3549.32	0.007028
3558.97	0.013998
3568.61	0.036858
3578.26	0.039778
3587.9	0.016998
3597.55	0.006628
3607.19	0.003608
3616.84	0.002788
3626.48	0.001998
3636.13	0.001478
3645.77	0.0012009
3655.42	0.0011652
3665.06	0.0010789
3674.71	0.0007928
3684.35	0.001558
3694	0.0009825
3703.64	0.0013225
3713.29	0.0008149
3722.93	0.0005337
3732.58	0.000778
3742.22	0.001211
3751.86	0.0009183
3761.51	0.0011532
3771.15	0.0003607
3780.8	0.0007553
3790.44	0.0008545
3800.09	0.0011694
3809.73	0.00048549
3819.38	0.0008568
3829.02	0.000697
3838.67	0.0008323
3848.31	0.0010132
3857.96	0.0007529
3867.6	0.000196
3877.25	0.0011545
3886.89	0.0011678
3896.54	0.0008738
3906.18	0.0008451
3915.83	0.0008875
3925.47	0.0009678
3935.12	0.001458
3944.76	0.0008462
3954.41	0.0007332
3964.05	0.001448
3973.69	0.0007559
3983.34	0.0007079
3992.98	0.0014277
