Infrared Spectrum: ACETIC ACID, [(7-OXO-7H-BENZ[de]ANTHRACEN-3-YL)THIO]-
Formula: C19 H12 O3 S
CAS: 69658-13-5
State: SOLID (SPLIT MULL), FLUOROLUBE FOR 3800-1330 CM^-^1, NUJOL FOR 1330-400 CM^-^1
Melting point: 218 C
Class: COBLENTZ III
Instrument: DOW KBr FOREPRISM-GRATING
Instrument parameters: BLAZED AT 3.5, 12.0, 20.0 MICRON AND CHANGED AT 5.0, 7.5, 14.9 MICRON
Sampling: TRANSMISSION
Resolution: 2
Origin: DOW CHEMICAL COMPANY
1/CM	TRANSMITTANCE
386.696	0.875
395.565	0.873
404.434	0.873
413.304	0.873
422.173	0.873
431.042	0.869
439.911	0.845
448.78	0.831
457.65	0.862
466.519	0.851
475.388	0.905
484.257	0.895
493.126	0.806
501.996	0.927
510.865	0.941
519.734	0.954
528.603	0.958
537.472	0.958
546.342	0.966
555.211	0.968
564.08	0.945
572.949	0.804
581.818	0.868
590.687	0.965
599.557	0.97
608.426	0.9
617.295	0.908
626.164	0.984
635.033	0.99
643.903	0.986
652.772	0.948
661.641	0.931
670.51	0.793
679.379	0.941
688.249	0.712
697.118	0.7378
705.987	0.89
714.856	0.902
723.725	0.847
732.595	0.904
741.464	0.8979
750.333	0.863
759.202	0.936
768.071	0.852
776.941	0.2012
785.81	0.7381
794.679	0.875
803.548	0.913
812.417	0.893
821.287	0.773
830.156	0.891
839.025	0.723
847.894	0.719
856.763	0.794
865.633	0.827
874.502	0.804
883.371	0.84
892.24	0.84
901.109	0.89
909.979	0.912
918.848	0.936
927.717	0.936
936.586	0.887
945.455	0.747
954.324	0.943
963.194	0.943
972.063	0.951
980.932	0.958
989.801	0.958
998.67	0.952
1007.54	0.955
1016.41	0.938
1025.28	0.926
1034.15	0.922
1043.02	0.826
1051.89	0.755
1060.75	0.826
1069.62	0.876
1078.49	0.856
1087.36	0.869
1096.23	0.876
1105.1	0.8
1113.97	0.4618
1122.84	0.561
1131.71	0.805
1140.58	0.873
1149.45	0.87
1158.32	0.8039
1167.19	0.84
1176.05	0.806
1184.92	0.6758
1193.79	0.5039
1202.66	0.518
1211.53	0.541
1220.4	0.669
1229.27	0.745
1238.14	0.5859
1247.01	0.434
1255.88	0.526
1264.75	0.5901
1273.62	0.658
1282.48	0.5009
1291.35	0.6162
1300.22	0.713
1309.09	0.5549
1317.96	0.723
1326.83	0.1949
1335.7	0.748
1344.57	0.795
1353.44	0.772
1362.31	0.6561
1371.18	0.625
1380.05	0.6188
1388.92	0.6111
1397.78	0.851
1406.65	0.854
1415.52	0.912
1424.39	0.636
1433.26	0.926
1442.13	0.933
1451	0.897
1459.87	0.787
1468.74	0.943
1477.61	0.936
1486.48	0.9551
1495.35	0.976
1504.21	0.8728
1513.08	0.8983
1521.95	0.972
1530.82	0.956
1539.69	0.926
1548.56	0.876
1557.43	0.7629
1566.3	0.3757
1575.17	0.479
1584.04	0.2121
1592.91	0.6228
1601.78	0.4814
1610.64	0.804
1619.51	0.787
1628.38	0.5409
1637.25	0.209
1646.12	0.1882
1654.99	0.831
1663.86	0.9
1672.73	0.948
1681.6	0.955
1690.47	0.938
1699.34	0.922
1708.21	0.894
1717.08	0.852
1725.94	0.6948
1734.81	0.1938
1743.68	0.4091
1752.55	0.7501
1761.42	0.822
1770.29	0.884
1779.16	0.906
1788.03	0.933
1796.9	0.972
1805.77	0.984
1814.64	0.991
1823.51	0.995
1832.37	0.997
1841.24	0.995
1850.11	0.995
1858.98	0.993
1867.85	0.98
1876.72	0.976
1885.59	1.001
1894.46	1.001
1903.33	1.001
1912.2	0.995
1921.07	0.994
1929.94	0.991
1938.81	0.99
1947.67	0.994
1956.54	0.986
1965.41	0.973
1974.28	0.976
1983.15	0.98
1992.02	0.975
2000.89	0.9905
2009.76	0.996
2018.63	0.998
2027.5	0.998
2036.37	0.998
2045.24	0.995
2054.1	0.994
2062.97	0.991
2071.84	0.9888
2080.71	0.987
2089.58	0.984
2098.45	0.9818
2107.32	0.98
2116.19	0.977
2125.06	0.976
2133.93	0.9707
2142.8	0.97
2151.67	0.97
2160.54	0.969
2169.4	0.968
2178.27	0.965
2187.14	0.962
2196.01	0.961
2204.88	0.9595
2213.75	0.959
2222.62	0.955
2231.49	0.9484
2240.36	0.9442
2249.23	0.9384
2258.1	0.934
2266.97	0.9275
2275.83	0.926
2284.7	0.925
2293.57	0.9221
2302.44	0.919
2311.31	0.9148
2320.18	0.913
2329.05	0.9119
2337.92	0.9044
2346.79	0.9049
2355.66	0.912
2364.53	0.9149
2373.4	0.9179
2382.26	0.915
2391.13	0.912
2400	0.912
2408.87	0.912
2417.74	0.906
2426.61	0.902
2435.48	0.901
2444.35	0.9009
2453.22	0.8969
2462.09	0.8939
2470.96	0.886
2479.83	0.884
2488.7	0.884
2497.56	0.8882
2506.43	0.8927
2515.3	0.8927
2524.17	0.8904
2533.04	0.8857
2541.91	0.879
2550.78	0.8758
2559.65	0.8716
2568.52	0.8651
2577.39	0.8548
2586.26	0.8463
2595.13	0.8408
2603.99	0.84
2612.86	0.8403
2621.73	0.845
2630.6	0.8503
2639.47	0.851
2648.34	0.852
2657.21	0.854
2666.08	0.854
2674.95	0.8517
2683.82	0.852
2692.69	0.851
2701.56	0.8469
2710.43	0.838
2719.29	0.8256
2728.16	0.8186
2737.03	0.813
2745.9	0.812
2754.77	0.812
2763.64	0.812
2772.51	0.8096
2781.38	0.8015
2790.25	0.799
2799.12	0.796
2807.99	0.794
2816.86	0.785
2825.72	0.779
2834.59	0.7739
2843.46	0.7643
2852.33	0.7549
2861.2	0.745
2870.07	0.7364
2878.94	0.7272
2887.81	0.7154
2896.68	0.6991
2905.55	0.6845
2914.42	0.6667
2923.29	0.6534
2932.16	0.6457
2941.02	0.634
2949.89	0.6186
2958.76	0.604
2967.63	0.602
2976.5	0.6
2985.37	0.5933
2994.24	0.5845
3003.11	0.574
3011.98	0.5622
3020.85	0.5529
3029.72	0.5414
3038.59	0.5274
3047.45	0.5134
3056.32	0.5012
3065.19	0.4913
3074.06	0.4815
3082.93	0.48
3091.8	0.477
3100.67	0.4751
3109.54	0.4651
3118.41	0.455
3127.28	0.4473
3136.15	0.4382
3145.02	0.4301
3153.88	0.429
3162.75	0.4359
3171.62	0.4479
3180.49	0.4649
3189.36	0.481
3198.23	0.502
3207.1	0.525
3215.97	0.55
3224.84	0.5701
3233.71	0.59
3242.58	0.6053
3251.45	0.6203
3260.32	0.6385
3269.18	0.6592
3278.05	0.6761
3286.92	0.6931
3295.79	0.7081
3304.66	0.7224
3313.53	0.733
3322.4	0.7405
3331.27	0.7487
3340.14	0.7563
3349.01	0.762
3357.88	0.768
3366.75	0.77
3375.61	0.775
3384.48	0.775
3393.35	0.776
3402.22	0.776
3411.09	0.776
3419.96	0.7744
3428.83	0.769
3437.7	0.7674
3446.57	0.766
3455.44	0.768
3464.31	0.7657
3473.18	0.765
3482.05	0.765
3490.91	0.765
3499.78	0.763
3508.65	0.761
3517.52	0.761
3526.39	0.761
3535.26	0.762
3544.13	0.763
3553	0.763
3561.87	0.7625
3570.74	0.762
3579.61	0.756
3588.48	0.7585
3597.34	0.759
3606.21	0.7535
3615.08	0.758
3623.95	0.758
3632.82	0.758
3641.69	0.755
3650.56	0.7556
3659.43	0.7586
3668.3	0.761
3677.17	0.759
3686.04	0.756
3694.91	0.755
3703.78	0.758
3712.64	0.7561
3721.51	0.754
3730.38	0.7573
3739.25	0.7553
3748.12	0.755
3756.99	0.747
3765.86	0.745
3774.73	0.743
3783.6	0.741
3792.47	0.738
3801.34	0.737
