Infrared Spectrum: N-2'-Chloroacetyl-2,6-diethylaniline
Formula: C 12 H 16 Cl N O
CAS: 6967-29-9
State: gas
Origin: EPA-IR VAPOR PHASE LIBRARY
1/CM	ABSORBANCE
549.8	0.005398
559.445	0.004918
569.09	0.004488
578.735	0.004438
588.38	0.003918
598.025	0.003418
607.67	0.002818
617.315	0.002748
626.96	0.002898
636.605	0.003248
646.251	0.002738
655.896	0.002578
665.541	0.002498
675.186	0.002398
684.831	0.002308
694.476	0.002838
704.121	0.003938
713.766	0.004538
723.411	0.003478
733.056	0.003588
742.701	0.005048
752.346	0.008138
761.991	0.016868
771.636	0.025508
781.281	0.013888
790.926	0.008848
800.571	0.006608
810.216	0.004238
819.861	0.002978
829.507	0.002408
839.152	0.002028
848.797	0.002268
858.442	0.002948
868.087	0.003508
877.732	0.002758
887.377	0.002178
897.022	0.002048
906.667	0.002088
916.312	0.002568
925.957	0.002608
935.602	0.001948
945.247	0.001598
954.892	0.001548
964.537	0.001788
974.182	0.001648
983.827	0.001818
993.472	0.001828
1003.12	0.001908
1012.76	0.001948
1022.41	0.002168
1032.05	0.002478
1041.7	0.002818
1051.34	0.003538
1060.99	0.003678
1070.63	0.002708
1080.28	0.002458
1089.92	0.002498
1099.57	0.002718
1109.21	0.003358
1118.86	0.003008
1128.5	0.003018
1138.15	0.002998
1147.79	0.002908
1157.44	0.002768
1167.08	0.003098
1176.73	0.003318
1186.37	0.003438
1196.02	0.004558
1205.66	0.006448
1215.31	0.009938
1224.95	0.013618
1234.6	0.012148
1244.24	0.011798
1253.89	0.017368
1263.53	0.013808
1273.18	0.009248
1282.82	0.007088
1292.47	0.005438
1302.11	0.004688
1311.76	0.004918
1321.4	0.005538
1331.05	0.005458
1340.69	0.005538
1350.34	0.005098
1359.98	0.004328
1369.63	0.004498
1379.27	0.005938
1388.92	0.005418
1398.56	0.005098
1408.21	0.006588
1417.85	0.011758
1427.5	0.010788
1437.14	0.009928
1446.79	0.013068
1456.43	0.020998
1466.08	0.031408
1475.73	0.042038
1485.37	0.056158
1495.02	0.066388
1504.66	0.047918
1514.31	0.021558
1523.95	0.011068
1533.6	0.007338
1543.24	0.005928
1552.89	0.005018
1562.53	0.004308
1572.18	0.004088
1581.82	0.004198
1591.47	0.004378
1601.11	0.003508
1610.76	0.002718
1620.4	0.002348
1630.05	0.002328
1639.69	0.002568
1649.34	0.002988
1658.98	0.003598
1668.63	0.004438
1678.27	0.005708
1687.92	0.008538
1697.56	0.015788
1707.21	0.035328
1716.85	0.063758
1726.5	0.046958
1736.14	0.018698
1745.79	0.008528
1755.43	0.004878
1765.08	0.003568
1774.72	0.003068
1784.37	0.002808
1794.01	0.002288
1803.66	0.001638
1813.3	0.0013687
1822.95	0.0013001
1832.59	0.0012397
1842.24	0.0012115
1851.88	0.001438
1861.53	0.001478
1871.17	0.0009474
1880.82	0.0007053
1890.46	0.0006316
1900.11	0.0006162
1909.75	0.0006888
1919.4	0.0010865
1929.04	0.0014025
1938.69	0.0008408
1948.33	0.0005622
1957.98	0.0005688
1967.62	0.0005525
1977.27	0.000549
1986.91	0.00041415
1996.56	0.000408
2006.2	0.00042948
2015.85	0.00043866
2025.49	0.00041338
2035.14	0.0003794
2044.78	0.00044377
2054.43	0.0003866
2064.07	0.0003403
2073.72	0.000313
2083.36	0.0003369
2093.01	0.0003432
2102.65	0.000303
2112.3	0.000283
2121.94	0.000308
2131.59	0.000247
2141.23	0.000313
2150.88	0.000208
2160.52	0.000278
2170.17	0.0003322
2179.81	0.0003452
2189.46	0.000255
2199.1	0.00025
2208.75	0.000274
2218.39	0.000285
2228.04	0.000235
2237.68	0.0003262
2247.33	0.000274
2256.97	0.000247
2266.62	0.000223
2276.26	0.000168
2285.91	0.000255
2295.55	0.000226
2305.2	0.000308
2314.84	0.0003883
2324.49	0.0003958
2334.13	0.00049975
2343.78	0.00045358
2353.42	0.0004028
2363.07	0.00027
2372.72	0.000255
2382.36	0.000171
2392.01	0.000199
2401.65	0.000199
2411.3	0.000234
2420.94	0.000219
2430.59	0.000221
2440.23	0.000278
2449.88	0.000289
2459.52	0.000207
2469.17	0.000207
2478.81	0.000214
2488.46	0.00018
2498.1	0.000158
2507.75	0.000172
2517.39	0.000154
2527.04	0.000159
2536.68	9.4e-05
2546.33	6.1e-05
2555.97	5.5e-05
2565.62	2.8e-05
2575.26	0.00012
2584.91	5e-06
2594.55	0.000107
2604.2	0.000109
2613.84	0.000129
2623.49	0.00021
2633.13	0.000183
2642.78	0.000277
2652.42	0.000315
2662.07	0.0003689
2671.71	0.0003319
2681.36	0.000278
2691	0.0003322
2700.65	0.000287
2710.29	0.0003278
2719.94	0.000264
2729.58	0.0003396
2739.23	0.0005952
2748.87	0.00048433
2758.52	0.00048481
2768.16	0.0005972
2777.81	0.0006219
2787.45	0.0006626
2797.1	0.0007314
2806.74	0.0008368
2816.39	0.0009537
2826.03	0.0012606
2835.68	0.001768
2845.32	0.002358
2854.97	0.003118
2864.61	0.005098
2874.26	0.008978
2883.9	0.013288
2893.55	0.012358
2903.19	0.009968
2912.84	0.009748
2922.48	0.010708
2932.13	0.014518
2941.77	0.020658
2951.42	0.019528
2961.06	0.020098
2970.71	0.034358
2980.35	0.029768
2990	0.013948
2999.64	0.007628
3009.29	0.005618
3018.93	0.005898
3028.58	0.006598
3038.22	0.005998
3047.87	0.005718
3057.51	0.006958
3067.16	0.008788
3076.8	0.006818
3086.45	0.003738
3096.09	0.002028
3105.74	0.0013442
3115.38	0.000999
3125.03	0.0010317
3134.67	0.0009049
3144.32	0.0008891
3153.96	0.000788
3163.61	0.0008796
3173.25	0.0006355
3182.9	0.000689
3192.54	0.00051738
3202.19	0.0005235
3211.83	0.00050031
3221.48	0.0006222
3231.12	0.000374
3240.77	0.000214
3250.41	0.000318
3260.06	0.00042962
3269.7	0.0005944
3279.35	0.0003584
3289	0.0005451
3298.64	0.00049493
3308.29	0.00048012
3317.93	0.00045783
3327.58	0.0007339
3337.22	0.0006935
3346.87	0.0007016
3356.51	0.0007664
3366.16	0.0009594
3375.8	0.00113
3385.45	0.001468
3395.09	0.002218
3404.74	0.003688
3414.38	0.007608
3424.03	0.016328
3433.67	0.012268
3443.32	0.004138
3452.96	0.002058
3462.61	0.001402
3472.25	0.0011517
3481.9	0.0009175
3491.54	0.0009077
3501.19	0.0006232
3510.83	0.0007164
3520.48	0.00051008
3530.12	0.0005696
3539.77	0.000595
3549.41	0.0006536
3559.06	0.0005721
3568.7	0.000662
3578.35	0.0008174
3587.99	0.0006452
3597.64	0.0005537
3607.28	0.0006431
3616.93	0.0006561
3626.57	0.0003918
3636.22	0.0005869
3645.86	0.0005423
3655.51	0.00050178
3665.15	0.00049876
3674.8	0.00048941
3684.44	0.0004499
3694.09	0.00047193
3703.73	0.00046012
3713.38	0.000593
3723.02	0.00046966
3732.67	0.0004507
3742.31	0.000544
3751.96	0.0005263
3761.6	0.000552
3771.25	0.0006327
3780.89	0.0005684
3790.54	0.0005514
3800.18	0.000532
3809.83	0.000563
3819.47	0.000419619
3829.12	0.0004684
3838.76	0.000426222
3848.41	0.0006026
3858.05	0.000253
3867.7	0.000589
3877.34	0.00048803
3886.99	0.0006539
3896.63	0.0006431
3906.28	0.00050689
3915.92	0.00048635
3925.57	0.0005239
3935.21	0.000696
3944.86	0.00050715
3954.5	0.000425403
3964.15	0.0005262
3973.79	0.00047408
3983.44	0.0003906
3993.08	0.00044331
