Infrared Spectrum: 2-Bromo-5-methylbenzoic acid
Formula: C 8 H 7 Br O 2
CAS: 6967-82-4
State: gas
Origin: EPA-IR VAPOR PHASE LIBRARY
1/CM	ABSORBANCE
549.8	0.005309
559.445	0.006459
569.09	0.007479
578.734	0.010999
588.379	0.012839
598.024	0.009869
607.669	0.011289
617.313	0.008349
626.958	0.005289
636.603	0.013549
646.248	0.011849
655.893	0.002879
665.537	0.0010483
675.182	0.0005207
684.827	0.0007234
694.472	0.001339
704.116	0.001779
713.761	0.004769
723.406	0.004699
733.051	0.001809
742.695	0.0009197
752.34	0.001409
761.985	0.002629
771.63	0.004499
781.275	0.005859
790.919	0.004309
800.564	0.005289
810.209	0.009459
819.854	0.006899
829.498	0.001979
839.143	0.00020723
848.788	0.0005142
858.433	0.000477
868.078	0.0003689
877.722	0.001179
887.367	0.002559
897.012	0.002369
906.657	0.0010173
916.301	0.0005059
925.946	0.000316
935.591	0.0005817
945.236	0.0004873
954.88	0.0009539
964.525	0.0008532
974.17	0.000998
983.815	0.001249
993.46	0.001659
1003.1	0.002959
1012.75	0.005419
1022.39	0.017399
1032.04	0.018999
1041.68	0.006319
1051.33	0.003979
1060.97	0.004879
1070.62	0.008019
1080.26	0.015389
1089.91	0.020769
1099.55	0.021079
1109.2	0.024269
1118.84	0.022039
1128.49	0.012609
1138.13	0.011519
1147.78	0.014899
1157.42	0.027559
1167.07	0.037219
1176.71	0.024339
1186.36	0.011479
1196	0.005679
1205.64	0.003149
1215.29	0.004289
1224.93	0.004689
1234.58	0.003549
1244.22	0.003159
1253.87	0.003639
1263.51	0.004709
1273.16	0.005199
1282.8	0.006299
1292.45	0.007679
1302.09	0.010769
1311.74	0.014289
1321.38	0.016009
1331.03	0.015209
1340.67	0.011919
1350.32	0.007669
1359.96	0.005559
1369.61	0.005109
1379.25	0.005429
1388.9	0.007269
1398.54	0.009369
1408.18	0.008789
1417.83	0.006249
1427.47	0.004279
1437.12	0.003449
1446.76	0.003699
1456.41	0.007019
1466.05	0.012739
1475.7	0.011099
1485.34	0.005949
1494.99	0.002959
1504.63	0.001909
1514.28	0.001349
1523.92	0.001219
1533.57	0.001076
1543.21	0.001229
1552.86	0.001649
1562.5	0.002589
1572.15	0.002929
1581.79	0.002249
1591.44	0.001929
1601.08	0.001909
1610.73	0.001549
1620.37	0.001479
1630.01	0.001389
1639.66	0.0008478
1649.3	0.000622
1658.95	0.0006651
1668.59	0.0008427
1678.24	0.0009426
1687.88	0.001269
1697.53	0.001829
1707.17	0.002849
1716.82	0.005499
1726.46	0.010329
1736.11	0.016529
1745.75	0.027709
1755.4	0.044979
1765.04	0.061029
1774.69	0.054739
1784.33	0.029039
1793.98	0.019449
1803.62	0.009879
1813.27	0.004549
1822.91	0.002399
1832.55	0.001529
1842.2	0.0011373
1851.84	0.00097
1861.49	0.0008459
1871.13	0.0006808
1880.78	0.0007358
1890.42	0.0007978
1900.07	0.0009149
1909.71	0.0009357
1919.36	0.0006201
1929	0.0003958
1938.65	0.0003536
1948.29	0.00024734
1957.94	0.00019022
1967.58	0.0002757
1977.23	0.00022973
1986.87	0.0003403
1996.52	0.0003273
2006.16	0.0002727
2015.81	0.00022553
2025.45	0.0003275
2035.1	0.00031
2044.74	0.000332
2054.38	0.0003122
2064.03	0.0003891
2073.67	0.0002708
2083.32	0.0001505
2092.96	0.00019199
2102.61	0.00019846
2112.25	0.0002857
2121.9	0.00025774
2131.54	0.0003398
2141.19	0.0002787
2150.83	0.000175207
2160.48	0.00025197
2170.12	0.0003501
2179.77	0.0003913
2189.41	0.00027
2199.06	0.0003193
2208.7	0.0002752
2218.35	0.0003526
2227.99	0.0003378
2237.64	0.000362
2247.28	0.0003445
2256.92	0.0003369
2266.57	0.0003135
2276.21	0.0003605
2285.86	0.000379
2295.5	0.0003673
2305.15	0.0002742
2314.79	0.0002906
2324.44	0.0002924
2334.08	0.0003134
2343.73	0.0003116
2353.37	0.0003145
2363.02	0.0003104
2372.66	0.000441
2382.31	0.0003388
2391.95	0.0003773
2401.6	0.0003924
2411.24	0.0004513
2420.89	0.0003762
2430.53	0.0003805
2440.18	0.0004206
2449.82	0.0003951
2459.47	0.0003698
2469.11	0.0004248
2478.75	0.0004643
2488.4	0.0003193
2498.04	0.0002951
2507.69	0.0003169
2517.33	0.0004535
2526.98	0.0003718
2536.62	0.0003791
2546.27	0.0003361
2555.91	0.0004122
2565.56	0.0003175
2575.2	0.0002921
2584.85	0.0003547
2594.49	0.0003739
2604.14	0.0004956
2613.78	0.0003568
2623.43	0.0004803
2633.07	0.0003747
2642.72	0.000449
2652.36	0.0003537
2662.01	0.00025023
2671.65	0.00022788
2681.29	0.000297
2690.94	0.0003108
2700.58	0.0002884
2710.23	0.00026671
2719.87	0.0003728
2729.52	0.0004111
2739.16	0.0004241
2748.81	0.0006251
2758.45	0.0004115
2768.1	0.000456
2777.74	0.0004695
2787.39	0.0004134
2797.03	0.0004524
2806.68	0.000472
2816.32	0.0004794
2825.97	0.000472
2835.61	0.000681
2845.26	0.0007283
2854.9	0.001249
2864.55	0.001889
2874.19	0.002519
2883.84	0.002749
2893.48	0.002709
2903.12	0.002549
2912.77	0.002549
2922.41	0.003689
2932.06	0.006209
2941.7	0.005899
2951.35	0.003409
2960.99	0.002299
2970.64	0.001809
2980.28	0.001609
2989.93	0.001839
2999.57	0.002439
3009.22	0.002619
3018.86	0.002749
3028.51	0.003379
3038.15	0.003969
3047.8	0.003699
3057.44	0.003229
3067.09	0.002279
3076.73	0.001649
3086.38	0.001349
3096.02	0.001249
3105.67	0.0007934
3115.31	0.0006229
3124.95	0.0005986
3134.6	0.0005148
3144.24	0.0004017
3153.89	0.0004125
3163.53	0.00023167
3173.18	0.0004729
3182.82	0.0003535
3192.47	0.00022922
3202.11	0.0001396
3211.76	0.000343
3221.4	0.0002788
3231.05	8.96e-05
3240.69	0.000171618
3250.34	0.0003076
3259.98	0.00023742
3269.63	0.00023163
3279.27	0.0004146
3288.92	0.0002901
3298.56	0.00022904
3308.21	0.00021667
3317.85	0.0001571
3327.49	0.0001215
3337.14	0.0001042
3346.78	0.0003419
3356.43	0.00021053
3366.07	0
3375.72	0.00018385
3385.36	0.0003794
3395.01	0.00016224
3404.65	0.0001979
3414.3	0.0003318
3423.94	0.00019834
3433.59	0.00026479
3443.23	0.000305
3452.88	0.0003627
3462.52	0.0004042
3472.17	0.0007869
3481.81	0.0010049
3491.46	0.001509
3501.1	0.001369
3510.75	0.001749
3520.39	0.001709
3530.04	0.001719
3539.68	0.001999
3549.32	0.003049
3558.97	0.011309
3568.61	0.025999
3578.26	0.020029
3587.9	0.006849
3597.55	0.001799
3607.19	0.001249
3616.84	0.0010888
3626.48	0.0004477
3636.13	0.00039
3645.77	0.0005646
3655.42	0.0002227
3665.06	0.0002798
3674.71	0.0003201
3684.35	0.0003314
3694	0.0002929
3703.64	0.0004135
3713.29	0.0004723
3722.93	0.0002891
3732.58	0.0005239
3742.22	0.0003175
3751.86	0.0003769
3761.51	0.0003018
3771.15	0.00025295
3780.8	0.00020884
3790.44	0.0005129
3800.09	0.000425
3809.73	0.0002692
3819.38	0.00024411
3829.02	0.0004402
3838.67	0.0004623
3848.31	0.0003901
3857.96	0.000372
3867.6	0.0003725
3877.25	0.0002838
3886.89	0.0004298
3896.54	0.0003532
3906.18	0.00025983
3915.83	0.0003727
3925.47	0.0003532
3935.12	0.00036
3944.76	0.00019507
3954.41	0.0003462
3964.05	0.0004148
3973.69	0.0003216
3983.34	0.0003898
3992.98	0.00022704
