Infrared Spectrum: 2,6-Dibromo-4-methylaniline
Formula: C 7 H 7 Br 2 N
CAS: 6968-24-7
State: gas
Origin: EPA-IR VAPOR PHASE LIBRARY
1/CM	ABSORBANCE
549.9	0.00648
559.547	0.00871
569.193	0.00551
578.84	0.00431
588.486	0.0043
598.133	0.00476
607.779	0.0051
617.426	0.00578
627.072	0.00642
636.719	0.00767
646.365	0.0087
656.012	0.00984
665.658	0.01074
675.305	0.01106
684.951	0.01167
694.598	0.01379
704.245	0.01597
713.891	0.01399
723.538	0.02158
733.184	0.05913
742.831	0.04347
752.477	0.01985
762.124	0.0151
771.77	0.01206
781.417	0.00861
791.063	0.0062
800.71	0.00558
810.356	0.00549
820.003	0.00545
829.649	0.0052
839.296	0.00979
848.943	0.02302
858.589	0.01342
868.236	0.00482
877.882	0.00412
887.529	0.00632
897.175	0.00894
906.822	0.00583
916.468	0.00425
926.115	0.00381
935.761	0.00362
945.408	0.00368
955.054	0.00406
964.701	0.005
974.347	0.0059
983.994	0.00818
993.64	0.00947
1003.29	0.00691
1012.93	0.00418
1022.58	0.00427
1032.23	0.00595
1041.87	0.00975
1051.52	0.01416
1061.17	0.01495
1070.81	0.01145
1080.46	0.0127
1090.11	0.0181
1099.75	0.0188
1109.4	0.00973
1119.05	0.00451
1128.69	0.00303
1138.34	0.00243
1147.99	0.0021475
1157.63	0.0021169
1167.28	0.0022464
1176.92	0.00291
1186.57	0.00344
1196.22	0.00459
1205.86	0.00969
1215.51	0.01185
1225.16	0.0095
1234.8	0.0106
1244.45	0.00477
1254.1	0.00306
1263.74	0.00376
1273.39	0.00782
1283.04	0.01944
1292.68	0.01883
1302.33	0.00555
1311.98	0.0026
1321.62	0.0020862
1331.27	0.0021881
1340.92	0.0021626
1350.56	0.0019372
1360.21	0.0020569
1369.86	0.0027
1379.5	0.00388
1389.15	0.00658
1398.79	0.01016
1408.44	0.00993
1418.09	0.00856
1427.73	0.00755
1437.38	0.00697
1447.03	0.00811
1456.67	0.01555
1466.32	0.04635
1475.97	0.09566
1485.61	0.06664
1495.26	0.01671
1504.91	0.00915
1514.55	0.00912
1524.2	0.01079
1533.85	0.01645
1543.49	0.02174
1553.14	0.01652
1562.79	0.01302
1572.43	0.02323
1582.08	0.03238
1591.73	0.0266
1601.37	0.02051
1611.02	0.02738
1620.67	0.03696
1630.31	0.03062
1639.96	0.01407
1649.6	0.0058
1659.25	0.00342
1668.9	0.0026
1678.54	0.002285
1688.19	0.0021973
1697.84	0.0023687
1707.48	0.00258
1717.13	0.0036
1726.78	0.00556
1736.42	0.00384
1746.07	0.00247
1755.72	0.00265
1765.36	0.00249
1775.01	0.0017586
1784.66	0.00138863
1794.3	0.001215
1803.95	0.001199
1813.6	0.001197
1823.24	0.001182
1832.89	0.001172
1842.54	0.001142
1852.18	0.001098
1861.83	0.001038
1871.47	0.001063
1881.12	0.001096
1890.77	0.001179
1900.41	0.001243
1910.06	0.001301
1919.71	0.001266
1929.35	0.0013524
1939	0.001358
1948.65	0.0013296
1958.29	0.001278
1967.94	0.001152
1977.59	0.00113
1987.23	0.001205
1996.88	0.001174
2006.53	0.00114
2016.17	0.001164
2025.82	0.001181
2035.47	0.00116
2045.11	0.001192
2054.76	0.001229
2064.41	0.001227
2074.05	0.001195
2083.7	0.001122
2093.35	0.001073
2102.99	0.001015
2112.64	0.001091
2122.28	0.001099
2131.93	0.001109
2141.58	0.001165
2151.22	0.001134
2160.87	0.001118
2170.52	0.001107
2180.16	0.001101
2189.81	0.001019
2199.46	0.001052
2209.1	0.001082
2218.75	0.001055
2228.4	0.00104
2238.04	0.001106
2247.69	0.001095
2257.34	0.001154
2266.98	0.001112
2276.63	0.001101
2286.28	0.001172
2295.92	0.001125
2305.57	0.001123
2315.22	0.001078
2324.86	0.001166
2334.51	0.001169
2344.16	0.001207
2353.8	0.001164
2363.45	0.001159
2373.09	0.001283
2382.74	0.001229
2392.39	0.001136
2402.03	0.001082
2411.68	0.00101
2421.33	0.000985
2430.97	0.000954
2440.62	0.000974
2450.27	0.001006
2459.91	0.000956
2469.56	0.000988
2479.21	0.001042
2488.85	0.001055
2498.5	0.001234
2508.15	0.0013198
2517.79	0.00141531
2527.44	0.00137975
2537.09	0.001144
2546.73	0.001043
2556.38	0.001088
2566.03	0.0013469
2575.67	0.001564
2585.32	0.001601
2594.96	0.00140352
2604.61	0.001247
2614.26	0.00105
2623.9	0.001029
2633.55	0.000963
2643.2	0.000938
2652.84	0.000929
2662.49	0.000927
2672.14	0.000946
2681.78	0.000936
2691.43	0.000908
2701.08	0.000821
2710.72	0.000817
2720.37	0.000953
2730.02	0.001125
2739.66	0.00143467
2749.31	0.0016845
2758.96	0.00141348
2768.6	0.001195
2778.25	0.001114
2787.9	0.001098
2797.54	0.001143
2807.19	0.001165
2816.84	0.0013547
2826.48	0.0015978
2836.13	0.002014
2845.77	0.00284
2855.42	0.00419
2865.07	0.00625
2874.71	0.00736
2884.36	0.0074
2894.01	0.00739
2903.65	0.00727
2913.3	0.00825
2922.95	0.01213
2932.59	0.01751
2942.24	0.01412
2951.89	0.00733
2961.53	0.00497
2971.18	0.00353
2980.83	0.00332
2990.47	0.00421
3000.12	0.00475
3009.77	0.0051
3019.41	0.00548
3029.06	0.0042
3038.71	0.00371
3048.35	0.0044
3058	0.00508
3067.64	0.00491
3077.29	0.00272
3086.94	0.0013262
3096.58	0.000965
3106.23	0.001085
3115.88	0.001069
3125.52	0.000946
3135.17	0.000798
3144.82	0.000913
3154.46	0.00072
3164.11	0.000656
3173.76	0.000661
3183.4	0.000495
3193.05	0.000615
3202.7	0.000696
3212.34	0.000454
3221.99	0.000388
3231.64	0.00038
3241.28	0.00019
3250.93	0.00012
3260.58	0.000476
3270.22	0.00024
3279.87	0.0003
3289.52	0.00025
3299.16	0.00016
3308.81	0.0002
3318.45	6e-05
3328.1	0.00022
3337.75	0.00024
3347.39	0.000471
3357.04	0.000511
3366.69	0.001114
3376.33	0.0022007
3385.98	0.00519
3395.63	0.01147
3405.27	0.01569
3414.92	0.00919
3424.57	0.00328
3434.21	0.0018377
3443.86	0.0017078
3453.51	0.0020982
3463.15	0.00331
3472.8	0.00538
3482.45	0.00915
3492.09	0.01735
3501.74	0.02645
3511.39	0.01453
3521.03	0.00567
3530.68	0.00277
3540.33	0.0015183
3549.97	0.001016
3559.62	0.000866
3569.26	0.000748
3578.91	0.000548
3588.56	0.000565
3598.2	0.000566
3607.85	0.000522
3617.5	0.000406
3627.14	0.000421
3636.79	0.000624
3646.44	0.000533
3656.08	0.000569
3665.73	0.000518
3675.38	0.000703
3685.02	0.000712
3694.67	0.000913
3704.32	0.000566
3713.96	0.000592
3723.61	0.000658
3733.26	0.00063
3742.9	0.000681
3752.55	0.000735
3762.2	0.000741
3771.84	0.000774
3781.49	0.000911
3791.13	0.000943
3800.78	0.000991
3810.43	0.000931
3820.07	0.001034
3829.72	0.001091
3839.37	0.001245
3849.01	0.001167
3858.66	0.00124
3868.31	0.001249
3877.95	0.001247
3887.6	0.001114
3897.25	0.001031
3906.89	0.001018
3916.54	0.001175
3926.19	0.001162
3935.83	0.0012956
3945.48	0.001204
3955.13	0.001245
3964.77	0.001132
3974.42	0.001074
3984.07	0.001093
3993.71	0.000928
