Infrared Spectrum: 3-Methylnorcamphene-2-methanol
Formula: C 9 H 16 O
CAS: 6968-75-8
State: gas
Origin: EPA-IR VAPOR PHASE LIBRARY
1/CM	ABSORBANCE
549.8	0.000896
559.445	0.0008584
569.09	0.0008487
578.735	0.0005786
588.38	0.0005844
598.025	0.0005469
607.67	0.000553
617.315	0.0007731
626.96	0.0007358
636.605	0.0009662
646.251	0.0007567
655.896	0.00072907
665.541	0.00073946
675.186	0.0007242
684.831	0.000646133
694.476	0.00072514
704.121	0.00069972
713.766	0.0006086
723.411	0.0009305
733.056	0.0011898
742.701	0.0014071
752.346	0.0013852
761.991	0.0010505
771.636	0.0009532
781.281	0.0009276
790.926	0.0009636
800.571	0.001156
810.216	0.0014179
819.861	0.0012441
829.507	0.0015041
839.152	0.0016329
848.797	0.0013581
858.442	0.0012032
868.087	0.001336
877.732	0.001726
887.377	0.001736
897.022	0.002026
906.667	0.002006
916.312	0.001896
925.957	0.002046
935.602	0.002156
945.247	0.002926
954.892	0.003706
964.537	0.005076
974.182	0.006626
983.827	0.009466
993.472	0.011496
1003.12	0.010316
1012.76	0.008496
1022.41	0.010616
1032.05	0.016226
1041.7	0.020996
1051.34	0.018136
1060.99	0.010386
1070.63	0.005336
1080.28	0.003636
1089.92	0.004776
1099.57	0.006616
1109.21	0.005976
1118.86	0.004056
1128.5	0.003156
1138.15	0.003176
1147.79	0.003426
1157.44	0.003336
1167.08	0.003406
1176.73	0.003356
1186.37	0.003346
1196.02	0.003276
1205.66	0.003526
1215.31	0.003546
1224.95	0.003586
1234.6	0.003716
1244.24	0.004106
1253.89	0.004016
1263.53	0.003696
1273.18	0.003416
1282.82	0.003486
1292.47	0.003486
1302.11	0.003406
1311.76	0.003096
1321.4	0.003096
1331.05	0.003396
1340.69	0.003746
1350.34	0.004016
1359.98	0.004496
1369.63	0.005806
1379.27	0.007206
1388.92	0.006156
1398.56	0.003946
1408.21	0.002686
1417.85	0.002176
1427.5	0.002106
1437.14	0.002776
1446.79	0.004486
1456.43	0.006376
1466.08	0.007246
1475.73	0.006516
1485.37	0.004286
1495.02	0.002296
1504.66	0.0012542
1514.31	0.0010122
1523.95	0.0008531
1533.6	0.0007854
1543.24	0.0006827
1552.89	0.00073482
1562.53	0.00073949
1572.18	0.00071065
1581.82	0.00067286
1591.47	0.00063985
1601.11	0.00071385
1610.76	0.0007004
1620.4	0.00068784
1630.05	0.00070331
1639.69	0.00069316
1649.34	0.0006341
1658.98	0.0006356
1668.63	0.0005936
1678.27	0.0006142
1687.92	0.0005857
1697.56	0.000467
1707.21	0.0005912
1716.85	0.000472
1726.5	0.0005602
1736.14	0.000517
1745.79	0.000517
1755.43	0.000535
1765.08	0.000538
1774.72	0.0005542
1784.37	0.000481
1794.01	0.000506
1803.66	0.0005709
1813.3	0.000522
1822.95	0.0005
1832.59	0.0005564
1842.24	0.000513
1851.88	0.000516
1861.53	0.000465
1871.17	0.000504
1880.82	0.000517
1890.46	0.000521
1900.11	0.0005496
1909.75	0.000472
1919.4	0.000489
1929.04	0.000528
1938.69	0.0005761
1948.33	0.000498
1957.98	0.0005557
1967.62	0.0005515
1977.27	0.0005641
1986.91	0.0005935
1996.56	0.0006131
2006.2	0.0005898
2015.85	0.00066027
2025.49	0.00067802
2035.14	0.00071798
2044.78	0.00064319
2054.43	0.00066676
2064.07	0.0006126
2073.72	0.00064163
2083.36	0.000648532
2093.01	0.0006111
2102.65	0.0005496
2112.3	0.000545
2121.94	0.000535
2131.59	0.000533
2141.23	0.0005747
2150.88	0.0005723
2160.52	0.000645051
2170.17	0.0005705
2179.81	0.0005874
2189.46	0.000554
2199.1	0.0005634
2208.75	0.0006317
2218.39	0.000518
2228.04	0.0005676
2237.68	0.0006317
2247.33	0.0006314
2256.97	0.0006124
2266.62	0.0006031
2276.26	0.0006168
2285.91	0.000508
2295.55	0.000542
2305.2	0.000524
2314.84	0.000539
2324.49	0.0005699
2334.13	0.000476
2343.78	0.00054
2353.42	0.000522
2363.07	0.00045
2372.72	0.0005713
2382.36	0.000517
2392.01	0.0005636
2401.65	0.0005813
2411.3	0.0005926
2420.94	0.0005737
2430.59	0.000593
2440.23	0.0006021
2449.88	0.0005888
2459.52	0.0005649
2469.17	0.0006086
2478.81	0.000577
2488.46	0.0005804
2498.1	0.0005788
2507.75	0.000511
2517.39	0.000511
2527.04	0.00051
2536.68	0.000538
2546.33	0.000535
2555.97	0.0005514
2565.62	0.0005958
2575.26	0.000544
2584.91	0.0005783
2594.55	0.00066384
2604.2	0.00066339
2613.84	0.0007322
2623.49	0.00072628
2633.13	0.0007534
2642.78	0.0008148
2652.42	0.0008195
2662.07	0.0008321
2671.71	0.0008503
2681.36	0.000922
2691	0.0009521
2700.65	0.0010014
2710.29	0.0010367
2719.94	0.0010555
2729.58	0.0012919
2739.23	0.0013405
2748.87	0.0014835
2758.52	0.001592
2768.16	0.001686
2777.81	0.001716
2787.45	0.001766
2797.1	0.001956
2806.74	0.001906
2816.39	0.002196
2826.03	0.002616
2835.68	0.003496
2845.32	0.005296
2854.97	0.009306
2864.61	0.020016
2874.26	0.035806
2883.9	0.042786
2893.55	0.035306
2903.19	0.028526
2912.84	0.028646
2922.48	0.030736
2932.13	0.038256
2941.77	0.061056
2951.42	0.095416
2961.06	0.095966
2970.71	0.061256
2980.35	0.024356
2990	0.008526
2999.64	0.003546
3009.29	0.002036
3018.93	0.0015148
3028.58	0.0013713
3038.22	0.0013651
3047.87	0.0010307
3057.51	0.0010538
3067.16	0.0008823
3076.8	0.0007603
3086.45	0.00065857
3096.09	0.0007749
3105.74	0.00074067
3115.38	0.0005713
3125.03	0.000653823
3134.67	0.00069136
3144.32	0.00066103
3153.96	0.0005674
3163.61	0.00069263
3173.25	0.000531
3182.9	0.00046
3192.54	0.000354
3202.19	0.000464
3211.83	0.000322
3221.48	0.000334
3231.12	0.000331
3240.77	0.000386
3250.41	0.000375
3260.06	0.000222
3269.7	0.000256
3279.35	0.000258
3289	0.000164
3298.64	0.000105
3308.29	0.000218
3317.93	5.2e-05
3327.58	0.000213
3337.22	0.000113
3346.87	0.000239
3356.51	0.000234
3366.16	0.000289
3375.8	0.000169
3385.45	0.000341
3395.09	0.000282
3404.74	0.000203
3414.38	0.000487
3424.03	0.000381
3433.67	0.000297
3443.32	0.000466
3452.96	0.000315
3462.61	0.0003
3472.25	0.0005557
3481.9	0.000539
3491.54	0.000414
3501.19	0.000372
3510.83	0.000338
3520.48	0.000243
3530.12	0.00046
3539.77	0.000276
3549.41	0.000345
3559.06	0.000286
3568.7	0.000244
3578.35	0.000193
3587.99	0.000387
3597.64	0.000382
3607.28	0.000354
3616.93	0.000438
3626.57	0.0006309
3636.22	0.0008168
3645.86	0.002046
3655.51	0.003946
3665.15	0.005246
3674.8	0.004066
3684.44	0.002046
3694.09	0.0011047
3703.73	0.00069348
3713.38	0.00053
3723.02	0.000446
3732.67	0.0002
3742.31	0.000345
3751.96	0.000338
3761.6	0.000296
3771.25	0.000468
3780.89	0.000312
3790.54	0.000335
3800.18	0.000376
3809.83	0.00035
3819.47	0.000333
3829.12	0.0005825
3838.76	0.000205
3848.41	0.000349
3858.05	0.000477
3867.7	0.000449
3877.34	0.000547
3886.99	0.000499
3896.63	0.00045
3906.28	0.000307
3915.92	0.000329
3925.57	0.000215
3935.21	0.000284
3944.86	0.000349
3954.5	0.000189
3964.15	0.000113
3973.79	0.000303
3983.44	0.000137
3993.08	0.000225
