Infrared Spectrum: 4-Bromophthalic acid (anhydride)
Formula: C 8 H 5 Br O 4
CAS: 6968-28-1
State: gas
Origin: EPA-IR VAPOR PHASE LIBRARY
1/CM	ABSORBANCE
549.8	0.0041718
559.445	0.0016018
569.09	0.0013218
578.734	0.0047618
588.379	0.0105618
598.024	0.0043918
607.669	0.0005993
617.313	0.0003204
626.958	0.0003547
636.603	0.0013118
646.248	0.0029518
655.893	0.0062018
665.537	0.0043118
675.182	0.0022218
684.827	0.0071618
694.472	0.0188518
704.116	0.0062218
713.761	0.0058218
723.406	0.0206818
733.051	0.0329718
742.695	0.0127918
752.34	0.0022518
761.985	0.001004
771.63	0.0008221
781.275	0.0009331
790.919	0.0013418
800.564	0.0016018
810.209	0.0016618
819.854	0.0019818
829.498	0.0062018
839.143	0.0134818
848.788	0.0167318
858.433	0.0329818
868.078	0.0235418
877.722	0.0167718
887.367	0.0374018
897.012	0.0770418
906.657	0.119952
916.301	0.109482
925.946	0.0437618
935.591	0.0161918
945.236	0.0092218
954.88	0.0066618
964.525	0.0054018
974.17	0.0045818
983.815	0.0029718
993.46	0.0017118
1003.1	0.0015118
1012.75	0.0011718
1022.39	0.0013018
1032.04	0.0017818
1041.68	0.0074118
1051.33	0.0132818
1060.97	0.0029518
1070.62	0.0020618
1080.26	0.0036718
1089.91	0.0077918
1099.55	0.0243218
1109.2	0.0262718
1118.84	0.0110318
1128.49	0.0028018
1138.13	0.0016718
1147.78	0.0025118
1157.42	0.0105618
1167.07	0.0203018
1176.71	0.0099618
1186.36	0.0054818
1196	0.0067318
1205.64	0.0121318
1215.29	0.0194218
1224.93	0.0295118
1234.58	0.0612918
1244.22	0.116832
1253.87	0.130402
1263.51	0.0559818
1273.16	0.0203818
1282.8	0.0176318
1292.45	0.0173518
1302.09	0.0166018
1311.74	0.0386118
1321.38	0.0325618
1331.03	0.0092618
1340.67	0.0036818
1350.32	0.0027018
1359.96	0.0023718
1369.61	0.0026518
1379.25	0.0031718
1388.9	0.0035418
1398.54	0.0052918
1408.18	0.0118518
1417.83	0.0211718
1427.47	0.0107518
1437.12	0.0059118
1446.76	0.0102818
1456.41	0.0120118
1466.05	0.0123018
1475.7	0.0069718
1485.34	0.0028418
1494.99	0.0023118
1504.63	0.0017918
1514.28	0.0013218
1523.92	0.0015818
1533.57	0.0014618
1543.21	0.0013118
1552.86	0.0020218
1562.5	0.0032118
1572.15	0.0031318
1581.79	0.0040318
1591.44	0.0118918
1601.08	0.0241618
1610.73	0.0127218
1620.37	0.0040518
1630.01	0.0028918
1639.66	0.0025418
1649.3	0.0018518
1658.95	0.0016618
1668.59	0.0015418
1678.24	0.0016918
1687.88	0.0019418
1697.53	0.0019918
1707.17	0.0023418
1716.82	0.0028618
1726.46	0.0037118
1736.11	0.0050618
1745.75	0.0062918
1755.4	0.0084918
1765.04	0.0174818
1774.69	0.0428618
1784.33	0.106402
1793.98	0.195042
1803.62	0.237772
1813.27	0.244272
1822.91	0.137092
1832.55	0.0392918
1842.2	0.0282118
1851.84	0.0428018
1861.49	0.0714618
1871.13	0.0922718
1880.78	0.0638518
1890.42	0.0290818
1900.07	0.0123518
1909.71	0.0060218
1919.36	0.0043518
1929	0.0044818
1938.65	0.0044118
1948.29	0.0040018
1957.94	0.0033218
1967.58	0.0027718
1977.23	0.0025018
1986.87	0.0029818
1996.52	0.0036518
2006.16	0.0040618
2015.81	0.0040518
2025.45	0.0032818
2035.1	0.0021818
2044.74	0.0016818
2054.38	0.0013818
2064.03	0.0011718
2073.67	0.000965
2083.32	0.0007686
2092.96	0.0006579
2102.61	0.000652
2112.25	0.0006907
2121.9	0.000854
2131.54	0.0011118
2141.19	0.0014418
2150.83	0.0017718
2160.48	0.0017918
2170.12	0.0014418
2179.77	0.0010497
2189.41	0.001016
2199.06	0.0009434
2208.7	0.0011418
2218.35	0.0013018
2227.99	0.0011518
2237.64	0.0008176
2247.28	0.000612
2256.92	0.000532
2266.57	0.0006331
2276.21	0.0006884
2285.86	0.0007022
2295.5	0.0005917
2305.15	0.0005916
2314.79	0.000482
2324.44	0.0005202
2334.08	0.0007559
2343.73	0.0008497
2353.37	0.0008907
2363.02	0.0007593
2372.66	0.0006398
2382.31	0.0006731
2391.95	0.0005982
2401.6	0.0006846
2411.24	0.0007369
2420.89	0.0006979
2430.53	0.0005627
2440.18	0.0005794
2449.82	0.0006476
2459.47	0.0005739
2469.11	0.0004715
2478.75	0.0005064
2488.4	0.0006674
2498.04	0.0007546
2507.69	0.0007557
2517.33	0.0006885
2526.98	0.0006013
2536.62	0.0005786
2546.27	0.0007029
2555.91	0.0008488
2565.56	0.0012418
2575.2	0.0012118
2584.85	0.0007964
2594.49	0.0005349
2604.14	0.0005967
2613.78	0.0007214
2623.43	0.000869
2633.07	0.0009087
2642.72	0.0006329
2652.36	0.0004938
2662.01	0.0005301
2671.65	0.0004759
2681.29	0.0005573
2690.94	0.0007931
2700.58	0.0009997
2710.23	0.0008905
2719.87	0.0006074
2729.52	0.0005222
2739.16	0.0003719
2748.81	0.0004984
2758.45	0.0005661
2768.1	0.0006394
2777.74	0.0004364
2787.39	0.0003687
2797.03	0.0003195
2806.68	0.0003258
2816.32	0.0003203
2825.97	0.0003112
2835.61	0.000261
2845.26	0.0002824
2854.9	0.0002314
2864.55	0.0002447
2874.19	0.0003492
2883.84	0.0002859
2893.48	0.0004998
2903.12	0.0005616
2912.77	0.0006516
2922.41	0.0005864
2932.06	0.0004278
2941.7	0.0003879
2951.35	0.0002553
2960.99	0.0002887
2970.64	0.000467
2980.28	0.0004024
2989.93	0.0003797
2999.57	0.0002835
3009.22	0.0005266
3018.86	0.0003591
3028.51	0.0004442
3038.15	0.0005135
3047.8	0.00046
3057.44	0.0006289
3067.09	0.0007775
3076.73	0.0013418
3086.38	0.0013118
3096.02	0.0006617
3105.67	0.0005225
3115.31	0.0003424
3124.95	0.00013295
3134.6	0.0002896
3144.24	0.00013438
3153.89	0.0003105
3163.53	0.000459
3173.18	0.0002278
3182.82	0.0003197
3192.47	0.000724
3202.11	0.0007978
3211.76	0.0004174
3221.4	0.0004401
3231.05	0.0004314
3240.69	0.0002103
3250.34	0.0003226
3259.98	0.0002398
3269.63	0.0003255
3279.27	0.0002509
3288.92	0.00013946
3298.56	0.00014997
3308.21	9.684e-05
3317.85	0.00017915
3327.49	0.0003527
3337.14	0.0003015
3346.78	9.552e-05
3356.43	0.0003034
3366.07	0.0003209
3375.72	0.0002202
3385.36	0.0003997
3395.01	0.0004762
3404.65	0.0002147
3414.3	0.0002013
3423.94	0.0002448
3433.59	0.0002607
3443.23	0.0002211
3452.88	0.0002985
3462.52	0.0002297
3472.17	0.0002164
3481.81	0.0004548
3491.46	0.0001577
3501.1	0.0002914
3510.75	0.0004606
3520.39	0.0004901
3530.04	0.000291
3539.68	0.0005744
3549.32	0.000445
3558.97	0.0006671
3568.61	0.0007984
3578.26	0.0011618
3587.9	0.0013718
3597.55	0.0020418
3607.19	0.0021218
3616.84	0.0021518
3626.48	0.0024318
3636.13	0.0026318
3645.77	0.0028818
3655.42	0.0031118
3665.06	0.0026718
3674.71	0.0021318
3684.35	0.0015618
3694	0.0010541
3703.64	0.0006895
3713.29	0.0006963
3722.93	0.0006662
3732.58	0.0007825
3742.22	0.0005749
3751.86	0.0007035
3761.51	0.0004409
3771.15	0.000561
3780.8	0.0002526
3790.44	0.0003898
3800.09	0.0004208
3809.73	0.0001997
3819.38	0.0003084
3829.02	0.0003003
3838.67	0.0002708
3848.31	0.0002084
3857.96	0.0002568
3867.6	0.000204
3877.25	0.0001912
3886.89	0.0002735
3896.54	0.0001944
3906.18	0.0003061
3915.83	0.0002508
3925.47	0.0003321
3935.12	0.0004081
3944.76	0.0005252
3954.41	0.0004874
3964.05	0.0003843
3973.69	0.0004609
3983.34	9.508e-05
3992.98	0.0003286
