Infrared Spectrum: PURIN-6-OL, 2-HYDRAZINO
Formula: C5 H6 N6 O
CAS: 6969-28-4
State: SOLID (0.8 mg / 650 mg KBr DISC)
Class: COBLENTZ III
Instrument: PERKIN-ELMER 21 (GRATING)
Instrument parameters: FILTER CHANGE AT ABOUT 1070 CM^-^1
Sampling: TRANSMISSION
Resolution: 2
Origin: SOUTHERN RESEARCH INSTITUTE
1/CM	TRANSMITTANCE
621.574	0.619
630.87	0.6417
640.165	0.7669
649.461	0.7651
658.756	0.7611
668.052	0.758
677.347	0.7512
686.643	0.6978
695.939	0.6762
705.234	0.6276
714.53	0.6238
723.825	0.6647
733.121	0.6783
742.417	0.6878
751.712	0.6652
761.008	0.5806
770.303	0.4727
779.599	0.6265
788.894	0.6231
798.19	0.6009
807.486	0.5508
816.781	0.5004
826.077	0.4298
835.372	0.3833
844.668	0.4706
853.964	0.5256
863.259	0.5779
872.555	0.5797
881.85	0.5528
891.146	0.5162
900.441	0.4693
909.737	0.4353
919.033	0.3967
928.328	0.3558
937.624	0.325
946.919	0.3714
956.215	0.5165
965.511	0.5894
974.806	0.6276
984.102	0.6527
993.397	0.6735
1002.69	0.6646
1011.99	0.6348
1021.28	0.6275
1030.58	0.6806
1039.88	0.691
1049.17	0.693
1058.47	0.6924
1067.76	0.6864
1077.06	0.6693
1086.35	0.6467
1095.65	0.6009
1104.94	0.5765
1114.24	0.5502
1123.54	0.4981
1132.83	0.447
1142.13	0.4738
1151.42	0.5761
1160.72	0.617
1170.01	0.6054
1179.31	0.568
1188.6	0.518
1197.9	0.3947
1207.2	0.3842
1216.49	0.5838
1225.79	0.682
1235.08	0.6769
1244.38	0.6639
1253.67	0.628
1262.97	0.589
1272.26	0.5112
1281.56	0.4731
1290.86	0.4605
1300.15	0.3938
1309.45	0.4754
1318.74	0.5687
1328.04	0.5752
1337.33	0.5404
1346.63	0.4835
1355.92	0.4531
1365.22	0.5124
1374.52	0.553
1383.81	0.5358
1393.11	0.5166
1402.4	0.5154
1411.7	0.4919
1420.99	0.4665
1430.29	0.4566
1439.59	0.4098
1448.88	0.3079
1458.18	0.2531
1467.47	0.3442
1476.77	0.4253
1486.06	0.4754
1495.36	0.437
1504.65	0.4465
1513.95	0.4174
1523.25	0.3563
1532.54	0.2957
1541.84	0.2859
1551.13	0.2588
1560.43	0.2246
1569.72	0.1616
1579.02	0.12
1588.31	0.114
1597.61	0.112
1606.91	0.1198
1616.2	0.1271
1625.5	0.1036
1634.79	0.0693
1644.09	0.0402
1653.38	0.0302
1662.68	0.03
1671.97	0.0347
1681.27	0.043
1690.57	0.087
1699.86	0.145
1709.16	0.297
1718.45	0.4637
1727.75	0.5727
1737.04	0.636
1746.34	0.6529
1755.63	0.6803
1764.93	0.6984
1774.23	0.7114
1783.52	0.715
1792.82	0.716
1802.11	0.718
1811.41	0.7253
1820.7	0.728
1830	0.728
1839.3	0.7352
1848.59	0.7402
1857.89	0.7441
1867.18	0.7552
1876.48	0.7671
1885.77	0.778
1895.07	0.786
1904.36	0.793
1913.66	0.7979
1922.96	0.805
1932.25	0.8118
1941.55	0.813
1950.84	0.816
1960.14	0.821
1969.43	0.824
1978.73	0.825
1988.02	0.825
1997.32	0.825
2006.62	0.825
2015.91	0.825
2025.21	0.824
2034.5	0.822
2043.8	0.82
2053.09	0.817
2062.39	0.815
2071.68	0.813
2080.98	0.8063
2090.28	0.801
2099.57	0.7983
2108.87	0.7933
2118.16	0.7873
2127.46	0.7793
2136.75	0.773
2146.05	0.7676
2155.35	0.7583
2164.64	0.752
2173.94	0.7443
2183.23	0.7403
2192.53	0.7343
2201.82	0.7273
2211.12	0.7139
2220.41	0.7063
2229.71	0.7003
2239.01	0.6909
2248.3	0.6783
2257.6	0.6713
2266.89	0.6633
2276.19	0.6466
2285.48	0.6286
2294.78	0.6193
2304.07	0.5976
2313.37	0.5873
2322.67	0.5763
2331.96	0.5709
2341.26	0.5613
2350.55	0.5543
2359.85	0.551
2369.14	0.5456
2378.44	0.538
2387.73	0.5293
2397.03	0.5183
2406.33	0.5066
2415.62	0.4936
2424.92	0.4803
2434.21	0.47
2443.51	0.4593
2452.8	0.4463
2462.1	0.4356
2471.39	0.4166
2480.69	0.4063
2489.99	0.3963
2499.28	0.3906
2508.58	0.3823
2517.87	0.3736
2527.17	0.365
2536.46	0.3603
2545.76	0.357
2555.06	0.352
2564.35	0.3493
2573.65	0.3443
2582.94	0.3383
2592.24	0.3343
2601.53	0.331
2610.83	0.331
2620.12	0.3273
2629.42	0.3223
2638.72	0.317
2648.01	0.315
2657.31	0.314
2666.6	0.315
2675.9	0.316
2685.19	0.316
2694.49	0.316
2703.78	0.3153
2713.08	0.3083
2722.38	0.3013
2731.67	0.3
2740.97	0.299
2750.26	0.3067
2759.56	0.3077
2768.85	0.313
2778.15	0.3291
2787.44	0.3411
2796.74	0.345
2806.04	0.3433
2815.33	0.341
2824.63	0.3293
2833.92	0.325
2843.22	0.3203
2852.51	0.316
2861.81	0.308
2871.1	0.307
2880.4	0.305
2889.7	0.3003
2898.99	0.2933
2908.29	0.288
2917.58	0.2914
2926.88	0.3007
2936.17	0.3044
2945.47	0.306
2954.77	0.305
2964.06	0.2993
2973.36	0.2936
2982.65	0.286
2991.95	0.284
3001.24	0.281
3010.54	0.281
3019.83	0.283
3029.13	0.284
3038.43	0.285
3047.72	0.287
3057.02	0.288
3066.31	0.29
3075.61	0.29
3084.9	0.288
3094.2	0.291
3103.49	0.2957
3112.79	0.3017
3122.09	0.302
3131.38	0.301
3140.68	0.2953
3149.97	0.2873
3159.27	0.2816
3168.56	0.2746
3177.86	0.27
3187.15	0.27
3196.45	0.272
3205.75	0.2777
3215.04	0.285
3224.34	0.2924
3233.63	0.3147
3242.93	0.3271
3252.22	0.3444
3261.52	0.3567
3270.81	0.3657
3280.11	0.37
3289.41	0.3643
3298.7	0.356
3308	0.352
3317.29	0.3584
3326.59	0.3724
3335.88	0.4171
3345.18	0.4634
3354.48	0.4854
3363.77	0.4961
3373.07	0.5094
3382.36	0.5157
3391.66	0.52
3400.95	0.524
3410.25	0.5284
3419.54	0.534
3428.84	0.5431
3438.14	0.5501
3447.43	0.5721
3456.73	0.5861
3466.02	0.5967
3475.32	0.6091
3484.61	0.6207
3493.91	0.6337
3503.2	0.6557
3512.5	0.6747
3521.8	0.6881
3531.09	0.7061
3540.39	0.7174
3549.68	0.7341
3558.98	0.7538
3568.27	0.777
3577.57	0.7974
3586.86	0.8147
3596.16	0.8347
3605.46	0.843
3614.75	0.849
3624.05	0.8587
3633.34	0.8698
3642.64	0.8784
3651.93	0.88
3661.23	0.881
3670.52	0.885
3679.82	0.888
3689.12	0.892
3698.41	0.893
3707.71	0.893
3717	0.89
3726.3	0.888
3735.59	0.887
3744.89	0.883
3754.19	0.8823
3763.48	0.883
3772.78	0.88
3782.07	0.881
3791.37	0.881
3800.66	0.8783
3809.96	0.878
3819.25	0.875
3828.55	0.875
3837.85	0.874
3847.14	0.874
3856.44	0.8723
3865.73	0.8686
3875.03	0.868
3884.32	0.868
3893.62	0.871
3902.91	0.872
3912.21	0.872
