Infrared Spectrum: 2,4,6-TRIS(TRICHLOROMETHYL)PYRIDINE
Formula: C8 H2 Cl9 N
CAS: 6969-50-2
State: SOLUTION (10% CCl4 FOR 5000-1330, 10% CS2 FOR 1330-625 CM^-^1)
Class: COBLENTZ
Instrument: Not specified, most likely a prism, grating, or hybrid spectrometer.
Sampling: TRANSMISSION
Path length: 0.0101 CM, 0.0110 CM
Resolution: 4
Origin: DOW CHEMICAL COMPANY
MICROMETERS	TRANSMITTANCE
2.089	0.912
2.13011	0.912
2.17123	0.909
2.21234	0.907
2.25346	0.904
2.29457	0.904
2.33569	0.907
2.3768	0.912
2.41792	0.909
2.45903	0.911
2.50015	0.919
2.54126	0.921
2.58238	0.921
2.62349	0.924
2.66461	0.926
2.70572	0.923
2.74684	0.919
2.78795	0.911
2.82907	0.906
2.87018	0.906
2.9113	0.907
2.95241	0.911
2.99353	0.912
3.03464	0.912
3.07576	0.916
3.11687	0.904
3.15799	0.897
3.1991	0.877
3.24022	0.895
3.28133	0.911
3.32245	0.909
3.36356	0.899
3.40468	0.911
3.44579	0.909
3.4869	0.907
3.52802	0.912
3.56913	0.919
3.61025	0.916
3.65136	0.918
3.69248	0.919
3.73359	0.916
3.77471	0.918
3.81582	0.919
3.85694	0.918
3.89805	0.918
3.93917	0.918
3.98028	0.923
4.0214	0.926
4.06251	0.926
4.10363	0.923
4.14474	0.924
4.18586	0.919
4.22697	0.919
4.26809	0.918
4.3092	0.912
4.35032	0.902
4.39143	0.916
4.43255	0.933
4.47366	0.933
4.51478	0.933
4.55589	0.931
4.59701	0.933
4.63812	0.933
4.67924	0.938
4.72035	0.94
4.76147	0.94
4.80258	0.94
4.8437	0.935
4.88481	0.93
4.92592	0.93
4.96704	0.928
5.00815	0.923
5.04927	0.924
5.09038	0.938
5.1315	0.931
5.17261	0.931
5.21373	0.938
5.25484	0.938
5.29596	0.933
5.33707	0.93
5.37819	0.921
5.4193	0.93
5.46042	0.928
5.50153	0.921
5.54265	0.89
5.58376	0.923
5.62488	0.938
5.66599	0.938
5.70711	0.935
5.74822	0.936
5.78934	0.938
5.83045	0.938
5.87157	0.936
5.91268	0.93
5.9538	0.919
5.99491	0.924
6.03603	0.919
6.07714	0.912
6.11826	0.899
6.15937	0.858
6.20049	0.744
6.2416	0.564
6.28271	0.484
6.32383	0.588
6.36494	0.44
6.40606	0.44
6.44717	0.511
6.48829	0.592
6.5294	0.679
6.57052	0.715
6.61163	0.761
6.65275	0.829
6.69386	0.865
6.73498	0.889
6.77609	0.906
6.81721	0.909
6.85832	0.918
6.89944	0.901
6.94055	0.86
6.98167	0.779
7.02278	0.762
7.0639	0.807
7.10501	0.622
7.14613	0.428
7.18724	0.656
7.22836	0.851
7.26947	0.885
7.31059	0.906
7.3517	0.918
7.39282	0.916
7.43393	0.909
7.47505	0.921
7.51616	0.921
7.55728	0.918
7.59839	0.914
7.6395	0.906
7.68062	0.901
7.72173	0.899
7.76285	0.899
7.80396	0.899
7.84508	0.901
7.88619	0.902
7.92731	0.902
7.96842	0.901
8.00954	0.897
8.05065	0.895
8.09177	0.901
8.13288	0.901
8.174	0.899
8.21511	0.892
8.25623	0.89
8.29734	0.887
8.33846	0.88
8.37957	0.873
8.42069	0.875
8.4618	0.872
8.50292	0.861
8.54403	0.834
8.58515	0.808
8.62626	0.725
8.66738	0.523
8.70849	0.58
8.74961	0.812
8.79072	0.856
8.83184	0.878
8.87295	0.878
8.91407	0.878
8.95518	0.878
8.9963	0.88
9.03741	0.88
9.07852	0.88
9.11964	0.88
9.16075	0.878
9.20187	0.878
9.24298	0.878
9.2841	0.878
9.32521	0.877
9.36633	0.873
9.40744	0.873
9.44856	0.877
9.48967	0.882
9.53079	0.885
9.5719	0.887
9.61302	0.88
9.65413	0.861
9.69525	0.848
9.73636	0.817
9.77748	0.791
9.81859	0.732
9.85971	0.573
9.90082	0.31
9.94194	0.189
9.98305	0.221
10.0242	0.363
10.0653	0.598
10.1064	0.677
10.1475	0.769
10.1886	0.802
10.2297	0.831
10.2709	0.863
10.312	0.875
10.3531	0.883
10.3942	0.889
10.4353	0.894
10.4764	0.894
10.5175	0.892
10.5587	0.892
10.5998	0.89
10.6409	0.89
10.682	0.894
10.7231	0.894
10.7642	0.892
10.8053	0.887
10.8465	0.875
10.8876	0.868
10.9287	0.87
10.9698	0.878
11.0109	0.873
11.052	0.87
11.0932	0.858
11.1343	0.844
11.1754	0.849
11.2165	0.858
11.2576	0.849
11.2987	0.837
11.3398	0.827
11.381	0.808
11.4221	0.802
11.4632	0.791
11.5043	0.776
11.5454	0.766
11.5865	0.75
11.6276	0.725
11.6688	0.708
11.7099	0.694
11.751	0.684
11.7921	0.682
11.8332	0.684
11.8743	0.687
11.9154	0.697
11.9566	0.709
11.9977	0.699
12.0388	0.655
12.0799	0.602
12.121	0.53
12.1621	0.43
12.2033	0.296
12.2444	0.196
12.2855	0.122
12.3266	0.09
12.3677	0.071
12.4088	0.056
12.4499	0.073
12.4911	0.138
12.5322	0.281
12.5733	0.365
12.6144	0.394
12.6555	0.385
12.6966	0.372
12.7377	0.438
12.7789	0.5
12.82	0.529
12.8611	0.522
12.9022	0.481
12.9433	0.407
12.9844	0.257
13.0256	0.083
13.0667	0
13.1078	0
13.1489	0.018
13.19	0.105
13.2311	0.29
13.2722	0.452
13.3134	0.571
13.3545	0.597
13.3956	0.627
13.4367	0.634
13.4778	0.645
13.5189	0.675
13.56	0.709
13.6012	0.706
13.6423	0.665
13.6834	0.585
13.7245	0.421
13.7656	0.264
13.8067	0.177
13.8478	0.167
13.889	0.209
13.9301	0.257
13.9712	0.312
14.0123	0.389
14.0534	0.482
14.0945	0.569
14.1357	0.617
14.1768	0.65
14.2179	0.668
14.259	0.677
14.3001	0.68
14.3412	0.684
14.3823	0.68
14.4235	0.684
14.4646	0.679
14.5057	0.674
14.5468	0.665
14.5879	0.658
14.629	0.641
14.6701	0.626
14.7113	0.595
14.7524	0.527
14.7935	0.433
14.8346	0.322
14.8757	0.216
14.9168	0.22
14.9579	0.302
14.9991	0.447
15.0402	0.535
15.0813	0.551
15.1224	0.554
15.1635	0.552
15.2046	0.544
15.2458	0.532
15.2869	0.508
15.328	0.474
15.3691	0.401
15.4102	0.339
15.4513	0.23
15.4924	0.196
15.5336	0.218
15.5747	0.261
15.6158	0.32
15.6569	0.37
15.698	0.394
15.7391	0.424
15.7802	0.436
15.8214	0.453
15.8625	0.462
15.9036	0.465
