Infrared Spectrum: SALICYLIC ACID, n-OCTYL ESTER
Formula: C15 H22 O3
CAS: 6969-49-9
State: SOLUTION (10% CCl4 FOR 5000-1330, 10% CS2 FOR 1330-625 CM^-^1)
Class: COBLENTZ
Instrument: Not specified, most likely a prism, grating, or hybrid spectrometer.
Sampling: TRANSMISSION
Path length: 0.0123 CM, 0.0123 CM
Resolution: 4
Origin: DOW CHEMICAL COMPANY
MICROMETERS	TRANSMITTANCE
2.027	0.889
2.06796	0.889
2.10891	0.882
2.14987	0.889
2.19082	0.882
2.23178	0.875
2.27274	0.875
2.31369	0.879
2.35465	0.879
2.3956	0.877
2.43656	0.879
2.47751	0.884
2.51847	0.886
2.55943	0.891
2.60038	0.896
2.64134	0.896
2.68229	0.892
2.72325	0.891
2.76421	0.882
2.80516	0.874
2.84612	0.858
2.88707	0.819
2.92803	0.804
2.96899	0.76
3.00994	0.695
3.0509	0.586
3.09185	0.471
3.13281	0.44
3.17376	0.557
3.21472	0.63
3.25568	0.651
3.29663	0.654
3.33759	0.477
3.37854	0.102
3.4195	0.256
3.46046	0.321
3.50141	0.715
3.54237	0.795
3.58332	0.823
3.62428	0.833
3.66523	0.85
3.70619	0.855
3.74715	0.862
3.7881	0.862
3.82906	0.874
3.87001	0.877
3.91097	0.879
3.95193	0.884
3.99288	0.884
4.03384	0.889
4.07479	0.882
4.11575	0.884
4.15671	0.879
4.19766	0.889
4.23862	0.887
4.27957	0.879
4.32053	0.874
4.36148	0.879
4.40244	0.887
4.4434	0.891
4.48435	0.897
4.52531	0.899
4.56626	0.897
4.60722	0.892
4.64818	0.894
4.68913	0.896
4.73009	0.896
4.77104	0.897
4.812	0.896
4.85296	0.892
4.89391	0.896
4.93487	0.894
4.97582	0.892
5.01678	0.896
5.05773	0.892
5.09869	0.875
5.13965	0.886
5.1806	0.87
5.22156	0.887
5.26251	0.884
5.30347	0.899
5.34443	0.894
5.38538	0.886
5.42634	0.879
5.46729	0.874
5.50825	0.862
5.5492	0.882
5.59016	0.879
5.63112	0.865
5.67207	0.838
5.71303	0.816
5.75398	0.76
5.79494	0.726
5.8359	0.687
5.87685	0.501
5.91781	0.183
5.95876	0.045
5.99972	0.214
6.04068	0.498
6.08163	0.664
6.12259	0.596
6.16354	0.353
6.2045	0.323
6.24545	0.445
6.28641	0.289
6.32737	0.418
6.36832	0.486
6.40928	0.442
6.45023	0.44
6.49119	0.522
6.53215	0.549
6.5731	0.54
6.61406	0.513
6.65501	0.508
6.69597	0.307
6.73693	0.124
6.77788	0.204
6.81884	0.159
6.85979	0.411
6.90075	0.523
6.9417	0.501
6.98266	0.447
7.02362	0.377
7.06457	0.331
7.10553	0.295
7.14648	0.251
7.18744	0.258
7.2284	0.357
7.26935	0.496
7.31031	0.476
7.35126	0.411
7.39222	0.336
7.43317	0.258
7.47413	0.197
7.51509	0.151
7.55604	0.221
7.597	0.246
7.63795	0.095
7.67891	0.039
7.71987	0.112
7.76082	0.229
7.80178	0.408
7.84273	0.474
7.88369	0.414
7.92465	0.261
7.9656	0.074
8.00656	0.079
8.04751	0.238
8.08847	0.239
8.12942	0.231
8.17038	0.18
8.21134	0.039
8.25229	0.028
8.29325	0.127
8.3342	0.326
8.37516	0.352
8.41612	0.226
8.45707	0.241
8.49803	0.423
8.53898	0.464
8.57994	0.331
8.6209	0.098
8.66185	0.161
8.70281	0.44
8.74376	0.355
8.78472	0.212
8.82567	0.238
8.86663	0.418
8.90759	0.591
8.94854	0.636
8.9895	0.646
9.03045	0.668
9.07141	0.646
9.11237	0.53
9.15332	0.272
9.19428	0.083
9.23523	0.275
9.27619	0.542
9.31715	0.656
9.3581	0.722
9.39906	0.75
9.44001	0.763
9.48097	0.775
9.52192	0.78
9.56288	0.773
9.60384	0.738
9.64479	0.61
9.68575	0.452
9.7267	0.685
9.76766	0.743
9.80862	0.77
9.84957	0.778
9.89053	0.773
9.93148	0.763
9.97244	0.751
10.0134	0.736
10.0544	0.719
10.0953	0.715
10.1363	0.724
10.1772	0.709
10.2182	0.687
10.2591	0.681
10.3001	0.702
10.341	0.707
10.382	0.666
10.423	0.608
10.4639	0.591
10.5049	0.591
10.5458	0.607
10.5868	0.653
10.6277	0.692
10.6687	0.721
10.7096	0.744
10.7506	0.751
10.7916	0.75
10.8325	0.743
10.8735	0.772
10.9144	0.79
10.9554	0.794
10.9963	0.78
11.0373	0.777
11.0782	0.782
11.1192	0.79
11.1602	0.79
11.2011	0.785
11.2421	0.775
11.283	0.756
11.324	0.719
11.3649	0.676
11.4059	0.647
11.4469	0.62
11.4878	0.608
11.5288	0.585
11.5697	0.51
11.6107	0.46
11.6516	0.542
11.6926	0.581
11.7335	0.59
11.7745	0.6
11.8155	0.636
11.8564	0.687
11.8974	0.729
11.9383	0.741
11.9793	0.743
12.0202	0.743
12.0612	0.744
12.1021	0.75
12.1431	0.744
12.1841	0.731
12.225	0.724
12.266	0.726
12.3069	0.731
12.3479	0.729
12.3888	0.705
12.4298	0.647
12.4707	0.561
12.5117	0.481
12.5527	0.576
12.5936	0.666
12.6346	0.707
12.6755	0.71
12.7165	0.697
12.7574	0.68
12.7984	0.668
12.8393	0.658
12.8803	0.644
12.9213	0.612
12.9622	0.581
13.0032	0.547
13.0441	0.503
13.0851	0.44
13.126	0.316
13.167	0.164
13.208	0.045
13.2489	0.017
13.2899	0.091
13.3308	0.29
13.3718	0.403
13.4127	0.464
13.4537	0.479
13.4946	0.465
13.5356	0.438
13.5766	0.403
13.6175	0.358
13.6585	0.318
13.6994	0.267
13.7404	0.231
13.7813	0.204
13.8223	0.195
13.8632	0.187
13.9042	0.187
13.9452	0.192
13.9861	0.204
14.0271	0.219
14.068	0.238
14.109	0.25
14.1499	0.246
14.1909	0.209
14.2318	0.144
14.2728	0.129
14.3138	0.19
14.3547	0.302
14.3957	0.379
14.4366	0.428
14.4776	0.459
14.5185	0.481
14.5595	0.496
14.6005	0.505
14.6414	0.508
14.6824	0.51
14.7233	0.503
14.7643	0.498
14.8052	0.482
14.8462	0.462
14.8871	0.435
14.9281	0.394
14.9691	0.338
15.01	0.328
15.051	0.355
15.0919	0.403
15.1329	0.437
15.1738	0.45
15.2148	0.454
15.2557	0.454
15.2967	0.454
15.3377	0.452
15.3786	0.45
15.4196	0.448
15.4605	0.445
15.5015	0.442
15.5424	0.437
15.5834	0.435
15.6243	0.431
15.6653	0.426
15.7063	0.42
15.7472	0.416
15.7882	0.409
15.8291	0.403
15.8701	0.401
15.911	0.411
15.952	0.428
