Infrared Spectrum: p-BENZOQUINONE, 2,6-DICHLORO-
Formula: C6 H2 Cl2 O2
CAS: 697-91-6
State: SOLUTION (5% CCl4 FOR 3800-1330, 5% CS2 FOR 1330-460)
Class: COBLENTZ III
Instrument: DOW KBr FOREPRISM-GRATING
Instrument parameters: BLAZED AT 3.5, 12.0, 20.0 AND CHANGED AT 5.0, 7.5, 14.9 MICRON
Sampling: TRANSMISSION
Path length: 0.0224 CM, 0.0220 CM
Resolution: 2
Origin: DOW CHEMICAL COMPANY
1/CM	TRANSMITTANCE
3800	0.8952
3791	0.8946
3782	0.894
3773	0.8933
3764	0.8925
3755	0.8918
3746	0.8913
3737	0.8907
3728	0.8902
3719	0.89
3710	0.8899
3701	0.8898
3692	0.8896
3683	0.8888
3674	0.8881
3665	0.8873
3656	0.8866
3647	0.8856
3638	0.8845
3629	0.8835
3620	0.8824
3611	0.8821
3602	0.8821
3593	0.8821
3584	0.8823
3575	0.8825
3566	0.8831
3557	0.8831
3548	0.8823
3539	0.8793
3530	0.8767
3521	0.8756
3512	0.8745
3503	0.8743
3494	0.8743
3485	0.8742
3476	0.874
3467	0.8736
3458	0.8736
3449	0.8744
3440	0.8756
3431	0.8771
3422	0.8786
3413	0.8798
3404	0.8794
3395	0.877
3386	0.8305
3377	0.7472
3368	0.7961
3359	0.8507
3350	0.8574
3341	0.8625
3332	0.8667
3323	0.8684
3314	0.8625
3305	0.8015
3296	0.7653
3287	0.7875
3278	0.8119
3269	0.8296
3260	0.8546
3251	0.8653
3242	0.8658
3233	0.867
3224	0.8681
3215	0.8698
3206	0.8714
3197	0.8721
3188	0.8721
3179	0.8718
3170	0.8712
3161	0.8659
3152	0.8568
3143	0.8556
3134	0.8575
3125	0.8585
3116	0.8586
3107	0.8578
3098	0.8546
3089	0.846
3080	0.7278
3071	0.6638
3062	0.7478
3053	0.8347
3044	0.8508
3035	0.8574
3026	0.8612
3017	0.8641
3008	0.8668
2999	0.8678
2990	0.8687
2981	0.8666
2972	0.865
2963	0.8639
2954	0.8642
2945	0.8642
2936	0.8624
2927	0.8575
2918	0.8542
2909	0.8516
2900	0.8489
2891	0.8464
2882	0.8442
2873	0.8414
2864	0.8452
2855	0.8514
2846	0.8562
2837	0.8608
2828	0.8651
2819	0.8693
2810	0.8708
2801	0.8721
2792	0.8731
2783	0.8732
2774	0.8733
2765	0.8733
2756	0.8732
2747	0.8731
2738	0.873
2729	0.8728
2720	0.8724
2711	0.8718
2702	0.8714
2693	0.8713
2684	0.8714
2675	0.8715
2666	0.8716
2657	0.8717
2648	0.8715
2639	0.871
2630	0.8706
2621	0.8701
2612	0.8697
2603	0.8693
2594	0.869
2585	0.8686
2576	0.8683
2567	0.8675
2558	0.8649
2549	0.8593
2540	0.8575
2531	0.8583
2522	0.859
2513	0.8607
2504	0.8628
2495	0.8644
2486	0.8652
2477	0.8652
2468	0.8642
2459	0.8627
2450	0.86
2441	0.8583
2432	0.8593
2423	0.86
2414	0.8602
2405	0.8589
2396	0.856
2387	0.8556
2378	0.8561
2369	0.8566
2360	0.8575
2351	0.8568
2342	0.8557
2333	0.8545
2324	0.8518
2315	0.8483
2306	0.8443
2297	0.8393
2288	0.8342
2279	0.8337
2270	0.836
2261	0.8395
2252	0.8437
2243	0.8495
2234	0.855
2225	0.8593
2216	0.8616
2207	0.8612
2198	0.8565
2189	0.8504
2180	0.8493
2171	0.8521
2162	0.8527
2153	0.851
2144	0.8525
2135	0.8543
2126	0.8559
2117	0.857
2108	0.8571
2099	0.857
2090	0.8566
2081	0.855
2072	0.8525
2063	0.8503
2054	0.8509
2045	0.8504
2036	0.8494
2027	0.8489
2018	0.8483
2009	0.8481
2000	0.8485
1991	0.8199
1982	0.8365
1973	0.8396
1964	0.8401
1955	0.8401
1946	0.8395
1937	0.8371
1928	0.8298
1919	0.8281
1910	0.832
1901	0.835
1892	0.8328
1883	0.832
1874	0.8334
1865	0.8333
1856	0.8332
1847	0.8318
1838	0.8295
1829	0.8266
1820	0.8089
1811	0.8076
1802	0.815
1793	0.8176
1784	0.8183
1775	0.8048
1766	0.7558
1757	0.6998
1748	0.6778
1739	0.716
1730	0.5662
1721	0.392
1712	0.447
1703	0.0612
1694	0.2116
1685	0.5785
1676	0.5459
1667	0.2284
1658	0.0041
1649	0.1599
1640	0.4012
1631	0.4496
1622	0.4995
1613	0.4394
1604	0.501
1595	0.3556
1586	0.1192
1577	0.0722
1568	0.2434
1559	0.1841
1550	0.1891
1541	0.2638
1532	0.34
1523	0.4227
1514	0.4888
1505	0.5764
1496	0.6408
1487	0.7121
1478	0.7421
1469	0.7682
1460	0.7848
1451	0.7962
1442	0.7868
1433	0.7946
1424	0.8065
1415	0.8169
1406	0.8191
1397	0.8187
1388	0.8227
1379	0.8257
1370	0.8257
1361	0.82
1352	0.818
1343	0.8104
1334	0.7865
1325	0.7844
1316	0.5277
1307	0.6508
1298	0.7258
1289	0.4943
1280	0.0162
1271	0.0913
1262	0.4312
1253	0.7303
1244	0.8162
1235	0.8282
1226	0.7812
1217	0.7344
1208	0.7608
1199	0.8098
1190	0.8504
1181	0.8762
1172	0.8873
1163	0.8867
1154	0.8797
1145	0.8797
1136	0.8384
1127	0.8665
1118	0.8837
1109	0.8849
1100	0.8839
1091	0.877
1082	0.8393
1073	0.8065
1064	0.7991
1055	0.7494
1046	0.4772
1037	0.0094
1028	0.5414
1019	0.8246
1010	0.8748
1001	0.8914
992	0.8977
983	0.9008
974	0.89
965	0.856
956	0.8524
947	0.8727
938	0.8803
929	0.8734
920	0.8142
911	0.4082
902	0.0176
893	0.7461
884	0.7357
875	0.6771
866	0.6144
857	0.5595
848	0.6166
839	0.7678
830	0.8194
821	0.8266
812	0.8022
803	0.6352
794	0.1363
785	0.0795
776	0.5597
767	0.7811
758	0.8142
749	0.831
740	0.842
731	0.8528
722	0.8686
713	0.872
704	0.8671
695	0.8613
686	0.8666
677	0.8664
668	0.808
659	0.7258
650	0.7536
641	0.8118
632	0.8373
623	0.8204
614	0.8616
605	0.8788
596	0.8775
587	0.8797
578	0.8825
569	0.8832
560	0.8823
551	0.8797
542	0.8764
533	0.87
524	0.8608
515	0.8502
506	0.8408
497	0.832
488	0.8231
479	0.8162
470	0.8124
461	0.8064
