Infrared Spectrum: 2,6-Dichloro-4-bromoaniline
Formula: C 6 H 4 Br Cl 2 N
CAS: 697-86-9
State: gas
Origin: EPA-IR VAPOR PHASE LIBRARY
1/CM	ABSORBANCE
501.5	0.00695
513.074	0.00547
524.648	0.00474
536.222	0.0044
547.796	0.007
559.37	0.00635
570.944	0.00383
582.518	0.00367
594.092	0.00387
605.666	0.00464
617.24	0.00522
628.814	0.00678
640.388	0.0097
651.962	0.01381
663.536	0.01631
675.11	0.01952
686.684	0.03254
698.258	0.05073
709.832	0.01949
721.406	0.00839
732.98	0.00673
744.554	0.00646
756.128	0.00713
767.702	0.01437
779.276	0.03932
790.85	0.03745
802.423	0.02521
813.997	0.01073
825.571	0.00811
837.145	0.00924
848.719	0.0333
860.293	0.04172
871.867	0.01199
883.441	0.00656
895.015	0.00515
906.589	0.00469
918.163	0.00442
929.737	0.00356
941.311	0.00305
952.885	0.00297
964.459	0.00316
976.033	0.00317
987.607	0.0029
999.181	0.00255
1010.76	0.00235
1022.33	0.0023
1033.9	0.00296
1045.48	0.00549
1057.05	0.01158
1068.63	0.01809
1080.2	0.01396
1091.77	0.01642
1103.35	0.01954
1114.92	0.00894
1126.49	0.004
1138.07	0.00239
1149.64	0.00192
1161.22	0.00162
1172.79	0.00236
1184.36	0.00465
1195.94	0.00494
1207.51	0.00488
1219.09	0.00828
1230.66	0.00659
1242.23	0.00318
1253.81	0.00311
1265.38	0.00474
1276.96	0.01067
1288.53	0.01145
1300.1	0.0042
1311.68	0.00135
1323.25	0.00102
1334.83	0.0008998
1346.4	0.00146
1357.97	0.00315
1369.55	0.00695
1381.12	0.01902
1392.7	0.02454
1404.27	0.01891
1415.84	0.01555
1427.42	0.01264
1438.99	0.02358
1450.57	0.04842
1462.14	0.14039
1473.71	0.1184
1485.29	0.0237
1496.86	0.00752
1508.44	0.00435
1520.01	0.00386
1531.58	0.00576
1543.16	0.01507
1554.73	0.03404
1566.31	0.04141
1577.88	0.0229
1589.45	0.01541
1601.03	0.02714
1612.6	0.05148
1624.18	0.04176
1635.75	0.01631
1647.32	0.00836
1658.9	0.00469
1670.47	0.00238
1682.05	0.00158
1693.62	0.00157
1705.19	0.00243
1716.77	0.00495
1728.34	0.0049
1739.92	0.0025
1751.49	0.00161
1763.06	0.00133
1774.64	0.00103
1786.21	0.0007409
1797.79	0.0006244
1809.36	0.0005475
1820.93	0.0005273
1832.51	0.0005449
1844.08	0.0006072
1855.66	0.0006462
1867.23	0.0006381
1878.8	0.000638
1890.38	0.0006226
1901.95	0.0005833
1913.53	0.0006323
1925.1	0.0007083
1936.67	0.0007148
1948.25	0.0006764
1959.82	0.0007207
1971.4	0.0007694
1982.97	0.0006743
1994.54	0.0004105
2006.12	0.0002988
2017.69	0.000278
2029.27	0.0002811
2040.84	0.0003095
2052.41	0.000341
2063.99	0.0004176
2075.56	0.0004554
2087.14	0.0004586
2098.71	0.0004554
2110.28	0.0004699
2121.86	0.0004678
2133.43	0.0004943
2145.01	0.0004668
2156.58	0.0004622
2168.15	0.0004187
2179.73	0.000255
2191.3	0.0002744
2202.88	0.0002769
2214.45	0.0003144
2226.02	0.0003212
2237.6	0.0003528
2249.17	0.0004428
2260.74	0.000456
2272.32	0.0004594
2283.89	0.0005295
2295.47	0.0006941
2307.04	0.0008213
2318.61	0.0007412
2330.19	0.0004678
2341.76	0.0003905
2353.34	0.0003695
2364.91	0.000277
2376.48	0.0002098
2388.06	0.0002043
2399.63	0.0002156
2411.21	0.0002356
2422.78	0.0002273
2434.35	0.0001821
2445.93	0.0002291
2457.5	0.000347
2469.08	0.0004063
2480.65	0.0003449
2492.22	0.0004248
2503.8	0.0006464
2515.37	0.0007093
2526.95	0.0004034
2538.52	0.0003146
2550.09	0.0003776
2561.67	0.0005413
2573.24	0.0007949
2584.82	0.0007909
2596.39	0.0003759
2607.96	0.0002581
2619.54	0.0002252
2631.11	0.000284
2642.69	0.0003658
2654.26	0.00046
2665.83	0.0004931
2677.41	0.0004909
2688.98	0.0003722
2700.56	0.0002457
2712.13	0.0001907
2723.7	0.0001641
2735.28	0.000177
2746.85	0.0002813
2758.43	0.0002293
2770	0.0001492
2781.57	0.0001318
2793.15	0.000121
2804.72	0.0001875
2816.3	0.000284
2827.87	0.0005965
2839.44	0.0009271
2851.02	0.0007939
2862.59	0.0003841
2874.17	0.0003979
2885.74	0.0005282
2897.31	0.0005883
2908.89	0.0004323
2920.46	0.0003129
2932.04	0.0002811
2943.61	0.0001713
2955.18	0.0001382
2966.76	0.0001529
2978.33	0.0001925
2989.91	0.0001482
3001.48	0.0002229
3013.05	0.0002201
3024.63	0.0002198
3036.2	0.0002018
3047.78	0.0001488
3059.35	0.0002067
3070.92	0.0002723
3082.5	0.0006709
3094.07	0.0009227
3105.65	0.0006797
3117.22	0.0006003
3128.79	0.0005724
3140.37	0.0007509
3151.94	0.0008673
3163.52	0.0008688
3175.09	0.0008235
3186.66	0.0005634
3198.24	0.0003781
3209.81	0.0003098
3221.39	0.0002654
3232.96	0.0002124
3244.53	0.0001577
3256.11	0.0001576
3267.68	0.000223
3279.26	0.0001905
3290.83	0.0001505
3302.4	0.0002321
3313.98	0.0002869
3325.55	0.0002671
3337.13	0.0001842
3348.7	0.0002888
3360.27	0.0004978
3371.85	0.00103
3383.42	0.00252
3395	0.00619
3406.57	0.01579
3418.14	0.02517
3429.72	0.01239
3441.29	0.00401
3452.86	0.00244
3464.44	0.00262
3476.01	0.00378
3487.59	0.00646
3499.16	0.01252
3510.73	0.02064
3522.31	0.01915
3533.88	0.00785
3545.46	0.00343
3557.03	0.00167
3568.6	0.0009072
3580.18	0.000691
3591.75	0.0003768
3603.33	0.0002464
3614.9	0.0001884
3626.47	0.0001668
3638.05	0.000187
3649.62	8.66e-05
3661.2	7.092e-05
3672.77	5.119e-05
3684.34	6.313e-05
3695.92	0.0001009
3707.49	0.0001997
3719.07	0.0004048
3730.64	0.0003748
3742.21	0.0001656
3753.79	0.0001137
3765.36	0.0001302
3776.94	0.0001516
3788.51	0.0001972
3800.08	0.0002179
3811.66	0.0002984
3823.23	0.0003517
3834.81	0.0003885
3846.38	0.0004906
3857.95	0.0005853
3869.53	0.0007618
3881.1	0.0008648
3892.68	0.0008573
3904.25	0.0006631
3915.82	0.0005161
3927.4	0.0006288
3938.97	0.0006296
3950.55	0.0005833
3962.12	0.0004817
3973.69	0.0005079
3985.27	0.0004645
3996.84	0.0003543
