Infrared Spectrum: 3,4,5-Triethoxybenzoic acid
Formula: C 13 H 18 O 5
CAS: 6970-19-0
State: gas
Origin: EPA-IR VAPOR PHASE LIBRARY
1/CM	ABSORBANCE
549.9	0.0015238
559.547	0.0011144
569.193	0.0011876
578.84	0.0014554
588.486	0.0016813
598.133	0.001951
607.779	0.001851
617.426	0.001568
627.072	0.0015804
636.719	0.001801
646.365	0.002211
656.012	0.002921
665.658	0.003431
675.305	0.003431
684.951	0.002161
694.598	0.001185
704.245	0.0008244
713.891	0.00080232
723.538	0.00074968
733.184	0.00082216
742.831	0.0009439
752.477	0.0013568
762.124	0.002801
771.77	0.003341
781.417	0.001771
791.063	0.0011551
800.71	0.0009993
810.356	0.0009493
820.003	0.0009818
829.649	0.0008911
839.296	0.0008715
848.943	0.0011759
858.589	0.0011893
868.236	0.0014118
877.882	0.001901
887.529	0.002401
897.175	0.002401
906.822	0.001811
916.468	0.0011748
926.115	0.0009619
935.761	0.0011875
945.408	0.0016347
955.054	0.0015478
964.701	0.0011781
974.347	0.0011463
983.994	0.0012972
993.64	0.0015599
1003.29	0.002071
1012.93	0.003071
1022.58	0.005321
1032.23	0.007441
1041.87	0.006491
1051.52	0.005131
1061.17	0.005401
1070.81	0.008221
1080.46	0.011971
1090.11	0.014401
1099.75	0.015281
1109.4	0.015631
1119.05	0.016261
1128.69	0.014891
1138.34	0.015081
1147.99	0.019541
1157.63	0.013681
1167.28	0.007501
1176.92	0.005451
1186.57	0.004661
1196.22	0.004971
1205.86	0.005791
1215.51	0.007831
1225.16	0.008341
1234.8	0.006011
1244.45	0.003741
1254.1	0.002761
1263.74	0.002771
1273.39	0.003351
1283.04	0.004211
1292.68	0.004691
1302.33	0.005451
1311.98	0.005941
1321.62	0.005531
1331.27	0.006481
1340.92	0.010561
1350.56	0.012721
1360.21	0.009171
1369.86	0.008271
1379.5	0.010751
1389.15	0.010341
1398.79	0.006911
1408.44	0.004571
1418.09	0.006091
1427.73	0.009791
1437.38	0.007751
1447.03	0.004261
1456.67	0.003511
1466.32	0.004001
1475.97	0.004621
1485.61	0.004941
1495.26	0.005181
1504.91	0.003421
1514.55	0.002011
1524.2	0.001751
1533.85	0.001641
1543.49	0.001771
1553.14	0.002271
1562.79	0.003521
1572.43	0.005781
1582.08	0.006531
1591.73	0.004501
1601.37	0.002881
1611.02	0.002081
1620.67	0.0016139
1630.31	0.0013181
1639.96	0.0011515
1649.6	0.0011346
1659.25	0.0010386
1668.9	0.0010027
1678.54	0.0010263
1688.19	0.0011241
1697.84	0.0015825
1707.48	0.002021
1717.13	0.002011
1726.78	0.001961
1736.42	0.003491
1746.07	0.011951
1755.72	0.025991
1765.36	0.008371
1775.01	0.002601
1784.66	0.001781
1794.3	0.0016336
1803.95	0.001821
1813.6	0.0013696
1823.24	0.0009797
1832.89	0.00081672
1842.54	0.00075738
1852.18	0.000691
1861.83	0.00076132
1871.47	0.000755724
1881.12	0.0007243
1890.77	0.00082448
1900.41	0.00076383
1910.06	0.00083276
1919.71	0.00077211
1929.35	0.00079065
1939	0.0007089
1948.65	0.0006791
1958.29	0.00074717
1967.94	0.000685
1977.59	0.0006885
1987.23	0.000693
1996.88	0.0006759
2006.53	0.0007226
2016.17	0.0006677
2025.82	0.0007201
2035.47	0.0006713
2045.11	0.000625
2054.76	0.000605
2064.41	0.000592
2074.05	0.000594
2083.7	0.000533
2093.35	0.000582
2102.99	0.000579
2112.64	0.000556
2122.28	0.000561
2131.93	0.000568
2141.58	0.000555
2151.22	0.000501
2160.87	0.00054
2170.52	0.000553
2180.16	0.000513
2189.81	0.000504
2199.46	0.000511
2209.1	0.000485
2218.75	0.000532
2228.4	0.000504
2238.04	0.00049
2247.69	0.000535
2257.34	0.000507
2266.98	0.000493
2276.63	0.000486
2286.28	0.000517
2295.92	0.00049
2305.57	0.000496
2315.22	0.000463
2324.86	0.00048
2334.51	0.000531
2344.16	0.000509
2353.8	0.000429
2363.45	0.000497
2373.09	0.000475
2382.74	0.000413
2392.39	0.000428
2402.03	0.000433
2411.68	0.000469
2421.33	0.000434
2430.97	0.000462
2440.62	0.000513
2450.27	0.000448
2459.91	0.000413
2469.56	0.000384
2479.21	0.000444
2488.85	0.000477
2498.5	0.000378
2508.15	0.000387
2517.79	0.000394
2527.44	0.000427
2537.09	0.000377
2546.73	0.000445
2556.38	0.000441
2566.03	0.000418
2575.67	0.000364
2585.32	0.000402
2594.96	0.000359
2604.61	0.000339
2614.26	0.000313
2623.9	0.000319
2633.55	0.000273
2643.2	0.000255
2652.84	0.000316
2662.49	0.000242
2672.14	0.000281
2681.78	0.000236
2691.43	0.000321
2701.08	0.000298
2710.72	0.000357
2720.37	0.000339
2730.02	0.000351
2739.66	0.000331
2749.31	0.000368
2758.96	0.000381
2768.6	0.000388
2778.25	0.000288
2787.9	0.000329
2797.54	0.000392
2807.19	0.00034
2816.84	0.00044
2826.48	0.000489
2836.13	0.000633
2845.77	0.000642
2855.42	0.00085052
2865.07	0.0011328
2874.71	0.001901
2884.36	0.002711
2894.01	0.003121
2903.65	0.003031
2913.3	0.002911
2922.95	0.003191
2932.59	0.004131
2942.24	0.004881
2951.89	0.003661
2961.53	0.003181
2971.18	0.004281
2980.83	0.006801
2990.47	0.006621
3000.12	0.003381
3009.77	0.001801
3019.41	0.0012269
3029.06	0.0008882
3038.71	0.000568
3048.35	0.000461
3058	0.000347
3067.64	0.000356
3077.29	0.000305
3086.94	0.000504
3096.58	0.000409
3106.23	0.00022
3115.88	0.000289
3125.52	0
3135.17	0.000266
3144.82	0.00024
3154.46	0.000239
3164.11	0.000178
3173.76	0.000269
3183.4	0.000269
3193.05	0.000201
3202.7	0.000321
3212.34	0.000257
3221.99	8.1e-05
3231.64	0.000256
3241.28	0.00024
3250.93	0.000194
3260.58	0.000185
3270.22	0.000216
3279.87	6.2e-05
3289.52	0.00028
3299.16	0.000331
3308.81	0.000148
3318.45	0.000148
3328.1	0.00017
3337.75	0.000116
3347.39	0.000331
3357.04	0.000403
3366.69	0.000267
3376.33	0.000373
3385.98	0.00032
3395.63	0.000502
3405.27	0.000326
3414.92	0.000518
3424.57	0.000303
3434.21	0.000344
3443.86	0.000376
3453.51	0.000316
3463.15	0.000438
3472.8	0.000543
3482.45	0.00042
3492.09	0.000494
3501.74	0.000421
3511.39	0.000454
3521.03	0.000535
3530.68	0.0006911
3540.33	0.000549
3549.97	0.0007179
3559.62	0.00080447
3569.26	0.0012263
3578.91	0.006061
3588.56	0.006811
3598.2	0.0011269
3607.85	0.000608
3617.5	0.000542
3627.14	0.000483
3636.79	0.000381
3646.44	0.000487
3656.08	0.00049
3665.73	0.000422
3675.38	0.000431
3685.02	0.000387
3694.67	0.000482
3704.32	0.000536
3713.96	0.000544
3723.61	0.000443
3733.26	0.000586
3742.9	0.00049
3752.55	0.000642
3762.2	0.000543
3771.84	0.000405
3781.49	0.000447
3791.13	0.000276
3800.78	0.000502
3810.43	0.000345
3820.07	0.000493
3829.72	0.000365
3839.37	0.000571
3849.01	0.000453
3858.66	0.000351
3868.31	0.000422
3877.95	0.000312
3887.6	0.000346
3897.25	0.00032
3906.89	0.000413
3916.54	0.000436
3926.19	0.000392
3935.83	0.000357
3945.48	0.000281
3955.13	0.000261
3964.77	0.000367
3974.42	0.000312
3984.07	0.000478
3993.71	0.000288
