Infrared Spectrum: 3-Ethyl-3-methylglutaricanhydride
Formula: C 8 H 12 O 3
CAS: 6970-57-6
State: gas
Origin: EPA-IR VAPOR PHASE LIBRARY
1/CM	ABSORBANCE
501.5	0.0002603
513.074	1e-06
524.648	0.00010838
536.222	0.0003839
547.796	0.0007504
559.37	0.0011273
570.944	0.0015173
582.518	0.0037473
594.092	0.0067073
605.666	0.0082373
617.24	0.0067673
628.814	0.0034473
640.388	0.0016473
651.962	0.000814
663.536	0.0005481
675.11	0.0002891
686.684	0.0002622
698.258	0.00016986
709.832	0.00012141
721.406	0.00012526
732.98	0.00015341
744.554	0.00013781
756.128	0.0003204
767.702	0.0005917
779.276	0.0011773
790.85	0.0016473
802.423	0.0010773
813.997	0.0010043
825.571	0.0012673
837.145	0.0008166
848.719	0.0004646
860.293	0.000441
871.867	0.0004987
883.441	0.0009994
895.015	0.0017073
906.589	0.0034673
918.163	0.0079073
929.737	0.0142373
941.311	0.0140673
952.885	0.0090773
964.459	0.0104773
976.033	0.0105373
987.607	0.0060373
999.181	0.0045173
1010.76	0.0054473
1022.33	0.0081073
1033.9	0.0150573
1045.48	0.0290773
1057.05	0.0440773
1068.63	0.0541773
1080.2	0.0464673
1091.77	0.0247073
1103.35	0.0125173
1114.92	0.0076673
1126.49	0.0064073
1138.07	0.0070873
1149.64	0.0091873
1161.22	0.0130773
1172.79	0.0169473
1184.36	0.0162473
1195.94	0.0123373
1207.51	0.0116173
1219.09	0.0132173
1230.66	0.0139273
1242.23	0.0130973
1253.81	0.0105273
1265.38	0.0085373
1276.96	0.0063373
1288.53	0.0044873
1300.1	0.0041573
1311.68	0.0046273
1323.25	0.0055373
1334.83	0.0049473
1346.4	0.0035473
1357.97	0.0024673
1369.55	0.0023073
1381.12	0.0036073
1392.7	0.0047373
1404.27	0.0034473
1415.84	0.0038173
1427.42	0.0043573
1438.99	0.0036973
1450.57	0.0041273
1462.14	0.0054573
1473.71	0.0044873
1485.29	0.0023973
1496.86	0.0014573
1508.44	0.0010763
1520.01	0.0008771
1531.58	0.000759
1543.16	0.0006588
1554.73	0.0006421
1566.31	0.0006635
1577.88	0.0006208
1589.45	0.0006056
1601.03	0.0005845
1612.6	0.0005798
1624.18	0.0006585
1635.75	0.0007324
1647.32	0.0008448
1658.9	0.0010016
1670.47	0.0010642
1682.05	0.0010768
1693.62	0.0012273
1705.19	0.0016373
1716.77	0.0024473
1728.34	0.0037973
1739.92	0.0062573
1751.49	0.0107673
1763.06	0.0211373
1774.64	0.0622273
1786.21	0.105877
1797.79	0.0691373
1809.36	0.0313573
1820.93	0.0450373
1832.51	0.0457873
1844.08	0.0148473
1855.66	0.0054073
1867.23	0.0031773
1878.8	0.0021773
1890.38	0.0015273
1901.95	0.0011773
1913.53	0.0009911
1925.1	0.0009336
1936.67	0.0008822
1948.25	0.0006591
1959.82	0.0004937
1971.4	0.0004486
1982.97	0.0004229
1994.54	0.0004202
2006.12	0.0003818
2017.69	0.0003558
2029.27	0.0002928
2040.84	0.0002855
2052.41	0.0002855
2063.99	0.000283
2075.56	0.0003048
2087.14	0.0003091
2098.71	0.0003525
2110.28	0.0003788
2121.86	0.0003919
2133.43	0.0003918
2145.01	0.0004114
2156.58	0.0004699
2168.15	0.0005015
2179.73	0.0004979
2191.3	0.000485
2202.88	0.0004629
2214.45	0.0004311
2226.02	0.0004109
2237.6	0.0004136
2249.17	0.0004328
2260.74	0.0004485
2272.32	0.0004747
2283.89	0.0005291
2295.47	0.0005608
2307.04	0.0005586
2318.61	0.0004656
2330.19	0.0003591
2341.76	0.0003168
2353.34	0.0003015
2364.91	0.0002358
2376.48	0.000267
2388.06	0.0002847
2399.63	0.0002794
2411.21	0.0002551
2422.78	0.0002364
2434.35	0.0002515
2445.93	0.0002185
2457.5	0.0001983
2469.08	0.00015151
2480.65	0.00013966
2492.22	0.00011976
2503.8	0.00011747
2515.37	0.00013389
2526.95	0.00013586
2538.52	0.00013918
2550.09	0.00013678
2561.67	0.00015039
2573.24	0.00016438
2584.82	0.00017581
2596.39	0.00017578
2607.96	0.0001631
2619.54	0.0002013
2631.11	0.00016095
2642.69	0.00017231
2654.26	0.0002094
2665.83	0.0001922
2677.41	0.0002446
2688.98	0.0002404
2700.56	0.0002672
2712.13	0.0002225
2723.7	0.0002939
2735.28	0.0003612
2746.85	0.0004068
2758.43	0.0004265
2770	0.0004595
2781.57	0.0004731
2793.15	0.0005796
2804.72	0.0006408
2816.3	0.000797
2827.87	0.0010258
2839.44	0.0013373
2851.02	0.0018773
2862.59	0.0032373
2874.17	0.0046573
2885.74	0.0058473
2897.31	0.0066073
2908.89	0.0080973
2920.46	0.0114373
2932.04	0.0112473
2943.61	0.0089173
2955.18	0.0093573
2966.76	0.0163973
2978.33	0.0204673
2989.91	0.0109873
3001.48	0.0037073
3013.05	0.0018273
3024.63	0.0012073
3036.2	0.0008848
3047.78	0.000722
3059.35	0.0006535
3070.92	0.0006405
3082.5	0.0005587
3094.07	0.0004712
3105.65	0.0004683
3117.22	0.00043
3128.79	0.0003826
3140.37	0.0003064
3151.94	0.0003331
3163.52	0.0002576
3175.09	0.0002677
3186.66	0.0002533
3198.24	0.0002551
3209.81	0.00017432
3221.39	0.0002269
3232.96	0.0001847
3244.53	0.00014783
3256.11	0.0001333
3267.68	0.00011444
3279.26	0.00011466
3290.83	7.616e-05
3302.4	0.00012602
3313.98	0.00010039
3325.55	5.16e-05
3337.13	0.00013473
3348.7	0.00010554
3360.27	7.9928e-05
3371.85	5.42e-05
3383.42	6.66e-05
3395	5.51e-05
3406.57	3.73e-05
3418.14	4.42e-05
3429.72	8.5927e-05
3441.29	3.47e-05
3452.86	2.56e-05
3464.44	0.0001398
3476.01	0.00012321
3487.59	5.4e-05
3499.16	7.532e-05
3510.73	0.00011466
3522.31	0.0001809
3533.88	0.0003101
3545.46	0.0004888
3557.03	0.0007581
3568.6	0.0010397
3580.18	0.0013573
3591.75	0.0016973
3603.33	0.0013573
3614.9	0.0005833
3626.47	0.0004231
3638.05	0.0004402
3649.62	0.0004329
3661.2	0.000326
3672.77	0.00014205
3684.34	0.00014576
3695.92	0.00012256
3707.49	5.93e-05
3719.07	3.86e-05
3730.64	0.00010252
3742.21	5.73e-05
3753.79	6.56e-05
3765.36	2.18e-05
3776.94	5.36e-05
3788.51	7.6529e-05
3800.08	5.96e-05
3811.66	8.09e-05
3823.23	7.474e-05
3834.81	7.133e-05
3846.38	0.00012598
3857.95	8.732e-05
3869.53	8.2991e-05
3881.1	0.00014154
3892.68	0.00014834
3904.25	8.6878e-05
3915.82	0.00012103
3927.4	0.0002025
3938.97	0.00013596
3950.55	0.00010667
3962.12	0.0001826
3973.69	0.00016266
3985.27	8.0803e-05
3996.84	0.000178
