Infrared Spectrum: PHENETHYL CARBAMIC ACID, ETHYL ESTER
Formula: C11 H15 N O2
CAS: 6970-83-8
State: SOLID (SPLIT MULL)
Melting point: 34 C
Class: COBLENTZ III
Instrument: BECKMAN IR-9 (GRATING)
Instrument parameters: ORDER CHANGES: 670, 1200, 2000 CM^-^1
Sampling: TRANSMISSION
Resolution: 2
Origin: DOW CHEMICAL COMPANY
1/CM	TRANSMITTANCE
401	0.5879
410	0.5892
419	0.621
428	0.6665
437	0.7095
446	0.7451
455	0.7714
464	0.7941
473	0.8101
482	0.8101
491	0.7199
500	0.6764
509	0.8067
518	0.8137
527	0.8328
536	0.8346
545	0.8367
554	0.8323
563	0.8273
572	0.8198
581	0.811
590	0.7878
599	0.7554
608	0.7212
617	0.6774
626	0.6844
635	0.6751
644	0.7011
653	0.7305
662	0.7622
671	0.7919
680	0.8044
689	0.7965
698	0.3712
707	0.6828
716	0.7653
725	0.7644
734	0.7656
743	0.7061
752	0.5262
761	0.7708
770	0.8028
779	0.7524
788	0.7694
797	0.8574
806	0.8728
815	0.8792
824	0.8799
833	0.8801
842	0.8895
851	0.8885
860	0.8877
869	0.8862
878	0.8728
887	0.8724
896	0.8859
905	0.876
914	0.8433
923	0.8811
932	0.8792
941	0.8682
950	0.8567
959	0.8459
968	0.8521
977	0.862
986	0.8587
995	0.8548
1004	0.8459
1013	0.8207
1022	0.7508
1031	0.7171
1040	0.6515
1049	0.7275
1058	0.7518
1067	0.7628
1076	0.8083
1085	0.7943
1094	0.7949
1103	0.8132
1112	0.7915
1121	0.7799
1130	0.7601
1139	0.6767
1148	0.6601
1157	0.7365
1166	0.7631
1175	0.7565
1184	0.7885
1193	0.7621
1202	0.7082
1211	0.7315
1220	0.7201
1229	0.6408
1238	0.56
1247	0.5008
1256	0.4689
1265	0.5116
1274	0.5789
1283	0.6468
1292	0.6801
1301	0.6847
1310	0.6611
1319	0.7339
1328	0.7474
1337	0.6948
1346	0.7083
1355	0.7374
1364	0.7194
1373	0.7182
1382	0.7084
1391	0.7258
1400	0.7457
1409	0.7532
1418	0.7467
1427	0.739
1436	0.6785
1445	0.6558
1454	0.516
1463	0.6921
1472	0.7158
1481	0.5899
1490	0.7055
1499	0.6076
1508	0.6321
1517	0.5586
1526	0.4892
1535	0.4278
1544	0.4026
1553	0.4323
1562	0.5798
1571	0.7175
1580	0.7408
1589	0.7528
1598	0.7561
1607	0.7403
1616	0.7532
1625	0.7405
1634	0.7128
1643	0.6594
1652	0.5681
1661	0.5214
1670	0.33
1679	0.1009
1688	0.0766
1697	0.2127
1706	0.36
1715	0.469
1724	0.4852
1733	0.6368
1742	0.7596
1751	0.8083
1760	0.8354
1769	0.8554
1778	0.8638
1787	0.87
1796	0.8748
1805	0.8798
1814	0.8847
1823	0.8883
1832	0.8909
1841	0.8953
1850	0.8948
1859	0.8939
1868	0.8914
1877	0.8828
1886	0.8839
1895	0.8886
1904	0.8952
1913	0.8962
1922	0.8944
1931	0.8941
1940	0.8868
1949	0.8745
1958	0.8875
1967	0.8898
1976	0.8898
1985	0.8897
1994	0.8888
2003	0.8875
2012	0.8858
2021	0.882
2030	0.8806
2039	0.8828
2048	0.884
2057	0.8831
2066	0.8824
2075	0.8813
2084	0.8804
2093	0.8797
2102	0.879
2111	0.8784
2120	0.8775
2129	0.8765
2138	0.8753
2147	0.8738
2156	0.8723
2165	0.8708
2174	0.8693
2183	0.8677
2192	0.8661
2201	0.8646
2210	0.8633
2219	0.8618
2228	0.8604
2237	0.8584
2246	0.8571
2255	0.8564
2264	0.8557
2273	0.855
2282	0.8544
2291	0.8546
2300	0.8548
2309	0.855
2318	0.8556
2327	0.8556
2336	0.8561
2345	0.8566
2354	0.8571
2363	0.8594
2372	0.8615
2381	0.8556
2390	0.8521
2399	0.8518
2408	0.8515
2417	0.8517
2426	0.852
2435	0.8521
2444	0.8524
2453	0.8525
2462	0.8528
2471	0.8528
2480	0.8528
2489	0.8528
2498	0.8525
2507	0.8521
2516	0.8517
2525	0.8513
2534	0.8509
2543	0.8505
2552	0.8501
2561	0.8495
2570	0.8489
2579	0.8482
2588	0.8475
2597	0.8471
2606	0.8466
2615	0.8461
2624	0.8456
2633	0.8446
2642	0.8434
2651	0.842
2660	0.8406
2669	0.8389
2678	0.8371
2687	0.8354
2696	0.8334
2705	0.8307
2714	0.828
2723	0.8253
2732	0.8227
2741	0.8202
2750	0.8176
2759	0.8154
2768	0.8141
2777	0.8133
2786	0.8112
2795	0.8091
2804	0.8069
2813	0.8061
2822	0.8011
2831	0.7864
2840	0.7667
2849	0.7503
2858	0.7338
2867	0.7117
2876	0.7189
2885	0.7369
2894	0.7212
2903	0.69
2912	0.6707
2921	0.6515
2930	0.6341
2939	0.6411
2948	0.6594
2957	0.6675
2966	0.6539
2975	0.5995
2984	0.6515
2993	0.7198
3002	0.756
3011	0.7618
3020	0.7101
3029	0.7246
3038	0.758
3047	0.7621
3056	0.7485
3065	0.75
3074	0.7714
3083	0.7641
3092	0.7894
3101	0.7951
3110	0.7989
3119	0.8015
3128	0.8034
3137	0.8022
3146	0.8001
3155	0.7981
3164	0.7958
3173	0.7931
3182	0.79
3191	0.7864
3200	0.7826
3209	0.7782
3218	0.7738
3227	0.7658
3236	0.7565
3245	0.7451
3254	0.7308
3263	0.7128
3272	0.6938
3281	0.6698
3290	0.6403
3299	0.6072
3308	0.5624
3317	0.5156
3326	0.5246
3335	0.5725
3344	0.6066
3353	0.6143
3362	0.616
3371	0.6377
3380	0.6848
3389	0.714
3398	0.7321
3407	0.7408
3416	0.7465
3425	0.7507
3434	0.7618
3443	0.7735
3452	0.7856
3461	0.7978
3470	0.8089
3479	0.8162
3488	0.8212
3497	0.8251
3506	0.8262
3515	0.8255
3524	0.8261
3533	0.8278
3542	0.8307
3551	0.8338
3560	0.8363
3569	0.8388
3578	0.8403
3587	0.8417
3596	0.8436
3605	0.8452
3614	0.8464
3623	0.8481
3632	0.8498
3641	0.851
3650	0.8518
3659	0.8528
3668	0.8537
3677	0.8547
3686	0.8556
3695	0.8565
3704	0.8575
3713	0.8586
3722	0.8595
3731	0.86
3740	0.8603
3749	0.8609
3758	0.8618
3767	0.8627
3776	0.8635
3785	0.8644
3794	0.8651
