Infrared Spectrum: N-METHYL-4-PYRYDYLMETHYLAMINE
Formula: C7 H10 N2
CAS: 6971-44-4
Class: COBLENTZ
Instrument: PERKIN-ELMER
Sampling: TRANSMISSION
Path length: CAPILLARY
Resolution: 4
Origin: ABBOTT LABORATORIES - WASHBURN
MICROMETERS	TRANSMITTANCE
2.084	0.885
2.12358	0.882
2.16315	0.877
2.20273	0.88
2.2423	0.875
2.28188	0.877
2.32146	0.872
2.36103	0.8729
2.40061	0.8768
2.44018	0.8701
2.47976	0.8571
2.51934	0.8699
2.55891	0.88
2.59849	0.883
2.63806	0.885
2.67764	0.887
2.71722	0.885
2.75679	0.878
2.79637	0.8732
2.83595	0.8525
2.87552	0.8405
2.9151	0.8223
2.95467	0.8024
2.99425	0.71
3.03383	0.4942
3.0734	0.5661
3.11298	0.7091
3.15255	0.7837
3.19213	0.8088
3.23171	0.8102
3.27128	0.6614
3.31086	0.5696
3.35043	0.5412
3.39001	0.4156
3.42959	0.4019
3.46916	0.407
3.50874	0.3696
3.54831	0.4244
3.58789	0.349
3.62747	0.6605
3.66704	0.7947
3.70662	0.8037
3.74619	0.8265
3.78577	0.8545
3.82535	0.868
3.86492	0.875
3.9045	0.875
3.94408	0.882
3.98365	0.883
4.02323	0.8831
4.0628	0.88
4.10238	0.875
4.14196	0.877
4.18153	0.877
4.22111	0.8868
4.26068	0.893
4.30026	0.892
4.33984	0.8881
4.37941	0.875
4.41899	0.8819
4.45856	0.88
4.49814	0.88
4.53772	0.8752
4.57729	0.873
4.61687	0.875
4.65644	0.875
4.69602	0.875
4.7356	0.8752
4.77517	0.875
4.81475	0.8682
4.85432	0.867
4.8939	0.8671
4.93348	0.865
4.97305	0.868
5.01263	0.8641
5.05221	0.8542
5.09178	0.8406
5.13136	0.8195
5.17093	0.8174
5.21051	0.845
5.25009	0.855
5.28966	0.857
5.32924	0.8569
5.36881	0.8405
5.40839	0.8463
5.44797	0.86
5.48754	0.8604
5.52712	0.862
5.56669	0.862
5.60627	0.86
5.64585	0.8599
5.68542	0.8542
5.725	0.8511
5.76457	0.8494
5.80415	0.8481
5.84373	0.844
5.8833	0.8343
5.92288	0.8215
5.96245	0.8019
6.00203	0.7938
6.04161	0.8045
6.08118	0.805
6.12076	0.7838
6.16034	0.7146
6.19991	0.2853
6.23949	0.1217
6.27906	0.4198
6.31864	0.6666
6.35822	0.704
6.39779	0.4914
6.43737	0.7189
6.47694	0.7846
6.51652	0.797
6.5561	0.797
6.59567	0.7802
6.63525	0.7434
6.67482	0.6205
6.7144	0.5716
6.75398	0.5241
6.79355	0.5056
6.83313	0.5325
6.8727	0.4956
6.91228	0.3619
6.95186	0.4086
6.99143	0.5551
7.03101	0.4937
7.07058	0.2781
7.11016	0.1379
7.14974	0.6753
7.18931	0.7492
7.22889	0.7554
7.26847	0.746
7.30804	0.6855
7.34762	0.5349
7.38719	0.5378
7.42677	0.6887
7.46635	0.7516
7.50592	0.756
7.5455	0.7339
7.58507	0.6616
7.62465	0.6967
7.66423	0.7799
7.7038	0.8033
7.74338	0.8098
7.78295	0.81
7.82253	0.8019
7.86211	0.7744
7.90168	0.7507
7.94126	0.747
7.98083	0.754
8.02041	0.7669
8.05999	0.777
8.09956	0.7482
8.13914	0.699
8.17871	0.6091
8.21829	0.5465
8.25787	0.6088
8.29744	0.6851
8.33702	0.709
8.3766	0.7191
8.41617	0.7578
8.45575	0.771
8.49532	0.7747
8.5349	0.7606
8.57448	0.7253
8.61405	0.6624
8.65363	0.66
8.6932	0.6509
8.73278	0.6241
8.77236	0.601
8.81193	0.5299
8.85151	0.4492
8.89108	0.4174
8.93066	0.4631
8.97024	0.5133
9.00981	0.5097
9.04939	0.479
9.08896	0.4709
9.12854	0.5813
9.16812	0.6758
9.20769	0.7148
9.24727	0.7155
9.28684	0.7503
9.32642	0.7606
9.366	0.7217
9.40557	0.6202
9.44515	0.6824
9.48473	0.7657
9.5243	0.7781
9.56388	0.7853
9.60345	0.7977
9.64303	0.805
9.68261	0.805
9.72218	0.807
9.76176	0.805
9.80133	0.807
9.84091	0.8057
9.88049	0.7953
9.92006	0.793
9.95964	0.7764
9.99921	0.7288
10.0388	0.6174
10.0784	0.4321
10.1179	0.35
10.1575	0.5379
10.1971	0.5875
10.2367	0.6261
10.2762	0.651
10.3158	0.6665
10.3554	0.668
10.395	0.669
10.4346	0.6661
10.4741	0.666
10.5137	0.6731
10.5533	0.7061
10.5929	0.7348
10.6324	0.7497
10.672	0.7545
10.7116	0.752
10.7512	0.749
10.7907	0.7376
10.8303	0.723
10.8699	0.719
10.9095	0.7261
10.949	0.736
10.9886	0.7462
11.0282	0.749
11.0678	0.749
11.1073	0.747
11.1469	0.7412
11.1865	0.7345
11.2261	0.7233
11.2656	0.7171
11.3052	0.694
11.3448	0.6753
11.3844	0.653
11.424	0.6457
11.4635	0.626
11.5031	0.611
11.5427	0.598
11.5823	0.5765
11.6218	0.56
11.6614	0.5389
11.701	0.5138
11.7406	0.4865
11.7801	0.4589
11.8197	0.4277
11.8593	0.3988
11.8989	0.383
11.9384	0.383
11.978	0.3786
12.0176	0.373
12.0572	0.3762
12.0967	0.384
12.1363	0.3889
12.1759	0.389
12.2155	0.4005
12.2551	0.3984
12.2946	0.389
12.3342	0.368
12.3738	0.3396
12.4134	0.2894
12.4529	0.257
12.4925	0.2301
12.5321	0.1868
12.5717	0.1616
12.6112	0.1454
12.6508	0.1498
12.6904	0.1652
12.73	0.2273
12.7695	0.2863
12.8091	0.3125
12.8487	0.3369
12.8883	0.346
12.9278	0.3628
12.9674	0.369
13.007	0.369
13.0466	0.373
13.0861	0.374
13.1257	0.381
13.1653	0.383
13.2049	0.3905
13.2445	0.396
13.284	0.401
13.3236	0.416
13.3632	0.4246
13.4028	0.427
13.4423	0.4361
13.4819	0.439
13.5215	0.444
13.5611	0.4426
13.6006	0.429
13.6402	0.426
13.6798	0.4132
13.7194	0.4011
13.7589	0.398
13.7985	0.3981
13.8381	0.4104
13.8777	0.4395
13.9172	0.456
13.9568	0.4666
13.9964	0.4828
14.036	0.495
14.0755	0.5025
14.1151	0.512
14.1547	0.522
14.1943	0.5249
14.2339	0.5286
14.2734	0.5377
14.313	0.5389
14.3526	0.5474
14.3922	0.553
14.4317	0.5622
14.4713	0.565
14.5109	0.568
14.5505	0.568
14.59	0.577
14.6296	0.578
14.6692	0.58
14.7088	0.58
14.7483	0.5823
14.7879	0.5904
14.8275	0.592
14.8671	0.588
14.9066	0.588
14.9462	0.582
14.9858	0.5826
15.0254	0.579
15.065	0.563
15.1045	0.5672
15.1441	0.568
15.1837	0.568
15.2233	0.575
15.2628	0.573
15.3024	0.575
15.342	0.5724
15.3816	0.57
15.4211	0.573
15.4607	0.572
