Infrared Spectrum: NICOTINIC ACID, 1,2-DIHYDRO-4,6-DIMETHYL-5-NITRO-2-OXO-, ETHYL ESTER
Formula: C10 H12 N2 O5
CAS: 6972-37-8
State: SOLID (1 mg / 650 mg KBr DISC)
Class: COBLENTZ III
Instrument: PERKIN-ELMER 221 (GRATING)
Instrument parameters: FILTER AT 980 CM^-^1. GRATING 4000-1428 CM^-^1, NaCl PRISM 1428-650 CM^-^1
Sampling: TRANSMISSION
Resolution: 2
Origin: SOUTHERN RESEARCH INSTITUTE
1/CM	TRANSMITTANCE
648.579	0.68
657.553	0.5625
666.528	0.2133
675.502	0.516
684.476	0.8094
693.451	0.8456
702.425	0.8073
711.4	0.7696
720.374	0.6918
729.348	0.5165
738.323	0.7372
747.297	0.735
756.271	0.6885
765.246	0.6226
774.22	0.43
783.194	0.4466
792.169	0.6267
801.143	0.6383
810.117	0.5739
819.092	0.637
828.066	0.5652
837.041	0.622
846.015	0.5997
854.989	0.5198
863.964	0.3913
872.938	0.5087
881.912	0.4572
890.887	0.557
899.861	0.538
908.835	0.4839
917.81	0.4159
926.784	0.3461
935.759	0.29
944.733	0.351
953.707	0.4621
962.682	0.5091
971.656	0.5079
980.63	0.501
989.605	0.4911
998.579	0.4649
1007.55	0.3846
1016.53	0.411
1025.5	0.387
1034.48	0.3159
1043.45	0.2597
1052.43	0.3901
1061.4	0.4016
1070.37	0.4227
1079.35	0.2928
1088.32	0.1991
1097.3	0.1854
1106.27	0.445
1115.25	0.4552
1124.22	0.4809
1133.19	0.4165
1142.17	0.1985
1151.14	0.2664
1160.12	0.4148
1169.09	0.4957
1178.07	0.508
1187.04	0.4604
1196.01	0.4076
1204.99	0.3494
1213.96	0.2558
1222.94	0.1465
1231.91	0.2395
1240.89	0.3376
1249.86	0.2051
1258.84	0.092
1267.81	0.1659
1276.78	0.2927
1285.76	0.3636
1294.73	0.397
1303.71	0.3828
1312.68	0.3459
1321.66	0.2575
1330.63	0.1909
1339.6	0.1092
1348.58	0.0974
1357.55	0.0801
1366.53	0.2701
1375.5	0.3094
1384.48	0.3114
1393.45	0.4485
1402.43	0.5135
1411.4	0.4677
1420.37	0.3541
1429.35	0.3821
1438.32	0.4035
1447.3	0.3714
1456.27	0.3969
1465.25	0.3543
1474.22	0.2792
1483.19	0.2298
1492.17	0.3188
1501.14	0.2756
1510.12	0.0944
1519.09	0.0738
1528.07	0.1811
1537.04	0.2497
1546.02	0.2226
1554.99	0.209
1563.96	0.2505
1572.94	0.301
1581.91	0.287
1590.89	0.2443
1599.86	0.201
1608.84	0.1477
1617.81	0.0821
1626.78	0.0816
1635.76	0.0813
1644.73	0.023
1653.71	0.0468
1662.68	0.0998
1671.66	0.1776
1680.63	0.2822
1689.6	0.317
1698.58	0.324
1707.55	0.2846
1716.53	0.18
1725.5	0.0325
1734.48	0.0614
1743.45	0.1426
1752.43	0.2691
1761.4	0.3296
1770.37	0.3726
1779.35	0.4167
1788.32	0.4811
1797.3	0.5214
1806.27	0.5371
1815.25	0.543
1824.22	0.5479
1833.19	0.5499
1842.17	0.5713
1851.14	0.6008
1860.12	0.6294
1869.09	0.6477
1878.07	0.653
1887.04	0.653
1896.02	0.6675
1904.99	0.6814
1913.96	0.6874
1922.94	0.6913
1931.91	0.694
1940.89	0.694
1949.86	0.6944
1958.84	0.696
1967.81	0.698
1976.78	0.701
1985.76	0.702
1994.73	0.7011
2003.71	0.7
2012.68	0.698
2021.66	0.698
2030.63	0.7
2039.6	0.7
2048.58	0.7
2057.55	0.6971
2066.53	0.6942
2075.5	0.696
2084.48	0.693
2093.45	0.6881
2102.43	0.684
2111.4	0.6781
2120.37	0.6712
2129.35	0.665
2138.32	0.66
2147.3	0.658
2156.27	0.657
2165.25	0.656
2174.22	0.653
2183.19	0.652
2192.17	0.651
2201.14	0.6481
2210.12	0.6442
2219.09	0.6371
2228.07	0.628
2237.04	0.625
2246.02	0.6172
2254.99	0.608
2263.96	0.607
2272.94	0.606
2281.91	0.6011
2290.89	0.5921
2299.86	0.5831
2308.84	0.5761
2317.81	0.5682
2326.78	0.5432
2335.76	0.539
2344.73	0.536
2353.71	0.5235
2362.68	0.518
2371.66	0.518
2380.63	0.516
2389.6	0.5121
2398.58	0.5012
2407.55	0.4941
2416.53	0.486
2425.5	0.48
2434.48	0.4721
2443.45	0.4621
2452.43	0.455
2461.4	0.45
2470.37	0.447
2479.35	0.4451
2488.32	0.432
2497.3	0.424
2506.27	0.423
2515.25	0.419
2524.22	0.4041
2533.19	0.397
2542.17	0.3921
2551.14	0.3831
2560.12	0.373
2569.09	0.365
2578.07	0.3601
2587.04	0.3521
2596.02	0.3461
2604.99	0.3392
2613.96	0.334
2622.94	0.3281
2631.91	0.3231
2640.89	0.3058
2649.86	0.2903
2658.84	0.288
2667.81	0.288
2676.78	0.285
2685.76	0.283
2694.73	0.2801
2703.71	0.277
2712.68	0.275
2721.66	0.272
2730.63	0.268
2739.6	0.262
2748.58	0.259
2757.55	0.2581
2766.53	0.259
2775.5	0.2629
2784.48	0.2669
2793.45	0.272
2802.43	0.2769
2811.4	0.277
2820.37	0.276
2829.35	0.274
2838.32	0.274
2847.3	0.27
2856.27	0.271
2865.25	0.271
2874.22	0.274
2883.19	0.2808
2892.17	0.285
2901.14	0.2868
2910.12	0.2985
2919.09	0.3119
2928.07	0.316
2937.04	0.32
2946.02	0.3278
2954.99	0.332
2963.96	0.332
2972.94	0.3379
2981.91	0.3297
2990.89	0.2989
2999.86	0.3403
3008.84	0.3658
3017.81	0.3836
3026.78	0.4106
3035.76	0.4317
3044.73	0.4557
3053.71	0.4797
3062.68	0.5035
3071.66	0.5228
3080.63	0.5349
3089.6	0.54
3098.58	0.54
3107.55	0.54
3116.53	0.5361
3125.5	0.5223
3134.48	0.5171
3143.45	0.5179
3152.43	0.5495
3161.4	0.5808
3170.37	0.592
3179.35	0.602
3188.32	0.6129
3197.3	0.6209
3206.27	0.626
3215.25	0.6309
3224.22	0.635
3233.19	0.64
3242.17	0.64
3251.14	0.639
3260.12	0.6331
3269.09	0.617
3278.07	0.613
3287.04	0.5798
3296.02	0.555
3304.99	0.5702
3313.96	0.6154
3322.94	0.6377
3331.91	0.6381
3340.89	0.637
3349.86	0.633
3358.84	0.6291
3367.81	0.626
3376.78	0.622
3385.76	0.6191
3394.73	0.6151
3403.71	0.612
3412.68	0.611
3421.66	0.61
3430.63	0.6042
3439.61	0.5863
3448.58	0.58
3457.55	0.5828
3466.53	0.604
3475.5	0.6159
3484.48	0.6259
3493.45	0.629
3502.43	0.63
3511.4	0.6309
3520.37	0.631
3529.35	0.633
3538.32	0.6349
3547.3	0.6379
3556.27	0.6399
3565.25	0.6429
3574.22	0.644
3583.19	0.647
3592.17	0.6489
3601.14	0.6519
3610.12	0.653
3619.09	0.656
3628.07	0.6598
3637.04	0.661
3646.02	0.6638
3654.99	0.664
3663.96	0.665
3672.94	0.665
3681.91	0.666
3690.89	0.667
3699.86	0.6622
3708.84	0.661
3717.81	0.661
3726.78	0.66
3735.76	0.66
3744.73	0.658
3753.71	0.658
3762.68	0.658
3771.66	0.658
3780.63	0.658
3789.61	0.6561
3798.58	0.653
3807.55	0.651
3816.53	0.647
3825.5	0.647
3834.48	0.644
3843.45	0.6421
3852.43	0.6429
3861.4	0.643
3870.37	0.643
3879.35	0.642
3888.32	0.64
3897.3	0.638
3906.27	0.635
3915.25	0.637
3924.22	0.637
3933.19	0.637
3942.17	0.635
3951.14	0.635
3960.12	0.634
3969.09	0.633
3978.07	0.633
3987.04	0.631
3996.02	0.631
4004.99	0.631
