Infrared Spectrum: 6-Chloro-1,3-dimethyluracil
Formula: C 6 H 7 Cl N 2 O 2
CAS: 6972-27-6
State: gas
Origin: EPA-IR VAPOR PHASE LIBRARY
1/CM	ABSORBANCE
549.8	0.0007217
559.445	0.0008099
569.09	0.00212
578.735	0.00274
588.38	0.0011359
598.025	0.00061214
607.67	0.000364
617.315	0.000456
626.96	0.000514
636.605	0.0006783
646.251	0.000748
655.896	0.0012784
665.541	0.0009269
675.186	0.0010121
684.831	0.0014263
694.476	0.00189
704.121	0.00164
713.766	0.0006703
723.411	0.000317
733.056	0.0005151
742.701	0.00167
752.346	0.00419
761.991	0.0051
771.636	0.00286
781.281	0.0008801
790.926	0.0010269
800.571	0.00392
810.216	0.00809
819.861	0.00701
829.507	0.00282
839.152	0.0011929
848.797	0.00242
858.442	0.00314
868.087	0.0014984
877.732	0.0007531
887.377	0.00059268
897.022	0.000376
906.667	0.000422
916.312	0.0004954
925.957	0.0005166
935.602	0.0008655
945.247	0.0019
954.892	0.00471
964.537	0.00651
974.182	0.00427
983.827	0.00193
993.472	0.00208
1003.12	0.00435
1012.76	0.01045
1022.41	0.01586
1032.05	0.01251
1041.7	0.00843
1051.34	0.00847
1060.99	0.00545
1070.63	0.0025
1080.28	0.0014211
1089.92	0.0011354
1099.57	0.0010519
1109.21	0.0011775
1118.86	0.0012969
1128.5	0.00188
1138.15	0.00294
1147.79	0.00447
1157.44	0.00495
1167.08	0.00377
1176.73	0.00289
1186.37	0.00341
1196.02	0.00707
1205.66	0.00837
1215.31	0.00474
1224.95	0.00331
1234.6	0.00401
1244.24	0.00351
1253.89	0.00234
1263.53	0.00274
1273.18	0.0033
1282.82	0.00299
1292.47	0.00227
1302.11	0.00218
1311.76	0.00277
1321.4	0.00394
1331.05	0.00621
1340.69	0.01144
1350.34	0.02167
1359.98	0.0259
1369.63	0.02237
1379.27	0.03022
1388.92	0.03606
1398.56	0.02843
1408.21	0.02164
1417.85	0.02574
1427.5	0.04531
1437.14	0.0626
1446.79	0.04856
1456.43	0.02263
1466.08	0.01444
1475.73	0.01149
1485.37	0.00922
1495.02	0.00736
1504.66	0.00712
1514.31	0.00744
1523.95	0.00608
1533.6	0.00436
1543.24	0.00378
1552.89	0.00343
1562.53	0.00336
1572.18	0.004
1581.82	0.00563
1591.47	0.00985
1601.11	0.0221
1610.76	0.03454
1620.4	0.02779
1630.05	0.01638
1639.69	0.01066
1649.34	0.00731
1658.98	0.01043
1668.63	0.0179
1678.27	0.04553
1687.92	0.15064
1697.56	0.22735
1707.21	0.15674
1716.85	0.05966
1726.5	0.0578
1736.14	0.05679
1745.79	0.03016
1755.43	0.0142
1765.08	0.00881
1774.72	0.00518
1784.37	0.00342
1794.01	0.00248
1803.66	0.002
1813.3	0.0018
1822.95	0.00163
1832.59	0.00163
1842.24	0.0015342
1851.88	0.0013805
1861.53	0.0010926
1871.17	0.0011649
1880.82	0.0011786
1890.46	0.0011227
1900.11	0.0010671
1909.75	0.0010092
1919.4	0.0009088
1929.04	0.0008857
1938.69	0.0007597
1948.33	0.0007386
1957.98	0.0008047
1967.62	0.0008688
1977.27	0.000844
1986.91	0.0007526
1996.56	0.000904
2006.2	0.000972
2015.85	0.0009598
2025.49	0.0009192
2035.14	0.00075
2044.78	0.0007812
2054.43	0.0007872
2064.07	0.0008082
2073.72	0.0008194
2083.36	0.000816
2093.01	0.0008593
2102.65	0.000815
2112.3	0.0008032
2121.94	0.0008375
2131.59	0.0007653
2141.23	0.000725
2150.88	0.0007624
2160.52	0.0007701
2170.17	0.0008536
2179.81	0.0009201
2189.46	0.000973
2199.1	0.0010342
2208.75	0.000884
2218.39	0.0008528
2228.04	0.0008207
2237.68	0.0007601
2247.33	0.0007539
2256.97	0.000915
2266.62	0.0010509
2276.26	0.0010662
2285.91	0.001107
2295.55	0.0010351
2305.2	0.0009919
2314.84	0.00095
2324.49	0.0007903
2334.13	0.0007046
2343.78	0.0007281
2353.42	0.0007817
2363.07	0.0006884
2372.72	0.0008027
2382.36	0.0009238
2392.01	0.0010084
2401.65	0.0010229
2411.3	0.0008411
2420.94	0.0006899
2430.59	0.0007705
2440.23	0.00065528
2449.88	0.0007757
2459.52	0.0007897
2469.17	0.0007114
2478.81	0.0007397
2488.46	0.0007914
2498.1	0.0007659
2507.75	0.0007183
2517.39	0.0007074
2527.04	0.0007817
2536.68	0.0006929
2546.33	0.0007993
2555.97	0.0007395
2565.62	0.0007345
2575.26	0.0008134
2584.91	0.0008076
2594.55	0.0008854
2604.2	0.0008303
2613.84	0.0007999
2623.49	0.0009049
2633.13	0.0009634
2642.78	0.0008992
2652.42	0.0008832
2662.07	0.0009351
2671.71	0.000836
2681.36	0.0007294
2691	0.0007078
2700.65	0.000747
2710.29	0.0007691
2719.94	0.0007837
2729.58	0.00093
2739.23	0.0009299
2748.87	0.0009612
2758.52	0.0009252
2768.16	0.0007729
2777.81	0.0008854
2787.45	0.0007892
2797.1	0.0008517
2806.74	0.0009934
2816.39	0.0010272
2826.03	0.0011034
2835.68	0.001105
2845.32	0.0012201
2854.97	0.0014706
2864.61	0.0015015
2874.26	0.0014422
2883.9	0.00163
2893.55	0.00212
2903.19	0.00259
2912.84	0.00274
2922.48	0.00266
2932.13	0.00284
2941.77	0.00366
2951.42	0.00551
2961.06	0.00849
2970.71	0.00849
2980.35	0.00585
2990	0.00377
2999.64	0.00277
3009.29	0.00208
3018.93	0.0016
3028.58	0.0012
3038.22	0.0012044
3047.87	0.0009675
3057.51	0.0008664
3067.16	0.0009215
3076.8	0.0009793
3086.45	0.0009371
3096.09	0.0008469
3105.74	0.0008718
3115.38	0.0014104
3125.03	0.0015047
3134.67	0.0011526
3144.32	0.00060813
3153.96	0.0004848
3163.61	0.000399
3173.25	0.000482
3182.9	0.000449
3192.54	0.000329
3202.19	0.00042
3211.83	0.0005228
3221.48	0.00043
3231.12	0.000384
3240.77	0.0004703
3250.41	0.000355
3260.06	0.000354
3269.7	0.0002
3279.35	0.000235
3289	0.000258
3298.64	0.000271
3308.29	0.000261
3317.93	0.000382
3327.58	0.000381
3337.22	0.000418
3346.87	0.000395
3356.51	0.000438
3366.16	0.000425
3375.8	0.00059009
3385.45	0.0008013
3395.09	0.0010291
3404.74	0.0015072
3414.38	0.0015362
3424.03	0.001388
3433.67	0.000806
3443.32	0.00060984
3452.96	0.0005151
3462.61	0.000408
3472.25	0.000364
3481.9	0.000364
3491.54	0.000258
3501.19	0.000364
3510.83	0.000362
3520.48	0.00022
3530.12	0.000155
3539.77	5e-06
3549.41	0.000232
3559.06	0.000258
3568.7	0.000294
3578.35	0.000273
3587.99	0.000192
3597.64	0.000359
3607.28	0.000387
3616.93	0.000171
3626.57	0.000226
3636.22	0.00038
3645.86	0.000252
3655.51	0.000223
3665.15	0.000358
3674.8	0.000257
3684.44	0.000224
3694.09	0.000344
3703.73	0.000285
3713.38	0.000225
3723.02	0.000389
3732.67	0.000271
3742.31	0.000286
3751.96	0.000343
3761.6	0.000377
3771.25	0.000465
3780.89	0.00031
3790.54	0.0005563
3800.18	0.000246
3809.83	0.000382
3819.47	0.000206
3829.12	0.000375
3838.76	0.000259
3848.41	0.000406
3858.05	0.000447
3867.7	0.000379
3877.34	0.0005565
3886.99	0.0005113
3896.63	0.0004834
3906.28	0.000433
3915.92	0.0004912
3925.57	0.0005361
3935.21	0.0005296
3944.86	0.00028
3954.5	0.0004862
3964.15	0.0005377
3973.79	0.00064834
3983.44	0.00056359
3993.08	0.00060779
