Infrared Spectrum: N-Methylpyrrole-2-carboxylic acid
Formula: C 6 H 7 N O 2
CAS: 6973-60-0
State: gas
Origin: EPA-IR VAPOR PHASE LIBRARY
1/CM	ABSORBANCE
549.8	0.004363
559.445	0.002593
569.09	0.002793
578.734	0.002253
588.379	0.002103
598.024	0.002553
607.669	0.003263
617.313	0.003033
626.958	0.002463
636.603	0.001983
646.248	0.002113
655.893	0.002893
665.537	0.004343
675.182	0.006683
684.827	0.007013
694.472	0.005023
704.116	0.004303
713.761	0.008283
723.406	0.011033
733.051	0.021593
742.695	0.010433
752.34	0.007223
761.985	0.007683
771.63	0.004063
781.275	0.002683
790.919	0.0016841
800.564	0.0016501
810.209	0.00133
819.854	0.001402
829.498	0.00100947
839.143	0.0009466
848.788	0.0011678
858.433	0.0008816
868.078	0.0014924
877.722	0.0013589
887.367	0.0016049
897.012	0.0009695
906.657	0.0014116
916.301	0.0008914
925.946	0.0017351
935.591	0.0014991
945.236	0.0014414
954.88	0.001293
964.525	0.00105923
974.17	0.001983
983.815	0.001797
993.46	0.004143
1003.1	0.004663
1012.75	0.005773
1022.39	0.004503
1032.04	0.003703
1041.68	0.004813
1051.33	0.007263
1060.97	0.014583
1070.62	0.032123
1080.26	0.040803
1089.91	0.035353
1099.55	0.013263
1109.2	0.006643
1118.84	0.003023
1128.49	0.003263
1138.13	0.003793
1147.78	0.004103
1157.42	0.004403
1167.07	0.007293
1176.71	0.011723
1186.36	0.017533
1196	0.018133
1205.64	0.013973
1215.29	0.007533
1224.93	0.005233
1234.58	0.005473
1244.22	0.006113
1253.87	0.007283
1263.51	0.008463
1273.16	0.008503
1282.8	0.007563
1292.45	0.007013
1302.09	0.006783
1311.74	0.005563
1321.38	0.004583
1331.03	0.004833
1340.67	0.004703
1350.32	0.004583
1359.96	0.003953
1369.61	0.003713
1379.25	0.004473
1388.9	0.005053
1398.54	0.007543
1408.18	0.014583
1417.83	0.022093
1427.47	0.021873
1437.12	0.012593
1446.76	0.005133
1456.41	0.004193
1466.05	0.005883
1475.7	0.008133
1485.34	0.007873
1494.99	0.005083
1504.63	0.003183
1514.28	0.003173
1523.92	0.005313
1533.57	0.006673
1543.21	0.006403
1552.86	0.003723
1562.5	0.002773
1572.15	0.0016662
1581.79	0.001521
1591.44	0.0016692
1601.08	0.0016653
1610.73	0.0018525
1620.37	0.001973
1630.01	0.002263
1639.66	0.002183
1649.3	0.002003
1658.95	0.0019594
1668.59	0.002313
1678.24	0.002943
1687.88	0.003523
1697.53	0.003993
1707.17	0.005893
1716.82	0.013273
1726.46	0.033033
1736.11	0.058803
1745.75	0.060403
1755.4	0.034773
1765.04	0.012113
1774.69	0.005373
1784.33	0.003213
1793.98	0.002743
1803.62	0.002623
1813.27	0.002103
1822.91	0.0017031
1832.55	0.0014043
1842.2	0.0012722
1851.84	0.0013399
1861.49	0.0012824
1871.13	0.0012274
1880.78	0.001163
1890.42	0.00105356
1900.07	0.00100371
1909.71	0.0011005
1919.36	0.0010926
1929	0.001155
1938.65	0.0011903
1948.29	0.0010849
1957.94	0.0011135
1967.58	0.0011091
1977.23	0.0009141
1986.87	0.00097101
1996.52	0.0008847
2006.16	0.000799
2015.81	0.0008774
2025.45	0.0008918
2035.1	0.00105649
2044.74	0.000755
2054.38	0.00103714
2064.03	0.000761
2073.67	0.000848
2083.32	0.00097239
2092.96	0.0008868
2102.61	0.0009281
2112.25	0.00103892
2121.9	0.0008757
2131.54	0.0010883
2141.19	0.0009021
2150.83	0.00103079
2160.48	0.0009625
2170.12	0.000826
2179.77	0.0009357
2189.41	0.000852
2199.06	0.000755
2208.7	0.000746
2218.35	0.000868
2227.99	0.0008935
2237.64	0.0009139
2247.28	0.000803
2256.92	0.000768
2266.57	0.000814
2276.21	0.000842
2285.86	0.000869
2295.5	0.00103149
2305.15	0.001377
2314.79	0.0014705
2324.44	0.0015961
2334.08	0.0015407
2343.73	0.0014648
2353.37	0.0018437
2363.02	0.002003
2372.66	0.0018759
2382.31	0.0011462
2391.95	0.0009427
2401.6	0.000816
2411.24	0.0009502
2420.89	0.0010637
2430.53	0.000872
2440.18	0.000796
2449.82	0.000634
2459.47	0.000977764
2469.11	0.00100289
2478.75	0.0011908
2488.4	0.0012293
2498.04	0.000981902
2507.69	0.00098423
2517.33	0.000849
2526.98	0.000664
2536.62	0.00101459
2546.27	0.00102889
2555.91	0.000799
2565.56	0.000703
2575.2	0.000783
2584.85	0.000845
2594.49	0.000781
2604.14	0.000638
2613.78	0.00084
2623.43	0.000605
2633.07	0.000542
2642.72	0.000738
2652.36	0.000734
2662.01	0.000724
2671.65	0.000805
2681.29	0.000792
2690.94	0.000707
2700.58	0.0010992
2710.23	0.0011237
2719.87	0.000765
2729.52	0.0008835
2739.16	0.0009248
2748.81	0.000842
2758.45	0.0009
2768.1	0.000757
2777.74	0.000813
2787.39	0.0010781
2797.03	0.0010937
2806.68	0.000833
2816.32	0.0012862
2825.97	0.0015748
2835.61	0.0016131
2845.26	0.001094
2854.9	0.0010782
2864.55	0.0009609
2874.19	0.0012607
2883.84	0.0018367
2893.48	0.0018423
2903.12	0.0015579
2912.77	0.0017653
2922.41	0.0019198
2932.06	0.002593
2941.7	0.003063
2951.35	0.003403
2960.99	0.004193
2970.64	0.004063
2980.28	0.003203
2989.93	0.0018704
2999.57	0.001707
3009.22	0.0015408
3018.86	0.0013045
3028.51	0.0015288
3038.15	0.0010792
3047.8	0.0009572
3057.44	0.000685
3067.09	0.0008762
3076.73	0.0011873
3086.38	0.0009518
3096.02	0.000828
3105.67	0.0009151
3115.31	0.0015076
3124.95	0.0015616
3134.6	0.0010257
3144.24	0.0011462
3153.89	0.0013178
3163.53	0.0013052
3173.18	0.0013989
3182.82	0.000565
3192.47	0.000828
3202.11	0.0009456
3211.76	0.0008873
3221.4	0.00099409
3231.05	0.000714
3240.69	0.00101024
3250.34	0.00098572
3259.98	0.000743
3269.63	0.000759
3279.27	0.00048
3288.92	0.000224
3298.56	0.000861
3308.21	0.000725
3317.85	0.0008842
3327.49	0.000474
3337.14	0.000249
3346.78	0.0008952
3356.43	0.000709
3366.07	0.00103999
3375.72	0.0009177
3385.36	0.0011865
3395.01	0.000837
3404.65	0.00099234
3414.3	0.000622
3423.94	0.0012299
3433.59	0.0011256
3443.23	0.000678
3452.88	0.0009333
3462.52	0.000981291
3472.17	0.00096513
3481.81	0.000685
3491.46	0.000614
3501.1	0.001522
3510.75	0.000859
3520.39	0.00106728
3530.04	0.0009655
3539.68	0.000422
3549.32	0.0008995
3558.97	0.002023
3568.61	0.004853
3578.26	0.012303
3587.9	0.014233
3597.55	0.010433
3607.19	0.0019527
3616.84	0.0012967
3626.48	0.000977826
3636.13	0.0008951
3645.77	0.000514
3655.42	0.000842
3665.06	0.000622
3674.71	0.000828
3684.35	0.000795
3694	0.00058
3703.64	0.00103441
3713.29	0.0009157
3722.93	0.001086
3732.58	0.000685
3742.22	0.000953
3751.86	0.000773
3761.51	0.00098799
3771.15	0.000672
3780.8	0.000485
3790.44	0.000623
3800.09	0.0009356
3809.73	0.000791
3819.38	0.000759
3829.02	0.0012961
3838.67	0.000665
3848.31	0.000485
3857.96	0.000872
3867.6	0.000847
3877.25	0.000858
3886.89	0.0009364
3896.54	0.000815
3906.18	0.0011782
3915.83	0.000867
3925.47	0.000811
3935.12	0.000774
3944.76	0.0011253
3954.41	0.0006
3964.05	0.000659
3973.69	0.0011176
3983.34	0.0011439
3992.98	0.000973874
