Infrared Spectrum: N,N-DIPHENYL ISOBUTYRAMIDE
Formula: C16 H17 N O
CAS: 69737-54-8
State: SOLUTION (2% CCl4 FOR 5000-1330, 2% CS2 FOR 1330-625 CM^-^1)
Class: COBLENTZ
Instrument: Not specified, most likely a prism, grating, or hybrid spectrometer.
Sampling: TRANSMISSION
Path length: 0.0114 CM, 0.0114 CM
Resolution: 4
Origin: DOW CHEMICAL COMPANY
MICROMETERS	TRANSMITTANCE
2.014	0.909
2.05506	0.909
2.09611	0.909
2.13717	0.909
2.17822	0.909
2.21928	0.909
2.26033	0.909
2.30139	0.91
2.34244	0.91
2.3835	0.91
2.42455	0.912
2.46561	0.914
2.50667	0.914
2.54772	0.914
2.58878	0.919
2.62983	0.919
2.67089	0.917
2.71194	0.914
2.753	0.907
2.79405	0.91
2.83511	0.91
2.87617	0.91
2.91722	0.915
2.95828	0.909
2.99933	0.924
3.04039	0.921
3.08144	0.922
3.1225	0.919
3.16355	0.907
3.20461	0.874
3.24566	0.857
3.28672	0.883
3.32778	0.909
3.36883	0.909
3.40989	0.924
3.45094	0.922
3.492	0.931
3.53305	0.934
3.57411	0.936
3.61516	0.938
3.65622	0.938
3.69728	0.938
3.73833	0.936
3.77939	0.936
3.82044	0.938
3.8615	0.941
3.90255	0.943
3.94361	0.948
3.98466	0.946
4.02572	0.946
4.06677	0.946
4.10783	0.946
4.14889	0.941
4.18994	0.934
4.231	0.924
4.27205	0.922
4.31311	0.921
4.35416	0.927
4.39522	0.941
4.43627	0.948
4.47733	0.953
4.51839	0.948
4.55944	0.95
4.6005	0.951
4.64155	0.953
4.68261	0.955
4.72366	0.953
4.76472	0.95
4.80577	0.948
4.84683	0.95
4.88788	0.95
4.92894	0.945
4.97	0.943
5.01105	0.948
5.05211	0.941
5.09316	0.933
5.13422	0.941
5.17527	0.95
5.21633	0.946
5.25738	0.941
5.29844	0.931
5.3395	0.931
5.38055	0.945
5.42161	0.948
5.46266	0.945
5.50372	0.933
5.54477	0.931
5.58583	0.936
5.62688	0.941
5.66794	0.936
5.70899	0.931
5.75005	0.919
5.79111	0.9
5.83216	0.828
5.87322	0.566
5.91427	0.3
5.95533	0.473
5.99638	0.811
6.03744	0.874
6.07849	0.879
6.11955	0.871
6.16061	0.801
6.20166	0.614
6.24272	0.516
6.28377	0.572
6.32483	0.583
6.36588	0.542
6.40694	0.478
6.44799	0.49
6.48905	0.584
6.5301	0.646
6.57116	0.684
6.61222	0.598
6.65327	0.473
6.69433	0.667
6.73538	0.857
6.77644	0.883
6.81749	0.845
6.85855	0.867
6.8996	0.873
6.94066	0.871
6.98171	0.876
7.02277	0.893
7.06383	0.897
7.10488	0.881
7.14594	0.854
7.18699	0.778
7.22805	0.624
7.2691	0.475
7.31016	0.811
7.35121	0.849
7.39227	0.783
7.43333	0.636
7.47438	0.593
7.51544	0.579
7.55649	0.559
7.59755	0.506
7.6386	0.43
7.67966	0.392
7.72071	0.447
7.76177	0.509
7.80282	0.581
7.84388	0.691
7.88494	0.799
7.92599	0.843
7.96705	0.873
8.0081	0.888
8.04916	0.895
8.09021	0.895
8.13127	0.895
8.17232	0.895
8.21338	0.902
8.25444	0.902
8.29549	0.897
8.33655	0.893
8.3776	0.886
8.41866	0.883
8.45971	0.878
8.50077	0.878
8.54182	0.879
8.58288	0.878
8.62393	0.878
8.66499	0.879
8.70605	0.885
8.7471	0.885
8.78816	0.888
8.82921	0.89
8.87027	0.89
8.91132	0.888
8.95238	0.885
8.99343	0.885
9.03449	0.879
9.07555	0.881
9.1166	0.879
9.15766	0.879
9.19871	0.873
9.23977	0.852
9.28082	0.811
9.32188	0.842
9.36293	0.878
9.40399	0.881
9.44504	0.881
9.4861	0.879
9.52716	0.874
9.56821	0.864
9.60927	0.825
9.65032	0.78
9.69138	0.811
9.73243	0.85
9.77349	0.852
9.81454	0.849
9.8556	0.871
9.89666	0.869
9.93771	0.843
9.97877	0.874
10.0198	0.891
10.0609	0.9
10.1019	0.902
10.143	0.897
10.184	0.893
10.2251	0.902
10.2662	0.905
10.3072	0.903
10.3483	0.903
10.3893	0.903
10.4304	0.903
10.4714	0.907
10.5125	0.907
10.5535	0.91
10.5946	0.907
10.6357	0.903
10.6767	0.902
10.7178	0.897
10.7588	0.893
10.7999	0.886
10.8409	0.876
10.882	0.871
10.923	0.874
10.9641	0.881
11.0052	0.876
11.0462	0.866
11.0873	0.855
11.1283	0.862
11.1694	0.862
11.2104	0.849
11.2515	0.823
11.2925	0.813
11.3336	0.802
11.3747	0.79
11.4157	0.777
11.4568	0.765
11.4978	0.753
11.5389	0.744
11.5799	0.734
11.621	0.725
11.662	0.718
11.7031	0.72
11.7442	0.737
11.7852	0.766
11.8263	0.789
11.8673	0.813
11.9084	0.83
11.9494	0.838
11.9905	0.847
12.0315	0.85
12.0726	0.854
12.1137	0.859
12.1547	0.864
12.1958	0.866
12.2368	0.866
12.2779	0.862
12.3189	0.861
12.36	0.859
12.401	0.854
12.4421	0.852
12.4832	0.843
12.5242	0.84
12.5653	0.837
12.6063	0.835
12.6474	0.835
12.6884	0.838
12.7295	0.842
12.7705	0.843
12.8116	0.843
12.8527	0.842
12.8937	0.828
12.9348	0.804
12.9758	0.753
13.0169	0.713
13.0579	0.716
13.099	0.734
13.14	0.716
13.1811	0.636
13.2222	0.518
13.2632	0.463
13.3043	0.566
13.3453	0.696
13.3864	0.756
13.4274	0.783
13.4685	0.794
13.5095	0.801
13.5506	0.804
13.5916	0.806
13.6327	0.801
13.6738	0.797
13.7148	0.789
13.7559	0.785
13.7969	0.78
13.838	0.771
13.879	0.765
13.9201	0.758
13.9611	0.749
14.0022	0.735
14.0433	0.711
14.0843	0.684
14.1254	0.65
14.1664	0.591
14.2075	0.5
14.2485	0.396
14.2896	0.346
14.3306	0.37
14.3717	0.421
14.4128	0.433
14.4538	0.43
14.4949	0.461
14.5359	0.526
14.577	0.579
14.618	0.602
14.6591	0.612
14.7001	0.612
14.7412	0.608
14.7823	0.6
14.8233	0.591
14.8644	0.583
14.9054	0.574
14.9465	0.571
14.9875	0.567
15.0286	0.554
15.0696	0.543
15.1107	0.535
15.1518	0.526
15.1928	0.518
15.2339	0.504
15.2749	0.493
15.316	0.483
15.357	0.475
15.3981	0.464
15.4391	0.442
15.4802	0.42
15.5213	0.408
15.5623	0.404
15.6034	0.411
15.6444	0.413
15.6855	0.413
15.7265	0.411
15.7676	0.406
15.8086	0.404
15.8497	0.401
15.8908	0.404
