Infrared Spectrum: ISONIPECOTIC ACID, 2,6-DIOXO-
Formula: C6 H7 N O4
CAS: 6973-55-3
State: SOLID (1.0 mg / 650 mg KBr DISC)
Class: COBLENTZ III
Instrument: PERKIN-ELMER 21 (GRATING)
Instrument parameters: FILTER CHANGE ABOUT 1020 CM^-^1
Sampling: TRANSMISSION
Resolution: 4
Origin: SOUTHERN RESEARCH INSTITUTE
1/CM	TRANSMITTANCE
588.947	0.864
597.464	0.866
605.981	0.865
614.498	0.866
623.015	0.865
631.533	0.8603
640.05	0.8438
648.567	0.8294
657.084	0.7896
665.601	0.7563
674.118	0.6941
682.635	0.5074
691.152	0.8038
699.669	0.824
708.186	0.8148
716.704	0.8
725.221	0.805
733.738	0.7995
742.255	0.7903
750.772	0.7735
759.289	0.762
767.806	0.7487
776.323	0.7383
784.84	0.7285
793.357	0.7147
801.875	0.7006
810.392	0.687
818.909	0.6595
827.426	0.6416
835.943	0.669
844.46	0.6547
852.977	0.5712
861.494	0.5321
870.011	0.558
878.528	0.6218
887.046	0.5537
895.563	0.4616
904.08	0.416
912.597	0.4579
921.114	0.513
929.631	0.5297
938.148	0.6238
946.665	0.6851
955.182	0.7054
963.7	0.7203
972.217	0.724
980.734	0.735
989.251	0.735
997.768	0.7312
1006.29	0.7173
1014.8	0.6904
1023.32	0.7083
1031.84	0.7037
1040.35	0.6954
1048.87	0.6735
1057.39	0.7114
1065.9	0.711
1074.42	0.701
1082.94	0.6918
1091.46	0.678
1099.97	0.6645
1108.49	0.6438
1117.01	0.6141
1125.52	0.5674
1134.04	0.52
1142.56	0.3737
1151.08	0.6252
1159.59	0.612
1168.11	0.604
1176.63	0.5723
1185.14	0.5302
1193.66	0.4795
1202.18	0.3949
1210.7	0.2764
1219.21	0.3412
1227.73	0.4945
1236.25	0.4015
1244.76	0.2628
1253.28	0.2457
1261.8	0.2686
1270.32	0.2593
1278.83	0.2288
1287.35	0.1848
1295.87	0.2575
1304.38	0.4172
1312.9	0.519
1321.42	0.5854
1329.93	0.6235
1338.45	0.615
1346.97	0.5904
1355.49	0.4978
1364	0.3552
1372.52	0.3004
1381.04	0.3428
1389.55	0.4809
1398.07	0.5719
1406.59	0.5994
1415.11	0.5732
1423.62	0.6586
1432.14	0.6868
1440.66	0.6391
1449.17	0.6472
1457.69	0.7264
1466.21	0.7457
1474.73	0.7586
1483.24	0.76
1491.76	0.752
1500.28	0.7429
1508.79	0.737
1517.31	0.734
1525.83	0.729
1534.35	0.7124
1542.86	0.6977
1551.38	0.6886
1559.9	0.677
1568.41	0.6626
1576.93	0.6435
1585.45	0.6161
1593.97	0.583
1602.48	0.5546
1611	0.5128
1619.52	0.4433
1628.03	0.4018
1636.55	0.3502
1645.07	0.2712
1653.58	0.1915
1662.1	0.2104
1670.62	0.2763
1679.14	0.2983
1687.65	0.2653
1696.17	0.1732
1704.69	0.1359
1713.2	0.1161
1721.72	0.1098
1730.24	0.174
1738.76	0.255
1747.27	0.364
1755.79	0.4404
1764.31	0.4964
1772.82	0.533
1781.34	0.5528
1789.86	0.5823
1798.38	0.6026
1806.89	0.6193
1815.41	0.6391
1823.93	0.6525
1832.44	0.6666
1840.96	0.6799
1849.48	0.6929
1858	0.7057
1866.51	0.7199
1875.03	0.7342
1883.55	0.742
1892.06	0.752
1900.58	0.758
1909.1	0.764
1917.62	0.771
1926.13	0.779
1934.65	0.783
1943.17	0.786
1951.68	0.793
1960.2	0.798
1968.72	0.8035
1977.23	0.807
1985.75	0.8086
1994.27	0.811
2002.79	0.8163
2011.3	0.817
2019.82	0.8203
2028.34	0.825
2036.85	0.825
2045.37	0.821
2053.89	0.8226
2062.41	0.8257
2070.92	0.8243
2079.44	0.827
2087.96	0.828
2096.47	0.8273
2104.99	0.8277
2113.51	0.83
2122.03	0.83
2130.54	0.83
2139.06	0.828
2147.58	0.83
2156.09	0.8303
2164.61	0.832
2173.13	0.831
2181.65	0.828
2190.16	0.826
2198.68	0.82
2207.2	0.8203
2215.71	0.8197
2224.23	0.817
2232.75	0.82
2241.26	0.8217
2249.78	0.817
2258.3	0.817
2266.82	0.819
2275.33	0.815
2283.85	0.815
2292.37	0.8137
2300.88	0.8037
2309.4	0.7977
2317.92	0.7827
2326.44	0.776
2334.95	0.775
2343.47	0.7697
2351.99	0.765
2360.5	0.766
2369.02	0.769
2377.54	0.7733
2386.06	0.771
2394.57	0.7627
2403.09	0.7567
2411.61	0.754
2420.12	0.754
2428.64	0.754
2437.16	0.7527
2445.68	0.7474
2454.19	0.737
2462.71	0.735
2471.23	0.7281
2479.74	0.7177
2488.26	0.711
2496.78	0.706
2505.3	0.7027
2513.81	0.6997
2522.33	0.6897
2530.85	0.6854
2539.36	0.68
2547.88	0.6701
2556.4	0.662
2564.91	0.662
2573.43	0.66
2581.95	0.658
2590.47	0.657
2598.98	0.6636
2607.5	0.6663
2616.02	0.672
2624.53	0.673
2633.05	0.6733
2641.57	0.6719
2650.09	0.6644
2658.6	0.661
2667.12	0.6607
2675.64	0.661
2684.15	0.656
2692.67	0.651
2701.19	0.6534
2709.71	0.651
2718.22	0.65
2726.74	0.643
2735.26	0.645
2743.77	0.643
2752.29	0.64
2760.81	0.638
2769.33	0.6387
2777.84	0.6296
2786.36	0.6167
2794.88	0.6117
2803.39	0.5931
2811.91	0.5707
2820.43	0.5597
2828.95	0.5497
2837.46	0.5314
2845.98	0.5219
2854.5	0.5087
2863.01	0.5017
2871.53	0.5
2880.05	0.4967
2888.56	0.493
2897.08	0.4904
2905.6	0.469
2914.12	0.457
2922.63	0.4673
2931.15	0.4853
2939.67	0.497
2948.18	0.493
2956.7	0.4893
2965.22	0.4847
2973.74	0.48
2982.25	0.4737
2990.77	0.47
2999.29	0.4687
3007.8	0.467
3016.32	0.464
3024.84	0.4503
3033.36	0.4417
3041.87	0.429
3050.39	0.4127
3058.91	0.3997
3067.42	0.395
3075.94	0.3887
3084.46	0.3903
3092.98	0.395
3101.49	0.4106
3110.01	0.4336
3118.53	0.444
3127.04	0.4349
3135.56	0.416
3144.08	0.4047
3152.59	0.3987
3161.11	0.395
3169.63	0.4003
3178.15	0.407
3186.66	0.4093
3195.18	0.4243
3203.7	0.442
3212.21	0.4496
3220.73	0.4783
3229.25	0.4986
3237.77	0.5111
3246.28	0.5253
3254.8	0.537
3263.32	0.5493
3271.83	0.5672
3280.35	0.5753
3288.87	0.5826
3297.39	0.599
3305.9	0.601
3314.42	0.609
3322.94	0.6126
3331.45	0.6223
3339.97	0.6273
3348.49	0.6323
3357.01	0.635
3365.52	0.635
3374.04	0.6317
3382.56	0.626
3391.07	0.625
3399.59	0.625
3408.11	0.623
3416.63	0.622
3425.14	0.618
3433.66	0.618
3442.18	0.6203
3450.69	0.6263
3459.21	0.6326
3467.73	0.6403
3476.24	0.643
3484.76	0.649
3493.28	0.652
3501.8	0.6603
3510.31	0.6696
3518.83	0.672
3527.35	0.6806
3535.86	0.6896
3544.38	0.7036
3552.9	0.709
3561.42	0.7149
3569.93	0.724
3578.45	0.7296
3586.97	0.734
3595.48	0.7406
3604	0.7473
3612.52	0.7519
3621.04	0.7659
3629.55	0.7796
3638.07	0.7933
3646.59	0.799
3655.1	0.807
3663.62	0.811
3672.14	0.8103
3680.66	0.813
3689.17	0.814
3697.69	0.8203
3706.21	0.8234
3714.72	0.822
3723.24	0.824
3731.76	0.8234
3740.28	0.822
3748.79	0.8217
3757.31	0.822
3765.83	0.822
3774.34	0.8217
3782.86	0.824
3791.38	0.827
3799.89	0.827
3808.41	0.825
3816.93	0.8373
3825.45	0.831
3833.96	0.827
3842.48	0.825
3851	0.822
3859.51	0.82
3868.03	0.821
3876.55	0.8226
3885.07	0.824
3893.58	0.822
3902.1	0.822
