Infrared Spectrum: 9H-Purine-9-ethanol, 6-chloro-, acetate
Formula: C9 H9 Cl N4 O2
CAS: 6973-54-2
State: SOLID (0.8 mg / 650 mg KBr DISC)
Class: COBLENTZ III
Instrument: PERKIN-ELMER 21 (GRATING)
Instrument parameters: FILTER CHANGE ABOUT 1025 CM^-^1
Sampling: TRANSMISSION
Resolution: 2
Origin: SOUTHERN RESEARCH INSTITUTE
1/CM	TRANSMITTANCE
604	0.3844
613	0.4887
622	0.5195
631	0.4776
640	0.3432
649	0.4803
658	0.6691
667	0.6994
676	0.6803
685	0.699
694	0.6909
703	0.6741
712	0.6076
721	0.5352
730	0.6801
739	0.6885
748	0.691
757	0.6827
766	0.6702
775	0.656
784	0.6385
793	0.4276
802	0.6552
811	0.6359
820	0.5896
829	0.586
838	0.6264
847	0.5966
856	0.4125
865	0.4751
874	0.6393
883	0.6129
892	0.4265
901	0.5805
910	0.5743
919	0.5319
928	0.2396
937	0.3729
946	0.3386
955	0.5565
964	0.5564
973	0.5502
982	0.3636
991	0.561
1000	0.599
1009	0.5971
1018	0.5729
1027	0.4856
1036	0.3515
1045	0.1526
1054	0.3443
1063	0.5121
1072	0.3092
1081	0.5291
1090	0.5953
1099	0.5919
1108	0.5814
1117	0.5546
1126	0.5229
1135	0.4207
1144	0.2219
1153	0.5246
1162	0.5337
1171	0.4898
1180	0.3277
1189	0.14
1198	0.1338
1207	0.3051
1216	0.1352
1225	0.0682
1234	0.0628
1243	0.1318
1252	0.1059
1261	0.1774
1270	0.3055
1279	0.2677
1288	0.4129
1297	0.5284
1306	0.534
1315	0.5145
1324	0.3678
1333	0.1482
1342	0.2846
1351	0.3366
1360	0.3313
1369	0.1596
1378	0.4382
1387	0.3648
1396	0.3815
1405	0.2766
1414	0.5031
1423	0.359
1432	0.2563
1441	0.26
1450	0.3562
1459	0.4711
1468	0.5685
1477	0.5695
1486	0.4796
1495	0.3138
1504	0.45
1513	0.6053
1522	0.5856
1531	0.5227
1540	0.3798
1549	0.2844
1558	0.1628
1567	0.2452
1576	0.4134
1585	0.2853
1594	0.1506
1603	0.3931
1612	0.5496
1621	0.5963
1630	0.6082
1639	0.621
1648	0.6272
1657	0.6313
1666	0.628
1675	0.6246
1684	0.5957
1693	0.5694
1702	0.5457
1711	0.4034
1720	0.1329
1729	0.0598
1738	0.2091
1747	0.4098
1756	0.5037
1765	0.5348
1774	0.5689
1783	0.6138
1792	0.6246
1801	0.6372
1810	0.6474
1819	0.6562
1828	0.6708
1837	0.6754
1846	0.6773
1855	0.6704
1864	0.658
1873	0.6679
1882	0.6678
1891	0.6657
1900	0.6618
1909	0.6436
1918	0.6511
1927	0.6708
1936	0.678
1945	0.6772
1954	0.6821
1963	0.6795
1972	0.6766
1981	0.6766
1990	0.6779
1999	0.6807
2008	0.6736
2017	0.6726
2026	0.6734
2035	0.6709
2044	0.6723
2053	0.6675
2062	0.6599
2071	0.6555
2080	0.6576
2089	0.6664
2098	0.6691
2107	0.6683
2116	0.6675
2125	0.6667
2134	0.6659
2143	0.6651
2152	0.6639
2161	0.6608
2170	0.6535
2179	0.6514
2188	0.6513
2197	0.652
2206	0.6534
2215	0.6543
2224	0.6547
2233	0.6545
2242	0.6531
2251	0.6517
2260	0.6501
2269	0.6477
2278	0.6454
2287	0.6431
2296	0.6401
2305	0.6349
2314	0.6309
2323	0.6303
2332	0.6311
2341	0.6329
2350	0.6337
2359	0.6364
2368	0.6395
2377	0.6401
2386	0.638
2395	0.6323
2404	0.6327
2413	0.633
2422	0.6327
2431	0.6315
2440	0.6306
2449	0.6297
2458	0.6285
2467	0.6273
2476	0.626
2485	0.6248
2494	0.6238
2503	0.6236
2512	0.6238
2521	0.6259
2530	0.6313
2539	0.6301
2548	0.6288
2557	0.6271
2566	0.6259
2575	0.6231
2584	0.6187
2593	0.615
2602	0.6131
2611	0.6126
2620	0.6135
2629	0.6149
2638	0.6148
2647	0.6147
2656	0.6146
2665	0.6125
2674	0.6103
2683	0.6083
2692	0.6082
2701	0.6096
2710	0.6088
2719	0.6064
2728	0.6033
2737	0.602
2746	0.6009
2755	0.6007
2764	0.5987
2773	0.6007
2782	0.6009
2791	0.6003
2800	0.5977
2809	0.5941
2818	0.592
2827	0.5906
2836	0.5837
2845	0.5776
2854	0.578
2863	0.5801
2872	0.5764
2881	0.568
2890	0.5669
2899	0.561
2908	0.5478
2917	0.535
2926	0.5263
2935	0.525
2944	0.5195
2953	0.513
2962	0.5102
2971	0.5164
2980	0.5249
2989	0.5208
2998	0.5183
3007	0.5215
3016	0.5447
3025	0.5534
3034	0.548
3043	0.5376
3052	0.5298
3061	0.5269
3070	0.5251
3079	0.5285
3088	0.5336
3097	0.5376
3106	0.5395
3115	0.5399
3124	0.5546
3133	0.5563
3142	0.5564
3151	0.5573
3160	0.5572
3169	0.5563
3178	0.56
3187	0.5552
3196	0.553
3205	0.5519
3214	0.5429
3223	0.5408
3232	0.538
3241	0.5346
3250	0.5311
3259	0.5273
3268	0.5237
3277	0.5205
3286	0.5175
3295	0.5149
3304	0.513
3313	0.5121
3322	0.5093
3331	0.5057
3340	0.4995
3349	0.4933
3358	0.49
3367	0.4773
3376	0.4748
3385	0.4628
3394	0.4602
3403	0.4554
3412	0.4444
3421	0.4383
3430	0.4332
3439	0.4286
3448	0.4251
3457	0.4235
3466	0.4259
3475	0.4288
3484	0.4357
3493	0.4404
3502	0.4411
3511	0.4416
3520	0.4502
3529	0.4523
3538	0.4541
3547	0.4588
3556	0.4635
3565	0.4696
3574	0.4752
3583	0.4818
3592	0.4898
3601	0.496
3610	0.5018
3619	0.5035
3628	0.5089
3637	0.5119
3646	0.5236
3655	0.5253
3664	0.525
3673	0.5248
3682	0.5241
3691	0.5225
3700	0.5209
3709	0.5226
3718	0.5237
3727	0.5247
3736	0.5265
3745	0.5277
3754	0.5288
3763	0.5273
3772	0.5258
3781	0.5243
3790	0.5133
3799	0.5173
3808	0.5256
3817	0.5298
3826	0.5289
3835	0.5265
3844	0.5237
3853	0.521
3862	0.5237
3871	0.5233
3880	0.5209
3889	0.5187
3898	0.5169
3907	0.5157
3916	0.5146
3925	0.5155
3934	0.5156
3943	0.5161
3952	0.5212
3961	0.5242
3970	0.5178
3979	0.5088
3988	0.5121
3997	0.5159
