Infrared Spectrum: 6-n-Octylmercaptopurine
Formula: C 13 H 20 N 4 S
CAS: 6974-89-6
State: gas
Origin: EPA-IR VAPOR PHASE LIBRARY
1/CM	ABSORBANCE
549.8	0.02051
559.445	0.00669
569.09	0.00209
578.734	0.00204
588.379	0.00223
598.024	0.00361
607.669	0.0011115
617.313	0.000657
626.958	0.00136
636.603	0.00176
646.248	0.00275
655.893	0.00181
665.537	0.00154
675.182	0.0015
684.827	0.000704
694.472	0.0010177
704.116	0.0011256
713.761	0.00171
723.406	0.00212
733.051	0.00199
742.695	0.00157
752.34	0.00163
761.985	0.0013
771.63	0.00156
781.275	0.00201
790.919	0.00321
800.564	0.00312
810.209	0.00211
819.854	0.00341
829.498	0.00629
839.143	0.01431
848.788	0.0198
858.433	0.0093
868.078	0.00321
877.722	0.0024
887.367	0.00165
897.012	0.00222
906.657	0.00467
916.301	0.01129
925.946	0.00353
935.591	0.00256
945.236	0.00356
954.88	0.00422
964.525	0.00805
974.17	0.01449
983.815	0.04293
993.46	0.02769
1003.1	0.00735
1012.75	0.00417
1022.39	0.00344
1032.04	0.00311
1041.68	0.00483
1051.33	0.00629
1060.97	0.00495
1070.62	0.00235
1080.26	0.00182
1089.91	0.00223
1099.55	0.002
1109.2	0.00158
1118.84	0.00133
1128.49	0.00133
1138.13	0.00208
1147.78	0.00255
1157.42	0.00155
1167.07	0.00205
1176.71	0.00186
1186.36	0.00224
1196	0.00352
1205.64	0.01064
1215.29	0.01541
1224.93	0.02041
1234.58	0.03222
1244.22	0.01915
1253.87	0.00838
1263.51	0.00828
1273.16	0.00825
1282.8	0.00588
1292.45	0.00597
1302.09	0.0084
1311.74	0.0182
1321.38	0.02828
1331.03	0.01396
1340.67	0.00759
1350.32	0.00743
1359.96	0.01022
1369.61	0.02066
1379.25	0.02818
1388.9	0.01201
1398.54	0.00637
1408.18	0.00931
1417.83	0.01824
1427.47	0.02069
1437.12	0.01706
1446.76	0.00969
1456.41	0.00875
1466.05	0.00839
1475.7	0.00803
1485.34	0.00667
1494.99	0.00494
1504.63	0.00415
1514.28	0.00466
1523.92	0.00586
1533.57	0.01166
1543.21	0.0301
1552.86	0.06416
1562.5	0.08739
1572.15	0.04823
1581.79	0.04249
1591.44	0.03735
1601.08	0.01328
1610.73	0.00483
1620.37	0.00292
1630.01	0.00224
1639.66	0.00213
1649.3	0.00264
1658.95	0.00188
1668.59	0.00134
1678.24	0.00144
1687.88	0.00205
1697.53	0.00376
1707.17	0.00619
1716.82	0.0029
1726.46	0.00138
1736.11	0.00126
1745.75	0.00121
1755.4	0.000891
1765.04	0.0007281
1774.69	0.000601
1784.33	0.0006696
1793.98	0.0006516
1803.62	0.0007553
1813.27	0.000701
1822.91	0.0007817
1832.55	0.0007916
1842.2	0.0007242
1851.84	0.0007173
1861.49	0.0008715
1871.13	0.0011213
1880.78	0.00149
1890.42	0.00161
1900.07	0.00117
1909.71	0.0008883
1919.36	0.000861
1929	0.000745
1938.65	0.0005953
1948.29	0.0006324
1957.94	0.0007598
1967.58	0.0009091
1977.23	0.0007319
1986.87	0.0006964
1996.52	0.0006797
2006.16	0.0007206
2015.81	0.0006658
2025.45	0.0007464
2035.1	0.0006694
2044.74	0.0007681
2054.38	0.0006962
2064.03	0.0006833
2073.67	0.0007116
2083.32	0.0005971
2092.96	0.0005396
2102.61	0.000648
2112.25	0.000617
2121.9	0.0004933
2131.54	0.0006378
2141.19	0.0007504
2150.83	0.0008053
2160.48	0.0008766
2170.12	0.0006938
2179.77	0.000642
2189.41	0.0007336
2199.06	0.0006531
2208.7	0.0007219
2218.35	0.000716
2227.99	0.0008035
2237.64	0.0006954
2247.28	0.000813
2256.92	0.0006865
2266.57	0.0006015
2276.21	0.0007232
2285.86	0.0007412
2295.5	0.0009157
2305.15	0.0006416
2314.79	0.0008559
2324.44	0.0009923
2334.08	0.0008758
2343.73	0.0008981
2353.37	0.0011148
2363.02	0.00122
2372.66	0.0010506
2382.31	0.00118
2391.95	0.0010598
2401.6	0.0010062
2411.24	0.00116
2420.89	0.00142
2430.53	0.00163
2440.18	0.00141
2449.82	0.0010585
2459.47	0.0010963
2469.11	0.00117
2478.75	0.0010553
2488.4	0.0008965
2498.04	0.0008394
2507.69	0.0009793
2517.33	0.0010023
2526.98	0.0010812
2536.62	0.0010613
2546.27	0.0009905
2555.91	0.0008819
2565.56	0.0009099
2575.2	0.0010388
2584.85	0.000973
2594.49	0.0010829
2604.14	0.00127
2613.78	0.00129
2623.43	0.00138
2633.07	0.00142
2642.72	0.00151
2652.36	0.00126
2662.01	0.00134
2671.65	0.00139
2681.29	0.00137
2690.94	0.00141
2700.58	0.00138
2710.23	0.00125
2719.87	0.00131
2729.52	0.00136
2739.16	0.00144
2748.81	0.00173
2758.45	0.00163
2768.1	0.00164
2777.74	0.00189
2787.39	0.00205
2797.03	0.00255
2806.68	0.00302
2816.32	0.00343
2825.97	0.00433
2835.61	0.00555
2845.26	0.00883
2854.9	0.01863
2864.55	0.02652
2874.19	0.02154
2883.84	0.01831
2893.48	0.01639
2903.12	0.02056
2912.77	0.03008
2922.41	0.04942
2932.06	0.07135
2941.7	0.05964
2951.35	0.03721
2960.99	0.03064
2970.64	0.02818
2980.28	0.01523
2989.93	0.00874
2999.57	0.00595
3009.22	0.00433
3018.86	0.00355
3028.51	0.00324
3038.15	0.0031
3047.8	0.00368
3057.44	0.00684
3067.09	0.00743
3076.73	0.00278
3086.38	0.0018
3096.02	0.0016
3105.67	0.00134
3115.31	0.00144
3124.95	0.00153
3134.6	0.0010912
3144.24	0.0010492
3153.89	0.0010954
3163.53	0.0008998
3173.18	0.0008291
3182.82	0.0007695
3192.47	0.0007145
3202.11	0.0008096
3211.76	0.00068
3221.4	0.0007611
3231.05	0.0007473
3240.69	0.0005274
3250.34	0.0004322
3259.98	0.0004841
3269.63	0.0005739
3279.27	0.0004183
3288.92	0.0005944
3298.56	0.0004071
3308.21	0.0005542
3317.85	0.0006239
3327.49	0.0006392
3337.14	0.0003613
3346.78	0.0003168
3356.43	0.000507
3366.07	0.0005318
3375.72	0.0004563
3385.36	0.0004503
3395.01	0.0006529
3404.65	0.0005838
3414.3	0.0008583
3423.94	0.0005829
3433.59	0.0006767
3443.23	0.0006444
3452.88	0.0012
3462.52	0.00254
3472.17	0.00522
3481.81	0.01294
3491.46	0.01979
3501.1	0.0403
3510.75	0.00866
3520.39	0.0019
3530.04	0.0011022
3539.68	0.0008365
3549.32	0.0005314
3558.97	0.0006314
3568.61	0.0003727
3578.26	0.0002488
3587.9	0.0003752
3597.55	0.00019778
3607.19	0.0003311
3616.84	0.0002917
3626.48	0.0005586
3636.13	0.0005239
3645.77	0.00023853
3655.42	0.0004448
3665.06	0.0003427
3674.71	0.0002754
3684.35	0.0004657
3694	0.0006181
3703.64	0.0004182
3713.29	0.0005654
3722.93	0.0003398
3732.58	0.0003383
3742.22	0.0003895
3751.86	0.0002741
3761.51	0.0005137
3771.15	0.0002578
3780.8	0.0003352
3790.44	0.00016564
3800.09	0.0004554
3809.73	0.0004591
3819.38	0.0001243
3829.02	0.000335
3838.67	0.00021082
3848.31	0.0003361
3857.96	0.0003068
3867.6	0.0004348
3877.25	0.0004988
3886.89	0.0003827
3896.54	0.0004803
3906.18	0.0004047
3915.83	0.0003431
3925.47	0.0002617
3935.12	0.0002952
3944.76	0.0003201
3954.41	0.0004603
3964.05	0.0006706
3973.69	0.0005576
3983.34	0.000458
3992.98	0.0004631
