Infrared Spectrum: Purine, 6-(decylthio)-
Formula: C15 H24 N4 S
CAS: 6974-90-9
State: SOLID (0.9 mg / 650 mg KBr DISC)
Class: COBLENTZ III
Instrument: PERKIN-ELMER 21 (GRATING)
Instrument parameters: FILTER CHANGE ABOUT 1025 CM^-^1
Sampling: TRANSMISSION
Resolution: 2
Origin: SOUTHERN RESEARCH INSTITUTE
1/CM	TRANSMITTANCE
601	0.6246
610.047	0.6393
619.094	0.6118
628.141	0.561
637.188	0.5544
646.235	0.729
655.282	0.7428
664.329	0.7436
673.376	0.7459
682.423	0.7486
691.47	0.7466
700.517	0.7126
709.564	0.6809
718.611	0.742
727.658	0.7732
736.705	0.783
745.752	0.7866
754.799	0.785
763.846	0.7729
772.892	0.7505
781.939	0.7227
790.986	0.8247
800.033	0.796
809.08	0.7972
818.127	0.8147
827.174	0.8219
836.221	0.7913
845.268	0.7573
854.315	0.7196
863.362	0.5017
872.409	0.8282
881.456	0.841
890.503	0.819
899.55	0.7842
908.597	0.7335
917.644	0.6578
926.691	0.8494
935.738	0.8608
944.785	0.8636
953.832	0.8736
962.879	0.8718
971.926	0.8624
980.973	0.8426
990.02	0.7939
999.067	0.7906
1008.11	0.8564
1017.16	0.8612
1026.21	0.8814
1035.25	0.8812
1044.3	0.8802
1053.35	0.8787
1062.4	0.8748
1071.44	0.8725
1080.49	0.8708
1089.54	0.8672
1098.58	0.8102
1107.63	0.7927
1116.68	0.868
1125.72	0.8755
1134.77	0.871
1143.82	0.8494
1152.87	0.8804
1161.91	0.8774
1170.96	0.8695
1180.01	0.8575
1189.05	0.8433
1198.1	0.856
1207.15	0.8361
1216.19	0.7013
1225.24	0.7741
1234.29	0.7836
1243.34	0.7713
1252.38	0.6771
1261.43	0.6008
1270.48	0.7776
1279.52	0.7456
1288.57	0.8326
1297.62	0.8208
1306.66	0.7472
1315.71	0.3198
1324.76	0.5555
1333.8	0.8378
1342.85	0.8649
1351.9	0.8631
1360.95	0.8263
1369.99	0.7634
1379.04	0.5734
1388.09	0.7927
1397.13	0.7929
1406.18	0.6926
1415.23	0.6894
1424.27	0.7472
1433.32	0.6905
1442.37	0.6428
1451.42	0.7593
1460.46	0.7381
1469.51	0.5587
1478.56	0.8629
1487.6	0.8683
1496.65	0.8676
1505.7	0.8587
1514.74	0.8445
1523.79	0.8203
1532.84	0.784
1541.89	0.7515
1550.93	0.6607
1559.98	0.3057
1569.03	0.3629
1578.07	0.4703
1587.12	0.4723
1596.17	0.7985
1605.21	0.8317
1614.26	0.8369
1623.31	0.8402
1632.35	0.8552
1641.4	0.8668
1650.45	0.8817
1659.5	0.8987
1668.54	0.9106
1677.59	0.9152
1686.64	0.9226
1695.68	0.9212
1704.73	0.9249
1713.78	0.9257
1722.82	0.9277
1731.87	0.9312
1740.92	0.9329
1749.97	0.9309
1759.01	0.9256
1768.06	0.9127
1777.11	0.8935
1786.15	0.8807
1795.2	0.8966
1804.25	0.9263
1813.29	0.9372
1822.34	0.9414
1831.39	0.9426
1840.44	0.9408
1849.48	0.9389
1858.53	0.9369
1867.58	0.9331
1876.62	0.9221
1885.67	0.9275
1894.72	0.9516
1903.76	0.9516
1912.81	0.9511
1921.86	0.95
1930.9	0.9513
1939.95	0.9526
1949	0.952
1958.05	0.9512
1967.09	0.9504
1976.14	0.9497
1985.19	0.9491
1994.23	0.9479
2003.28	0.9464
2012.33	0.9429
2021.37	0.9433
2030.42	0.9444
2039.47	0.9425
2048.52	0.9418
2057.56	0.9412
2066.61	0.9411
2075.66	0.9412
2084.7	0.9408
2093.75	0.9401
2102.8	0.9393
2111.84	0.9382
2120.89	0.937
2129.94	0.9358
2138.99	0.9337
2148.03	0.9312
2157.08	0.9292
2166.13	0.9316
2175.17	0.9319
2184.22	0.9302
2193.27	0.9284
2202.31	0.926
2211.36	0.9236
2220.41	0.9212
2229.46	0.9187
2238.5	0.9169
2247.55	0.9151
2256.6	0.9128
2265.64	0.9103
2274.69	0.9068
2283.74	0.8954
2292.78	0.8844
2301.83	0.8807
2310.88	0.8788
2319.92	0.8773
2328.97	0.8775
2338.02	0.878
2347.07	0.8826
2356.11	0.8872
2365.16	0.8874
2374.21	0.8879
2383.25	0.8883
2392.3	0.888
2401.35	0.887
2410.39	0.8851
2419.44	0.8831
2428.49	0.8808
2437.54	0.8783
2446.58	0.8741
2455.63	0.8686
2464.68	0.8627
2473.72	0.8573
2482.77	0.8544
2491.82	0.8553
2500.86	0.8578
2509.91	0.8591
2518.96	0.8583
2528.01	0.8564
2537.05	0.8543
2546.1	0.8523
2555.15	0.85
2564.19	0.8476
2573.24	0.846
2582.29	0.8437
2591.33	0.8406
2600.38	0.8365
2609.43	0.8282
2618.47	0.8143
2627.52	0.7978
2636.57	0.7852
2645.62	0.7816
2654.66	0.7819
2663.71	0.7818
2672.76	0.7823
2681.8	0.7832
2690.85	0.7786
2699.9	0.7687
2708.94	0.7609
2717.99	0.7536
2727.04	0.7456
2736.09	0.7373
2745.13	0.722
2754.18	0.6927
2763.23	0.6574
2772.27	0.632
2781.32	0.624
2790.37	0.6199
2799.41	0.5982
2808.46	0.5545
2817.51	0.454
2826.56	0.4215
2835.6	0.4864
2844.65	0.5081
2853.7	0.499
2862.74	0.4381
2871.79	0.369
2880.84	0.2927
2889.88	0.2557
2898.93	0.2558
2907.98	0.3161
2917.02	0.4414
2926.07	0.4713
2935.12	0.5016
2944.17	0.5611
2953.21	0.6008
2962.26	0.6488
2971.31	0.6562
2980.35	0.6467
2989.4	0.6226
2998.45	0.5933
3007.49	0.5749
3016.54	0.5646
3025.59	0.5568
3034.64	0.5467
3043.68	0.5235
3052.73	0.4815
3061.78	0.4633
3070.82	0.4784
3079.87	0.5117
3088.92	0.5287
3097.96	0.538
3107.01	0.5489
3116.06	0.5639
3125.11	0.5765
3134.15	0.5833
3143.2	0.5834
3152.25	0.589
3161.29	0.6083
3170.34	0.6366
3179.39	0.664
3188.43	0.6882
3197.48	0.709
3206.53	0.7234
3215.58	0.7377
3224.62	0.7488
3233.67	0.7591
3242.72	0.7732
3251.76	0.7887
3260.81	0.7944
3269.86	0.7971
3278.9	0.7986
3287.95	0.7992
3297	0.7981
3306.04	0.7883
3315.09	0.7773
3324.14	0.7669
3333.19	0.7586
3342.23	0.7529
3351.28	0.747
3360.33	0.7402
3369.37	0.7341
3378.42	0.7303
3387.47	0.7281
3396.51	0.7275
3405.56	0.7277
3414.61	0.7294
3423.66	0.7319
3432.7	0.7347
3441.75	0.7377
3450.8	0.7409
3459.84	0.7443
3468.89	0.7482
3477.94	0.7526
3486.98	0.7577
3496.03	0.7636
3505.08	0.7706
3514.13	0.7792
3523.17	0.7904
3532.22	0.8007
3541.27	0.812
3550.31	0.825
3559.36	0.8376
3568.41	0.8473
3577.45	0.8542
3586.5	0.8596
3595.55	0.8644
3604.59	0.872
3613.64	0.8759
3622.69	0.8774
3631.74	0.8785
3640.78	0.8796
3649.83	0.8803
3658.88	0.881
3667.92	0.8815
3676.97	0.8821
3686.02	0.8828
3695.06	0.8836
3704.11	0.8843
3713.16	0.885
3722.21	0.8857
3731.25	0.8863
3740.3	0.887
3749.35	0.8878
3758.39	0.8883
3767.44	0.8886
3776.49	0.8889
3785.53	0.8875
3794.58	0.884
3803.63	0.8848
3812.68	0.8855
3821.72	0.8857
3830.77	0.8858
3839.82	0.8855
3848.86	0.8852
3857.91	0.8852
3866.96	0.8852
3876	0.8851
3885.05	0.8847
3894.1	0.8842
3903.15	0.8853
3912.19	0.8866
3921.24	0.8876
3930.29	0.8885
3939.33	0.8885
3948.38	0.8884
3957.43	0.8862
3966.47	0.8839
3975.52	0.8816
3984.57	0.8803
3993.61	0.8805
4002.66	0.8802
4011.71	0.8817
