Infrared Spectrum: ACETIC ACID, CHLORO-, n-DECYL ESTER
Formula: C12 H23 Cl O2
CAS: 6974-05-6
State: LIQUID (NEAT)
Boiling point: 142 C AT 6 mmHg
Class: COBLENTZ III
Instrument: BAIRD (GRATING)
Instrument parameters: NaCl PRISM
Sampling: TRANSMISSION
Path length: 0.003 CM
Resolution: 2
Origin: WYANDOTTE CHEMICALS CORP.
1/CM	TRANSMITTANCE
4000	0.9603
3991	0.9587
3982	0.9573
3973	0.957
3964	0.9574
3955	0.9577
3946	0.9595
3937	0.9624
3928	0.9648
3919	0.9668
3910	0.969
3901	0.9706
3892	0.9713
3883	0.972
3874	0.9708
3865	0.9686
3856	0.9662
3847	0.9631
3838	0.9598
3829	0.9571
3820	0.9556
3811	0.9551
3802	0.9581
3793	0.9648
3784	0.9701
3775	0.9738
3766	0.9749
3757	0.9749
3748	0.9742
3739	0.9736
3730	0.9741
3721	0.975
3712	0.9757
3703	0.9761
3694	0.9762
3685	0.9744
3676	0.9702
3667	0.9659
3658	0.9615
3649	0.9583
3640	0.9542
3631	0.9551
3622	0.9571
3613	0.9599
3604	0.9628
3595	0.9654
3586	0.9661
3577	0.9666
3568	0.9639
3559	0.9605
3550	0.9568
3541	0.9523
3532	0.947
3523	0.9417
3514	0.9364
3505	0.9318
3496	0.9281
3487	0.9262
3478	0.9249
3469	0.9235
3460	0.922
3451	0.9204
3442	0.9182
3433	0.9147
3424	0.9117
3415	0.9121
3406	0.9161
3397	0.9223
3388	0.9243
3379	0.9247
3370	0.925
3361	0.9228
3352	0.9203
3343	0.9178
3334	0.9151
3325	0.9134
3316	0.9158
3307	0.9186
3298	0.9214
3289	0.9242
3280	0.9258
3271	0.9249
3262	0.9237
3253	0.9209
3244	0.918
3235	0.9148
3226	0.9114
3217	0.9084
3208	0.9054
3199	0.9037
3190	0.9021
3181	0.9007
3172	0.8996
3163	0.8986
3154	0.8975
3145	0.8968
3136	0.8966
3127	0.8939
3118	0.89
3109	0.886
3100	0.8777
3091	0.868
3082	0.8563
3073	0.8436
3064	0.8239
3055	0.8044
3046	0.7849
3037	0.7625
3028	0.7375
3019	0.7148
3010	0.6841
3001	0.5501
2992	0.4539
2983	0.345
2974	0.1991
2965	0.1269
2956	0.0543
2947	0.031
2938	0.0286
2929	0.0283
2920	0.0296
2911	0.032
2902	0.0473
2893	0.0842
2884	0.1211
2875	0.158
2866	0.1645
2857	0.1374
2848	0.0658
2839	0.0803
2830	0.3264
2821	0.6012
2812	0.7085
2803	0.7442
2794	0.7685
2785	0.7898
2776	0.8065
2767	0.8207
2758	0.8301
2749	0.8358
2740	0.8381
2731	0.8389
2722	0.84
2713	0.8421
2704	0.8452
2695	0.8482
2686	0.8521
2677	0.857
2668	0.8661
2659	0.8751
2650	0.8775
2641	0.8796
2632	0.8811
2623	0.8832
2614	0.8867
2605	0.8949
2596	0.9053
2587	0.9081
2578	0.9035
2569	0.9055
2560	0.9099
2551	0.9103
2542	0.9107
2533	0.9111
2524	0.9115
2515	0.9116
2506	0.9116
2497	0.9117
2488	0.9118
2479	0.9118
2470	0.912
2461	0.9145
2452	0.9185
2443	0.9197
2434	0.9207
2425	0.9212
2416	0.9216
2407	0.9223
2398	0.9232
2389	0.9242
2380	0.9252
2371	0.9257
2362	0.9262
2353	0.9282
2344	0.9384
2335	0.948
2326	0.9497
2317	0.9506
2308	0.949
2299	0.947
2290	0.9441
2281	0.9411
2272	0.9385
2263	0.9375
2254	0.9403
2245	0.9424
2236	0.9436
2227	0.944
2218	0.944
2209	0.9439
2200	0.9444
2191	0.9452
2182	0.9459
2173	0.9466
2164	0.9473
2155	0.9473
2146	0.9473
2137	0.9471
2128	0.9471
2119	0.9468
2110	0.946
2101	0.9451
2092	0.9431
2083	0.9428
2074	0.9473
2065	0.9501
2056	0.95
2047	0.9439
2038	0.9418
2029	0.942
2020	0.942
2011	0.9418
2002	0.9438
1993	0.9481
1984	0.9523
1975	0.951
1966	0.9468
1957	0.9443
1948	0.9448
1939	0.9453
1930	0.9457
1921	0.9437
1912	0.941
1903	0.9377
1894	0.9344
1885	0.9377
1876	0.9403
1867	0.9254
1858	0.9197
1849	0.9141
1840	0.9087
1831	0.8907
1822	0.8655
1813	0.8373
1804	0.7781
1795	0.7193
1786	0.6193
1777	0.3432
1768	0.0641
1759	0.0349
1750	0.0393
1741	0.0577
1732	0.3272
1723	0.6636
1714	0.7203
1705	0.7731
1696	0.8103
1687	0.8383
1678	0.8549
1669	0.861
1660	0.8635
1651	0.8662
1642	0.8692
1633	0.8723
1624	0.8757
1615	0.8795
1606	0.8883
1597	0.8966
1588	0.8941
1579	0.8945
1570	0.8978
1561	0.8986
1552	0.8917
1543	0.8825
1534	0.8767
1525	0.8691
1516	0.8543
1507	0.8215
1498	0.7608
1489	0.5616
1480	0.1741
1471	0.2606
1462	0.4124
1453	0.5245
1444	0.5386
1435	0.5619
1426	0.3962
1417	0.5662
1408	0.69
1399	0.6318
1390	0.5735
1381	0.5824
1372	0.6791
1363	0.6725
1354	0.6714
1345	0.6472
1336	0.427
1327	0.2254
1318	0.0732
1309	0.0765
1300	0.0872
1291	0.0833
1282	0.2032
1273	0.2838
1264	0.2352
1255	0.2584
1246	0.3356
1237	0.395
1228	0.4156
1219	0.3616
1210	0.2223
1201	0.0933
1192	0.0462
1183	0.0413
1174	0.05
1165	0.1205
1156	0.2223
1147	0.2741
1138	0.3656
1129	0.5395
1120	0.6803
1111	0.7176
1102	0.7158
1093	0.6865
1084	0.6561
1075	0.6325
1066	0.6133
1057	0.6026
1048	0.5485
1039	0.5239
1030	0.5319
1021	0.5308
1012	0.4868
1003	0.4249
994	0.3574
985	0.3404
976	0.4636
967	0.6056
958	0.6392
949	0.6593
940	0.6871
931	0.6482
922	0.6928
913	0.7693
904	0.7822
895	0.7742
886	0.7768
877	0.8037
868	0.8118
859	0.8234
850	0.8401
841	0.857
832	0.8632
823	0.8535
814	0.8137
805	0.761
796	0.5546
787	0.5182
778	0.6214
769	0.6978
760	0.763
751	0.7737
742	0.7628
733	0.7332
724	0.6338
715	0.6678
706	0.6885
697	0.6694
688	0.7068
679	0.7564
670	0.7901
661	0.7965
652	0.7862
643	0.7711
634	0.7531
