Infrared Spectrum: 6-Dodecyne
Formula: C 12 H 22
CAS: 6975-99-1
State: gas
Instrument: HP-GC/MS/IRD
Origin: NIST Mass Spectrometry Data Center
1/CM	ABSORBANCE
550	0.000594
562	0.0002365
574	0.0001045
586	8.8e-05
598	7.15e-05
610	0.0001155
622	4.95e-05
634	1.65e-05
646	6.05e-05
658	0.0001155
670	3.3e-05
682	8.8e-05
694	0.000154
706	0.0003465
718	0.0006215
730	0.0008635
742	0.0007865
754	0.000528
766	0.000462
778	0.000341
790	0.0002475
802	0.0001595
814	8.25e-05
826	8.8e-05
838	7.15e-05
850	8.8e-05
862	0.00011
874	0.0001595
886	0.000264
898	0.00033
910	0.000319
922	0.0002035
934	0.000154
946	0.0001815
958	0.000286
970	0.0004345
982	0.0005445
994	0.000341
1006	0.0002915
1018	0.0002805
1030	0.000209
1042	0.000209
1054	0.000242
1066	0.000242
1078	0.000253
1090	0.0002915
1102	0.0004675
1114	0.000363
1126	0.000143
1138	0.000143
1150	0.000143
1162	0.000132
1174	0.000209
1186	0.000286
1198	0.0003795
1210	0.000352
1222	0.0003905
1234	0.00044
1246	0.000495
1258	0.000484
1270	0.00077
1282	0.001353
1294	0.00154
1306	0.0016775
1318	0.0024585
1330	0.004664
1342	0.0037235
1354	0.0027665
1366	0.002189
1378	0.0019415
1390	0.0017655
1402	0.001155
1414	0.0012045
1426	0.002002
1438	0.0041305
1450	0.0047575
1462	0.0050215
1474	0.003685
1486	0.001848
1498	0.0010065
1510	0.0007095
1522	0.000539
1534	0.000396
1546	0.000319
1558	0.0003135
1570	0.0002255
1582	0.000198
1594	0.0001705
1606	0.0001155
1618	0.0001705
1630	0.000121
1642	0.0001265
1654	0.000165
1666	8.25e-05
1678	8.8e-05
1690	9.9e-05
1702	0.000121
1714	9.9e-05
1726	3.3e-05
1738	7.15e-05
1750	5.5e-05
1762	3.85e-05
1774	4.4e-05
1786	2.2e-05
1798	3.3e-05
1810	1.1e-05
1822	1.1e-05
1834	4.4e-05
1846	2.2e-05
1858	2.2e-05
1870	4.95e-05
1882	1.65e-05
1894	1.1e-05
1906	5.5e-06
1918	0
1930	2.2e-05
1942	1.1e-05
1954	1.1e-05
1966	2.2e-05
1978	1.1e-05
1990	5.5e-06
2002	3.85e-05
2014	4.95e-05
2026	4.95e-05
2038	6.6e-05
2050	7.7e-05
2062	6.6e-05
2074	4.4e-05
2086	4.4e-05
2098	6.05e-05
2110	3.3e-05
2122	4.95e-05
2134	3.3e-05
2146	3.3e-05
2158	4.4e-05
2170	4.95e-05
2182	6.05e-05
2194	6.05e-05
2206	4.95e-05
2218	7.15e-05
2230	6.05e-05
2242	2.2e-05
2254	4.4e-05
2266	4.95e-05
2278	4.4e-05
2290	4.95e-05
2302	2.75e-05
2314	4.4e-05
2326	2.75e-05
2338	2.2e-05
2350	4.95e-05
2362	5.5e-05
2374	6.6e-05
2386	8.25e-05
2398	5.5e-05
2410	4.95e-05
2422	7.7e-05
2434	4.95e-05
2446	5.5e-05
2458	6.05e-05
2470	4.95e-05
2482	1.1e-05
2494	2.75e-05
2506	5.5e-05
2518	6.6e-05
2530	9.35e-05
2542	0.0001375
2554	0.0001815
2566	0.0001815
2578	0.000231
2590	0.000198
2602	0.00022
2614	0.0002695
2626	0.000286
2638	0.000396
2650	0.000495
2662	0.0005115
2674	0.000572
2686	0.0005115
2698	0.000462
2710	0.0004345
2722	0.000528
2734	0.000671
2746	0.0007645
2758	0.0008085
2770	0.000891
2782	0.0010395
2794	0.0013585
2806	0.0017655
2818	0.0023705
2830	0.003553
2842	0.006391
2854	0.012408
2866	0.01881
2878	0.0188375
2890	0.016456
2902	0.017435
2914	0.0257675
2926	0.0413875
2938	0.055
2950	0.0406285
2962	0.033176
2974	0.026081
2986	0.011418
2998	0.005764
3010	0.0035805
3022	0.002541
3034	0.001903
3046	0.0014355
3058	0.0011385
3070	0.00099
3082	0.000847
3094	0.000748
3106	0.000616
3118	0.000583
3130	0.0004675
3142	0.0003905
3154	0.0003905
3166	0.0003795
3178	0.000363
3190	0.0003135
3202	0.0002915
3214	0.0002035
3226	0.0001925
3238	0.0001155
3250	0.0001375
3262	9.35e-05
3274	8.8e-05
3286	0.00011
3298	8.8e-05
3310	7.7e-05
3322	8.25e-05
3334	0.000121
3346	7.15e-05
3358	0.00011
3370	9.35e-05
3382	9.35e-05
3394	4.95e-05
3406	5.5e-05
3418	1.65e-05
3430	4.95e-05
3442	4.4e-05
3454	6.05e-05
3466	3.3e-05
3478	3.85e-05
3490	4.95e-05
3502	3.85e-05
3514	3.85e-05
3526	0
3538	2.75e-05
3550	1.1e-05
3562	4.95e-05
3574	1.65e-05
3586	7.15e-05
3598	7.7e-05
3610	0.00011
3622	0.00011
3634	5.5e-05
3646	0.000143
3658	0.00011
3670	0.0001375
3682	0.0001045
3694	0.0001155
3706	9.35e-05
3718	8.8e-05
3730	0.000132
3742	0.0001595
3754	0.0001595
3766	0.0001155
3778	0.0001155
3790	0.0001265
3802	0.000154
3814	0.0001485
3826	0.0001705
3838	0.0002365
