Infrared Spectrum: 9H-PURINE, 6-AMINO-9-(2-CYCLOHEXENYL)-
Formula: C11 H13 N5
CAS: 6975-25-3
State: SOLID (1.2 mg / 650 mg KBr DISC)
Class: COBLENTZ III
Instrument: PERKIN-ELMER 21 (GRATING)
Instrument parameters: FILTER CHANGE ABOUT 1090 CM^-^1
Sampling: TRANSMISSION
Resolution: 2
Origin: SOUTHERN RESEARCH INSTITUTE
1/CM	TRANSMITTANCE
602.36	0.437
611.401	0.4414
620.443	0.4343
629.484	0.4247
638.526	0.4089
647.567	0.369
656.609	0.3939
665.65	0.4428
674.691	0.458
683.733	0.4558
692.774	0.4233
701.816	0.4342
710.857	0.4453
719.899	0.3758
728.94	0.2587
737.981	0.3835
747.023	0.5564
756.064	0.5636
765.106	0.555
774.147	0.5341
783.188	0.5056
792.23	0.5402
801.271	0.3336
810.313	0.5596
819.354	0.5696
828.396	0.5632
837.437	0.4923
846.478	0.5612
855.52	0.5643
864.561	0.4736
873.603	0.5413
882.644	0.46
891.686	0.5601
900.727	0.5248
909.768	0.5186
918.81	0.5822
927.851	0.5745
936.893	0.5723
945.934	0.5782
954.976	0.5742
964.017	0.5526
973.058	0.5161
982.1	0.4827
991.141	0.4917
1000.18	0.5083
1009.22	0.5232
1018.27	0.5306
1027.31	0.5372
1036.35	0.5232
1045.39	0.4883
1054.43	0.4571
1063.47	0.4904
1072.51	0.4252
1081.56	0.4546
1090.6	0.4696
1099.64	0.495
1108.68	0.5093
1117.72	0.5003
1126.76	0.4846
1135.8	0.4709
1144.85	0.4547
1153.89	0.4612
1162.93	0.4369
1171.97	0.3977
1181.01	0.4228
1190.05	0.4063
1199.09	0.3367
1208.14	0.2557
1217.18	0.3377
1226.22	0.3582
1235.26	0.3312
1244.3	0.2752
1253.34	0.3428
1262.38	0.3607
1271.43	0.4129
1280.47	0.3861
1289.51	0.3106
1298.55	0.2784
1307.59	0.1719
1316.63	0.3415
1325.67	0.3533
1334.72	0.2133
1343.76	0.2268
1352.8	0.4765
1361.84	0.5095
1370.88	0.4803
1379.92	0.4105
1388.96	0.395
1398.01	0.4432
1407.05	0.3261
1416.09	0.3101
1425.13	0.2528
1434.17	0.4834
1443.21	0.4538
1452.25	0.4325
1461.3	0.4208
1470.34	0.4052
1479.38	0.281
1488.42	0.2715
1497.46	0.4609
1506.5	0.4577
1515.54	0.4735
1524.59	0.4827
1533.63	0.4751
1542.67	0.4362
1551.71	0.3975
1560.75	0.3692
1569.79	0.1748
1578.83	0.1746
1587.88	0.2596
1596.92	0.176
1605.96	0.1105
1615	0.1911
1624.04	0.2937
1633.08	0.2658
1642.12	0.1684
1651.17	0.1225
1660.21	0.1244
1669.25	0.1519
1678.29	0.3206
1687.33	0.4553
1696.37	0.5232
1705.41	0.5782
1714.46	0.5939
1723.5	0.6112
1732.54	0.6726
1741.58	0.6876
1750.62	0.7002
1759.66	0.7075
1768.7	0.7091
1777.75	0.7085
1786.79	0.7071
1795.83	0.7055
1804.87	0.7037
1813.91	0.7009
1822.95	0.6964
1831.99	0.6934
1841.04	0.6945
1850.08	0.6959
1859.12	0.6959
1868.16	0.6876
1877.2	0.6861
1886.24	0.6814
1895.28	0.6766
1904.33	0.6709
1913.37	0.6651
1922.41	0.6608
1931.45	0.6579
1940.49	0.6558
1949.53	0.656
1958.57	0.6574
1967.62	0.6584
1976.66	0.656
1985.7	0.6536
1994.74	0.6607
2003.78	0.6599
2012.82	0.6556
2021.86	0.6535
2030.91	0.652
2039.95	0.6507
2048.99	0.6493
2058.03	0.6476
2067.07	0.6458
2076.11	0.6436
2085.15	0.6412
2094.2	0.6391
2103.24	0.6379
2112.28	0.6372
2121.32	0.6367
2130.36	0.6355
2139.4	0.6346
2148.44	0.6335
2157.48	0.6319
2166.53	0.6305
2175.57	0.6286
2184.61	0.6255
2193.65	0.6222
2202.69	0.6189
2211.73	0.6148
2220.77	0.6093
2229.82	0.6049
2238.86	0.6023
2247.9	0.6028
2256.94	0.604
2265.98	0.605
2275.02	0.6058
2284.06	0.6038
2293.11	0.6015
2302.15	0.5921
2311.19	0.5843
2320.23	0.582
2329.27	0.58
2338.31	0.5806
2347.35	0.5837
2356.4	0.5868
2365.44	0.5895
2374.48	0.5915
2383.52	0.5933
2392.56	0.5924
2401.6	0.5912
2410.64	0.5895
2419.69	0.5876
2428.73	0.5854
2437.77	0.5827
2446.81	0.5801
2455.85	0.5774
2464.89	0.5746
2473.93	0.5716
2482.98	0.5686
2492.02	0.5656
2501.06	0.5624
2510.1	0.5577
2519.14	0.5561
2528.18	0.5583
2537.22	0.5549
2546.27	0.5531
2555.31	0.553
2564.35	0.5508
2573.39	0.5468
2582.43	0.5438
2591.47	0.5372
2600.51	0.5358
2609.56	0.5357
2618.6	0.5284
2627.64	0.5205
2636.68	0.5148
2645.72	0.5093
2654.76	0.5052
2663.8	0.5063
2672.85	0.5116
2681.89	0.5164
2690.93	0.5149
2699.97	0.514
2709.01	0.5162
2718.05	0.5119
2727.09	0.5057
2736.14	0.5074
2745.18	0.5109
2754.22	0.5029
2763.26	0.4969
2772.3	0.4874
2781.34	0.4826
2790.38	0.4779
2799.43	0.4627
2808.47	0.4465
2817.51	0.4295
2826.55	0.4163
2835.59	0.408
2844.63	0.3962
2853.67	0.3924
2862.72	0.4059
2871.76	0.4058
2880.8	0.4105
2889.84	0.3951
2898.88	0.3769
2907.92	0.3601
2916.96	0.333
2926.01	0.3185
2935.05	0.326
2944.09	0.3615
2953.13	0.3664
2962.17	0.3726
2971.21	0.3772
2980.25	0.3693
2989.3	0.3593
2998.34	0.3475
3007.38	0.3363
3016.42	0.3262
3025.46	0.3202
3034.5	0.3175
3043.54	0.3142
3052.59	0.3048
3061.63	0.2931
3070.67	0.2799
3079.71	0.2601
3088.75	0.2444
3097.79	0.2382
3106.83	0.2385
3115.88	0.2416
3124.92	0.2497
3133.96	0.2623
3143	0.2797
3152.04	0.2973
3161.08	0.3137
3170.12	0.3292
3179.17	0.3455
3188.21	0.3559
3197.25	0.3722
3206.29	0.3759
3215.33	0.3825
3224.37	0.3884
3233.41	0.3824
3242.46	0.3743
3251.5	0.3549
3260.54	0.3438
3269.58	0.3331
3278.62	0.3212
3287.66	0.3084
3296.7	0.2954
3305.75	0.2878
3314.79	0.2872
3323.83	0.2944
3332.87	0.3031
3341.91	0.3105
3350.95	0.3138
3359.99	0.3306
3369.04	0.3559
3378.08	0.3741
3387.12	0.392
3396.16	0.4114
3405.2	0.4315
3414.24	0.452
3423.28	0.4582
3432.33	0.4728
3441.37	0.493
3450.41	0.5069
3459.45	0.5186
3468.49	0.5283
3477.53	0.5369
3486.57	0.545
3495.62	0.5523
3504.66	0.5574
3513.7	0.56
3522.74	0.5622
3531.78	0.5643
3540.82	0.566
3549.86	0.5674
3558.91	0.5692
3567.95	0.5717
3576.99	0.5742
3586.03	0.5775
3595.07	0.5808
3604.11	0.5836
3613.15	0.5862
3622.2	0.5889
3631.24	0.5915
3640.28	0.5945
3649.32	0.5987
3658.36	0.6023
3667.4	0.6021
3676.44	0.5971
3685.49	0.5964
3694.53	0.5981
3703.57	0.6001
3712.61	0.6034
3721.65	0.6042
3730.69	0.6038
3739.73	0.6016
3748.78	0.5987
3757.82	0.5959
3766.86	0.5934
3775.9	0.591
3784.94	0.5885
3793.98	0.5883
3803.02	0.5903
3812.07	0.5959
3821.11	0.587
3830.15	0.5783
3839.19	0.5722
3848.23	0.5651
3857.27	0.5641
3866.31	0.571
3875.36	0.5755
3884.4	0.5764
3893.44	0.576
3902.48	0.5749
3911.52	0.5729
3920.56	0.5681
3929.6	0.5651
3938.65	0.5725
3947.69	0.5658
3956.73	0.564
3965.77	0.5641
3974.81	0.5647
3983.85	0.5657
3992.89	0.5675
4001.94	0.5729
4010.98	0.5867
