Infrared Spectrum: 2',4'-Dichloroacetanilide
Formula: C 8 H 7 Cl 2 N O
CAS: 6975-29-7
State: gas
Origin: EPA-IR VAPOR PHASE LIBRARY
1/CM	ABSORBANCE
549.8	0.0103038
559.445	0.0056238
569.09	0.0042138
578.734	0.0034838
588.379	0.0030338
598.024	0.0038838
607.669	0.0039138
617.313	0.0028438
626.958	0.0020838
636.603	0.0022438
646.248	0.0023138
655.893	0.0023438
665.537	0.0046838
675.182	0.0045538
684.827	0.0016538
694.472	0.0015538
704.116	0.0013538
713.761	0.0010838
723.406	0.0014638
733.051	0.0025938
742.695	0.0035538
752.34	0.0072338
761.985	0.0180238
771.63	0.0183138
781.275	0.0075638
790.919	0.0049338
800.564	0.0053638
810.209	0.0095038
819.854	0.0141338
829.498	0.0114638
839.143	0.0087838
848.788	0.0098638
858.433	0.0115138
868.078	0.0101438
877.722	0.0042038
887.367	0.0018138
897.012	0.0014238
906.657	0.0016638
916.301	0.0013738
925.946	0.0015538
935.591	0.0023538
945.236	0.0038338
954.88	0.0038338
964.525	0.0031338
974.17	0.0046238
983.815	0.0076838
993.46	0.0092438
1003.1	0.0057538
1012.75	0.0038338
1022.39	0.0033238
1032.04	0.0045738
1041.68	0.0087638
1051.33	0.0151438
1060.97	0.0120038
1070.62	0.0074838
1080.26	0.0061338
1089.91	0.0087238
1099.55	0.0198438
1109.2	0.0149138
1118.84	0.0050838
1128.49	0.0042038
1138.13	0.0057538
1147.78	0.0051538
1157.42	0.0036838
1167.07	0.0034438
1176.71	0.0042538
1186.36	0.0063538
1196	0.0125838
1205.64	0.0228838
1215.29	0.0355338
1224.93	0.0385138
1234.58	0.0232338
1244.22	0.0153838
1253.87	0.0133338
1263.51	0.0111938
1273.16	0.0131638
1282.8	0.0370238
1292.45	0.0823138
1302.09	0.0461038
1311.74	0.0132138
1321.38	0.0069438
1331.03	0.0054738
1340.67	0.0055438
1350.32	0.0081638
1359.96	0.0173138
1369.61	0.0346138
1379.25	0.0507738
1388.9	0.0364838
1398.54	0.0177838
1408.18	0.0123438
1417.83	0.0117338
1427.47	0.0108638
1437.12	0.0111638
1446.76	0.0159938
1456.41	0.0252938
1466.05	0.0294338
1475.7	0.0387738
1485.34	0.0850338
1494.99	0.146154
1504.63	0.158954
1514.28	0.104314
1523.92	0.0485438
1533.57	0.0221838
1543.21	0.0129238
1552.86	0.0121438
1562.5	0.0157838
1572.15	0.0285438
1581.79	0.0312438
1591.44	0.0232338
1601.08	0.0175338
1610.73	0.0077638
1620.37	0.0049638
1630.01	0.0041138
1639.66	0.0036938
1649.3	0.0036538
1658.95	0.0037038
1668.59	0.0042738
1678.24	0.0054038
1687.88	0.0072838
1697.53	0.0105738
1707.17	0.0147338
1716.82	0.0278038
1726.46	0.0683238
1736.11	0.0839338
1745.75	0.0378738
1755.4	0.0143238
1765.04	0.0107038
1774.69	0.0079338
1784.33	0.0046138
1793.98	0.0035038
1803.62	0.0026238
1813.27	0.0022138
1822.91	0.0020238
1832.55	0.0017438
1842.2	0.0015038
1851.84	0.0012238
1861.49	0.0011638
1871.13	0.0011538
1880.78	0.0014538
1890.42	0.0019838
1900.07	0.0020638
1909.71	0.0014038
1919.36	0.0008978
1929	0.0008153
1938.65	0.0006794
1948.29	0.0006661
1957.94	0.0006033
1967.58	0.0006707
1977.23	0.0007295
1986.87	0.0006929
1996.52	0.0006013
2006.16	0.0005225
2015.81	0.0003889
2025.45	0.000373
2035.1	0.0004945
2044.74	0.0004147
2054.38	0.0004075
2064.03	0.0003825
2073.67	0.0003397
2083.32	0.0004727
2092.96	0.0003986
2102.61	0.0003873
2112.25	0.0003928
2121.9	0.0005847
2131.54	0.0009311
2141.19	0.0009874
2150.83	0.0008093
2160.48	0.0007184
2170.12	0.0006371
2179.77	0.0005455
2189.41	0.0004257
2199.06	0.0006139
2208.7	0.0005497
2218.35	0.0004611
2227.99	0.0004244
2237.64	0.0004577
2247.28	0.0003181
2256.92	0.0003152
2266.57	0.0002321
2276.21	0.0003473
2285.86	0.0003152
2295.5	0.0002742
2305.15	0.0003112
2314.79	0.0004685
2324.44	0.0005592
2334.08	0.0005739
2343.73	0.000667
2353.37	0.0006655
2363.02	0.0005302
2372.66	0.0003907
2382.31	0.0003442
2391.95	0.0004097
2401.6	0.0005535
2411.24	0.0004527
2420.89	0.0005153
2430.53	0.0005321
2440.18	0.0005573
2449.82	0.0005151
2459.47	0.0004348
2469.11	0.0003902
2478.75	0.0004303
2488.4	0.0003181
2498.04	0.0003174
2507.69	0.0004277
2517.33	0.0004775
2526.98	0.0005616
2536.62	0.0004028
2546.27	0.0005132
2555.91	0.0003119
2565.56	0.0003951
2575.2	0.0004326
2584.85	0.0003695
2594.49	0.0002339
2604.14	0.0002626
2613.78	0.0002455
2623.43	0.0002582
2633.07	0.0002409
2642.72	0.0003015
2652.36	0.0003075
2662.01	0.0003414
2671.65	0.0006392
2681.29	0.0006035
2690.94	0.000474
2700.58	0.0004922
2710.23	0.0004442
2719.87	0.0005232
2729.52	0.0004874
2739.16	0.0005776
2748.81	0.0004083
2758.45	0.0004078
2768.1	0.000288
2777.74	0.0002447
2787.39	0.0003614
2797.03	0.0004963
2806.68	0.0004827
2816.32	0.0004554
2825.97	0.0004924
2835.61	0.0004653
2845.26	0.0004602
2854.9	0.0005305
2864.55	0.0006848
2874.19	0.0006806
2883.84	0.0008498
2893.48	0.000782
2903.12	0.0008202
2912.77	0.0009441
2922.41	0.0012038
2932.06	0.0018338
2941.7	0.0022538
2951.35	0.0017838
2960.99	0.0013738
2970.64	0.0012238
2980.28	0.0011738
2989.93	0.0012138
2999.57	0.0011138
3009.22	0.0013538
3018.86	0.0013938
3028.51	0.0017038
3038.15	0.0018138
3047.8	0.0016638
3057.44	0.0013438
3067.09	0.0012538
3076.73	0.0012938
3086.38	0.0012638
3096.02	0.0013338
3105.67	0.0016538
3115.31	0.0020538
3124.95	0.0016338
3134.6	0.0007475
3144.24	0.0004595
3153.89	0.0005229
3163.53	0.0004189
3173.18	0.0003643
3182.82	0.000535
3192.47	0.0005323
3202.11	0.0002789
3211.76	0.0002196
3221.4	0.0002152
3231.05	0.0002867
3240.69	0.0003247
3250.34	0.0003987
3259.98	0.00016731
3269.63	0.0001791
3279.27	0.0002189
3288.92	4.91e-05
3298.56	0.00010777
3308.21	0.00011448
3317.85	4.89e-05
3327.49	0.00011656
3337.14	0.0003467
3346.78	0.0002798
3356.43	0.0002359
3366.07	0.0004323
3375.72	0.0005427
3385.36	0.000863
3395.01	0.0012238
3404.65	0.0019338
3414.3	0.0027138
3423.94	0.0045238
3433.59	0.0103538
3443.23	0.0189638
3452.88	0.0135238
3462.52	0.0039438
3472.17	0.0016238
3481.81	0.0010735
3491.46	0.0006748
3501.1	0.0004993
3510.75	0.00048
3520.39	0.0003234
3530.04	0.0001954
3539.68	0.000275
3549.32	0.0003152
3558.97	0.0002676
3568.61	0.0002642
3578.26	0.0003247
3587.9	9.863e-05
3597.55	0.0001966
3607.19	6.955e-05
3616.84	0.0003632
3626.48	0.00010102
3636.13	9.643e-05
3645.77	0.0002579
3655.42	0.00010398
3665.06	0.00016467
3674.71	5.95e-05
3684.35	0.00015147
3694	0.00012713
3703.64	9.797e-05
3713.29	0.0003444
3722.93	0.0001723
3732.58	7.46205e-05
3742.22	0.0002118
3751.86	0.00014815
3761.51	0.0001988
3771.15	0.0002947
3780.8	0.0002477
3790.44	0.0002656
3800.09	0.00013795
3809.73	0.0002695
3819.38	0.00011065
3829.02	0.0001375
3838.67	0.0001842
3848.31	0.0002313
3857.96	0.0002466
3867.6	0.0002767
3877.25	0.00010538
3886.89	0.0003141
3896.54	0.0004345
3906.18	0.0003994
3915.83	0.00010857
3925.47	0.0003369
3935.12	0.0003701
3944.76	0.0005261
3954.41	0.0001986
3964.05	0.0002928
3973.69	0.0003396
3983.34	1.19e-05
3992.98	6.27e-05
