Infrared Spectrum: HYPOXANTHINE, 9-(2-HYDROXYCYCLOHEXYL)-, TRANS
Formula: C11 H14 N4 O2
CAS: 6975-27-5
State: SOLID (1 mg / 650 mg, KBr DISC)
Class: COBLENTZ III
Instrument: PERKIN-ELMER 21 (GRATING)
Instrument parameters: FILTER CHANGE AT ABOUT 1090 CM^-^1
Sampling: TRANSMISSION
Resolution: 2
Origin: SOUTHERN RESEARCH INSTITUTE
1/CM	TRANSMITTANCE
607.714	0.765
616.656	0.7621
625.597	0.7482
634.539	0.737
643.48	0.7417
652.422	0.6446
661.364	0.5664
670.305	0.6809
679.247	0.7868
688.188	0.789
697.13	0.7659
706.072	0.7715
715.013	0.6403
723.955	0.7898
732.896	0.824
741.838	0.8213
750.78	0.8111
759.721	0.7948
768.663	0.7546
777.604	0.6733
786.546	0.7749
795.488	0.5789
804.429	0.7169
813.371	0.8219
822.312	0.8181
831.254	0.8064
840.196	0.795
849.137	0.7601
858.079	0.7198
867.02	0.6975
875.962	0.6138
884.904	0.6922
893.845	0.6036
902.787	0.621
911.728	0.5661
920.67	0.6397
929.612	0.5529
938.553	0.5848
947.495	0.7061
956.436	0.5394
965.378	0.6953
974.32	0.7636
983.261	0.7314
992.203	0.7552
1001.14	0.7802
1010.09	0.808
1019.03	0.806
1027.97	0.7973
1036.91	0.7717
1045.85	0.7071
1054.79	0.69
1063.74	0.7277
1072.68	0.6407
1081.62	0.3408
1090.56	0.4767
1099.5	0.671
1108.44	0.74
1117.39	0.5188
1126.33	0.6355
1135.27	0.6034
1144.21	0.5647
1153.15	0.6757
1162.09	0.5703
1171.03	0.7172
1179.98	0.7571
1188.92	0.7456
1197.86	0.6159
1206.8	0.632
1215.74	0.4819
1224.68	0.4116
1233.63	0.5102
1242.57	0.4521
1251.51	0.5705
1260.45	0.7274
1269.39	0.7094
1278.33	0.7646
1287.28	0.7459
1296.22	0.682
1305.16	0.6228
1314.1	0.6153
1323.04	0.7068
1331.98	0.7096
1340.93	0.6077
1349.87	0.5566
1358.81	0.3889
1367.75	0.5452
1376.69	0.6787
1385.63	0.5348
1394.58	0.6725
1403.52	0.6407
1412.46	0.5983
1421.4	0.3936
1430.34	0.4717
1439.28	0.6902
1448.22	0.7375
1457.17	0.5562
1466.11	0.6368
1475.05	0.5937
1483.99	0.4999
1492.93	0.5769
1501.87	0.7035
1510.82	0.7485
1519.76	0.7069
1528.7	0.5794
1537.64	0.6518
1546.58	0.5735
1555.52	0.4066
1564.47	0.7154
1573.41	0.6957
1582.35	0.6672
1591.29	0.3924
1600.23	0.2347
1609.17	0.5025
1618.12	0.667
1627.06	0.6453
1636	0.6064
1644.94	0.548
1653.88	0.4758
1662.82	0.3548
1671.76	0.1855
1680.71	0.1042
1689.65	0.1069
1698.59	0.1458
1707.53	0.2619
1716.47	0.3969
1725.41	0.4429
1734.36	0.5819
1743.3	0.6652
1752.24	0.6922
1761.18	0.7105
1770.12	0.7162
1779.06	0.7271
1788.01	0.7355
1796.95	0.7862
1805.89	0.801
1814.83	0.799
1823.77	0.7951
1832.71	0.791
1841.66	0.7833
1850.6	0.781
1859.54	0.7857
1868.48	0.7934
1877.42	0.8073
1886.36	0.813
1895.3	0.813
1904.25	0.812
1913.19	0.812
1922.13	0.812
1931.07	0.808
1940.01	0.7997
1948.95	0.795
1957.9	0.7942
1966.84	0.7962
1975.78	0.8013
1984.72	0.8081
1993.66	0.815
2002.6	0.822
2011.55	0.831
2020.49	0.826
2029.43	0.8331
2038.37	0.838
2047.31	0.842
2056.25	0.843
2065.2	0.843
2074.14	0.8471
2083.08	0.8489
2092.02	0.843
2100.96	0.845
2109.9	0.85
2118.84	0.8489
2127.79	0.841
2136.73	0.838
2145.67	0.8411
2154.61	0.843
2163.55	0.843
2172.49	0.843
2181.44	0.843
2190.38	0.842
2199.32	0.838
2208.26	0.84
2217.2	0.84
2226.14	0.842
2235.09	0.84
2244.03	0.836
2252.97	0.831
2261.91	0.828
2270.85	0.822
2279.79	0.817
2288.74	0.814
2297.68	0.812
2306.62	0.8079
2315.56	0.8029
2324.5	0.799
2333.44	0.796
2342.38	0.791
2351.33	0.787
2360.27	0.78
2369.21	0.774
2378.15	0.769
2387.09	0.76
2396.03	0.754
2404.98	0.7459
2413.92	0.741
2422.86	0.7359
2431.8	0.728
2440.74	0.7209
2449.68	0.708
2458.63	0.696
2467.57	0.677
2476.51	0.6699
2485.45	0.6609
2494.39	0.649
2503.33	0.6389
2512.28	0.626
2521.22	0.616
2530.16	0.607
2539.1	0.599
2548.04	0.5919
2556.98	0.5799
2565.92	0.563
2574.87	0.5509
2583.81	0.5419
2592.75	0.5229
2601.69	0.507
2610.63	0.506
2619.57	0.51
2628.52	0.508
2637.46	0.503
2646.4	0.498
2655.34	0.497
2664.28	0.492
2673.22	0.491
2682.17	0.489
2691.11	0.487
2700.05	0.483
2708.99	0.476
2717.93	0.4679
2726.87	0.461
2735.82	0.459
2744.76	0.451
2753.7	0.4449
2762.64	0.438
2771.58	0.433
2780.52	0.432
2789.46	0.436
2798.41	0.443
2807.35	0.446
2816.29	0.4359
2825.23	0.4239
2834.17	0.4039
2843.11	0.395
2852.06	0.4051
2861	0.4321
2869.94	0.4562
2878.88	0.4801
2887.82	0.501
2896.76	0.4969
2905.71	0.4728
2914.65	0.4417
2923.59	0.3929
2932.53	0.39
2941.47	0.4132
2950.41	0.4683
2959.36	0.5313
2968.3	0.5812
2977.24	0.603
2986.18	0.607
2995.12	0.604
3004.06	0.608
3013.01	0.607
3021.95	0.5938
3030.89	0.5709
3039.83	0.5599
3048.77	0.5329
3057.71	0.523
3066.65	0.5435
3075.6	0.5861
3084.54	0.593
3093.48	0.5658
3102.42	0.5258
3111.36	0.5262
3120.3	0.5843
3129.25	0.6244
3138.19	0.662
3147.13	0.663
3156.07	0.659
3165.01	0.656
3173.95	0.653
3182.9	0.648
3191.84	0.64
3200.78	0.6289
3209.72	0.6149
3218.66	0.6029
3227.6	0.589
3236.55	0.576
3245.49	0.5619
3254.43	0.5389
3263.37	0.5189
3272.31	0.5069
3281.25	0.4909
3290.19	0.4698
3299.14	0.4519
3308.08	0.4329
3317.02	0.3947
3325.96	0.3649
3334.9	0.336
3343.84	0.3189
3352.79	0.2858
3361.73	0.2677
3370.67	0.2529
3379.61	0.2571
3388.55	0.2801
3397.49	0.304
3406.44	0.312
3415.38	0.315
3424.32	0.341
3433.26	0.3562
3442.2	0.381
3451.14	0.3971
3460.09	0.414
3469.03	0.4291
3477.97	0.4432
3486.91	0.475
3495.85	0.4911
3504.79	0.5191
3513.73	0.5331
3522.68	0.551
3531.62	0.5741
3540.56	0.5881
3549.5	0.6011
3558.44	0.6171
3567.38	0.6302
3576.33	0.6581
3585.27	0.672
3594.21	0.689
3603.15	0.702
3612.09	0.7251
3621.03	0.7391
3629.98	0.7621
3638.92	0.785
3647.86	0.7951
3656.8	0.806
3665.74	0.817
3674.68	0.8281
3683.63	0.837
3692.57	0.843
3701.51	0.852
3710.45	0.856
3719.39	0.856
3728.33	0.855
3737.27	0.855
3746.22	0.8651
3755.16	0.87
3764.1	0.868
3773.04	0.867
3781.98	0.869
3790.92	0.865
3799.87	0.861
3808.81	0.863
3817.75	0.864
3826.69	0.864
3835.63	0.865
3844.57	0.865
3853.52	0.867
3862.46	0.867
3871.4	0.867
3880.34	0.865
3889.28	0.865
3898.22	0.861
3907.17	0.854
