Infrared Spectrum: 2-Methyldecane
Formula: C 11 H 24
CAS: 6975-98-0
State: gas
Instrument: HP-GC/MS/IRD
Origin: NIST Mass Spectrometry Data Center
1/CM	ABSORBANCE
550	0.0001856
562	0.0001088
574	7.04e-05
586	0.000128
598	2.56e-05
610	0.000192
622	0.000192
634	0.0001536
646	0.000128
658	0.0001728
670	0.0001664
682	0.00032
694	0.0004416
706	0.00064
718	0.0008704
730	0.0008576
742	0.0006784
754	0.0006272
766	0.0004928
778	0.0004416
790	0.0004032
802	0.0003968
814	0.0003968
826	0.000384
838	0.00032
850	0.0003008
862	0.0003136
874	0.0003392
886	0.000384
898	0.0004416
910	0.0004928
922	0.0005504
934	0.0005248
946	0.0004928
958	0.0003904
970	0.0003648
982	0.00032
994	0.0003264
1006	0.00032
1018	0.00032
1030	0.0003136
1042	0.0003008
1054	0.0003072
1066	0.0003392
1078	0.0004032
1090	0.0003776
1102	0.000352
1114	0.0003584
1126	0.0003776
1138	0.00048
1150	0.0005568
1162	0.0009216
1174	0.000928
1186	0.000544
1198	0.0004416
1210	0.0004096
1222	0.000416
1234	0.0004864
1246	0.0005312
1258	0.0006016
1270	0.0006848
1282	0.0007808
1294	0.000928
1306	0.0010816
1318	0.0011648
1330	0.0014912
1342	0.00192
1354	0.0023296
1366	0.0030144
1378	0.0034432
1390	0.0032512
1402	0.0015296
1414	0.0011712
1426	0.0013248
1438	0.0022464
1450	0.004224
1462	0.00624
1474	0.0052096
1486	0.0024768
1498	0.0012352
1510	0.000736
1522	0.000512
1534	0.0003584
1546	0.0002944
1558	0.0002368
1570	0.0002048
1582	0.0002112
1594	0.0002048
1606	0.000224
1618	0.0001536
1630	0.0001856
1642	0.0001728
1654	0.00016
1666	0.0001536
1678	0.0001408
1690	0.0001344
1702	0.0001088
1714	0.0001024
1726	8.32e-05
1738	8.96e-05
1750	7.04e-05
1762	5.76e-05
1774	3.84e-05
1786	5.76e-05
1798	7.68e-05
1810	5.12e-05
1822	7.68e-05
1834	6.4e-05
1846	4.48e-05
1858	4.48e-05
1870	4.48e-05
1882	3.2e-05
1894	3.2e-05
1906	3.2e-05
1918	2.56e-05
1930	6.4e-06
1942	3.84e-05
1954	1.92e-05
1966	1.92e-05
1978	6.4e-06
1990	1.28e-05
2002	6.4e-06
2014	5.12e-05
2026	5.12e-05
2038	5.12e-05
2050	4.48e-05
2062	5.12e-05
2074	3.2e-05
2086	3.2e-05
2098	2.56e-05
2110	4.48e-05
2122	1.92e-05
2134	1.92e-05
2146	5.12e-05
2158	4.48e-05
2170	2.56e-05
2182	5.12e-05
2194	6.4e-05
2206	4.48e-05
2218	3.84e-05
2230	3.84e-05
2242	3.2e-05
2254	5.12e-05
2266	7.04e-05
2278	8.96e-05
2290	7.04e-05
2302	7.04e-05
2314	6.4e-05
2326	7.04e-05
2338	7.68e-05
2350	8.96e-05
2362	8.32e-05
2374	9.6e-05
2386	9.6e-05
2398	0.0001024
2410	0.0001216
2422	0.0001024
2434	0.0001216
2446	8.96e-05
2458	0.0001152
2470	0.0001088
2482	0.0001152
2494	0.0001536
2506	0.0001728
2518	0.0001472
2530	0.0002112
2542	0.0002368
2554	0.0002816
2566	0.0003072
2578	0.0003392
2590	0.0004096
2602	0.0004416
2614	0.00048
2626	0.0005376
2638	0.000576
2650	0.0005952
2662	0.0006528
2674	0.0006976
2686	0.0007552
2698	0.000736
2710	0.0007744
2722	0.0008832
2734	0.0010304
2746	0.0010624
2758	0.0011008
2770	0.0012416
2782	0.0014464
2794	0.0018368
2806	0.002336
2818	0.003136
2830	0.0045312
2842	0.008064
2854	0.0171648
2866	0.0240192
2878	0.0236608
2890	0.0216384
2902	0.0248768
2914	0.0365824
2926	0.0578624
2938	0.0606016
2950	0.0430528
2962	0.0453696
2974	0.0314304
2986	0.0117824
2998	0.0058176
3010	0.0036096
3022	0.0025664
3034	0.0019584
3046	0.0016256
3058	0.0013632
3070	0.0012032
3082	0.0011072
3094	0.0009664
3106	0.000896
3118	0.000768
3130	0.0006912
3142	0.0006848
3154	0.0006592
3166	0.0006272
3178	0.0005888
3190	0.000544
3202	0.0004288
3214	0.0003648
3226	0.0002816
3238	0.0002112
3250	0.0001792
3262	0.00016
3274	0.0001792
3286	0.0001536
3298	0.00016
3310	0.0001792
3322	0.0001472
3334	0.0001664
3346	0.0001344
3358	0.0001792
3370	0.0001536
3382	0.0001344
3394	0.0001472
3406	0.0001216
3418	0.0001024
3430	0.0001216
3442	8.32e-05
3454	5.12e-05
3466	3.84e-05
3478	6.4e-05
3490	5.12e-05
3502	8.32e-05
3514	3.84e-05
3526	5.12e-05
3538	5.12e-05
3550	3.2e-05
3562	7.68e-05
3574	3.84e-05
3586	0.0001088
3598	7.68e-05
3610	7.04e-05
3622	0.0001344
3634	0.0001152
3646	0.0001408
3658	0.0001024
3670	0.0001024
3682	0.0001152
3694	6.4e-05
3706	0.000128
3718	0.0001536
3730	0.0001408
3742	0.0001536
3754	0.0001088
3766	0.0001344
3778	0.0001344
3790	0.0001728
3802	0.0001984
3814	0.0002304
3826	0.000224
3838	0.0002048
