Infrared Spectrum: 2,5-Dimethyl-1-hexene
Formula: C 8 H 16
CAS: 6975-92-4
State: gas
Instrument: HP-GC/MS/IRD
Origin: NIST Mass Spectrometry Data Center
1/CM	ABSORBANCE
550	0.000596
562	0.000612
574	0.00032
586	0.000124
598	1.2e-05
610	0.00022
622	0.000112
634	7.2e-05
646	6.4e-05
658	5.6e-05
670	6.4e-05
682	0.000152
694	0.000108
706	0.000152
718	0.00018
730	0.000132
742	0.000252
754	0.000344
766	0.000348
778	0.00028
790	0.000272
802	0.000268
814	0.000324
826	0.000416
838	0.000592
850	0.000988
862	0.00196
874	0.0051
886	0.009668
898	0.007988
910	0.003404
922	0.001644
934	0.001044
946	0.000748
958	0.000656
970	0.000512
982	0.000424
994	0.000492
1006	0.000576
1018	0.000524
1030	0.000392
1042	0.00034
1054	0.0003
1066	0.000312
1078	0.000416
1090	0.00042
1102	0.000652
1114	0.00084
1126	0.00072
1138	0.000592
1150	0.000744
1162	0.001328
1174	0.00122
1186	0.000684
1198	0.000696
1210	0.000804
1222	0.000876
1234	0.000924
1246	0.000976
1258	0.001024
1270	0.001196
1282	0.001284
1294	0.001164
1306	0.0011
1318	0.001288
1330	0.001644
1342	0.001748
1354	0.002364
1366	0.004056
1378	0.005884
1390	0.00502
1402	0.002688
1414	0.002028
1426	0.002564
1438	0.00384
1450	0.0058
1462	0.006572
1474	0.005108
1486	0.002796
1498	0.001392
1510	0.00062
1522	0.000472
1534	0.000492
1546	0.000408
1558	0.000396
1570	0.000616
1582	0.000744
1594	0.000788
1606	0.001
1618	0.001456
1630	0.002612
1642	0.00412
1654	0.003764
1666	0.001952
1678	0.000768
1690	0.000444
1702	0.000244
1714	0.000148
1726	0.000184
1738	0.000108
1750	0.0001
1762	0.000296
1774	0.000544
1786	0.000676
1798	0.000488
1810	0.000296
1822	0.000156
1834	0.000144
1846	8e-05
1858	0.000132
1870	9.6e-05
1882	0.00014
1894	9.6e-05
1906	0.000104
1918	7.2e-05
1930	0.000128
1942	8.4e-05
1954	9.2e-05
1966	8.4e-05
1978	0.000116
1990	0.0001
2002	8.8e-05
2014	8.8e-05
2026	7.6e-05
2038	8.8e-05
2050	0.000104
2062	0.0001
2074	0.000112
2086	0.000116
2098	0.000104
2110	0.000116
2122	0.000112
2134	0.000112
2146	0.000104
2158	0.000104
2170	0.00012
2182	9.6e-05
2194	0.000124
2206	0.000104
2218	0.000108
2230	0.000108
2242	0.000108
2254	0.000116
2266	0.000128
2278	0.0001
2290	0.000112
2302	6e-05
2314	1.6e-05
2326	1.2e-05
2338	2e-05
2350	4e-05
2362	1.2e-05
2374	1.6e-05
2386	0.000128
2398	0.000156
2410	0.000152
2422	0.000148
2434	0.000152
2446	0.000176
2458	0.000156
2470	0.000176
2482	0.000204
2494	0.000216
2506	0.000208
2518	0.000188
2530	0.000196
2542	0.000236
2554	0.000264
2566	0.00026
2578	0.000288
2590	0.000352
2602	0.000376
2614	0.000356
2626	0.000424
2638	0.00046
2650	0.000464
2662	0.000472
2674	0.000488
2686	0.000532
2698	0.000596
2710	0.000688
2722	0.00084
2734	0.001008
2746	0.001012
2758	0.00098
2770	0.00104
2782	0.001168
2794	0.001412
2806	0.001796
2818	0.002332
2830	0.003308
2842	0.005272
2854	0.008404
2866	0.012316
2878	0.015788
2890	0.016584
2902	0.018396
2914	0.023864
2926	0.029236
2938	0.031188
2950	0.032496
2962	0.04
2974	0.032352
2986	0.014832
2998	0.007084
3010	0.004244
3022	0.002904
3034	0.00234
3046	0.002272
3058	0.00304
3070	0.005376
3082	0.006628
3094	0.003976
3106	0.001744
3118	0.001172
3130	0.000936
3142	0.000764
3154	0.000708
3166	0.00066
3178	0.00066
3190	0.000572
3202	0.000488
3214	0.000364
3226	0.000308
3238	0.000248
3250	0.000208
3262	0.00022
3274	0.000252
3286	0.000244
3298	0.000268
3310	0.000248
3322	0.000296
3334	0.000276
3346	0.000252
3358	0.000252
3370	0.000272
3382	0.000228
3394	0.000184
3406	0.000176
3418	0.000188
3430	0.000172
3442	0.000136
3454	0.000124
3466	0.000156
3478	0.000156
3490	0.000152
3502	0.000116
3514	0.000152
3526	8.4e-05
3538	0.000132
3550	0.00014
3562	8e-05
3574	0.00014
3586	3.6e-05
3598	0.00012
3610	4.8e-05
3622	0.000132
3634	0.00018
3646	0.000108
3658	0.000176
3670	0.000168
3682	0.00026
3694	0.000268
3706	0.000244
3718	0.000176
3730	0.000152
3742	0.000144
3754	0.000232
3766	0.000292
3778	0.000288
3790	0.000348
3802	0.000312
3814	0.000332
3826	0.000344
3838	0.000316
