Infrared Spectrum: 1-Methylpentyl cyclopropane
Formula: C 9 H 18
CAS: 6976-28-9
State: gas
Instrument: HP-GC/MS/IRD
Origin: NIST Mass Spectrometry Data Center
1/CM	ABSORBANCE
550	0.0001775
562	1.5e-05
574	9.5e-05
586	0.000175
598	0.000175
610	0.00023
622	8.5e-05
634	0.0001825
646	0.0002425
658	0.00027
670	0.00017
682	0.000205
694	0.0002325
706	0.0004225
718	0.000535
730	0.0005375
742	0.0004775
754	0.000455
766	0.0004225
778	0.00039
790	0.0004625
802	0.0008525
814	0.0019525
826	0.0017825
838	0.000845
850	0.000655
862	0.0009075
874	0.0012825
886	0.0013075
898	0.0012275
910	0.0011225
922	0.0010525
934	0.0010175
946	0.000975
958	0.0007
970	0.00061
982	0.00074
994	0.0009425
1006	0.002085
1018	0.003355
1030	0.0021425
1042	0.001405
1054	0.0009775
1066	0.000655
1078	0.000555
1090	0.0005075
1102	0.0005475
1114	0.000625
1126	0.000665
1138	0.000705
1150	0.0006625
1162	0.0005975
1174	0.0005925
1186	0.0005175
1198	0.000445
1210	0.0004325
1222	0.0004625
1234	0.0004125
1246	0.00046
1258	0.0004375
1270	0.000585
1282	0.00086
1294	0.0010025
1306	0.0009425
1318	0.000875
1330	0.00089
1342	0.001025
1354	0.0010775
1366	0.001545
1378	0.00238
1390	0.002105
1402	0.0010375
1414	0.000815
1426	0.001085
1438	0.0016525
1450	0.0028375
1462	0.00386
1474	0.0028725
1486	0.0013375
1498	0.00068
1510	0.000445
1522	0.000345
1534	0.0002725
1546	0.0002275
1558	0.0001775
1570	0.0001825
1582	0.0002025
1594	0.0002
1606	0.00016
1618	0.0001825
1630	0.000195
1642	0.0001775
1654	0.0001525
1666	0.000155
1678	0.0001375
1690	0.0001375
1702	0.0001125
1714	0.000105
1726	0.000115
1738	0.00013
1750	0.0001275
1762	0.0001175
1774	0.0001375
1786	0.000155
1798	0.000145
1810	0.0001575
1822	0.00014
1834	0.0001375
1846	0.000135
1858	0.0001375
1870	0.00012
1882	0.0001475
1894	0.000165
1906	0.0001875
1918	0.0002225
1930	0.00018
1942	0.0001475
1954	0.00014
1966	0.000105
1978	9.5e-05
1990	9e-05
2002	7.75e-05
2014	8.25e-05
2026	0.0001425
2038	0.00017
2050	0.0002425
2062	0.0002375
2074	0.0001675
2086	0.0001575
2098	0.000105
2110	8e-05
2122	6.75e-05
2134	7e-05
2146	4.75e-05
2158	5.25e-05
2170	6.5e-05
2182	5e-05
2194	6.5e-05
2206	6.5e-05
2218	5.75e-05
2230	5.5e-05
2242	7e-05
2254	5.5e-05
2266	5.75e-05
2278	3e-05
2290	2.5e-05
2302	2.75e-05
2314	3.25e-05
2326	4.25e-05
2338	4e-05
2350	6e-05
2362	5e-05
2374	5.5e-05
2386	7.5e-05
2398	7.75e-05
2410	7.75e-05
2422	5.75e-05
2434	8.25e-05
2446	7.25e-05
2458	0.0001025
2470	0.0001275
2482	0.0001275
2494	8.5e-05
2506	7.75e-05
2518	0.0001
2530	8.5e-05
2542	9.75e-05
2554	0.0001175
2566	0.000135
2578	0.0001925
2590	0.000195
2602	0.0002025
2614	0.00018
2626	0.000215
2638	0.0002775
2650	0.0002625
2662	0.000315
2674	0.00031
2686	0.000295
2698	0.0003375
2710	0.000345
2722	0.00038
2734	0.000495
2746	0.0005325
2758	0.0005325
2770	0.000575
2782	0.000665
2794	0.000815
2806	0.001065
2818	0.0014275
2830	0.0019975
2842	0.003455
2854	0.0066275
2866	0.0106625
2878	0.01315
2890	0.01192
2902	0.01168
2914	0.016055
2926	0.0216475
2938	0.0228775
2950	0.01964
2962	0.0239075
2974	0.0213
2986	0.0101975
2998	0.0087825
3010	0.00852
3022	0.0053325
3034	0.002605
3046	0.00166
3058	0.0018
3070	0.0038825
3082	0.006385
3094	0.00341
3106	0.0011625
3118	0.00066
3130	0.00052
3142	0.0004675
3154	0.0004025
3166	0.0004325
3178	0.0003625
3190	0.0003425
3202	0.0002575
3214	0.0002
3226	0.0001925
3238	0.000155
3250	0.0001125
3262	0.0001325
3274	7e-05
3286	9e-05
3298	6.25e-05
3310	8.75e-05
3322	3.75e-05
3334	3.5e-05
3346	6.75e-05
3358	9.25e-05
3370	0.00012
3382	3.5e-05
3394	3.75e-05
3406	7.25e-05
3418	6.75e-05
3430	1e-05
3442	7.25e-05
3454	7e-05
3466	7e-05
3478	3e-05
3490	2e-05
3502	5.75e-05
3514	2.5e-05
3526	3e-05
3538	2.5e-06
3550	3.75e-05
3562	8.5e-05
3574	7.25e-05
3586	2.5e-05
3598	4.25e-05
3610	5e-05
3622	6e-05
3634	7.25e-05
3646	4.75e-05
3658	8.75e-05
3670	8.25e-05
3682	6.25e-05
3694	6e-05
3706	5.75e-05
3718	4.75e-05
3730	6.25e-05
3742	9e-05
3754	6.75e-05
3766	5.5e-05
3778	7e-05
3790	8.25e-05
3802	7e-05
3814	0.0001575
3826	0.00012
3838	0.0001425
