Infrared Spectrum: (1,2-Dimethylpropyl)cyclopropane
Formula: C 8 H 16
CAS: 6976-27-8
State: gas
Instrument: HP-GC/MS/IRD
Origin: NIST Mass Spectrometry Data Center
1/CM	ABSORBANCE
550	0.0001218
562	0.0001176
574	0.0001848
586	3.99e-05
598	0.0001008
610	5.46e-05
622	5.46e-05
634	2.73e-05
646	1.47e-05
658	5.46e-05
670	5.25e-05
682	4.2e-06
694	5.46e-05
706	0.0001155
718	5.88e-05
730	0.0001029
742	8.82e-05
754	0.000105
766	9.87e-05
778	0.0001953
790	0.0002898
802	0.000651
814	0.0012726
826	0.0012915
838	0.0006636
850	0.0002457
862	0.0002016
874	0.000336
886	0.0006867
898	0.0009954
910	0.000924
922	0.0008106
934	0.0008505
946	0.0008421
958	0.0005586
970	0.000399
982	0.000504
994	0.000714
1006	0.0016884
1018	0.002751
1030	0.0022302
1042	0.0012663
1054	0.0008064
1066	0.0004788
1078	0.0004284
1090	0.0006279
1102	0.0009765
1114	0.0011172
1126	0.000756
1138	0.0004809
1150	0.0004578
1162	0.0004137
1174	0.000399
1186	0.00042
1198	0.0003549
1210	0.0002478
1222	0.0002184
1234	0.0001932
1246	0.0002394
1258	0.0003759
1270	0.0004725
1282	0.0004998
1294	0.0004326
1306	0.0003633
1318	0.0003717
1330	0.0004536
1342	0.0005271
1354	0.0009387
1366	0.0020475
1378	0.0029862
1390	0.0025956
1402	0.001218
1414	0.0006027
1426	0.0007833
1438	0.001197
1450	0.0020076
1462	0.0028161
1474	0.0024381
1486	0.0013062
1498	0.0005397
1510	0.0002856
1522	0.0001995
1534	0.0001449
1546	0.0001302
1558	0.0001092
1570	9.87e-05
1582	0.0001113
1594	7.98e-05
1606	9.24e-05
1618	9.03e-05
1630	7.56e-05
1642	0.0001092
1654	0.0001029
1666	9.66e-05
1678	6.93e-05
1690	7.35e-05
1702	7.35e-05
1714	7.14e-05
1726	5.04e-05
1738	2.94e-05
1750	7.14e-05
1762	6.93e-05
1774	7.56e-05
1786	7.56e-05
1798	0.0001155
1810	0.0001134
1822	8.61e-05
1834	9.66e-05
1846	0.0001113
1858	9.24e-05
1870	9.03e-05
1882	7.56e-05
1894	9.24e-05
1906	0.0001134
1918	0.0001407
1930	0.000147
1942	0.0001176
1954	7.98e-05
1966	5.46e-05
1978	4.83e-05
1990	3.78e-05
2002	4.83e-05
2014	3.78e-05
2026	8.4e-05
2038	0.0001092
2050	0.0001344
2062	0.0001491
2074	0.0001344
2086	0.0001008
2098	7.14e-05
2110	2.1e-05
2122	2.52e-05
2134	2.94e-05
2146	3.36e-05
2158	1.89e-05
2170	1.26e-05
2182	1.89e-05
2194	3.57e-05
2206	1.89e-05
2218	2.52e-05
2230	1.89e-05
2242	1.89e-05
2254	2.73e-05
2266	3.57e-05
2278	4.2e-05
2290	1.05e-05
2302	0
2314	1.05e-05
2326	0
2338	0
2350	3.78e-05
2362	1.68e-05
2374	3.15e-05
2386	3.36e-05
2398	4.2e-05
2410	2.52e-05
2422	3.15e-05
2434	5.67e-05
2446	2.94e-05
2458	7.35e-05
2470	8.4e-05
2482	8.82e-05
2494	6.51e-05
2506	3.15e-05
2518	1.26e-05
2530	5.67e-05
2542	4.41e-05
2554	9.66e-05
2566	0.0001092
2578	0.0001344
2590	0.0001533
2602	0.0001575
2614	0.0002037
2626	0.000189
2638	0.0002163
2650	0.00021
2662	0.0002016
2674	0.0001743
2686	0.0001785
2698	0.0001869
2710	0.0002016
2722	0.0002919
2734	0.0003423
2746	0.0003549
2758	0.0003423
2770	0.0003213
2782	0.0003675
2794	0.0004179
2806	0.000525
2818	0.0007098
2830	0.0008841
2842	0.0013272
2854	0.002541
2866	0.0056007
2878	0.0095508
2890	0.0097797
2902	0.0073668
2914	0.0063819
2926	0.0074802
2938	0.0093408
2950	0.0128541
2962	0.0198933
2974	0.0191394
2986	0.0110586
2998	0.0073752
3010	0.0065961
3022	0.0044331
3034	0.0020181
3046	0.0011424
3058	0.0014007
3070	0.0031458
3082	0.0047649
3094	0.0027762
3106	0.0009639
3118	0.0005166
3130	0.0004032
3142	0.0004368
3154	0.000399
3166	0.0004074
3178	0.0003339
3190	0.0003024
3202	0.000252
3214	0.0001743
3226	0.0001638
3238	0.000105
3250	0.0001134
3262	6.93e-05
3274	6.3e-05
3286	3.57e-05
3298	5.46e-05
3310	6.72e-05
3322	9.45e-05
3334	3.57e-05
3346	6.72e-05
3358	6.93e-05
3370	6.93e-05
3382	3.36e-05
3394	5.88e-05
3406	7.14e-05
3418	6.51e-05
3430	7.56e-05
3442	2.1e-05
3454	6.3e-05
3466	4.83e-05
3478	3.36e-05
3490	3.36e-05
3502	6.93e-05
3514	6.3e-05
3526	4.62e-05
3538	2.1e-05
3550	3.36e-05
3562	6.3e-06
3574	4.83e-05
3586	2.73e-05
3598	1.89e-05
3610	4.62e-05
3622	3.36e-05
3634	3.57e-05
3646	3.36e-05
3658	4.62e-05
3670	3.99e-05
3682	3.36e-05
3694	2.94e-05
3706	2.52e-05
3718	1.05e-05
3730	6.3e-05
3742	6.09e-05
3754	2.1e-05
3766	3.99e-05
3778	7.14e-05
3790	6.72e-05
3802	9.66e-05
3814	0.0001092
3826	0.0001617
3838	0.0001134
