Infrared Spectrum: N-METHYL-o-BROMOBENZYLAMINE
Formula: C8 H10 Br N
CAS: 698-19-1
Class: COBLENTZ
Instrument: PERKIN-ELMER
Sampling: TRANSMISSION
Path length: CAPILLARY
Resolution: 4
Origin: ABBOTT LABORATORIES - WASHBURN
MICROMETERS	TRANSMITTANCE
2.414	0.865
2.44698	0.87
2.47996	0.87
2.51294	0.871
2.54592	0.873
2.5789	0.875
2.61188	0.878
2.64486	0.88
2.67784	0.873
2.71082	0.8781
2.7438	0.8779
2.77678	0.876
2.80976	0.875
2.84274	0.871
2.87572	0.865
2.9087	0.8651
2.94168	0.8531
2.97466	0.8166
3.00764	0.7932
3.04062	0.7929
3.0736	0.8194
3.10658	0.84
3.13956	0.8479
3.17254	0.853
3.20552	0.8452
3.2385	0.7919
3.27148	0.7736
3.30446	0.7912
3.33744	0.7381
3.37042	0.6314
3.4034	0.5807
3.43638	0.5891
3.46936	0.5951
3.50234	0.5699
3.53532	0.6473
3.5683	0.5994
3.60128	0.7026
3.63426	0.8112
3.66724	0.8448
3.70022	0.8527
3.7332	0.8482
3.76618	0.8595
3.79916	0.865
3.83214	0.865
3.86512	0.866
3.8981	0.87
3.93108	0.871
3.96406	0.873
3.99704	0.883
4.03002	0.875
4.063	0.883
4.09598	0.88
4.12896	0.881
4.16194	0.883
4.19492	0.876
4.2279	0.876
4.26088	0.881
4.29386	0.88
4.32684	0.885
4.35982	0.883
4.3928	0.886
4.42578	0.888
4.45876	0.888
4.49174	0.886
4.52472	0.885
4.5577	0.888
4.59068	0.89
4.62366	0.891
4.65664	0.89
4.68962	0.8897
4.7226	0.8909
4.75558	0.886
4.78856	0.886
4.82154	0.885
4.85452	0.885
4.8875	0.8878
4.92048	0.8878
4.95346	0.8896
4.98644	0.8862
5.01942	0.886
5.0524	0.883
5.08538	0.8758
5.11836	0.871
5.15134	0.875
5.18432	0.8687
5.2173	0.8665
5.25028	0.8766
5.28326	0.88
5.31624	0.881
5.34922	0.883
5.3822	0.883
5.41518	0.878
5.44816	0.8783
5.48114	0.8769
5.51412	0.871
5.5471	0.8706
5.58008	0.8801
5.61306	0.883
5.64604	0.8878
5.67902	0.8865
5.712	0.883
5.74498	0.8818
5.77796	0.8805
5.81094	0.8774
5.84392	0.8746
5.8769	0.87
5.90988	0.865
5.94286	0.861
5.97584	0.8583
6.00882	0.858
6.0418	0.861
6.07478	0.861
6.10776	0.856
6.14074	0.851
6.17372	0.8475
6.2067	0.8501
6.23968	0.845
6.27266	0.7965
6.30564	0.8204
6.33863	0.8309
6.37161	0.714
6.40459	0.7528
6.43757	0.8347
6.47055	0.851
6.50353	0.86
6.53651	0.8598
6.56949	0.855
6.60247	0.8564
6.63545	0.8458
6.66843	0.8219
6.70141	0.7971
6.73439	0.736
6.76737	0.6233
6.80035	0.4671
6.83333	0.4646
6.86631	0.55
6.89929	0.5091
6.93227	0.3757
6.96525	0.344
6.99823	0.5583
7.03121	0.6732
7.06419	0.7076
7.09717	0.76
7.13015	0.8117
7.16313	0.8211
7.19611	0.8299
7.22909	0.836
7.26207	0.835
7.29505	0.83
7.32803	0.8166
7.36101	0.7578
7.39399	0.667
7.42697	0.6726
7.45995	0.7585
7.49293	0.8049
7.52591	0.8306
7.55889	0.8526
7.59187	0.8545
7.62485	0.8539
7.65783	0.8472
7.69081	0.8443
7.72379	0.84
7.75677	0.843
7.78975	0.8345
7.82273	0.825
7.85571	0.8214
7.88869	0.823
7.92167	0.821
7.95465	0.7973
7.98763	0.79
8.02061	0.7952
8.05359	0.7984
8.08657	0.8101
8.11955	0.82
8.15253	0.826
8.18551	0.8325
8.21849	0.835
8.25147	0.833
8.28445	0.8146
8.31743	0.7838
8.35041	0.76
8.38339	0.7613
8.41637	0.7761
8.44935	0.7999
8.48233	0.823
8.51531	0.821
8.54829	0.8102
8.58127	0.7854
8.61425	0.7606
8.64723	0.7456
8.68021	0.74
8.71319	0.7401
8.74617	0.7429
8.77915	0.7284
8.81213	0.6548
8.84511	0.5984
8.87809	0.6005
8.91107	0.6477
8.94405	0.681
8.97703	0.6642
9.01001	0.6237
9.04299	0.581
9.07597	0.5662
9.10895	0.5802
9.14193	0.6211
9.17491	0.703
9.20789	0.7717
9.24087	0.8077
9.27385	0.8216
9.30683	0.8384
9.33981	0.8448
9.37279	0.841
9.40577	0.8411
9.43875	0.8383
9.47173	0.8337
9.50471	0.8282
9.53769	0.7993
9.57067	0.7153
9.60365	0.6684
9.63663	0.7162
9.66961	0.7043
9.70259	0.6292
9.73557	0.4353
9.76855	0.3056
9.80153	0.4273
9.83451	0.5727
9.86749	0.6799
9.90047	0.728
9.93345	0.7645
9.96643	0.7811
9.99941	0.796
10.0324	0.8056
10.0654	0.815
10.0983	0.8085
10.1313	0.8
10.1643	0.796
10.1973	0.808
10.2303	0.811
10.2633	0.81
10.2962	0.8057
10.3292	0.7962
10.3622	0.795
10.3952	0.795
10.4282	0.7986
10.4611	0.8091
10.4941	0.817
10.5271	0.82
10.5601	0.8098
10.5931	0.7955
10.626	0.79
10.659	0.7947
10.692	0.8052
10.725	0.8244
10.758	0.8398
10.7909	0.8515
10.8239	0.851
10.8569	0.8536
10.8899	0.855
10.9229	0.853
10.9558	0.85
10.9888	0.851
11.0218	0.8408
11.0548	0.8444
11.0878	0.855
11.1207	0.8518
11.1537	0.855
11.1867	0.856
11.2197	0.858
11.2527	0.855
11.2856	0.853
11.3186	0.855
11.3516	0.85
11.3846	0.845
11.4176	0.8405
11.4505	0.8357
11.4835	0.825
11.5165	0.8174
11.5495	0.8027
11.5825	0.793
11.6154	0.791
11.6484	0.795
11.6814	0.8
11.7144	0.803
11.7474	0.8042
11.7803	0.7994
11.8133	0.793
11.8463	0.7856
11.8793	0.775
11.9123	0.7651
11.9452	0.755
11.9782	0.743
12.0112	0.7269
12.0442	0.704
12.0772	0.6827
12.1101	0.6512
12.1431	0.635
12.1761	0.6351
12.2091	0.646
12.2421	0.6628
12.275	0.6907
12.308	0.7068
12.341	0.716
12.374	0.715
12.407	0.711
12.4399	0.7074
12.4729	0.7063
12.5059	0.708
12.5389	0.705
12.5719	0.703
12.6048	0.706
12.6378	0.705
12.6708	0.6977
12.7038	0.6899
12.7368	0.6825
12.7697	0.6739
12.8027	0.6574
12.8357	0.65
12.8687	0.6464
12.9017	0.6387
12.9346	0.6247
12.9676	0.6104
13.0006	0.5945
13.0336	0.5692
13.0666	0.5386
13.0995	0.4993
13.1325	0.4355
13.1655	0.378
13.1985	0.3029
13.2315	0.2324
13.2644	0.1751
13.2974	0.1419
13.3304	0.1283
13.3634	0.1208
13.3964	0.1234
13.4293	0.1559
13.4623	0.2196
13.4953	0.3045
13.5283	0.3682
13.5613	0.4305
13.5942	0.4681
13.6272	0.4963
13.6602	0.5178
13.6932	0.5346
13.7262	0.548
13.7591	0.5601
13.7921	0.5748
13.8251	0.5797
13.8581	0.5895
13.8911	0.5972
13.924	0.6
13.957	0.598
13.99	0.595
14.023	0.6002
14.056	0.605
14.0889	0.6111
14.1219	0.62
14.1549	0.6272
14.1879	0.633
14.2209	0.6442
14.2538	0.646
14.2868	0.646
14.3198	0.646
14.3528	0.646
14.3858	0.648
14.4187	0.653
14.4517	0.6595
14.4847	0.666
14.5177	0.6742
14.5507	0.679
14.5836	0.6805
14.6166	0.688
14.6496	0.686
14.6826	0.6811
14.7156	0.685
14.7485	0.6755
14.7815	0.67
14.8145	0.6562
14.8475	0.6428
14.8805	0.6271
14.9134	0.6106
14.9464	0.6086
