Infrared Spectrum: 5-Nitro-2-furaldehyde
Formula: C 5 H 3 N O 4
CAS: 698-63-5
State: gas
Origin: EPA-IR VAPOR PHASE LIBRARY
1/CM	ABSORBANCE
551.7	0.00171
563.274	0.00193
574.848	0.00182
586.421	0.00218
597.995	0.0021
609.569	0.00177
621.143	0.0016
632.717	0.00164
644.291	0.00153
655.864	0.00158
667.438	0.00178
679.012	0.00191
690.586	0.00207
702.16	0.00267
713.734	0.00501
725.307	0.01018
736.881	0.02407
748.455	0.03448
760.029	0.02438
771.603	0.01105
783.177	0.00749
794.75	0.01404
806.324	0.04369
817.898	0.04746
829.472	0.01644
841.046	0.00513
852.619	0.00241
864.193	0.00199
875.767	0.0021
887.341	0.00214
898.915	0.00211
910.489	0.00227
922.062	0.00266
933.636	0.00375
945.21	0.00628
956.784	0.01436
968.358	0.01884
979.932	0.00794
991.505	0.00587
1003.08	0.01287
1014.65	0.01563
1026.23	0.01127
1037.8	0.00414
1049.37	0.0024
1060.95	0.00297
1072.52	0.00266
1084.1	0.00206
1095.67	0.00186
1107.24	0.00192
1118.82	0.00176
1130.39	0.00203
1141.97	0.00315
1153.54	0.00783
1165.11	0.0182
1176.69	0.01478
1188.26	0.00479
1199.83	0.0051
1211.41	0.00553
1222.98	0.00746
1234.56	0.01966
1246.13	0.0361
1257.7	0.022
1269.28	0.00522
1280.85	0.00431
1292.42	0.0067
1304	0.01203
1315.57	0.02325
1327.15	0.04007
1338.72	0.0583
1350.29	0.07166
1361.87	0.0642
1373.44	0.02794
1385.02	0.00875
1396.59	0.00928
1408.16	0.01112
1419.74	0.00849
1431.31	0.00556
1442.88	0.00436
1454.46	0.00452
1466.03	0.00514
1477.61	0.00712
1489.18	0.00987
1500.75	0.0104
1512.33	0.009
1523.9	0.01323
1535.48	0.03331
1547.05	0.08122
1558.62	0.1041
1570.2	0.06773
1581.77	0.03517
1593.34	0.02163
1604.92	0.01231
1616.49	0.0099
1628.07	0.00711
1639.64	0.00482
1651.21	0.004
1662.79	0.00423
1674.36	0.00598
1685.93	0.01104
1697.51	0.0328
1709.08	0.06771
1720.66	0.08673
1732.23	0.05776
1743.8	0.01453
1755.38	0.00695
1766.95	0.0047
1778.53	0.00368
1790.1	0.00271
1801.67	0.00231
1813.25	0.00221
1824.82	0.00213
1836.39	0.00205
1847.97	0.00215
1859.54	0.00209
1871.12	0.00185
1882.69	0.00151
1894.26	0.00148
1905.84	0.0016
1917.41	0.00167
1928.99	0.00152
1940.56	0.00143
1952.13	0.00153
1963.71	0.00153
1975.28	0.00151
1986.85	0.00142
1998.43	0.00127
2010	0.00123
2021.58	0.00124
2033.15	0.00117
2044.72	0.00102
2056.3	0.0009517
2067.87	0.0009313
2079.44	0.0008898
2091.02	0.0008282
2102.59	0.0008361
2114.17	0.0009566
2125.74	0.00112
2137.31	0.00122
2148.89	0.00106
2160.46	0.0009712
2172.04	0.00115
2183.61	0.00126
2195.18	0.0009373
2206.76	0.0008585
2218.33	0.000885
2229.9	0.0009357
2241.48	0.0009136
2253.05	0.0008306
2264.63	0.0008084
2276.2	0.0007646
2287.77	0.000738
2299.35	0.0008454
2310.92	0.0009047
2322.5	0.0009868
2334.07	0.00106
2345.64	0.00115
2357.22	0.00125
2368.79	0.00126
2380.36	0.00108
2391.94	0.0009571
2403.51	0.0009403
2415.09	0.0008907
2426.66	0.0008756
2438.23	0.0009195
2449.81	0.0009343
2461.38	0.0009378
2472.96	0.0009035
2484.53	0.0009285
2496.1	0.0009329
2507.68	0.0009807
2519.25	0.00108
2530.82	0.00118
2542.4	0.00102
2553.97	0.0009778
2565.55	0.0009521
2577.12	0.0009473
2588.69	0.0009926
2600.27	0.00107
2611.84	0.00107
2623.41	0.0012
2634.99	0.00166
2646.56	0.00243
2658.14	0.00292
2669.71	0.00255
2681.28	0.00262
2692.86	0.00313
2704.43	0.0037
2716.01	0.00341
2727.58	0.00301
2739.15	0.0034
2750.73	0.00376
2762.3	0.00355
2773.87	0.00304
2785.45	0.00344
2797.02	0.00555
2808.6	0.01021
2820.17	0.01124
2831.74	0.00996
2843.32	0.01301
2854.89	0.01279
2866.47	0.00812
2878.04	0.00452
2889.61	0.00371
2901.19	0.00348
2912.76	0.00294
2924.33	0.00234
2935.91	0.00204
2947.48	0.0018
2959.06	0.00156
2970.63	0.00133
2982.2	0.00124
2993.78	0.00117
3005.35	0.00115
3016.92	0.00109
3028.5	0.00116
3040.07	0.00125
3051.65	0.00136
3063.22	0.00147
3074.79	0.00151
3086.37	0.0014
3097.94	0.0014
3109.52	0.00139
3121.09	0.00139
3132.66	0.00183
3144.24	0.00269
3155.81	0.0028
3167.38	0.00224
3178.96	0.00152
3190.53	0.00101
3202.11	0.00093
3213.68	0.0008511
3225.25	0.0008505
3236.83	0.0008127
3248.4	0.0007537
3259.98	0.0007959
3271.55	0.00077
3283.12	0.0007585
3294.7	0.0008305
3306.27	0.0008294
3317.84	0.0007724
3329.42	0.0008352
3340.99	0.0008777
3352.57	0.0008621
3364.14	0.0008953
3375.71	0.00111
3387.29	0.00143
3398.86	0.00219
3410.43	0.00281
3422.01	0.00251
3433.58	0.00163
3445.16	0.00142
3456.73	0.00116
3468.3	0.001
3479.88	0.00101
3491.45	0.0009563
3503.03	0.0009656
3514.6	0.0008674
3526.17	0.0008528
3537.75	0.0008853
3549.32	0.0008975
3560.89	0.0008735
3572.47	0.0008577
3584.04	0.0009039
3595.62	0.0009324
3607.19	0.0009155
3618.76	0.0009321
3630.34	0.0009328
3641.91	0.0008707
3653.49	0.0008952
3665.06	0.0008806
3676.63	0.000927
3688.21	0.0009753
3699.78	0.0009508
3711.35	0.000916
3722.93	0.0008363
3734.5	0.0008505
3746.08	0.0009429
3757.65	0.000809
3769.22	0.0008027
3780.8	0.0008197
3792.37	0.0008561
3803.94	0.0007461
3815.52	0.0008422
3827.09	0.0008476
3838.67	0.0008636
3850.24	0.0008559
3861.81	0.0008282
3873.39	0.0008655
3884.96	0.00093
3896.54	0.0008548
3908.11	0.0008334
3919.68	0.0008655
3931.26	0.0008807
3942.83	0.0008655
3954.4	0.0008531
3965.98	0.0009038
3977.55	0.0008792
3989.13	0.0008282
4000.7	0.0009077
