Infrared Spectrum: ASPARAGINE, d-L-, MONOHYDRATE
Formula: C4 H8 N2 O3  * H2 O
CAS: 69833-18-7
State: SOLID (SPLIT MULL)
Class: COBLENTZ III
Instrument: DOW KBr FOREPRISM-GRATING
Instrument parameters: BLAZED AT 3.5, 12.0, 20.0 MICRON AND CHANGED AT 5.0, 7.5, 14.9 MICRON
Sampling: TRANSMISSION
Resolution: 2
Origin: DOW CHEMICAL COMPANY
1/CM	TRANSMITTANCE
3800	0.7885
3791	0.7889
3782	0.7894
3773	0.7899
3764	0.7904
3755	0.7907
3746	0.7911
3737	0.7921
3728	0.7942
3719	0.7976
3710	0.8015
3701	0.8051
3692	0.8069
3683	0.8068
3674	0.8011
3665	0.8046
3656	0.806
3647	0.8028
3638	0.7978
3629	0.7908
3620	0.7818
3611	0.7678
3602	0.7468
3593	0.7281
3584	0.7137
3575	0.7091
3566	0.7041
3557	0.6945
3548	0.681
3539	0.665
3530	0.6471
3521	0.6252
3512	0.6026
3503	0.5737
3494	0.5429
3485	0.5028
3476	0.4542
3467	0.4169
3458	0.3932
3449	0.3809
3440	0.3794
3431	0.3879
3422	0.4023
3413	0.4234
3404	0.4021
3395	0.3427
3386	0.172
3377	0.2184
3368	0.3025
3359	0.3864
3350	0.4706
3341	0.5393
3332	0.5643
3323	0.588
3314	0.6021
3305	0.6105
3296	0.6149
3287	0.6169
3278	0.6122
3269	0.603
3260	0.5933
3251	0.5833
3242	0.5727
3233	0.5626
3224	0.5529
3215	0.5412
3206	0.5292
3197	0.5157
3188	0.4977
3179	0.466
3170	0.433
3161	0.3991
3152	0.3693
3143	0.2922
3134	0.2565
3125	0.2403
3116	0.2251
3107	0.2169
3098	0.2258
3089	0.2507
3080	0.2812
3071	0.2988
3062	0.3192
3053	0.334
3044	0.346
3035	0.3522
3026	0.3544
3017	0.348
3008	0.3387
2999	0.325
2990	0.3111
2981	0.293
2972	0.272
2963	0.2576
2954	0.244
2945	0.2428
2936	0.2471
2927	0.2527
2918	0.2631
2909	0.2781
2900	0.3008
2891	0.3343
2882	0.3586
2873	0.3859
2864	0.4151
2855	0.4518
2846	0.4762
2837	0.4884
2828	0.4937
2819	0.5054
2810	0.5218
2801	0.5394
2792	0.553
2783	0.5581
2774	0.5582
2765	0.5584
2756	0.5595
2747	0.5555
2738	0.5541
2729	0.5678
2720	0.5778
2711	0.5893
2702	0.6004
2693	0.6094
2684	0.6137
2675	0.611
2666	0.6059
2657	0.6106
2648	0.611
2639	0.6107
2630	0.6198
2621	0.6297
2612	0.6367
2603	0.6396
2594	0.6439
2585	0.6571
2576	0.6706
2567	0.6808
2558	0.6911
2549	0.6924
2540	0.6845
2531	0.6789
2522	0.6758
2513	0.6811
2504	0.6926
2495	0.7021
2486	0.7101
2477	0.716
2468	0.7196
2459	0.7221
2450	0.7238
2441	0.7251
2432	0.7265
2423	0.7282
2414	0.7307
2405	0.7351
2396	0.7378
2387	0.7371
2378	0.73
2369	0.7241
2360	0.7235
2351	0.728
2342	0.7298
2333	0.7311
2324	0.735
2315	0.739
2306	0.7432
2297	0.7468
2288	0.75
2279	0.7518
2270	0.7533
2261	0.7496
2252	0.7483
2243	0.7498
2234	0.7518
2225	0.7536
2216	0.7551
2207	0.7564
2198	0.7565
2189	0.7565
2180	0.7578
2171	0.7588
2162	0.7588
2153	0.7585
2144	0.76
2135	0.7646
2126	0.7695
2117	0.7736
2108	0.7768
2099	0.7781
2090	0.7794
2081	0.7808
2072	0.7808
2063	0.7783
2054	0.7742
2045	0.7725
2036	0.7818
2027	0.7717
2018	0.7691
2009	0.768
2000	0.7826
1991	0.8307
1982	0.8424
1973	0.8518
1964	0.9145
1955	0.8668
1946	0.8656
1937	0.8652
1928	0.8645
1919	0.8658
1910	0.8671
1901	0.8681
1892	0.8687
1883	0.8691
1874	0.8707
1865	0.8728
1856	0.8735
1847	0.8732
1838	0.8718
1829	0.8702
1820	0.8685
1811	0.8671
1802	0.8655
1793	0.8623
1784	0.8613
1775	0.8583
1766	0.8546
1757	0.8488
1748	0.8394
1739	0.8264
1730	0.8025
1721	0.7619
1712	0.6967
1703	0.6007
1694	0.3623
1685	0.1873
1676	0.2808
1667	0.4351
1658	0.2776
1649	0.0987
1640	0.1176
1631	0.222
1622	0.3095
1613	0.4087
1604	0.4112
1595	0.3412
1586	0.3255
1577	0.3398
1568	0.5541
1559	0.5789
1550	0.5129
1541	0.331
1532	0.1751
1523	0.2776
1514	0.3932
1505	0.5088
1496	0.574
1487	0.613
1478	0.6364
1469	0.654
1460	0.6514
1451	0.5822
1442	0.2347
1433	0.1801
1424	0.395
1415	0.5048
1406	0.453
1397	0.5149
1388	0.6262
1379	0.6668
1370	0.5682
1361	0.2368
1352	0.5631
1343	0.6048
1334	0.6431
1325	0.6078
1316	0.4286
1307	0.4662
1298	0.5941
1289	0.6412
1280	0.6712
1271	0.6894
1262	0.6998
1253	0.6999
1244	0.6215
1235	0.5639
1226	0.6642
1217	0.7
1208	0.7248
1199	0.7403
1190	0.7499
1181	0.7528
1172	0.7465
1163	0.726
1154	0.4465
1145	0.656
1136	0.7038
1127	0.7172
1118	0.7189
1109	0.6515
1100	0.7198
1091	0.7511
1082	0.619
1073	0.6689
1064	0.7432
1055	0.7739
1046	0.7842
1037	0.7881
1028	0.7901
1019	0.7982
1010	0.7954
1001	0.7934
992	0.8001
983	0.8046
974	0.8051
965	0.806
956	0.808
947	0.8115
938	0.816
929	0.8178
920	0.8171
911	0.7639
902	0.8061
893	0.734
884	0.7935
875	0.823
866	0.8243
857	0.8061
848	0.745
839	0.6465
830	0.7805
821	0.7115
812	0.613
803	0.6428
794	0.775
785	0.8007
776	0.8042
767	0.8015
758	0.7924
749	0.7778
740	0.7538
731	0.7051
722	0.6538
713	0.6733
704	0.6217
695	0.4874
686	0.458
677	0.4442
668	0.373
659	0.4965
650	0.5422
641	0.5585
632	0.5852
623	0.6227
614	0.6521
605	0.6179
596	0.6401
587	0.6497
578	0.6293
569	0.6401
560	0.5757
551	0.6183
542	0.6414
533	0.634
524	0.5991
515	0.5458
506	0.5935
497	0.6588
488	0.7404
479	0.8055
470	0.8471
461	0.8575
452	0.8609
443	0.865
434	0.8707
425	0.8795
416	0.8756
407	0.8749
398	0.8748
389	0.856
380	0.8406
