Infrared Spectrum: SPIRO[CYCLOPROPANE-1,6'-[17Alpha]PREGN-4'-ENE]-21'-CARBOXYLIC ACID, 17'Beta-HYDROXY-3'-OXO-, Gamma-LACTONE
Formula: C24 H32 O3
CAS: 6987-59-3
State: SOLID (OIL MULL)
Class: COBLENTZ III
Instrument: PERKIN-ELMER 21 (GRATING)
Instrument parameters: NaCl PRISM
Sampling: TRANSMISSION
Resolution: 2
Origin: SMITH KLINE & FRENCH LABS.
MICROMETERS	TRANSMITTANCE
2.002	0.339
2.03623	0.34
2.07046	0.345
2.10469	0.351
2.13893	0.361
2.17316	0.372
2.20739	0.378
2.24162	0.38
2.27585	0.39
2.31008	0.399
2.34431	0.383
2.37855	0.383
2.41278	0.398
2.44701	0.399
2.48124	0.41
2.51547	0.422
2.5497	0.428
2.58393	0.445
2.61817	0.454
2.6524	0.456
2.68663	0.467
2.72086	0.473
2.75509	0.476
2.78932	0.482
2.82355	0.488
2.85778	0.493
2.89202	0.493
2.92625	0.499
2.96048	0.504
2.99471	0.506
3.02894	0.509
3.06317	0.512
3.0974	0.514
3.13164	0.52
3.16587	0.52
3.2001	0.511
3.23433	0.509
3.26856	0.509
3.30279	0.483
3.33702	0.463
3.37126	0.389
3.40549	0.162
3.43972	0.029
3.47395	0.028
3.50818	0.029
3.54241	0.04
3.57664	0.147
3.61088	0.456
3.64511	0.619
3.67934	0.645
3.71357	0.642
3.7478	0.641
3.78203	0.642
3.81626	0.652
3.8505	0.652
3.88473	0.666
3.91896	0.682
3.95319	0.692
3.98742	0.697
4.02165	0.708
4.05588	0.717
4.09012	0.722
4.12435	0.722
4.15858	0.722
4.19281	0.728
4.22704	0.732
4.26127	0.732
4.2955	0.732
4.32974	0.741
4.36397	0.739
4.3982	0.741
4.43243	0.749
4.46666	0.752
4.50089	0.752
4.53512	0.76
4.56935	0.768
4.60359	0.775
4.63782	0.772
4.67205	0.786
4.70628	0.789
4.74051	0.793
4.77474	0.792
4.80897	0.792
4.84321	0.792
4.87744	0.797
4.91167	0.809
4.9459	0.821
4.98013	0.832
5.01436	0.835
5.04859	0.838
5.08283	0.843
5.11706	0.843
5.15129	0.852
5.18552	0.858
5.21975	0.866
5.25398	0.874
5.28821	0.873
5.32245	0.877
5.35668	0.88
5.39091	0.89
5.42514	0.89
5.45937	0.88
5.4936	0.851
5.52783	0.808
5.56207	0.764
5.5963	0.67
5.63053	0.5
5.66476	0.246
5.69899	0.178
5.73322	0.308
5.76745	0.49
5.80169	0.57
5.83592	0.601
5.87015	0.659
5.90438	0.699
5.93861	0.663
5.97284	0.479
6.00707	0.374
6.04131	0.155
6.07554	0.18
6.10977	0.291
6.144	0.49
6.17823	0.548
6.21246	0.539
6.24669	0.274
6.28092	0.488
6.31516	0.57
6.34939	0.6
6.38362	0.63
6.41785	0.672
6.45208	0.689
6.48631	0.711
6.52054	0.719
6.55478	0.724
6.58901	0.728
6.62324	0.728
6.65747	0.726
6.6917	0.713
6.72593	0.691
6.76016	0.603
6.7944	0.439
6.82863	0.203
6.86286	0.13
6.89709	0.133
6.93132	0.18
6.96555	0.339
6.99978	0.503
7.03402	0.619
7.06825	0.553
7.10248	0.556
7.13671	0.689
7.17094	0.714
7.20517	0.559
7.2394	0.379
7.27364	0.255
7.30787	0.34
7.3421	0.476
7.37633	0.487
7.41056	0.5
7.44479	0.597
7.47902	0.611
7.51326	0.633
7.54749	0.507
7.58172	0.609
7.61595	0.61
7.65018	0.523
7.68441	0.589
7.71864	0.652
7.75287	0.661
7.78711	0.663
7.82134	0.622
7.85557	0.549
7.8898	0.39
7.92403	0.315
7.95826	0.368
7.99249	0.474
8.02673	0.588
8.06096	0.649
8.09519	0.582
8.12942	0.39
8.16365	0.452
8.19788	0.446
8.23211	0.376
8.26635	0.52
8.30058	0.62
8.33481	0.6
8.36904	0.5
8.40327	0.344
8.4375	0.39
8.47173	0.483
8.50597	0.478
8.5402	0.322
8.57443	0.24
8.60866	0.327
8.64289	0.424
8.67712	0.512
8.71135	0.562
8.74559	0.588
8.77982	0.601
8.81405	0.63
8.84828	0.649
8.88251	0.612
8.91674	0.625
8.95097	0.55
8.98521	0.503
9.01944	0.606
9.05367	0.671
9.0879	0.699
9.12213	0.703
9.15636	0.682
9.19059	0.703
9.22483	0.73
9.25906	0.738
9.29329	0.735
9.32752	0.705
9.36175	0.708
9.39598	0.693
9.43021	0.59
9.46444	0.622
9.49868	0.704
9.53291	0.681
9.56714	0.521
9.60137	0.433
9.6356	0.496
9.66983	0.62
9.70406	0.682
9.7383	0.702
9.77253	0.687
9.80676	0.663
9.84099	0.593
9.87522	0.485
9.90945	0.487
9.94368	0.547
9.97792	0.516
10.0121	0.608
10.0464	0.65
10.0806	0.67
10.1148	0.702
10.1491	0.71
10.1833	0.632
10.2175	0.521
10.2518	0.472
10.286	0.455
10.3202	0.496
10.3545	0.582
10.3887	0.601
10.4229	0.522
10.4572	0.555
10.4914	0.609
10.5256	0.529
10.5598	0.413
10.5941	0.445
10.6283	0.51
10.6625	0.572
10.6968	0.659
10.731	0.681
10.7652	0.702
10.7995	0.681
10.8337	0.67
10.8679	0.63
10.9022	0.56
10.9364	0.483
10.9706	0.565
11.0049	0.626
11.0391	0.61
11.0733	0.593
11.1076	0.652
11.1418	0.694
11.176	0.732
11.2102	0.721
11.2445	0.692
11.2787	0.675
11.3129	0.689
11.3472	0.691
11.3814	0.621
11.4156	0.592
11.4499	0.623
11.4841	0.66
11.5183	0.716
11.5526	0.724
11.5868	0.719
11.621	0.683
11.6553	0.63
11.6895	0.641
11.7237	0.711
11.7579	0.741
11.7922	0.748
11.8264	0.761
11.8606	0.763
11.8949	0.761
11.9291	0.732
11.9633	0.722
11.9976	0.748
12.0318	0.765
12.066	0.78
12.1003	0.793
12.1345	0.793
12.1687	0.781
12.203	0.775
12.2372	0.781
12.2714	0.789
12.3057	0.782
12.3399	0.752
12.3741	0.738
12.4083	0.759
12.4426	0.776
12.4768	0.791
12.511	0.8
12.5453	0.803
12.5795	0.799
12.6137	0.77
12.648	0.733
12.6822	0.742
12.7164	0.772
12.7507	0.786
12.7849	0.771
12.8191	0.78
12.8534	0.792
12.8876	0.792
12.9218	0.792
12.956	0.783
12.9903	0.743
13.0245	0.717
13.0587	0.754
13.093	0.772
13.1272	0.777
13.1614	0.785
13.1957	0.786
13.2299	0.785
13.2641	0.789
13.2984	0.787
13.3326	0.775
13.3668	0.76
13.4011	0.721
13.4353	0.689
13.4695	0.688
13.5037	0.7
13.538	0.7
13.5722	0.7
13.6064	0.709
13.6407	0.724
13.6749	0.726
13.7091	0.728
13.7434	0.733
13.7776	0.733
13.8118	0.732
13.8461	0.728
13.8803	0.728
13.9145	0.725
13.9488	0.727
13.983	0.741
14.0172	0.752
14.0515	0.754
14.0857	0.757
14.1199	0.757
14.1541	0.764
14.1884	0.764
14.2226	0.76
14.2568	0.754
14.2911	0.752
14.3253	0.731
14.3595	0.681
14.3938	0.601
14.428	0.556
14.4622	0.603
14.4965	0.633
14.5307	0.652
14.5649	0.652
14.5992	0.642
14.6334	0.645
14.6676	0.663
14.7018	0.678
14.7361	0.681
14.7703	0.675
14.8045	0.671
14.8388	0.671
14.873	0.661
14.9072	0.661
14.9415	0.653
14.9757	0.648
