Infrared Spectrum: 1,3-Diazaspiro(4.4)nonane-2,4-dione
Formula: C7 H10 N2 O2
CAS: 699-51-4
State: SOLID (SPLIT MULL), FLUOROLUBE FOR 3800-1330 CM^-^1, NUJOL FOR 1330-400 CM^-^1
Class: COBLENTZ III
Instrument: DOW KBr FOREPRISM-GRATING
Instrument parameters: BLAZED AT 3.5, 12.0, 20.0 MICRON AND CHANGED AT 5.0, 7.5, 14.9 MICRON
Sampling: TRANSMISSION
Resolution: 2
Origin: DOW CHEMICAL COMPANY
1/CM	TRANSMITTANCE
380	0.8513
389	0.8405
398	0.8284
407	0.8158
416	0.8057
425	0.7908
434	0.7486
443	0.7449
452	0.723
461	0.5826
470	0.1479
479	0.7426
488	0.7935
497	0.8065
506	0.8061
515	0.8031
524	0.7981
533	0.7942
542	0.7953
551	0.7992
560	0.8001
569	0.7971
578	0.7928
587	0.7862
596	0.7634
605	0.7422
614	0.706
623	0.624
632	0.5136
641	0.4151
650	0.5456
659	0.6069
668	0.6504
677	0.681
686	0.6789
695	0.6587
704	0.5951
713	0.4696
722	0.449
731	0.5937
740	0.568
749	0.4518
758	0.6687
767	0.7258
776	0.7072
785	0.6404
794	0.6128
803	0.7214
812	0.7514
821	0.7725
830	0.7901
839	0.805
848	0.8175
857	0.8268
866	0.828
875	0.8156
884	0.7818
893	0.8118
902	0.8165
911	0.7945
920	0.8151
929	0.8234
938	0.8141
947	0.7918
956	0.8196
965	0.8185
974	0.8221
983	0.8185
992	0.7881
1001	0.7895
1010	0.8114
1019	0.7735
1028	0.7951
1037	0.7675
1046	0.7674
1055	0.7482
1064	0.6476
1073	0.4286
1082	0.7528
1091	0.8125
1100	0.8122
1109	0.8238
1118	0.8311
1127	0.8175
1136	0.7938
1145	0.7714
1154	0.7432
1163	0.7056
1172	0.6618
1181	0.6871
1190	0.7282
1199	0.7485
1208	0.7435
1217	0.7183
1226	0.674
1235	0.6309
1244	0.6092
1253	0.6344
1262	0.6569
1271	0.6366
1280	0.6455
1289	0.6234
1298	0.5757
1307	0.5065
1316	0.4441
1325	0.6024
1334	0.5553
1343	0.5316
1352	0.5417
1361	0.5135
1370	0.4677
1379	0.3642
1388	0.3855
1397	0.4216
1406	0.2817
1415	0.1627
1424	0.3684
1433	0.5321
1442	0.5838
1451	0.6277
1460	0.7205
1469	0.7558
1478	0.7758
1487	0.7788
1496	0.7825
1505	0.7882
1514	0.7874
1523	0.7844
1532	0.7725
1541	0.7721
1550	0.7768
1559	0.7745
1568	0.7771
1577	0.7725
1586	0.7665
1595	0.7601
1604	0.754
1613	0.7476
1622	0.7425
1631	0.7394
1640	0.7367
1649	0.709
1658	0.6801
1667	0.6524
1676	0.621
1685	0.6172
1694	0.548
1703	0.4505
1712	0.3492
1721	0.1751
1730	0.0217
1739	0.0263
1748	0.3034
1757	0.3425
1766	0.1236
1775	0.0467
1784	0.2997
1793	0.6415
1802	0.7532
1811	0.8121
1820	0.842
1829	0.8646
1838	0.8795
1847	0.8863
1856	0.8898
1865	0.8921
1874	0.894
1883	0.8955
1892	0.8968
1901	0.8961
1910	0.8948
1919	0.894
1928	0.8935
1937	0.8951
1946	0.8946
1955	0.8988
1964	0.889
1973	0.8841
1982	0.8825
1991	0.8804
2000	0.8067
2009	0.856
2018	0.8536
2027	0.8758
2036	0.8463
2045	0.8401
2054	0.8387
2063	0.839
2072	0.839
2081	0.8378
2090	0.8331
2099	0.8255
2108	0.8237
2117	0.8285
2126	0.8271
2135	0.8239
2144	0.8223
2153	0.8237
2162	0.8197
2171	0.813
2180	0.8078
2189	0.8051
2198	0.8065
2207	0.8044
2216	0.7995
2225	0.7938
2234	0.7883
2243	0.783
2252	0.7791
2261	0.7753
2270	0.7728
2279	0.7705
2288	0.768
2297	0.7654
2306	0.7628
2315	0.7606
2324	0.7586
2333	0.7583
2342	0.7583
2351	0.7599
2360	0.7617
2369	0.7637
2378	0.7656
2387	0.7628
2396	0.7572
2405	0.7578
2414	0.759
2423	0.76
2432	0.7608
2441	0.7618
2450	0.7625
2459	0.7632
2468	0.764
2477	0.7647
2486	0.7658
2495	0.7678
2504	0.7698
2513	0.771
2522	0.7718
2531	0.7714
2540	0.7703
2549	0.7689
2558	0.7675
2567	0.7661
2576	0.7647
2585	0.7633
2594	0.7624
2603	0.7508
2612	0.7557
2621	0.76
2630	0.7584
2639	0.7553
2648	0.7503
2657	0.7441
2666	0.7382
2675	0.7317
2684	0.7248
2693	0.7178
2702	0.7099
2711	0.7015
2720	0.6901
2729	0.6765
2738	0.6539
2747	0.631
2756	0.6101
2765	0.6225
2774	0.6608
2783	0.6744
2792	0.6688
2801	0.654
2810	0.6465
2819	0.6425
2828	0.6391
2837	0.6356
2846	0.6294
2855	0.6147
2864	0.5935
2873	0.5493
2882	0.5336
2891	0.6068
2900	0.6049
2909	0.591
2918	0.5576
2927	0.5273
2936	0.5208
2945	0.5012
2954	0.4426
2963	0.3814
2972	0.5706
2981	0.5996
2990	0.5937
2999	0.5747
3008	0.556
3017	0.5348
3026	0.5066
3035	0.4725
3044	0.4331
3053	0.3876
3062	0.3298
3071	0.298
3080	0.3245
3089	0.3514
3098	0.3334
3107	0.315
3116	0.3117
3125	0.3155
3134	0.3034
3143	0.2884
3152	0.2784
3161	0.2713
3170	0.2678
3179	0.2637
3188	0.2542
3197	0.2384
3206	0.237
3215	0.2457
3224	0.2775
3233	0.3179
3242	0.367
3251	0.4143
3260	0.4634
3269	0.5218
3278	0.5762
3287	0.6259
3296	0.6625
3305	0.7115
3314	0.7487
3323	0.7822
3332	0.8108
3341	0.8341
3350	0.8506
3359	0.8628
3368	0.8718
3377	0.88
3386	0.8834
3395	0.8832
3404	0.8815
3413	0.8784
3422	0.8745
3431	0.8688
3440	0.8642
3449	0.866
3458	0.8707
3467	0.8748
3476	0.8767
3485	0.8768
3494	0.8767
3503	0.8761
3512	0.8757
3521	0.8754
3530	0.8751
3539	0.8745
3548	0.874
3557	0.8734
3566	0.8728
3575	0.8721
3584	0.8714
3593	0.8707
3602	0.87
3611	0.8694
3620	0.8689
3629	0.8683
3638	0.8678
3647	0.8671
3656	0.8668
3665	0.8662
3674	0.8658
3683	0.8652
3692	0.8647
3701	0.8641
3710	0.8635
3719	0.8628
3728	0.8621
3737	0.8618
3746	0.8621
3755	0.8648
3764	0.8657
3773	0.8662
3782	0.8659
3791	0.8648
3800	0.8631
3809	0.861
3818	0.8605
