Infrared Spectrum: 1-(2-Furyl)-2-nitroethylene
Formula: C 6 H 5 N O 3
CAS: 699-18-3
State: gas
Origin: EPA-IR VAPOR PHASE LIBRARY
1/CM	ABSORBANCE
549.8	0.005821
559.445	0.002531
569.09	0.003861
578.734	0.008751
588.379	0.015481
598.024	0.011731
607.669	0.006281
617.313	0.002821
626.958	0.002171
636.603	0.002551
646.248	0.002901
655.893	0.002511
665.537	0.003281
675.182	0.009921
684.827	0.042861
694.472	0.084381
704.116	0.058871
713.761	0.019951
723.406	0.031101
733.051	0.063441
742.695	0.103691
752.34	0.073511
761.985	0.038211
771.63	0.013411
781.275	0.010781
790.919	0.014631
800.564	0.020511
810.209	0.031521
819.854	0.024411
829.498	0.022661
839.143	0.021831
848.788	0.015701
858.433	0.011311
868.078	0.008991
877.722	0.025281
887.367	0.037401
897.012	0.018991
906.657	0.015301
916.301	0.020071
925.946	0.038041
935.591	0.061131
945.236	0.083851
954.88	0.099061
964.525	0.077311
974.17	0.037631
983.815	0.017551
993.46	0.014471
1003.1	0.024001
1012.75	0.083761
1022.39	0.079241
1032.04	0.018051
1041.68	0.006841
1051.33	0.005021
1060.97	0.005211
1070.62	0.006931
1080.26	0.010431
1089.91	0.008761
1099.55	0.004421
1109.2	0.003011
1118.84	0.001941
1128.49	0.003721
1138.13	0.006841
1147.78	0.019731
1157.42	0.022031
1167.07	0.008481
1176.71	0.006301
1186.36	0.012031
1196	0.014491
1205.64	0.009661
1215.29	0.004751
1224.93	0.006621
1234.58	0.012751
1244.22	0.023921
1253.87	0.038651
1263.51	0.041951
1273.16	0.032141
1282.8	0.026071
1292.45	0.022641
1302.09	0.029051
1311.74	0.054511
1321.38	0.109221
1331.03	0.185481
1340.67	0.255171
1350.32	0.307701
1359.96	0.252691
1369.61	0.088841
1379.25	0.028201
1388.9	0.020271
1398.54	0.014371
1408.18	0.009941
1417.83	0.010211
1427.47	0.012961
1437.12	0.013541
1446.76	0.013411
1456.41	0.016341
1466.05	0.021441
1475.7	0.036341
1485.34	0.051051
1494.99	0.046971
1504.63	0.046561
1514.28	0.077091
1523.92	0.150131
1533.57	0.233881
1543.21	0.249041
1552.86	0.191221
1562.5	0.119021
1572.15	0.079861
1581.79	0.050521
1591.44	0.036231
1601.08	0.029741
1610.73	0.029731
1620.37	0.036621
1630.01	0.056131
1639.66	0.097731
1649.3	0.114341
1658.95	0.069681
1668.59	0.027621
1678.24	0.012451
1687.88	0.007641
1697.53	0.005161
1707.17	0.004061
1716.82	0.005121
1726.46	0.009671
1736.11	0.009581
1745.75	0.005121
1755.4	0.003581
1765.04	0.002971
1774.69	0.002771
1784.33	0.002861
1793.98	0.002381
1803.62	0.001651
1813.27	0.0013294
1822.91	0.001149
1832.55	0.0012323
1842.2	0.0011226
1851.84	0.0012821
1861.49	0.001531
1871.13	0.001921
1880.78	0.002421
1890.42	0.003201
1900.07	0.003631
1909.71	0.003231
1919.36	0.002631
1929	0.002211
1938.65	0.001741
1948.29	0.001811
1957.94	0.001661
1967.58	0.0010749
1977.23	0.0010729
1986.87	0.0010958
1996.52	0.0011645
2006.16	0.0012549
2015.81	0.001641
2025.45	0.001851
2035.1	0.001921
2044.74	0.001721
2054.38	0.001591
2064.03	0.0012752
2073.67	0.001591
2083.32	0.002391
2092.96	0.003151
2102.61	0.002761
2112.25	0.001521
2121.9	0.0009448
2131.54	0.0008551
2141.19	0.0008258
2150.83	0.0010849
2160.48	0.0011634
2170.12	0.0011314
2179.77	0.0012919
2189.41	0.001401
2199.06	0.001481
2208.7	0.001661
2218.35	0.001681
2227.99	0.001351
2237.64	0.001471
2247.28	0.001461
2256.92	0.001451
2266.57	0.001921
2276.21	0.002091
2285.86	0.002241
2295.5	0.002421
2305.15	0.002531
2314.79	0.002711
2324.44	0.002611
2334.08	0.002141
2343.73	0.001901
2353.37	0.001551
2363.02	0.001481
2372.66	0.001331
2382.31	0.001421
2391.95	0.001731
2401.6	0.002371
2411.24	0.001951
2420.89	0.001501
2430.53	0.001451
2440.18	0.001711
2449.82	0.001841
2459.47	0.001961
2469.11	0.002171
2478.75	0.001941
2488.4	0.002081
2498.04	0.002251
2507.69	0.002001
2517.33	0.001921
2526.98	0.002051
2536.62	0.002361
2546.27	0.002431
2555.91	0.003111
2565.56	0.002891
2575.2	0.002631
2584.85	0.002531
2594.49	0.002671
2604.14	0.002411
2613.78	0.002491
2623.43	0.002341
2633.07	0.002821
2642.72	0.002411
2652.36	0.001801
2662.01	0.001761
2671.65	0.0013186
2681.29	0.001271
2690.94	0.0011212
2700.58	0.0010949
2710.23	0.001441
2719.87	0.001801
2729.52	0.002031
2739.16	0.002261
2748.81	0.001781
2758.45	0.001651
2768.1	0.001561
2777.74	0.001411
2787.39	0.001951
2797.03	0.002111
2806.68	0.002691
2816.32	0.003341
2825.97	0.004021
2835.61	0.004161
2845.26	0.004551
2854.9	0.005711
2864.55	0.006801
2874.19	0.007351
2883.84	0.006781
2893.48	0.005451
2903.12	0.004061
2912.77	0.003301
2922.41	0.003021
2932.06	0.002521
2941.7	0.002191
2951.35	0.002321
2960.99	0.002291
2970.64	0.002841
2980.28	0.003101
2989.93	0.003471
2999.57	0.003531
3009.22	0.003041
3018.86	0.002421
3028.51	0.001791
3038.15	0.001791
3047.8	0.002091
3057.44	0.002661
3067.09	0.003051
3076.73	0.002371
3086.38	0.001621
3096.02	0.002301
3105.67	0.005701
3115.31	0.011301
3124.95	0.013131
3134.6	0.010491
3144.24	0.004631
3153.89	0.001651
3163.53	0.0012192
3173.18	0.0011982
3182.82	0.0009062
3192.47	0.0012389
3202.11	0.001391
3211.76	0.0012735
3221.4	0.0010591
3231.05	0.00032194
3240.69	0.0005109
3250.34	0.0008977
3259.98	0.00040402
3269.63	0.0005516
3279.27	0.0002396
3288.92	0.0008345
3298.56	0.0004851
3308.21	0.00041997
3317.85	0.0005
3327.49	0.0004571
3337.14	0.0004513
3346.78	0.0005945
3356.43	0.0006058
3366.07	0.0004915
3375.72	0.0005543
3385.36	0.00042195
3395.01	0.000162
3404.65	0.000184
3414.3	0.0004337
3423.94	0.0005902
3433.59	0.0004937
3443.23	0.00034439
3452.88	0.000336821
3462.52	0.0002744
3472.17	0.000521
3481.81	0.000226
3491.46	0.0006131
3501.1	0.0004374
3510.75	0.0004415
3520.39	0.00041265
3530.04	0.000181
3539.68	0.0002514
3549.32	0.0006291
3558.97	0.00042776
3568.61	0.0003878
3578.26	0.0006275
3587.9	0.0003544
3597.55	0.0007672
3607.19	0.00039723
3616.84	0.00042531
3626.48	0.0006914
3636.13	0.0007011
3645.77	0.0007587
3655.42	0.0004944
3665.06	0.00040574
3674.71	0.0005099
3684.35	0.0005609
3694	0.0005771
3703.64	0.0008401
3713.29	0.00038167
3722.93	0.0004418
3732.58	0.0005322
3742.22	0.00038347
3751.86	0.0006259
3761.51	0.0005989
3771.15	0.0006618
3780.8	0.00039479
3790.44	0.0003197
3800.09	0.0005353
3809.73	0.0005733
3819.38	0.0011298
3829.02	0.0005691
3838.67	0.000648
3848.31	0.0009087
3857.96	0.0009825
3867.6	0.0009202
3877.25	0.000668
3886.89	0.00041528
3896.54	0.0006191
3906.18	0.000631
3915.83	0.0008582
3925.47	0.0009634
3935.12	0.0010143
3944.76	0.0004535
3954.41	0.0004563
3964.05	0.0006383
3973.69	0.0005589
3983.34	0.0007033
3992.98	0.0009047
