Infrared Spectrum: 2,6-Dihydroxyacetophenone
Formula: C 8 H 8 O 3
CAS: 699-83-2
State: gas
Origin: EPA-IR VAPOR PHASE LIBRARY
1/CM	ABSORBANCE
549.9	0.0005881
559.547	0.0005158
569.193	0.0005867
578.84	0.0009263
588.486	0.000985
598.133	0.0007591
607.779	0.0005028
617.426	0.00042498
627.072	0.0005226
636.719	0.0005134
646.365	0.0006898
656.012	0.0011536
665.658	0.001428
675.305	0.0012542
684.951	0.000781
694.598	0.000937
704.245	0.001738
713.891	0.003088
723.538	0.003538
733.184	0.001758
742.831	0.0005248
752.477	0.00042553
762.124	0.0005518
771.77	0.001438
781.417	0.002628
791.063	0.002978
800.71	0.002288
810.356	0.001468
820.003	0.001203
829.649	0.0010511
839.296	0.0007292
848.943	0.000502
858.589	0.00035917
868.236	0.00016
877.882	0.000133
887.529	9.3e-05
897.175	0.000137
906.822	0.00011
916.468	0.000211
926.115	0.000176
935.761	0.0006196
945.408	0.001758
955.054	0.002768
964.701	0.002318
974.347	0.0010208
983.994	0.0005531
993.64	0.0006103
1003.29	0.0009096
1012.93	0.001998
1022.58	0.004348
1032.23	0.004928
1041.87	0.003088
1051.52	0.001358
1061.17	0.000879
1070.81	0.0006565
1080.46	0.0006852
1090.11	0.0007501
1099.75	0.0005565
1109.4	0.0003257
1119.05	0.000404
1128.69	0.00034365
1138.34	0.0005205
1147.99	0.0010651
1157.63	0.001598
1167.28	0.001678
1176.92	0.001588
1186.57	0.002248
1196.22	0.003668
1205.86	0.007778
1215.51	0.012898
1225.16	0.014648
1234.8	0.010918
1244.45	0.006278
1254.1	0.005498
1263.74	0.004548
1273.39	0.002548
1283.04	0.001698
1292.68	0.002088
1302.33	0.003028
1311.98	0.003998
1321.62	0.005108
1331.27	0.004908
1340.92	0.003848
1350.56	0.003538
1360.21	0.004128
1369.86	0.004748
1379.5	0.004028
1389.15	0.002208
1398.79	0.001698
1408.44	0.001578
1418.09	0.001898
1427.73	0.002578
1437.38	0.005628
1447.03	0.011468
1456.67	0.012758
1466.32	0.007448
1475.97	0.003268
1485.61	0.002118
1495.26	0.001798
1504.91	0.001538
1514.55	0.0012162
1524.2	0.0011459
1533.85	0.0013354
1543.49	0.001868
1553.14	0.003118
1562.79	0.004808
1572.43	0.005998
1582.08	0.006378
1591.73	0.006478
1601.37	0.006768
1611.02	0.008188
1620.67	0.009868
1630.31	0.010758
1639.96	0.012828
1649.6	0.013938
1659.25	0.010438
1668.9	0.005398
1678.54	0.002648
1688.19	0.001538
1697.84	0.0011278
1707.48	0.0008192
1717.13	0.0006753
1726.78	0.0005623
1736.42	0.0004771
1746.07	0.00043301
1755.72	0.0005137
1765.36	0.0004572
1775.01	0.000277
1784.66	0.000319
1794.3	0.000241
1803.95	0.0003182
1813.6	0.000283
1823.24	0.0002748
1832.89	0.0002649
1842.54	0.0002878
1852.18	0.000193
1861.83	0.0002566
1871.47	0.000208
1881.12	0.00017
1890.77	0.000197
1900.41	0.000234
1910.06	0.0003361
1919.71	0.00043186
1929.35	0.0002744
1939	0.000189
1948.65	0.000173
1958.29	0.000206
1967.94	0.000229
1977.59	0.0002
1987.23	0.000228
1996.88	0.000151
2006.53	0.000146
2016.17	0.00015
2025.82	0.000188
2035.47	0.000204
2045.11	0.000157
2054.76	0.000159
2064.41	0.00015
2074.05	0.000118
2083.7	0.000124
2093.35	0.000146
2102.99	0.000113
2112.64	0.000132
2122.28	0.00015
2131.93	0.00014
2141.58	0.000148
2151.22	0.000216
2160.87	0.00015
2170.52	0.000132
2180.16	0.000181
2189.81	0.000129
2199.46	0.00017
2209.1	0.000156
2218.75	0.000193
2228.4	0.000172
2238.04	0.000177
2247.69	0.000188
2257.34	0.000223
2266.98	0.000232
2276.63	0.0002481
2286.28	0.000215
2295.92	0.00028
2305.57	0.0002549
2315.22	0.0002901
2324.86	0.0002553
2334.51	0.0003018
2344.16	0.0003317
2353.8	0.0003292
2363.45	0.00033888
2373.09	0.000312
2382.74	0.0003153
2392.39	0.00034519
2402.03	0.0002826
2411.68	0.0003084
2421.33	0.0002562
2430.97	0.0002916
2440.62	0.0002749
2450.27	0.0003131
2459.91	0.0002832
2469.56	0.00038913
2479.21	0.00034411
2488.85	0.0002936
2498.5	0.0003033
2508.15	0.0003767
2517.79	0.00038128
2527.44	0.00040723
2537.09	0.00036946
2546.73	0.00041061
2556.38	0.0004658
2566.03	0.00038978
2575.67	0.0004519
2585.32	0.000350185
2594.96	0.00038924
2604.61	0.00041546
2614.26	0.0004556
2623.9	0.0004789
2633.55	0.0005009
2643.2	0.0004736
2652.84	0.0005432
2662.49	0.00043285
2672.14	0.0004767
2681.78	0.0004765
2691.43	0.00041355
2701.08	0.0004698
2710.72	0.0004954
2720.37	0.000619
2730.02	0.0006284
2739.66	0.0005914
2749.31	0.0006378
2758.96	0.0006396
2768.6	0.000671
2778.25	0.0006776
2787.9	0.0006506
2797.54	0.0006069
2807.19	0.0006048
2816.84	0.0007518
2826.48	0.0006136
2836.13	0.0009036
2845.77	0.0008108
2855.42	0.0007816
2865.07	0.0006785
2874.71	0.0007716
2884.36	0.0007933
2894.01	0.0009256
2903.65	0.0007857
2913.3	0.0008663
2922.95	0.0008543
2932.59	0.000985
2942.24	0.001142
2951.89	0.0012112
2961.53	0.0010045
2971.18	0.0010825
2980.83	0.0012453
2990.47	0.0012377
3000.12	0.001398
3009.77	0.001648
3019.41	0.001698
3029.06	0.001908
3038.71	0.001978
3048.35	0.001898
3058	0.001678
3067.64	0.001658
3077.29	0.001438
3086.94	0.001348
3096.58	0.0012317
3106.23	0.0009616
3115.88	0.0010832
3125.52	0.0009773
3135.17	0.0009559
3144.82	0.0011192
3154.46	0.0008733
3164.11	0.0010553
3173.76	0.0009926
3183.4	0.0009274
3193.05	0.0007653
3202.7	0.0009953
3212.34	0.0008841
3221.99	0.0009621
3231.64	0.0009794
3241.28	0.000937
3250.93	0.0011195
3260.58	0.0008542
3270.22	0.0008663
3279.87	0.0008026
3289.52	0.000894
3299.16	0.0007995
3308.81	0.0005246
3318.45	0.0007679
3328.1	0.0007705
3337.75	0.000601
3347.39	0.0005944
3357.04	0.0005817
3366.69	0.0005145
3376.33	0.00042714
3385.98	0.0004697
3395.63	0.00042771
3405.27	0.000357019
3414.92	0.0002922
3424.57	0.0005774
3434.21	0.0003099
3443.86	0.0003283
3453.51	0.000279
3463.15	0.00037858
3472.8	0.000116
3482.45	0.0002825
3492.09	0.00040892
3501.74	0.000152
3511.39	0.000212
3521.03	0.00029
3530.68	9.7e-05
3540.33	6.9e-05
3549.97	0.000254
3559.62	0.00039103
3569.26	0.0003098
3578.91	0.0002664
3588.56	0.000279
3598.2	0.0002928
3607.85	0.00040322
3617.5	0.0004761
3627.14	0.001608
3636.79	0.004248
3646.44	0.004098
3656.08	0.001548
3665.73	0.0007454
3675.38	0.0006275
3685.02	0.00041193
3694.67	0.000231
3704.32	0.000151
3713.96	0.000225
3723.61	0.000139
3733.26	0.000102
3742.9	0.000132
3752.55	0.000174
3762.2	0.0002709
3771.84	0.0002579
3781.49	0.000197
3791.13	0.000144
3800.78	0.000215
3810.43	0.0001
3820.07	0.000206
3829.72	0.000206
3839.37	0.000228
3849.01	0.000232
3858.66	0.0002979
3868.31	0.0002991
3877.95	0.000133
3887.6	0.000176
3897.25	0.0003378
3906.89	0.0003069
3916.54	0.000186
3926.19	0.0002829
3935.83	0.0003154
3945.48	9.7e-05
3955.13	0.0003103
3964.77	0.00012
3974.42	0.000351726
3984.07	0.000168
3993.71	0.000177
