Infrared Spectrum: 2-Hydroxyethyl phenyl sulphide
Formula: C 8 H 10 O S
CAS: 699-12-7
State: gas
Origin: EPA-IR VAPOR PHASE LIBRARY
1/CM	ABSORBANCE
549.8	0.00091018
559.445	0.0015573
569.09	0.0008972
578.734	0.0014448
588.379	0.000671
598.024	0.000303
607.669	0.000559
617.313	7.5e-05
626.958	0.0010211
636.603	0.001294
646.248	0.0011122
655.893	0.00218
665.537	0.00308
675.182	0.00477
684.827	0.00781
694.472	0.00865
704.116	0.00791
713.761	0.00601
723.406	0.00714
733.051	0.01069
742.695	0.01213
752.34	0.00817
761.985	0.00393
771.63	0.00292
781.275	0.0018136
790.919	0.0013559
800.564	0.0013614
810.209	0.00101614
819.854	0.0015452
829.498	0.0014809
839.143	0.001008
848.788	0.001439
858.433	0.0017653
868.078	0.00095285
877.722	0.0015417
887.367	0.0011466
897.012	0.0013282
906.657	0.001832
916.301	0.00276
925.946	0.00353
935.591	0.00331
945.236	0.00239
954.88	0.00228
964.525	0.00249
974.17	0.00221
983.815	0.00373
993.46	0.00473
1003.1	0.00647
1012.75	0.00839
1022.39	0.01339
1032.04	0.01569
1041.68	0.01561
1051.33	0.0141
1060.97	0.01437
1070.62	0.01259
1080.26	0.00801
1089.91	0.0053
1099.55	0.00485
1109.2	0.00367
1118.84	0.00288
1128.49	0.0017831
1138.13	0.00198
1147.78	0.0016775
1157.42	0.00279
1167.07	0.00348
1176.71	0.00531
1186.36	0.00258
1196	0.00329
1205.64	0.00339
1215.29	0.0018634
1224.93	0.0010227
1234.58	0.0010841
1244.22	0.0017592
1253.87	0.00208
1263.51	0.00201
1273.16	0.00356
1282.8	0.00344
1292.45	0.00348
1302.09	0.00303
1311.74	0.00274
1321.38	0.00266
1331.03	0.00298
1340.67	0.00325
1350.32	0.00335
1359.96	0.00348
1369.61	0.00427
1379.25	0.00582
1388.9	0.00621
1398.54	0.005
1408.18	0.00416
1417.83	0.00438
1427.47	0.00471
1437.12	0.00495
1446.76	0.00428
1456.41	0.00366
1466.05	0.00483
1475.7	0.0084
1485.34	0.00753
1494.99	0.00317
1504.63	0.0018622
1514.28	0.0017233
1523.92	0.0015423
1533.57	0.0013147
1543.21	0.0013348
1552.86	0.0014709
1562.5	0.00203
1572.15	0.00355
1581.79	0.00538
1591.44	0.00435
1601.08	0.00216
1610.73	0.0012689
1620.37	0.000698
1630.01	0.0010246
1639.66	0.0011336
1649.3	0.0010809
1658.95	0.000923422
1668.59	0.0008
1678.24	0.0008954
1687.88	0.000926659
1697.53	0.0012066
1707.17	0.000894
1716.82	0.000786
1726.46	0.00094984
1736.11	0.0008628
1745.75	0.00093688
1755.4	0.0008924
1765.04	0.00098629
1774.69	0.0011808
1784.33	0.0013908
1793.98	0.0012959
1803.62	0.0011748
1813.27	0.000929409
1822.91	0.00100289
1832.55	0.000973
1842.2	0.0011116
1851.84	0.0012004
1861.49	0.0013374
1871.13	0.0015112
1880.78	0.0011682
1890.42	0.0011059
1900.07	0.0008271
1909.71	0.001172
1919.36	0.001091
1929	0.0012482
1938.65	0.0014084
1948.29	0.0014701
1957.94	0.0010737
1967.58	0.0010232
1977.23	0.0009708
1986.87	0.0012026
1996.52	0.00096682
2006.16	0.00093647
2015.81	0.0008432
2025.45	0.00093558
2035.1	0.0008369
2044.74	0.000781
2054.38	0.000787
2064.03	0.000712
2073.67	0.000706
2083.32	0.0008249
2092.96	0.00091121
2102.61	0.00082
2112.25	0.000682
2121.9	0.00095378
2131.54	0.000706
2141.19	0.000511
2150.83	0.000751
2160.48	0.000723
2170.12	0.00095611
2179.77	0.00091126
2189.41	0.0008834
2199.06	0.0008376
2208.7	0.000854
2218.35	0.00099159
2227.99	0.00082
2237.64	0.000792
2247.28	0.0009994
2256.92	0.000663
2266.57	0.00101523
2276.21	0.000653
2285.86	0.0010531
2295.5	0.0008341
2305.15	0.000694
2314.79	0.00082
2324.44	0.000759
2334.08	0.0008841
2343.73	0.000884
2353.37	0.0008368
2363.02	0.0008204
2372.66	0.0009803
2382.31	0.00094505
2391.95	0.000791
2401.6	0.000773
2411.24	0.00094406
2420.89	0.00097407
2430.53	0.000774
2440.18	0.000782
2449.82	0.0011703
2459.47	0.000920009
2469.11	0.00071
2478.75	0.0008872
2488.4	0.000811
2498.04	0.000716
2507.69	0.000764
2517.33	0.000823
2526.98	0.0010348
2536.62	0.0008646
2546.27	0.0008674
2555.91	0.000717
2565.56	0.0009869
2575.2	0.00097064
2584.85	0.000696
2594.49	0.0008546
2604.14	0.00094088
2613.78	0.00099737
2623.43	0.0009577
2633.07	0.0008764
2642.72	0.000777
2652.36	0.00100805
2662.01	0.0011399
2671.65	0.00101679
2681.29	0.0013017
2690.94	0.00095604
2700.58	0.0010559
2710.23	0.0012595
2719.87	0.0009097
2729.52	0.00099716
2739.16	0.0014271
2748.81	0.0013602
2758.45	0.0011448
2768.1	0.0011634
2777.74	0.0011305
2787.39	0.0010988
2797.03	0.0013422
2806.68	0.0018461
2816.32	0.0015032
2825.97	0.0016079
2835.61	0.0016149
2845.26	0.00232
2854.9	0.0028
2864.55	0.00418
2874.19	0.0057
2883.84	0.00589
2893.48	0.00461
2903.12	0.00465
2912.77	0.00525
2922.41	0.00715
2932.06	0.00952
2941.7	0.00879
2951.35	0.0072
2960.99	0.00654
2970.64	0.00577
2980.28	0.00434
2989.93	0.00273
2999.57	0.00226
3009.22	0.00245
3018.86	0.00315
3028.51	0.00339
3038.15	0.00293
3047.8	0.00308
3057.44	0.00567
3067.09	0.00899
3076.73	0.00949
3086.38	0.00654
3096.02	0.00414
3105.67	0.00228
3115.31	0.001251
3124.95	0.0012009
3134.6	0.0011151
3144.24	0.0011765
3153.89	0.0009087
3163.53	0.0008706
3173.18	0.000757
3182.82	0.000519
3192.47	0.00096902
3202.11	0.00101996
3211.76	0.00096975
3221.4	0.000669
3231.05	0.000655
3240.69	0.000285
3250.34	0.000692
3259.98	0.00069
3269.63	0.0008503
3279.27	0.000719
3288.92	0.0016694
3298.56	0.0015286
3308.21	0.000544
3317.85	0.000762
3327.49	0.00072
3337.14	0.0008869
3346.78	0.0008
3356.43	0.0008383
3366.07	0.000799
3375.72	0.00061
3385.36	0.000602
3395.01	0.000441
3404.65	0.000785
3414.3	0.000776
3423.94	0.0013194
3433.59	0.0008719
3443.23	0.0011557
3452.88	0.00054
3462.52	0.0012244
3472.17	0.000761
3481.81	0.0011017
3491.46	0.0011226
3501.1	0.0012844
3510.75	0.0011779
3520.39	0.0010997
3530.04	0.001738
3539.68	0.000642
3549.32	0.0013918
3558.97	0.000638
3568.61	0.0015144
3578.26	0.0018361
3587.9	0.0025
3597.55	0.00236
3607.19	0.001573
3616.84	0.00199
3626.48	0.00196
3636.13	0.0017539
3645.77	0.00217
3655.42	0.00324
3665.06	0.00329
3674.71	0.00302
3684.35	0.00208
3694	0.0014796
3703.64	0.0013723
3713.29	0.0012259
3722.93	0.00119
3732.58	0.0010996
3742.22	0.0010403
3751.86	0.000584
3761.51	0.000527
3771.15	0.000441
3780.8	0.000244
3790.44	0.0013465
3800.09	0.0011902
3809.73	0.0008951
3819.38	0.000627
3829.02	0.0013654
3838.67	0.0013006
3848.31	0.0011503
3857.96	0.000333
3867.6	0.0013898
3877.25	0.000627
3886.89	0.0009786
3896.54	0.000284
3906.18	0.0010743
3915.83	0.000354
3925.47	0.000646
3935.12	0.000602
3944.76	0.0010947
3954.41	0.000796
3964.05	0.0012689
3973.69	0.00054
3983.34	0.000275
3992.98	0.000532
