Infrared Spectrum: P-HYDROXYBENZALDOXIME
Formula: C7 H7 N O2
CAS: 699-06-9
State: SOLID (MINERAL OIL MULL)
Class: COBLENTZ
Instrument: Not specified, most likely a prism, grating, or hybrid spectrometer.
Sampling: TRANSMISSION
Resolution: 4
Origin: DOW CHEMICAL COMPANY
MICROMETERS	TRANSMITTANCE
2.034	0.526
2.07534	0.53
2.11668	0.536
2.15802	0.542
2.19936	0.547
2.2407	0.552
2.28204	0.557
2.32338	0.562
2.36472	0.572
2.40606	0.588
2.4474	0.602
2.48874	0.622
2.53008	0.636
2.57142	0.646
2.61277	0.656
2.65411	0.668
2.69545	0.675
2.73679	0.682
2.77813	0.694
2.81947	0.665
2.86081	0.55
2.90215	0.404
2.94349	0.212
2.98483	0.126
3.02617	0.241
3.06751	0.274
3.10885	0.277
3.15019	0.279
3.19153	0.293
3.23287	0.315
3.27421	0.327
3.31555	0.336
3.35689	0.267
3.39823	0.14
3.43957	0.13
3.48091	0.2
3.52225	0.331
3.56359	0.456
3.60493	0.468
3.64627	0.485
3.68761	0.548
3.72895	0.583
3.7703	0.602
3.81164	0.614
3.85298	0.632
3.89432	0.653
3.93566	0.672
3.977	0.687
4.01834	0.703
4.05968	0.71
4.10102	0.722
4.14236	0.746
4.1837	0.754
4.22504	0.763
4.26638	0.771
4.30772	0.795
4.34906	0.797
4.3904	0.802
4.43174	0.806
4.47308	0.809
4.51442	0.818
4.55576	0.821
4.5971	0.825
4.63844	0.826
4.67978	0.828
4.72112	0.831
4.76246	0.838
4.8038	0.819
4.84514	0.838
4.88648	0.845
4.92783	0.852
4.96917	0.855
5.01051	0.862
5.05185	0.862
5.09319	0.861
5.13453	0.85
5.17587	0.854
5.21721	0.842
5.25855	0.83
5.29989	0.819
5.34123	0.847
5.38257	0.871
5.42391	0.874
5.46525	0.871
5.50659	0.878
5.54793	0.879
5.58927	0.879
5.63061	0.878
5.67195	0.879
5.71329	0.883
5.75463	0.891
5.79597	0.895
5.83731	0.879
5.87865	0.867
5.91999	0.867
5.96133	0.867
6.00267	0.843
6.04401	0.795
6.08536	0.753
6.1267	0.66
6.16804	0.454
6.20938	0.188
6.25072	0.42
6.29206	0.471
6.3334	0.713
6.37474	0.765
6.41608	0.795
6.45742	0.807
6.49876	0.749
6.5401	0.564
6.58144	0.415
6.62278	0.423
6.66412	0.644
6.70546	0.584
6.7468	0.524
6.78814	0.457
6.82948	0.382
6.87082	0.404
6.91216	0.442
6.9535	0.332
6.99484	0.397
7.03618	0.679
7.07752	0.735
7.11886	0.703
7.1602	0.672
7.20154	0.586
7.24289	0.493
7.28423	0.449
7.32557	0.485
7.36691	0.615
7.40825	0.662
7.44959	0.694
7.49093	0.617
7.53227	0.542
7.57361	0.668
7.61495	0.548
7.65629	0.358
7.69763	0.593
7.73897	0.614
7.78031	0.473
7.82165	0.161
7.86299	0.253
7.90433	0.43
7.94567	0.53
7.98701	0.512
8.02835	0.408
8.06969	0.312
8.11103	0.363
8.15237	0.389
8.19371	0.341
8.23505	0.19
8.27639	0.186
8.31773	0.353
8.35907	0.542
8.40042	0.626
8.44176	0.67
8.4831	0.655
8.52444	0.519
8.56578	0.349
8.60712	0.444
8.64846	0.638
8.6898	0.692
8.73114	0.715
8.77248	0.734
8.81382	0.749
8.85516	0.768
8.8965	0.775
8.93784	0.773
8.97918	0.735
9.02052	0.595
9.06186	0.542
9.1032	0.716
9.14454	0.799
9.18588	0.811
9.22722	0.823
9.26856	0.828
9.3099	0.833
9.35124	0.838
9.39258	0.843
9.43392	0.849
9.47526	0.854
9.5166	0.864
9.55795	0.869
9.59929	0.874
9.64063	0.881
9.68197	0.885
9.72331	0.888
9.76465	0.89
9.80599	0.89
9.84733	0.881
9.88867	0.881
9.93001	0.897
9.97135	0.898
10.0127	0.9
10.054	0.902
10.0954	0.897
10.1367	0.885
10.1781	0.866
10.2194	0.816
10.2607	0.742
10.3021	0.662
10.3434	0.502
10.3848	0.327
10.4261	0.222
10.4674	0.169
10.5088	0.176
10.5501	0.24
10.5915	0.348
10.6328	0.454
10.6741	0.469
10.7155	0.56
10.7568	0.61
10.7982	0.699
10.8395	0.746
10.8808	0.765
10.9222	0.778
10.9635	0.785
11.0049	0.797
11.0462	0.807
11.0875	0.813
11.1289	0.814
11.1702	0.814
11.2116	0.795
11.2529	0.749
11.2942	0.639
11.3356	0.485
11.3769	0.346
11.4183	0.274
11.4596	0.391
11.5009	0.59
11.5423	0.658
11.5836	0.627
11.625	0.507
11.6663	0.471
11.7076	0.643
11.749	0.66
11.7903	0.668
11.8317	0.672
11.873	0.662
11.9143	0.603
11.9557	0.502
11.997	0.413
12.0384	0.348
12.0797	0.409
12.121	0.54
12.1624	0.571
12.2037	0.521
12.2451	0.428
12.2864	0.351
12.3277	0.449
12.3691	0.499
12.4104	0.567
12.4518	0.631
12.4931	0.648
12.5345	0.66
12.5758	0.667
12.6171	0.674
12.6585	0.679
12.6998	0.684
12.7412	0.687
12.7825	0.689
12.8238	0.692
12.8652	0.696
12.9065	0.696
12.9479	0.696
12.9892	0.696
13.0305	0.696
13.0719	0.696
13.1132	0.694
13.1546	0.691
13.1959	0.686
13.2372	0.68
13.2786	0.675
13.3199	0.67
13.3613	0.662
13.4026	0.656
13.4439	0.651
13.4853	0.639
13.5266	0.631
13.568	0.62
13.6093	0.61
13.6506	0.598
13.692	0.584
13.7333	0.564
13.7747	0.531
13.816	0.509
13.8573	0.502
13.8987	0.518
13.94	0.518
13.9814	0.509
14.0227	0.5
14.064	0.492
14.1054	0.481
14.1467	0.476
14.1881	0.469
14.2294	0.463
14.2707	0.457
14.3121	0.454
14.3534	0.454
14.3948	0.454
14.4361	0.457
14.4774	0.461
14.5188	0.461
14.5601	0.457
14.6015	0.454
14.6428	0.447
14.6841	0.442
14.7255	0.437
14.7668	0.427
14.8082	0.418
14.8495	0.411
14.8909	0.401
14.9322	0.389
14.9735	0.377
15.0149	0.365
15.0562	0.351
15.0976	0.334
15.1389	0.317
15.1802	0.307
15.2216	0.296
15.2629	0.286
15.3043	0.281
15.3456	0.274
15.3869	0.272
15.4283	0.255
15.4696	0.252
15.511	0.243
15.5523	0.24
15.5936	0.236
15.635	0.233
15.6763	0.231
15.7177	0.228
15.759	0.229
15.8003	0.234
15.8417	0.234
15.883	0.233
