Infrared Spectrum: 4-METHYL-6-OXO-1,2,3a,7-TETRAZAINDENE
Formula: C6 H6 N4 O
CAS: 69924-53-4
State: SOLID (KBr PRESSING)
Melting point: 296-298 C
Class: COBLENTZ
Instrument: Not specified, most likely a prism, grating, or hybrid spectrometer.
Sampling: TRANSMISSION
Resolution: 4
Origin: EASTMAN KODAK COMPANY, RESEARCH LABORATORIES, ROCHESTER, N.Y.
MICROMETERS	TRANSMITTANCE
2.038	0.777
2.0731	0.779
2.1082	0.781
2.14329	0.788
2.17839	0.789
2.21349	0.789
2.24859	0.795
2.28369	0.803
2.31878	0.807
2.35388	0.81
2.38898	0.803
2.42408	0.8
2.45918	0.812
2.49427	0.819
2.52937	0.823
2.56447	0.828
2.59957	0.835
2.63467	0.844
2.66976	0.847
2.70486	0.837
2.73996	0.774
2.77506	0.621
2.81016	0.387
2.84525	0.236
2.88035	0.224
2.91545	0.315
2.95055	0.464
2.98565	0.511
3.02074	0.513
3.05584	0.565
3.09094	0.642
3.12604	0.663
3.16114	0.672
3.19623	0.577
3.23133	0.353
3.26643	0.471
3.30153	0.49
3.33663	0.516
3.37172	0.469
3.40682	0.409
3.44192	0.436
3.47702	0.467
3.51212	0.474
3.54721	0.479
3.58231	0.458
3.61741	0.418
3.65251	0.415
3.68761	0.439
3.7227	0.481
3.7578	0.537
3.7929	0.569
3.828	0.597
3.8631	0.619
3.89819	0.64
3.93329	0.67
3.96839	0.695
4.00349	0.718
4.03859	0.74
4.07368	0.753
4.10878	0.772
4.14388	0.791
4.17898	0.795
4.21408	0.791
4.24917	0.796
4.28427	0.805
4.31937	0.831
4.35447	0.842
4.38957	0.852
4.42466	0.856
4.45976	0.859
4.49486	0.861
4.52996	0.863
4.56506	0.863
4.60015	0.866
4.63525	0.868
4.67035	0.879
4.70545	0.889
4.74055	0.894
4.77564	0.894
4.81074	0.9
4.84584	0.907
4.88094	0.919
4.91604	0.915
4.95113	0.919
4.98623	0.921
5.02133	0.91
5.05643	0.915
5.09153	0.914
5.12662	0.919
5.16172	0.919
5.19682	0.914
5.23192	0.898
5.26702	0.898
5.30211	0.9
5.33721	0.898
5.37231	0.907
5.40741	0.908
5.44251	0.9
5.4776	0.889
5.5127	0.863
5.5478	0.851
5.5829	0.837
5.61799	0.782
5.65309	0.767
5.68819	0.746
5.72329	0.7
5.75839	0.598
5.79348	0.39
5.82858	0.313
5.86368	0.175
5.89878	0.145
5.93388	0.066
5.96897	0.066
6.00407	0.11
6.03917	0.267
6.07427	0.357
6.10937	0.432
6.14446	0.469
6.17956	0.306
6.21466	0.155
6.24976	0.189
6.28486	0.362
6.31995	0.469
6.35505	0.558
6.39015	0.591
6.42525	0.626
6.46035	0.64
6.49544	0.681
6.53054	0.702
6.56564	0.416
6.60074	0.229
6.63584	0.309
6.67093	0.464
6.70603	0.57
6.74113	0.667
6.77623	0.609
6.81133	0.602
6.84642	0.639
6.88152	0.6
6.91662	0.436
6.95172	0.534
6.98682	0.369
7.02191	0.192
7.05701	0.378
7.09211	0.577
7.12721	0.626
7.16231	0.549
7.1974	0.385
7.2325	0.518
7.2676	0.541
7.3027	0.612
7.3378	0.711
7.37289	0.758
7.40799	0.782
7.44309	0.798
7.47819	0.805
7.51329	0.814
7.54838	0.812
7.58348	0.809
7.61858	0.756
7.65368	0.502
7.68878	0.504
7.72387	0.581
7.75897	0.614
7.79407	0.642
7.82917	0.709
7.86427	0.749
7.89936	0.761
7.93446	0.761
7.96956	0.695
8.00466	0.667
8.03976	0.73
8.07485	0.751
8.10995	0.765
8.14505	0.711
8.18015	0.635
8.21525	0.683
8.25034	0.723
8.28544	0.737
8.32054	0.749
8.35564	0.76
8.39074	0.772
8.42583	0.775
8.46093	0.781
8.49603	0.789
8.53113	0.791
8.56623	0.789
8.60132	0.788
8.63642	0.784
8.67152	0.788
8.70662	0.791
8.74172	0.791
8.77681	0.795
8.81191	0.796
8.84701	0.798
8.88211	0.8
8.91721	0.796
8.9523	0.788
8.9874	0.768
9.0225	0.775
9.0576	0.789
9.0927	0.803
9.12779	0.802
9.16289	0.802
9.19799	0.805
9.23309	0.81
9.26819	0.81
9.30328	0.81
9.33838	0.812
9.37348	0.812
9.40858	0.809
9.44368	0.817
9.47877	0.812
9.51387	0.8
9.54897	0.77
9.58407	0.747
9.61917	0.761
9.65426	0.733
9.68936	0.579
9.72446	0.623
9.75956	0.721
9.79466	0.742
9.82975	0.723
9.86485	0.76
9.89995	0.793
9.93505	0.8
9.97015	0.809
10.0052	0.819
10.0403	0.826
10.0754	0.837
10.1105	0.835
10.1456	0.796
10.1807	0.732
10.2158	0.6
10.2509	0.441
10.286	0.649
10.3211	0.728
10.3562	0.761
10.3913	0.779
10.4264	0.756
10.4615	0.716
10.4966	0.633
10.5317	0.625
10.5668	0.67
10.6019	0.725
10.637	0.749
10.6721	0.777
10.7072	0.795
10.7423	0.807
10.7774	0.817
10.8125	0.817
10.8476	0.817
10.8827	0.812
10.9178	0.803
10.9529	0.793
10.988	0.781
11.0231	0.758
11.0582	0.74
11.0933	0.73
11.1284	0.7
11.1635	0.681
11.1986	0.684
11.2337	0.698
11.2688	0.698
11.3039	0.661
11.339	0.546
11.3741	0.469
11.4092	0.399
11.4443	0.39
11.4794	0.399
11.5145	0.444
11.5496	0.485
11.5847	0.513
11.6198	0.53
11.6548	0.558
11.6899	0.59
11.725	0.619
11.7601	0.637
11.7952	0.658
11.8303	0.674
11.8654	0.69
11.9005	0.704
11.9356	0.725
11.9707	0.74
12.0058	0.76
12.0409	0.779
12.076	0.795
12.1111	0.803
12.1462	0.805
12.1813	0.816
12.2164	0.826
12.2515	0.833
12.2866	0.835
12.3217	0.84
12.3568	0.844
12.3919	0.849
12.427	0.851
12.4621	0.851
12.4972	0.852
12.5323	0.858
12.5674	0.851
12.6025	0.844
12.6376	0.845
12.6727	0.845
12.7078	0.847
12.7429	0.847
12.778	0.84
12.8131	0.833
12.8482	0.831
12.8833	0.821
12.9184	0.819
12.9535	0.814
12.9886	0.809
13.0237	0.798
13.0588	0.789
13.0939	0.782
13.129	0.779
13.1641	0.779
13.1992	0.775
13.2343	0.774
13.2694	0.76
13.3045	0.723
13.3396	0.64
13.3747	0.572
13.4097	0.66
13.4448	0.74
13.4799	0.802
13.515	0.83
13.5501	0.851
13.5852	0.856
13.6203	0.861
13.6554	0.865
13.6905	0.866
13.7256	0.872
13.7607	0.873
13.7958	0.872
13.8309	0.87
13.866	0.863
13.9011	0.861
13.9362	0.845
13.9713	0.833
14.0064	0.816
14.0415	0.802
14.0766	0.798
14.1117	0.782
14.1468	0.756
14.1819	0.733
14.217	0.7
14.2521	0.67
14.2872	0.64
14.3223	0.619
14.3574	0.616
14.3925	0.644
14.4276	0.705
14.4627	0.754
14.4978	0.795
14.5329	0.809
14.568	0.812
14.6031	0.814
14.6382	0.821
14.6733	0.824
14.7084	0.824
14.7435	0.823
14.7786	0.817
14.8137	0.814
14.8488	0.81
14.8839	0.812
14.919	0.814
14.9541	0.803
14.9892	0.796
15.0243	0.789
15.0594	0.784
15.0945	0.779
15.1296	0.777
15.1646	0.77
15.1997	0.761
15.2348	0.747
15.2699	0.732
15.305	0.709
15.3401	0.683
15.3752	0.647
15.4103	0.595
15.4454	0.576
15.4805	0.577
15.5156	0.611
15.5507	0.656
15.5858	0.691
15.6209	0.728
15.656	0.74
15.6911	0.744
15.7262	0.744
15.7613	0.742
15.7964	0.737
15.8315	0.73
15.8666	0.728
15.9017	0.725
15.9368	0.721
15.9719	0.721
16.007	0.719
