Infrared Spectrum: BENZOPHENONE, 2,4-DIHYDROXY-4'-NITRO-
Formula: C13 H9 N O5
CAS: 6994-40-7
State: SOLID (OIL MULL)
Class: COBLENTZ
Instrument: Not specified, most likely a prism, grating, or hybrid spectrometer.
Sampling: TRANSMISSION
Resolution: 4
Origin: TENNESSEE EASTMAN COMPANY, RESEARCH LABORATORIES
MICROMETERS	TRANSMITTANCE
2.014	0.404
2.05509	0.404
2.09619	0.405
2.13728	0.405
2.17838	0.409
2.21947	0.412
2.26056	0.417
2.30166	0.419
2.34275	0.426
2.38385	0.433
2.42494	0.45
2.46604	0.453
2.50713	0.465
2.54822	0.47
2.58932	0.489
2.63041	0.503
2.67151	0.522
2.7126	0.539
2.75369	0.559
2.79479	0.582
2.83588	0.594
2.87698	0.595
2.91807	0.498
2.95916	0.469
3.00026	0.434
3.04135	0.405
3.08245	0.446
3.12354	0.457
3.16464	0.467
3.20573	0.477
3.24682	0.464
3.28792	0.462
3.32901	0.344
3.37011	0.049
3.4112	0.022
3.45229	0.032
3.49339	0.051
3.53448	0.469
3.57558	0.559
3.61667	0.599
3.65776	0.599
3.69886	0.59
3.73995	0.592
3.78105	0.594
3.82214	0.599
3.86324	0.602
3.90433	0.618
3.94542	0.626
3.98652	0.642
4.02761	0.652
4.06871	0.662
4.1098	0.667
4.15089	0.669
4.19199	0.672
4.23308	0.684
4.27418	0.703
4.31527	0.724
4.35637	0.726
4.39746	0.727
4.43855	0.726
4.47965	0.731
4.52074	0.734
4.56184	0.738
4.60293	0.75
4.64402	0.76
4.68512	0.768
4.72621	0.773
4.76731	0.775
4.8084	0.784
4.84949	0.785
4.89059	0.787
4.93168	0.789
4.97278	0.799
5.01387	0.811
5.05497	0.816
5.09606	0.816
5.13715	0.816
5.17825	0.816
5.21934	0.821
5.26044	0.827
5.30153	0.835
5.34262	0.842
5.38372	0.849
5.42481	0.854
5.46591	0.864
5.507	0.868
5.54809	0.869
5.58919	0.878
5.63028	0.892
5.67138	0.902
5.71247	0.904
5.75357	0.909
5.79466	0.914
5.83575	0.914
5.87685	0.916
5.91794	0.919
5.95904	0.919
6.00013	0.898
6.04122	0.813
6.08232	0.7
6.12341	0.484
6.16451	0.383
6.2056	0.385
6.24669	0.38
6.28779	0.33
6.32888	0.5
6.36998	0.604
6.41107	0.683
6.45217	0.722
6.49326	0.678
6.53435	0.537
6.57545	0.41
6.61654	0.417
6.65764	0.479
6.69873	0.511
6.73982	0.498
6.78092	0.321
6.82201	0.214
6.86311	0.215
6.9042	0.34
6.94529	0.51
6.98639	0.602
7.02748	0.698
7.06858	0.748
7.10967	0.702
7.15077	0.719
7.19186	0.568
7.23295	0.361
7.27405	0.325
7.31514	0.356
7.35624	0.368
7.39733	0.325
7.43842	0.301
7.47952	0.301
7.52061	0.349
7.56171	0.464
7.6028	0.481
7.64389	0.561
7.68499	0.537
7.72608	0.523
7.76718	0.476
7.80827	0.453
7.84937	0.464
7.89046	0.517
7.93155	0.561
7.97265	0.57
8.01374	0.476
8.05484	0.383
8.09593	0.373
8.13702	0.398
8.17812	0.428
8.21921	0.462
8.26031	0.467
8.3014	0.469
8.3425	0.467
8.38359	0.458
8.42468	0.467
8.46578	0.484
8.50687	0.493
8.54797	0.501
8.58906	0.53
8.63015	0.563
8.67125	0.597
8.71234	0.623
8.75344	0.648
8.79453	0.679
8.83562	0.702
8.87672	0.702
8.91781	0.539
8.95891	0.496
9	0.501
9.0411	0.503
9.08219	0.585
9.12328	0.631
9.16438	0.659
9.20547	0.679
9.24657	0.695
9.28766	0.702
9.32875	0.717
9.36985	0.724
9.41094	0.731
9.45204	0.734
9.49313	0.741
9.53422	0.743
9.57532	0.748
9.61641	0.755
9.65751	0.767
9.6986	0.775
9.7397	0.782
9.78079	0.789
9.82188	0.768
9.86298	0.753
9.90407	0.765
9.94517	0.78
9.98626	0.789
10.0274	0.791
10.0684	0.792
10.1095	0.785
10.1506	0.707
10.1917	0.643
10.2328	0.66
10.2739	0.714
10.315	0.741
10.3561	0.748
10.3972	0.755
10.4383	0.78
10.4794	0.791
10.5205	0.801
10.5616	0.82
10.6027	0.833
10.6438	0.839
10.6849	0.842
10.726	0.815
10.767	0.652
10.8081	0.565
10.8492	0.592
10.8903	0.678
10.9314	0.732
10.9725	0.768
11.0136	0.789
11.0547	0.803
11.0958	0.815
11.1369	0.827
11.178	0.835
11.2191	0.842
11.2602	0.844
11.3013	0.851
11.3424	0.851
11.3835	0.847
11.4246	0.811
11.4656	0.751
11.5067	0.731
11.5478	0.734
11.5889	0.684
11.63	0.556
11.6711	0.493
11.7122	0.481
11.7533	0.481
11.7944	0.482
11.8355	0.479
11.8766	0.52
11.9177	0.601
11.9588	0.652
11.9999	0.671
12.041	0.686
12.0821	0.695
12.1232	0.695
12.1642	0.695
12.2053	0.705
12.2464	0.72
12.2875	0.739
12.3286	0.75
12.3697	0.765
12.4108	0.772
12.4519	0.775
12.493	0.775
12.5341	0.75
12.5752	0.724
12.6163	0.714
12.6574	0.717
12.6985	0.741
12.7396	0.777
12.7807	0.792
12.8218	0.801
12.8628	0.804
12.9039	0.806
12.945	0.808
12.9861	0.804
13.0272	0.785
13.0683	0.77
13.1094	0.746
13.1505	0.731
13.1916	0.724
13.2327	0.72
13.2738	0.72
13.3149	0.72
13.356	0.719
13.3971	0.702
13.4382	0.695
13.4793	0.693
13.5204	0.693
13.5614	0.695
13.6025	0.698
13.6436	0.698
13.6847	0.688
13.7258	0.652
13.7669	0.63
13.808	0.638
13.8491	0.664
13.8902	0.693
13.9313	0.7
13.9724	0.7
14.0135	0.681
14.0546	0.648
14.0957	0.602
14.1368	0.549
14.1779	0.511
14.219	0.51
14.26	0.554
14.3011	0.613
14.3422	0.654
14.3833	0.679
14.4244	0.688
14.4655	0.688
14.5066	0.691
14.5477	0.69
14.5888	0.69
14.6299	0.686
14.671	0.683
14.7121	0.683
14.7532	0.683
14.7943	0.684
14.8354	0.688
14.8765	0.69
14.9176	0.69
14.9586	0.688
14.9997	0.693
15.0408	0.696
15.0819	0.695
15.123	0.691
15.1641	0.69
15.2052	0.691
15.2463	0.688
15.2874	0.688
15.3285	0.686
15.3696	0.681
15.4107	0.676
15.4518	0.674
15.4929	0.669
15.534	0.662
15.5751	0.65
15.6162	0.635
15.6572	0.625
15.6983	0.618
15.7394	0.614
15.7805	0.614
15.8216	0.614
15.8627	0.614
15.9038	0.616
15.9449	0.619
15.986	0.618
