Infrared Spectrum: Ethyl-3-aminopyrazole-4-carboxylic acid
Formula: C 6 H 9 N 3 O 2
CAS: 6994-25-8
State: gas
Origin: EPA-IR VAPOR PHASE LIBRARY
1/CM	ABSORBANCE
501.5	0.00422
513.074	0.00283
524.648	0.00296
536.222	0.00228
547.796	0.00185
559.37	0.00177
570.944	0.0017
582.518	0.00167
594.092	0.00185
605.666	0.00202
617.24	0.00275
628.814	0.00364
640.388	0.00335
651.962	0.00269
663.536	0.00203
675.11	0.00183
686.684	0.0018
698.258	0.00185
709.832	0.00189
721.406	0.00195
732.98	0.00184
744.554	0.00175
756.128	0.00257
767.702	0.00451
779.276	0.00564
790.85	0.00412
802.423	0.00245
813.997	0.00191
825.571	0.00204
837.145	0.00195
848.719	0.00167
860.293	0.00154
871.867	0.00177
883.441	0.00176
895.015	0.00169
906.589	0.00307
918.163	0.00632
929.737	0.00578
941.311	0.00354
952.885	0.00369
964.459	0.00595
976.033	0.00607
987.607	0.00344
999.181	0.00226
1010.76	0.00238
1022.33	0.00289
1033.9	0.00335
1045.48	0.00351
1057.05	0.00482
1068.63	0.01038
1080.2	0.01606
1091.77	0.01582
1103.35	0.01758
1114.92	0.02357
1126.49	0.02841
1138.07	0.01868
1149.64	0.00898
1161.22	0.0064
1172.79	0.00707
1184.36	0.00884
1195.94	0.00721
1207.51	0.00307
1219.09	0.00179
1230.66	0.00286
1242.23	0.00417
1253.81	0.0049
1265.38	0.00587
1276.96	0.0077
1288.53	0.00758
1300.1	0.00456
1311.68	0.0069
1323.25	0.01684
1334.83	0.01717
1346.4	0.00648
1357.97	0.00451
1369.55	0.00668
1381.12	0.00652
1392.7	0.00358
1404.27	0.00287
1415.84	0.00232
1427.42	0.00299
1438.99	0.00503
1450.57	0.00722
1462.14	0.00671
1473.71	0.00418
1485.29	0.00437
1496.86	0.00809
1508.44	0.01063
1520.01	0.00867
1531.58	0.00704
1543.16	0.00546
1554.73	0.00857
1566.31	0.01599
1577.88	0.01392
1589.45	0.01072
1601.03	0.0157
1612.6	0.01819
1624.18	0.01429
1635.75	0.00821
1647.32	0.00434
1658.9	0.00324
1670.47	0.00332
1682.05	0.00498
1693.62	0.00999
1705.19	0.01769
1716.77	0.02594
1728.34	0.02775
1739.92	0.01776
1751.49	0.00737
1763.06	0.00262
1774.64	0.00158
1786.21	0.00127
1797.79	0.00106
1809.36	0.0008492
1820.93	0.0007171
1832.51	0.0006277
1844.08	0.0005668
1855.66	0.0005387
1867.23	0.0004672
1878.8	0.0004376
1890.38	0.0004197
1901.95	0.0003641
1913.53	0.0003553
1925.1	0.0003632
1936.67	0.0003897
1948.25	0.0004062
1959.82	0.0003491
1971.4	0.0003648
1982.97	0.0003323
1994.54	0.0003651
2006.12	0.000336
2017.69	0.0003184
2029.27	0.0002604
2040.84	0.000234
2052.41	0.0002408
2063.99	0.0001976
2075.56	0.000202
2087.14	0.0002212
2098.71	0.0002373
2110.28	0.0002589
2121.86	0.0002427
2133.43	0.0002571
2145.01	0.0002818
2156.58	0.0002552
2168.15	0.0002574
2179.73	0.0002211
2191.3	0.0002358
2202.88	0.0002633
2214.45	0.0002533
2226.02	0.0002661
2237.6	0.0003144
2249.17	0.0002651
2260.74	0.0002407
2272.32	0.000244
2283.89	0.0002289
2295.47	0.0002081
2307.04	0.0002197
2318.61	0.0002079
2330.19	0.0002016
2341.76	0.0001848
2353.34	0.0001722
2364.91	0.0002179
2376.48	0.0001884
2388.06	0.0001861
2399.63	0.0001953
2411.21	0.0001787
2422.78	0.0001365
2434.35	0.000154
2445.93	0.0001723
2457.5	0.000201
2469.08	0.0001937
2480.65	0.0001838
2492.22	0.0001606
2503.8	0.0001796
2515.37	0.0002227
2526.95	0.0002536
2538.52	0.0002339
2550.09	0.0001864
2561.67	0.0001748
2573.24	0.000185
2584.82	0.0001891
2596.39	0.0002033
2607.96	0.0001852
2619.54	0.0002384
2631.11	0.0002991
2642.69	0.0002926
2654.26	0.0001945
2665.83	0.000173
2677.41	0.0001515
2688.98	0.000174
2700.56	0.0002141
2712.13	0.0002328
2723.7	0.0002808
2735.28	0.0002581
2746.85	0.0003074
2758.43	0.0003228
2770	0.0003345
2781.57	0.000361
2793.15	0.0003792
2804.72	0.0003638
2816.3	0.0003767
2827.87	0.0004795
2839.44	0.0004914
2851.02	0.0005342
2862.59	0.0006724
2874.17	0.0009802
2885.74	0.00138
2897.31	0.00151
2908.89	0.00173
2920.46	0.00178
2932.04	0.00226
2943.61	0.00326
2955.18	0.00317
2966.76	0.00353
2978.33	0.00518
2989.91	0.00567
3001.48	0.00361
3013.05	0.00211
3024.63	0.00125
3036.2	0.000826
3047.78	0.0007014
3059.35	0.0005395
3070.92	0.0004802
3082.5	0.0005371
3094.07	0.0004907
3105.65	0.0004405
3117.22	0.0004991
3128.79	0.0005443
3140.37	0.0004891
3151.94	0.0004316
3163.52	0.0003987
3175.09	0.0003599
3186.66	0.0003759
3198.24	0.0003075
3209.81	0.000381
3221.39	0.0004085
3232.96	0.0004057
3244.53	0.0003757
3256.11	0.0003802
3267.68	0.0003317
3279.26	0.0004026
3290.83	0.0003596
3302.4	0.0003752
3313.98	0.0003862
3325.55	0.0004349
3337.13	0.0005572
3348.7	0.0006853
3360.27	0.00124
3371.85	0.00184
3383.42	0.00154
3395	0.00171
3406.57	0.00239
3418.14	0.00217
3429.72	0.00137
3441.29	0.0009934
3452.86	0.00116
3464.44	0.00177
3476.01	0.00309
3487.59	0.00491
3499.16	0.00823
3510.73	0.01284
3522.31	0.01348
3533.88	0.00513
3545.46	0.00123
3557.03	0.0006151
3568.6	0.000437
3580.18	0.0004236
3591.75	0.0003694
3603.33	0.0003588
3614.9	0.0003142
3626.47	0.0003372
3638.05	0.0002961
3649.62	0.000372
3661.2	0.0003441
3672.77	0.0003708
3684.34	0.0002856
3695.92	0.0002916
3707.49	0.0002708
3719.07	0.0003089
3730.64	0.0003214
3742.21	0.0002114
3753.79	0.0002503
3765.36	0.0002705
3776.94	0.0002952
3788.51	0.0002855
3800.08	0.0002361
3811.66	0.0002755
3823.23	0.0003006
3834.81	0.0002982
3846.38	0.0002856
3857.95	0.0003611
3869.53	0.0002455
3881.1	0.0002698
3892.68	0.0003352
3904.25	0.0003293
3915.82	0.0002784
3927.4	0.0003558
3938.97	0.0003431
3950.55	0.0004199
3962.12	0.0003421
3973.69	0.000347
3985.27	0.0003506
3996.84	0.0003434
