Infrared Spectrum: Diethyl methylphosphonathioate
Formula: C 5 H 13 O 2 P S
CAS: 6996-81-2
State: gas
Origin: EPA-IR VAPOR PHASE LIBRARY
1/CM	ABSORBANCE
501.5	0.002218
513.074	0.001418
524.648	0.001058
536.222	0.0010507
547.796	0.0009127
559.37	0.001138
570.944	0.001498
582.518	0.003078
594.092	0.008348
605.666	0.011678
617.24	0.007408
628.814	0.004158
640.388	0.003018
651.962	0.002558
663.536	0.002488
675.11	0.002768
686.684	0.003478
698.258	0.005088
709.832	0.008268
721.406	0.014658
732.98	0.029748
744.554	0.063208
756.128	0.103858
767.702	0.109908
779.276	0.113998
790.85	0.111178
802.423	0.056898
813.997	0.021928
825.571	0.013668
837.145	0.012188
848.719	0.013348
860.293	0.014608
871.867	0.016598
883.441	0.027188
895.015	0.073238
906.589	0.141798
918.163	0.129238
929.737	0.126098
941.311	0.200048
952.885	0.233648
964.459	0.154838
976.033	0.079698
987.607	0.051828
999.181	0.052698
1010.76	0.087578
1022.33	0.184978
1033.9	0.295538
1045.48	0.297808
1057.05	0.240718
1068.63	0.173328
1080.2	0.103468
1091.77	0.082968
1103.35	0.071268
1114.92	0.049488
1126.49	0.036608
1138.07	0.031568
1149.64	0.029258
1161.22	0.027098
1172.79	0.022808
1184.36	0.017188
1195.94	0.011728
1207.51	0.008188
1219.09	0.006338
1230.66	0.005508
1242.23	0.005268
1253.81	0.005628
1265.38	0.006528
1276.96	0.008718
1288.53	0.019128
1300.1	0.038358
1311.68	0.025598
1323.25	0.008188
1334.83	0.005968
1346.4	0.006358
1357.97	0.008018
1369.55	0.011868
1381.12	0.021338
1392.7	0.029378
1404.27	0.023618
1415.84	0.020448
1427.42	0.015478
1438.99	0.011578
1450.57	0.011208
1462.14	0.009678
1473.71	0.009358
1485.29	0.008348
1496.86	0.006108
1508.44	0.004658
1520.01	0.003828
1531.58	0.003318
1543.16	0.003008
1554.73	0.002678
1566.31	0.002298
1577.88	0.001978
1589.45	0.001708
1601.03	0.001508
1612.6	0.001518
1624.18	0.001738
1635.75	0.001988
1647.32	0.002138
1658.9	0.002308
1670.47	0.002538
1682.05	0.002828
1693.62	0.003048
1705.19	0.002948
1716.77	0.002648
1728.34	0.002378
1739.92	0.002138
1751.49	0.002118
1763.06	0.002388
1774.64	0.003128
1786.21	0.003958
1797.79	0.004528
1809.36	0.004408
1820.93	0.003788
1832.51	0.002968
1844.08	0.002308
1855.66	0.001838
1867.23	0.001528
1878.8	0.001358
1890.38	0.001318
1901.95	0.001258
1913.53	0.001068
1925.1	0.0008697
1936.67	0.0008347
1948.25	0.0008093
1959.82	0.0007705
1971.4	0.0006714
1982.97	0.0005364
1994.54	0.0004253
2006.12	0.0003973
2017.69	0.0003647
2029.27	0.0003877
2040.84	0.000452
2052.41	0.0006253
2063.99	0.0008855
2075.56	0.001238
2087.14	0.001468
2098.71	0.001238
2110.28	0.000866
2121.86	0.0006945
2133.43	0.0006525
2145.01	0.0006446
2156.58	0.000594
2168.15	0.000595
2179.73	0.0005497
2191.3	0.0005695
2202.88	0.0006113
2214.45	0.0005085
2226.02	0.0004249
2237.6	0.0003214
2249.17	0.0003345
2260.74	0.0003931
2272.32	0.0003876
2283.89	0.0003702
2295.47	0.0004137
2307.04	0.0004768
2318.61	0.0005357
2330.19	0.0006034
2341.76	0.0005426
2353.34	0.0004141
2364.91	0.0002678
2376.48	0.0002146
2388.06	0.0002347
2399.63	0.000294
2411.21	0.000402
2422.78	0.0005043
2434.35	0.0005548
2445.93	0.0005947
2457.5	0.000617
2469.08	0.0005261
2480.65	0.0003914
2492.22	0.0003326
2503.8	0.0002363
2515.37	0.0002048
2526.95	0.0001581
2538.52	0.0001746
2550.09	0.000222
2561.67	0.0002338
2573.24	0.0002518
2584.82	0.0003409
2596.39	0.0003476
2607.96	0.000341
2619.54	0.0003435
2631.11	0.0002956
2642.69	0.0003103
2654.26	0.0003238
2665.83	0.0003427
2677.41	0.0003618
2688.98	0.0004504
2700.56	0.0006237
2712.13	0.000927
2723.7	0.001318
2735.28	0.001618
2746.85	0.001718
2758.43	0.002028
2770	0.002448
2781.57	0.002478
2793.15	0.002308
2804.72	0.002668
2816.3	0.003348
2827.87	0.003998
2839.44	0.004698
2851.02	0.006118
2862.59	0.008908
2874.17	0.014068
2885.74	0.019128
2897.31	0.023108
2908.89	0.027498
2920.46	0.029188
2932.04	0.042068
2943.61	0.051628
2955.18	0.044708
2966.76	0.047038
2978.33	0.064358
2989.91	0.071798
3001.48	0.049738
3013.05	0.029398
3024.63	0.016708
3036.2	0.009498
3047.78	0.005778
3059.35	0.003918
3070.92	0.002928
3082.5	0.002398
3094.07	0.002128
3105.65	0.001968
3117.22	0.001878
3128.79	0.001818
3140.37	0.001748
3151.94	0.001608
3163.52	0.001508
3175.09	0.001268
3186.66	0.001228
3198.24	0.001168
3209.81	0.001208
3221.39	0.001198
3232.96	0.0010453
3244.53	0.0008089
3256.11	0.0005876
3267.68	0.0005215
3279.26	0.0004428
3290.83	0.0004596
3302.4	0.000296
3313.98	0.0003314
3325.55	0.0002606
3337.13	0.0003185
3348.7	0.0002669
3360.27	0.0003146
3371.85	0.0002477
3383.42	0.0002584
3395	0.0002187
3406.57	0.0002367
3418.14	0.0002099
3429.72	0.00013085
3441.29	7.774e-05
3452.86	0.0001731
3464.44	8.173e-05
3476.01	0.00011404
3487.59	9.972e-05
3499.16	8.568e-05
3510.73	7.406e-05
3522.31	5.144e-05
3533.88	3.26e-05
3545.46	7.673e-05
3557.03	5.3e-06
3568.6	6.879e-05
3580.18	0.00014331
3591.75	0.00014313
3603.33	0.00011487
3614.9	0.0001843
3626.47	0.0001628
3638.05	8.678e-05
3649.62	0.00015357
3661.2	9.037e-05
3672.77	0.00014403
3684.34	0.0002426
3695.92	0.0002365
3707.49	0.0002952
3719.07	0.000468
3730.64	0.0004456
3742.21	0.0003232
3753.79	0.0003783
3765.36	0.0004198
3776.94	0.0004688
3788.51	0.0004325
3800.08	0.0005071
3811.66	0.0005127
3823.23	0.0006743
3834.81	0.000768
3846.38	0.0005507
3857.95	0.0004672
3869.53	0.0005276
3881.1	0.0006208
3892.68	0.0006889
3904.25	0.0007263
3915.82	0.0007461
3927.4	0.000651
3938.97	0.0004906
3950.55	0.0005432
3962.12	0.000638
3973.69	0.0006279
3985.27	0.0006042
3996.84	0.000737
