Infrared Spectrum: 2-OXAZOLIDINONE, 5-[(o-METHOXYPHENOXY)METHYL]-
Formula: C11 H13 N O4
CAS: 70-07-5
State: SOLID (1 mg / 200 mg KBr DISC)
Class: COBLENTZ III
Instrument: PERKIN-ELMER 21 (GRATING)
Instrument parameters: FILTER AT ABOUT 10 MICRONS
Sampling: TRANSMISSION
Resolution: 2
1/CM	TRANSMITTANCE
4000	0.9832
3991	0.9835
3982	0.9838
3973	0.9841
3964	0.9845
3955	0.9848
3946	0.9851
3937	0.9854
3928	0.9856
3919	0.9859
3910	0.9862
3901	0.9865
3892	0.9868
3883	0.9871
3874	0.9873
3865	0.9875
3856	0.9877
3847	0.9878
3838	0.9881
3829	0.9883
3820	0.9885
3811	0.9887
3802	0.989
3793	0.9892
3784	0.9894
3775	0.9896
3766	0.9898
3757	0.99
3748	0.9903
3739	0.9904
3730	0.9906
3721	0.9907
3712	0.9908
3703	0.991
3694	0.9911
3685	0.9917
3676	0.9924
3667	0.9932
3658	0.9942
3649	0.9952
3640	0.9962
3631	0.9974
3622	0.9989
3613	1.0004
3604	1.0018
3595	1.0038
3586	1.0064
3577	1.0089
3568	1.0099
3559	1.0105
3550	1.0109
3541	1.011
3532	1.0095
3523	1.0075
3514	1.0021
3505	0.9957
3496	0.9894
3487	0.9836
3478	0.979
3469	0.9785
3460	0.9783
3451	0.9783
3442	0.9777
3433	0.9725
3424	0.9561
3415	0.9327
3406	0.9131
3397	0.8962
3388	0.8799
3379	0.8599
3370	0.8361
3361	0.7815
3352	0.6626
3343	0.5885
3334	0.5083
3325	0.4276
3316	0.3466
3307	0.2651
3298	0.206
3289	0.2039
3280	0.2052
3271	0.2206
3262	0.2569
3253	0.2993
3244	0.3418
3235	0.3848
3226	0.4279
3217	0.4674
3208	0.485
3199	0.4996
3190	0.51
3181	0.5419
3172	0.5765
3163	0.6114
3154	0.6462
3145	0.6815
3136	0.7171
3127	0.7503
3118	0.77
3109	0.7845
3100	0.7975
3091	0.809
3082	0.8197
3073	0.8295
3064	0.8377
3055	0.84
3046	0.8408
3037	0.8365
3028	0.8262
3019	0.8128
3010	0.7993
3001	0.7825
2992	0.7757
2983	0.7739
2974	0.7735
2965	0.7662
2956	0.7421
2947	0.718
2938	0.6971
2929	0.6965
2920	0.7119
2911	0.7482
2902	0.7795
2893	0.7845
2884	0.7903
2875	0.7951
2866	0.7965
2857	0.7928
2848	0.7899
2839	0.7971
2830	0.8131
2821	0.8325
2812	0.8498
2803	0.8634
2794	0.877
2785	0.8908
2776	0.9002
2767	0.909
2758	0.9177
2749	0.9259
2740	0.9339
2731	0.9416
2722	0.9457
2713	0.9495
2704	0.9527
2695	0.9558
2686	0.9589
2677	0.9618
2668	0.9647
2659	0.9675
2650	0.9698
2641	0.9714
2632	0.973
2623	0.975
2614	0.977
2605	0.978
2596	0.9783
2587	0.9765
2578	0.9725
2569	0.9718
2560	0.9715
2551	0.9712
2542	0.9714
2533	0.9716
2524	0.972
2515	0.9723
2506	0.9728
2497	0.9736
2488	0.9743
2479	0.9751
2470	0.9765
2461	0.9778
2452	0.9791
2443	0.9802
2434	0.9814
2425	0.9832
2416	0.9856
2407	0.9871
2398	0.9885
2389	0.9898
2380	0.9903
2371	0.9901
2362	0.9898
2353	0.9885
2344	0.9871
2335	0.9858
2326	0.9847
2317	0.9863
2308	0.9918
2299	1.0016
2290	1.0059
2281	1.0061
2272	1.006
2263	1.0056
2254	1.0052
2245	1.0052
2236	1.0073
2227	1.0121
2218	1.0171
2209	1.019
2200	1.0198
2191	1.019
2182	1.015
2173	1.0105
2164	1.0067
2155	1.0064
2146	1.0064
2137	1.0063
2128	1.0063
2119	1.0058
2110	1.0053
2101	1.0044
2092	1.0031
2083	1.0015
2074	0.9975
2065	0.9873
2056	0.9742
2047	0.9643
2038	0.9646
2029	0.9695
2020	0.9725
2011	0.9721
2002	0.9723
1993	0.9763
1984	0.9792
1975	0.9807
1966	0.9812
1957	0.9808
1948	0.979
1939	0.9673
1930	0.9548
1921	0.9552
1912	0.9561
1903	0.9438
1894	0.9284
1885	0.9166
1876	0.9153
1867	0.9162
1858	0.9112
1849	0.9001
1840	0.8915
1831	0.8832
1822	0.8751
1813	0.8617
1804	0.8386
1795	0.798
1786	0.7395
1777	0.5865
1768	0.4786
1759	0.2332
1750	0.0527
1741	0.0447
1732	0.0336
1723	0.0361
1714	0.1353
1705	0.2746
1696	0.465
1687	0.632
1678	0.7299
1669	0.775
1660	0.8078
1651	0.8386
1642	0.8652
1633	0.8836
1624	0.8933
1615	0.8959
1606	0.8517
1597	0.3462
1588	0.5512
1579	0.827
1570	0.8785
1561	0.8875
1552	0.8778
1543	0.8502
1534	0.7842
1525	0.7604
1516	0.3264
1507	0.2537
1498	0.4764
1489	0.6512
1480	0.7362
1471	0.4826
1462	0.4692
1453	0.367
1444	0.4375
1435	0.5789
1426	0.7122
1417	0.7235
1408	0.5788
1399	0.5146
1390	0.5982
1381	0.6826
1372	0.7428
1363	0.7782
1354	0.7919
1345	0.773
1336	0.5602
1327	0.395
1318	0.6654
1309	0.7442
1300	0.4226
1291	0.3988
1282	0.6515
1273	0.301
1264	0.2966
1255	0.0427
1246	0.0958
1237	0.2493
1228	0.2021
1219	0.0637
1210	0.1624
1201	0.4867
1192	0.7417
1183	0.5389
1174	0.3986
1165	0.7361
1156	0.8146
1147	0.8221
1138	0.7865
1129	0.2202
1120	0.3772
1111	0.7404
1102	0.7389
1093	0.3499
1084	0.5649
1075	0.7236
1066	0.5312
1057	0.4485
1048	0.2979
1039	0.6625
1030	0.5381
1021	0.2845
1012	0.3943
1003	0.6251
994	0.823
985	0.8589
976	0.8268
967	0.4862
958	0.2812
949	0.6665
940	0.7203
931	0.6049
922	0.7953
913	0.7697
904	0.8634
895	0.8055
886	0.5927
877	0.7951
868	0.9128
859	0.9392
850	0.9397
841	0.853
832	0.8391
823	0.8765
814	0.9278
805	0.922
796	0.9117
787	0.8607
778	0.7219
769	0.2828
760	0.466
751	0.0723
742	0.3762
733	0.4624
724	0.4037
715	0.4852
706	0.5312
697	0.4655
688	0.5954
679	0.7191
670	0.7915
