Infrared Spectrum: ACETOPHENONE, 2-BROMO-
Formula: C8 H7 Br O
CAS: 70-11-1
State: SOLUTION (1% CCl4 FOR 3800-1330, 1% CS2 FOR 1330-470)
Class: COBLENTZ
Instrument: DOW KBr FOREPRISM-GRATING
Instrument parameters: BLAZED AT 3.5, 12.0, 20.0 MICRON AND CHANGED AT 5.0, 7.5, 14.9 MICRON
Sampling: TRANSMISSION
Path length: 0.0108 CM, 0.0107 CM
Resolution: 2
Origin: DOW CHEMICAL COMPANY
1/CM	TRANSMITTANCE
3792	0.8894
3783	0.8907
3774	0.8924
3765	0.8938
3756	0.8948
3747	0.8945
3738	0.8942
3729	0.8932
3720	0.8916
3711	0.8901
3702	0.8888
3693	0.8898
3684	0.8925
3675	0.8921
3666	0.8906
3657	0.8882
3648	0.8883
3639	0.8891
3630	0.8896
3621	0.8899
3612	0.8901
3603	0.8895
3594	0.8871
3585	0.8778
3576	0.8834
3567	0.8807
3558	0.8815
3549	0.8814
3540	0.88
3531	0.8785
3522	0.8784
3513	0.8808
3504	0.8825
3495	0.88
3486	0.8799
3477	0.8796
3468	0.8794
3459	0.8778
3450	0.8764
3441	0.8753
3432	0.8743
3423	0.8746
3414	0.875
3405	0.8748
3396	0.8746
3387	0.8733
3378	0.8717
3369	0.8699
3360	0.8688
3351	0.8685
3342	0.8686
3333	0.8688
3324	0.8691
3315	0.8698
3306	0.8706
3297	0.8713
3288	0.8716
3279	0.8715
3270	0.8712
3261	0.8707
3252	0.8701
3243	0.8694
3234	0.8691
3225	0.8686
3216	0.8683
3207	0.8678
3198	0.8674
3189	0.8663
3180	0.8652
3171	0.8642
3162	0.8638
3153	0.8641
3144	0.8658
3135	0.8656
3126	0.8653
3117	0.8614
3108	0.8573
3099	0.8583
3090	0.8528
3081	0.8491
3072	0.8418
3063	0.8437
3054	0.8554
3045	0.8536
3036	0.8525
3027	0.8528
3018	0.8577
3009	0.8589
3000	0.8593
2991	0.8596
2982	0.8545
2973	0.8528
2964	0.8533
2955	0.8549
2946	0.8513
2937	0.8514
2928	0.853
2919	0.8553
2910	0.8582
2901	0.861
2892	0.8621
2883	0.8615
2874	0.8618
2865	0.8621
2856	0.8625
2847	0.8631
2838	0.8637
2829	0.8643
2820	0.8649
2811	0.8651
2802	0.8653
2793	0.8652
2784	0.8648
2775	0.8642
2766	0.8638
2757	0.8635
2748	0.8632
2739	0.8628
2730	0.8627
2721	0.8625
2712	0.8624
2703	0.8624
2694	0.8627
2685	0.8628
2676	0.8632
2667	0.8633
2658	0.8635
2649	0.8636
2640	0.8635
2631	0.8632
2622	0.8631
2613	0.863
2604	0.863
2595	0.8628
2586	0.8617
2577	0.8602
2568	0.8595
2559	0.8592
2550	0.8582
2541	0.8611
2532	0.8616
2523	0.861
2514	0.8604
2505	0.8599
2496	0.8594
2487	0.8585
2478	0.8575
2469	0.8568
2460	0.856
2451	0.8553
2442	0.8547
2433	0.8541
2424	0.8532
2415	0.8513
2406	0.8475
2397	0.8438
2388	0.8415
2379	0.8447
2370	0.8491
2361	0.8524
2352	0.8484
2343	0.8464
2334	0.8458
2325	0.8428
2316	0.8356
2307	0.8286
2298	0.8205
2289	0.8158
2280	0.8191
2271	0.8227
2262	0.8263
2253	0.8292
2244	0.8321
2235	0.8328
2226	0.8331
2217	0.8338
2208	0.8345
2199	0.8351
2190	0.8358
2181	0.8363
2172	0.837
2163	0.8375
2154	0.8381
2145	0.8384
2136	0.8384
2127	0.8385
2118	0.8384
2109	0.8381
2100	0.8377
2091	0.8371
2082	0.8364
2073	0.8356
2064	0.8347
2055	0.8339
2046	0.8338
2037	0.8337
2028	0.833
2019	0.8336
2010	0.8409
2001	0.8533
1992	0.8662
1983	0.8668
1974	0.8689
1965	0.8712
1956	0.8747
1947	0.8765
1938	0.8771
1929	0.8737
1920	0.8704
1911	0.8702
1902	0.8649
1893	0.8682
1884	0.8678
1875	0.8615
1866	0.8598
1857	0.8606
1848	0.8571
1839	0.86
1830	0.861
1821	0.8616
1812	0.8541
1803	0.8575
1794	0.8562
1785	0.8559
1776	0.8553
1767	0.8538
1758	0.8507
1749	0.8413
1740	0.837
1731	0.8364
1722	0.8325
1713	0.733
1704	0.7896
1695	0.4853
1686	0.7065
1677	0.8204
1668	0.8397
1659	0.8428
1650	0.8388
1641	0.8394
1632	0.837
1623	0.8271
1614	0.7949
1605	0.7443
1596	0.6469
1587	0.5888
1578	0.5821
1569	0.5435
1560	0.4674
1551	0.4326
1542	0.4957
1533	0.5786
1524	0.6235
1515	0.666
1506	0.7169
1497	0.7653
1488	0.8003
1479	0.8218
1470	0.8313
1461	0.8333
1452	0.7217
1443	0.8275
1434	0.8389
1425	0.7896
1416	0.8421
1407	0.8466
1398	0.8412
1389	0.8611
1380	0.8695
1371	0.853
1362	0.8534
1353	0.8478
1344	0.8412
1335	0.7844
1326	0.8378
1317	0.8239
1308	0.8134
1299	0.8206
1290	0.8308
1281	0.7884
1272	0.5941
1263	0.7845
1254	0.8246
1245	0.8392
1236	0.8466
1227	0.8574
1218	0.8625
1209	0.8568
1200	0.8391
1191	0.8188
1182	0.8268
1173	0.8461
1164	0.8585
1155	0.8509
1146	0.8658
1137	0.8697
1128	0.8678
1119	0.8621
1110	0.8425
1101	0.868
1092	0.867
1083	0.8662
1074	0.8728
1065	0.8738
1056	0.8747
1047	0.8748
1038	0.8743
1029	0.8652
1020	0.8685
1011	0.7895
1002	0.8677
993	0.8757
984	0.8531
975	0.878
966	0.8804
957	0.8817
948	0.883
939	0.8825
930	0.8782
921	0.8756
912	0.8712
903	0.8686
894	0.8531
885	0.8258
876	0.7775
867	0.7481
858	0.7188
849	0.7315
840	0.7941
831	0.838
822	0.8478
813	0.84
804	0.829
795	0.8132
786	0.801
777	0.8223
768	0.8181
759	0.8086
750	0.7731
741	0.7695
732	0.7721
723	0.7686
714	0.7348
705	0.6951
696	0.7394
687	0.6587
678	0.7498
669	0.7876
660	0.7607
651	0.7418
642	0.7476
633	0.7642
624	0.7251
615	0.7347
606	0.6832
597	0.7431
588	0.7538
579	0.7506
570	0.7481
561	0.7436
552	0.7338
543	0.7401
534	0.7338
525	0.7205
516	0.7361
507	0.7467
498	0.7475
489	0.7471
480	0.7465
471	0.7454
