Infrared Spectrum: PYRUVIC ACID, BROMO-, ETHYL ESTER
Formula: C5 H7 Br O3
CAS: 70-23-5
State: SOLUTION (10% CCl4 FOR 3800-1330, 10% CS2 FOR 1330-400 CM^-^1)
Class: COBLENTZ III
Instrument: DOW KBr FOREPRISM-GRATING
Instrument parameters: BLAZED AT 3.5, 12.0, 20.0 MICRON AND CHANGED AT 5.0, 7.5, 14.9 MICRON
Sampling: TRANSMISSION
Path length: 0.012 CM, 0.011 CM
Resolution: 2
Origin: DOW CHEMICAL COMPANY
1/CM	TRANSMITTANCE
384	0.3171
393	0.3225
402	0.3649
411	0.4874
420	0.688
429	0.7462
438	0.7735
447	0.7935
456	0.8106
465	0.8275
474	0.8475
483	0.8739
492	0.8942
501	0.9045
510	0.9091
519	0.9038
528	0.8949
537	0.9077
546	0.9175
555	0.9067
564	0.8889
573	0.8768
582	0.8905
591	0.929
600	0.9199
609	0.9151
618	0.8988
627	0.8577
636	0.8062
645	0.741
654	0.7315
663	0.796
672	0.8804
681	0.9116
690	0.9374
699	0.9625
708	0.9845
717	0.9911
726	0.9936
735	0.9875
744	0.9889
753	0.9753
762	0.9878
771	0.9852
780	0.9447
789	0.9208
798	0.9161
807	0.8775
816	0.9336
825	0.9805
834	0.9577
843	0.8773
852	0.6142
861	0.6499
870	0.8359
879	0.883
888	0.9239
897	0.9338
906	0.9836
915	0.997
924	0.9983
933	0.9973
942	0.9914
951	0.9795
960	0.97
969	0.9556
978	0.9441
987	0.928
996	0.8649
1005	0.6738
1014	0.5966
1023	0.6275
1032	0.5188
1041	0.2371
1050	0.1056
1059	0.1614
1068	0.2095
1077	0.4719
1086	0.6531
1095	0.5992
1104	0.6392
1113	0.6175
1122	0.6495
1131	0.5843
1140	0.4541
1149	0.2782
1158	0.2143
1167	0.2917
1176	0.3975
1185	0.5617
1194	0.5806
1203	0.3296
1212	0.325
1221	0.386
1230	0.3986
1239	0.3357
1248	0.5405
1257	0.5745
1266	0.4666
1275	0.358
1284	0.4537
1293	0.454
1302	0.2423
1311	0.1627
1320	0.3341
1329	0.6392
1338	0.7855
1347	0.7946
1356	0.7418
1365	0.7146
1374	0.4478
1383	0.6743
1392	0.5387
1401	0.648
1410	0.6379
1419	0.6915
1428	0.794
1437	0.8005
1446	0.6568
1455	0.7278
1464	0.6865
1473	0.6331
1482	0.7518
1491	0.8278
1500	0.7901
1509	0.7455
1518	0.6969
1527	0.6475
1536	0.583
1545	0.4892
1554	0.4689
1563	0.5262
1572	0.6086
1581	0.6362
1590	0.6534
1599	0.7711
1608	0.8275
1617	0.8644
1626	0.8784
1635	0.8842
1644	0.886
1653	0.8816
1662	0.8725
1671	0.8571
1680	0.8243
1689	0.7608
1698	0.679
1707	0.5772
1716	0.2988
1725	0.1522
1734	0.01
1743	0.0379
1752	0.1198
1761	0.0918
1770	0.2318
1779	0.6039
1788	0.71
1797	0.7734
1806	0.8375
1815	0.8345
1824	0.7868
1833	0.7626
1842	0.8223
1851	0.8951
1860	0.9115
1869	0.9225
1878	0.9275
1887	0.9287
1896	0.9268
1905	0.9267
1914	0.9327
1923	0.9405
1932	0.9465
1941	0.9481
1950	0.9482
1959	0.9521
1968	0.9434
1977	0.9425
1986	0.9415
1995	0.9423
2004	0.9509
2013	0.9527
2022	0.9533
2031	0.9544
2040	0.9555
2049	0.9564
2058	0.9574
2067	0.9578
2076	0.9586
2085	0.9588
2094	0.9591
2103	0.9592
2112	0.9592
2121	0.9591
2130	0.9589
2139	0.9582
2148	0.9577
2157	0.9573
2166	0.9571
2175	0.958
2184	0.9631
2193	0.9656
2202	0.9645
2211	0.9623
2220	0.9591
2229	0.9553
2238	0.9513
2247	0.947
2256	0.9434
2265	0.9404
2274	0.9373
2283	0.9371
2292	0.9375
2301	0.9382
2310	0.9416
2319	0.9466
2328	0.9601
2337	0.963
2346	0.9643
2355	0.9653
2364	0.9643
2373	0.9605
2382	0.957
2391	0.9552
2400	0.9555
2409	0.9563
2418	0.9568
2427	0.9568
2436	0.9568
2445	0.9563
2454	0.9555
2463	0.9555
2472	0.9568
2481	0.9596
2490	0.9608
2499	0.9612
2508	0.9608
2517	0.9597
2526	0.9588
2535	0.958
2544	0.9573
2553	0.957
2562	0.9568
2571	0.9567
2580	0.9566
2589	0.9568
2598	0.9574
2607	0.96
2616	0.9624
2625	0.963
2634	0.9635
2643	0.9636
2652	0.9637
2661	0.9632
2670	0.9625
2679	0.9617
2688	0.9601
2697	0.9584
2706	0.9568
2715	0.9552
2724	0.9536
2733	0.9518
2742	0.9503
2751	0.9485
2760	0.9466
2769	0.9447
2778	0.9432
2787	0.942
2796	0.9403
2805	0.9384
2814	0.9368
2823	0.935
2832	0.933
2841	0.929
2850	0.9227
2859	0.9125
2868	0.8873
2877	0.8715
2886	0.882
2895	0.8711
2904	0.7953
2913	0.8124
2922	0.8486
2931	0.8091
2940	0.7337
2949	0.7042
2958	0.7753
2967	0.6886
2976	0.6458
2985	0.5218
2994	0.4554
3003	0.5529
3012	0.629
3021	0.8134
3030	0.87
3039	0.8775
3048	0.8791
3057	0.8941
3066	0.9118
3075	0.9254
3084	0.9324
3093	0.9333
3102	0.9337
3111	0.9346
3120	0.9362
3129	0.9382
3138	0.9425
3147	0.9447
3156	0.9454
3165	0.9454
3174	0.9456
3183	0.9458
3192	0.9458
3201	0.9451
3210	0.9446
3219	0.9439
3228	0.9433
3237	0.9425
3246	0.942
3255	0.9414
3264	0.9408
3273	0.9396
3282	0.9384
3291	0.9373
3300	0.936
3309	0.9347
3318	0.9335
3327	0.9321
3336	0.9309
3345	0.9295
3354	0.9287
3363	0.9278
3372	0.9271
3381	0.9255
3390	0.9234
3399	0.9199
3408	0.9156
3417	0.9108
3426	0.9025
3435	0.8885
3444	0.8737
3453	0.868
3462	0.8725
3471	0.8861
3480	0.8884
3489	0.8871
3498	0.8874
3507	0.8887
3516	0.8959
3525	0.9224
3534	0.9418
3543	0.9557
3552	0.9639
3561	0.9682
3570	0.9707
3579	0.9718
3588	0.9752
3597	0.983
3606	0.988
3615	0.9892
3624	0.9899
3633	0.9906
3642	0.991
3651	0.9907
3660	0.9904
3669	0.9905
3678	0.9903
3687	0.9896
3696	0.9889
3705	0.9917
3714	0.997
3723	0.9999
3732	1.0014
3741	1.0023
3750	1.0021
3759	1.0015
3768	1.0005
3777	0.9994
3786	0.9984
3795	0.9974
