Infrared Spectrum: BIS[3,4,6-TRICHLOROPHENOL], 2,2'-METHYLENE-
Formula: C13 H6 Cl6 O2
CAS: 70-30-4
State: SOLUTION 6.7% (CS2 FOR 7.3-15 microns, AND C2Cl4 FOR 2-7.3 microns)
Melting point: 164-165 C
Class: COBLENTZ III
Instrument: PERKIN-ELMER 21 (GRATING)
Instrument parameters: FILTER AT ABOUT 10 MICRONS
Sampling: TRANSMISSION
Resolution: 2
1/CM	TRANSMITTANCE
4000	1.0118
3991	1.0118
3982	1.012
3973	1.0123
3964	1.0124
3955	1.0125
3946	1.0128
3937	1.0132
3928	1.0136
3919	1.014
3910	1.0127
3901	1.0098
3892	1.0065
3883	1.0038
3874	1.0016
3865	1.0009
3856	1.0003
3847	1
3838	0.9998
3829	0.9996
3820	0.9997
3811	0.9998
3802	1.0002
3793	1.0013
3784	1.0024
3775	1.0035
3766	1.0046
3757	1.006
3748	1.0075
3739	1.0093
3730	1.011
3721	1.0121
3712	1.0128
3703	1.0137
3694	1.0145
3685	1.0151
3676	1.0155
3667	1.0157
3658	1.016
3649	1.0161
3640	1.0161
3631	1.0161
3622	1.0161
3613	1.0161
3604	1.0157
3595	1.0152
3586	1.0139
3577	1.0121
3568	1.0085
3559	0.9673
3550	0.8671
3541	0.7768
3532	0.6858
3523	0.5947
3514	0.503
3505	0.438
3496	0.4387
3487	0.5134
3478	0.6468
3469	0.7808
3460	0.8398
3451	0.8689
3442	0.8909
3433	0.9113
3424	0.9302
3415	0.9401
3406	0.9487
3397	0.9574
3388	0.9642
3379	0.9705
3370	0.9768
3361	0.9823
3352	0.9874
3343	0.9924
3334	0.9968
3325	1.0003
3316	1.004
3307	1.0063
3298	1.0086
3289	1.0095
3280	1.0102
3271	1.0111
3262	1.0118
3253	1.0125
3244	1.0131
3235	1.0138
3226	1.0143
3217	1.015
3208	1.0155
3199	1.0158
3190	1.0162
3181	1.0166
3172	1.0168
3163	1.016
3154	1.0148
3145	1.0127
3136	1.0096
3127	1.0065
3118	1.0032
3109	0.9977
3100	0.9918
3091	0.9884
3082	0.986
3073	0.985
3064	0.9858
3055	0.9867
3046	0.9877
3037	0.9893
3028	0.991
3019	0.9927
3010	0.9946
3001	0.9964
2992	0.9932
2983	0.9901
2974	0.9885
2965	0.9873
2956	0.9859
2947	0.9854
2938	0.986
2929	0.9867
2920	0.9873
2911	0.9878
2902	0.9881
2893	0.9886
2884	0.9889
2875	0.9893
2866	0.9894
2857	0.9893
2848	0.9893
2839	0.9893
2830	0.9893
2821	0.9893
2812	0.9893
2803	0.9896
2794	0.99
2785	0.9905
2776	0.9909
2767	0.9915
2758	0.993
2749	0.9946
2740	0.9959
2731	0.997
2722	0.9982
2713	0.9993
2704	1.0005
2695	1.0013
2686	1.0021
2677	1.0028
2668	1.004
2659	1.008
2650	1.0118
2641	1.0142
2632	1.0165
2623	1.0171
2614	1.0167
2605	1.0164
2596	1.0159
2587	1.0156
2578	1.0152
2569	1.0153
2560	1.0155
2551	1.0156
2542	1.0157
2533	1.0159
2524	1.0164
2515	1.0168
2506	1.0174
2497	1.0178
2488	1.0183
2479	1.0188
2470	1.019
2461	1.0191
2452	1.0192
2443	1.0193
2434	1.0194
2425	1.0195
2416	1.0196
2407	1.0198
2398	1.02
2389	1.0202
2380	1.0204
2371	1.0205
2362	1.0205
2353	1.0205
2344	1.0217
2335	1.0231
2326	1.0245
2317	1.0257
2308	1.027
2299	1.0268
2290	1.0264
2281	1.026
2272	1.0257
2263	1.0253
2254	1.025
2245	1.0247
2236	1.0242
2227	1.0237
2218	1.0231
2209	1.0225
2200	1.0221
2191	1.0216
2182	1.0212
2173	1.0207
2164	1.0202
2155	1.0204
2146	1.021
2137	1.0218
2128	1.0225
2119	1.0243
2110	1.0262
2101	1.0275
2092	1.0286
2083	1.028
2074	1.0274
2065	1.0263
2056	1.0252
2047	1.0241
2038	1.0234
2029	1.0225
2020	1.0218
2011	1.021
2002	1.0202
1993	1.0202
1984	1.0228
1975	1.0247
1966	1.0263
1957	1.0278
1948	1.0282
1939	1.0283
1930	1.0278
1921	1.0271
1912	1.0264
1903	1.0257
1894	1.0252
1885	1.0247
1876	1.0241
1867	1.0235
1858	1.0237
1849	1.024
1840	1.0241
1831	1.0241
1822	1.022
1813	1.0194
1804	1.0186
1795	1.0198
1786	1.0209
1777	1.0206
1768	1.0187
1759	1.0149
1750	1.0087
1741	0.9888
1732	0.9861
1723	0.9701
1714	0.9337
1705	0.9509
1696	0.9832
1687	0.995
1678	0.9995
1669	1.0013
1660	1.0018
1651	1.0011
1642	0.9984
1633	0.9955
1624	0.9921
1615	0.9865
1606	0.9791
1597	0.9642
1588	0.9344
1579	0.8178
1570	0.82
1561	0.8762
1552	0.9396
1543	0.9675
1534	0.9745
1525	0.9747
1516	0.9675
1507	0.9652
1498	0.9543
1489	0.9134
1480	0.8689
1471	0.8821
1462	0.8311
1453	0.4833
1444	0.0609
1435	0.2227
1426	0.4903
1417	0.7603
1408	0.5345
1399	0.5283
1390	0.7231
1381	0.8042
1372	0.8738
1363	0.9055
1354	0.917
1345	0.9198
1336	0.8985
1327	0.8649
1318	0.7222
1309	0.5748
1300	0.4621
1291	0.3389
1282	0.4409
1273	0.7356
1264	0.7606
1255	0.7007
1246	0.5867
1237	0.7447
1228	0.6956
1219	0.5862
1210	0.6226
1201	0.6375
1192	0.4431
1183	0.3941
1174	0.5621
1165	0.7632
1156	0.8605
1147	0.8017
1138	0.2944
1129	0.57
1120	0.8239
1111	0.8871
1102	0.9132
1093	0.9182
1084	0.92
1075	0.9242
1066	0.9342
1057	0.9384
1048	0.942
1039	0.9481
1030	0.9491
1021	0.9444
1012	0.9477
1003	0.9504
994	0.9467
985	0.9233
976	0.8837
967	0.6469
958	0.5859
949	0.8258
940	0.8618
931	0.7092
922	0.8512
913	0.9314
904	0.9318
895	0.8671
886	0.6495
877	0.8525
868	0.8928
859	0.7408
850	0.6957
841	0.9174
832	0.9491
823	0.953
814	0.9525
805	0.9507
796	0.9464
787	0.9325
778	0.8992
769	0.8488
760	0.9051
751	0.846
742	0.3258
733	0.5473
724	0.7981
715	0.8588
706	0.9101
697	0.9363
688	0.9441
679	0.9432
670	0.9318
