Infrared Spectrum: ASPARAGINE L(-)
Formula: C4 H8 N2 O3
CAS: 70-47-3
State: SOLID (MINERAL OIL MULL)
Class: COBLENTZ
Instrument: Not specified, most likely a prism, grating, or hybrid spectrometer.
Sampling: TRANSMISSION
Resolution: 4
Origin: DOW CHEMICAL COMPANY
MICROMETERS	TRANSMITTANCE
2.048	0.721
2.08922	0.729
2.13043	0.738
2.17165	0.743
2.21286	0.741
2.25408	0.74
2.2953	0.736
2.33651	0.752
2.37773	0.764
2.41894	0.776
2.46016	0.801
2.50138	0.822
2.54259	0.829
2.58381	0.841
2.62502	0.851
2.66624	0.859
2.70745	0.832
2.74867	0.705
2.78989	0.552
2.8311	0.391
2.87232	0.194
2.91353	0.162
2.95475	0.189
2.99597	0.427
3.03718	0.394
3.0784	0.314
3.11961	0.239
3.16083	0.126
3.20205	0.075
3.24326	0.105
3.28448	0.128
3.32569	0.1
3.36691	0.032
3.40813	0.023
3.44934	0.041
3.49056	0.121
3.53177	0.328
3.57299	0.401
3.61421	0.41
3.65542	0.432
3.69664	0.48
3.73785	0.482
3.77907	0.519
3.82029	0.565
3.8615	0.637
3.90272	0.664
3.94393	0.654
3.98515	0.719
4.02636	0.752
4.06758	0.758
4.1088	0.769
4.15001	0.794
4.19123	0.806
4.23244	0.823
4.27366	0.823
4.31488	0.82
4.35609	0.825
4.39731	0.823
4.43852	0.82
4.47974	0.822
4.52096	0.818
4.56217	0.817
4.60339	0.815
4.6446	0.813
4.68582	0.825
4.72704	0.841
4.76825	0.854
4.80947	0.858
4.85068	0.849
4.8919	0.825
4.93312	0.82
4.97433	0.82
5.01555	0.827
5.05676	0.847
5.09798	0.868
5.13919	0.875
5.18041	0.876
5.22163	0.88
5.26284	0.883
5.30406	0.887
5.34527	0.888
5.38649	0.888
5.42771	0.88
5.46892	0.868
5.51014	0.849
5.55135	0.839
5.59257	0.827
5.63379	0.8
5.675	0.772
5.71622	0.733
5.75743	0.668
5.79865	0.581
5.83987	0.492
5.88108	0.347
5.9223	0.126
5.96351	0.088
6.00473	0.15
6.04595	0.124
6.08716	0.047
6.12838	0.058
6.16959	0.1
6.21081	0.158
6.25203	0.138
6.29324	0.111
6.33446	0.14
6.37567	0.276
6.41689	0.312
6.4581	0.283
6.49932	0.152
6.54054	0.078
6.58175	0.095
6.62297	0.179
6.66418	0.275
6.7054	0.335
6.74662	0.347
6.78783	0.237
6.82905	0.169
6.87026	0.167
6.91148	0.117
6.9527	0.061
6.99391	0.054
7.03513	0.217
7.07634	0.249
7.11756	0.217
7.15878	0.27
7.19999	0.338
7.24121	0.3
7.28242	0.254
7.32364	0.124
7.36486	0.258
7.40607	0.42
7.44729	0.492
7.4885	0.538
7.52972	0.482
7.57093	0.252
7.61215	0.234
7.65337	0.309
7.69458	0.444
7.7358	0.543
7.77701	0.589
7.81823	0.615
7.85945	0.629
7.90066	0.637
7.94188	0.637
7.98309	0.608
8.02431	0.502
8.06553	0.367
8.10674	0.461
8.14796	0.593
8.18917	0.618
8.23039	0.656
8.27161	0.67
8.31282	0.688
8.35404	0.695
8.39525	0.707
8.43647	0.707
8.47769	0.7
8.5189	0.687
8.56012	0.658
8.60133	0.569
8.64255	0.454
8.68377	0.319
8.72498	0.4
8.7662	0.579
8.80741	0.617
8.84863	0.62
8.88984	0.622
8.93106	0.62
8.97228	0.629
9.01349	0.598
9.05471	0.528
9.09592	0.567
9.13714	0.656
9.17836	0.687
9.21957	0.666
9.26079	0.56
9.302	0.459
9.34322	0.499
9.38444	0.644
9.42565	0.704
9.46687	0.74
9.50808	0.752
9.5493	0.764
9.59052	0.769
9.63173	0.772
9.67295	0.776
9.71416	0.776
9.75538	0.779
9.7966	0.781
9.83781	0.781
9.87903	0.781
9.92024	0.781
9.96146	0.779
10.0027	0.777
10.0439	0.779
10.0851	0.793
10.1263	0.796
10.1675	0.8
10.2088	0.8
10.25	0.801
10.2912	0.803
10.3324	0.806
10.3736	0.813
10.4148	0.813
10.4561	0.817
10.4973	0.818
10.5385	0.818
10.5797	0.818
10.6209	0.818
10.6621	0.822
10.7033	0.822
10.7446	0.823
10.7858	0.827
10.827	0.822
10.8682	0.818
10.9094	0.794
10.9506	0.748
10.9919	0.738
11.0331	0.784
11.0743	0.801
11.1155	0.767
11.1567	0.702
11.1979	0.664
11.2392	0.659
11.2804	0.678
11.3216	0.731
11.3628	0.803
11.404	0.813
11.4452	0.817
11.4864	0.82
11.5277	0.82
11.5689	0.818
11.6101	0.815
11.6513	0.805
11.6925	0.791
11.7337	0.772
11.775	0.745
11.8162	0.709
11.8574	0.664
11.8986	0.618
11.9398	0.564
11.981	0.54
12.0223	0.605
12.0635	0.695
12.1047	0.717
12.1459	0.695
12.1871	0.647
12.2283	0.6
12.2696	0.558
12.3108	0.505
12.352	0.464
12.3932	0.447
12.4344	0.449
12.4756	0.468
12.5168	0.521
12.5581	0.617
12.5993	0.668
12.6405	0.714
12.6817	0.738
12.7229	0.748
12.7641	0.755
12.8054	0.757
12.8466	0.758
12.8878	0.758
12.929	0.758
12.9702	0.757
13.0114	0.755
13.0527	0.752
13.0939	0.75
13.1351	0.745
13.1763	0.738
13.2175	0.731
13.2587	0.724
13.2999	0.719
13.3412	0.711
13.3824	0.704
13.4236	0.695
13.4648	0.678
13.506	0.67
13.5472	0.661
13.5885	0.649
13.6297	0.637
13.6709	0.625
13.7121	0.608
13.7533	0.596
13.7945	0.579
13.8358	0.562
13.877	0.553
13.9182	0.54
13.9594	0.531
14.0006	0.516
14.0418	0.499
14.0831	0.48
14.1243	0.454
14.1655	0.43
14.2067	0.4
14.2479	0.367
14.2891	0.335
14.3303	0.299
14.3716	0.264
14.4128	0.237
14.454	0.211
14.4952	0.196
14.5364	0.179
14.5776	0.169
14.6189	0.16
14.6601	0.155
14.7013	0.155
14.7425	0.153
14.7837	0.15
14.8249	0.141
14.8662	0.135
14.9074	0.131
14.9486	0.129
14.9898	0.129
15.031	0.131
15.0722	0.135
15.1135	0.145
15.1547	0.155
15.1959	0.162
15.2371	0.169
15.2783	0.172
15.3195	0.176
15.3607	0.177
15.402	0.177
15.4432	0.181
15.4844	0.182
15.5256	0.181
15.5668	0.181
15.608	0.182
15.6493	0.182
15.6905	0.182
15.7317	0.184
15.7729	0.184
15.8141	0.184
15.8553	0.186
15.8966	0.188
