Infrared Spectrum: p-Hydroxypropiophenone
Formula: C 9 H 10 O 2
CAS: 70-70-2
State: gas
Origin: EPA-IR VAPOR PHASE LIBRARY
1/CM	ABSORBANCE
501.5	0.001349
513.074	0.001349
524.648	0.001479
536.222	0.001859
547.796	0.002569
559.37	0.003529
570.944	0.003139
582.518	0.002689
594.092	0.002399
605.666	0.001689
617.24	0.001349
628.814	0.001339
640.388	0.001149
651.962	0.0008663
663.536	0.0006074
675.11	0.0006133
686.684	0.0006241
698.258	0.0004306
709.832	0.0003282
721.406	0.0003255
732.98	0.0004184
744.554	0.0007725
756.128	0.0009706
767.702	0.001239
779.276	0.001849
790.85	0.003259
802.423	0.004339
813.997	0.004039
825.571	0.005009
837.145	0.006229
848.719	0.004229
860.293	0.001929
871.867	0.0010248
883.441	0.0008063
895.015	0.0007668
906.589	0.0008603
918.163	0.001489
929.737	0.003899
941.311	0.007379
952.885	0.006179
964.459	0.002039
976.033	0.001149
987.607	0.001239
999.181	0.002449
1010.76	0.003559
1022.33	0.002149
1033.9	0.001189
1045.48	0.0010562
1057.05	0.001289
1068.63	0.001429
1080.2	0.001849
1091.77	0.002869
1103.35	0.003859
1114.92	0.003249
1126.49	0.003549
1138.07	0.005219
1149.64	0.010119
1161.22	0.030449
1172.79	0.034809
1184.36	0.026579
1195.94	0.016299
1207.51	0.012249
1219.09	0.018149
1230.66	0.015119
1242.23	0.008629
1253.81	0.013249
1265.38	0.016969
1276.96	0.007779
1288.53	0.004109
1300.1	0.003819
1311.68	0.006059
1323.25	0.009029
1334.83	0.008059
1346.4	0.007729
1357.97	0.005889
1369.55	0.003259
1381.12	0.002459
1392.7	0.001919
1404.27	0.002339
1415.84	0.004099
1427.42	0.005339
1438.99	0.004089
1450.57	0.002979
1462.14	0.003059
1473.71	0.002639
1485.29	0.002009
1496.86	0.004099
1508.44	0.007329
1520.01	0.003989
1531.58	0.001599
1543.16	0.001399
1554.73	0.001849
1566.31	0.003439
1577.88	0.007949
1589.45	0.016089
1601.03	0.023099
1612.6	0.018849
1624.18	0.006709
1635.75	0.002839
1647.32	0.002389
1658.9	0.002679
1670.47	0.003939
1682.05	0.009469
1693.62	0.022389
1705.19	0.022159
1716.77	0.007329
1728.34	0.002299
1739.92	0.001379
1751.49	0.0010299
1763.06	0.0007725
1774.64	0.0005507
1786.21	0.0003952
1797.79	0.0002925
1809.36	0.0002978
1820.93	0.0002847
1832.51	0.0002735
1844.08	0.0002797
1855.66	0.0003299
1867.23	0.0003668
1878.8	0.000375
1890.38	0.0004474
1901.95	0.0004582
1913.53	0.0003975
1925.1	0.0003232
1936.67	0.0002781
1948.25	0.0002133
1959.82	0.00017181
1971.4	0.0002079
1982.97	0.0002139
1994.54	0.0002783
2006.12	0.0002477
2017.69	0.00020412
2029.27	0.00017628
2040.84	9.31e-05
2052.41	0.0001097
2063.99	0.00017073
2075.56	0.00021488
2087.14	0.0002638
2098.71	0.0002506
2110.28	0.0001122
2121.86	7.2e-05
2133.43	7.08e-05
2145.01	6.6e-05
2156.58	7.18e-05
2168.15	7.39e-05
2179.73	6.52e-05
2191.3	4.73e-05
2202.88	6.93e-05
2214.45	7.88e-05
2226.02	8.99e-05
2237.6	0.00012106
2249.17	8.57e-05
2260.74	8.53e-05
2272.32	0.00015507
2283.89	0.00014879
2295.47	0.00018905
2307.04	0.00020853
2318.61	0.00021403
2330.19	0.0002439
2341.76	0.00019947
2353.34	0.00015162
2364.91	0.00018231
2376.48	0.00018828
2388.06	0.00020063
2399.63	0.0002487
2411.21	0.000348
2422.78	0.0004723
2434.35	0.0005717
2445.93	0.000549
2457.5	0.0003798
2469.08	0.0002482
2480.65	0.00019333
2492.22	0.000183
2503.8	0.00020215
2515.37	0.0002593
2526.95	0.0002802
2538.52	0.00020708
2550.09	0.00017342
2561.67	0.0001139
2573.24	0.00016522
2584.82	0.00020159
2596.39	0.00022317
2607.96	0.00020331
2619.54	0.0002002
2631.11	0.00017125
2642.69	0.00018869
2654.26	0.00019552
2665.83	0.00019285
2677.41	0.00016163
2688.98	0.00014344
2700.56	0.00015414
2712.13	0.00018561
2723.7	0.00017058
2735.28	0.00021199
2746.85	0.000238
2758.43	0.0002689
2770	0.0002599
2781.57	0.0002687
2793.15	0.0002465
2804.72	0.0003273
2816.3	0.0004056
2827.87	0.0005048
2839.44	0.0005204
2851.02	0.0005767
2862.59	0.0007774
2874.17	0.001279
2885.74	0.002169
2897.31	0.002429
2908.89	0.002719
2920.46	0.003259
2932.04	0.003119
2943.61	0.004659
2955.18	0.004639
2966.76	0.003289
2978.33	0.005179
2989.91	0.005709
3001.48	0.003539
3013.05	0.002309
3024.63	0.002239
3036.2	0.002879
3047.78	0.002249
3059.35	0.001649
3070.92	0.002049
3082.5	0.001629
3094.07	0.0010288
3105.65	0.0008337
3117.22	0.0006436
3128.79	0.0004222
3140.37	0.0002406
3151.94	0.00014841
3163.52	0.00022471
3175.09	0.00020811
3186.66	0.0002553
3198.24	0.000134651
3209.81	0.00014548
3221.39	0.00013197
3232.96	2.2e-05
3244.53	4.38e-05
3256.11	5.79e-05
3267.68	1.9e-05
3279.26	7.11e-05
3290.83	8.64e-05
3302.4	0.0001064
3313.98	0.000195
3325.55	0.0002308
3337.13	0.00021124
3348.7	0.000235
3360.27	0.0003171
3371.85	0.0004431
3383.42	0.0005496
3395	0.000381
3406.57	0.0002721
3418.14	0.00016299
3429.72	5.19e-05
3441.29	0.00015167
3452.86	0.0001239
3464.44	7.13e-05
3476.01	0.0001158
3487.59	8.75e-05
3499.16	5.68e-05
3510.73	4.31e-05
3522.31	7.12e-05
3533.88	0.0001089
3545.46	5.61e-05
3557.03	7.11e-05
3568.6	9.99e-05
3580.18	8.56e-05
3591.75	0.00014377
3603.33	0.0002944
3614.9	0.0006244
3626.47	0.001939
3638.05	0.009259
3649.62	0.014649
3661.2	0.004019
3672.77	0.0007285
3684.34	0.0002844
3695.92	0.00014416
3707.49	0.00012262
3719.07	0.00014175
3730.64	9.7e-05
3742.21	5.92e-05
3753.79	0.0001111
3765.36	3.06e-05
3776.94	6e-06
3788.51	7.03e-05
3800.08	7.54e-05
3811.66	8.3e-05
3823.23	6.13e-05
3834.81	0.0001127
3846.38	7e-05
3857.95	3.47e-05
3869.53	7.25e-05
3881.1	0.00015752
3892.68	8.8e-05
3904.25	0.000130482
3915.82	0.00019496
3927.4	0.0001725
3938.97	0.00012428
3950.55	0.0001073
3962.12	0.00019095
3973.69	0.00014692
3985.27	0.00022385
3996.84	0.0001253
