Infrared Spectrum: Cyclopentylbenzene
Formula: C 11 H 14
CAS: 700-88-9
State: gas
Instrument: HP-GC/MS/IRD
Origin: NIST Mass Spectrometry Data Center
1/CM	ABSORBANCE
550	0.0011525
562	0.0001175
574	0.000215
586	0.0001775
598	0.0001075
610	0.00032
622	0.000305
634	0.0004175
646	0.0003975
658	0.0005125
670	0.0012125
682	0.00328
694	0.006615
706	0.0056675
718	0.0030475
730	0.0026675
742	0.0038
754	0.00406
766	0.002435
778	0.0009225
790	0.000355
802	0.0001525
814	0.000185
826	6.25e-05
838	0.000205
850	0.000175
862	0.000275
874	0.0004275
886	0.000565
898	0.000635
910	0.0004775
922	0.0003975
934	0.00035
946	0.00034
958	0.00026
970	0.0001875
982	0.000205
994	0.000225
1006	0.00033
1018	0.0008225
1030	0.0012375
1042	0.000555
1054	0.0003625
1066	0.0004175
1078	0.0002425
1090	0.0001075
1102	2e-05
1114	7e-05
1126	8.5e-05
1138	0.00016
1150	0.00014
1162	0.0001025
1174	0.00012
1186	0.0001275
1198	7.25e-05
1210	6.75e-05
1222	9.25e-05
1234	0.0001
1246	0.00012
1258	9.25e-05
1270	0.00018
1282	0.00024
1294	0.00032
1306	0.0004075
1318	0.0004975
1330	0.00039
1342	0.0004875
1354	0.0005
1366	0.0004875
1378	0.00031
1390	0.00028
1402	0.000225
1414	0.000395
1426	0.0006275
1438	0.001325
1450	0.0019675
1462	0.0019725
1474	0.0020925
1486	0.0032575
1498	0.00309
1510	0.001715
1522	0.000765
1534	0.0004275
1546	0.000395
1558	0.0004475
1570	0.00036
1582	0.000765
1594	0.00198
1606	0.0019925
1618	0.0005875
1630	0.000205
1642	0.00025
1654	0.0003975
1666	0.0001975
1678	0.0002525
1690	0.000175
1702	0.00034
1714	0.000335
1726	0.0002475
1738	0.0003275
1750	0.0003625
1762	0.00024
1774	0.000315
1786	0.00058
1798	0.0005725
1810	0.00023
1822	0.0002125
1834	0.00017
1846	0.0003275
1858	0.00034
1870	0.0004275
1882	0.000275
1894	0.0001625
1906	0.00014
1918	0.0003075
1930	0.0003875
1942	0.000505
1954	0.0003575
1966	9.5e-05
1978	8.5e-05
1990	0.000125
2002	6e-05
2014	5.75e-05
2026	5e-05
2038	2.25e-05
2050	1.5e-05
2062	2e-05
2074	5e-05
2086	3.75e-05
2098	3.25e-05
2110	2e-05
2122	4e-05
2134	4e-05
2146	5.25e-05
2158	5.25e-05
2170	6.75e-05
2182	8e-05
2194	7.25e-05
2206	8.25e-05
2218	8.75e-05
2230	7.5e-05
2242	8.5e-05
2254	6.75e-05
2266	0.0001125
2278	9.25e-05
2290	0.00013
2302	0.00011
2314	0.00014
2326	6e-05
2338	2.75e-05
2350	7.75e-05
2362	0
2374	2.75e-05
2386	5.5e-05
2398	5e-05
2410	6.5e-05
2422	5.75e-05
2434	4.75e-05
2446	2.25e-05
2458	5.25e-05
2470	6.25e-05
2482	4.5e-05
2494	5.5e-05
2506	8e-05
2518	0.0001175
2530	9.5e-05
2542	0.00014
2554	0.000165
2566	0.0001675
2578	0.0001675
2590	0.0002075
2602	0.0002025
2614	0.000145
2626	0.000115
2638	0.0001375
2650	0.0001375
2662	0.0001775
2674	0.000165
2686	0.0001725
2698	0.0001875
2710	0.000235
2722	0.0002725
2734	0.000255
2746	0.000255
2758	0.0002825
2770	0.0003725
2782	0.0004425
2794	0.000485
2806	0.000625
2818	0.00075
2830	0.00103
2842	0.0015925
2854	0.0028125
2866	0.0056725
2878	0.0095825
2890	0.00863
2902	0.0067825
2914	0.0076425
2926	0.009705
2938	0.0129575
2950	0.020135
2962	0.025
2974	0.0169075
2986	0.0074475
2998	0.0039
3010	0.00346
3022	0.004775
3034	0.0062675
3046	0.00483
3058	0.004745
3070	0.00645
3082	0.004515
3094	0.00303
3106	0.0018525
3118	0.00101
3130	0.000495
3142	0.00037
3154	0.0003625
3166	0.0003575
3178	0.000295
3190	0.000205
3202	0.000215
3214	0.0001875
3226	0.000185
3238	0.0001775
3250	0.0001825
3262	0.000145
3274	0.00018
3286	9.25e-05
3298	0.0001025
3310	0.0001675
3322	0.0001225
3334	0.000125
3346	0.00011
3358	5.5e-05
3370	0.00013
3382	0.00014
3394	5.75e-05
3406	0.0001175
3418	5.25e-05
3430	3.5e-05
3442	9.5e-05
3454	6.25e-05
3466	8.5e-05
3478	0.0001275
3490	4.75e-05
3502	7.25e-05
3514	4e-05
3526	0.0001425
3538	4.5e-05
3550	0.00014
3562	0.0001325
3574	2.25e-05
3586	0.0001725
3598	5e-06
3610	0.0001325
3622	9.5e-05
3634	0.0001525
3646	0.000115
3658	9e-05
3670	0.00018
3682	9.75e-05
3694	5.75e-05
3706	0.000145
3718	0.0001025
3730	0.0001975
3742	0.0001425
3754	8e-05
3766	3.75e-05
3778	2.5e-06
3790	0
3802	9e-05
3814	2.5e-06
3826	3.75e-05
3838	9.5e-05
