Infrared Spectrum: 3,4-Dimethoxythiophenol
Formula: C 8 H 10 O 2 S
CAS: 700-96-9
State: gas
Origin: EPA-IR VAPOR PHASE LIBRARY
1/CM	ABSORBANCE
549.8	0.0011
559.445	0.00119
569.09	0.00156
578.735	0.00198
588.38	0.00283
598.025	0.00244
607.67	0.00205
617.315	0.00155
626.96	0.0013
636.605	0.00247
646.251	0.00444
655.896	0.00301
665.541	0.0008609
675.186	0.0003086
684.831	0.0003848
694.476	0.0004905
704.121	0.0006056
713.766	0.0007604
723.411	0.00151
733.056	0.00287
742.701	0.00484
752.346	0.00749
761.991	0.00688
771.636	0.00409
781.281	0.00453
790.926	0.00858
800.571	0.01199
810.216	0.01214
819.861	0.00878
829.507	0.00551
839.152	0.00525
848.797	0.00514
858.442	0.006
868.087	0.00989
877.732	0.01162
887.377	0.0065
897.022	0.00328
906.667	0.00256
916.312	0.00284
925.957	0.00291
935.602	0.00246
945.247	0.00214
954.892	0.0023
964.537	0.00297
974.182	0.00396
983.827	0.00559
993.472	0.00872
1003.12	0.01584
1012.76	0.03072
1022.41	0.04603
1032.05	0.04424
1041.7	0.02851
1051.34	0.01382
1060.99	0.00686
1070.63	0.00546
1080.28	0.00621
1089.92	0.00776
1099.57	0.00792
1109.21	0.00966
1118.86	0.0176
1128.5	0.02357
1138.15	0.02011
1147.79	0.01228
1157.44	0.009
1167.08	0.01352
1176.73	0.01925
1186.37	0.01773
1196.02	0.01581
1205.66	0.02339
1215.31	0.03847
1224.95	0.05211
1234.6	0.05527
1244.24	0.05764
1253.89	0.07639
1263.53	0.09298
1273.18	0.07683
1282.82	0.04728
1292.47	0.03021
1302.11	0.01941
1311.76	0.01207
1321.4	0.00834
1331.05	0.00561
1340.69	0.00417
1350.34	0.00369
1359.98	0.00389
1369.63	0.00518
1379.27	0.00967
1388.92	0.01785
1398.56	0.01952
1408.21	0.01283
1417.85	0.00976
1427.5	0.01396
1437.14	0.02258
1446.79	0.02353
1456.43	0.02244
1466.08	0.02687
1475.73	0.03328
1485.37	0.05831
1495.02	0.10126
1504.66	0.0872
1514.31	0.03749
1523.95	0.01662
1533.6	0.0094
1543.24	0.00697
1552.89	0.00786
1562.53	0.01191
1572.18	0.01526
1581.82	0.01601
1591.47	0.01403
1601.11	0.00902
1610.76	0.00497
1620.4	0.0033
1630.05	0.00262
1639.69	0.0023
1649.34	0.00201
1658.98	0.00202
1668.63	0.00202
1678.27	0.00191
1687.92	0.00172
1697.56	0.00164
1707.21	0.00144
1716.85	0.0016
1726.5	0.00155
1736.14	0.00179
1745.79	0.00183
1755.43	0.00174
1765.08	0.00157
1774.72	0.0015
1784.37	0.00138
1794.01	0.00131
1803.66	0.0013
1813.3	0.00132
1822.95	0.00136
1832.59	0.00151
1842.24	0.00151
1851.88	0.00159
1861.53	0.00158
1871.17	0.00156
1880.82	0.00153
1890.46	0.00145
1900.11	0.00137
1909.75	0.00124
1919.4	0.00124
1929.04	0.00111
1938.69	0.00105
1948.33	0.00103
1957.98	0.00106
1967.62	0.00117
1977.27	0.00124
1986.91	0.00156
1996.56	0.00187
2006.2	0.00227
2015.85	0.00258
2025.49	0.00265
2035.14	0.00253
2044.78	0.00218
2054.43	0.00203
2064.07	0.00184
2073.72	0.00175
2083.36	0.00156
2093.01	0.00137
2102.65	0.00126
2112.3	0.00119
2121.94	0.0012
2131.59	0.00112
2141.23	0.00118
2150.88	0.00102
2160.52	0.000988
2170.17	0.0009183
2179.81	0.0009591
2189.46	0.000881
2199.1	0.0008651
2208.75	0.0009207
2218.39	0.0009264
2228.04	0.00115
2237.68	0.00125
2247.33	0.00128
2256.97	0.00137
2266.62	0.00135
2276.26	0.00125
2285.91	0.0011
2295.55	0.001
2305.2	0.0009144
2314.84	0.0009679
2324.49	0.0009449
2334.13	0.0009422
2343.78	0.0009587
2353.42	0.0008982
2363.07	0.0009051
2372.72	0.0007995
2382.36	0.0008588
2392.01	0.0008383
2401.65	0.0008424
2411.3	0.0007711
2420.94	0.0009073
2430.59	0.00104
2440.23	0.00111
2449.88	0.00128
2459.52	0.00136
2469.17	0.00132
2478.81	0.00134
2488.46	0.00139
2498.1	0.00144
2507.75	0.0015
2517.39	0.00164
2527.04	0.00172
2536.68	0.00178
2546.33	0.00185
2555.97	0.00169
2565.62	0.00161
2575.26	0.00163
2584.91	0.00184
2594.55	0.00148
2604.2	0.00122
2613.84	0.00117
2623.49	0.0013
2633.13	0.00136
2642.78	0.00134
2652.42	0.0013
2662.07	0.00125
2671.71	0.00122
2681.36	0.00114
2691	0.00114
2700.65	0.00115
2710.29	0.00112
2719.94	0.00111
2729.58	0.00126
2739.23	0.00131
2748.87	0.00131
2758.52	0.00141
2768.16	0.00148
2777.81	0.00179
2787.45	0.00208
2797.1	0.00265
2806.74	0.00344
2816.39	0.00525
2826.03	0.0086
2835.68	0.01421
2845.32	0.01742
2854.97	0.01444
2864.61	0.01007
2874.26	0.00794
2883.9	0.00815
2893.55	0.00963
2903.19	0.01205
2912.84	0.01515
2922.48	0.01702
2932.13	0.02121
2941.77	0.02901
2951.42	0.02957
2961.06	0.02364
2970.71	0.01786
2980.35	0.01462
2990	0.01485
2999.64	0.01956
3009.29	0.02042
3018.93	0.01264
3028.58	0.00756
3038.22	0.00635
3047.87	0.00635
3057.51	0.00634
3067.16	0.00615
3076.8	0.00527
3086.45	0.00409
3096.09	0.00321
3105.74	0.00265
3115.38	0.00223
3125.03	0.00157
3134.67	0.00131
3144.32	0.00109
3153.96	0.0009119
3163.61	0.0009234
3173.25	0.0008399
3182.9	0.0007
3192.54	0.0006678
3202.19	0.0005887
3211.83	0.000579
3221.48	0.000413
3231.12	0.000555
3240.77	0.0004149
3250.41	0.0005057
3260.06	0.0004172
3269.7	0.0005148
3279.35	0.0003839
3289	0.000314
3298.64	0.0004178
3308.29	0.0003252
3317.93	0.0003325
3327.58	0.0002973
3337.22	0.0003174
3346.87	0.0002844
3356.51	0.0003278
3366.16	0.0002015
3375.8	0.0001529
3385.45	0.0004935
3395.09	0.0005215
3404.74	0.0002294
3414.38	0.0003079
3424.03	0.0003629
3433.67	0.0003537
3443.32	0.0003307
3452.96	0.0004511
3462.61	0.0003145
3472.25	0.0003915
3481.9	0.0004329
3491.54	0.0003723
3501.19	0.0002743
3510.83	0.0003582
3520.48	0.0003835
3530.12	0.0003245
3539.77	0.0003104
3549.41	0.0003735
3559.06	0.0003585
3568.7	0.000435
3578.35	0.0004451
3587.99	0.0003088
3597.64	0.0003721
3607.28	0.0001867
3616.93	0.0003662
3626.57	0.0003222
3636.22	0.000427
3645.86	0.0002547
3655.51	0.0001503
3665.15	0.0003714
3674.8	0.0003193
3684.44	0.0003245
3694.09	0.0004421
3703.73	0.0003262
3713.38	0.0002977
3723.02	0.000398
3732.67	0.0004457
3742.31	0.0003815
3751.96	0.0002128
3761.6	0.0003516
3771.25	0.0003586
3780.89	0.000291
3790.54	0.0002857
3800.18	0.0003153
3809.83	0.0004034
3819.47	0.0005136
3829.12	0.0003666
3838.76	0.0004701
3848.41	0.0004362
3858.05	0.0006444
3867.7	0.0006235
3877.34	0.0004336
3886.99	0.0006207
3896.63	0.0005192
3906.28	0.0004567
3915.92	0.0004717
3925.57	0.0006657
3935.21	0.0006168
3944.86	0.0006713
3954.5	0.0008703
3964.15	0.0006651
3973.79	0.0007646
3983.44	0.0006813
3993.08	0.0006162
