Infrared Spectrum: ACETAMIDE, 2-AMINO-2-PHENYL-
Formula: C8 H10 N2 O
CAS: 700-63-0
State: SOLID (SPLIT MULL), FLUOROLUBE FOR 3800-1335 CM^-^1, NUJOL FOR 1335-400 CM^-^1
Class: COBLENTZ III
Instrument: DOW KBr FOREPRISM-GRATING
Instrument parameters: BLAZED AT 3.5, 12.0, 20.0 MICRON AND CHANGED AT 5.0, 7.5, 14.9 MICRON
Sampling: TRANSMISSION
Resolution: 2
Origin: DOW CHEMICAL COMPANY
1/CM	TRANSMITTANCE
384	0.9149
393	0.9158
402	0.9198
411	0.9245
420	0.9285
429	0.9303
438	0.928
447	0.9225
456	0.8984
465	0.8897
474	0.7497
483	0.9262
492	0.9045
501	0.8165
510	0.9339
519	0.9424
528	0.9444
537	0.9454
546	0.9458
555	0.9449
564	0.9436
573	0.9387
582	0.9025
591	0.7575
600	0.9342
609	0.9353
618	0.9424
627	0.939
636	0.9253
645	0.895
654	0.6561
663	0.5962
672	0.8289
681	0.8065
690	0.7521
699	0.3139
708	0.4364
717	0.6039
726	0.6746
735	0.6215
744	0.4893
753	0.3962
762	0.2398
771	0.2955
780	0.481
789	0.6611
798	0.7168
807	0.6862
816	0.6218
825	0.5968
834	0.7238
843	0.7517
852	0.7265
861	0.7128
870	0.7134
879	0.7439
888	0.8101
897	0.8191
906	0.7851
915	0.5946
924	0.6095
933	0.7637
942	0.7325
951	0.5222
960	0.275
969	0.4283
978	0.4583
987	0.4867
996	0.5065
1005	0.6912
1014	0.8098
1023	0.8089
1032	0.861
1041	0.8711
1050	0.8709
1059	0.8638
1068	0.7871
1077	0.7706
1086	0.8339
1095	0.8067
1104	0.8042
1113	0.7138
1122	0.5305
1131	0.6471
1140	0.8157
1149	0.825
1158	0.7761
1167	0.7939
1176	0.8324
1185	0.8028
1194	0.8486
1203	0.821
1212	0.8385
1221	0.8521
1230	0.8495
1239	0.8428
1248	0.8336
1257	0.8218
1266	0.8085
1275	0.7885
1284	0.7506
1293	0.5825
1302	0.3018
1311	0.5105
1320	0.7215
1329	0.7471
1338	0.6281
1347	0.6575
1356	0.7461
1365	0.7571
1374	0.7578
1383	0.7457
1392	0.7
1401	0.5694
1410	0.4998
1419	0.4912
1428	0.55
1437	0.6528
1446	0.6475
1455	0.5491
1464	0.6546
1473	0.655
1482	0.6496
1491	0.5933
1500	0.6146
1509	0.695
1518	0.6948
1527	0.6897
1536	0.6835
1545	0.6587
1554	0.6324
1563	0.5942
1572	0.5307
1581	0.4905
1590	0.4938
1599	0.5229
1608	0.4968
1617	0.5855
1626	0.571
1635	0.552
1644	0.5158
1653	0.4153
1662	0.2074
1671	0.0477
1680	0.1887
1689	0.4659
1698	0.6451
1707	0.7512
1716	0.8151
1725	0.849
1734	0.8715
1743	0.8725
1752	0.8705
1761	0.8688
1770	0.8641
1779	0.8632
1788	0.8696
1797	0.8696
1806	0.8673
1815	0.8668
1824	0.8664
1833	0.8666
1842	0.8691
1851	0.87
1860	0.8693
1869	0.8667
1878	0.8603
1887	0.8596
1896	0.8637
1905	0.8557
1914	0.8615
1923	0.8651
1932	0.8644
1941	0.86
1950	0.8541
1959	0.8486
1968	0.8468
1977	0.8492
1986	0.8546
1995	0.8548
2004	0.8739
2013	0.8751
2022	0.8746
2031	0.8715
2040	0.8675
2049	0.8671
2058	0.8678
2067	0.8671
2076	0.8655
2085	0.8641
2094	0.8625
2103	0.8611
2112	0.8591
2121	0.8562
2130	0.8528
2139	0.8496
2148	0.8467
2157	0.8439
2166	0.8418
2175	0.841
2184	0.8398
2193	0.8386
2202	0.8375
2211	0.8345
2220	0.8312
2229	0.8268
2238	0.823
2247	0.8199
2256	0.8192
2265	0.8185
2274	0.8176
2283	0.8167
2292	0.8161
2301	0.8198
2310	0.8253
2319	0.8195
2328	0.8089
2337	0.804
2346	0.8076
2355	0.8099
2364	0.8105
2373	0.8106
2382	0.8096
2391	0.8086
2400	0.8078
2409	0.8071
2418	0.8067
2427	0.8065
2436	0.8062
2445	0.8058
2454	0.8051
2463	0.8042
2472	0.8034
2481	0.8025
2490	0.8007
2499	0.7989
2508	0.7971
2517	0.7953
2526	0.7936
2535	0.7918
2544	0.7901
2553	0.788
2562	0.7858
2571	0.7835
2580	0.7814
2589	0.7791
2598	0.7771
2607	0.7753
2616	0.7734
2625	0.7715
2634	0.7696
2643	0.7676
2652	0.7658
2661	0.7638
2670	0.7618
2679	0.76
2688	0.7578
2697	0.7556
2706	0.7534
2715	0.7511
2724	0.7485
2733	0.745
2742	0.7415
2751	0.7378
2760	0.7332
2769	0.7286
2778	0.7247
2787	0.7221
2796	0.7197
2805	0.7151
2814	0.7097
2823	0.7006
2832	0.6871
2841	0.6694
2850	0.631
2859	0.5643
2868	0.673
2877	0.6875
2886	0.6898
2895	0.6875
2904	0.6801
2913	0.6592
2922	0.6497
2931	0.6511
2940	0.6532
2949	0.6486
2958	0.6428
2967	0.6356
2976	0.6267
2985	0.6125
2994	0.5967
3003	0.5806
3012	0.5626
3021	0.5426
3030	0.5212
3039	0.5052
3048	0.4852
3057	0.4391
3066	0.4246
3075	0.4021
3084	0.38
3093	0.3575
3102	0.3442
3111	0.3455
3120	0.355
3129	0.368
3138	0.382
3147	0.3938
3156	0.4037
3165	0.412
3174	0.4181
3183	0.4215
3192	0.4224
3201	0.422
3210	0.4185
3219	0.4147
3228	0.4079
3237	0.3976
3246	0.3864
3255	0.3739
3264	0.3582
3273	0.3414
3282	0.3255
3291	0.3133
3300	0.3063
3309	0.2971
3318	0.296
3327	0.3788
3336	0.4657
3345	0.5502
3354	0.3657
3363	0.5701
3372	0.3977
3381	0.6532
3390	0.7285
3399	0.7422
3408	0.7519
3417	0.7619
3426	0.7694
3435	0.7714
3444	0.7728
3453	0.7722
3462	0.7721
3471	0.7718
3480	0.7715
3489	0.7711
3498	0.7704
3507	0.7693
3516	0.768
3525	0.7665
3534	0.7651
3543	0.7639
3552	0.7626
3561	0.7614
3570	0.76
3579	0.7584
3588	0.7568
3597	0.7553
3606	0.7538
3615	0.7521
3624	0.7508
3633	0.7493
3642	0.7478
3651	0.7465
3660	0.746
3669	0.7456
3678	0.7454
3687	0.7461
3696	0.7434
3705	0.7406
3714	0.7392
3723	0.7384
3732	0.7376
3741	0.7368
3750	0.734
3759	0.7318
3768	0.7304
3777	0.7299
3786	0.7291
3795	0.7269
