Infrared Spectrum: 9H-Adenine, 2-fluoro-
Formula: C5 H4 F N5
CAS: 700-49-2
State: SOLID (0.7 mg / 650 mg KBr DISC)
Class: COBLENTZ III
Instrument: PERKIN-ELMER 21 (GRATING)
Instrument parameters: FILTER CHANGE ABOUT 1090 CM^-^1
Sampling: TRANSMISSION
Resolution: 2
Origin: SOUTHERN RESEARCH INSTITUTE
1/CM	TRANSMITTANCE
600	0.5289
609.026	0.5295
618.053	0.532
627.079	0.5324
636.106	0.5518
645.132	0.5743
654.159	0.6207
663.185	0.63
672.212	0.6373
681.238	0.6251
690.265	0.6393
699.291	0.6175
708.318	0.5815
717.344	0.5229
726.371	0.4119
735.397	0.5653
744.424	0.5869
753.45	0.6194
762.476	0.6424
771.503	0.6582
780.529	0.6281
789.556	0.4601
798.582	0.6297
807.609	0.6358
816.635	0.6349
825.662	0.6316
834.688	0.6693
843.715	0.629
852.741	0.5827
861.768	0.5247
870.794	0.5195
879.821	0.5614
888.847	0.556
897.874	0.5035
906.9	0.4957
915.926	0.5576
924.953	0.6417
933.979	0.6459
943.006	0.6277
952.032	0.6118
961.059	0.5914
970.085	0.5699
979.112	0.4795
988.138	0.4137
997.165	0.4313
1006.19	0.4733
1015.22	0.4421
1024.24	0.3608
1033.27	0.2853
1042.3	0.2496
1051.32	0.2519
1060.35	0.2579
1069.38	0.2604
1078.4	0.2914
1087.43	0.2518
1096.46	0.2864
1105.48	0.305
1114.51	0.2926
1123.54	0.2912
1132.56	0.3347
1141.59	0.4179
1150.61	0.5667
1159.64	0.6133
1168.67	0.6094
1177.69	0.5443
1186.72	0.4779
1195.75	0.4113
1204.77	0.3731
1213.8	0.3597
1222.83	0.3598
1231.85	0.3914
1240.88	0.4534
1249.91	0.4578
1258.93	0.4352
1267.96	0.3838
1276.99	0.3968
1286.01	0.4655
1295.04	0.498
1304.06	0.474
1313.09	0.4343
1322.12	0.4055
1331.14	0.3807
1340.17	0.3209
1349.2	0.2413
1358.22	0.1596
1367.25	0.128
1376.28	0.1342
1385.3	0.1288
1394.33	0.1733
1403.36	0.2946
1412.38	0.3776
1421.41	0.4157
1430.44	0.43
1439.46	0.4384
1448.49	0.455
1457.51	0.483
1466.54	0.5107
1475.57	0.5324
1484.59	0.521
1493.62	0.4058
1502.65	0.4008
1511.67	0.5464
1520.7	0.575
1529.73	0.5802
1538.75	0.6141
1547.78	0.635
1556.81	0.6136
1565.83	0.5403
1574.86	0.3914
1583.89	0.1969
1592.91	0.2379
1601.94	0.2669
1610.96	0.1758
1619.99	0.158
1629.02	0.2364
1638.04	0.2255
1647.07	0.2093
1656.1	0.2166
1665.12	0.2469
1674.15	0.2654
1683.18	0.1883
1692.2	0.1637
1701.23	0.3106
1710.26	0.4677
1719.28	0.556
1728.31	0.6203
1737.34	0.6516
1746.36	0.6687
1755.39	0.6876
1764.41	0.71
1773.44	0.7302
1782.47	0.7459
1791.49	0.759
1800.52	0.767
1809.55	0.7742
1818.57	0.7799
1827.6	0.7844
1836.63	0.7912
1845.65	0.7903
1854.68	0.7986
1863.71	0.7978
1872.73	0.7953
1881.76	0.7955
1890.79	0.7978
1899.81	0.8021
1908.84	0.8016
1917.86	0.7989
1926.89	0.7959
1935.92	0.794
1944.94	0.7926
1953.97	0.791
1963	0.7892
1972.02	0.7875
1981.05	0.7858
1990.08	0.7844
1999.1	0.7829
2008.13	0.7836
2017.16	0.7867
2026.18	0.783
2035.21	0.7804
2044.24	0.7805
2053.26	0.7822
2062.29	0.7826
2071.31	0.7838
2080.34	0.7856
2089.37	0.7856
2098.39	0.7841
2107.42	0.783
2116.45	0.7831
2125.47	0.7847
2134.5	0.7834
2143.53	0.7832
2152.55	0.7843
2161.58	0.7861
2170.61	0.7849
2179.63	0.7871
2188.66	0.7853
2197.69	0.7808
2206.71	0.7812
2215.74	0.782
2224.76	0.7817
2233.79	0.7774
2242.82	0.7761
2251.84	0.7761
2260.87	0.7763
2269.9	0.7765
2278.92	0.7772
2287.95	0.778
2296.98	0.7789
2306	0.78
2315.03	0.78
2324.06	0.7758
2333.08	0.7676
2342.11	0.7597
2351.14	0.7557
2360.16	0.7532
2369.19	0.7509
2378.21	0.7512
2387.24	0.7524
2396.27	0.7542
2405.29	0.7528
2414.32	0.7501
2423.35	0.7472
2432.37	0.7441
2441.4	0.7414
2450.43	0.7388
2459.45	0.7358
2468.48	0.7333
2477.51	0.7324
2486.53	0.7316
2495.56	0.7311
2504.59	0.7311
2513.61	0.73
2522.64	0.7289
2531.66	0.7276
2540.69	0.7247
2549.72	0.7208
2558.74	0.7168
2567.77	0.7125
2576.8	0.7081
2585.82	0.703
2594.85	0.6982
2603.88	0.6942
2612.9	0.6916
2621.93	0.6904
2630.96	0.6874
2639.98	0.6787
2649.01	0.6709
2658.04	0.6656
2667.06	0.661
2676.09	0.6571
2685.11	0.6537
2694.14	0.6505
2703.17	0.6469
2712.19	0.6427
2721.22	0.6368
2730.25	0.6303
2739.27	0.6234
2748.3	0.617
2757.33	0.611
2766.35	0.6051
2775.38	0.6005
2784.41	0.5968
2793.43	0.5962
2802.46	0.5885
2811.49	0.5773
2820.51	0.5656
2829.54	0.551
2838.56	0.5366
2847.59	0.5209
2856.62	0.5073
2865.64	0.4976
2874.67	0.4916
2883.7	0.4897
2892.72	0.4799
2901.75	0.4625
2910.78	0.4408
2919.8	0.4198
2928.83	0.4057
2937.86	0.4113
2946.88	0.4259
2955.91	0.444
2964.94	0.4684
2973.96	0.4852
2982.99	0.495
2992.01	0.498
3001.04	0.4963
3010.07	0.4891
3019.09	0.4841
3028.12	0.47
3037.15	0.4573
3046.17	0.4442
3055.2	0.4296
3064.23	0.4118
3073.25	0.3884
3082.28	0.3622
3091.31	0.3351
3100.33	0.3088
3109.36	0.2881
3118.39	0.2676
3127.41	0.2468
3136.44	0.2239
3145.46	0.2051
3154.49	0.1901
3163.52	0.1715
3172.54	0.1633
3181.57	0.16
3190.6	0.1598
3199.62	0.1637
3208.65	0.1699
3217.68	0.1753
3226.7	0.1799
3235.73	0.1812
3244.76	0.179
3253.78	0.1769
3262.81	0.1732
3271.84	0.1669
3280.86	0.1578
3289.89	0.1498
3298.91	0.1442
3307.94	0.1369
3316.97	0.1297
3325.99	0.1217
3335.02	0.114
3344.05	0.1087
3353.07	0.1058
3362.1	0.1047
3371.13	0.1046
3380.15	0.1061
3389.18	0.1095
3398.21	0.1133
3407.23	0.1174
3416.26	0.1175
3425.29	0.1164
3434.31	0.1195
3443.34	0.1247
3452.36	0.1273
3461.39	0.1337
3470.42	0.1403
3479.44	0.1513
3488.47	0.1625
3497.5	0.185
3506.52	0.2001
3515.55	0.218
3524.58	0.2352
3533.6	0.2469
3542.63	0.2826
3551.66	0.3127
3560.68	0.3365
3569.71	0.3637
3578.74	0.4076
3587.76	0.438
3596.79	0.4635
3605.81	0.506
3614.84	0.5438
3623.87	0.566
3632.89	0.604
3641.92	0.6294
3650.95	0.6453
3659.97	0.6668
3669	0.6854
3678.03	0.7004
3687.05	0.714
3696.08	0.723
3705.11	0.7291
3714.13	0.7331
3723.16	0.7372
3732.19	0.7464
3741.21	0.754
3750.24	0.7582
3759.26	0.7591
3768.29	0.7564
3777.32	0.7531
3786.34	0.7513
3795.37	0.7521
3804.4	0.7563
3813.42	0.7563
3822.45	0.7541
3831.48	0.7556
3840.5	0.7547
3849.53	0.7469
3858.56	0.7441
3867.58	0.7448
3876.61	0.7456
3885.64	0.7472
3894.66	0.7466
3903.69	0.7448
3912.71	0.7417
3921.74	0.7382
3930.77	0.7365
3939.79	0.7413
3948.82	0.7457
3957.85	0.7439
3966.87	0.7431
3975.9	0.7437
3984.93	0.7456
3993.95	0.7474
4002.98	0.7432
