Infrared Spectrum: 5-Fluoro-1-indanone
Formula: C 9 H 7 F O
CAS: 700-84-5
State: gas
Origin: EPA-IR VAPOR PHASE LIBRARY
1/CM	ABSORBANCE
549.8	0.00326
559.445	0.0045
569.09	0.00882
578.735	0.02017
588.38	0.01569
598.025	0.00466
607.67	0.00426
617.315	0.00516
626.96	0.00697
636.605	0.00858
646.251	0.00719
655.896	0.00485
665.541	0.00393
675.186	0.00332
684.831	0.00363
694.476	0.00482
704.121	0.00447
713.766	0.00282
723.411	0.0019518
733.056	0.0020374
742.701	0.00258
752.346	0.00369
761.991	0.00311
771.636	0.002053
781.281	0.00409
790.926	0.00959
800.571	0.01812
810.216	0.02259
819.861	0.02754
829.507	0.02893
839.152	0.02855
848.797	0.02898
858.442	0.04125
868.087	0.03871
877.732	0.02137
887.377	0.00604
897.022	0.00473
906.667	0.00769
916.312	0.02556
925.957	0.05097
935.602	0.03664
945.247	0.00703
954.892	0.00452
964.537	0.00416
974.182	0.0046
983.827	0.00466
993.472	0.00548
1003.12	0.0099
1012.76	0.02831
1022.41	0.0469
1032.05	0.03832
1041.7	0.01528
1051.34	0.00912
1060.99	0.01152
1070.63	0.04219
1080.28	0.08185
1089.92	0.0586
1099.57	0.01299
1109.21	0.00862
1118.86	0.02032
1128.5	0.0211
1138.15	0.00815
1147.79	0.00391
1157.44	0.00316
1167.08	0.00514
1176.73	0.00607
1186.37	0.00608
1196.02	0.00628
1205.66	0.00929
1215.31	0.01934
1224.95	0.03889
1234.6	0.0945
1244.24	0.23237
1253.89	0.30357
1263.53	0.147
1273.18	0.03909
1282.82	0.05371
1292.47	0.07249
1302.11	0.04726
1311.76	0.05503
1321.4	0.08727
1331.05	0.05858
1340.69	0.01245
1350.34	0.00629
1359.98	0.00644
1369.63	0.00731
1379.27	0.00729
1388.92	0.00669
1398.56	0.00722
1408.21	0.01152
1417.85	0.01552
1427.5	0.01671
1437.14	0.02058
1446.79	0.02589
1456.43	0.02293
1466.08	0.02329
1475.73	0.05935
1485.37	0.06286
1495.02	0.02578
1504.66	0.01152
1514.31	0.00918
1523.95	0.00929
1533.6	0.01079
1543.24	0.01197
1552.89	0.01818
1562.53	0.02404
1572.18	0.03203
1581.82	0.08086
1591.47	0.15385
1601.11	0.17078
1610.76	0.1677
1620.4	0.1484
1630.05	0.07002
1639.69	0.02641
1649.34	0.01474
1658.98	0.01086
1668.63	0.01
1678.27	0.01217
1687.92	0.01714
1697.56	0.02251
1707.21	0.02906
1716.85	0.06096
1726.5	0.19884
1736.14	0.44166
1745.79	0.41549
1755.43	0.11734
1765.08	0.03706
1774.72	0.02154
1784.37	0.01656
1794.01	0.01083
1803.66	0.00733
1813.3	0.00643
1822.95	0.00687
1832.59	0.00684
1842.24	0.00558
1851.88	0.00405
1861.53	0.00313
1871.17	0.00273
1880.82	0.00311
1890.46	0.00442
1900.11	0.00565
1909.75	0.00491
1919.4	0.00286
1929.04	0.00235
1938.69	0.00259
1948.33	0.00263
1957.98	0.00258
1967.62	0.00258
1977.27	0.00265
1986.91	0.00264
1996.56	0.00298
2006.2	0.00337
2015.85	0.00294
2025.49	0.0021444
2035.14	0.0022253
2044.78	0.00251
2054.43	0.00232
2064.07	0.0018341
2073.72	0.0014631
2083.36	0.00126556
2093.01	0.001237
2102.65	0.0014124
2112.3	0.00134809
2121.94	0.0011698
2131.59	0.0011692
2141.23	0.0011546
2150.88	0.0014122
2160.52	0.0016183
2170.17	0.0019355
2179.81	0.002119
2189.46	0.0019111
2199.1	0.0020416
2208.75	0.0024
2218.39	0.00232
2228.04	0.0018345
2237.68	0.0017108
2247.33	0.0019428
2256.97	0.0019235
2266.62	0.0016624
2276.26	0.0014274
2285.91	0.0014426
2295.55	0.0015743
2305.2	0.0016121
2314.84	0.0016629
2324.49	0.0020592
2334.13	0.00256
2343.78	0.00252
2353.42	0.00231
2363.07	0.00245
2372.72	0.00285
2382.36	0.0025
2392.01	0.0019256
2401.65	0.0021374
2411.3	0.0021918
2420.94	0.0018231
2430.59	0.0014072
2440.23	0.0012059
2449.88	0.0011574
2459.52	0.001104
2469.17	0.001085
2478.81	0.0012922
2488.46	0.0016083
2498.1	0.0018972
2507.75	0.0016513
2517.39	0.0011928
2527.04	0.001089
2536.68	0.0011933
2546.33	0.0012645
2555.97	0.00127032
2565.62	0.0015534
2575.26	0.0017512
2584.91	0.0016442
2594.55	0.0013623
2604.2	0.0012147
2613.84	0.0011842
2623.49	0.0011795
2633.13	0.0015223
2642.78	0.0020622
2652.42	0.0020514
2662.07	0.0016594
2671.71	0.0012395
2681.36	0.001408
2691	0.0015194
2700.65	0.0015598
2710.29	0.001145
2719.94	0.00111
2729.58	0.00132382
2739.23	0.00131523
2748.87	0.00134949
2758.52	0.00126328
2768.16	0.0011862
2777.81	0.000985
2787.45	0.000855
2797.1	0.000996
2806.74	0.001477
2816.39	0.00226
2826.03	0.00238
2835.68	0.00257
2845.32	0.00443
2854.97	0.00667
2864.61	0.00812
2874.26	0.00965
2883.9	0.00833
2893.55	0.00482
2903.19	0.00287
2912.84	0.00473
2922.48	0.01255
2932.13	0.03245
2941.77	0.04886
2951.42	0.0354
2961.06	0.01872
2970.71	0.01979
2980.35	0.01084
2990	0.00446
2999.64	0.00132617
3009.29	0.0011775
3018.93	0.0019468
3028.58	0.0035
3038.22	0.00461
3047.87	0.00556
3057.51	0.00777
3067.16	0.01007
3076.8	0.00898
3086.45	0.00652
3096.09	0.00457
3105.74	0.0021403
3115.38	0.001548
3125.03	0.0012397
3134.67	0.0012051
3144.32	0.000954
3153.96	0.000403
3163.61	0.00019
3173.25	0.00022
3182.9	0.0002
3192.54	0.000507
3202.19	0.000422
3211.83	0.000752
3221.48	0.000412
3231.12	0.00023
3240.77	0.000283
3250.41	8e-05
3260.06	0.00018
3269.7	4e-05
3279.35	8e-05
3289	0.000284
3298.64	0.00018
3308.29	0.00015
3317.93	0.00016
3327.58	0.000262
3337.22	0.000434
3346.87	0.000335
3356.51	0.000427
3366.16	0.000323
3375.8	0.000493
3385.45	0.000355
3395.09	0.000597
3404.74	0.000604
3414.38	0.000814
3424.03	0.0011836
3433.67	0.0019123
3443.32	0.00319
3452.96	0.00619
3462.61	0.00753
3472.25	0.00516
3481.9	0.00217
3491.54	0.00134283
3501.19	0.001129
3510.83	0.00101
3520.48	0.000801
3530.12	0.000839
3539.77	0.000926
3549.41	0.000778
3559.06	0.000683
3568.7	0.000876
3578.35	0.000791
3587.99	0.00067
3597.64	0.000629
3607.28	0.000549
3616.93	0.000651
3626.57	0.000613
3636.22	0.000797
3645.86	0.000722
3655.51	0.000756
3665.15	0.000746
3674.8	0.000734
3684.44	0.000793
3694.09	0.000752
3703.73	0.000765
3713.38	0.000693
3723.02	0.000788
3732.67	0.000622
3742.31	0.000914
3751.96	0.000881
3761.6	0.000677
3771.25	0.000812
3780.89	0.000982
3790.54	0.000896
3800.18	0.001009
3809.83	0.00097
3819.47	0.00082
3829.12	0.000873
3838.76	0.000743
3848.41	0.000705
3858.05	0.000736
3867.7	0.000639
3877.34	0.000709
3886.99	0.000785
3896.63	0.000729
3906.28	0.000695
3915.92	0.00086
3925.57	0.00084
3935.21	0.001008
3944.86	0.00075
3954.5	0.000688
3964.15	0.000659
3973.79	0.000781
3983.44	0.00066
3993.08	0.000762
