Infrared Spectrum: 2-Hydroxy-6-methoxybenzaldehyde
Formula: C 8 H 8 O 3
CAS: 700-44-7
State: gas
Origin: EPA-IR VAPOR PHASE LIBRARY
1/CM	ABSORBANCE
549.8	0.003417
559.445	0.002807
569.09	0.002317
578.735	0.001797
588.38	0.001937
598.025	0.001927
607.67	0.002477
617.315	0.003597
626.96	0.005417
636.605	0.008447
646.251	0.011157
655.896	0.009647
665.541	0.006657
675.186	0.007797
684.831	0.011437
694.476	0.017787
704.121	0.030357
713.766	0.050667
723.411	0.039037
733.056	0.019327
742.701	0.015037
752.346	0.019327
761.991	0.024697
771.636	0.032977
781.281	0.043797
790.926	0.033587
800.571	0.018737
810.216	0.012507
819.861	0.016507
829.507	0.020867
839.152	0.016427
848.797	0.007327
858.442	0.003627
868.087	0.002087
877.732	0.0013845
887.377	0.0012696
897.022	0.0013384
906.667	0.0015191
916.312	0.0013895
925.957	0.001707
935.602	0.001837
945.247	0.002197
954.892	0.003537
964.537	0.004867
974.182	0.004197
983.827	0.002797
993.472	0.002547
1003.12	0.002947
1012.76	0.003287
1022.41	0.003867
1032.05	0.004847
1041.7	0.006507
1051.34	0.010547
1060.99	0.018477
1070.63	0.031067
1080.28	0.050997
1089.92	0.083997
1099.57	0.095187
1109.21	0.056597
1118.86	0.016367
1128.5	0.009557
1138.15	0.008387
1147.79	0.011067
1157.44	0.024027
1167.08	0.038427
1176.73	0.047477
1186.37	0.049177
1196.02	0.041247
1205.66	0.032597
1215.31	0.036587
1224.95	0.074487
1234.6	0.162267
1244.24	0.208627
1253.89	0.137217
1263.53	0.050087
1273.18	0.025627
1282.82	0.021657
1292.47	0.033117
1302.11	0.042767
1311.76	0.044787
1321.4	0.056417
1331.05	0.062807
1340.69	0.049497
1350.34	0.027547
1359.98	0.018157
1369.63	0.019437
1379.27	0.033077
1388.92	0.053067
1398.56	0.043947
1408.21	0.018787
1417.85	0.015087
1427.5	0.020667
1437.14	0.042337
1446.79	0.068967
1456.43	0.105737
1466.08	0.119497
1475.73	0.076047
1485.37	0.040657
1495.02	0.030627
1504.66	0.025677
1514.31	0.021657
1523.95	0.018667
1533.6	0.017457
1543.24	0.018997
1552.89	0.024517
1562.53	0.036227
1572.18	0.057257
1581.82	0.071367
1591.47	0.063487
1601.11	0.062497
1610.76	0.093647
1620.4	0.109517
1630.05	0.087797
1639.69	0.083727
1649.34	0.144997
1658.98	0.211067
1668.63	0.203667
1678.27	0.123257
1687.92	0.043487
1697.56	0.018367
1707.21	0.010187
1716.85	0.006897
1726.5	0.005537
1736.14	0.004697
1745.79	0.004267
1755.43	0.003687
1765.08	0.003007
1774.72	0.002627
1784.37	0.002547
1794.01	0.002527
1803.66	0.002907
1813.3	0.003287
1822.95	0.003007
1832.59	0.002457
1842.24	0.002127
1851.88	0.001907
1861.53	0.001757
1871.17	0.001717
1880.82	0.001827
1890.46	0.001997
1900.11	0.002057
1909.75	0.002507
1919.4	0.003597
1929.04	0.003697
1938.69	0.002517
1948.33	0.001667
1957.98	0.001657
1967.62	0.001717
1977.27	0.0014151
1986.91	0.0012205
1996.56	0.0013744
2006.2	0.001597
2015.85	0.001827
2025.49	0.001777
2035.14	0.0016052
2044.78	0.001667
2054.43	0.001777
2064.07	0.001727
2073.72	0.0013597
2083.36	0.0009553
2093.01	0.000727
2102.65	0.00068873
2112.3	0.0008076
2121.94	0.0010772
2131.59	0.0012792
2141.23	0.001274
2150.88	0.0012418
2160.52	0.0011252
2170.17	0.0011891
2179.81	0.001369
2189.46	0.0015944
2199.1	0.0015327
2208.75	0.0013009
2218.39	0.0010439
2228.04	0.000976
2237.68	0.0010329
2247.33	0.0012305
2256.97	0.001657
2266.62	0.001857
2276.26	0.001707
2285.91	0.0015479
2295.55	0.0013316
2305.2	0.0012054
2314.84	0.0011404
2324.49	0.0011902
2334.13	0.0014297
2343.78	0.0015447
2353.42	0.0014582
2363.07	0.0012966
2372.72	0.001386
2382.36	0.0013266
2392.01	0.0012532
2401.65	0.0012475
2411.3	0.0011747
2420.94	0.0011089
2430.59	0.0010975
2440.23	0.0010621
2449.88	0.0010039
2459.52	0.0011753
2469.17	0.0012858
2478.81	0.0013742
2488.46	0.0015086
2498.1	0.0014303
2507.75	0.0014639
2517.39	0.0015745
2527.04	0.001917
2536.68	0.002527
2546.33	0.002787
2555.97	0.002957
2565.62	0.002867
2575.26	0.002737
2584.91	0.002477
2594.55	0.002517
2604.2	0.002597
2613.84	0.002737
2623.49	0.002827
2633.13	0.002937
2642.78	0.002827
2652.42	0.002677
2662.07	0.002597
2671.71	0.002597
2681.36	0.002617
2691	0.002817
2700.65	0.003017
2710.29	0.003337
2719.94	0.003777
2729.58	0.004327
2739.23	0.004757
2748.87	0.005467
2758.52	0.006307
2768.16	0.006717
2777.81	0.005877
2787.45	0.004957
2797.1	0.004567
2806.74	0.004867
2816.39	0.005497
2826.03	0.006647
2835.68	0.009297
2845.32	0.014807
2854.97	0.018397
2864.61	0.016317
2874.26	0.017767
2883.9	0.030017
2893.55	0.036997
2903.19	0.028497
2912.84	0.016467
2922.48	0.013687
2932.13	0.014067
2941.77	0.019567
2951.42	0.026067
2961.06	0.025257
2970.71	0.022137
2980.35	0.016637
2990	0.013687
2999.64	0.015517
3009.29	0.020277
3018.93	0.019677
3028.58	0.014707
3038.22	0.013457
3047.87	0.014617
3057.51	0.016587
3067.16	0.018477
3076.8	0.018067
3086.45	0.016857
3096.09	0.015517
3105.74	0.013647
3115.38	0.012447
3125.03	0.011917
3134.67	0.011467
3144.32	0.011297
3153.96	0.011197
3163.61	0.011537
3173.25	0.011447
3182.9	0.011347
3192.54	0.011127
3202.19	0.010767
3211.83	0.010187
3221.48	0.009777
3231.12	0.009477
3240.77	0.009287
3250.41	0.009197
3260.06	0.009067
3269.7	0.008977
3279.35	0.008597
3289	0.008167
3298.64	0.008147
3308.29	0.008047
3317.93	0.007887
3327.58	0.007167
3337.22	0.006497
3346.87	0.005967
3356.51	0.005547
3366.16	0.005037
3375.8	0.004807
3385.45	0.004437
3395.09	0.004317
3404.74	0.004077
3414.38	0.003617
3424.03	0.003517
3433.67	0.003247
3443.32	0.002997
3452.96	0.002847
3462.61	0.002457
3472.25	0.002227
3481.9	0.002107
3491.54	0.001817
3501.19	0.001687
3510.83	0.001554
3520.48	0.0014227
3530.12	0.001399
3539.77	0.0011022
3549.41	0.0010834
3559.06	0.000869
3568.7	0.0007986
3578.35	0.00068549
3587.99	0.0007361
3597.64	0.000531
3607.28	0.0005824
3616.93	0.00066654
3626.57	0.000434
3636.22	0.000377
3645.86	0.000326
3655.51	0.000503
3665.15	0.000249
3674.8	0.000139
3684.44	0.000271
3694.09	0.000149
3703.73	0.000217
3713.38	0.000276
3723.02	0
3732.67	6.3e-05
3742.31	0.000113
3751.96	0.000118
3761.6	0.000209
3771.25	0.000184
3780.89	0.000246
3790.54	0.000219
3800.18	0.000182
3809.83	0.000121
3819.47	0.000165
3829.12	0.000161
3838.76	0.000236
3848.41	0.00032
3858.05	0.000145
3867.7	0.000304
3877.34	0.000305
3886.99	0.000405
3896.63	0.00035
3906.28	0.000327
3915.92	0.000315
3925.57	0.000324
3935.21	0.000365
3944.86	0.000175
3954.5	0.000268
3964.15	0.000325
3973.79	0.000301
3983.44	0.000269
3993.08	0.000296
