Infrared Spectrum: Pentamethylbenzene
Formula: C 11 H 16
CAS: 700-12-9
State: gas
Instrument: HP-GC/MS/IRD
Origin: NIST Mass Spectrometry Data Center
1/CM	ABSORBANCE
550	4e-06
562	9.2e-05
574	1e-05
586	0.000114
598	0.000114
610	0.000186
622	0.00026
634	8e-05
646	6.8e-05
658	0.000198
670	0.000352
682	0.00035
694	0.000228
706	0.000158
718	0.00027
730	0.000228
742	0.000124
754	0.00015
766	0.000142
778	0.000196
790	0.000244
802	0.000386
814	0.000322
826	0.000328
838	0.000556
850	0.001546
862	0.002514
874	0.001186
886	0.000566
898	0.00039
910	0.000282
922	0.000222
934	0.000256
946	0.000288
958	0.000306
970	0.000446
982	0.00065
994	0.00111
1006	0.001812
1018	0.001846
1030	0.001148
1042	0.000908
1054	0.001218
1066	0.001872
1078	0.001906
1090	0.00131
1102	0.000762
1114	0.000548
1126	0.00045
1138	0.000364
1150	0.00032
1162	0.000334
1174	0.00034
1186	0.000328
1198	0.000404
1210	0.000602
1222	0.000612
1234	0.000462
1246	0.000398
1258	0.000398
1270	0.0004
1282	0.000466
1294	0.00052
1306	0.000526
1318	0.000588
1330	0.00062
1342	0.00068
1354	0.000776
1366	0.000964
1378	0.00148
1390	0.001786
1402	0.001832
1414	0.002098
1426	0.00244
1438	0.00352
1450	0.005164
1462	0.006546
1474	0.00689
1486	0.005012
1498	0.00312
1510	0.002246
1522	0.0018
1534	0.001594
1546	0.001564
1558	0.001572
1570	0.001514
1582	0.001366
1594	0.001254
1606	0.001112
1618	0.00079
1630	0.000544
1642	0.000402
1654	0.000318
1666	0.000274
1678	0.000244
1690	0.000268
1702	0.000414
1714	0.000512
1726	0.000394
1738	0.00029
1750	0.000226
1762	0.000188
1774	0.000142
1786	9.8e-05
1798	9.6e-05
1810	9.8e-05
1822	9.4e-05
1834	9e-05
1846	8e-05
1858	0.000114
1870	0.00012
1882	0.000142
1894	0.000134
1906	0.000112
1918	7.6e-05
1930	8.8e-05
1942	0.000102
1954	9.4e-05
1966	8.6e-05
1978	6.6e-05
1990	7.6e-05
2002	6.2e-05
2014	5e-05
2026	4e-05
2038	5.4e-05
2050	7.2e-05
2062	6e-05
2074	7.2e-05
2086	5.6e-05
2098	3.2e-05
2110	3.2e-05
2122	4.6e-05
2134	3.8e-05
2146	5.2e-05
2158	2.8e-05
2170	4.2e-05
2182	2.6e-05
2194	4.2e-05
2206	2.4e-05
2218	2.4e-05
2230	0
2242	2.4e-05
2254	3.6e-05
2266	4.6e-05
2278	3.6e-05
2290	3.8e-05
2302	2.4e-05
2314	2.4e-05
2326	1.8e-05
2338	3.2e-05
2350	4e-05
2362	5e-05
2374	5.8e-05
2386	6.4e-05
2398	8.2e-05
2410	0.00011
2422	0.000102
2434	0.000146
2446	0.000172
2458	0.000186
2470	0.000176
2482	0.000142
2494	0.000126
2506	9.6e-05
2518	8.8e-05
2530	9.8e-05
2542	7.8e-05
2554	5.4e-05
2566	9.6e-05
2578	9.4e-05
2590	0.000106
2602	0.00011
2614	9.2e-05
2626	0.000116
2638	0.00014
2650	0.000158
2662	0.000162
2674	0.000154
2686	0.000174
2698	0.00021
2710	0.000274
2722	0.000484
2734	0.00086
2746	0.000892
2758	0.000684
2770	0.00074
2782	0.000788
2794	0.000866
2806	0.001066
2818	0.001412
2830	0.001936
2842	0.002918
2854	0.004934
2866	0.008542
2878	0.011752
2890	0.011524
2902	0.011366
2914	0.013768
2926	0.01823
2938	0.019896
2950	0.016546
2962	0.012456
2974	0.010608
2986	0.008892
2998	0.008636
3010	0.00961
3022	0.008122
3034	0.006198
3046	0.005044
3058	0.004022
3070	0.003072
3082	0.00225
3094	0.001698
3106	0.001228
3118	0.00094
3130	0.000708
3142	0.00054
3154	0.00042
3166	0.000338
3178	0.00029
3190	0.000212
3202	0.000214
3214	0.00018
3226	0.000108
3238	0.000108
3250	0.000106
3262	8.8e-05
3274	9e-05
3286	7.8e-05
3298	9.6e-05
3310	0.000124
3322	8.2e-05
3334	5.8e-05
3346	7.4e-05
3358	6e-05
3370	2.6e-05
3382	5.6e-05
3394	7e-05
3406	8.6e-05
3418	5.2e-05
3430	6.4e-05
3442	3.6e-05
3454	5.2e-05
3466	5.6e-05
3478	5e-05
3490	8e-05
3502	6e-05
3514	9.6e-05
3526	9.4e-05
3538	7.4e-05
3550	4.4e-05
3562	2e-06
3574	2.6e-05
3586	4.8e-05
3598	3.8e-05
3610	3.4e-05
3622	1e-05
3634	2.4e-05
3646	1.2e-05
3658	2.6e-05
3670	5.6e-05
3682	8.6e-05
3694	3.2e-05
3706	5.8e-05
3718	6.6e-05
3730	6.2e-05
3742	3.4e-05
3754	3.2e-05
3766	6.6e-05
3778	1.4e-05
3790	6.4e-05
3802	5e-05
3814	8.2e-05
3826	6.8e-05
3838	5.8e-05
