Infrared Spectrum: 2-Methylcyclohexylamine,(c,t)
Formula: C 7 H 15 N
CAS: 7003-32-9
State: gas
Origin: EPA-IR VAPOR PHASE LIBRARY
1/CM	ABSORBANCE
549.9	0.00459
559.547	0.00533
569.193	0.00513
578.84	0.00478
588.486	0.00462
598.133	0.00461
607.779	0.00477
617.426	0.00497
627.072	0.00559
636.719	0.00588
646.365	0.00632
656.012	0.00657
665.658	0.00702
675.305	0.00759
684.951	0.00838
694.598	0.00967
704.245	0.0115
713.891	0.01431
723.538	0.01858
733.184	0.02387
742.831	0.0276
752.477	0.02956
762.124	0.03045
771.77	0.03651
781.417	0.0422
791.063	0.04008
800.71	0.0291
810.356	0.01808
820.003	0.01363
829.649	0.01335
839.296	0.01396
848.943	0.01399
858.589	0.01309
868.236	0.01096
877.882	0.00875
887.529	0.00732
897.175	0.00707
906.822	0.00721
916.468	0.00696
926.115	0.00644
935.761	0.00568
945.408	0.00503
955.054	0.00515
964.701	0.00663
974.347	0.00803
983.994	0.00768
993.64	0.0061
1003.29	0.00487
1012.93	0.00487
1022.58	0.00563
1032.23	0.00727
1041.87	0.00985
1051.52	0.01174
1061.17	0.0114
1070.81	0.00935
1080.46	0.00868
1090.11	0.00891
1099.75	0.00925
1109.4	0.00862
1119.05	0.00668
1128.69	0.00466
1138.34	0.00343
1147.99	0.00311
1157.63	0.00321
1167.28	0.00303
1176.92	0.00298
1186.57	0.00292
1196.22	0.0026
1205.86	0.00232
1215.51	0.00251
1225.16	0.00281
1234.8	0.00375
1244.45	0.00479
1254.1	0.00473
1263.74	0.0039
1273.39	0.00302
1283.04	0.00309
1292.68	0.00379
1302.33	0.00445
1311.98	0.00454
1321.62	0.00462
1331.27	0.00538
1340.92	0.00643
1350.56	0.00819
1360.21	0.01063
1369.86	0.01283
1379.5	0.01298
1389.15	0.01028
1398.79	0.00613
1408.44	0.00423
1418.09	0.00439
1427.73	0.00696
1437.38	0.01495
1447.03	0.0236
1456.67	0.02875
1466.32	0.02424
1475.97	0.01448
1485.61	0.00741
1495.26	0.0046
1504.91	0.00343
1514.55	0.00299
1524.2	0.00275
1533.85	0.00276
1543.49	0.00291
1553.14	0.00319
1562.79	0.00363
1572.43	0.0045
1582.08	0.00585
1591.73	0.00841
1601.37	0.01281
1611.02	0.01754
1620.67	0.01858
1630.31	0.01483
1639.96	0.00922
1649.6	0.00537
1659.25	0.00345
1668.9	0.00246
1678.54	0.0019949
1688.19	0.0015586
1697.84	0.0013736
1707.48	0.00130993
1717.13	0.0012512
1726.78	0.0012025
1736.42	0.0011734
1746.07	0.001108
1755.72	0.00111
1765.36	0.001105
1775.01	0.0011735
1784.66	0.0011981
1794.3	0.0012112
1803.95	0.00124229
1813.6	0.0012086
1823.24	0.001134
1832.89	0.001131
1842.54	0.001053
1852.18	0.000935
1861.83	0.00091
1871.47	0.000822
1881.12	0.000767
1890.77	0.000787
1900.41	0.000766
1910.06	0.000669
1919.71	0.000578
1929.35	0.000568
1939	0.000548
1948.65	0.0005
1958.29	0.000478
1967.94	0.000492
1977.59	0.000458
1987.23	0.000481
1996.88	0.000504
2006.53	0.000515
2016.17	0.000563
2025.82	0.000657
2035.47	0.000575
2045.11	0.000539
2054.76	0.000487
2064.41	0.00053
2074.05	0.000539
2083.7	0.000477
2093.35	0.000534
2102.99	0.000554
2112.64	0.000582
2122.28	0.00057
2131.93	0.000684
2141.58	0.000708
2151.22	0.000712
2160.87	0.000751
2170.52	0.000731
2180.16	0.000714
2189.81	0.000703
2199.46	0.000681
2209.1	0.000716
2218.75	0.000697
2228.4	0.000677
2238.04	0.000686
2247.69	0.000719
2257.34	0.000705
2266.98	0.000709
2276.63	0.000782
2286.28	0.000782
2295.92	0.000836
2305.57	0.000858
2315.22	0.000919
2324.86	0.000906
2334.51	0.000861
2344.16	0.000904
2353.8	0.000926
2363.45	0.000915
2373.09	0.000967
2382.74	0.000979
2392.39	0.000979
2402.03	0.00097
2411.68	0.00104
2421.33	0.001097
2430.97	0.00111
2440.62	0.001051
2450.27	0.001003
2459.91	0.000949
2469.56	0.001018
2479.21	0.001062
2488.85	0.0011547
2498.5	0.0011573
2508.15	0.00129083
2517.79	0.00129685
2527.44	0.0012991
2537.09	0.0013878
2546.73	0.0014913
2556.38	0.0015457
2566.03	0.0017654
2575.67	0.0020866
2585.32	0.00249
2594.96	0.00291
2604.61	0.00311
2614.26	0.00317
2623.9	0.00307
2633.55	0.00328
2643.2	0.0037
2652.84	0.00435
2662.49	0.005
2672.14	0.00515
2681.78	0.00451
2691.43	0.00408
2701.08	0.00374
2710.72	0.0036
2720.37	0.00386
2730.02	0.0042
2739.66	0.00449
2749.31	0.0045
2758.96	0.00449
2768.6	0.00471
2778.25	0.00559
2787.9	0.00717
2797.54	0.00919
2807.19	0.01175
2816.84	0.01454
2826.48	0.01852
2836.13	0.02887
2845.77	0.0549
2855.42	0.09348
2865.07	0.11972
2874.71	0.10606
2884.36	0.08224
2894.01	0.074
2903.65	0.09699
2913.3	0.15712
2922.95	0.22994
2932.59	0.30102
2942.24	0.23461
2951.89	0.14881
2961.53	0.08449
2971.18	0.05447
2980.83	0.03154
2990.47	0.01512
3000.12	0.00762
3009.77	0.00404
3019.41	0.00284
3029.06	0.00286
3038.71	0.00299
3048.35	0.00316
3058	0.00299
3067.64	0.00261
3077.29	0.00252
3086.94	0.00232
3096.58	0.00249
3106.23	0.00249
3115.88	0.00252
3125.52	0.0021657
3135.17	0.0017913
3144.82	0.001642
3154.46	0.0014734
3164.11	0.0012036
3173.76	0.001129
3183.4	0.001011
3193.05	0.000839
3202.7	0.000749
3212.34	0.00082
3221.99	0.00095
3231.64	0.00101
3241.28	0.000941
3250.93	0.001035
3260.58	0.00106
3270.22	0.001031
3279.87	0.000866
3289.52	0.00057
3299.16	0.000668
3308.81	0.000863
3318.45	0.001057
3328.1	0.0015513
3337.75	0.001848
3347.39	0.0016531
3357.04	0.0013902
3366.69	0.000817
3376.33	0.000666
3385.98	0.000462
3395.63	0.000417
3405.27	0.000523
3414.92	0.000497
3424.57	0.000358
3434.21	0.000343
3443.86	0.00024
3453.51	0.000254
3463.15	0.000412
3472.8	0.000588
3482.45	0.000589
3492.09	0.000487
3501.74	0.000418
3511.39	0.000285
3521.03	0.00021
3530.68	9e-05
3540.33	0.00024
3549.97	0.000278
3559.62	8e-05
3569.26	0.00022
3578.91	0.00013
3588.56	7e-05
3598.2	0.00015
3607.85	0.00022
3617.5	0.00024
3627.14	0.0002
3636.79	0.00015
3646.44	9e-05
3656.08	0.000319
3665.73	0.00015
3675.38	0.000277
3685.02	0.000361
3694.67	0.000486
3704.32	0.000451
3713.96	0.000518
3723.61	0.000458
3733.26	0.000309
3742.9	0.000306
3752.55	0.000495
3762.2	0.000655
3771.84	0.000726
3781.49	0.000659
3791.13	0.000614
3800.78	0.000509
3810.43	0.000611
3820.07	0.000496
3829.72	0.000621
3839.37	0.000534
3849.01	0.000725
3858.66	0.000656
3868.31	0.000635
3877.95	0.000577
3887.6	0.00061
3897.25	0.000571
3906.89	0.000586
3916.54	0.000696
3926.19	0.000564
3935.83	0.000564
3945.48	0.000679
3955.13	0.000658
3964.77	0.000707
3974.42	0.000719
3984.07	0.000755
3993.71	0.000944
