Infrared Spectrum: 2-Methyl-1-nonene-3-yne
Formula: C 10 H 16
CAS: 70058-00-3
State: gas
Instrument: HP-GC/MS/IRD
Origin: NIST Mass Spectrometry Data Center
1/CM	ABSORBANCE
550	0.0005566
562	0.0003381
574	0.0002208
586	4.37e-05
598	3.91e-05
610	0
622	5.29e-05
634	0.0001311
646	0.0001403
658	0.0001104
670	5.75e-05
682	0.0001127
694	0.0001679
706	0.0001817
718	0.0001702
730	0.0002415
742	0.0003082
754	0.0001817
766	0.0001656
778	0.0001081
790	3.68e-05
802	5.06e-05
814	8.74e-05
826	6.9e-05
838	0.0002024
850	0.0004301
862	0.0010626
874	0.0024127
886	0.0038778
898	0.0041446
910	0.0026887
922	0.0011431
934	0.0004715
946	0.000253
958	0.0002047
970	0.0002484
982	0.0002507
994	0.0002553
1006	0.0003128
1018	0.0003036
1030	0.000184
1042	0.000161
1054	0.0001564
1066	0.000207
1078	0.0002093
1090	0.00023
1102	0.0002231
1114	0.0001886
1126	9.2e-05
1138	1.15e-05
1150	7.36e-05
1162	0.0001127
1174	9.2e-05
1186	0.0001656
1198	0.0002438
1210	0.0002231
1222	0.0002553
1234	0.0003427
1246	0.0003772
1258	0.0005589
1270	0.0010327
1282	0.0024449
1294	0.0031142
1306	0.0020654
1318	0.00207
1330	0.0029072
1342	0.0022586
1354	0.0018055
1366	0.0020033
1378	0.0023713
1390	0.0016261
1402	0.0010994
1414	0.0011638
1426	0.0017112
1438	0.0027807
1450	0.0031579
1462	0.0032476
1474	0.0021137
1486	0.0010718
1498	0.000621
1510	0.0004255
1522	0.000368
1534	0.0003726
1546	0.0003588
1558	0.0004784
1570	0.0006647
1582	0.0011017
1594	0.0019458
1606	0.0026864
1618	0.0029762
1630	0.0016491
1642	0.0007153
1654	0.0003565
1666	0.0002093
1678	0.0001564
1690	0.0001196
1702	0.0001403
1714	0.0001334
1726	9.43e-05
1738	0.0001311
1750	0.0001564
1762	0.0002116
1774	0.0003749
1786	0.0007061
1798	0.0005865
1810	0.0002875
1822	0.0001403
1834	9.2e-05
1846	5.52e-05
1858	4.37e-05
1870	2.53e-05
1882	2.53e-05
1894	3.45e-05
1906	4.14e-05
1918	4.14e-05
1930	4.83e-05
1942	3.68e-05
1954	4.6e-05
1966	4.83e-05
1978	3.45e-05
1990	3.68e-05
2002	2.76e-05
2014	5.06e-05
2026	5.29e-05
2038	5.52e-05
2050	4.37e-05
2062	3.45e-05
2074	5.75e-05
2086	5.75e-05
2098	5.29e-05
2110	2.3e-05
2122	3.22e-05
2134	5.29e-05
2146	6.67e-05
2158	6.9e-05
2170	0.000115
2182	0.0001771
2194	0.0002806
2206	0.000621
2218	0.0009821
2230	0.0007521
2242	0.0002507
2254	8.74e-05
2266	6.21e-05
2278	4.83e-05
2290	5.98e-05
2302	4.6e-05
2314	3.68e-05
2326	2.3e-05
2338	4.37e-05
2350	3.45e-05
2362	7.59e-05
2374	3.91e-05
2386	4.37e-05
2398	5.98e-05
2410	3.45e-05
2422	3.22e-05
2434	4.14e-05
2446	2.07e-05
2458	1.15e-05
2470	2.99e-05
2482	9.2e-06
2494	9.2e-06
2506	6.9e-06
2518	2.3e-05
2530	4.83e-05
2542	4.83e-05
2554	6.21e-05
2566	1.61e-05
2578	8.05e-05
2590	6.44e-05
2602	8.74e-05
2614	8.05e-05
2626	0.0001196
2638	0.0001564
2650	0.0002231
2662	0.0002116
2674	0.0002323
2686	0.0001702
2698	0.0001495
2710	0.0001909
2722	0.0002714
2734	0.0003358
2746	0.0003657
2758	0.0003657
2770	0.0003979
2782	0.0004531
2794	0.0006003
2806	0.000782
2818	0.0010971
2830	0.0016146
2842	0.0028497
2854	0.0049059
2866	0.0075739
2878	0.0081834
2890	0.0072427
2902	0.0075739
2914	0.0108951
2926	0.0172086
2938	0.023
2950	0.018676
2962	0.0153226
2974	0.0132986
2986	0.0077924
2998	0.0040549
3010	0.0026749
3022	0.0020608
3034	0.0014145
3046	0.0010603
3058	0.00092
3070	0.0008786
3082	0.0011891
3094	0.0020125
3106	0.0022563
3118	0.0008326
3130	0.0004945
3142	0.0003243
3154	0.0002415
3166	0.0002231
3178	0.0002047
3190	0.0001817
3202	0.0001403
3214	0.0001334
3226	0.0001495
3238	0.0001288
3250	0.0001127
3262	8.28e-05
3274	0.0001173
3286	0.0001173
3298	0.0001288
3310	7.13e-05
3322	6.9e-05
3334	6.21e-05
3346	0.0001035
3358	7.82e-05
3370	8.97e-05
3382	5.06e-05
3394	4.83e-05
3406	4.14e-05
3418	2.07e-05
3430	1.38e-05
3442	5.98e-05
3454	5.29e-05
3466	9.43e-05
3478	5.29e-05
3490	8.05e-05
3502	7.13e-05
3514	5.52e-05
3526	4.14e-05
3538	7.13e-05
3550	5.75e-05
3562	5.75e-05
3574	5.29e-05
3586	8.51e-05
3598	6.44e-05
3610	7.59e-05
3622	8.51e-05
3634	0.0001265
3646	0.0001012
3658	9.2e-05
3670	4.37e-05
3682	0.0001219
3694	0.0001058
3706	0.0001012
3718	0.000115
3730	0.0001058
3742	0.0001288
3754	0.0001771
3766	0.0001081
3778	0.0001219
3790	5.29e-05
3802	0.0001035
3814	0.0001357
3826	9.89e-05
3838	0.0001242
