Infrared Spectrum: 4-Chlorophenyl phenyl ether
Formula: C 12 H 9 Cl O
CAS: 7005-72-3
State: gas
Instrument: HP-GC/MS/IRD
Origin: NIST Mass Spectrometry Data Center
1/CM	ABSORBANCE
550	6.08e-05
562	0
574	0.000114
586	0.0005396
598	0.0005548
610	0.0004636
622	0.0005928
634	0.0007068
646	0.0015124
658	0.0030476
670	0.001824
682	0.0031464
694	0.0046436
706	0.0025764
718	0.0017024
730	0.0022192
742	0.0048336
754	0.0080788
766	0.005092
778	0.0025004
790	0.0020292
802	0.00228
814	0.0033136
826	0.005624
838	0.0063992
850	0.0042332
862	0.0070528
874	0.0054416
886	0.0015808
898	0.0011552
910	0.0009272
922	0.0004788
934	0.0003268
946	0.0002812
958	0.0003116
970	0.0003648
982	0.000608
994	0.000836
1006	0.0038836
1018	0.00418
1030	0.0012768
1042	0.0006156
1054	0.0011172
1066	0.0024244
1078	0.0054644
1090	0.0118636
1102	0.0083904
1114	0.002584
1126	0.0013604
1138	0.0013376
1150	0.0023028
1162	0.0069236
1174	0.0035112
1186	0.0037468
1198	0.0049172
1210	0.0079268
1222	0.01805
1234	0.0510112
1246	0.068742
1258	0.020938
1270	0.0110428
1282	0.006612
1294	0.0052896
1306	0.0032756
1318	0.002052
1330	0.00171
1342	0.0013148
1354	0.0011248
1366	0.0008664
1378	0.0008284
1390	0.0009956
1402	0.0010944
1414	0.001558
1426	0.0027436
1438	0.001786
1450	0.002698
1462	0.0073188
1474	0.0273296
1486	0.0659908
1498	0.0214548
1510	0.007904
1522	0.0042256
1534	0.0026144
1546	0.0021736
1558	0.0027588
1570	0.00646
1582	0.0158536
1594	0.0091276
1606	0.0047348
1618	0.0018012
1630	0.0011324
1642	0.0009728
1654	0.0007828
1666	0.000532
1678	0.0003952
1690	0.0004028
1702	0.000494
1714	0.00057
1726	0.0005928
1738	0.00057
1750	0.0006384
1762	0.000494
1774	0.0005092
1786	0.000342
1798	0.0002432
1810	0.0001824
1822	0.000228
1834	0.0002964
1846	0.0004256
1858	0.0006612
1870	0.0010184
1882	0.0009576
1894	0.00057
1906	0.0004712
1918	0.0005016
1930	0.0005928
1942	0.0005776
1954	0.0003876
1966	0.0001672
1978	0.0001976
1990	0.0002584
2002	0.00038
2014	0.0005168
2026	0.0007296
2038	0.00057
2050	0.0004332
2062	0.0005168
2074	0.000342
2086	0.0002432
2098	0.0001368
2110	7.6e-05
2122	3.04e-05
2134	2.28e-05
2146	3.8e-05
2158	3.04e-05
2170	1.52e-05
2182	7.6e-06
2194	7.6e-06
2206	0
2218	3.04e-05
2230	6.08e-05
2242	7.6e-05
2254	0.0001292
2266	0.000152
2278	0.0001216
2290	6.84e-05
2302	9.12e-05
2314	0.0001444
2326	0.0001672
2338	0.0001444
2350	0.0002128
2362	0.000266
2374	0.0002128
2386	0.0003116
2398	0.0004788
2410	0.0005092
2422	0.0005624
2434	0.000722
2446	0.0005244
2458	0.000342
2470	0.0002736
2482	0.0001748
2494	0.0001292
2506	0.0001216
2518	0.000114
2530	0.000114
2542	0.000152
2554	0.000114
2566	0.0001292
2578	7.6e-05
2590	7.6e-05
2602	2.28e-05
2614	2.28e-05
2626	6.08e-05
2638	6.08e-05
2650	4.56e-05
2662	7.6e-05
2674	7.6e-05
2686	9.12e-05
2698	6.84e-05
2710	5.32e-05
2722	5.32e-05
2734	9.12e-05
2746	8.36e-05
2758	6.84e-05
2770	6.08e-05
2782	8.36e-05
2794	8.36e-05
2806	0.0001216
2818	0.0001976
2830	0.000228
2842	0.0001672
2854	0.000114
2866	0.000114
2878	0.0001292
2890	9.88e-05
2902	9.12e-05
2914	5.32e-05
2926	9.12e-05
2938	7.6e-05
2950	0.000114
2962	8.36e-05
2974	9.12e-05
2986	0.000152
2998	0.000228
3010	0.0004864
3022	0.001064
3034	0.0020444
3046	0.0033364
3058	0.002546
3070	0.003116
3082	0.004294
3094	0.002964
3106	0.0017556
3118	0.000608
3130	0.0002204
3142	0.0001368
3154	0.0001216
3166	0.0001368
3178	0.0001368
3190	8.36e-05
3202	9.88e-05
3214	4.56e-05
3226	6.84e-05
3238	5.32e-05
3250	9.88e-05
3262	7.6e-05
3274	8.36e-05
3286	9.12e-05
3298	7.6e-05
3310	6.84e-05
3322	6.08e-05
3334	3.04e-05
3346	6.08e-05
3358	7.6e-06
3370	5.32e-05
3382	3.04e-05
3394	7.6e-05
3406	3.04e-05
3418	6.08e-05
3430	3.8e-05
3442	3.8e-05
3454	5.32e-05
3466	4.56e-05
3478	6.84e-05
3490	0.0001064
3502	5.32e-05
3514	6.84e-05
3526	5.32e-05
3538	1.52e-05
3550	3.8e-05
3562	2.28e-05
3574	6.84e-05
3586	3.04e-05
3598	7.6e-05
3610	6.84e-05
3622	0.0001064
3634	7.6e-05
3646	9.88e-05
3658	9.88e-05
3670	0.000114
3682	0.0001444
3694	0.0001064
3706	0.0001368
3718	0.0001064
3730	0.000152
3742	0.0001292
3754	0.0001748
3766	0.0001216
3778	4.56e-05
3790	9.12e-05
3802	0.000114
3814	0.0001064
3826	7.6e-05
3838	0.0001292
