Infrared Spectrum: 3-Chloro-N-methylaniline
Formula: C 7 H 8 Cl N
CAS: 7006-52-2
State: gas
Origin: EPA-IR VAPOR PHASE LIBRARY
1/CM	ABSORBANCE
549.9	0.00713
559.547	0.00616
569.193	0.005
578.84	0.0045
588.486	0.00475
598.133	0.00518
607.779	0.00592
617.426	0.00631
627.072	0.00661
636.719	0.00708
646.365	0.00744
656.012	0.00846
665.658	0.01251
675.305	0.01974
684.951	0.02235
694.598	0.01885
704.245	0.01295
713.891	0.0096
723.538	0.00817
733.184	0.00857
742.831	0.0129
752.477	0.02313
762.124	0.03687
771.77	0.02364
781.417	0.01195
791.063	0.00625
800.71	0.00534
810.356	0.00584
820.003	0.00846
829.649	0.01509
839.296	0.02665
848.943	0.03006
858.589	0.02801
868.236	0.02306
877.882	0.01696
887.529	0.00705
897.175	0.00293
906.822	0.0019606
916.468	0.0016629
926.115	0.0014339
935.761	0.0014403
945.408	0.0014196
955.054	0.0015185
964.701	0.0017568
974.347	0.00306
983.994	0.00958
993.64	0.01023
1003.29	0.00377
1012.93	0.00213
1022.58	0.00238
1032.23	0.00339
1041.87	0.00586
1051.52	0.0105
1061.17	0.01587
1070.81	0.01888
1080.46	0.0224
1090.11	0.02881
1099.75	0.02453
1109.4	0.0125
1119.05	0.00574
1128.69	0.00488
1138.34	0.00606
1147.99	0.00937
1157.63	0.01221
1167.28	0.01078
1176.92	0.00672
1186.57	0.00393
1196.22	0.00394
1205.86	0.00366
1215.51	0.00407
1225.16	0.00698
1234.8	0.0123
1244.45	0.01606
1254.1	0.01721
1263.74	0.01846
1273.39	0.01946
1283.04	0.01961
1292.68	0.01702
1302.33	0.02017
1311.98	0.02649
1321.62	0.02386
1331.27	0.01432
1340.92	0.00722
1350.56	0.00454
1360.21	0.0035
1369.86	0.00384
1379.5	0.00528
1389.15	0.0073
1398.79	0.01056
1408.44	0.01458
1418.09	0.01567
1427.73	0.01459
1437.38	0.01315
1447.03	0.01214
1456.67	0.01483
1466.32	0.02293
1475.97	0.03948
1485.61	0.05918
1495.26	0.07507
1504.91	0.07254
1514.55	0.04784
1524.2	0.02294
1533.85	0.01482
1543.49	0.01096
1553.14	0.01153
1562.79	0.01741
1572.43	0.03322
1582.08	0.06688
1591.73	0.12032
1601.37	0.13327
1611.02	0.08474
1620.67	0.03412
1630.31	0.01514
1639.96	0.0081
1649.6	0.00562
1659.25	0.00419
1668.9	0.00382
1678.54	0.00355
1688.19	0.00315
1697.84	0.00275
1707.48	0.00278
1717.13	0.00253
1726.78	0.00215
1736.42	0.0017534
1746.07	0.0016313
1755.72	0.0014622
1765.36	0.0014112
1775.01	0.0013742
1784.66	0.0014299
1794.3	0.0016704
1803.95	0.00205
1813.6	0.0018177
1823.24	0.0013605
1832.89	0.0011712
1842.54	0.0011643
1852.18	0.00108068
1861.83	0.0009528
1871.47	0.000942
1881.12	0.0009824
1890.77	0.0015558
1900.41	0.00213
1910.06	0.0019261
1919.71	0.0012205
1929.35	0.000784
1939	0.000695
1948.65	0.000679
1958.29	0.000648
1967.94	0.000662
1977.59	0.000706
1987.23	0.000685
1996.88	0.00061
2006.53	0.000611
2016.17	0.000554
2025.82	0.000449
2035.47	0.000502
2045.11	0.000472
2054.76	0.000455
2064.41	0.000504
2074.05	0.000526
2083.7	0.000504
2093.35	0.000587
2102.99	0.000649
2112.64	0.000651
2122.28	0.000693
2131.93	0.000819
2141.58	0.000854
2151.22	0.000898
2160.87	0.00076
2170.52	0.000606
2180.16	0.000413
2189.81	0.000345
2199.46	0.000358
2209.1	0.000344
2218.75	0.000316
2228.4	0.000363
2238.04	0.000336
2247.69	0.00037
2257.34	0.000307
2266.98	0.000319
2276.63	0.000376
2286.28	0.000432
2295.92	0.000297
2305.57	0.000317
2315.22	0.000378
2324.86	0.00054
2334.51	0.000617
2344.16	0.000598
2353.8	0.000582
2363.45	0.000578
2373.09	0.000626
2382.74	0.000582
2392.39	0.000604
2402.03	0.000573
2411.68	0.000573
2421.33	0.000426
2430.97	0.00033
2440.62	0.000411
2450.27	0.000475
2459.91	0.000579
2469.56	0.00053
2479.21	0.000469
2488.85	0.000426
2498.5	0.000403
2508.15	0.000394
2517.79	0.000563
2527.44	0.000742
2537.09	0.000867
2546.73	0.00102582
2556.38	0.00105979
2566.03	0.0009972
2575.67	0.000929
2585.32	0.000853
2594.96	0.000683
2604.61	0.00059
2614.26	0.00069
2623.9	0.000793
2633.55	0.000772
2643.2	0.000841
2652.84	0.000926
2662.49	0.000914
2672.14	0.000833
2681.78	0.000869
2691.43	0.000857
2701.08	0.000874
2710.72	0.0010431
2720.37	0.00111485
2730.02	0.0012282
2739.66	0.0013726
2749.31	0.0016679
2758.96	0.00204
2768.6	0.00226
2778.25	0.00265
2787.9	0.00329
2797.54	0.00436
2807.19	0.00658
2816.84	0.01045
2826.48	0.01312
2836.13	0.01152
2845.77	0.00834
2855.42	0.00716
2865.07	0.00753
2874.71	0.00897
2884.36	0.01185
2894.01	0.0159
2903.65	0.018
2913.3	0.01872
2922.95	0.01811
2932.59	0.01671
2942.24	0.01651
2951.89	0.0159
2961.53	0.01389
2971.18	0.01213
2980.83	0.01391
2990.47	0.01449
3000.12	0.01073
3009.77	0.00703
3019.41	0.00754
3029.06	0.00824
3038.71	0.00775
3048.35	0.008
3058	0.00859
3067.64	0.00942
3077.29	0.0097
3086.94	0.00899
3096.58	0.00638
3106.23	0.00362
3115.88	0.00211
3125.52	0.0012054
3135.17	0.000635
3144.82	0.000609
3154.46	0.000628
3164.11	0.000551
3173.76	0.000568
3183.4	0.000452
3193.05	0.000596
3202.7	0.000448
3212.34	0.000211
3221.99	0.000236
3231.64	0.000348
3241.28	0.000209
3250.93	0.000274
3260.58	0.000524
3270.22	0.000321
3279.87	0.000266
3289.52	0.000268
3299.16	0.000328
3308.81	0.000225
3318.45	0.00037
3328.1	0.000224
3337.75	0.000131
3347.39	0.00042
3357.04	0.00027
3366.69	0.000373
3376.33	0.000485
3385.98	0.0005
3395.63	0.000723
3405.27	0.000826
3414.92	0.0010101
3424.57	0.0019461
3434.21	0.00323
3443.86	0.00622
3453.51	0.00849
3463.15	0.00844
3472.8	0.00553
3482.45	0.00279
3492.09	0.0016126
3501.74	0.00109724
3511.39	0.0009584
3521.03	0.000814
3530.68	0.000649
3540.33	0.000767
3549.97	0.000734
3559.62	0.000675
3569.26	0.000503
3578.91	0.000758
3588.56	0.000625
3598.2	0.00058
3607.85	0.000735
3617.5	0.000537
3627.14	0.000536
3636.79	0.000552
3646.44	0.000613
3656.08	0.000514
3665.73	0.000595
3675.38	0.000635
3685.02	0.000655
3694.67	0.000685
3704.32	0.00072
3713.96	0.000637
3723.61	0.000723
3733.26	0.000728
3742.9	0.000848
3752.55	0.000703
3762.2	0.000754
3771.84	0.000759
3781.49	0.00059
3791.13	0.000613
3800.78	0.000554
3810.43	0.000573
3820.07	0.00052
3829.72	0.000492
3839.37	0.000593
3849.01	0.00067
3858.66	0.000681
3868.31	0.000573
3877.95	0.000628
3887.6	0.000752
3897.25	0.000794
3906.89	0.000719
3916.54	0.000736
3926.19	0.000748
3935.83	0.000678
3945.48	0.000764
3955.13	0.000748
3964.77	0.000725
3974.42	0.000892
3984.07	0.000725
3993.71	0.000841
