Infrared Spectrum: Ethyl 4-nitrophenylglyoxylate
Formula: C 10 H 9 N O 5
CAS: 70091-75-7
State: gas
Origin: EPA-IR VAPOR PHASE LIBRARY
1/CM	ABSORBANCE
549.8	0.00930584
559.445	0.00648584
569.09	0.00665584
578.734	0.00678584
588.379	0.00739584
598.024	0.00909584
607.669	0.0103758
617.313	0.0129158
626.958	0.0150658
636.603	0.0136158
646.248	0.0147158
655.893	0.0166958
665.537	0.0208658
675.182	0.0323658
684.827	0.0528958
694.472	0.0882058
704.116	0.114556
713.761	0.0854958
723.406	0.0673058
733.051	0.0592358
742.695	0.0597258
752.34	0.0590658
761.985	0.0591858
771.63	0.0596458
781.275	0.0618658
790.919	0.0603258
800.564	0.0571958
810.209	0.0661958
819.854	0.0902558
829.498	0.132716
839.143	0.125766
848.788	0.153766
858.433	0.163016
868.078	0.0830458
877.722	0.0690558
887.367	0.0366158
897.012	0.0214558
906.657	0.0181258
916.301	0.0163158
925.946	0.0175458
935.591	0.0211758
945.236	0.0321358
954.88	0.0665358
964.525	0.170566
974.17	0.241056
983.815	0.149636
993.46	0.104396
1003.1	0.147526
1012.75	0.285726
1022.39	0.298736
1032.04	0.248126
1041.68	0.121496
1051.33	0.0645858
1060.97	0.0419758
1070.62	0.0337158
1080.26	0.0364558
1089.91	0.0491758
1099.55	0.0612158
1109.2	0.0546558
1118.84	0.0428458
1128.49	0.0424958
1138.13	0.0532958
1147.78	0.0877558
1157.42	0.181136
1167.07	0.433016
1176.71	0.745826
1186.36	1.03751
1196	0.722216
1205.64	0.265076
1215.29	0.134806
1224.93	0.0972158
1234.58	0.0872958
1244.22	0.0785858
1253.87	0.0864158
1263.51	0.110146
1273.16	0.137616
1282.8	0.166306
1292.45	0.205266
1302.09	0.222816
1311.74	0.211856
1321.38	0.169746
1331.03	0.187236
1340.67	0.332306
1350.32	0.421506
1359.96	0.240876
1369.61	0.144326
1379.25	0.105146
1388.9	0.0731658
1398.54	0.0599658
1408.18	0.0635058
1417.83	0.0442458
1427.47	0.0339658
1437.12	0.0324758
1446.76	0.0345758
1456.41	0.0371558
1466.05	0.0430058
1475.7	0.0484858
1485.34	0.0516658
1494.99	0.0539758
1504.63	0.0610658
1514.28	0.0927258
1523.92	0.152916
1533.57	0.320036
1543.21	0.494726
1552.86	0.325386
1562.5	0.157116
1572.15	0.110526
1581.79	0.100086
1591.44	0.134146
1601.08	0.153656
1610.73	0.108346
1620.37	0.0553658
1630.01	0.0356358
1639.66	0.0296858
1649.3	0.0285658
1658.95	0.0317858
1668.59	0.0393758
1678.24	0.0519558
1687.88	0.0755858
1697.53	0.151016
1707.17	0.369826
1716.82	0.485546
1726.46	0.317526
1736.11	0.317666
1745.75	0.393896
1755.4	0.370006
1765.04	0.294566
1774.69	0.172166
1784.33	0.0841458
1793.98	0.0484758
1803.62	0.0334558
1813.27	0.0217458
1822.91	0.0154158
1832.55	0.0126958
1842.2	0.0106758
1851.84	0.00912584
1861.49	0.00843584
1871.13	0.00806584
1880.78	0.00790584
1890.42	0.00745584
1900.07	0.00707584
1909.71	0.00757584
1919.36	0.00902584
1929	0.0106458
1938.65	0.0105358
1948.29	0.00837584
1957.94	0.00611584
1967.58	0.00452584
1977.23	0.00372584
1986.87	0.00314584
1996.52	0.00299584
2006.16	0.00300584
2015.81	0.00318584
2025.45	0.00384584
2035.1	0.00431584
2044.74	0.00448584
2054.38	0.00426584
2064.03	0.00394584
2073.67	0.00376584
2083.32	0.00340584
2092.96	0.00333584
2102.61	0.00321584
2112.25	0.00324584
2121.9	0.00348584
2131.54	0.00355584
2141.19	0.00374584
2150.83	0.00386584
2160.48	0.00369584
2170.12	0.00312584
2179.77	0.00259584
2189.41	0.00215584
2199.06	0.00234584
2208.7	0.00258584
2218.35	0.00255584
2227.99	0.00239584
2237.64	0.00241584
2247.28	0.00249584
2256.92	0.00262584
2266.57	0.00295584
2276.21	0.00348584
2285.86	0.00367584
2295.5	0.00305584
2305.15	0.00229584
2314.79	0.00212584
2324.44	0.00219584
2334.08	0.00230584
2343.73	0.00244584
2353.37	0.00301584
2363.02	0.00327584
2372.66	0.00332584
2382.31	0.00338584
2391.95	0.00329584
2401.6	0.00322584
2411.24	0.00307584
2420.89	0.00300584
2430.53	0.00327584
2440.18	0.00396584
2449.82	0.00516584
2459.47	0.00578584
2469.11	0.00587584
2478.75	0.00550584
2488.4	0.00480584
2498.04	0.00383584
2507.69	0.00298584
2517.33	0.00249584
2526.98	0.00218584
2536.62	0.00202584
2546.27	0.00209584
2555.91	0.00215584
2565.56	0.00237584
2575.2	0.00239584
2584.85	0.00265584
2594.49	0.00285584
2604.14	0.00285584
2613.78	0.00267584
2623.43	0.00181584
2633.07	0.00159584
2642.72	0.00170584
2652.36	0.00225584
2662.01	0.00312584
2671.65	0.00435584
2681.29	0.00555584
2690.94	0.00579584
2700.58	0.00550584
2710.23	0.00464584
2719.87	0.00393584
2729.52	0.00334584
2739.16	0.00343584
2748.81	0.00354584
2758.45	0.00414584
2768.1	0.00489584
2777.74	0.00535584
2787.39	0.00517584
2797.03	0.00460584
2806.68	0.00421584
2816.32	0.00445584
2825.97	0.00562584
2835.61	0.00673584
2845.26	0.00814584
2854.9	0.0104258
2864.55	0.0138458
2874.19	0.0184558
2883.84	0.0231558
2893.48	0.0232658
2903.12	0.0232658
2912.77	0.0266358
2922.41	0.0267058
2932.06	0.0299858
2941.7	0.0437858
2951.35	0.0486558
2960.99	0.0385658
2970.64	0.0465658
2980.28	0.0723858
2989.93	0.108266
2999.57	0.0746158
3009.22	0.0527858
3018.86	0.0355158
3028.51	0.0223658
3038.15	0.0153658
3047.8	0.0137658
3057.44	0.0133958
3067.09	0.0115358
3076.73	0.00975584
3086.38	0.00777584
3096.02	0.00676584
3105.67	0.00710584
3115.31	0.00726584
3124.95	0.00535584
3134.6	0.00454584
3144.24	0.00398584
3153.89	0.00320584
3163.53	0.00284584
3173.18	0.00252584
3182.82	0.00232584
3192.47	0.00217584
3202.11	0.00205584
3211.76	0.00188584
3221.4	0.00151584
3231.05	0.00130584
3240.69	0.00089704
3250.34	0.00080314
3259.98	0.00060994
3269.63	0.00069504
3279.27	0.00038634
3288.92	0.00033394
3298.56	0.00055294
3308.21	0.00084054
3317.85	0.00096434
3327.49	0.00110584
3337.14	0.00103584
3346.78	0.00106584
3356.43	0.00134584
3366.07	0.00178584
3375.72	0.00247584
3385.36	0.00372584
3395.01	0.00532584
3404.65	0.00688584
3414.3	0.00652584
3423.94	0.00467584
3433.59	0.00339584
3443.23	0.00305584
3452.88	0.00346584
3462.52	0.00386584
3472.17	0.00430584
3481.81	0.00363584
3491.46	0.00328584
3501.1	0.00316584
3510.75	0.00253584
3520.39	0.00211584
3530.04	0.00148584
3539.68	0.00096054
3549.32	0.00067474
3558.97	0.00061444
3568.61	0.00012174
3578.26	0.00035124
3587.9	0.00019344
3597.55	0.00032514
3607.19	0.00034504
3616.84	0.00032144
3626.48	0
3636.13	0.00022934
3645.77	0.00017394
3655.42	0.00026174
3665.06	0.00035554
3674.71	0.00031354
3684.35	0.00038714
3694	0.00042284
3703.64	0.00039654
3713.29	0.00050654
3722.93	0.00059234
3732.58	0.00100244
3742.22	0.00091464
3751.86	0.00053204
3761.51	0.00063214
3771.15	0.00072344
3780.8	0.00055574
3790.44	0.00038534
3800.09	0.00054634
3809.73	0.00075134
3819.38	0.00068214
3829.02	0.00071594
3838.67	0.00037884
3848.31	0.00023434
3857.96	0.00033744
3867.6	0.00036724
3877.25	0.00041374
3886.89	0.00048364
3896.54	0.00060424
3906.18	0.00030894
3915.83	0.00062644
3925.47	0.00067344
3935.12	0.00052494
3944.76	0.00062704
3954.41	0.00047294
3964.05	0.00042174
3973.69	0.00053304
3983.34	0.00049474
3992.98	0.00067644
