Infrared Spectrum: TRICHLORO-p-TOLYLSILANE
Formula: C7 H7 Cl3 Si
CAS: 701-35-9
State: SOLUTION (11% IN CCl4 FOR 3800-1300, 3% IN CS2 FOR 1300-620, AND 11% IN CCl4 FOR 620-250 CM^-^1)
Class: COBLENTZ II
Instrument: PERKIN-ELMER 521 (GRATING)
Instrument parameters: FILTERS AT 3150, 2500, 2000, 1150, 700, 410. GRATING CHANGES: 2000, 630 CM^-^1
Sampling: TRANSMISSION
Path length: 0.011 CM, 0.011 CM, AND 0.012 CM
Resolution: 2
Origin: DOW CORNING CORP.
1/CM	TRANSMITTANCE
255.225	0.732
264.565	0.742
273.906	0.768
283.246	0.772
292.586	0.773
301.927	0.768
311.267	0.752
320.608	0.745
329.948	0.637
339.288	0.727
348.629	0.844
357.969	0.849
367.309	0.85
376.65	0.846
385.99	0.851
395.331	0.856
404.671	0.852
414.011	0.852
423.352	0.851
432.692	0.844
442.032	0.823
451.373	0.815
460.713	0.806
470.054	0.787
479.394	0.676
488.734	0.2369
498.075	0.088
507.415	0.568
516.755	0.714
526.096	0.766
535.436	0.753
544.776	0.72
554.117	0.69
563.457	0.559
572.798	0.125
582.138	0.059
591.478	0.183
600.819	0.5441
610.159	0.706
619.499	0.706
628.84	0.706
638.18	0.657
647.521	0.27
656.861	0.841
666.201	0.888
675.542	0.903
684.882	0.899
694.222	0.904
703.563	0.871
712.903	0.915
722.243	0.922
731.584	0.923
740.924	0.919
750.265	0.924
759.605	0.934
768.945	0.937
778.286	0.928
787.626	0.898
796.966	0.519
806.307	0.788
815.647	0.922
824.988	0.935
834.328	0.94
843.668	0.932
853.009	0.934
862.349	0.939
871.689	0.943
881.03	0.943
890.37	0.95
899.711	0.953
909.051	0.952
918.391	0.95
927.732	0.949
937.072	0.944
946.412	0.943
955.753	0.942
965.093	0.937
974.433	0.939
983.774	0.943
993.114	0.948
1002.45	0.95
1011.79	0.95
1021.14	0.938
1030.48	0.92
1039.82	0.927
1049.16	0.937
1058.5	0.937
1067.84	0.93
1077.18	0.923
1086.52	0.913
1095.86	0.9
1105.2	0.7178
1114.54	0.471
1123.88	0.894
1133.22	0.918
1142.56	0.944
1151.9	0.944
1161.24	0.939
1170.58	0.939
1179.92	0.927
1189.26	0.8351
1198.6	0.938
1207.94	0.937
1217.28	0.934
1226.62	0.932
1235.96	0.935
1245.3	0.938
1254.64	0.934
1263.98	0.925
1273.33	0.932
1282.67	0.93
1292.01	0.929
1301.35	0.875
1310.69	0.7659
1320.03	0.832
1329.37	0.844
1338.71	0.84
1348.05	0.846
1357.39	0.845
1366.73	0.837
1376.07	0.7659
1385.41	0.755
1394.75	0.4639
1404.09	0.709
1413.43	0.768
1422.77	0.754
1432.11	0.718
1441.45	0.661
1450.79	0.66
1460.13	0.724
1469.47	0.779
1478.81	0.8
1488.15	0.806
1497.49	0.772
1506.83	0.7791
1516.17	0.861
1525.52	0.874
1534.86	0.898
1544.2	0.905
1553.54	0.905
1562.88	0.899
1572.22	0.88
1581.56	0.852
1590.9	0.74
1600.24	0.3378
1609.58	0.4462
1618.92	0.8211
1628.26	0.837
1637.6	0.813
1646.94	0.832
1656.28	0.871
1665.62	0.88
1674.96	0.888
1684.3	0.891
1693.64	0.891
1702.98	0.893
1712.32	0.89
1721.66	0.888
1731	0.884
1740.34	0.88
1749.68	0.874
1759.02	0.877
1768.36	0.888
1777.71	0.89
1787.05	0.885
1796.39	0.877
1805.73	0.841
1815.07	0.893
1824.41	0.9
1833.75	0.898
1843.09	0.894
1852.43	0.894
1861.77	0.894
1871.11	0.893
1880.45	0.893
1889.79	0.888
1899.13	0.879
1908.47	0.85
1917.81	0.789
1927.15	0.885
1936.49	0.899
1945.83	0.906
1955.17	0.906
1964.51	0.906
1973.85	0.909
1983.19	0.911
1992.53	0.915
2001.87	0.916
2011.21	0.918
2020.55	0.919
2029.9	0.922
2039.24	0.924
2048.58	0.924
2057.92	0.925
2067.26	0.923
2076.6	0.9227
2085.94	0.92
2095.28	0.92
2104.62	0.9224
2113.96	0.924
2123.3	0.924
2132.64	0.9209
2141.98	0.918
2151.32	0.9168
2160.66	0.916
2170	0.916
2179.34	0.916
2188.68	0.9152
2198.02	0.915
2207.36	0.913
2216.7	0.913
2226.04	0.9101
2235.38	0.904
2244.72	0.91
2254.06	0.914
2263.4	0.915
2272.74	0.916
2282.09	0.916
2291.43	0.916
2300.77	0.916
2310.11	0.914
2319.45	0.9133
2328.79	0.9147
2338.13	0.914
2347.47	0.914
2356.81	0.914
2366.15	0.914
2375.49	0.914
2384.83	0.913
2394.17	0.911
2403.51	0.91
2412.85	0.908
2422.19	0.9083
2431.53	0.91
2440.87	0.913
2450.21	0.914
2459.55	0.914
2468.89	0.9099
2478.23	0.9112
2487.57	0.91
2496.91	0.909
2506.25	0.911
2515.59	0.9099
2524.93	0.8999
2534.28	0.8963
2543.62	0.905
2552.96	0.908
2562.3	0.91
2571.64	0.911
2580.98	0.9093
2590.32	0.9
2599.66	0.9077
2609	0.9071
2618.34	0.9005
2627.68	0.9055
2637.02	0.91
2646.36	0.91
2655.7	0.911
2665.04	0.911
2674.38	0.91
2683.72	0.91
2693.06	0.9082
2702.4	0.9013
2711.74	0.8999
2721.08	0.899
2730.42	0.893
2739.76	0.901
2749.1	0.906
2758.44	0.908
2767.78	0.909
2777.12	0.9088
2786.47	0.905
2795.81	0.9008
2805.15	0.8955
2814.49	0.8874
2823.83	0.881
2833.17	0.8782
2842.51	0.8702
2851.85	0.8423
2861.19	0.794
2870.53	0.7773
2879.87	0.8116
2889.21	0.8204
2898.55	0.8174
2907.89	0.8029
2917.23	0.7319
2926.57	0.6518
2935.91	0.7484
2945.25	0.7555
2954.59	0.7452
2963.93	0.747
2973.27	0.7352
2982.61	0.722
2991.95	0.7711
3001.29	0.8008
3010.63	0.7829
3019.97	0.7439
3029.31	0.6964
3038.66	0.7103
3048	0.7276
3057.34	0.8003
3066.68	0.791
3076.02	0.7419
3085.36	0.8221
3094.7	0.8833
3104.04	0.8855
3113.38	0.8902
3122.72	0.9051
3132.06	0.9136
3141.4	0.9156
3150.74	0.919
3160.08	0.92
3169.42	0.92
3178.76	0.92
3188.1	0.92
3197.44	0.9181
3206.78	0.9218
3216.12	0.9239
3225.46	0.924
3234.8	0.924
3244.14	0.924
3253.48	0.923
3262.82	0.924
3272.16	0.923
3281.5	0.9228
3290.85	0.9215
3300.19	0.919
3309.53	0.918
3318.87	0.915
3328.21	0.914
3337.55	0.913
3346.89	0.911
3356.23	0.911
3365.57	0.911
3374.91	0.911
3384.25	0.911
3393.59	0.913
3402.93	0.913
3412.27	0.913
3421.61	0.913
3430.95	0.915
3440.29	0.915
3449.63	0.916
3458.97	0.916
3468.31	0.9179
3477.65	0.92
3486.99	0.92
3496.33	0.92
3505.67	0.919
3515.01	0.918
3524.35	0.918
3533.69	0.918
3543.04	0.919
3552.38	0.92
3561.72	0.918
3571.06	0.916
3580.4	0.916
3589.74	0.919
3599.08	0.92
3608.42	0.918
3617.76	0.919
3627.1	0.92
3636.44	0.919
3645.78	0.916
3655.12	0.9115
3664.46	0.911
3673.8	0.913
3683.14	0.9158
3692.48	0.919
3701.82	0.925
3711.16	0.92
3720.5	0.925
3729.84	0.9219
3739.18	0.92
3748.52	0.92
3757.86	0.927
3767.2	0.9266
3776.54	0.924
3785.88	0.924
3795.23	0.924
3804.57	0.924
3813.91	0.924
