Infrared Spectrum: Phenoxy acetyl chloride
Formula: C 8 H 7 Cl O 2
CAS: 701-99-5
State: gas
Origin: EPA-IR VAPOR PHASE LIBRARY
1/CM	ABSORBANCE
549.8	0.006555
559.445	0.009325
569.09	0.010615
578.734	0.009275
588.379	0.008085
598.024	0.006845
607.669	0.006035
617.313	0.005525
626.958	0.004545
636.603	0.004465
646.248	0.004175
655.893	0.004145
665.537	0.005545
675.182	0.008325
684.827	0.012395
694.472	0.011275
704.116	0.008505
713.761	0.007755
723.406	0.010915
733.051	0.019635
742.695	0.033785
752.34	0.039685
761.985	0.031855
771.63	0.023655
781.275	0.022155
790.919	0.015855
800.564	0.008795
810.209	0.006375
819.854	0.005805
829.498	0.005905
839.143	0.006695
848.788	0.007785
858.433	0.006255
868.078	0.004945
877.722	0.005715
887.367	0.006445
897.012	0.006705
906.657	0.008775
916.301	0.015285
925.946	0.031255
935.591	0.047845
945.236	0.039045
954.88	0.028115
964.525	0.021185
974.17	0.013615
983.815	0.009255
993.46	0.007615
1003.1	0.006465
1012.75	0.005735
1022.39	0.007145
1032.04	0.008005
1041.68	0.010365
1051.33	0.013465
1060.97	0.014745
1070.62	0.014295
1080.26	0.014595
1089.91	0.014285
1099.55	0.010935
1109.2	0.006905
1118.84	0.003955
1128.49	0.002905
1138.13	0.002895
1147.78	0.003205
1157.42	0.005365
1167.07	0.010455
1176.71	0.011515
1186.36	0.009205
1196	0.016385
1205.64	0.043105
1215.29	0.066235
1224.93	0.054915
1234.58	0.038395
1244.22	0.028075
1253.87	0.019795
1263.51	0.020505
1273.16	0.019495
1282.8	0.016875
1292.45	0.013735
1302.09	0.011185
1311.74	0.007025
1321.38	0.004315
1331.03	0.004075
1340.67	0.003765
1350.32	0.003085
1359.96	0.002885
1369.61	0.002355
1379.25	0.002205
1388.9	0.002135
1398.54	0.002445
1408.18	0.003345
1417.83	0.005065
1427.47	0.006205
1437.12	0.006245
1446.76	0.005465
1456.41	0.005125
1466.05	0.005905
1475.7	0.010195
1485.34	0.028325
1494.99	0.049495
1504.63	0.024535
1514.28	0.006295
1523.92	0.003325
1533.57	0.002515
1543.21	0.002535
1552.86	0.003135
1562.5	0.004415
1572.15	0.007485
1581.79	0.014185
1591.44	0.027335
1601.08	0.028895
1610.73	0.010865
1620.37	0.003865
1630.01	0.002295
1639.66	0.001615
1649.3	0.001485
1658.95	0.001305
1668.59	0.001435
1678.24	0.001435
1687.88	0.001765
1697.53	0.001975
1707.17	0.001865
1716.82	0.002015
1726.46	0.002075
1736.11	0.002625
1745.75	0.003455
1755.4	0.005235
1765.04	0.008165
1774.69	0.013645
1784.33	0.025715
1793.98	0.040205
1803.62	0.040745
1813.27	0.042495
1822.91	0.048665
1832.55	0.035495
1842.2	0.022465
1851.84	0.015835
1861.49	0.013005
1871.13	0.011515
1880.78	0.010275
1890.42	0.008765
1900.07	0.006505
1909.71	0.004555
1919.36	0.003765
1929	0.003135
1938.65	0.002775
1948.29	0.002425
1957.94	0.001885
1967.58	0.001555
1977.23	0.001395
1986.87	0.001445
1996.52	0.001515
2006.16	0.001475
2015.81	0.001305
2025.45	0.0011109
2035.1	0.0010387
2044.74	0.0010157
2054.38	0.0010785
2064.03	0.0011003
2073.67	0.0010192
2083.32	0.0009991
2092.96	0.0009911
2102.61	0.0008814
2112.25	0.0008284
2121.9	0.0009342
2131.54	0.0010561
2141.19	0.0009517
2150.83	0.0009639
2160.48	0.0009885
2170.12	0.0009602
2179.77	0.0009248
2189.41	0.0006424
2199.06	0.0006685
2208.7	0.0006285
2218.35	0.0005436
2227.99	0.0006421
2237.64	0.000652
2247.28	0.0006373
2256.92	0.0008042
2266.57	0.0008223
2276.21	0.0008894
2285.86	0.0009195
2295.5	0.0009149
2305.15	0.0011633
2314.79	0.001048
2324.44	0.0009631
2334.08	0.0008982
2343.73	0.0008079
2353.37	0.0007371
2363.02	0.0007964
2372.66	0.0007935
2382.31	0.0007774
2391.95	0.0006652
2401.6	0.000606
2411.24	0.0006485
2420.89	0.0007351
2430.53	0.0007156
2440.18	0.0005558
2449.82	0.0006345
2459.47	0.0006344
2469.11	0.000672
2478.75	0.0007203
2488.4	0.0005434
2498.04	0.0006733
2507.69	0.0005356
2517.33	0.0006457
2526.98	0.0005745
2536.62	0.0006788
2546.27	0.0007296
2555.91	0.0007102
2565.56	0.0006731
2575.2	0.0007091
2584.85	0.0005173
2594.49	0.0005225
2604.14	0.0005165
2613.78	0.0005619
2623.43	0.0005113
2633.07	0.0004813
2642.72	0.0005369
2652.36	0.0004495
2662.01	0.0004667
2671.65	0.0004512
2681.29	0.0006782
2690.94	0.0004993
2700.58	0.0006352
2710.23	0.0006249
2719.87	0.0005115
2729.52	0.0004995
2739.16	0.000539
2748.81	0.0005711
2758.45	0.0005162
2768.1	0.0006903
2777.74	0.0006317
2787.39	0.0005044
2797.03	0.0006806
2806.68	0.0005736
2816.32	0.0007795
2825.97	0.0007428
2835.61	0.0010378
2845.26	0.001235
2854.9	0.001285
2864.55	0.001405
2874.19	0.001415
2883.84	0.001655
2893.48	0.001965
2903.12	0.002895
2912.77	0.004185
2922.41	0.005425
2932.06	0.005695
2941.7	0.004365
2951.35	0.002975
2960.99	0.002735
2970.64	0.002195
2980.28	0.001395
2989.93	0.0010522
2999.57	0.0010441
3009.22	0.001495
3018.86	0.002285
3028.51	0.003315
3038.15	0.005655
3047.8	0.007415
3057.44	0.006605
3067.09	0.006665
3076.73	0.008525
3086.38	0.007955
3096.02	0.005845
3105.67	0.004415
3115.31	0.002405
3124.95	0.0010977
3134.6	0.0008301
3144.24	0.0006499
3153.89	0.0004833
3163.53	0.0006187
3173.18	0.0006259
3182.82	0.0005606
3192.47	0.0006015
3202.11	0.0004216
3211.76	0.0006229
3221.4	0.0003821
3231.05	0.0004527
3240.69	0.00030033
3250.34	0.00026466
3259.98	0.0003984
3269.63	0.0004017
3279.27	0.00025512
3288.92	0.0003228
3298.56	0.00031123
3308.21	0.0003212
3317.85	0.0003665
3327.49	0.0002449
3337.14	8.9e-05
3346.78	0.00031418
3356.43	0.0004602
3366.07	0.0004497
3375.72	0.0006044
3385.36	0.0004592
3395.01	0.00029171
3404.65	0.00030346
3414.3	0.0003938
3423.94	0.0005213
3433.59	0.00031079
3443.23	0.0003909
3452.88	0.0004439
3462.52	0.00022961
3472.17	0.0004166
3481.81	0.0005318
3491.46	0.0004559
3501.1	0.0004475
3510.75	0.0004558
3520.39	0.0006715
3530.04	0.0006873
3539.68	0.000728
3549.32	0.0007955
3558.97	0.0008743
3568.61	0.001085
3578.26	0.0011866
3587.9	0.0008471
3597.55	0.0009703
3607.19	0.0010519
3616.84	0.0011144
3626.48	0.0009101
3636.13	0.0009661
3645.77	0.001305
3655.42	0.001405
3665.06	0.0011667
3674.71	0.0007539
3684.35	0.0007466
3694	0.0005867
3703.64	0.0007664
3713.29	0.0004869
3722.93	0.0007191
3732.58	0.0005051
3742.22	0.0006893
3751.86	0.0008757
3761.51	0.00027419
3771.15	0.0003527
3780.8	0.0005557
3790.44	0.0006262
3800.09	0.0004497
3809.73	0.0005088
3819.38	0.000395
3829.02	0.0005275
3838.67	0.0007486
3848.31	0.0004725
3857.96	0.000402
3867.6	0.0008434
3877.25	0.0004314
3886.89	0.0004402
3896.54	0.0004405
3906.18	0.0004653
3915.83	0.000553
3925.47	0.0006133
3935.12	0.0005462
3944.76	0.0005055
3954.41	0.0006817
3964.05	0.0004611
3973.69	0.0004663
3983.34	0.0003948
3992.98	0.0007856
