Infrared Spectrum: 4-Bromobenzenesulphonamide
Formula: C 6 H 6 Br N O 2 S
CAS: 701-34-8
State: gas
Origin: EPA-IR VAPOR PHASE LIBRARY
1/CM	ABSORBANCE
549.8	0.022385
559.445	0.015275
569.09	0.011945
578.734	0.015505
588.379	0.029215
598.024	0.053435
607.669	0.044845
617.313	0.021265
626.958	0.014365
636.603	0.010835
646.248	0.008745
655.893	0.008475
665.537	0.007945
675.182	0.007945
684.827	0.007605
694.472	0.007945
704.116	0.008685
713.761	0.009995
723.406	0.016225
733.051	0.044145
742.695	0.021815
752.34	0.012235
761.985	0.011045
771.63	0.010415
781.275	0.010365
790.919	0.011765
800.564	0.015485
810.209	0.022695
819.854	0.032695
829.498	0.029485
839.143	0.029185
848.788	0.039525
858.433	0.045715
868.078	0.033315
877.722	0.018935
887.367	0.011675
897.012	0.007665
906.657	0.005905
916.301	0.004855
925.946	0.004065
935.591	0.003735
945.236	0.003045
954.88	0.002965
964.525	0.002355
974.17	0.002205
983.815	0.002055
993.46	0.003055
1003.1	0.007865
1012.75	0.023605
1022.39	0.006705
1032.04	0.003245
1041.68	0.003895
1051.33	0.005535
1060.97	0.016055
1070.62	0.033645
1080.26	0.010875
1089.91	0.011295
1099.55	0.011635
1109.2	0.006885
1118.84	0.002985
1128.49	0.003625
1138.13	0.004985
1147.78	0.010305
1157.42	0.019815
1167.07	0.048125
1176.71	0.098325
1186.36	0.053065
1196	0.017885
1205.64	0.007775
1215.29	0.005355
1224.93	0.002745
1234.58	0.004165
1244.22	0.003805
1253.87	0.004035
1263.51	0.004325
1273.16	0.003945
1282.8	0.003085
1292.45	0.003095
1302.09	0.003535
1311.74	0.003385
1321.38	0.003215
1331.03	0.004145
1340.67	0.006685
1350.32	0.012295
1359.96	0.023765
1369.61	0.045145
1379.25	0.072285
1388.9	0.074195
1398.54	0.042445
1408.18	0.015165
1417.83	0.005905
1427.47	0.003475
1437.12	0.002915
1446.76	0.002965
1456.41	0.004545
1466.05	0.012665
1475.7	0.016315
1485.34	0.007845
1494.99	0.006205
1504.63	0.004035
1514.28	0.004375
1523.92	0.005715
1533.57	0.008105
1543.21	0.012115
1552.86	0.015335
1562.5	0.014145
1572.15	0.021595
1581.79	0.024095
1591.44	0.004465
1601.08	0.002275
1610.73	0.001765
1620.37	0.001535
1630.01	0.001735
1639.66	0.002245
1649.3	0.001885
1658.95	0.001163
1668.59	0.0010196
1678.24	0.0007576
1687.88	0.0006861
1697.53	0.00051837
1707.17	0.0005676
1716.82	0.0005579
1726.46	0.00050608
1736.11	0.0007386
1745.75	0.0007177
1755.4	0.0007096
1765.04	0.0010733
1774.69	0.0012619
1784.33	0.0014114
1793.98	0.0010325
1803.62	0.0006651
1813.27	0.0006519
1822.91	0.0006293
1832.55	0.0006412
1842.2	0.00052078
1851.84	0.00047379
1861.49	0.0004082
1871.13	0.00047869
1880.78	0.0007546
1890.42	0.0011006
1900.07	0.001505
1909.71	0.001755
1919.36	0.0012746
1929	0.0008219
1938.65	0.0007108
1948.29	0.00048215
1957.94	0.0005763
1967.58	0.00046774
1977.23	0.00044763
1986.87	0.0005737
1996.52	0.0005883
2006.16	0.0006184
2015.81	0.0004084
2025.45	0.0006245
2035.1	0.0004391
2044.74	0.0005907
2054.38	0.0006289
2064.03	0.00047669
2073.67	0.000578
2083.32	0.0005412
2092.96	0.0003822
2102.61	0.0006278
2112.25	0.0006725
2121.9	0.0007542
2131.54	0.00052441
2141.19	0.00052189
2150.83	0.0006852
2160.48	0.00045128
2170.12	0.00049011
2179.77	0.0006679
2189.41	0.00047319
2199.06	0.0004404
2208.7	0.0004331
2218.35	0.00050573
2227.99	0.0005565
2237.64	0.0005757
2247.28	0.0006576
2256.92	0.0007378
2266.57	0.0006489
2276.21	0.0009746
2285.86	0.000728
2295.5	0.0006401
2305.15	0.0006488
2314.79	0.00049953
2324.44	0.00053668
2334.08	0.0006966
2343.73	0.0007101
2353.37	0.0007241
2363.02	0.000774
2372.66	0.0007176
2382.31	0.0005925
2391.95	0.0006745
2401.6	0.0007145
2411.24	0.000647
2420.89	0.0006136
2430.53	0.00045158
2440.18	0.00048157
2449.82	0.0004184
2459.47	0.0004187
2469.11	0.0007112
2478.75	0.0006159
2488.4	0.0006595
2498.04	0.0007422
2507.69	0.0006503
2517.33	0.0008538
2526.98	0.0010477
2536.62	0.0011565
2546.27	0.0008415
2555.91	0.0011261
2565.56	0.0008159
2575.2	0.0008395
2584.85	0.0010066
2594.49	0.0007096
2604.14	0.0007006
2613.78	0.0006828
2623.43	0.0004002
2633.07	0.00051897
2642.72	0.00048379
2652.36	0.0005722
2662.01	0.0006826
2671.65	0.00051015
2681.29	0.0003617
2690.94	0.0003972
2700.58	0.000347
2710.23	0.0003782
2719.87	0.000334
2729.52	0.0005644
2739.16	0.0004255
2748.81	0.00048841
2758.45	0.0005121
2768.1	0.0003944
2777.74	0.0004397
2787.39	0.0004166
2797.03	0.000632
2806.68	0.000197
2816.32	0.00032
2825.97	0.000332
2835.61	0.00048089
2845.26	0.000346
2854.9	0.0003996
2864.55	0.000228
2874.19	0.00047825
2883.84	0.000108
2893.48	0.0003901
2903.12	0.000235
2912.77	0.0004371
2922.41	0.000454016
2932.06	0.0003576
2941.7	0.000342
2951.35	0.000309
2960.99	0.000323
2970.64	0.000355
2980.28	0.0003962
2989.93	0.000163
2999.57	0.0003902
3009.22	0.0008187
3018.86	0.00055106
3028.51	0.0006198
3038.15	0.0006709
3047.8	0.0005567
3057.44	0.0010306
3067.09	0.0012227
3076.73	0.001685
3086.38	0.001104
3096.02	0.0009431
3105.67	0.0008136
3115.31	0.0006779
3124.95	0.0008002
3134.6	0.0007979
3144.24	0.000322
3153.89	0.0006916
3163.53	0.000324
3173.18	0.000436
3182.82	7.9e-05
3192.47	0.0004885
3202.11	0.0006745
3211.76	0.00052959
3221.4	0.0007516
3231.05	0.0005246
3240.69	0.00054791
3250.34	0.000789
3259.98	0.0006867
3269.63	0.0007481
3279.27	0.001038
3288.92	0.0009248
3298.56	0.0009813
3308.21	0.0009819
3317.85	0.0010767
3327.49	0.0014384
3337.14	0.001555
3346.78	0.003505
3356.43	0.007665
3366.07	0.014015
3375.72	0.014825
3385.36	0.009335
3395.01	0.004955
3404.65	0.002665
3414.3	0.001685
3423.94	0.0014331
3433.59	0.001825
3443.23	0.003735
3452.88	0.005755
3462.52	0.007795
3472.17	0.009125
3481.81	0.008485
3491.46	0.006395
3501.1	0.004235
3510.75	0.002605
3520.39	0.0013684
3530.04	0.0010043
3539.68	0.0006985
3549.32	0.0008146
3558.97	0.0007314
3568.61	0.0004283
3578.26	0.00029
3587.9	0.000657
3597.55	0.00053008
3607.19	0.0003829
3616.84	0.00052246
3626.48	0.0009497
3636.13	0.0005966
3645.77	0.00050816
3655.42	0.00097
3665.06	0.0005597
3674.71	0.0006224
3684.35	0.00052076
3694	0.0004298
3703.64	0.0010002
3713.29	0.000313
3722.93	0.000458398
3732.58	0.00050884
3742.22	0.000241
3751.86	0.0006258
3761.51	0.000204
3771.15	0.000261
3780.8	0.0005816
3790.44	0.0003963
3800.09	0.0003558
3809.73	0.000307
3819.38	0.0004447
3829.02	0.0005303
3838.67	0.00025
3848.31	0.000299
3857.96	0.000243
3867.6	0.0003736
3877.25	0.000396
3886.89	0.000118
3896.54	0.0004204
3906.18	0.00034
3915.83	0.000164
3925.47	0.000212
3935.12	0.0003964
3944.76	0.000281
3954.41	0.000312
3964.05	0.0007537
3973.69	0.00052627
3983.34	0.0005825
3992.98	0.0004013
