Infrared Spectrum: 1-Acetoxy-3-fluorobenzene
Formula: C 8 H 7 F O 2
CAS: 701-83-7
State: gas
Origin: EPA-IR VAPOR PHASE LIBRARY
1/CM	ABSORBANCE
549.8	0.004162
559.445	0.002082
569.09	0.002982
578.734	0.004022
588.379	0.005022
598.024	0.003832
607.669	0.003572
617.313	0.002972
626.958	0.001962
636.603	0.002402
646.248	0.003962
655.893	0.010242
665.537	0.021472
675.182	0.028082
684.827	0.022282
694.472	0.009312
704.116	0.004242
713.761	0.002462
723.406	0.002492
733.051	0.005122
742.695	0.009582
752.34	0.015152
761.985	0.020542
771.63	0.028252
781.275	0.024072
790.919	0.011852
800.564	0.004892
810.209	0.003742
819.854	0.004872
829.498	0.005052
839.143	0.008232
848.788	0.012572
858.433	0.020672
868.078	0.032752
877.722	0.031502
887.367	0.028462
897.012	0.026292
906.657	0.019032
916.301	0.013052
925.946	0.011012
935.591	0.014732
945.236	0.026252
954.88	0.056712
964.525	0.059522
974.17	0.030312
983.815	0.024352
993.46	0.030652
1003.1	0.046802
1012.75	0.047952
1022.39	0.030072
1032.04	0.015902
1041.68	0.014512
1051.33	0.014612
1060.97	0.018852
1070.62	0.028052
1080.26	0.026522
1089.91	0.019202
1099.55	0.020852
1109.2	0.052272
1118.84	0.167622
1128.49	0.171522
1138.13	0.049782
1147.78	0.034132
1157.42	0.054482
1167.07	0.058012
1176.71	0.085742
1186.36	0.209762
1196	0.431542
1205.64	0.439562
1215.29	0.190282
1224.93	0.063942
1234.58	0.040292
1244.22	0.045492
1253.87	0.066522
1263.51	0.079332
1273.16	0.068442
1282.8	0.042112
1292.45	0.021812
1302.09	0.013852
1311.74	0.011422
1321.38	0.010402
1331.03	0.009342
1340.67	0.008492
1350.32	0.012102
1359.96	0.028242
1369.61	0.061002
1379.25	0.058682
1388.9	0.023242
1398.54	0.012152
1408.18	0.012752
1417.83	0.015162
1427.47	0.018112
1437.12	0.025372
1446.76	0.030502
1456.41	0.028862
1466.05	0.028492
1475.7	0.054822
1485.34	0.107192
1494.99	0.088642
1504.63	0.028042
1514.28	0.015102
1523.92	0.014472
1533.57	0.014622
1543.21	0.015142
1552.86	0.014102
1562.5	0.015992
1572.15	0.024122
1581.79	0.046332
1591.44	0.082972
1601.08	0.117192
1610.73	0.105392
1620.37	0.055072
1630.01	0.025772
1639.66	0.016932
1649.3	0.012902
1658.95	0.008842
1668.59	0.006022
1678.24	0.005062
1687.88	0.005492
1697.53	0.005722
1707.17	0.007472
1716.82	0.010112
1726.46	0.012462
1736.11	0.016012
1745.75	0.020862
1755.4	0.032132
1765.04	0.052132
1774.69	0.085192
1784.33	0.127632
1793.98	0.143792
1803.62	0.103972
1813.27	0.051232
1822.91	0.022002
1832.55	0.011392
1842.2	0.006932
1851.84	0.005612
1861.49	0.005562
1871.13	0.005672
1880.78	0.004672
1890.42	0.004072
1900.07	0.004472
1909.71	0.005222
1919.36	0.004672
1929	0.003662
1938.65	0.002722
1948.29	0.002782
1957.94	0.002642
1967.58	0.002302
1977.23	0.001772
1986.87	0.001782
1996.52	0.002262
2006.16	0.002412
2015.81	0.002752
2025.45	0.003112
2035.1	0.003512
2044.74	0.003262
2054.38	0.002912
2064.03	0.002772
2073.67	0.003002
2083.32	0.003102
2092.96	0.003092
2102.61	0.002922
2112.25	0.002272
2121.9	0.001952
2131.54	0.001702
2141.19	0.001622
2150.83	0.001822
2160.48	0.001662
2170.12	0.0012774
2179.77	0.0013425
2189.41	0.0014823
2199.06	0.001732
2208.7	0.002172
2218.35	0.002322
2227.99	0.002012
2237.64	0.001772
2247.28	0.001912
2256.92	0.0014757
2266.57	0.0013456
2276.21	0.0010978
2285.86	0.0011079
2295.5	0.0012083
2305.15	0.0014611
2314.79	0.0013842
2324.44	0.001672
2334.08	0.001892
2343.73	0.001952
2353.37	0.002002
2363.02	0.002272
2372.66	0.003432
2382.31	0.003892
2391.95	0.003312
2401.6	0.002802
2411.24	0.002512
2420.89	0.001842
2430.53	0.0014836
2440.18	0.0015269
2449.82	0.0012592
2459.47	0.0013671
2469.11	0.0013997
2478.75	0.0015061
2488.4	0.0010235
2498.04	0.0010637
2507.69	0.0012404
2517.33	0.0013663
2526.98	0.0012295
2536.62	0.0013077
2546.27	0.0011036
2555.91	0.0015584
2565.56	0.002042
2575.2	0.002002
2584.85	0.0012918
2594.49	0.0013229
2604.14	0.0012682
2613.78	0.0009923
2623.43	0.0007145
2633.07	0.0008273
2642.72	0.000996
2652.36	0.0010799
2662.01	0.0009978
2671.65	0.0010369
2681.29	0.00067207
2690.94	0.0010664
2700.58	0.0009172
2710.23	0.0010681
2719.87	0.001354
2729.52	0.0015117
2739.16	0.0013137
2748.81	0.0014084
2758.45	0.0012889
2768.1	0.0011595
2777.74	0.0010389
2787.39	0.0008841
2797.03	0.0010304
2806.68	0.0012034
2816.32	0.0010461
2825.97	0.0012214
2835.61	0.0012012
2845.26	0.0009952
2854.9	0.0008337
2864.55	0.0012047
2874.19	0.0011394
2883.84	0.0011531
2893.48	0.0013738
2903.12	0.0009541
2912.77	0.001602
2922.41	0.0010055
2932.06	0.001742
2941.7	0.002782
2951.35	0.003272
2960.99	0.003132
2970.64	0.002342
2980.28	0.002192
2989.93	0.002152
2999.57	0.002152
3009.22	0.002052
3018.86	0.003202
3028.51	0.004372
3038.15	0.004682
3047.8	0.005802
3057.44	0.005362
3067.09	0.006432
3076.73	0.007802
3086.38	0.008602
3096.02	0.007132
3105.67	0.004762
3115.31	0.002782
3124.95	0.0014362
3134.6	0.0013802
3144.24	0.0012857
3153.89	0.001602
3163.53	0.001842
3173.18	0.001622
3182.82	0.0011546
3192.47	0.0010044
3202.11	0.0013993
3211.76	0.0010901
3221.4	0.0013515
3231.05	0.0012242
3240.69	0.0014273
3250.34	0.000939
3259.98	0.000309
3269.63	0.0009404
3279.27	0.0009778
3288.92	0.000486
3298.56	0.0011819
3308.21	0.00064459
3317.85	0.0005
3327.49	0.00045
3337.14	0.0015139
3346.78	0.00068452
3356.43	0.0008829
3366.07	0.00066373
3375.72	0.0007788
3385.36	0.001349
3395.01	0.0007382
3404.65	0.0013104
3414.3	0.000486
3423.94	7e-06
3433.59	0.000348
3443.23	0.0010553
3452.88	0.0010492
3462.52	0.0009951
3472.17	0.0008705
3481.81	0.00094
3491.46	0.000596201
3501.1	0.0010189
3510.75	0.0010023
3520.39	0.0011099
3530.04	0.001842
3539.68	0.001782
3549.32	0.002012
3558.97	0.002562
3568.61	0.002852
3578.26	0.002282
3587.9	0.002022
3597.55	0.001902
3607.19	0.0013223
3616.84	0.0010035
3626.48	0.0014139
3636.13	0.0009942
3645.77	0.0009733
3655.42	0.0008653
3665.06	0.0010924
3674.71	0.0010373
3684.35	0.000407
3694	0.0005239
3703.64	0.0005405
3713.29	0.000254
3722.93	0.001167
3732.58	0.0012299
3742.22	0.0011846
3751.86	6.7e-05
3761.51	0.0009448
3771.15	0.001065
3780.8	0.000191
3790.44	0.0011524
3800.09	0.00069114
3809.73	0.0007549
3819.38	0.0006089
3829.02	0.0008967
3838.67	0.0005164
3848.31	0.0011522
3857.96	0.000372
3867.6	0.0005342
3877.25	0.0009368
3886.89	0.0007441
3896.54	0.0010432
3906.18	0.0014611
3915.83	0.0015176
3925.47	0.0008191
3935.12	0.0008068
3944.76	0.000475
3954.41	0.0005592
3964.05	0.0011605
3973.69	0.0011342
3983.34	0.0010574
3992.98	0.0013645
