Infrared Spectrum: N-(M-CHLOROPHENYL) ACRYLAMINE
Formula: C9 H8 Cl N O
CAS: 7017-16-5
State: SOLID (NUJOL MULL)
Class: COBLENTZ
Instrument: Not specified, most likely a prism, grating, or hybrid spectrometer.
Sampling: TRANSMISSION
Resolution: 4
Origin: TENNESSEE EASTMAN COMPANY, RESEARCH LABORATORIES
MICROMETERS	TRANSMITTANCE
2.027	0.586
2.06671	0.588
2.10642	0.593
2.14613	0.598
2.18583	0.601
2.22554	0.606
2.26525	0.609
2.30496	0.609
2.34467	0.609
2.38438	0.612
2.42409	0.617
2.4638	0.626
2.5035	0.642
2.54321	0.652
2.58292	0.657
2.62263	0.667
2.66234	0.674
2.70205	0.682
2.74176	0.691
2.78146	0.699
2.82117	0.71
2.86088	0.715
2.90059	0.727
2.9403	0.742
2.98001	0.747
3.01972	0.593
3.05943	0.217
3.09913	0.277
3.13884	0.405
3.17855	0.39
3.21826	0.393
3.25797	0.405
3.29768	0.47
3.33739	0.443
3.3771	0.126
3.4168	0.034
3.45651	0.059
3.49622	0.084
3.53593	0.377
3.57564	0.657
3.61535	0.707
3.65506	0.717
3.69476	0.71
3.73447	0.722
3.77418	0.729
3.81389	0.734
3.8536	0.744
3.89331	0.752
3.93302	0.765
3.97273	0.779
4.01243	0.784
4.05214	0.789
4.09185	0.797
4.13156	0.797
4.17127	0.8
4.21098	0.802
4.25069	0.818
4.29039	0.82
4.3301	0.82
4.36981	0.822
4.40952	0.823
4.44923	0.828
4.48894	0.838
4.52865	0.838
4.56836	0.84
4.60806	0.85
4.64777	0.85
4.68748	0.853
4.72719	0.86
4.7669	0.867
4.80661	0.87
4.84632	0.875
4.88602	0.877
4.92573	0.878
4.96544	0.88
5.00515	0.885
5.04486	0.887
5.08457	0.887
5.12428	0.887
5.16399	0.878
5.20369	0.84
5.2434	0.882
5.28311	0.893
5.32282	0.908
5.36253	0.916
5.40224	0.915
5.44195	0.916
5.48165	0.921
5.52136	0.926
5.56107	0.931
5.60078	0.928
5.64049	0.9
5.6802	0.906
5.71991	0.918
5.75962	0.92
5.79932	0.921
5.83903	0.926
5.87874	0.892
5.91845	0.715
5.95816	0.47
5.99787	0.141
6.03758	0.299
6.07729	0.556
6.11699	0.616
6.1567	0.323
6.19641	0.448
6.23612	0.132
6.27583	0.099
6.31554	0.312
6.35525	0.529
6.39495	0.523
6.43466	0.325
6.47437	0.292
6.51408	0.416
6.55379	0.533
6.5935	0.598
6.63321	0.601
6.67292	0.559
6.71262	0.28
6.75233	0.25
6.79204	0.252
6.83175	0.202
6.87146	0.232
6.91117	0.342
6.95088	0.428
6.99058	0.315
7.03029	0.308
7.07	0.129
7.10971	0.274
7.14942	0.367
7.18913	0.529
7.22884	0.463
7.26855	0.395
7.30825	0.493
7.34796	0.568
7.38767	0.661
7.42738	0.674
7.46709	0.627
7.5068	0.503
7.54651	0.498
7.58621	0.632
7.62592	0.684
7.66563	0.71
7.70534	0.71
7.74505	0.661
7.78476	0.559
7.82447	0.757
7.86418	0.737
7.90388	0.586
7.94359	0.702
7.9833	0.666
8.02301	0.611
8.06272	0.604
8.10243	0.568
8.14214	0.71
8.18184	0.722
8.22155	0.724
8.26126	0.722
8.30097	0.496
8.34068	0.478
8.38039	0.662
8.4201	0.727
8.45981	0.762
8.49951	0.765
8.53922	0.717
8.57893	0.674
8.61864	0.739
8.65835	0.765
8.69806	0.774
8.73777	0.787
8.77748	0.797
8.81718	0.8
8.85689	0.8
8.8966	0.8
8.93631	0.8
8.97602	0.79
9.01573	0.667
9.05544	0.548
9.09514	0.642
9.13485	0.699
9.17456	0.744
9.21427	0.759
9.25398	0.679
9.29369	0.642
9.3334	0.599
9.37311	0.602
9.41281	0.692
9.45252	0.739
9.49223	0.76
9.53194	0.77
9.57165	0.784
9.61136	0.789
9.65107	0.794
9.69077	0.795
9.73048	0.799
9.77019	0.8
9.8099	0.799
9.84961	0.8
9.88932	0.805
9.92903	0.81
9.96874	0.808
10.0084	0.689
10.0482	0.712
10.0879	0.73
10.1276	0.561
10.1673	0.466
10.207	0.573
10.2467	0.654
10.2864	0.691
10.3261	0.632
10.3658	0.503
10.4055	0.466
10.4452	0.5
10.4849	0.659
10.5247	0.652
10.5644	0.614
10.6041	0.686
10.6438	0.71
10.6835	0.709
10.7232	0.712
10.7629	0.744
10.8026	0.779
10.8423	0.794
10.882	0.807
10.9217	0.812
10.9615	0.817
11.0012	0.807
11.0409	0.754
11.0806	0.71
11.1203	0.727
11.16	0.729
11.1997	0.712
11.2394	0.636
11.2791	0.549
11.3188	0.488
11.3585	0.42
11.3982	0.468
11.438	0.5
11.4777	0.44
11.5174	0.249
11.5571	0.249
11.5968	0.495
11.6365	0.667
11.6762	0.73
11.7159	0.757
11.7556	0.77
11.7953	0.774
11.835	0.78
11.8748	0.789
11.9145	0.797
11.9542	0.805
11.9939	0.808
12.0336	0.81
12.0733	0.81
12.113	0.81
12.1527	0.81
12.1924	0.81
12.2321	0.81
12.2718	0.81
12.3115	0.808
12.3513	0.805
12.391	0.789
12.4307	0.767
12.4704	0.722
12.5101	0.619
12.5498	0.481
12.5895	0.441
12.6292	0.558
12.6689	0.558
12.7086	0.503
12.7483	0.403
12.7881	0.37
12.8278	0.397
12.8675	0.398
12.9072	0.3
12.9469	0.365
12.9866	0.543
13.0263	0.581
13.066	0.598
13.1057	0.598
13.1454	0.593
13.1851	0.579
13.2248	0.558
13.2646	0.549
13.3043	0.543
13.344	0.523
13.3837	0.498
13.4234	0.468
13.4631	0.428
13.5028	0.387
13.5425	0.338
13.5822	0.312
13.6219	0.302
13.6616	0.302
13.7014	0.318
13.7411	0.35
13.7808	0.392
13.8205	0.421
13.8602	0.448
13.8999	0.48
13.9396	0.519
13.9793	0.556
14.019	0.579
14.0587	0.602
14.0984	0.619
14.1381	0.632
14.1779	0.639
14.2176	0.641
14.2573	0.636
14.297	0.602
14.3367	0.559
14.3764	0.549
14.4161	0.549
14.4558	0.556
14.4955	0.568
14.5352	0.576
14.5749	0.571
14.6147	0.538
14.6544	0.483
14.6941	0.415
14.7338	0.375
14.7735	0.377
14.8132	0.433
14.8529	0.513
14.8926	0.559
14.9323	0.566
14.972	0.569
15.0117	0.588
15.0514	0.599
15.0912	0.599
15.1309	0.599
15.1706	0.599
15.2103	0.599
15.25	0.599
15.2897	0.601
15.3294	0.601
15.3691	0.601
15.4088	0.602
15.4485	0.602
15.4882	0.602
15.528	0.602
15.5677	0.602
15.6074	0.602
15.6471	0.602
15.6868	0.602
15.7265	0.601
15.7662	0.601
15.8059	0.601
15.8456	0.601
15.8853	0.601
15.925	0.601
15.9647	0.601
