Infrared Spectrum: 2,6-Dimethyl-1,6-heptadien4-ol acetate
Formula: C 11 H 18 O 2
CAS: 70187-91-6
State: gas
Instrument: HP-GC/MS/IRD
Origin: NIST Mass Spectrometry Data Center
1/CM	ABSORBANCE
550	0.000376
562	0.000472
574	0.00036
586	0.000328
598	0.001044
610	0.001708
622	0.000932
634	0.00088
646	0.000636
658	0.000232
670	4.8e-05
682	0.0001
694	0.00012
706	0.000168
718	0.0002
730	7.6e-05
742	3.6e-05
754	6.4e-05
766	5.6e-05
778	0.000232
790	0.000272
802	0.000468
814	0.0007
826	0.000736
838	0.00064
850	0.000704
862	0.001012
874	0.001988
886	0.006876
898	0.010704
910	0.00382
922	0.002392
934	0.002964
946	0.002184
958	0.0018
970	0.00222
982	0.002368
994	0.003304
1006	0.005324
1018	0.008084
1030	0.008552
1042	0.007424
1054	0.007356
1066	0.005788
1078	0.004392
1090	0.003256
1102	0.002252
1114	0.001416
1126	0.001036
1138	0.000964
1150	0.00112
1162	0.001548
1174	0.002252
1186	0.003332
1198	0.006316
1210	0.014528
1222	0.030872
1234	0.04
1246	0.026968
1258	0.01058
1270	0.005388
1282	0.003916
1294	0.002888
1306	0.00216
1318	0.001596
1330	0.001408
1342	0.001944
1354	0.004188
1366	0.008504
1378	0.010964
1390	0.005576
1402	0.002592
1414	0.00226
1426	0.002864
1438	0.00386
1450	0.004152
1462	0.003288
1474	0.001868
1486	0.001136
1498	0.000896
1510	0.000776
1522	0.00072
1534	0.00066
1546	0.00066
1558	0.000668
1570	0.000736
1582	0.000784
1594	0.000812
1606	0.000924
1618	0.001212
1630	0.001904
1642	0.003588
1654	0.003664
1666	0.001736
1678	0.001248
1690	0.001304
1702	0.001616
1714	0.002312
1726	0.003004
1738	0.007892
1750	0.025524
1762	0.021196
1774	0.005212
1786	0.002868
1798	0.002504
1810	0.001696
1822	0.001148
1834	0.000736
1846	0.000504
1858	0.00044
1870	0.000384
1882	0.000292
1894	0.000192
1906	0.00014
1918	0.000112
1930	0.000104
1942	8.4e-05
1954	8e-05
1966	8.4e-05
1978	9.2e-05
1990	5.2e-05
2002	0.000112
2014	0.00012
2026	0.0001
2038	0.00016
2050	0.000164
2062	0.000116
2074	0.000104
2086	5.2e-05
2098	4.4e-05
2110	4.8e-05
2122	0
2134	4.4e-05
2146	5.2e-05
2158	7.2e-05
2170	9.2e-05
2182	5.6e-05
2194	3.2e-05
2206	2.4e-05
2218	3.2e-05
2230	1.6e-05
2242	2e-05
2254	4e-05
2266	2.8e-05
2278	3.2e-05
2290	4.4e-05
2302	8.4e-05
2314	4.4e-05
2326	4e-06
2338	0
2350	2e-05
2362	1.6e-05
2374	0
2386	4e-06
2398	2.4e-05
2410	2.4e-05
2422	4e-05
2434	1.6e-05
2446	5.2e-05
2458	4.8e-05
2470	6e-05
2482	6e-05
2494	1.6e-05
2506	2.4e-05
2518	2e-05
2530	2.4e-05
2542	4e-06
2554	2.4e-05
2566	2e-05
2578	4e-05
2590	5.6e-05
2602	5.6e-05
2614	4.8e-05
2626	2.4e-05
2638	2.8e-05
2650	3.2e-05
2662	4.8e-05
2674	0.000108
2686	0.00012
2698	0.00016
2710	0.000164
2722	0.000184
2734	0.00028
2746	0.000284
2758	0.000236
2770	0.000212
2782	0.00028
2794	0.000348
2806	0.00048
2818	0.00062
2830	0.000904
2842	0.001376
2854	0.002012
2866	0.002432
2878	0.002564
2890	0.003012
2902	0.00444
2914	0.006432
2926	0.007392
2938	0.0074
2950	0.006444
2962	0.005608
2974	0.008188
2986	0.007048
2998	0.003924
3010	0.002224
3022	0.001608
3034	0.001412
3046	0.001364
3058	0.001728
3070	0.003196
3082	0.005816
3094	0.002728
3106	0.000992
3118	0.000636
3130	0.00038
3142	0.000268
3154	0.000172
3166	0.000124
3178	9.2e-05
3190	6e-05
3202	1.2e-05
3214	3.6e-05
3226	2.4e-05
3238	4e-06
3250	5.2e-05
3262	2.8e-05
3274	4.8e-05
3286	8e-06
3298	9.2e-05
3310	2.4e-05
3322	4.4e-05
3334	4e-05
3346	5.2e-05
3358	5.6e-05
3370	4e-05
3382	3.6e-05
3394	3.2e-05
3406	2.8e-05
3418	5.6e-05
3430	6.8e-05
3442	8.8e-05
3454	0.00012
3466	0.00016
3478	0.000212
3490	0.000368
3502	0.000268
3514	0.00016
3526	0.000132
3538	0.000104
3550	0.000132
3562	2.4e-05
3574	0
3586	8.4e-05
3598	8.8e-05
3610	6.4e-05
3622	8.4e-05
3634	6.4e-05
3646	0.000116
3658	9.2e-05
3670	0.0001
3682	5.2e-05
3694	4e-05
3706	6.4e-05
3718	4.8e-05
3730	7.2e-05
3742	3.6e-05
3754	2e-05
3766	0.000112
3778	0.000124
3790	8.8e-05
3802	9.2e-05
3814	0.000116
3826	8.8e-05
3838	0.000104
