Infrared Spectrum: N-METHYL-p-METHOXYBENZYLAMINE
Formula: C9 H13 N O
CAS: 702-24-9
Class: COBLENTZ
Instrument: PERKIN-ELMER
Sampling: TRANSMISSION
Path length: CAPILLARY
Resolution: 4
Origin: ABBOTT LABORATORIES - WASHBURN
MICROMETERS	TRANSMITTANCE
2.009	0.899
2.04879	0.899
2.08857	0.897
2.12836	0.897
2.16814	0.897
2.20793	0.899
2.24772	0.899
2.2875	0.8944
2.32729	0.8861
2.36707	0.8938
2.40686	0.897
2.44664	0.896
2.48643	0.894
2.52622	0.892
2.566	0.9
2.60579	0.897
2.64557	0.9039
2.68536	0.902
2.72515	0.896
2.76493	0.892
2.80472	0.887
2.8445	0.8821
2.88429	0.874
2.92408	0.866
2.96386	0.8398
3.00365	0.8013
3.04343	0.8047
3.08322	0.8379
3.123	0.854
3.16279	0.858
3.20258	0.8591
3.24236	0.8395
3.28215	0.7922
3.32193	0.7143
3.36172	0.5796
3.40151	0.5178
3.44129	0.5552
3.48108	0.594
3.52086	0.5359
3.56065	0.5799
3.60044	0.6767
3.64022	0.8268
3.68001	0.867
3.71979	0.871
3.75958	0.887
3.79937	0.8969
3.83915	0.896
3.87894	0.8989
3.91872	0.9
3.95851	0.897
3.99829	0.902
4.03808	0.8991
4.07787	0.899
4.11765	0.899
4.15744	0.899
4.19722	0.8999
4.23701	0.9166
4.2768	0.9149
4.31658	0.9141
4.35637	0.8961
4.39615	0.8842
4.43594	0.8887
4.47573	0.894
4.51551	0.891
4.5553	0.889
4.59508	0.887
4.63487	0.886
4.67465	0.8869
4.71444	0.889
4.75423	0.8861
4.79401	0.881
4.8338	0.858
4.87358	0.856
4.91337	0.8705
4.95316	0.872
4.99294	0.867
5.03273	0.8658
5.07251	0.872
5.1123	0.874
5.15209	0.874
5.19187	0.871
5.23166	0.871
5.27144	0.8655
5.31123	0.844
5.35101	0.8568
5.3908	0.8633
5.43059	0.8748
5.47037	0.8764
5.51016	0.8717
5.54994	0.869
5.58973	0.876
5.62952	0.872
5.6693	0.8689
5.70909	0.871
5.74887	0.8644
5.78866	0.8664
5.82845	0.8606
5.86823	0.8537
5.90802	0.8583
5.9478	0.8534
5.98759	0.8399
6.02737	0.824
6.06716	0.8189
6.10695	0.8055
6.14673	0.7764
6.18652	0.5377
6.2263	0.482
6.26609	0.7225
6.30588	0.625
6.34566	0.7442
6.38545	0.8051
6.42523	0.816
6.46502	0.816
6.50481	0.811
6.54459	0.7441
6.58438	0.5606
6.62416	0.1393
6.66395	0.366
6.70374	0.616
6.74352	0.683
6.78331	0.6287
6.82309	0.5107
6.86288	0.438
6.90266	0.4765
6.94245	0.4725
6.98224	0.4903
7.02202	0.69
7.06181	0.7224
7.10159	0.7476
7.14138	0.7972
7.18117	0.818
7.22095	0.8183
7.26074	0.8186
7.30052	0.816
7.34031	0.8
7.3801	0.7305
7.41988	0.6726
7.45967	0.7132
7.49945	0.7616
7.53924	0.772
7.57902	0.772
7.61881	0.7423
7.6586	0.7075
7.69838	0.5244
7.73817	0.478
7.77795	0.6522
7.81774	0.676
7.85753	0.657
7.89731	0.5967
7.9371	0.5313
7.97688	0.3369
8.01667	0.152
8.05646	0.1128
8.09624	0.1364
8.13603	0.2796
8.17581	0.4464
8.2156	0.6233
8.25538	0.6998
8.29517	0.7301
8.33496	0.7445
8.37474	0.744
8.41453	0.7458
8.45431	0.7255
8.4941	0.5197
8.53389	0.411
8.57367	0.4054
8.61346	0.5941
8.65324	0.6881
8.69303	0.7189
8.73282	0.7219
8.7726	0.721
8.81239	0.7172
8.85217	0.672
8.89196	0.6245
8.93174	0.6159
8.97153	0.6687
9.01132	0.6768
9.0511	0.6157
9.09089	0.5391
9.13067	0.5286
9.17046	0.6309
9.21025	0.7061
9.25003	0.7539
9.28982	0.7875
9.3296	0.8065
9.36939	0.8336
9.40918	0.8
9.44896	0.7998
9.48875	0.79
9.52853	0.7552
9.56832	0.6799
9.60811	0.5237
9.64789	0.3254
9.68768	0.2506
9.72746	0.3138
9.76725	0.4441
9.80703	0.5975
9.84682	0.6804
9.88661	0.7286
9.92639	0.7367
9.96618	0.7634
10.006	0.787
10.0457	0.7953
10.0855	0.797
10.1253	0.795
10.1651	0.7877
10.2049	0.7769
10.2447	0.775
10.2845	0.775
10.3243	0.7729
10.364	0.7704
10.4038	0.7655
10.4436	0.762
10.4834	0.7662
10.5232	0.7787
10.563	0.796
10.6028	0.8004
10.6425	0.81
10.6823	0.81
10.7221	0.81
10.7619	0.8052
10.8017	0.8
10.8415	0.803
10.8813	0.8052
10.921	0.8082
10.9608	0.806
11.0006	0.8099
11.0404	0.8082
11.0802	0.811
11.12	0.8108
11.1598	0.8174
11.1995	0.815
11.2393	0.813
11.2791	0.813
11.3189	0.813
11.3587	0.813
11.3985	0.808
11.4383	0.801
11.478	0.7928
11.5178	0.7764
11.5576	0.7663
11.5974	0.7541
11.6372	0.7414
11.677	0.7216
11.7168	0.673
11.7565	0.6236
11.7963	0.5626
11.8361	0.5089
11.8759	0.498
11.9157	0.5068
11.9555	0.509
11.9953	0.494
12.035	0.457
12.0748	0.4298
12.1146	0.4139
12.1544	0.3985
12.1942	0.377
12.234	0.363
12.2738	0.3587
12.3135	0.3594
12.3533	0.367
12.3931	0.3777
12.4329	0.4055
12.4727	0.4579
12.5125	0.4905
12.5523	0.5227
12.592	0.5356
12.6318	0.541
12.6716	0.547
12.7114	0.5478
12.7512	0.5429
12.791	0.538
12.8308	0.536
12.8705	0.527
12.9103	0.524
12.9501	0.521
12.9899	0.521
13.0297	0.5215
13.0695	0.5264
13.1093	0.5373
13.149	0.5442
13.1888	0.554
13.2286	0.551
13.2684	0.551
13.3082	0.5618
13.348	0.5731
13.3878	0.5875
13.4276	0.6026
13.4673	0.6142
13.5071	0.6263
13.5469	0.6342
13.5867	0.636
13.6265	0.643
13.6663	0.643
13.7061	0.638
13.7458	0.63
13.7856	0.63
13.8254	0.63
13.8652	0.63
13.905	0.632
13.9448	0.632
13.9846	0.6279
14.0243	0.6221
14.0641	0.6222
14.1039	0.6133
14.1437	0.603
14.1835	0.5955
14.2233	0.5812
14.2631	0.5757
14.3028	0.5678
14.3426	0.564
14.3824	0.564
14.4222	0.5678
14.462	0.5757
14.5018	0.5847
14.5416	0.592
14.5813	0.5991
14.6211	0.608
14.6609	0.607
14.7007	0.613
14.7405	0.622
14.7803	0.62
14.8201	0.62
14.8598	0.625
14.8996	0.6265
14.9394	0.6295
14.9792	0.632
15.019	0.6342
15.0588	0.6369
15.0986	0.635
15.1383	0.632
15.1781	0.633
15.2179	0.6327
15.2577	0.63
15.2975	0.623
15.3373	0.623
15.3771	0.6219
15.4168	0.617
