Infrared Spectrum: 4-Oxo-2-thioxo-3-thiazolidinepropionic acid
Formula: C6 H7 N O3 S2
CAS: 7025-19-6
State: SOLID (SPLIT MULL)
Melting point: 159 C
Class: COBLENTZ II
Instrument: BECKMAN IR-9 (GRATING)
Instrument parameters: ORDER CHANGES: 670, 1200, 2000 CM^-^1
Sampling: TRANSMISSION
Resolution: 2
Origin: DOW CHEMICAL COMPANY
1/CM	TRANSMITTANCE
3800	0.5796
3791	0.5823
3782	0.5858
3773	0.5892
3764	0.5919
3755	0.5943
3746	0.597
3737	0.6019
3728	0.6057
3719	0.6072
3710	0.608
3701	0.6087
3692	0.6096
3683	0.6105
3674	0.6114
3665	0.6124
3656	0.6135
3647	0.6147
3638	0.616
3629	0.6174
3620	0.619
3611	0.62
3602	0.6204
3593	0.6172
3584	0.6176
3575	0.6212
3566	0.6239
3557	0.6264
3548	0.6289
3539	0.631
3530	0.633
3521	0.6339
3512	0.6347
3503	0.6351
3494	0.6353
3485	0.6343
3476	0.6334
3467	0.625
3458	0.6148
3449	0.618
3440	0.6278
3431	0.6322
3422	0.635
3413	0.6374
3404	0.6391
3395	0.6401
3386	0.6408
3377	0.6411
3368	0.6414
3359	0.6411
3350	0.639
3341	0.6404
3332	0.6421
3323	0.6443
3314	0.6461
3305	0.6476
3296	0.649
3287	0.6498
3278	0.6505
3269	0.6501
3260	0.6497
3251	0.6491
3242	0.6475
3233	0.6451
3224	0.6425
3215	0.6395
3206	0.6366
3197	0.6328
3188	0.629
3179	0.625
3170	0.6206
3161	0.6166
3152	0.6128
3143	0.6084
3134	0.6035
3125	0.596
3116	0.5883
3107	0.5803
3098	0.5721
3089	0.5633
3080	0.5564
3071	0.5497
3062	0.5434
3053	0.5371
3044	0.5308
3035	0.5283
3026	0.5089
3017	0.4921
3008	0.5073
2999	0.508
2990	0.5071
2981	0.5053
2972	0.4962
2963	0.4986
2954	0.5028
2945	0.5035
2936	0.4993
2927	0.4781
2918	0.393
2909	0.4493
2900	0.4882
2891	0.5016
2882	0.5152
2873	0.5246
2864	0.5329
2855	0.5367
2846	0.5391
2837	0.5415
2828	0.5502
2819	0.5624
2810	0.5757
2801	0.586
2792	0.5896
2783	0.5899
2774	0.5878
2765	0.5845
2756	0.583
2747	0.584
2738	0.5849
2729	0.5854
2720	0.586
2711	0.5856
2702	0.5796
2693	0.5771
2684	0.5768
2675	0.581
2666	0.586
2657	0.5889
2648	0.5862
2639	0.5801
2630	0.575
2621	0.5746
2612	0.5871
2603	0.591
2594	0.594
2585	0.601
2576	0.6101
2567	0.6207
2558	0.6199
2549	0.6149
2540	0.6133
2531	0.622
2522	0.6322
2513	0.6424
2504	0.6528
2495	0.6641
2486	0.6733
2477	0.6815
2468	0.6878
2459	0.6924
2450	0.696
2441	0.6996
2432	0.7032
2423	0.7067
2414	0.7107
2405	0.7155
2396	0.7201
2387	0.7272
2378	0.7375
2369	0.7451
2360	0.7478
2351	0.7475
2342	0.7475
2333	0.7478
2324	0.7494
2315	0.7503
2306	0.7515
2297	0.754
2288	0.7558
2279	0.7576
2270	0.7595
2261	0.7618
2252	0.7665
2243	0.7719
2234	0.7771
2225	0.7825
2216	0.7857
2207	0.7871
2198	0.7894
2189	0.793
2180	0.7975
2171	0.8022
2162	0.8072
2153	0.81
2144	0.8128
2135	0.8157
2126	0.8185
2117	0.8217
2108	0.8249
2099	0.8277
2090	0.8309
2081	0.8342
2072	0.8374
2063	0.8402
2054	0.8427
2045	0.8455
2036	0.8501
2027	0.855
2018	0.8601
2009	0.8616
2000	0.849
1991	0.858
1982	0.86
1973	0.862
1964	0.8693
1955	0.87
1946	0.8693
1937	0.8736
1928	0.8777
1919	0.8768
1910	0.8751
1901	0.8734
1892	0.8723
1883	0.8724
1874	0.8689
1865	0.8611
1856	0.86
1847	0.8607
1838	0.8613
1829	0.8627
1820	0.8748
1811	0.8771
1802	0.8727
1793	0.8603
1784	0.8366
1775	0.7821
1766	0.6016
1757	0.3562
1748	0.1518
1739	0.0549
1730	0.2575
1721	0.1736
1712	0.1427
1703	0.1579
1694	0.4108
1685	0.5819
1676	0.678
1667	0.7228
1658	0.7368
1649	0.7525
1640	0.7701
1631	0.7905
1622	0.8057
1613	0.808
1604	0.8055
1595	0.8048
1586	0.8215
1577	0.8375
1568	0.8481
1559	0.857
1550	0.8653
1541	0.87
1532	0.874
1523	0.8768
1514	0.8784
1505	0.8801
1496	0.8809
1487	0.8812
1478	0.8797
1469	0.8752
1460	0.8467
1451	0.8025
1442	0.576
1433	0.423
1424	0.5979
1415	0.6184
1406	0.7165
1397	0.711
1388	0.4167
1379	0.6964
1370	0.618
1361	0.1484
1352	0.2977
1343	0.1418
1334	0.0899
1325	0.2772
1316	0.3879
1307	0.2978
1298	0.5091
1289	0.5583
1280	0.2524
1271	0.046
1262	0.0692
1253	0.3473
1244	0.474
1235	0.1926
1226	0.303
1217	0.4794
1208	0.4079
1199	0.5818
1190	0.6256
1181	0.191
1172	0.0338
1163	0.2608
1154	0.576
1145	0.6464
1136	0.6878
1127	0.7206
1118	0.6981
1109	0.5312
1100	0.3992
1091	0.7221
1082	0.7431
1073	0.7326
1064	0.2641
1055	0.5962
1046	0.7061
1037	0.7518
1028	0.7761
1019	0.7918
1010	0.7947
1001	0.7853
992	0.5616
983	0.6825
974	0.7705
965	0.7762
956	0.7734
947	0.7628
938	0.7382
929	0.6989
920	0.6671
911	0.6442
902	0.6736
893	0.7315
884	0.5844
875	0.6177
866	0.7398
857	0.786
848	0.8071
839	0.8187
830	0.8287
821	0.836
812	0.8406
803	0.8405
794	0.8221
785	0.8065
776	0.776
767	0.6645
758	0.8308
749	0.8358
740	0.8313
731	0.8118
722	0.7783
713	0.7946
704	0.8115
695	0.8291
686	0.8414
677	0.8453
668	0.8647
659	0.8647
650	0.8585
641	0.8359
632	0.4915
623	0.7025
614	0.7903
605	0.8106
596	0.8467
587	0.8106
578	0.7695
569	0.8482
560	0.849
551	0.7694
542	0.7848
533	0.7308
524	0.7986
515	0.7598
506	0.5902
497	0.4294
488	0.6142
479	0.7011
470	0.7383
461	0.7271
452	0.7001
443	0.6705
434	0.6151
425	0.5549
416	0.5534
407	0.555
