Infrared Spectrum: IMIDAZOLE-5-FORMAMIDE, N,1-DIBENZYL-4-(N-BENZYLFORMAMIDO)-
Formula: C26 H24 N4 O2
CAS: 7026-46-2
State: SOLID (1 mg / 650 mg KBr DISC)
Class: COBLENTZ III
Instrument: PERKIN-ELMER 521 (GRATING)
Instrument parameters: FILTER CHANGES AT 3130, 2475, 2000, 1150, 700, 410 CM^-^1, GRATING CHANGES AT 2000, 620 CM^-^1
Sampling: TRANSMISSION
Resolution: 4
Origin: SOUTHERN RESEARCH INST.
1/CM	TRANSMITTANCE
267.841	0.484
278.083	0.548
288.326	0.6
298.568	0.642
308.81	0.673
319.052	0.695
329.295	0.706
339.537	0.733
349.779	0.777
360.022	0.8
370.264	0.803
380.506	0.809
390.748	0.826
400.991	0.842
411.233	0.848
421.475	0.844
431.718	0.831
441.96	0.777
452.202	0.779
462.444	0.844
472.687	0.856
482.929	0.847
493.171	0.815
503.414	0.848
513.656	0.848
523.898	0.811
534.14	0.847
544.383	0.844
554.625	0.835
564.867	0.842
575.11	0.82
585.352	0.821
595.594	0.745
605.836	0.817
616.079	0.817
626.321	0.804
636.563	0.787
646.806	0.603
657.048	0.711
667.29	0.755
677.532	0.648
687.775	0.464
698.017	0.415
708.259	0.595
718.502	0.576
728.744	0.658
738.986	0.81
749.228	0.859
759.471	0.869
769.713	0.906
779.955	0.892
790.198	0.855
800.44	0.818
810.682	0.809
820.924	0.865
831.167	0.914
841.409	0.866
851.651	0.869
861.894	0.902
872.136	0.914
882.378	0.906
892.621	0.9
902.863	0.896
913.105	0.887
923.347	0.875
933.59	0.831
943.832	0.864
954.074	0.788
964.317	0.8
974.559	0.833
984.801	0.848
995.043	0.811
1005.29	0.856
1015.53	0.792
1025.77	0.846
1036.01	0.845
1046.25	0.85
1056.5	0.844
1066.74	0.72
1076.98	0.766
1087.22	0.856
1097.47	0.847
1107.71	0.843
1117.95	0.836
1128.19	0.823
1138.44	0.809
1148.68	0.775
1158.92	0.657
1169.16	0.734
1179.4	0.718
1189.65	0.679
1199.89	0.704
1210.13	0.714
1220.37	0.714
1230.62	0.772
1240.86	0.717
1251.1	0.68
1261.34	0.62
1271.59	0.747
1281.83	0.793
1292.07	0.77
1302.31	0.752
1312.55	0.742
1322.8	0.712
1333.04	0.739
1343.28	0.611
1353.52	0.503
1363.77	0.652
1374.01	0.663
1384.25	0.643
1394.49	0.7
1404.73	0.7
1414.98	0.701
1425.22	0.599
1435.46	0.493
1445.7	0.516
1455.95	0.679
1466.19	0.801
1476.43	0.733
1486.67	0.489
1496.92	0.679
1507.16	0.774
1517.4	0.702
1527.64	0.512
1537.88	0.375
1548.13	0.503
1558.37	0.414
1568.61	0.657
1578.85	0.752
1589.1	0.793
1599.34	0.793
1609.58	0.728
1619.82	0.614
1630.07	0.355
1640.31	0.44
1650.55	0.572
1660.79	0.563
1671.03	0.239
1681.28	0.165
1691.52	0.565
1701.76	0.761
1712	0.856
1722.25	0.899
1732.49	0.918
1742.73	0.933
1752.97	0.939
1763.21	0.943
1773.46	0.949
1783.7	0.953
1793.94	0.952
1804.18	0.95
1814.43	0.949
1824.67	0.951
1834.91	0.954
1845.15	0.955
1855.4	0.951
1865.64	0.945
1875.88	0.943
1886.12	0.945
1896.36	0.947
1906.61	0.949
1916.85	0.947
1927.09	0.942
1937.33	0.93
1947.58	0.93
1957.82	0.94
1968.06	0.943
1978.3	0.939
1988.55	0.934
1998.79	0.932
2009.03	0.931
2019.27	0.931
2029.51	0.931
2039.76	0.931
2050	0.93
2060.24	0.929
2070.48	0.929
2080.73	0.929
2090.97	0.929
2101.21	0.929
2111.45	0.93
2121.69	0.931
2131.94	0.93
2142.18	0.928
2152.42	0.925
2162.66	0.924
2172.91	0.923
2183.15	0.923
2193.39	0.923
2203.63	0.921
2213.88	0.92
2224.12	0.919
2234.36	0.919
2244.6	0.919
2254.84	0.919
2265.09	0.918
2275.33	0.918
2285.57	0.918
2295.81	0.916
2306.06	0.913
2316.3	0.908
2326.54	0.907
2336.78	0.906
2347.03	0.906
2357.27	0.906
2367.51	0.906
2377.75	0.906
2387.99	0.906
2398.24	0.906
2408.48	0.905
2418.72	0.904
2428.96	0.903
2439.21	0.903
2449.45	0.902
2459.69	0.901
2469.93	0.9
2480.17	0.899
2490.42	0.898
2500.66	0.897
2510.9	0.896
2521.14	0.895
2531.39	0.894
2541.63	0.892
2551.87	0.89
2562.11	0.889
2572.36	0.887
2582.6	0.885
2592.84	0.884
2603.08	0.883
2613.32	0.881
2623.57	0.88
2633.81	0.879
2644.05	0.878
2654.29	0.877
2664.54	0.876
2674.78	0.875
2685.02	0.874
2695.26	0.873
2705.51	0.872
2715.75	0.871
2725.99	0.869
2736.23	0.866
2746.47	0.863
2756.72	0.858
2766.96	0.854
2777.2	0.846
2787.44	0.847
2797.69	0.849
2807.93	0.849
2818.17	0.847
2828.41	0.84
2838.66	0.818
2848.9	0.812
2859.14	0.805
2869.38	0.787
2879.62	0.754
2889.87	0.796
2900.11	0.804
2910.35	0.79
2920.59	0.79
2930.84	0.792
2941.08	0.797
2951.32	0.803
2961.56	0.808
2971.8	0.812
2982.05	0.812
2992.29	0.809
3002.53	0.804
3012.77	0.764
3023.02	0.701
3033.26	0.756
3043.5	0.788
3053.74	0.727
3063.99	0.773
3074.23	0.777
3084.47	0.755
3094.71	0.739
3104.95	0.738
3115.2	0.822
3125.44	0.831
3135.68	0.826
3145.92	0.817
3156.17	0.813
3166.41	0.805
3176.65	0.798
3186.89	0.788
3197.14	0.777
3207.38	0.764
3217.62	0.746
3227.86	0.724
3238.1	0.696
3248.35	0.663
3258.59	0.622
3268.83	0.574
3279.07	0.517
3289.32	0.456
3299.56	0.478
3309.8	0.573
3320.04	0.646
3330.28	0.699
3340.53	0.729
3350.77	0.739
3361.01	0.744
3371.25	0.748
3381.5	0.745
3391.74	0.734
3401.98	0.734
3412.22	0.737
3422.47	0.738
3432.71	0.739
3442.95	0.74
3453.19	0.741
3463.43	0.743
3473.68	0.744
3483.92	0.749
3494.16	0.754
3504.4	0.76
3514.65	0.766
3524.89	0.773
3535.13	0.78
3545.37	0.787
3555.62	0.793
3565.86	0.798
3576.1	0.804
3586.34	0.81
3596.58	0.817
3606.83	0.823
3617.07	0.826
3627.31	0.83
3637.55	0.833
3647.8	0.835
3658.04	0.836
3668.28	0.836
3678.52	0.836
3688.76	0.839
3699.01	0.84
3709.25	0.84
3719.49	0.84
3729.73	0.84
3739.98	0.84
3750.22	0.839
3760.46	0.839
3770.7	0.838
3780.95	0.837
3791.19	0.837
3801.43	0.836
