Infrared Spectrum: IMIDAZOLE-4-CARBOXAMIDE, 1-BENZYL-5-(BENZYLAMINO)-
Formula: C18 H18 N4 O
CAS: 7026-48-4
State: SOLID (1 mg / 650 mg KBr DISC)
Class: COBLENTZ III
Instrument: PERKIN-ELMER 521 (GRATING)
Instrument parameters: FILTER CHANGE AT 3130, 2475, 2000, 1150, 700, 410 CM^-^1, GRATING CHANGES AT 2000, 620 CM^-^1
Sampling: TRANSMISSION
Resolution: 4
Origin: SOUTHERN RESEARCH INSTITUTE
1/CM	TRANSMITTANCE
254.545	0.243
263.636	0.295
272.727	0.356
281.818	0.436
290.909	0.514
300	0.581
309.09	0.63
318.181	0.651
327.272	0.676
336.363	0.726
345.454	0.779
354.545	0.811
363.636	0.834
372.727	0.848
381.818	0.839
390.909	0.777
400	0.81
409.091	0.886
418.181	0.904
427.272	0.877
436.363	0.838
445.454	0.882
454.545	0.839
463.636	0.721
472.727	0.802
481.818	0.921
490.909	0.943
500	0.928
509.091	0.922
518.181	0.915
527.272	0.905
536.363	0.877
545.454	0.812
554.545	0.757
563.636	0.882
572.727	0.889
581.818	0.875
590.909	0.792
600	0.718
609.091	0.646
618.182	0.824
627.272	0.868
636.363	0.849
645.454	0.659
654.545	0.668
663.636	0.652
672.727	0.602
681.818	0.465
690.909	0.393
700	0.557
709.091	0.437
718.182	0.327
727.272	0.277
736.363	0.557
745.454	0.685
754.545	0.705
763.636	0.839
772.727	0.87
781.818	0.816
790.909	0.716
800	0.783
809.091	0.705
818.182	0.756
827.272	0.924
836.363	0.944
845.454	0.965
854.545	0.984
863.636	0.994
872.727	0.997
881.818	0.978
890.909	0.972
900	0.927
909.091	0.997
918.182	0.996
927.273	0.99
936.363	0.983
945.454	0.943
954.545	0.83
963.636	0.934
972.727	0.896
981.818	0.918
990.909	0.937
1000	0.843
1009.09	0.943
1018.18	0.878
1027.27	0.94
1036.36	0.922
1045.45	0.867
1054.55	0.839
1063.64	0.859
1072.73	0.776
1081.82	0.718
1090.91	0.749
1100	0.854
1109.09	0.905
1118.18	0.93
1127.27	0.936
1136.36	0.922
1145.45	0.885
1154.55	0.819
1163.64	0.88
1172.73	0.842
1181.82	0.722
1190.91	0.761
1200	0.783
1209.09	0.582
1218.18	0.876
1227.27	0.85
1236.36	0.694
1245.45	0.781
1254.55	0.784
1263.64	0.605
1272.73	0.495
1281.82	0.79
1290.91	0.789
1300	0.785
1309.09	0.783
1318.18	0.844
1327.27	0.783
1336.36	0.719
1345.45	0.524
1354.55	0.676
1363.64	0.652
1372.73	0.716
1381.82	0.669
1390.91	0.734
1400	0.709
1409.09	0.77
1418.18	0.706
1427.27	0.528
1436.36	0.639
1445.45	0.381
1454.55	0.412
1463.64	0.589
1472.73	0.524
1481.82	0.626
1490.91	0.559
1500	0.738
1509.09	0.703
1518.18	0.816
1527.27	0.82
1536.36	0.78
1545.45	0.709
1554.55	0.603
1563.64	0.443
1572.73	0.21
1581.82	0.141
1590.91	0.217
1600	0.287
1609.09	0.488
1618.18	0.632
1627.27	0.65
1636.36	0.584
1645.45	0.506
1654.55	0.391
1663.64	0.211
1672.73	0.273
1681.82	0.494
1690.91	0.728
1700	0.814
1709.09	0.896
1718.18	0.943
1727.27	0.962
1736.36	0.974
1745.45	0.98
1754.55	0.992
1763.64	0.998
1772.73	0.998
1781.82	0.99
1790.91	0.983
1800	0.981
1809.09	0.982
1818.18	0.986
1827.27	0.993
1836.36	0.995
1845.45	0.991
1854.55	0.982
1863.64	0.978
1872.73	0.981
1881.82	0.985
1890.91	0.989
1900	0.99
1909.09	0.988
1918.18	0.984
1927.27	0.977
1936.36	0.97
1945.45	0.97
1954.55	0.974
1963.64	0.979
1972.73	0.981
1981.82	0.981
1990.91	0.98
2000	0.974
2009.09	0.972
2018.18	0.971
2027.27	0.971
2036.36	0.971
2045.45	0.97
2054.55	0.968
2063.64	0.965
2072.73	0.964
2081.82	0.963
2090.91	0.962
2100	0.961
2109.09	0.96
2118.18	0.958
2127.27	0.956
2136.36	0.954
2145.45	0.953
2154.55	0.952
2163.64	0.95
2172.73	0.948
2181.82	0.947
2190.91	0.944
2200	0.943
2209.09	0.943
2218.18	0.941
2227.27	0.94
2236.36	0.939
2245.45	0.938
2254.55	0.936
2263.64	0.935
2272.73	0.933
2281.82	0.933
2290.91	0.931
2300	0.928
2309.09	0.926
2318.18	0.924
2327.27	0.923
2336.36	0.92
2345.45	0.919
2354.55	0.919
2363.64	0.92
2372.73	0.921
2381.82	0.922
2390.91	0.923
2400	0.924
2409.09	0.924
2418.18	0.922
2427.27	0.921
2436.36	0.92
2445.45	0.919
2454.55	0.918
2463.64	0.916
2472.73	0.915
2481.82	0.913
2490.91	0.91
2500	0.908
2509.09	0.906
2518.18	0.905
2527.27	0.903
2536.36	0.901
2545.45	0.9
2554.55	0.899
2563.64	0.897
2572.73	0.896
2581.82	0.896
2590.91	0.894
2600	0.891
2609.09	0.889
2618.18	0.886
2627.27	0.885
2636.36	0.884
2645.46	0.883
2654.55	0.881
2663.64	0.879
2672.73	0.877
2681.82	0.874
2690.91	0.872
2700	0.867
2709.09	0.86
2718.18	0.854
2727.27	0.849
2736.36	0.839
2745.46	0.831
2754.55	0.83
2763.64	0.835
2772.73	0.839
2781.82	0.843
2790.91	0.846
2800	0.849
2809.09	0.846
2818.18	0.84
2827.27	0.833
2836.36	0.82
2845.46	0.798
2854.55	0.754
2863.64	0.77
2872.73	0.79
2881.82	0.79
2890.91	0.78
2900	0.761
2909.09	0.735
2918.18	0.71
2927.27	0.731
2936.36	0.745
2945.46	0.739
2954.55	0.71
2963.64	0.696
2972.73	0.724
2981.82	0.739
2990.91	0.725
3000	0.704
3009.09	0.689
3018.18	0.649
3027.27	0.582
3036.36	0.594
3045.46	0.608
3054.55	0.579
3063.64	0.537
3072.73	0.572
3081.82	0.547
3090.91	0.513
3100	0.494
3109.09	0.489
3118.18	0.481
3127.27	0.47
3136.36	0.454
3145.46	0.443
3154.55	0.444
3163.64	0.451
3172.73	0.462
3181.82	0.481
3190.91	0.508
3200	0.537
3209.09	0.566
3218.18	0.592
3227.27	0.608
3236.36	0.613
3245.46	0.614
3254.55	0.613
3263.64	0.594
3272.73	0.57
3281.82	0.547
3290.91	0.528
3300	0.49
3309.09	0.454
3318.18	0.41
3327.27	0.405
3336.36	0.41
3345.46	0.453
3354.55	0.543
3363.64	0.614
3372.73	0.671
3381.82	0.715
3390.91	0.747
3400	0.77
3409.09	0.788
3418.18	0.801
3427.27	0.813
3436.36	0.822
3445.46	0.825
3454.55	0.828
3463.64	0.831
3472.73	0.835
3481.82	0.839
3490.91	0.848
3500	0.849
3509.09	0.851
3518.18	0.853
3527.27	0.856
3536.36	0.859
3545.46	0.861
3554.55	0.862
3563.64	0.862
3572.73	0.863
3581.82	0.864
3590.91	0.865
3600	0.866
3609.09	0.866
3618.18	0.867
3627.27	0.87
3636.36	0.872
3645.46	0.872
3654.55	0.87
3663.64	0.867
3672.73	0.867
3681.82	0.87
3690.91	0.874
3700	0.874
3709.09	0.874
3718.18	0.872
3727.27	0.871
3736.36	0.868
3745.46	0.858
3754.55	0.857
3763.64	0.865
3772.73	0.867
3781.82	0.867
3790.91	0.867
