Infrared Spectrum: 2-CHLORO-2'-HYDROXY BENZOPHENONE
Formula: C13 H9 Cl O2
CAS: 70288-96-9
State: SOLID (MINERAL OIL MULL)
Class: COBLENTZ
Instrument: Not specified, most likely a prism, grating, or hybrid spectrometer.
Sampling: TRANSMISSION
Resolution: 4
Origin: DOW CHEMICAL COMPANY
MICROMETERS	TRANSMITTANCE
2.021	0.529
2.06203	0.539
2.10307	0.547
2.1441	0.554
2.18514	0.559
2.22617	0.561
2.26721	0.568
2.30824	0.573
2.34928	0.581
2.39031	0.59
2.43135	0.6
2.47238	0.607
2.51341	0.61
2.55445	0.614
2.59548	0.629
2.63652	0.631
2.67755	0.641
2.71859	0.65
2.75962	0.655
2.80066	0.662
2.84169	0.663
2.88273	0.658
2.92376	0.638
2.96479	0.614
3.00583	0.604
3.04686	0.6
3.0879	0.609
3.12893	0.617
3.16997	0.609
3.211	0.593
3.25204	0.566
3.29307	0.558
3.33411	0.488
3.37514	0.206
3.41617	0.206
3.45721	0.319
3.49824	0.569
3.53928	0.718
3.58031	0.74
3.62135	0.742
3.66238	0.742
3.70342	0.752
3.74445	0.754
3.78549	0.759
3.82652	0.767
3.86755	0.771
3.90859	0.779
3.94962	0.788
3.99066	0.795
4.03169	0.802
4.07273	0.805
4.11376	0.81
4.1548	0.81
4.19583	0.807
4.23687	0.812
4.2779	0.825
4.31893	0.829
4.35997	0.829
4.401	0.839
4.44204	0.843
4.48307	0.846
4.52411	0.848
4.56514	0.848
4.60618	0.853
4.64721	0.856
4.68824	0.856
4.72928	0.861
4.77031	0.866
4.81135	0.868
4.85238	0.87
4.89342	0.873
4.93445	0.877
4.97549	0.878
5.01652	0.866
5.05756	0.87
5.09859	0.872
5.13962	0.87
5.18066	0.877
5.22169	0.875
5.26273	0.883
5.30376	0.889
5.3448	0.882
5.38583	0.883
5.42687	0.887
5.4679	0.87
5.50894	0.878
5.54997	0.885
5.591	0.895
5.63204	0.89
5.67307	0.889
5.71411	0.882
5.75514	0.878
5.79618	0.872
5.83721	0.87
5.87825	0.868
5.91928	0.868
5.96032	0.827
6.00135	0.759
6.04238	0.643
6.08342	0.385
6.12445	0.17
6.16549	0.378
6.20652	0.467
6.24756	0.477
6.28859	0.515
6.32963	0.467
6.37066	0.554
6.4117	0.723
6.45273	0.757
6.49376	0.776
6.5348	0.766
6.57583	0.755
6.61687	0.738
6.6579	0.684
6.69894	0.474
6.73997	0.366
6.78101	0.416
6.82204	0.346
6.86308	0.375
6.90411	0.455
6.94514	0.419
6.98618	0.602
7.02721	0.709
7.06825	0.747
7.10928	0.747
7.15032	0.744
7.19135	0.709
7.23239	0.648
7.27342	0.68
7.31446	0.704
7.35549	0.674
7.39652	0.503
7.43756	0.329
7.47859	0.426
7.51963	0.547
7.56066	0.52
7.6017	0.476
7.64273	0.636
7.68377	0.662
7.7248	0.691
7.76584	0.694
7.80687	0.658
7.8479	0.578
7.88894	0.368
7.92997	0.395
7.97101	0.349
8.01204	0.366
8.05308	0.539
8.09411	0.518
8.13515	0.414
8.17618	0.307
8.21722	0.517
8.25825	0.616
8.29928	0.656
8.34032	0.687
8.38135	0.733
8.42239	0.755
8.46342	0.755
8.50446	0.735
8.54549	0.684
8.58653	0.624
8.62756	0.604
8.6686	0.445
8.70963	0.477
8.75066	0.713
8.7917	0.75
8.83273	0.75
8.87377	0.75
8.9148	0.755
8.95584	0.72
8.99687	0.738
9.03791	0.807
9.07894	0.836
9.11997	0.846
9.16101	0.858
9.20204	0.882
9.24308	0.889
9.28411	0.894
9.32515	0.885
9.36618	0.858
9.40722	0.764
9.44825	0.593
9.48929	0.692
9.53032	0.873
9.57135	0.897
9.61239	0.866
9.65342	0.75
9.69446	0.692
9.73549	0.788
9.77653	0.844
9.81756	0.872
9.8586	0.901
9.89963	0.916
9.94067	0.923
9.9817	0.921
10.0227	0.918
10.0638	0.924
10.1048	0.928
10.1458	0.931
10.1869	0.933
10.2279	0.935
10.2689	0.936
10.31	0.936
10.351	0.926
10.392	0.887
10.4331	0.773
10.4741	0.752
10.5151	0.858
10.5562	0.863
10.5972	0.757
10.6383	0.558
10.6793	0.476
10.7203	0.643
10.7614	0.8
10.8024	0.873
10.8434	0.895
10.8845	0.909
10.9255	0.923
10.9665	0.93
11.0076	0.94
11.0486	0.945
11.0896	0.945
11.1307	0.945
11.1717	0.945
11.2127	0.945
11.2538	0.947
11.2948	0.947
11.3358	0.947
11.3769	0.945
11.4179	0.895
11.4589	0.883
11.5	0.901
11.541	0.853
11.582	0.832
11.6231	0.892
11.6641	0.911
11.7052	0.889
11.7462	0.875
11.7872	0.887
11.8283	0.902
11.8693	0.919
11.9103	0.931
11.9514	0.926
11.9924	0.878
12.0334	0.754
12.0745	0.549
12.1155	0.554
12.1565	0.788
12.1976	0.861
12.2386	0.887
12.2796	0.901
12.3207	0.909
12.3617	0.912
12.4027	0.912
12.4438	0.907
12.4848	0.901
12.5258	0.892
12.5669	0.88
12.6079	0.877
12.6489	0.877
12.69	0.883
12.731	0.882
12.772	0.866
12.8131	0.837
12.8541	0.795
12.8952	0.732
12.9362	0.612
12.9772	0.436
13.0183	0.273
13.0593	0.199
13.1003	0.194
13.1414	0.332
13.1824	0.457
13.2234	0.513
13.2645	0.549
13.3055	0.537
13.3465	0.465
13.3876	0.419
13.4286	0.436
13.4696	0.435
13.5107	0.407
13.5517	0.385
13.5927	0.368
13.6338	0.36
13.6748	0.38
13.7158	0.435
13.7569	0.491
13.7979	0.549
13.8389	0.588
13.88	0.605
13.921	0.622
13.9621	0.656
14.0031	0.711
14.0441	0.747
14.0852	0.764
14.1262	0.767
14.1672	0.755
14.2083	0.716
14.2493	0.679
14.2903	0.668
14.3314	0.701
14.3724	0.75
14.4134	0.783
14.4545	0.795
14.4955	0.8
14.5365	0.793
14.5776	0.762
14.6186	0.732
14.6596	0.716
14.7007	0.737
14.7417	0.783
14.7827	0.817
14.8238	0.834
14.8648	0.837
14.9058	0.831
14.9469	0.837
14.9879	0.856
15.0289	0.865
15.07	0.87
15.111	0.87
15.1521	0.87
15.1931	0.87
15.2341	0.87
15.2752	0.868
15.3162	0.861
15.3572	0.851
15.3983	0.837
15.4393	0.808
15.4803	0.781
15.5214	0.75
15.5624	0.718
15.6034	0.684
15.6445	0.656
15.6855	0.638
15.7265	0.633
15.7676	0.638
15.8086	0.65
