Infrared Spectrum: 3-Acetylindole
Formula: C 10 H 9 N O
CAS: 703-80-0
State: gas
Instrument: HP-GC/MS/IRD
Origin: NIST Mass Spectrometry Data Center
1/CM	ABSORBANCE
550	0.0021666
562	0.0017181
574	0.0020309
586	0.0019757
598	0.0026956
610	0.0015272
622	0.0002208
634	2.76e-05
646	0.0001679
658	0.0009499
670	0.0014122
682	0.0002599
694	6.21e-05
706	0.000161
718	0.0009821
730	0.006049
742	0.0123855
754	0.0050002
766	0.0016261
778	0.0004117
790	0.0001702
802	0.0006578
814	0.0012558
826	0.0007613
838	0.0012443
850	0.0024978
862	0.002484
874	0.0010741
886	0.000851
898	0.0021137
910	0.0032292
922	0.0048093
934	0.0057385
946	0.003266
958	0.002369
970	0.0013685
982	0.0010488
994	0.0009775
1006	0.0020976
1018	0.0020723
1030	0.0008004
1042	0.0004071
1054	0.0004508
1066	0.0007176
1078	0.0015042
1090	0.0023598
1102	0.0032246
1114	0.0067298
1126	0.0067804
1138	0.0023276
1150	0.0028198
1162	0.0044712
1174	0.003013
1186	0.0010419
1198	0.0006785
1210	0.0006808
1222	0.0010465
1234	0.0024449
1246	0.0026036
1258	0.0014743
1270	0.0005865
1282	0.000621
1294	0.0025599
1306	0.0043217
1318	0.0035489
1330	0.0035121
1342	0.0024173
1354	0.0035167
1366	0.0055683
1378	0.0038157
1390	0.0029118
1402	0.0109319
1414	0.019596
1426	0.007337
1438	0.0030705
1450	0.0041078
1462	0.0032062
1474	0.0013639
1486	0.0014467
1498	0.00184
1510	0.0039859
1522	0.0107916
1534	0.014996
1546	0.0060904
1558	0.0015824
1570	0.001449
1582	0.001472
1594	0.0010925
1606	0.0015295
1618	0.002461
1630	0.002231
1642	0.0019067
1654	0.0024863
1666	0.0059432
1678	0.0185748
1690	0.022057
1702	0.007406
1714	0.0020585
1726	0.0012627
1738	0.0010143
1750	0.0007659
1762	0.0004508
1774	0.0004048
1786	0.000299
1798	0.0002254
1810	0.0002875
1822	0.0002346
1834	0.000207
1846	0.0002185
1858	0.00023
1870	0.0002277
1882	0.0002346
1894	0.0002852
1906	0.0003059
1918	0.0002346
1930	0.0002415
1942	0.0001702
1954	9.89e-05
1966	9.2e-05
1978	0.0001035
1990	8.28e-05
2002	7.36e-05
2014	7.59e-05
2026	8.74e-05
2038	7.82e-05
2050	4.37e-05
2062	2.53e-05
2074	3.68e-05
2086	5.29e-05
2098	3.45e-05
2110	5.29e-05
2122	1.84e-05
2134	3.91e-05
2146	1.15e-05
2158	3.22e-05
2170	5.52e-05
2182	8.97e-05
2194	9.2e-05
2206	0.0001058
2218	6.9e-05
2230	8.51e-05
2242	6.67e-05
2254	7.82e-05
2266	7.36e-05
2278	6.67e-05
2290	7.36e-05
2302	7.13e-05
2314	7.59e-05
2326	6.9e-05
2338	6.67e-05
2350	0.000115
2362	8.05e-05
2374	9.66e-05
2386	0.0001058
2398	0.0001173
2410	0.0001219
2422	5.06e-05
2434	0.0001265
2446	0.0001311
2458	0.0001426
2470	0.0001794
2482	0.0002162
2494	0.0002392
2506	0.0002116
2518	0.0002461
2530	0.0002921
2542	0.0002461
2554	0.0001725
2566	0.0001127
2578	0.0001449
2590	0.0001058
2602	0.0001127
2614	0.0001288
2626	9.43e-05
2638	0.0001288
2650	0.0001955
2662	0.000184
2674	9.2e-05
2686	0.0001587
2698	0.0001748
2710	0.0001173
2722	7.36e-05
2734	8.05e-05
2746	9.43e-05
2758	6.21e-05
2770	4.83e-05
2782	0.0001104
2794	0.0001104
2806	9.43e-05
2818	0.0001472
2830	0.0001748
2842	0.0002001
2854	0.0002415
2866	0.0002346
2878	0.0002231
2890	0.0002691
2902	0.0003473
2914	0.0004922
2926	0.0007728
2938	0.0009775
2950	0.0007475
2962	0.0006762
2974	0.0008073
2986	0.000759
2998	0.0007636
3010	0.0010465
3022	0.0010994
3034	0.0014145
3046	0.0021091
3058	0.0030268
3070	0.0041009
3082	0.0022931
3094	0.0013616
3106	0.0008464
3118	0.0003933
3130	0.0002829
3142	0.0002162
3154	0.0001633
3166	0.0001472
3178	6.67e-05
3190	0.000115
3202	9.2e-05
3214	0.0001748
3226	6.67e-05
3238	0.000115
3250	0.0001863
3262	0.0001311
3274	0.0001334
3286	0.000115
3298	0.0001219
3310	0.0001012
3322	0.0002277
3334	0.0002921
3346	0.0003772
3358	0.0003588
3370	0.0002852
3382	0.0002553
3394	0.0002093
3406	0.0001794
3418	0.0001771
3430	0.000207
3442	0.0002691
3454	0.000437
3466	0.0008901
3478	0.0018446
3490	0.003542
3502	0.0069207
3514	0.0071691
3526	0.0025162
3538	0.000575
3550	0.0002231
3562	0.0001311
3574	0.0001012
3586	8.97e-05
3598	0.0001219
3610	3.91e-05
3622	4.37e-05
3634	9.89e-05
3646	4.6e-05
3658	4.14e-05
3670	1.38e-05
3682	2.53e-05
3694	5.29e-05
3706	8.97e-05
3718	4.83e-05
3730	2.76e-05
3742	2.99e-05
3754	6.9e-06
3766	5.75e-05
3778	0.0001219
3790	5.98e-05
3802	9.66e-05
3814	5.29e-05
3826	9.2e-06
3838	1.15e-05
