Infrared Spectrum: Homophthalic anhydride
Formula: C 9 H 6 O 3
CAS: 703-59-3
State: gas
Origin: EPA-IR VAPOR PHASE LIBRARY
1/CM	ABSORBANCE
549.8	0.003681
559.445	0.003691
569.09	0.002491
578.735	0.001921
588.38	0.001921
598.025	0.001548
607.67	0.002821
617.315	0.009671
626.96	0.010731
636.605	0.003521
646.251	0.001681
655.896	0.002761
665.541	0.004901
675.186	0.006861
684.831	0.005091
694.476	0.002871
704.121	0.002011
713.766	0.003591
723.411	0.012871
733.056	0.030211
742.701	0.018911
752.346	0.007811
761.991	0.003241
771.636	0.002791
781.281	0.002871
790.926	0.002731
800.571	0.001561
810.216	0.0008993
819.861	0.0007913
829.507	0.0008238
839.152	0.0010016
848.797	0.0013715
858.442	0.0015331
868.087	0.0014879
877.732	0.0013272
887.377	0.001871
897.022	0.003491
906.667	0.006651
916.312	0.008491
925.957	0.006961
935.602	0.004691
945.247	0.004561
954.892	0.004801
964.537	0.005981
974.182	0.006841
983.827	0.011361
993.472	0.023211
1003.12	0.050611
1012.76	0.094741
1022.41	0.098851
1032.05	0.057851
1041.7	0.062431
1051.34	0.064201
1060.99	0.024711
1070.63	0.009551
1080.28	0.007911
1089.92	0.007621
1099.57	0.010811
1109.21	0.021021
1118.86	0.022011
1128.5	0.014971
1138.15	0.018261
1147.79	0.022561
1157.44	0.023721
1167.08	0.023371
1176.73	0.023251
1186.37	0.022031
1196.02	0.021941
1205.66	0.018151
1215.31	0.012041
1224.95	0.012811
1234.6	0.013671
1244.24	0.009621
1253.89	0.008771
1263.53	0.020941
1273.18	0.053511
1282.82	0.058371
1292.47	0.028681
1302.11	0.017011
1311.76	0.011531
1321.4	0.007721
1331.05	0.006651
1340.69	0.004071
1350.34	0.002481
1359.98	0.002251
1369.63	0.002131
1379.27	0.002421
1388.92	0.003101
1398.56	0.003991
1408.21	0.005061
1417.85	0.004861
1427.5	0.003681
1437.14	0.003551
1446.79	0.005101
1456.43	0.010111
1466.08	0.010781
1475.73	0.005841
1485.37	0.005461
1495.02	0.004351
1504.66	0.002041
1514.31	0.0014163
1523.95	0.0014304
1533.6	0.0014467
1543.24	0.001721
1552.89	0.002251
1562.53	0.002611
1572.18	0.003271
1581.82	0.004531
1591.47	0.006461
1601.11	0.010861
1610.76	0.012631
1620.4	0.007841
1630.05	0.003461
1639.69	0.002261
1649.34	0.002021
1658.98	0.002151
1668.63	0.002421
1678.27	0.002481
1687.92	0.002551
1697.56	0.002931
1707.21	0.003441
1716.85	0.004211
1726.5	0.005741
1736.14	0.009321
1745.79	0.014161
1755.43	0.024541
1765.08	0.063161
1774.72	0.164911
1784.37	0.174931
1794.01	0.070821
1803.66	0.040801
1813.3	0.074641
1822.95	0.102471
1832.59	0.071441
1842.24	0.026251
1851.88	0.009881
1861.53	0.006341
1871.17	0.004311
1880.82	0.003091
1890.46	0.002441
1900.11	0.002441
1909.75	0.002151
1919.4	0.001981
1929.04	0.002261
1938.69	0.002321
1948.33	0.002091
1957.98	0.001701
1967.62	0.0015389
1977.27	0.0011984
1986.91	0.000806
1996.56	0.0007038
2006.2	0.0006925
2015.85	0.0007985
2025.49	0.0010099
2035.14	0.0010825
2044.78	0.0010046
2054.43	0.00096
2064.07	0.000946
2073.72	0.0007729
2083.36	0.0007044
2093.01	0.0006904
2102.65	0.00063753
2112.3	0.00058761
2121.94	0.00056742
2131.59	0.0007387
2141.23	0.0006912
2150.88	0.0007511
2160.52	0.0008273
2170.17	0.0008576
2179.81	0.0007491
2189.46	0.0006938
2199.1	0.0006929
2208.75	0.0007154
2218.39	0.0006751
2228.04	0.0006816
2237.68	0.0007641
2247.33	0.0010271
2256.97	0.0009515
2266.62	0.0011843
2276.26	0.0013476
2285.91	0.0014421
2295.55	0.001571
2305.2	0.001771
2314.84	0.002031
2324.49	0.002231
2334.13	0.002001
2343.78	0.001751
2353.42	0.001781
2363.07	0.001971
2372.72	0.001651
2382.36	0.0008875
2392.01	0.00054988
2401.65	0.0005022
2411.3	0.0004544
2420.94	0.000341
2430.59	0.0004835
2440.23	0.00060882
2449.88	0.0005114
2459.52	0.00057094
2469.17	0.000437
2478.81	0.000345
2488.46	0.000378
2498.1	0.00034
2507.75	0.000317
2517.39	0.00032
2527.04	0.000269
2536.68	0.000181
2546.33	0.00024
2555.97	0.000251
2565.62	0.000275
2575.26	0.000198
2584.91	0.00019
2594.55	0.000187
2604.2	0.000256
2613.84	0.000249
2623.49	0.000284
2633.13	0.000121
2642.78	0.000234
2652.42	0.00025
2662.07	0.000253
2671.71	0.000179
2681.36	0.000224
2691	0.00027
2700.65	0.000268
2710.29	0.000185
2719.94	0.000292
2729.58	0.000289
2739.23	0.000275
2748.87	0.000327
2758.52	0.000209
2768.16	0.000305
2777.81	0.000198
2787.45	0.000255
2797.1	0.000232
2806.74	0.000252
2816.39	0.000237
2826.03	0.000205
2835.68	9.1e-05
2845.32	0.000142
2854.97	0.000219
2864.61	0.000337
2874.26	0.000246
2883.9	0.000477
2893.55	0.00057681
2903.19	0.0009269
2912.84	0.0008088
2922.48	0.000492
2932.13	0.000423
2941.77	0.0004596
2951.42	0.00045
2961.06	0.000338
2970.71	0.0005305
2980.35	0.0005256
2990	0.000432
2999.64	0.000303
3009.29	0.000556899
3018.93	0.0007704
3028.58	0.0015273
3038.22	0.003041
3047.87	0.003791
3057.51	0.003541
3067.16	0.004051
3076.8	0.005191
3086.45	0.005181
3096.09	0.003211
3105.74	0.0012353
3115.38	0.0005079
3125.03	0.000351
3134.67	7.9e-05
3144.32	0.000118
3153.96	0.000184
3163.61	0.000137
3173.25	0.000246
3182.9	0.000157
3192.54	0.00045
3202.19	0.000169
3211.83	0.000108
3221.48	0.000179
3231.12	0.000148
3240.77	0.000151
3250.41	9.4e-05
3260.06	0.000354
3269.7	0.000204
3279.35	0.000161
3289	0.000212
3298.64	0.000336
3308.29	0.000252
3317.93	0.000303
3327.58	0.000229
3337.22	0.000206
3346.87	0.000175
3356.51	0.000409
3366.16	0.000355
3375.8	0.000309
3385.45	0.000405
3395.09	0.000438
3404.74	0.000161
3414.38	0.000281
3424.03	0.0003
3433.67	0.000345
3443.32	0.000251
3452.96	0.0004664
3462.61	0.000439
3472.25	0.0005338
3481.9	0.00056289
3491.54	0.0004786
3501.19	0.0005848
3510.83	0.0006998
3520.48	0.0006884
3530.12	0.0011235
3539.77	0.0014576
3549.41	0.001901
3559.06	0.001801
3568.7	0.001801
3578.35	0.002251
3587.99	0.002511
3597.64	0.002021
3607.28	0.0012168
3616.93	0.0012207
3626.57	0.0011637
3636.22	0.0012004
3645.86	0.0009483
3655.51	0.0008866
3665.15	0.000681
3674.8	0.0004692
3684.44	0.0007016
3694.09	0.00054957
3703.73	0.0006834
3713.38	0.00054207
3723.02	0.0007066
3732.67	0.00059781
3742.31	0.0005808
3751.96	0.000421
3761.6	0.0005372
3771.25	0.00059919
3780.89	0.000351
3790.54	0.000366
3800.18	0.0006608
3809.83	0.00031
3819.47	0.000405
3829.12	0.00057289
3838.76	0.000550078
3848.41	0.00061275
3858.05	0.00058414
3867.7	0.0006537
3877.34	0.0004666
3886.99	0.000426
3896.63	0.0004624
3906.28	0.0005185
3915.92	0.00056431
3925.57	0.000559473
3935.21	0.0008948
3944.86	0.000447
3954.5	0.000408
3964.15	0.000419
3973.79	0.000333
3983.44	0.000448
3993.08	0.000449
