Infrared Spectrum: 2-Methoxybenzyl chloride
Formula: C 8 H 9 Cl O
CAS: 7035-02-1
State: gas
Origin: EPA-IR VAPOR PHASE LIBRARY
1/CM	ABSORBANCE
549.8	0.00881481
559.445	0.00903481
569.09	0.00618481
578.734	0.00476481
588.379	0.00527481
598.024	0.00432481
607.669	0.00241481
617.313	0.00158481
626.958	0.00143481
636.603	0.00211481
646.248	0.00297481
655.893	0.00595481
665.537	0.0144748
675.182	0.0335548
684.827	0.0477548
694.472	0.0338748
704.116	0.0177548
713.761	0.0113748
723.406	0.0120348
733.051	0.0224748
742.695	0.0504148
752.34	0.0792548
761.985	0.0525848
771.63	0.0218848
781.275	0.00843481
790.919	0.00495481
800.564	0.00389481
810.209	0.00390481
819.854	0.00984481
829.498	0.0198448
839.143	0.0173348
848.788	0.00687481
858.433	0.00415481
868.078	0.00272481
877.722	0.00201481
887.367	0.00188481
897.012	0.00267481
906.657	0.00277481
916.301	0.00251481
925.946	0.00265481
935.591	0.00305481
945.236	0.00295481
954.88	0.00267481
964.525	0.00303481
974.17	0.00415481
983.815	0.00537481
993.46	0.00708481
1003.1	0.0111648
1012.75	0.0201348
1022.39	0.0343648
1032.04	0.0414648
1041.68	0.0431548
1051.33	0.0336248
1060.97	0.0176448
1070.62	0.00742481
1080.26	0.00618481
1089.91	0.0113948
1099.55	0.0281648
1109.2	0.0340348
1118.84	0.0203348
1128.49	0.00797481
1138.13	0.00584481
1147.78	0.00857481
1157.42	0.0126548
1167.07	0.0163548
1176.71	0.0194948
1186.36	0.0203848
1196	0.0170548
1205.64	0.0156048
1215.29	0.0206748
1224.93	0.0406948
1234.58	0.0851748
1244.22	0.133255
1253.87	0.136105
1263.51	0.0960148
1273.16	0.0651748
1282.8	0.0551048
1292.45	0.0467648
1302.09	0.0290848
1311.74	0.0188348
1321.38	0.0143548
1331.03	0.00958481
1340.67	0.00579481
1350.32	0.00454481
1359.96	0.00395481
1369.61	0.00363481
1379.25	0.00349481
1388.9	0.00367481
1398.54	0.00408481
1408.18	0.00500481
1417.83	0.00752481
1427.47	0.0150148
1437.12	0.0314048
1446.76	0.0395548
1456.41	0.0412048
1466.05	0.0488148
1475.7	0.0531148
1485.34	0.0785548
1494.99	0.0903948
1504.63	0.0550448
1514.28	0.0184248
1523.92	0.00898481
1533.57	0.00592481
1543.21	0.00472481
1552.86	0.00495481
1562.5	0.00703481
1572.15	0.0133348
1581.79	0.0251248
1591.44	0.0380248
1601.08	0.0391448
1610.73	0.0251848
1620.37	0.00991481
1630.01	0.00433481
1639.66	0.00306481
1649.3	0.00258481
1658.95	0.00237481
1668.59	0.00240481
1678.24	0.00257481
1687.88	0.00253481
1697.53	0.00200481
1707.17	0.00183481
1716.82	0.00187481
1726.46	0.00175481
1736.11	0.00175481
1745.75	0.00168481
1755.4	0.00176481
1765.04	0.00208481
1774.69	0.00244481
1784.33	0.00238481
1793.98	0.00207481
1803.62	0.00189481
1813.27	0.00169481
1822.91	0.00136481
1832.55	0.00124481
1842.2	0.00117481
1851.84	0.00151481
1861.49	0.00173481
1871.13	0.00186481
1880.78	0.00212481
1890.42	0.00287481
1900.07	0.00302481
1909.71	0.00242481
1919.36	0.00238481
1929	0.00289481
1938.65	0.00243481
1948.29	0.00136481
1957.94	0.00102481
1967.58	0.00105481
1977.23	0.00136481
1986.87	0.00191481
1996.52	0.00231481
2006.16	0.00251481
2015.81	0.00230481
2025.45	0.00218481
2035.1	0.00226481
2044.74	0.00240481
2054.38	0.00252481
2064.03	0.00261481
2073.67	0.00241481
2083.32	0.00210481
2092.96	0.00156481
2102.61	0.00114481
2112.25	0.00097721
2121.9	0.00095131
2131.54	0.00104481
2141.19	0.00096741
2150.83	0.00091911
2160.48	0.00080281
2170.12	0.00082991
2179.77	0.00067901
2189.41	0.00073641
2199.06	0.00090651
2208.7	0.00085221
2218.35	0.00087611
2227.99	0.00104481
2237.64	0.00110481
2247.28	0.00111481
2256.92	0.00105481
2266.57	0.00093601
2276.21	0.00080191
2285.86	0.00085211
2295.5	0.00081741
2305.15	0.00090331
2314.79	0.00103481
2324.44	0.00131481
2334.08	0.00122481
2343.73	0.00126481
2353.37	0.00104481
2363.02	0.00078581
2372.66	0.00063651
2382.31	0.00052101
2391.95	0.00055861
2401.6	0.00064491
2411.24	0.00076411
2420.89	0.00082011
2430.53	0.00080711
2440.18	0.00084991
2449.82	0.00076431
2459.47	0.00087601
2469.11	0.00110481
2478.75	0.00125481
2488.4	0.00140481
2498.04	0.00151481
2507.69	0.00136481
2517.33	0.00140481
2526.98	0.00136481
2536.62	0.00142481
2546.27	0.00133481
2555.91	0.00122481
2565.56	0.00117481
2575.2	0.00104481
2584.85	0.00099421
2594.49	0.00105481
2604.14	0.00099161
2613.78	0.00102481
2623.43	0.00092221
2633.07	0.00091241
2642.72	0.00088621
2652.36	0.00080761
2662.01	0.00066791
2671.65	0.00066871
2681.29	0.00064001
2690.94	0.00092861
2700.58	0.00122481
2710.23	0.00142481
2719.87	0.00115481
2729.52	0.00107481
2739.16	0.00103481
2748.81	0.00106481
2758.45	0.00121481
2768.1	0.00121481
2777.74	0.00147481
2787.39	0.00183481
2797.03	0.00221481
2806.68	0.00293481
2816.32	0.00403481
2825.97	0.00670481
2835.61	0.0137648
2845.26	0.0207148
2854.9	0.0176748
2864.55	0.0100948
2874.19	0.00856481
2883.84	0.00932481
2893.48	0.0107448
2903.12	0.0128948
2912.77	0.0153848
2922.41	0.0173548
2932.06	0.0207948
2941.7	0.0302248
2951.35	0.0357748
2960.99	0.0333948
2970.64	0.0292648
2980.28	0.0254748
2989.93	0.0195548
2999.57	0.0211848
3009.22	0.0238348
3018.86	0.0201548
3028.51	0.0180948
3038.15	0.0189848
3047.8	0.0167048
3057.44	0.0163548
3067.09	0.0195948
3076.73	0.0231848
3086.38	0.0200848
3096.02	0.0114848
3105.67	0.00667481
3115.31	0.00480481
3124.95	0.00293481
3134.6	0.00195481
3144.24	0.00144481
3153.89	0.00130481
3163.53	0.00132481
3173.18	0.00128481
3182.82	0.00124481
3192.47	0.00086841
3202.11	0.00063691
3211.76	0.00045281
3221.4	0.00044011
3231.05	0.00043101
3240.69	0.00036691
3250.34	0.00031341
3259.98	0.00029481
3269.63	0.00031451
3279.27	0.00039241
3288.92	0.00035781
3298.56	0.00026951
3308.21	0.00036441
3317.85	0.00016821
3327.49	0.00021501
3337.14	0.00028151
3346.78	0.00024131
3356.43	0.00041851
3366.07	0.00024301
3375.72	0.00024181
3385.36	6.957e-05
3395.01	0.00036061
3404.65	0.00030341
3414.3	0.00018411
3423.94	0.00023681
3433.59	0.00010439
3443.23	0.00027911
3452.88	0.00023891
3462.52	0.00030421
3472.17	0.00032561
3481.81	0.00020541
3491.46	5.487e-05
3501.1	0.00031141
3510.75	0.00031771
3520.39	0.00029631
3530.04	0.00031471
3539.68	8.652e-05
3549.32	0.00034071
3558.97	0.00039001
3568.61	0.00041091
3578.26	0.00027521
3587.9	0.00041371
3597.55	0.00024891
3607.19	0.00016141
3616.84	0.00031151
3626.48	0.00033991
3636.13	0.00020471
3645.77	0.00016001
3655.42	0.00029331
3665.06	0.00029241
3674.71	0.00020691
3684.35	0.00035951
3694	0.00022451
3703.64	0.00017491
3713.29	0.00033361
3722.93	4.124e-05
3732.58	0.00025241
3742.22	0.00021261
3751.86	0.00018891
3761.51	0.00029551
3771.15	0.00043021
3780.8	0.00028191
3790.44	0.00026521
3800.09	0.00028181
3809.73	0.00032241
3819.38	0.00058051
3829.02	0.00030601
3838.67	0.00039311
3848.31	0.00046361
3857.96	0.00045481
3867.6	0.00066441
3877.25	0.00072581
3886.89	0.00047641
3896.54	0.00081221
3906.18	0.00078551
3915.83	0.00052021
3925.47	0.00045991
3935.12	0.00036881
3944.76	0.00047071
3954.41	0.00050721
3964.05	0.00040711
3973.69	0.00043051
3983.34	0.00056701
3992.98	0.00059611
