Infrared Spectrum: Tris(3,6-dioxaheptyl)amine
Formula: C 15 H 33 N O 6
CAS: 70384-51-9
State: gas
Origin: EPA-IR VAPOR PHASE LIBRARY
1/CM	ABSORBANCE
549.9	0.00908
559.547	0.00845
569.193	0.00758
578.84	0.00642
588.486	0.00537
598.133	0.0043075
607.779	0.003525
617.426	0.00264
627.072	0.00228
636.719	0.00186
646.365	0.00159
656.012	0.00139
665.658	0.00137
675.305	0.00131
684.951	0.00139
694.598	0.00142
704.245	0.00166
713.891	0.00181
723.538	0.00229
733.184	0.00279
742.831	0.003026
752.477	0.00358
762.124	0.0043603
771.77	0.0049
781.417	0.00553
791.063	0.00632
800.71	0.00725
810.356	0.00881
820.003	0.01131
829.649	0.01465
839.296	0.01804
848.943	0.01955
858.589	0.01713
868.236	0.01466
877.882	0.01406
887.529	0.01485
897.175	0.0169
906.822	0.02013
916.468	0.02394
926.115	0.0279
935.761	0.03047
945.408	0.03139
955.054	0.03269
964.701	0.03514
974.347	0.03777
983.994	0.0399
993.64	0.03942
1003.29	0.04001
1012.93	0.04603
1022.58	0.05519
1032.23	0.06081
1041.87	0.0643
1051.52	0.07674
1061.17	0.09784
1070.81	0.12024
1080.46	0.1423
1090.11	0.17827
1099.75	0.23659
1109.4	0.31625
1119.05	0.37449
1128.69	0.33828
1138.34	0.26007
1147.99	0.18177
1157.63	0.12119
1167.28	0.08838
1176.92	0.07477
1186.57	0.07245
1196.22	0.07565
1205.86	0.06531
1215.51	0.04437
1225.16	0.03505
1234.8	0.03451
1244.45	0.038
1254.1	0.03951
1263.74	0.03822
1273.39	0.03788
1283.04	0.03904
1292.68	0.03965
1302.33	0.03774
1311.98	0.03515
1321.62	0.036
1331.27	0.03896
1340.92	0.04351
1350.56	0.05521
1360.21	0.0522
1369.86	0.03664
1379.5	0.02514
1389.15	0.01913
1398.79	0.01534
1408.44	0.01326
1418.09	0.01303
1427.73	0.01546
1437.38	0.02173
1447.03	0.03293
1456.67	0.04469
1466.32	0.04198
1475.97	0.03041
1485.61	0.01884
1495.26	0.01161
1504.91	0.00811
1514.55	0.00643
1524.2	0.00545
1533.85	0.0048193
1543.49	0.0043298
1553.14	0.0039933
1562.79	0.003709
1572.43	0.003477
1582.08	0.003286
1591.73	0.003067
1601.37	0.002968
1611.02	0.00289
1620.67	0.00273
1630.31	0.00273
1639.96	0.00271
1649.6	0.00268
1659.25	0.00267
1668.9	0.00254
1678.54	0.00249
1688.19	0.00238
1697.84	0.00225
1707.48	0.00223
1717.13	0.00206
1726.78	0.00196
1736.42	0.00187
1746.07	0.00187
1755.72	0.00181
1765.36	0.00176
1775.01	0.00169
1784.66	0.00162
1794.3	0.00161
1803.95	0.00171
1813.6	0.00164
1823.24	0.00177
1832.89	0.0018
1842.54	0.00183
1852.18	0.00192
1861.83	0.00196
1871.47	0.00208
1881.12	0.00228
1890.77	0.00247
1900.41	0.00279
1910.06	0.00321
1919.71	0.003639
1929.35	0.0040688
1939	0.0044563
1948.65	0.0047502
1958.29	0.00495
1967.94	0.00508
1977.59	0.00507
1987.23	0.00495
1996.88	0.0046571
2006.53	0.0044306
2016.17	0.0043319
2025.82	0.0043547
2035.47	0.0043889
2045.11	0.0043799
2054.76	0.0044312
2064.41	0.0044382
2074.05	0.0045592
2083.7	0.0046113
2093.35	0.0045431
2102.99	0.0043719
2112.64	0.0042086
2122.28	0.0041081
2131.93	0.0039706
2141.58	0.003737
2151.22	0.003479
2160.87	0.003169
2170.52	0.002979
2180.16	0.00277
2189.81	0.00262
2199.46	0.00258
2209.1	0.00254
2218.75	0.00252
2228.4	0.00254
2238.04	0.00257
2247.69	0.00251
2257.34	0.00245
2266.98	0.00242
2276.63	0.00233
2286.28	0.00222
2295.92	0.00218
2305.57	0.00216
2315.22	0.00213
2324.86	0.00206
2334.51	0.00206
2344.16	0.00212
2353.8	0.00201
2363.45	0.00202
2373.09	0.00209
2382.74	0.00212
2392.39	0.0022
2402.03	0.00219
2411.68	0.0021
2421.33	0.00202
2430.97	0.00198
2440.62	0.00197
2450.27	0.00191
2459.91	0.00197
2469.56	0.00202
2479.21	0.00207
2488.85	0.00221
2498.5	0.00223
2508.15	0.00233
2517.79	0.00245
2527.44	0.00257
2537.09	0.00268
2546.73	0.00281
2556.38	0.003009
2566.03	0.003226
2575.67	0.003508
2585.32	0.0038175
2594.96	0.0041719
2604.61	0.0044875
2614.26	0.0047059
2623.9	0.00502
2633.55	0.00539
2643.2	0.00577
2652.84	0.0063
2662.49	0.00702
2672.14	0.00816
2681.78	0.00971
2691.43	0.01171
2701.08	0.01411
2710.72	0.01681
2720.37	0.01869
2730.02	0.01965
2739.66	0.02035
2749.31	0.02171
2758.96	0.0243
2768.6	0.02833
2778.25	0.03425
2787.9	0.04332
2797.54	0.05718
2807.19	0.07663
2816.84	0.10525
2826.48	0.13246
2836.13	0.13783
2845.77	0.15133
2855.42	0.18307
2865.07	0.20665
2874.71	0.21334
2884.36	0.21191
2894.01	0.19793
2903.65	0.18391
2913.3	0.17418
2922.95	0.17303
2932.59	0.17671
2942.24	0.16848
2951.89	0.14942
2961.53	0.12341
2971.18	0.09031
2980.83	0.07402
2990.47	0.07046
3000.12	0.04781
3009.77	0.02789
3019.41	0.0184
3029.06	0.01369
3038.71	0.01087
3048.35	0.00896
3058	0.00775
3067.64	0.0065
3077.29	0.00548
3086.94	0.0047704
3096.58	0.00393795
3106.23	0.003304
3115.88	0.00256
3125.52	0.00203
3135.17	0.00176
3144.82	0.00147
3154.46	0.00114
3164.11	0.00095
3173.76	0.0008
3183.4	0.00071
3193.05	0.00046
3202.7	0.00055
3212.34	0.00046
3221.99	0.00043
3231.64	0.00011
3241.28	0.00027
3250.93	0.00027
3260.58	0.0001
3270.22	0.00014
3279.87	0.00012
3289.52	1e-05
3299.16	0.0001
3308.81	0.00023
3318.45	0.00013
3328.1	0.0001
3337.75	0.00024
3347.39	1e-05
3357.04	0.0001
3366.69	0.00027
3376.33	0.00033
3385.98	0.00013
3395.63	0.0003
3405.27	0.00042
3414.92	0.0003
3424.57	0.00032
3434.21	0.00043
3443.86	0.00029
3453.51	0.00044
3463.15	0.0004
3472.8	0.00019
3482.45	0.00026
3492.09	0.00022
3501.74	0.00027
3511.39	0.00033
3521.03	0.0002
3530.68	0.00024
3540.33	0.00021
3549.97	0.00027
3559.62	0.00039
3569.26	0.00034
3578.91	0.00023
3588.56	0.00033
3598.2	0.00025
3607.85	0.00033
3617.5	0.00054
3627.14	0.00048
3636.79	0.00049
3646.44	0.00059
3656.08	0.00057
3665.73	0.00066
3675.38	0.00074
3685.02	0.00076
3694.67	0.00081
3704.32	0.00083
3713.96	0.00098
3723.61	0.00103
3733.26	0.00102
3742.9	0.00096
3752.55	0.00097
3762.2	0.00106
3771.84	0.00114
3781.49	0.00104
3791.13	0.00104
3800.78	0.00099
3810.43	0.00119
3820.07	0.00119
3829.72	0.00119
3839.37	0.00139
3849.01	0.00136
3858.66	0.00155
3868.31	0.00147
3877.95	0.00159
3887.6	0.00176
3897.25	0.00179
3906.89	0.0019
3916.54	0.00212
3926.19	0.00217
3935.83	0.00229
3945.48	0.00237
3955.13	0.00252
3964.77	0.00277
3974.42	0.00279
3984.07	0.00283
3993.71	0.002996
