Infrared Spectrum: 1,3-Diisopropylcyclohexane
Formula: C 12 H 24
CAS: 7045-70-7
State: gas
Origin: EPA-IR VAPOR PHASE LIBRARY
1/CM	ABSORBANCE
501.5	0
513.074	0.00039455
524.648	0.0003259
536.222	0.0003248
547.796	0.0003717
559.37	0.0002447
570.944	0.000466
582.518	0.0005287
594.092	0.000235
605.666	0.000215
617.24	0.000235
628.814	0.000146
640.388	0.000186
651.962	0.000121
663.536	0.000167
675.11	0.000178
686.684	0.0002698
698.258	0.000231
709.832	0.0002479
721.406	0.0002717
732.98	0.000212
744.554	0.0002562
756.128	0.0002742
767.702	0.000398
779.276	0.0005009
790.85	0.0007279
802.423	0.00043385
813.997	0.00032868
825.571	0.00040711
837.145	0.0005922
848.719	0.0012342
860.293	0.001367
871.867	0.0010889
883.441	0.0008514
895.015	0.0006997
906.589	0.0007355
918.163	0.0011967
929.737	0.0012603
941.311	0.0008451
952.885	0.0007638
964.459	0.0006651
976.033	0.0005872
987.607	0.0006223
999.181	0.0006884
1010.76	0.0006517
1022.33	0.0006953
1033.9	0.0006312
1045.48	0.0006438
1057.05	0.0007869
1068.63	0.0009516
1080.2	0.0011419
1091.77	0.0009943
1103.35	0.0007481
1114.92	0.0006822
1126.49	0.000758
1138.07	0.0007852
1149.64	0.001567
1161.22	0.003237
1172.79	0.003567
1184.36	0.002067
1195.94	0.0012889
1207.51	0.001367
1219.09	0.001427
1230.66	0.001847
1242.23	0.002087
1253.81	0.002137
1265.38	0.002367
1276.96	0.002737
1288.53	0.002587
1300.1	0.002557
1311.68	0.002477
1323.25	0.002857
1334.83	0.003017
1346.4	0.002917
1357.97	0.004647
1369.55	0.009647
1381.12	0.010807
1392.7	0.008467
1404.27	0.003107
1415.84	0.002147
1427.42	0.002377
1438.99	0.004457
1450.57	0.008207
1462.14	0.009807
1473.71	0.008957
1485.29	0.004527
1496.86	0.002037
1508.44	0.0012661
1520.01	0.0009531
1531.58	0.0007112
1543.16	0.0005623
1554.73	0.0005233
1566.31	0.0005467
1577.88	0.0005443
1589.45	0.000567
1601.03	0.000594
1612.6	0.0005664
1624.18	0.0005156
1635.75	0.0005195
1647.32	0.000512
1658.9	0.000527
1670.47	0.0005187
1682.05	0.000518
1693.62	0.0004904
1705.19	0.0004759
1716.77	0.0004582
1728.34	0.00041659
1739.92	0.0004152
1751.49	0.0003803
1763.06	0.00042103
1774.64	0.00037472
1786.21	0.00039649
1797.79	0.00038261
1809.36	0.00039099
1820.93	0.000341148
1832.51	0.00035709
1844.08	0.00035204
1855.66	0.00038258
1867.23	0.00035299
1878.8	0.0003686
1890.38	0.00035805
1901.95	0.000342264
1913.53	0.00036144
1925.1	0.000339014
1936.67	0.000339839
1948.25	0.00034749
1959.82	0.00036019
1971.4	0.00033063
1982.97	0.0003191
1994.54	0.0003333
2006.12	0.0003221
2017.69	0.0003207
2029.27	0.0002944
2040.84	0.0002981
2052.41	0.0003155
2063.99	0.0002947
2075.56	0.0003118
2087.14	0.0003197
2098.71	0.0003334
2110.28	0.0003027
2121.86	0.0003248
2133.43	0.00036202
2145.01	0.00037178
2156.58	0.0003972
2168.15	0.00039902
2179.73	0.00040347
2191.3	0.0004223
2202.88	0.0004417
2214.45	0.0004596
2226.02	0.0004718
2237.6	0.0004483
2249.17	0.00042077
2260.74	0.0004285
2272.32	0.00042153
2283.89	0.00039828
2295.47	0.00041773
2307.04	0.0004599
2318.61	0.00039971
2330.19	0.0004434
2341.76	0.00041125
2353.34	0.0004837
2364.91	0.0005036
2376.48	0.0005729
2388.06	0.0006207
2399.63	0.0006102
2411.21	0.0006213
2422.78	0.0006288
2434.35	0.0006092
2445.93	0.0005527
2457.5	0.0005374
2469.08	0.0005051
2480.65	0.000528
2492.22	0.0005543
2503.8	0.0005569
2515.37	0.0005786
2526.95	0.0006187
2538.52	0.000686
2550.09	0.0007484
2561.67	0.0009257
2573.24	0.0009895
2584.82	0.0011236
2596.39	0.0013015
2607.96	0.001427
2619.54	0.001437
2631.11	0.001477
2642.69	0.001477
2654.26	0.001547
2665.83	0.001547
2677.41	0.001677
2688.98	0.001597
2700.56	0.001597
2712.13	0.001667
2723.7	0.001907
2735.28	0.002167
2746.85	0.002017
2758.43	0.001907
2770	0.002057
2781.57	0.002347
2793.15	0.002787
2804.72	0.003377
2816.3	0.004177
2827.87	0.005557
2839.44	0.009697
2851.02	0.024797
2862.59	0.041607
2874.17	0.044147
2885.74	0.042237
2897.31	0.032847
2908.89	0.039667
2920.46	0.065337
2932.04	0.086407
2943.61	0.076807
2955.18	0.072657
2966.76	0.081457
2978.33	0.044197
2989.91	0.016757
3001.48	0.006767
3013.05	0.004497
3024.63	0.003697
3036.2	0.002937
3047.78	0.002407
3059.35	0.002157
3070.92	0.002027
3082.5	0.001867
3094.07	0.001767
3105.65	0.001587
3117.22	0.001427
3128.79	0.001407
3140.37	0.001357
3151.94	0.001357
3163.52	0.001397
3175.09	0.001407
3186.66	0.001397
3198.24	0.0012581
3209.81	0.0010472
3221.39	0.0008787
3232.96	0.0006774
3244.53	0.0006049
3256.11	0.0005385
3267.68	0.0005213
3279.26	0.0005281
3290.83	0.0005065
3302.4	0.0005061
3313.98	0.0005162
3325.55	0.0004928
3337.13	0.0004409
3348.7	0.0004912
3360.27	0.00047
3371.85	0.0005448
3383.42	0.0005274
3395	0.0005633
3406.57	0.0004998
3418.14	0.0004724
3429.72	0.0005278
3441.29	0.0004495
3452.86	0.00041887
3464.44	0.0004602
3476.01	0.0004768
3487.59	0.0004478
3499.16	0.0003135
3510.73	0.00036605
3522.31	0.00036344
3533.88	0.0004582
3545.46	0.00035051
3557.03	0.0004204
3568.6	0.000339785
3580.18	0.00040318
3591.75	0.00035742
3603.33	0.0003003
3614.9	0.0003149
3626.47	0.00034713
3638.05	0.00042896
3649.62	0.00040381
3661.2	0.0004501
3672.77	0.00034913
3684.34	0.0004457
3695.92	0.000447
3707.49	0.00040669
3719.07	0.0004595
3730.64	0.00041447
3742.21	0.00038559
3753.79	0.0004584
3765.36	0.0005775
3776.94	0.0005366
3788.51	0.0005784
3800.08	0.0006066
3811.66	0.0004962
3823.23	0.000489
3834.81	0.0005489
3846.38	0.0005513
3857.95	0.0004654
3869.53	0.0005476
3881.1	0.0005373
3892.68	0.0004439
3904.25	0.00042689
3915.82	0.0005088
3927.4	0.0004555
3938.97	0.0005204
3950.55	0.0005107
3962.12	0.00043157
3973.69	0.0005093
3985.27	0.0005077
3996.84	0.0005173
