Infrared Spectrum: .alpha.-Chloroisovaleronitrile
Formula: C 5 H 8 Cl N
CAS: 70477-21-3
State: gas
Origin: EPA-IR VAPOR PHASE LIBRARY
1/CM	ABSORBANCE
549.8	0.001813
559.445	0.0016523
569.09	0.0008854
578.734	0.0007112
588.379	0.000364
598.024	0.0014202
607.669	0.0008816
617.313	0.0011378
626.958	0.0013203
636.603	0.0016767
646.248	0.0016899
655.893	0.0015274
665.537	0.002003
675.182	0.001943
684.827	0.001833
694.472	0.001823
704.116	0.004013
713.761	0.006783
723.406	0.010813
733.051	0.015323
742.695	0.019563
752.34	0.021663
761.985	0.015003
771.63	0.004863
781.275	0.003393
790.919	0.004783
800.564	0.011333
810.209	0.020033
819.854	0.023383
829.498	0.019693
839.143	0.011313
848.788	0.007463
858.433	0.004103
868.078	0.002843
877.722	0.003863
887.367	0.007913
897.012	0.014733
906.657	0.019123
916.301	0.017253
925.946	0.010723
935.591	0.007693
945.236	0.007933
954.88	0.009563
964.525	0.009983
974.17	0.009783
983.815	0.008693
993.46	0.006433
1003.1	0.004013
1012.75	0.003573
1022.39	0.0016256
1032.04	0.001863
1041.68	0.00080071
1051.33	0.0012303
1060.97	0.0012288
1070.62	0.002463
1080.26	0.004353
1089.91	0.004203
1099.55	0.003563
1109.2	0.004053
1118.84	0.003933
1128.49	0.004363
1138.13	0.003413
1147.78	0.002923
1157.42	0.004293
1167.07	0.004463
1176.71	0.004243
1186.36	0.004763
1196	0.004153
1205.64	0.008773
1215.29	0.012283
1224.93	0.013803
1234.58	0.008163
1244.22	0.003893
1253.87	0.003863
1263.51	0.005483
1273.16	0.005903
1282.8	0.004533
1292.45	0.003683
1302.09	0.003693
1311.74	0.005473
1321.38	0.007093
1331.03	0.007323
1340.67	0.006993
1350.32	0.006063
1359.96	0.006773
1369.61	0.009813
1379.25	0.016813
1388.9	0.017773
1398.54	0.017223
1408.18	0.010243
1417.83	0.004883
1427.47	0.003903
1437.12	0.005763
1446.76	0.010273
1456.41	0.016863
1466.05	0.020913
1475.7	0.019843
1485.34	0.012353
1494.99	0.005833
1504.63	0.003293
1514.28	0.002393
1523.92	0.002593
1533.57	0.002263
1543.21	0.002043
1552.86	0.001755
1562.5	0.0016858
1572.15	0.0017333
1581.79	0.0014844
1591.44	0.0014487
1601.08	0.0014893
1610.73	0.0017469
1620.37	0.001783
1630.01	0.0015986
1639.66	0.0015636
1649.3	0.0017298
1658.95	0.0015801
1668.59	0.0014775
1678.24	0.0015002
1687.88	0.001228
1697.53	0.0016733
1707.17	0.0012674
1716.82	0.0013937
1726.46	0.0010306
1736.11	0.0013912
1745.75	0.0010702
1755.4	0.0010994
1765.04	0.0011177
1774.69	0.0009994
1784.33	0.0011821
1793.98	0.0010852
1803.62	0.0012116
1813.27	0.0009832
1822.91	0.0012693
1832.55	0.0009573
1842.2	0.0011111
1851.84	0.0010347
1861.49	0.0009619
1871.13	0.0011208
1880.78	0.000986
1890.42	0.0011964
1900.07	0.001132
1909.71	0.0011927
1919.36	0.0011351
1929	0.001152
1938.65	0.0012236
1948.29	0.001175
1957.94	0.0011709
1967.58	0.000934
1977.23	0.0010858
1986.87	0.0011421
1996.52	0.0009702
2006.16	0.0008187
2015.81	0.000933
2025.45	0.0011474
2035.1	0.0011904
2044.74	0.0012414
2054.38	0.0010453
2064.03	0.0011487
2073.67	0.0012035
2083.32	0.0011916
2092.96	0.0012063
2102.61	0.0013132
2112.25	0.0010737
2121.9	0.0010316
2131.54	0.0011228
2141.19	0.0013408
2150.83	0.0013095
2160.48	0.0011394
2170.12	0.0012044
2179.77	0.0011214
2189.41	0.0012553
2199.06	0.0012159
2208.7	0.0012505
2218.35	0.0014616
2227.99	0.001843
2237.64	0.002073
2247.28	0.001823
2256.92	0.0014588
2266.57	0.0013493
2276.21	0.0011624
2285.86	0.0010471
2295.5	0.0013835
2305.15	0.0013411
2314.79	0.0013653
2324.44	0.0014888
2334.08	0.0013316
2343.73	0.0012995
2353.37	0.0012104
2363.02	0.0011846
2372.66	0.0016123
2382.31	0.001527
2391.95	0.0016912
2401.6	0.001953
2411.24	0.0013645
2420.89	0.001853
2430.53	0.0017314
2440.18	0.001883
2449.82	0.0015389
2459.47	0.0016493
2469.11	0.0014793
2478.75	0.002013
2488.4	0.0015969
2498.04	0.0017027
2507.69	0.0015954
2517.33	0.0013733
2526.98	0.0012857
2536.62	0.0016241
2546.27	0.0016788
2555.91	0.00159
2565.56	0.0014346
2575.2	0.0014647
2584.85	0.0012984
2594.49	0.0017499
2604.14	0.0017233
2613.78	0.0013182
2623.43	0.001863
2633.07	0.0015415
2642.72	0.0014589
2652.36	0.0014826
2662.01	0.0013115
2671.65	0.001266
2681.29	0.0011907
2690.94	0.0014952
2700.58	0.0013265
2710.23	0.0014541
2719.87	0.001853
2729.52	0.0015838
2739.16	0.002213
2748.81	0.002453
2758.45	0.002433
2768.1	0.002423
2777.74	0.002133
2787.39	0.002223
2797.03	0.002493
2806.68	0.002213
2816.32	0.003063
2825.97	0.002963
2835.61	0.003643
2845.26	0.004253
2854.9	0.004613
2864.55	0.006683
2874.19	0.012803
2883.84	0.019873
2893.48	0.023203
2903.12	0.020963
2912.77	0.019503
2922.41	0.022493
2932.06	0.028813
2941.7	0.034833
2951.35	0.036243
2960.99	0.043233
2970.64	0.065653
2980.28	0.080123
2989.93	0.066973
2999.57	0.033573
3009.22	0.011113
3018.86	0.005223
3028.51	0.003883
3038.15	0.003643
3047.8	0.003493
3057.44	0.003413
3067.09	0.003343
3076.73	0.003143
3086.38	0.002633
3096.02	0.002443
3105.67	0.002923
3115.31	0.003083
3124.95	0.002983
3134.6	0.002823
3144.24	0.002523
3153.89	0.002683
3163.53	0.002933
3173.18	0.002743
3182.82	0.002413
3192.47	0.002583
3202.11	0.002483
3211.76	0.002273
3221.4	0.001883
3231.05	0.0014728
3240.69	0.0008851
3250.34	0.0009296
3259.98	0.0014117
3269.63	0.0009463
3279.27	0.0012523
3288.92	0.0012868
3298.56	0.0011707
3308.21	0.000912
3317.85	0.0011453
3327.49	0.0015033
3337.14	0.001463
3346.78	0.001716
3356.43	0.0009622
3366.07	0.0012391
3375.72	0.0013763
3385.36	0.00026
3395.01	0.0009746
3404.65	0.0009209
3414.3	0.000504
3423.94	0.000533
3433.59	0.0010108
3443.23	0.0007272
3452.88	0.0013046
3462.52	0.00080429
3472.17	0.00084431
3481.81	0.0009122
3491.46	0.001051
3501.1	0
3510.75	0.0012524
3520.39	0.0014828
3530.04	0.0016573
3539.68	0.000611
3549.32	0.0009816
3558.97	0.0008336
3568.61	0.00083087
3578.26	0.000624
3587.9	0.000566
3597.55	0.00112
3607.19	0.001044
3616.84	0.000339
3626.48	0.0009028
3636.13	0.0016067
3645.77	0.001575
3655.42	0.0012152
3665.06	0.000662
3674.71	0.0012804
3684.35	0.0014842
3694	0.0010303
3703.64	0.0011323
3713.29	0.0014884
3722.93	0.0010367
3732.58	0.0007354
3742.22	0.001405
3751.86	0.0009001
3761.51	0.0011883
3771.15	0.0009777
3780.8	0.00084085
3790.44	0.001793
3800.09	0.0013141
3809.73	0.0013834
3819.38	0.0015365
3829.02	0.0013369
3838.67	0.0013096
3848.31	0.0012874
3857.96	0.0010993
3867.6	0.0015024
3877.25	0.00151
3886.89	0.0011011
3896.54	0.000325
3906.18	0.00078416
3915.83	0.0010305
3925.47	0.0010139
3935.12	0.000709
3944.76	0.001138
3954.41	0.001208
3964.05	0.00078219
3973.69	0.0014241
3983.34	0.0011938
3992.98	0.0010052
