Infrared Spectrum: CYSTEINE HYDRAZIDE
Formula: C3 H9 N3 S O
CAS: 70470-68-7
State: SOLID (MINERAL OIL MULL)
Melting point: 101-102 C
Class: COBLENTZ
Instrument: Not specified, most likely a prism, grating, or hybrid spectrometer.
Sampling: TRANSMISSION
Resolution: 4
Origin: ARTHUR D. LITTLE, INC.
MICROMETERS	TRANSMITTANCE
2.008	0.596
2.042	0.596
2.07599	0.597
2.10999	0.613
2.14398	0.618
2.17798	0.623
2.21197	0.634
2.24597	0.648
2.27996	0.668
2.31396	0.673
2.34796	0.682
2.38195	0.697
2.41595	0.707
2.44994	0.718
2.48394	0.724
2.51793	0.741
2.55193	0.755
2.58592	0.77
2.61992	0.787
2.65392	0.798
2.68791	0.817
2.72191	0.824
2.7559	0.829
2.7899	0.836
2.82389	0.849
2.85789	0.86
2.89188	0.872
2.92588	0.877
2.95988	0.879
2.99387	0.864
3.02787	0.749
3.06186	0.49
3.09586	0.278
3.12985	0.27
3.16385	0.324
3.19784	0.393
3.23184	0.402
3.26584	0.381
3.29983	0.374
3.33383	0.34
3.36782	0.337
3.40182	0.305
3.43581	0.213
3.46981	0.171
3.5038	0.165
3.5378	0.167
3.5718	0.171
3.60579	0.177
3.63979	0.182
3.67378	0.192
3.70778	0.194
3.74177	0.195
3.77577	0.205
3.80976	0.21
3.84376	0.206
3.87776	0.206
3.91175	0.209
3.94575	0.216
3.97974	0.24
4.01374	0.27
4.04773	0.284
4.08173	0.313
4.11572	0.348
4.14972	0.389
4.18372	0.45
4.21771	0.503
4.25171	0.513
4.2857	0.517
4.3197	0.531
4.35369	0.576
4.38769	0.631
4.42168	0.687
4.45568	0.713
4.48968	0.728
4.52367	0.736
4.55767	0.751
4.59166	0.774
4.62566	0.779
4.65965	0.781
4.69365	0.786
4.72764	0.78
4.76164	0.762
4.79564	0.739
4.82963	0.7
4.86363	0.687
4.89762	0.699
4.93162	0.715
4.96561	0.734
4.99961	0.748
5.0336	0.781
5.0676	0.8
5.1016	0.811
5.13559	0.819
5.16959	0.831
5.20358	0.853
5.23758	0.873
5.27157	0.89
5.30557	0.909
5.33956	0.921
5.37356	0.926
5.40755	0.938
5.44155	0.95
5.47555	0.956
5.50954	0.973
5.54354	0.974
5.57753	0.967
5.61153	0.952
5.64552	0.939
5.67952	0.938
5.71351	0.936
5.74751	0.924
5.78151	0.902
5.8155	0.835
5.8495	0.772
5.88349	0.635
5.91749	0.496
5.95148	0.327
5.98548	0.226
6.01947	0.187
6.05347	0.218
6.08747	0.324
6.12146	0.436
6.15546	0.53
6.18945	0.517
6.22345	0.462
6.25744	0.368
6.29144	0.267
6.32543	0.196
6.35943	0.272
6.39343	0.392
6.42742	0.427
6.46142	0.49
6.49541	0.475
6.52941	0.268
6.5634	0.239
6.5974	0.22
6.63139	0.208
6.66539	0.315
6.69939	0.386
6.73338	0.414
6.76738	0.433
6.80137	0.437
6.83537	0.436
6.86936	0.454
6.90336	0.507
6.93735	0.575
6.97135	0.614
7.00535	0.599
7.03934	0.652
7.07334	0.67
7.10733	0.659
7.14133	0.597
7.17532	0.53
7.20932	0.452
7.24331	0.441
7.27731	0.482
7.31131	0.59
7.3453	0.63
7.3793	0.696
7.41329	0.72
7.44729	0.753
7.48128	0.766
7.51528	0.773
7.54927	0.762
7.58327	0.585
7.61727	0.438
7.65126	0.426
7.68526	0.445
7.71925	0.582
7.75325	0.621
7.78724	0.517
7.82124	0.353
7.85523	0.555
7.88923	0.689
7.92323	0.78
7.95722	0.803
7.99122	0.808
8.02521	0.718
8.05921	0.661
8.0932	0.765
8.1272	0.819
8.16119	0.829
8.19519	0.831
8.22919	0.776
8.26318	0.7
8.29718	0.814
8.33117	0.863
8.36517	0.884
8.39916	0.897
8.43316	0.905
8.46715	0.911
8.50115	0.915
8.53515	0.917
8.56914	0.914
8.60314	0.887
8.63713	0.804
8.67113	0.652
8.70512	0.623
8.73912	0.697
8.77311	0.78
8.80711	0.801
8.84111	0.794
8.8751	0.797
8.9091	0.811
8.94309	0.829
8.97709	0.87
9.01108	0.912
9.04508	0.929
9.07907	0.942
9.11307	0.94
9.14707	0.893
9.18106	0.777
9.21506	0.767
9.24905	0.849
9.28305	0.897
9.31704	0.924
9.35104	0.933
9.38503	0.935
9.41903	0.931
9.45303	0.891
9.48702	0.883
9.52102	0.902
9.55501	0.921
9.58901	0.931
9.623	0.939
9.657	0.946
9.69099	0.952
9.72499	0.954
9.75899	0.956
9.79298	0.956
9.82698	0.956
9.86097	0.954
9.89497	0.95
9.92896	0.943
9.96296	0.928
9.99695	0.905
10.0309	0.88
10.0649	0.834
10.0989	0.762
10.1329	0.652
10.1669	0.523
10.2009	0.441
10.2349	0.417
10.2689	0.454
10.3029	0.586
10.3369	0.699
10.3709	0.773
10.4049	0.821
10.4389	0.836
10.4729	0.849
10.5069	0.849
10.5409	0.831
10.5749	0.767
10.6089	0.654
10.6429	0.53
10.6769	0.416
10.7109	0.383
10.7449	0.409
10.7789	0.499
10.8128	0.618
10.8468	0.699
10.8808	0.748
10.9148	0.801
10.9488	0.831
10.9828	0.856
11.0168	0.874
11.0508	0.89
11.0848	0.9
11.1188	0.909
11.1528	0.918
11.1868	0.926
11.2208	0.936
11.2548	0.942
11.2888	0.949
11.3228	0.96
11.3568	0.967
11.3908	0.97
11.4248	0.971
11.4588	0.974
11.4928	0.978
11.5268	0.985
11.5607	0.991
11.5947	0.992
11.6287	0.992
11.6627	0.994
11.6967	0.995
11.7307	0.997
11.7647	0.997
11.7987	0.995
11.8327	0.994
11.8667	0.991
11.9007	0.949
11.9347	0.911
11.9687	0.915
12.0027	0.922
12.0367	0.922
12.0707	0.924
12.1047	0.924
12.1387	0.922
12.1727	0.912
12.2067	0.872
12.2407	0.791
12.2747	0.661
12.3087	0.631
12.3426	0.661
12.3766	0.715
12.4106	0.796
12.4446	0.845
12.4786	0.872
12.5126	0.902
12.5466	0.922
12.5806	0.935
12.6146	0.95
12.6486	0.952
12.6826	0.956
12.7166	0.959
12.7506	0.962
12.7846	0.962
12.8186	0.96
12.8526	0.954
12.8866	0.947
12.9206	0.94
12.9546	0.931
12.9886	0.907
13.0226	0.884
13.0566	0.856
13.0905	0.832
13.1245	0.793
13.1585	0.738
13.1925	0.703
13.2265	0.631
13.2605	0.568
13.2945	0.497
13.3285	0.452
13.3625	0.431
13.3965	0.423
13.4305	0.426
13.4645	0.441
13.4985	0.473
13.5325	0.53
13.5665	0.582
13.6005	0.618
13.6345	0.661
13.6685	0.707
13.7025	0.738
13.7365	0.765
13.7705	0.794
13.8045	0.812
13.8385	0.825
13.8724	0.841
13.9064	0.855
13.9404	0.867
13.9744	0.881
14.0084	0.89
14.0424	0.891
14.0764	0.893
14.1104	0.891
14.1444	0.881
14.1784	0.872
14.2124	0.864
14.2464	0.87
14.2804	0.886
14.3144	0.908
14.3484	0.919
14.3824	0.926
14.4164	0.932
14.4504	0.933
14.4844	0.938
14.5184	0.94
14.5524	0.942
14.5864	0.94
14.6203	0.94
14.6543	0.935
14.6883	0.933
14.7223	0.928
14.7563	0.921
14.7903	0.908
14.8243	0.898
14.8583	0.886
14.8923	0.873
14.9263	0.856
14.9603	0.839
14.9943	0.831
