Infrared Spectrum: 5-HYDROXY DECANOIC ACID, LACTONE
Formula: C10 H18 O2
CAS: 705-86-2
State: LIQUID
Class: COBLENTZ
Instrument: Not specified, most likely a prism, grating, or hybrid spectrometer.
Sampling: TRANSMISSION
Path length: 0.0025 CM
Resolution: 4
Origin: INFRACORD
MICROMETERS	TRANSMITTANCE
2.53	0.837
2.56546	0.838
2.60092	0.841
2.63638	0.841
2.67184	0.844
2.7073	0.841
2.74276	0.833
2.77822	0.817
2.81368	0.78
2.84914	0.733
2.8846	0.717
2.92006	0.724
2.95552	0.753
2.99098	0.765
3.02644	0.763
3.0619	0.753
3.09735	0.743
3.13281	0.731
3.16827	0.728
3.20373	0.73
3.23919	0.73
3.27465	0.722
3.31011	0.699
3.34557	0.584
3.38103	0.272
3.41649	0.066
3.45195	0.115
3.48741	0.182
3.52287	0.302
3.55833	0.607
3.59379	0.73
3.62925	0.78
3.66471	0.794
3.70017	0.799
3.73563	0.809
3.77109	0.809
3.80655	0.818
3.84201	0.829
3.87747	0.836
3.91293	0.849
3.94839	0.855
3.98385	0.86
4.01931	0.863
4.05477	0.865
4.09023	0.875
4.12569	0.883
4.16115	0.88
4.19661	0.88
4.23206	0.88
4.26752	0.882
4.30298	0.882
4.33844	0.892
4.3739	0.896
4.40936	0.889
4.44482	0.894
4.48028	0.902
4.51574	0.903
4.5512	0.906
4.58666	0.906
4.62212	0.911
4.65758	0.911
4.69304	0.912
4.7285	0.914
4.76396	0.909
4.79942	0.911
4.83488	0.912
4.87034	0.911
4.9058	0.911
4.94126	0.912
4.97672	0.913
5.01218	0.912
5.04764	0.909
5.0831	0.909
5.11856	0.908
5.15402	0.911
5.18948	0.911
5.22494	0.911
5.2604	0.911
5.29586	0.909
5.33132	0.906
5.36677	0.9
5.40223	0.89
5.43769	0.884
5.47315	0.876
5.50861	0.858
5.54407	0.814
5.57953	0.774
5.61499	0.725
5.65045	0.604
5.68591	0.482
5.72137	0.158
5.75683	0.06
5.79229	0.039
5.82775	0.043
5.86321	0.069
5.89867	0.2
5.93413	0.34
5.96959	0.455
6.00505	0.637
6.04051	0.724
6.07597	0.767
6.11143	0.814
6.14689	0.823
6.18235	0.839
6.21781	0.844
6.25327	0.849
6.28873	0.864
6.32419	0.875
6.35965	0.879
6.39511	0.881
6.43057	0.883
6.46603	0.883
6.50148	0.884
6.53694	0.884
6.5724	0.882
6.60786	0.876
6.64332	0.864
6.67878	0.856
6.71424	0.845
6.7497	0.82
6.78516	0.781
6.82062	0.586
6.85608	0.321
6.89154	0.291
6.927	0.373
6.96246	0.427
6.99792	0.473
7.03338	0.571
7.06884	0.597
7.1043	0.603
7.13976	0.646
7.17522	0.608
7.21068	0.504
7.24614	0.376
7.2816	0.33
7.31706	0.338
7.35252	0.379
7.38798	0.418
7.42344	0.444
7.4589	0.39
7.49436	0.361
7.52982	0.383
7.56528	0.404
7.60074	0.474
7.63619	0.51
7.67165	0.517
7.70711	0.508
7.74257	0.502
7.77803	0.493
7.81349	0.47
7.84895	0.437
7.88441	0.379
7.91987	0.31
7.95533	0.205
7.99079	0.128
8.02625	0.078
8.06171	0.067
8.09717	0.06
8.13263	0.075
8.16809	0.129
8.20355	0.231
8.23901	0.294
8.27447	0.315
8.30993	0.315
8.34539	0.308
8.38085	0.257
8.41631	0.194
8.45177	0.174
8.48723	0.173
8.52269	0.176
8.55815	0.166
8.59361	0.155
8.62907	0.158
8.66453	0.226
8.69999	0.301
8.73545	0.418
8.7709	0.453
8.80636	0.45
8.84182	0.422
8.87728	0.416
8.91274	0.403
8.9482	0.367
8.98366	0.362
9.01912	0.436
9.05458	0.488
9.09004	0.498
9.1255	0.466
9.16096	0.444
9.19642	0.422
9.23188	0.432
9.26734	0.413
9.3028	0.362
9.33826	0.344
9.37372	0.334
9.40918	0.327
9.44464	0.302
9.4801	0.257
9.51556	0.194
9.55102	0.218
9.58648	0.257
9.62194	0.227
9.6574	0.19
9.69286	0.198
9.72832	0.262
9.76378	0.336
9.79924	0.436
9.8347	0.517
9.87016	0.599
9.90561	0.625
9.94107	0.629
9.97653	0.633
10.012	0.627
10.0475	0.631
10.0829	0.633
10.1184	0.626
10.1538	0.616
10.1893	0.602
10.2248	0.597
10.2602	0.601
10.2957	0.613
10.3311	0.629
10.3666	0.642
10.4021	0.653
10.4375	0.667
10.473	0.67
10.5084	0.669
10.5439	0.664
10.5793	0.648
10.6148	0.629
10.6503	0.582
10.6857	0.513
10.7212	0.437
10.7566	0.424
10.7921	0.493
10.8276	0.607
10.863	0.648
10.8985	0.68
10.9339	0.702
10.9694	0.71
11.0049	0.717
11.0403	0.72
11.0758	0.728
11.1112	0.734
11.1467	0.737
11.1822	0.74
11.2176	0.744
11.2531	0.756
11.2885	0.762
11.324	0.766
11.3595	0.767
11.3949	0.768
11.4304	0.767
11.4658	0.765
11.5013	0.761
11.5368	0.762
11.5722	0.765
11.6077	0.768
11.6431	0.773
11.6786	0.774
11.7141	0.773
11.7495	0.772
11.785	0.771
11.8204	0.771
11.8559	0.773
11.8914	0.776
11.9268	0.773
11.9623	0.772
11.9977	0.774
12.0332	0.779
12.0687	0.782
12.1041	0.787
12.1396	0.794
12.175	0.799
12.2105	0.805
12.246	0.813
12.2814	0.819
12.3169	0.823
12.3523	0.827
12.3878	0.831
12.4233	0.836
12.4587	0.839
12.4942	0.842
12.5296	0.843
12.5651	0.843
12.6006	0.841
12.636	0.835
12.6715	0.83
12.7069	0.823
12.7424	0.816
12.7778	0.809
12.8133	0.799
12.8488	0.792
12.8842	0.784
12.9197	0.781
12.9551	0.768
12.9906	0.765
13.0261	0.766
13.0615	0.769
13.097	0.773
13.1324	0.776
13.1679	0.78
13.2034	0.779
13.2388	0.767
13.2743	0.766
13.3097	0.763
13.3452	0.76
13.3807	0.758
13.4161	0.76
13.4516	0.758
13.487	0.75
13.5225	0.74
13.558	0.728
13.5934	0.718
13.6289	0.705
13.6643	0.693
13.6998	0.678
13.7353	0.67
13.7707	0.671
13.8062	0.685
13.8416	0.711
13.8771	0.742
13.9126	0.756
13.948	0.766
13.9835	0.776
14.0189	0.78
14.0544	0.786
14.0899	0.788
14.1253	0.79
14.1608	0.79
14.1962	0.788
14.2317	0.787
14.2672	0.786
14.3026	0.781
14.3381	0.776
14.3735	0.776
14.409	0.776
14.4445	0.776
14.4799	0.775
14.5154	0.763
14.5508	0.759
14.5863	0.76
14.6218	0.755
14.6572	0.744
14.6927	0.742
14.7281	0.741
14.7636	0.737
14.7991	0.735
14.8345	0.733
14.87	0.727
14.9054	0.72
14.9409	0.715
14.9764	0.709
