Infrared Spectrum: 3,5-Dichlorobenzenesulphonyl chloride
Formula: C 6 H 3 Cl 3 O 2 S
CAS: 705-21-5
State: gas
Origin: EPA-IR VAPOR PHASE LIBRARY
1/CM	ABSORBANCE
549.8	0.218814
559.445	0.783234
569.09	0.165534
578.734	0.110424
588.379	0.206774
598.024	0.774104
607.669	0.717744
617.313	0.112794
626.958	0.050354
636.603	0.022574
646.248	0.022604
655.893	0.124994
665.537	0.371214
675.182	0.088814
684.827	0.014034
694.472	0.008004
704.116	0.007204
713.761	0.006764
723.406	0.007924
733.051	0.011254
742.695	0.013444
752.34	0.011394
761.985	0.009494
771.63	0.009834
781.275	0.019024
790.919	0.072324
800.564	0.279004
810.209	0.381874
819.854	0.135114
829.498	0.063184
839.143	0.045664
848.788	0.039304
858.433	0.061574
868.078	0.126994
877.722	0.072054
887.367	0.019934
897.012	0.013114
906.657	0.007184
916.301	0.004104
925.946	0.003784
935.591	0.003484
945.236	0.003684
954.88	0.003304
964.525	0.003624
974.17	0.004604
983.815	0.004014
993.46	0.003854
1003.1	0.003164
1012.75	0.004164
1022.39	0.003904
1032.04	0.004284
1041.68	0.006014
1051.33	0.009584
1060.97	0.012164
1070.62	0.018324
1080.26	0.043344
1089.91	0.093714
1099.55	0.115584
1109.2	0.078684
1118.84	0.048104
1128.49	0.070474
1138.13	0.155364
1147.78	0.163524
1157.42	0.086124
1167.07	0.112734
1176.71	0.308854
1186.36	0.871884
1196	0.618204
1205.64	0.292374
1215.29	0.159264
1224.93	0.059394
1234.58	0.042014
1244.22	0.023904
1253.87	0.017444
1263.51	0.019674
1273.16	0.026474
1282.8	0.054184
1292.45	0.034174
1302.09	0.008834
1311.74	0.006844
1321.38	0.006254
1331.03	0.007034
1340.67	0.008064
1350.32	0.011904
1359.96	0.022924
1369.61	0.054984
1379.25	0.155064
1388.9	0.267004
1398.54	0.573624
1408.18	0.846034
1417.83	0.475444
1427.47	0.372734
1437.12	0.196334
1446.76	0.042864
1456.41	0.016524
1466.05	0.009884
1475.7	0.007614
1485.34	0.006574
1494.99	0.006444
1504.63	0.006634
1514.28	0.008934
1523.92	0.013714
1533.57	0.020624
1543.21	0.042804
1552.86	0.101144
1562.5	0.266734
1572.15	0.442654
1581.79	0.150364
1591.44	0.035934
1601.08	0.021554
1610.73	0.018744
1620.37	0.015474
1630.01	0.009264
1639.66	0.005384
1649.3	0.004254
1658.95	0.004214
1668.59	0.003774
1678.24	0.003484
1687.88	0.003334
1697.53	0.003244
1707.17	0.002804
1716.82	0.002834
1726.46	0.004334
1736.11	0.008404
1745.75	0.017194
1755.4	0.025954
1765.04	0.023354
1774.69	0.019164
1784.33	0.012544
1793.98	0.005694
1803.62	0.003464
1813.27	0.001944
1822.91	0.0012932
1832.55	0.0011703
1842.2	0.0012221
1851.84	0.001464
1861.49	0.001674
1871.13	0.001644
1880.78	0.001794
1890.42	0.002374
1900.07	0.003184
1909.71	0.003484
1919.36	0.003004
1929	0.002794
1938.65	0.002884
1948.29	0.003064
1957.94	0.002664
1967.58	0.002104
1977.23	0.002054
1986.87	0.002224
1996.52	0.001874
2006.16	0.001484
2015.81	0.0010571
2025.45	0.0008721
2035.1	0.0007486
2044.74	0.0007598
2054.38	0.00048809
2064.03	0.000586
2073.67	0.0006108
2083.32	0.0007869
2092.96	0.0008526
2102.61	0.0006559
2112.25	0.00050833
2121.9	0.000318
2131.54	0.00048819
2141.19	0.0003598
2150.83	0.00045806
2160.48	0.000430748
2170.12	0.0008669
2179.77	0.0011672
2189.41	0.001724
2199.06	0.002114
2208.7	0.001954
2218.35	0.001534
2227.99	0.0013745
2237.64	0.0010193
2247.28	0.0008326
2256.92	0.0009089
2266.57	0.001464
2276.21	0.001934
2285.86	0.001924
2295.5	0.001644
2305.15	0.001554
2314.79	0.001834
2324.44	0.002494
2334.08	0.002584
2343.73	0.002174
2353.37	0.002594
2363.02	0.003834
2372.66	0.005544
2382.31	0.005734
2391.95	0.003424
2401.6	0.001894
2411.24	0.0014189
2420.89	0.0013401
2430.53	0.00123
2440.18	0.0009814
2449.82	0.0013732
2459.47	0.002224
2469.11	0.001464
2478.75	0.0011149
2488.4	0.0013244
2498.04	0.001614
2507.69	0.002694
2517.33	0.003854
2526.98	0.003284
2536.62	0.002214
2546.27	0.002514
2555.91	0.003334
2565.56	0.004084
2575.2	0.004774
2584.85	0.005154
2594.49	0.003194
2604.14	0.002044
2613.78	0.001934
2623.43	0.001724
2633.07	0.001704
2642.72	0.002134
2652.36	0.001864
2662.01	0.001614
2671.65	0.0012882
2681.29	0.001504
2690.94	0.001974
2700.58	0.002664
2710.23	0.003054
2719.87	0.002134
2729.52	0.0011282
2739.16	0.0009124
2748.81	0.0012626
2758.45	0.001604
2768.1	0.001664
2777.74	0.001654
2787.39	0.002534
2797.03	0.003604
2806.68	0.003274
2816.32	0.002934
2825.97	0.003424
2835.61	0.004514
2845.26	0.004644
2854.9	0.003284
2864.55	0.001584
2874.19	0.0006251
2883.84	0.00046269
2893.48	0.00043429
2903.12	0.0005467
2912.77	0.0006743
2922.41	0.00051837
2932.06	0.0007429
2941.7	0.0012071
2951.35	0.001734
2960.99	0.002484
2970.64	0.002784
2980.28	0.002674
2989.93	0.001984
2999.57	0.001524
3009.22	0.0009082
3018.86	0.00094
3028.51	0.0008869
3038.15	0.0012897
3047.8	0.0013888
3057.44	0.002584
3067.09	0.007484
3076.73	0.027024
3086.38	0.060294
3096.02	0.030874
3105.67	0.009844
3115.31	0.008114
3124.95	0.007974
3134.6	0.007904
3144.24	0.006354
3153.89	0.003224
3163.53	0.0012305
3173.18	0.000849
3182.82	0.0007104
3192.47	0.0007105
3202.11	0.0009786
3211.76	0.0009641
3221.4	0.0006007
3231.05	0.0006883
3240.69	0.0005327
3250.34	0.000253
3259.98	0.00032
3269.63	0.00045415
3279.27	0.0007339
3288.92	0.00050716
3298.56	0.00044896
3308.21	6.9e-05
3317.85	0.0003748
3327.49	0.0003823
3337.14	0.0005618
3346.78	0.0006119
3356.43	0.00041559
3366.07	0.0005312
3375.72	0.0005867
3385.36	0.00085
3395.01	0.00045617
3404.65	0.0007465
3414.3	0.0007063
3423.94	0.0006349
3433.59	0.0005298
3443.23	0.0006213
3452.88	0.0003978
3462.52	0.000428621
3472.17	0.0006198
3481.81	0.00050425
3491.46	0.00048012
3501.1	0.0006524
3510.75	0.00048997
3520.39	0.0007513
3530.04	0.0007908
3539.68	0.000274
3549.32	0.000565
3558.97	0.0005479
3568.61	0.0007766
3578.26	0.000257
3587.9	0.000272
3597.55	0.0005315
3607.19	0.000217
3616.84	0.000194
3626.48	0.000318
3636.13	0.0006282
3645.77	0.0009013
3655.42	0.0005556
3665.06	0.00049084
3674.71	0.0007266
3684.35	0.0007578
3694	0.0006422
3703.64	0.000391
3713.29	0.00052031
3722.93	0.00045896
3732.58	0.0006488
3742.22	0.0005654
3751.86	0.0007237
3761.51	0.00051145
3771.15	0.00045157
3780.8	0.000537
3790.44	0.0005377
3800.09	0.000147
3809.73	0.00047842
3819.38	0.00045159
3829.02	0.0003266
3838.67	0.0005736
3848.31	0.0005343
3857.96	0.00051246
3867.6	0.0009309
3877.25	0.0011498
3886.89	0.001444
3896.54	0.001554
3906.18	0.0012425
3915.83	0.0009384
3925.47	0.0006107
3935.12	0.0006562
3944.76	0.0013682
3954.41	0.0008919
3964.05	0.00087
3973.69	0.000907
3983.34	0.0005964
3992.98	0.00048676
