Infrared Spectrum: Benzene, 2-nitropropenyl-
Formula: C9 H9 N O2
CAS: 705-60-2
State: SOLUTION (10% CCl4 FOR 2-7.6, 10% CS2 FOR 7.6-16 MICRON)
Class: COBLENTZ III
Instrument: PERKIN-ELMER 21 (GRATING)
Instrument parameters: NaCl PRISM
Sampling: TRANSMISSION
Resolution: 2
Origin: DOW CHEMICAL COMPANY
1/CM	TRANSMITTANCE
4000	0.9042
3991	0.9047
3982	0.905
3973	0.9054
3964	0.9058
3955	0.9061
3946	0.9065
3937	0.9068
3928	0.9074
3919	0.9078
3910	0.9085
3901	0.909
3892	0.9094
3883	0.9096
3874	0.9096
3865	0.9096
3856	0.9097
3847	0.9097
3838	0.9097
3829	0.9095
3820	0.9093
3811	0.9087
3802	0.9078
3793	0.907
3784	0.9067
3775	0.9065
3766	0.9063
3757	0.906
3748	0.9059
3739	0.906
3730	0.9063
3721	0.9064
3712	0.9061
3703	0.9059
3694	0.9049
3685	0.9039
3676	0.9028
3667	0.902
3658	0.9012
3649	0.9007
3640	0.9004
3631	0.9
3622	0.9002
3613	0.9007
3604	0.9013
3595	0.9021
3586	0.9028
3577	0.9037
3568	0.9044
3559	0.905
3550	0.9057
3541	0.9064
3532	0.907
3523	0.9075
3514	0.9081
3505	0.9073
3496	0.9065
3487	0.9056
3478	0.9046
3469	0.9042
3460	0.904
3451	0.9038
3442	0.9036
3433	0.9034
3424	0.9032
3415	0.903
3406	0.9025
3397	0.9017
3388	0.9008
3379	0.9
3370	0.8991
3361	0.8982
3352	0.8968
3343	0.8956
3334	0.8942
3325	0.8928
3316	0.8916
3307	0.8903
3298	0.8889
3289	0.8875
3280	0.8862
3271	0.8849
3262	0.8835
3253	0.8824
3244	0.8813
3235	0.8802
3226	0.8791
3217	0.8778
3208	0.8766
3199	0.8753
3190	0.8739
3181	0.872
3172	0.8696
3163	0.8638
3154	0.8535
3145	0.8334
3136	0.8138
3127	0.7939
3118	0.7741
3109	0.754
3100	0.734
3091	0.7137
3082	0.6925
3073	0.6912
3064	0.6917
3055	0.6955
3046	0.7125
3037	0.7392
3028	0.7568
3019	0.7692
3010	0.7708
3001	0.7715
2992	0.775
2983	0.7808
2974	0.7946
2965	0.8014
2956	0.8032
2947	0.8069
2938	0.8321
2929	0.8481
2920	0.8521
2911	0.8544
2902	0.853
2893	0.8421
2884	0.8231
2875	0.8001
2866	0.7965
2857	0.7978
2848	0.8262
2839	0.8486
2830	0.8655
2821	0.8784
2812	0.8828
2803	0.8846
2794	0.8867
2785	0.889
2776	0.8925
2767	0.8961
2758	0.8996
2749	0.9027
2740	0.9045
2731	0.9064
2722	0.9085
2713	0.9092
2704	0.9095
2695	0.9089
2686	0.9078
2677	0.9064
2668	0.9063
2659	0.9065
2650	0.9066
2641	0.9074
2632	0.9081
2623	0.9091
2614	0.9103
2605	0.9137
2596	0.9168
2587	0.9193
2578	0.9204
2569	0.9209
2560	0.9213
2551	0.9215
2542	0.9216
2533	0.9216
2524	0.9216
2515	0.9217
2506	0.9218
2497	0.9218
2488	0.9211
2479	0.9148
2470	0.9084
2461	0.9046
2452	0.9062
2443	0.9093
2434	0.9124
2425	0.9134
2416	0.9118
2407	0.9109
2398	0.9117
2389	0.9115
2380	0.9099
2371	0.9084
2362	0.9071
2353	0.9071
2344	0.907
2335	0.9075
2326	0.9083
2317	0.9093
2308	0.9112
2299	0.9138
2290	0.9173
2281	0.9207
2272	0.9239
2263	0.9263
2254	0.928
2245	0.929
2236	0.9273
2227	0.9245
2218	0.9218
2209	0.9217
2200	0.9261
2191	0.931
2182	0.9365
2173	0.9414
2164	0.9438
2155	0.9454
2146	0.9466
2137	0.9475
2128	0.9482
2119	0.9471
2110	0.9457
2101	0.9433
2092	0.9394
2083	0.9356
2074	0.9355
2065	0.9377
2056	0.9377
2047	0.9308
2038	0.9298
2029	0.9287
2020	0.9261
2011	0.9261
2002	0.9156
1993	0.904
1984	0.8935
1975	0.8875
1966	0.8845
1957	0.8966
1948	0.9137
1939	0.919
1930	0.9105
1921	0.9049
1912	0.9037
1903	0.8986
1894	0.903
1885	0.9068
1876	0.9039
1867	0.91
1858	0.9134
1849	0.9141
1840	0.9066
1831	0.8862
1822	0.8707
1813	0.8712
1804	0.8921
1795	0.9111
1786	0.9078
1777	0.9078
1768	0.912
1759	0.9068
1750	0.9052
1741	0.9105
1732	0.9149
1723	0.9159
1714	0.9083
1705	0.8831
1696	0.8678
1687	0.8141
1678	0.6323
1669	0.4983
1660	0.6422
1651	0.7597
1642	0.7735
1633	0.7786
1624	0.74
1615	0.6465
1606	0.5935
1597	0.5329
1588	0.4353
1579	0.406
1570	0.3847
1561	0.3357
1552	0.2829
1543	0.1269
1534	0.0358
1525	0.0731
1516	0.1807
1507	0.3487
1498	0.439
1489	0.6332
1480	0.665
1471	0.6268
1462	0.4144
1453	0.3474
1444	0.546
1435	0.7026
1426	0.7337
1417	0.7133
1408	0.603
1399	0.2806
1390	0.5727
1381	0.7268
1372	0.6726
1363	0.506
1354	0.34
1345	0.2054
1336	0.0325
1327	0.0589
1318	0.3199
1309	0.5397
1300	0.5616
1291	0.7324
1282	0.8398
1273	0.8725
1264	0.8807
1255	0.8832
1246	0.8811
1237	0.8538
1228	0.6631
1219	0.4884
1210	0.8554
1201	0.8781
1192	0.8221
1183	0.8499
1174	0.8893
1165	0.8734
1156	0.8996
1147	0.9082
1138	0.9131
1129	0.9175
1120	0.8933
1111	0.8331
1102	0.8612
1093	0.8951
1084	0.8598
1075	0.7942
1066	0.8887
1057	0.9115
1048	0.9125
1039	0.879
1030	0.8653
1021	0.8891
1012	0.8305
1003	0.6078
994	0.6782
985	0.239
976	0.6021
967	0.7936
958	0.8665
949	0.8644
940	0.7365
931	0.4142
922	0.7124
913	0.7956
904	0.631
895	0.7661
886	0.7668
877	0.4778
868	0.2397
859	0.6372
850	0.7184
841	0.7665
832	0.7528
823	0.7075
814	0.8198
805	0.8438
796	0.8418
787	0.8343
778	0.7915
769	0.534
760	0.0565
751	0.644
742	0.7672
733	0.756
724	0.5636
715	0.583
706	0.2557
697	0.1771
688	0.2379
679	0.5219
670	0.5322
661	0.523
652	0.4799
643	0.4595
634	0.4429
