Infrared Spectrum: 1-Chloro-2,4-dimethoxybenzene
Formula: C 8 H 9 Cl O 2
CAS: 7051-13-0
State: gas
Origin: EPA-IR VAPOR PHASE LIBRARY
1/CM	ABSORBANCE
549.8	0.001931
559.445	0.001871
569.09	0.001501
578.734	0.001751
588.379	0.001791
598.024	0.001901
607.669	0.002851
617.313	0.005431
626.958	0.011181
636.603	0.021381
646.248	0.027821
655.893	0.020501
665.537	0.010151
675.182	0.005291
684.827	0.003551
694.472	0.002681
704.116	0.002391
713.761	0.002791
723.406	0.003481
733.051	0.003191
742.695	0.002131
752.34	0.001821
761.985	0.002091
771.63	0.004031
781.275	0.008501
790.919	0.012171
800.564	0.012661
810.209	0.012531
819.854	0.013151
829.498	0.015721
839.143	0.018121
848.788	0.014091
858.433	0.009771
868.078	0.005881
877.722	0.003821
887.367	0.003101
897.012	0.003421
906.657	0.004871
916.301	0.008081
925.946	0.009181
935.591	0.006951
945.236	0.004641
954.88	0.003901
964.525	0.004261
974.17	0.004851
983.815	0.006381
993.46	0.008661
1003.1	0.013611
1012.75	0.026811
1022.39	0.056331
1032.04	0.077011
1041.68	0.062491
1051.33	0.036901
1060.97	0.029291
1070.62	0.043741
1080.26	0.045901
1089.91	0.025721
1099.55	0.013081
1109.2	0.012281
1118.84	0.019541
1128.49	0.033441
1138.13	0.036551
1147.78	0.052571
1157.42	0.101861
1167.07	0.113411
1176.71	0.064891
1186.36	0.044741
1196	0.068301
1205.64	0.110611
1215.29	0.092641
1224.93	0.040681
1234.58	0.029631
1244.22	0.035131
1253.87	0.041461
1263.51	0.040461
1273.16	0.043201
1282.8	0.055901
1292.45	0.074521
1302.09	0.084871
1311.74	0.063881
1321.38	0.028141
1331.03	0.010831
1340.67	0.006351
1350.32	0.005351
1359.96	0.005631
1369.61	0.007281
1379.25	0.010591
1388.9	0.017181
1398.54	0.026751
1408.18	0.031301
1417.83	0.027191
1427.47	0.027921
1437.12	0.048421
1446.76	0.055271
1456.41	0.057571
1466.05	0.079271
1475.7	0.105931
1485.34	0.141151
1494.99	0.114071
1504.63	0.047001
1514.28	0.018071
1523.92	0.011301
1533.57	0.009721
1543.21	0.010621
1552.86	0.015241
1562.5	0.027431
1572.15	0.051031
1581.79	0.083011
1591.44	0.101561
1601.08	0.077981
1610.73	0.040751
1620.37	0.020621
1630.01	0.011571
1639.66	0.006721
1649.3	0.004711
1658.95	0.003931
1668.59	0.003621
1678.24	0.003361
1687.88	0.003261
1697.53	0.003131
1707.17	0.003011
1716.82	0.003001
1726.46	0.002771
1736.11	0.002701
1745.75	0.002261
1755.4	0.001921
1765.04	0.001621
1774.69	0.001451
1784.33	0.001471
1793.98	0.001481
1803.62	0.001621
1813.27	0.001711
1822.91	0.001991
1832.55	0.002341
1842.2	0.002491
1851.84	0.002551
1861.49	0.002621
1871.13	0.002241
1880.78	0.001971
1890.42	0.001821
1900.07	0.001611
1909.71	0.001551
1919.36	0.001851
1929	0.002391
1938.65	0.002541
1948.29	0.002371
1957.94	0.002101
1967.58	0.001801
1977.23	0.001511
1986.87	0.001431
1996.52	0.001451
2006.16	0.001461
2015.81	0.001531
2025.45	0.001751
2035.1	0.001871
2044.74	0.002081
2054.38	0.002341
2064.03	0.002391
2073.67	0.002421
2083.32	0.002141
2092.96	0.001891
2102.61	0.001761
2112.25	0.001831
2121.9	0.001711
2131.54	0.001501
2141.19	0.0012835
2150.83	0.0011096
2160.48	0.0010989
2170.12	0.0011773
2179.77	0.001491
2189.41	0.001781
2199.06	0.001971
2208.7	0.002161
2218.35	0.002131
2227.99	0.001711
2237.64	0.0013332
2247.28	0.0010346
2256.92	0.0007175
2266.57	0.000682
2276.21	0.0007153
2285.86	0.0008613
2295.5	0.0010015
2305.15	0.0012564
2314.79	0.0013515
2324.44	0.001431
2334.08	0.0012406
2343.73	0.0010206
2353.37	0.0008679
2363.02	0.0009992
2372.66	0.0009936
2382.31	0.0010476
2391.95	0.0010626
2401.6	0.000984
2411.24	0.0011112
2420.89	0.0011869
2430.53	0.0011815
2440.18	0.0012928
2449.82	0.001511
2459.47	0.0013862
2469.11	0.001441
2478.75	0.001551
2488.4	0.001711
2498.04	0.001541
2507.69	0.001541
2517.33	0.001671
2526.98	0.0012533
2536.62	0.0011054
2546.27	0.001072
2555.91	0.0010774
2565.56	0.0012434
2575.2	0.0012968
2584.85	0.0012948
2594.49	0.0013821
2604.14	0.0013467
2613.78	0.0013905
2623.43	0.0013233
2633.07	0.0012469
2642.72	0.0012306
2652.36	0.0011443
2662.01	0.0011785
2671.65	0.0012477
2681.29	0.0013114
2690.94	0.0013485
2700.58	0.0011237
2710.23	0.0009957
2719.87	0.00099
2729.52	0.0010768
2739.16	0.0010574
2748.81	0.0013573
2758.45	0.0013896
2768.1	0.001611
2777.74	0.002101
2787.39	0.002581
2797.03	0.003311
2806.68	0.004391
2816.32	0.006471
2825.97	0.010571
2835.61	0.018721
2845.26	0.025591
2854.9	0.021561
2864.55	0.016121
2874.19	0.014211
2883.84	0.014281
2893.48	0.015521
2903.12	0.017791
2912.77	0.021641
2922.41	0.024651
2932.06	0.028961
2941.7	0.042651
2951.35	0.048351
2960.99	0.040031
2970.64	0.027861
2980.28	0.019351
2989.93	0.017751
2999.57	0.025601
3009.22	0.035831
3018.86	0.025021
3028.51	0.011241
3038.15	0.007311
3047.8	0.006171
3057.44	0.005531
3067.09	0.005391
3076.73	0.006251
3086.38	0.007121
3096.02	0.006021
3105.67	0.004181
3115.31	0.003061
3124.95	0.002251
3134.6	0.001781
3144.24	0.001501
3153.89	0.001451
3163.53	0.000935
3173.18	0.0011534
3182.82	0.0010004
3192.47	0.0008954
3202.11	0.0006775
3211.76	0.000667
3221.4	0.0006312
3231.05	0.00045821
3240.69	0.0005587
3250.34	0.000284
3259.98	0.000317
3269.63	0.0003988
3279.27	0.0003394
3288.92	0.000222
3298.56	0.000154
3308.21	0.000287
3317.85	0.000236
3327.49	0.000228
3337.14	0.000342
3346.78	0.000263
3356.43	0.00025
3366.07	0.000211
3375.72	0.000203
3385.36	0.000145
3395.01	0.000137
3404.65	0.000177
3414.3	0.000204
3423.94	0.000237
3433.59	0.000214
3443.23	0.000282
3452.88	8.2e-05
3462.52	0.000254
3472.17	0.000133
3481.81	0.000219
3491.46	0.000196
3501.1	0.000243
3510.75	0.0003414
3520.39	0.000215
3530.04	0.000283
3539.68	3.9e-05
3549.32	0.000184
3558.97	0.00018
3568.61	0.0003307
3578.26	0.000131
3587.9	6.1e-05
3597.55	0.000112
3607.19	0.000241
3616.84	0.000319
3626.48	0.000168
3636.13	0.0003445
3645.77	0.0003574
3655.42	0.000171
3665.06	0.00022
3674.71	0.000211
3684.35	0.000268
3694	0.000158
3703.64	0.000211
3713.29	0.000347
3722.93	0.0003306
3732.58	0.000308
3742.22	9.3e-05
3751.86	0.0003556
3761.51	0.000292
3771.15	0.0003744
3780.8	0.00048166
3790.44	0.0003302
3800.09	0.0005662
3809.73	0.000246
3819.38	0.00044396
3829.02	0.0003241
3838.67	0.0003728
3848.31	0.0003988
3857.96	0.0005417
3867.6	0.000579
3877.25	0.0003482
3886.89	0.00046071
3896.54	0.0004634
3906.18	0.0003467
3915.83	0.000397
3925.47	0.0006169
3935.12	0.00045704
3944.76	0.00056
3954.41	0.00044723
3964.05	0.00046918
3973.69	0.0006525
3983.34	0.0007441
3992.98	0.0006518
