Infrared Spectrum: t-Butylacetyl chloride
Formula: C 6 H 11 Cl O
CAS: 7065-46-5
State: gas
Origin: EPA-IR VAPOR PHASE LIBRARY
1/CM	ABSORBANCE
549.9	0.02578
559.547	0.03567
569.193	0.03326
578.84	0.02063
588.486	0.01226
598.133	0.00782
607.779	0.0055
617.426	0.00457
627.072	0.00481
636.719	0.00616
646.365	0.00881
656.012	0.014
665.658	0.02273
675.305	0.03856
684.951	0.06037
694.598	0.06746
704.245	0.07465
713.891	0.09029
723.538	0.08419
733.184	0.04661
742.831	0.02331
752.477	0.02603
762.124	0.04765
771.77	0.0586
781.417	0.03878
791.063	0.01217
800.71	0.00658
810.356	0.00527
820.003	0.00542
829.649	0.00599
839.296	0.00649
848.943	0.00677
858.589	0.00791
868.236	0.01179
877.882	0.02055
887.529	0.03456
897.175	0.04121
906.822	0.03094
916.468	0.02101
926.115	0.01603
935.761	0.01471
945.408	0.01517
955.054	0.02322
964.701	0.04733
974.347	0.09265
983.994	0.13381
993.64	0.1308
1003.29	0.08799
1012.93	0.04841
1022.58	0.03127
1032.23	0.02679
1041.87	0.02646
1051.52	0.02529
1061.17	0.01987
1070.81	0.01181
1080.46	0.00624
1090.11	0.00437
1099.75	0.00382
1109.4	0.00376
1119.05	0.00408
1128.69	0.00463
1138.34	0.00583
1147.99	0.00932
1157.63	0.01557
1167.28	0.02339
1176.92	0.02681
1186.57	0.02458
1196.22	0.02198
1205.86	0.01993
1215.51	0.01992
1225.16	0.02285
1234.8	0.02403
1244.45	0.02042
1254.1	0.01481
1263.74	0.01087
1273.39	0.0086
1283.04	0.00781
1292.68	0.00971
1302.33	0.01691
1311.98	0.02263
1321.62	0.02549
1331.27	0.02639
1340.92	0.02146
1350.56	0.01412
1360.21	0.0229
1369.86	0.03766
1379.5	0.03921
1389.15	0.02673
1398.79	0.01916
1408.44	0.0156
1418.09	0.01124
1427.73	0.0097
1437.38	0.01021
1447.03	0.0127
1456.67	0.01905
1466.32	0.0275
1475.97	0.033
1485.61	0.02659
1495.26	0.01467
1504.91	0.00578
1514.55	0.002825
1524.2	0.001758
1533.85	0.001197
1543.49	0.001082
1553.14	0.000997
1562.79	0.000953
1572.43	0.00092
1582.08	0.00092
1591.73	0.00094
1601.37	0.001037
1611.02	0.001132
1620.67	0.001275
1630.31	0.001485
1639.96	0.001749
1649.6	0.0022263
1659.25	0.0025981
1668.9	0.00307
1678.54	0.00336
1688.19	0.00362
1697.84	0.00395
1707.48	0.0043
1717.13	0.00472
1726.78	0.00547
1736.42	0.00684
1746.07	0.00907
1755.72	0.0135
1765.36	0.02277
1775.01	0.04427
1784.66	0.08987
1794.3	0.16538
1803.95	0.23541
1813.6	0.24528
1823.24	0.18435
1832.89	0.0895
1842.54	0.03978
1852.18	0.0226
1861.83	0.01668
1871.47	0.01353
1881.12	0.01075
1890.77	0.00798
1900.41	0.00587
1910.06	0.00456
1919.71	0.00389
1929.35	0.00351
1939	0.00326
1948.65	0.00341
1958.29	0.00372
1967.94	0.00388
1977.59	0.00372
1987.23	0.0032
1996.88	0.0025304
2006.53	0.00196248
2016.17	0.001601
2025.82	0.001555
2035.47	0.001665
2045.11	0.002055
2054.76	0.002693
2064.41	0.00375
2074.05	0.00549
2083.7	0.00934
2093.35	0.01971
2102.99	0.03941
2112.64	0.05885
2122.28	0.06122
2131.93	0.04186
2141.58	0.0151
2151.22	0.00686
2160.87	0.0039
2170.52	0.0023247
2180.16	0.001465
2189.81	0.001184
2199.46	0.001106
2209.1	0.001154
2218.75	0.001272
2228.4	0.001447
2238.04	0.001583
2247.69	0.001739
2257.34	0.001833
2266.98	0.001681
2276.63	0.001472
2286.28	0.001576
2295.92	0.001689
2305.57	0.001675
2315.22	0.00139
2324.86	0.001078
2334.51	0.00079
2344.16	0.00072
2353.8	0.00064
2363.45	0.00065
2373.09	0.00075
2382.74	0.00069
2392.39	0.00072
2402.03	0.00073
2411.68	0.00069
2421.33	0.0007
2430.97	0.00076
2440.62	0.00066
2450.27	0.00067
2459.91	0.00058
2469.56	0.00063
2479.21	0.00053
2488.85	0.00058
2498.5	0.00058
2508.15	0.00066
2517.79	0.00062
2527.44	0.00054
2537.09	0.00062
2546.73	0.00065
2556.38	0.00062
2566.03	0.0006
2575.67	0.00057
2585.32	0.00062
2594.96	0.00068
2604.61	0.00068
2614.26	0.00063
2623.9	0.00076
2633.55	0.00057
2643.2	0.00065
2652.84	0.00094
2662.49	0.00072
2672.14	0.00083
2681.78	0.000948
2691.43	0.001206
2701.08	0.00193536
2710.72	0.001526
2720.37	0.001799
2730.02	0.002774
2739.66	0.0026236
2749.31	0.00304
2758.96	0.002273
2768.6	0.0023923
2778.25	0.0028304
2787.9	0.0026513
2797.54	0.00435
2807.19	0.00359
2816.84	0.00444
2826.48	0.00512
2836.13	0.00643
2845.77	0.00917
2855.42	0.01365
2865.07	0.02487
2874.71	0.03964
2884.36	0.04845
2894.01	0.04867
2903.65	0.05105
2913.3	0.05657
2922.95	0.06131
2932.59	0.06716
2942.24	0.08379
2951.89	0.11643
2961.53	0.1744
2971.18	0.18469
2980.83	0.12964
2990.47	0.0641
3000.12	0.02822
3009.77	0.01123
3019.41	0.0055
3029.06	0.00442
3038.71	0.00299
3048.35	0.0026382
3058	0.0027154
3067.64	0.00197716
3077.29	0.001675
3086.94	0.001603
3096.58	0.0014
3106.23	0.001253
3115.88	0.001247
3125.52	0.001123
3135.17	0.001095
3144.82	0.00094
3154.46	0.00093
3164.11	0.001098
3173.76	0.001536
3183.4	0.001602
3193.05	0.001702
3202.7	0.001689
3212.34	0.0018865
3221.99	0.001704
3231.64	0.001549
3241.28	0.001156
3250.93	0.0008
3260.58	0.00038
3270.22	0.00055
3279.87	0.00047
3289.52	0.00032
3299.16	0
3308.81	0.00024
3318.45	0.00022
3328.1	0.00017
3337.75	0.00035
3347.39	0.00028
3357.04	0.00036
3366.69	0.00046
3376.33	0.00056
3385.98	0.00049
3395.63	0.00045
3405.27	0.0004
3414.92	0.00045
3424.57	0.00037
3434.21	0.00043
3443.86	0.00051
3453.51	0.00064
3463.15	0.00053
3472.8	0.00072
3482.45	0.00042
3492.09	0.00028
3501.74	0.00034
3511.39	0.00024
3521.03	0.00033
3530.68	0.0005
3540.33	0.0006
3549.97	0.00082
3559.62	0.001362
3569.26	0.0022247
3578.91	0.00306
3588.56	0.0035
3598.2	0.00341
3607.85	0.00327
3617.5	0.0028227
3627.14	0.00200713
3636.79	0.00107
3646.44	0.00086
3656.08	0.00071
3665.73	0.00059
3675.38	0.00064
3685.02	0.00047
3694.67	0.0005
3704.32	0.00025
3713.96	0.00048
3723.61	0.00044
3733.26	0.00055
3742.9	0.00051
3752.55	0.00028
3762.2	0.00039
3771.84	0.00033
3781.49	0.00042
3791.13	0.00068
3800.78	0.00056
3810.43	0.00069
3820.07	0.00073
3829.72	0.00071
3839.37	0.00068
3849.01	0.00071
3858.66	0.00073
3868.31	0.00062
3877.95	0.00078
3887.6	0.00078
3897.25	0.000954
3906.89	0.00076
3916.54	0.00086
3926.19	0.00076
3935.83	0.00081
3945.48	0.00075
3955.13	0.0008
3964.77	0.00069
3974.42	0.00083
3984.07	0.00065
3993.71	0.00082
