Infrared Spectrum: 1,4-Dimethylcyclohexene
Formula: C 8 H 14
CAS: 70688-47-0
State: gas
Instrument: HP-GC/MS/IRD
Origin: NIST Mass Spectrometry Data Center
1/CM	ABSORBANCE
550	9.6e-05
562	4.48e-05
574	0.0001664
586	0.000224
598	0.00016
610	0.0002944
622	0.0002208
634	0.0002624
646	0.0001952
658	0.0002976
670	0.0002688
682	0.0003712
694	0.0003488
706	0.0003072
718	0.0002656
730	0.0003168
742	0.0004128
754	0.0004992
766	0.0007872
778	0.0012
790	0.0016672
802	0.0016448
814	0.0010496
826	0.0005856
838	0.000384
850	0.0004128
862	0.0005696
874	0.0007488
886	0.001056
898	0.001232
910	0.0009632
922	0.0006848
934	0.000672
946	0.0006304
958	0.0005504
970	0.0004864
982	0.0004896
994	0.0004928
1006	0.0005472
1018	0.0007296
1030	0.000976
1042	0.0011712
1054	0.0010688
1066	0.000864
1078	0.00088
1090	0.0007904
1102	0.0005344
1114	0.0004896
1126	0.0006656
1138	0.0010016
1150	0.001296
1162	0.001056
1174	0.0005792
1186	0.0004128
1198	0.0004416
1210	0.0005504
1222	0.0006208
1234	0.000688
1246	0.0007136
1258	0.000656
1270	0.000576
1282	0.00064
1294	0.0007424
1306	0.0008096
1318	0.0007904
1330	0.000736
1342	0.0008672
1354	0.0009856
1366	0.0014336
1378	0.002224
1390	0.0020256
1402	0.0008704
1414	0.000896
1426	0.0018624
1438	0.003328
1450	0.0042304
1462	0.0036928
1474	0.0022496
1486	0.001072
1498	0.0005568
1510	0.000384
1522	0.00032
1534	0.0003072
1546	0.00032
1558	0.0003328
1570	0.0003648
1582	0.0004256
1594	0.0003904
1606	0.0003776
1618	0.000336
1630	0.0002816
1642	0.0002944
1654	0.000336
1666	0.0003904
1678	0.0003872
1690	0.0003296
1702	0.000256
1714	0.0001984
1726	0.0001664
1738	0.0001696
1750	0.0001728
1762	0.000144
1774	0.0001024
1786	0.0001504
1798	0.0001184
1810	0.0001152
1822	0.0001184
1834	0.0001152
1846	0.0001248
1858	0.0001024
1870	0.0001376
1882	0.0001344
1894	0.0001152
1906	9.28e-05
1918	7.36e-05
1930	9.28e-05
1942	8.96e-05
1954	8.32e-05
1966	7.36e-05
1978	5.76e-05
1990	5.76e-05
2002	2.88e-05
2014	6.08e-05
2026	6.4e-05
2038	7.04e-05
2050	3.2e-05
2062	5.44e-05
2074	2.88e-05
2086	2.56e-05
2098	3.52e-05
2110	4.48e-05
2122	3.52e-05
2134	4.16e-05
2146	2.88e-05
2158	3.52e-05
2170	1.28e-05
2182	6.4e-06
2194	2.56e-05
2206	1.28e-05
2218	1.28e-05
2230	4.48e-05
2242	3.2e-05
2254	3.84e-05
2266	3.2e-05
2278	1.6e-05
2290	2.88e-05
2302	5.76e-05
2314	6.08e-05
2326	5.44e-05
2338	6.4e-05
2350	6.4e-05
2362	8.64e-05
2374	8.64e-05
2386	0.0001056
2398	0.0001152
2410	0.0001344
2422	0.0001376
2434	0.000128
2446	0.0001408
2458	0.000176
2470	0.0001696
2482	0.0001728
2494	0.0001632
2506	0.00016
2518	0.0001696
2530	0.0001952
2542	0.0001664
2554	0.0002016
2566	0.0001984
2578	0.000224
2590	0.00024
2602	0.00032
2614	0.0003424
2626	0.0003808
2638	0.000432
2650	0.000448
2662	0.000464
2674	0.000496
2686	0.0004864
2698	0.0005152
2710	0.0005664
2722	0.0007552
2734	0.0009568
2746	0.0009088
2758	0.0007776
2770	0.000736
2782	0.0009216
2794	0.0012256
2806	0.0017696
2818	0.0030784
2830	0.0069184
2842	0.0105184
2854	0.0115488
2866	0.0126528
2878	0.0158528
2890	0.0194944
2902	0.024128
2914	0.0297056
2926	0.030256
2938	0.0231872
2950	0.0176608
2962	0.0175648
2974	0.0128352
2986	0.0063392
2998	0.0039328
3010	0.0038336
3022	0.00336
3034	0.0025376
3046	0.0021056
3058	0.001584
3070	0.001152
3082	0.0009792
3094	0.0008736
3106	0.0007648
3118	0.0006624
3130	0.0005664
3142	0.0004704
3154	0.000448
3166	0.0003456
3178	0.0003712
3190	0.000288
3202	0.00024
3214	0.0002048
3226	0.0002112
3238	0.00024
3250	0.0002368
3262	0.0001664
3274	0.000176
3286	0.0001632
3298	0.000192
3310	0.0001888
3322	0.0002208
3334	0.0002272
3346	0.0001312
3358	0.0001152
3370	0.0001024
3382	6.4e-05
3394	0.0001248
3406	8.96e-05
3418	5.76e-05
3430	9.28e-05
3442	6.4e-05
3454	4.8e-05
3466	7.04e-05
3478	4.16e-05
3490	2.24e-05
3502	3.52e-05
3514	1.28e-05
3526	1.6e-05
3538	4.48e-05
3550	2.24e-05
3562	4.16e-05
3574	1.6e-05
3586	4.48e-05
3598	4.8e-05
3610	4.48e-05
3622	6.4e-05
3634	8.96e-05
3646	6.4e-05
3658	7.04e-05
3670	6.4e-05
3682	4.8e-05
3694	6.08e-05
3706	7.68e-05
3718	7.36e-05
3730	7.04e-05
3742	6.72e-05
3754	9.92e-05
3766	9.6e-05
3778	7.68e-05
3790	9.6e-05
3802	9.28e-05
3814	0.000112
3826	9.92e-05
3838	0.000112
