Infrared Spectrum: 3-Methyl-1-phenyl-2-phospholene-1-oxide
Formula: C 11 H 13 O P
CAS: 707-61-9
State: gas
Origin: EPA-IR VAPOR PHASE LIBRARY
1/CM	ABSORBANCE
549.9	0.04008
559.547	0.02659
569.193	0.01461
578.84	0.01045
588.486	0.00879
598.133	0.00682
607.779	0.00461
617.426	0.00364
627.072	0.00342
636.719	0.00364
646.365	0.0043
656.012	0.00599
665.658	0.00864
675.305	0.01172
684.951	0.02196
694.598	0.03694
704.245	0.03087
713.891	0.03122
723.538	0.04266
733.184	0.05777
742.831	0.06409
752.477	0.05179
762.124	0.03326
771.77	0.02094
781.417	0.01609
791.063	0.01782
800.71	0.02436
810.356	0.02499
820.003	0.03572
829.649	0.03264
839.296	0.01713
848.943	0.01637
858.589	0.02088
868.236	0.01903
877.882	0.01151
887.529	0.00846
897.175	0.00981
906.822	0.0175
916.468	0.02675
926.115	0.01617
935.761	0.0054
945.408	0.0033
955.054	0.00313
964.701	0.00357
974.347	0.00351
983.994	0.00305
993.64	0.00377
1003.29	0.00381
1012.93	0.00323
1022.58	0.00515
1032.23	0.00464
1041.87	0.0028419
1051.52	0.00359
1061.17	0.00519
1070.81	0.00525
1080.46	0.00563
1090.11	0.01037
1099.75	0.02045
1109.4	0.05166
1119.05	0.05987
1128.69	0.02305
1138.34	0.01071
1147.99	0.00998
1157.63	0.01544
1167.28	0.02451
1176.92	0.02682
1186.57	0.02348
1196.22	0.02134
1205.86	0.02658
1215.51	0.05655
1225.16	0.11098
1234.8	0.11558
1244.45	0.08298
1254.1	0.0639
1263.74	0.03699
1273.39	0.01958
1283.04	0.01121
1292.68	0.00789
1302.33	0.00832
1311.98	0.01141
1321.62	0.01451
1331.27	0.01028
1340.92	0.0061
1350.56	0.00525
1360.21	0.00502
1369.86	0.00631
1379.5	0.00862
1389.15	0.00702
1398.79	0.00687
1408.44	0.01075
1418.09	0.01308
1427.73	0.01838
1437.38	0.03446
1447.03	0.03146
1456.67	0.01528
1466.32	0.00797
1475.97	0.00611
1485.61	0.00609
1495.26	0.00431
1504.91	0.00302
1514.55	0.0027128
1524.2	0.0027455
1533.85	0.00309
1543.49	0.00348
1553.14	0.00393
1562.79	0.00501
1572.43	0.00688
1582.08	0.00905
1591.73	0.0123
1601.37	0.02102
1611.02	0.03544
1620.67	0.03174
1630.31	0.01471
1639.96	0.01034
1649.6	0.00979
1659.25	0.00668
1668.9	0.00424
1678.54	0.0026692
1688.19	0.002082
1697.84	0.0017642
1707.48	0.001669
1717.13	0.0018079
1726.78	0.001658
1736.42	0.001503
1746.07	0.001506
1755.72	0.001701
1765.36	0.0020149
1775.01	0.0019703
1784.66	0.001542
1794.3	0.0018272
1803.95	0.0028313
1813.6	0.00368
1823.24	0.00289
1832.89	0.0021451
1842.54	0.0017907
1852.18	0.001624
1861.83	0.001593
1871.47	0.00191504
1881.12	0.0025984
1890.77	0.00333
1900.41	0.00325
1910.06	0.0026745
1919.71	0.0021518
1929.35	0.0019855
1939	0.0021598
1948.65	0.0027763
1958.29	0.00323
1967.94	0.00296
1977.59	0.0020152
1987.23	0.001345
1996.88	0.001203
2006.53	0.001143
2016.17	0.001124
2025.82	0.001175
2035.47	0.001307
2045.11	0.001403
2054.76	0.001401
2064.41	0.001477
2074.05	0.001462
2083.7	0.001333
2093.35	0.001244
2102.99	0.001207
2112.64	0.00121
2122.28	0.001248
2131.93	0.001326
2141.58	0.001405
2151.22	0.001355
2160.87	0.001266
2170.52	0.001258
2180.16	0.001196
2189.81	0.001266
2199.46	0.00128
2209.1	0.001317
2218.75	0.00132
2228.4	0.001282
2238.04	0.001242
2247.69	0.001214
2257.34	0.001171
2266.98	0.001193
2276.63	0.001201
2286.28	0.00119
2295.92	0.001169
2305.57	0.001205
2315.22	0.001548
2324.86	0.001535
2334.51	0.001535
2344.16	0.001517
2353.8	0.001403
2363.45	0.001261
2373.09	0.00121
2382.74	0.001188
2392.39	0.001241
2402.03	0.001276
2411.68	0.001273
2421.33	0.001295
2430.97	0.001359
2440.62	0.001439
2450.27	0.001481
2459.91	0.00141
2469.56	0.001476
2479.21	0.001379
2488.85	0.00126
2498.5	0.0011
2508.15	0.001018
2517.79	0.000924
2527.44	0.000879
2537.09	0.000873
2546.73	0.000865
2556.38	0.000884
2566.03	0.000987
2575.67	0.001049
2585.32	0.001132
2594.96	0.0011
2604.61	0.001076
2614.26	0.001072
2623.9	0.001072
2633.55	0.001007
2643.2	0.000875
2652.84	0.00082
2662.49	0.00083
2672.14	0.000897
2681.78	0.000999
2691.43	0.001197
2701.08	0.001356
2710.72	0.001203
2720.37	0.001053
2730.02	0.001348
2739.66	0.001535
2749.31	0.001213
2758.96	0.001072
2768.6	0.001061
2778.25	0.00107
2787.9	0.001175
2797.54	0.001584
2807.19	0.0021847
2816.84	0.0026227
2826.48	0.00353
2836.13	0.0064
2845.77	0.01137
2855.42	0.01257
2865.07	0.01447
2874.71	0.01315
2884.36	0.00975
2894.01	0.00946
2903.65	0.01554
2913.3	0.03528
2922.95	0.05005
2932.59	0.02683
2942.24	0.01775
2951.89	0.01681
2961.53	0.01141
2971.18	0.01328
2980.83	0.01754
2990.47	0.01391
3000.12	0.00969
3009.77	0.00935
3019.41	0.01096
3029.06	0.01011
3038.71	0.00851
3048.35	0.01284
3058	0.02824
3067.64	0.03689
3077.29	0.02637
3086.94	0.01749
3096.58	0.00844
3106.23	0.00433
3115.88	0.0024362
3125.52	0.001667
3135.17	0.001612
3144.82	0.001603
3154.46	0.001217
3164.11	0.00057
3173.76	0.00032
3183.4	0.00023
3193.05	0.00022
3202.7	0.0003
3212.34	0.00033
3221.99	0.00038
3231.64	0.00026
3241.28	0.00015
3250.93	0.0002
3260.58	0.00017
3270.22	6e-05
3279.87	7e-05
3289.52	7e-05
3299.16	3e-05
3308.81	0.00025
3318.45	0.00012
3328.1	0.00012
3337.75	0.00022
3347.39	0.00018
3357.04	0.00034
3366.69	0.00031
3376.33	0.00028
3385.98	0.00029
3395.63	0.00023
3405.27	0.00021
3414.92	0.00031
3424.57	0.00024
3434.21	0.00029
3443.86	0.0004
3453.51	0.00039
3463.15	0.00043
3472.8	0.00031
3482.45	0.00046
3492.09	0.00038
3501.74	0.00036
3511.39	0.00032
3521.03	0.00054
3530.68	0.00034
3540.33	0.00043
3549.97	0.00053
3559.62	0.00042
3569.26	0.00062
3578.91	0.00055
3588.56	0.0006
3598.2	0.00066
3607.85	0.00066
3617.5	0.00072
3627.14	0.00083
3636.79	0.00077
3646.44	0.00084
3656.08	0.00082
3665.73	0.0007
3675.38	0.000919
3685.02	0.000864
3694.67	0.000898
3704.32	0.000918
3713.96	0.001048
3723.61	0.00085
3733.26	0.000983
3742.9	0.001179
3752.55	0.001012
3762.2	0.00102
3771.84	0.001016
3781.49	0.000922
3791.13	0.000923
3800.78	0.000966
3810.43	0.000954
3820.07	0.000909
3829.72	0.000943
3839.37	0.000904
3849.01	0.000959
3858.66	0.000935
3868.31	0.000867
3877.95	0.000931
3887.6	0.00097
3897.25	0.00085
3906.89	0.000901
3916.54	0.001037
3926.19	0.000935
3935.83	0.000939
3945.48	0.000872
3955.13	0.00085
3964.77	0.000915
3974.42	0.000921
3984.07	0.000979
3993.71	0.001
