Infrared Spectrum: 2-Chloro-4-nitrobenzoyl chloride
Formula: C 7 H 3 Cl 2 N O 3
CAS: 7073-36-1
State: gas
Origin: EPA-IR VAPOR PHASE LIBRARY
1/CM	ABSORBANCE
549.8	0.010852
559.445	0.011522
569.09	0.015342
578.734	0.013702
588.379	0.007052
598.024	0.003682
607.669	0.002702
617.313	0.002652
626.958	0.003132
636.603	0.005222
646.248	0.009722
655.893	0.014482
665.537	0.020562
675.182	0.010352
684.827	0.006242
694.472	0.006222
704.116	0.009202
713.761	0.015822
723.406	0.018432
733.051	0.023632
742.695	0.037812
752.34	0.036712
761.985	0.033692
771.63	0.015712
781.275	0.008292
790.919	0.007692
800.564	0.011152
810.209	0.020002
819.854	0.052042
829.498	0.125082
839.143	0.141452
848.788	0.163222
858.433	0.077182
868.078	0.027702
877.722	0.017302
887.367	0.021142
897.012	0.035472
906.657	0.043872
916.301	0.043132
925.946	0.025962
935.591	0.012832
945.236	0.007962
954.88	0.005892
964.525	0.004722
974.17	0.003872
983.815	0.002952
993.46	0.002412
1003.1	0.002322
1012.75	0.002352
1022.39	0.002252
1032.04	0.002872
1041.68	0.005282
1051.33	0.010182
1060.97	0.011812
1070.62	0.006222
1080.26	0.004522
1089.91	0.003632
1099.55	0.005122
1109.2	0.009312
1118.84	0.019412
1128.49	0.020202
1138.13	0.019012
1147.78	0.017522
1157.42	0.015352
1167.07	0.020482
1176.71	0.036932
1186.36	0.076692
1196	0.071912
1205.64	0.026172
1215.29	0.012412
1224.93	0.006942
1234.58	0.006302
1244.22	0.007052
1253.87	0.009392
1263.51	0.008662
1273.16	0.011352
1282.8	0.014082
1292.45	0.010022
1302.09	0.007692
1311.74	0.010212
1321.38	0.016802
1331.03	0.035012
1340.67	0.091812
1350.32	0.120582
1359.96	0.063942
1369.61	0.034342
1379.25	0.029132
1388.9	0.023862
1398.54	0.014242
1408.18	0.009012
1417.83	0.006462
1427.47	0.005892
1437.12	0.006702
1446.76	0.008562
1456.41	0.011692
1466.05	0.016432
1475.7	0.016062
1485.34	0.012212
1494.99	0.014082
1504.63	0.019772
1514.28	0.024652
1523.92	0.037152
1533.57	0.075822
1543.21	0.147942
1552.86	0.138362
1562.5	0.060902
1572.15	0.039242
1581.79	0.043782
1591.44	0.039522
1601.08	0.023282
1610.73	0.011862
1620.37	0.007222
1630.01	0.006392
1639.66	0.005962
1649.3	0.004952
1658.95	0.004322
1668.59	0.004152
1678.24	0.004302
1687.88	0.004192
1697.53	0.004352
1707.17	0.004722
1716.82	0.006032
1726.46	0.008652
1736.11	0.012252
1745.75	0.015992
1755.4	0.021112
1765.04	0.028002
1774.69	0.038522
1784.33	0.060212
1793.98	0.110832
1803.62	0.124582
1813.27	0.068562
1822.91	0.037242
1832.55	0.021392
1842.2	0.011412
1851.84	0.006512
1861.49	0.004562
1871.13	0.003222
1880.78	0.002252
1890.42	0.002062
1900.07	0.002142
1909.71	0.002422
1919.36	0.002562
1929	0.001882
1938.65	0.001362
1948.29	0.0010869
1957.94	0.0010418
1967.58	0.0008895
1977.23	0.0008769
1986.87	0.0007959
1996.52	0.0006842
2006.16	0.0007529
2015.81	0.0007655
2025.45	0.000841
2035.1	0.0007856
2044.74	0.0006547
2054.38	0.0005344
2064.03	0.0005094
2073.67	0.0004296
2083.32	0.0004662
2092.96	0.0004796
2102.61	0.0005769
2112.25	0.000511
2121.9	0.0004534
2131.54	0.0003768
2141.19	0.0004176
2150.83	0.0003567
2160.48	0.0003125
2170.12	0.0003196
2179.77	0.0003085
2189.41	0.0003547
2199.06	0.0003117
2208.7	0.0003221
2218.35	0.0003248
2227.99	0.0003048
2237.64	0.000468
2247.28	0.0006036
2256.92	0.0004995
2266.57	0.0004785
2276.21	0.0005614
2285.86	0.00049
2295.5	0.0004441
2305.15	0.0005285
2314.79	0.000482
2324.44	0.0004495
2334.08	0.0003653
2343.73	0.0003464
2353.37	0.0004425
2363.02	0.0004948
2372.66	0.0006096
2382.31	0.0006629
2391.95	0.0006552
2401.6	0.000378
2411.24	0.0004336
2420.89	0.0004553
2430.53	0.0005153
2440.18	0.0007471
2449.82	0.0006937
2459.47	0.0006513
2469.11	0.0006604
2478.75	0.0005384
2488.4	0.0004607
2498.04	0.0003351
2507.69	0.0003242
2517.33	0.0004003
2526.98	0.0003501
2536.62	0.0003763
2546.27	0.0003446
2555.91	0.0004061
2565.56	0.0003405
2575.2	0.0003601
2584.85	0.0002794
2594.49	0.0002528
2604.14	0.0003044
2613.78	0.000304
2623.43	0.0002671
2633.07	0.0004895
2642.72	0.0006674
2652.36	0.0009222
2662.01	0.0009297
2671.65	0.001152
2681.29	0.001452
2690.94	0.001582
2700.58	0.001462
2710.23	0.001312
2719.87	0.001112
2729.52	0.000871
2739.16	0.0006167
2748.81	0.0004633
2758.45	0.0003655
2768.1	0.0004446
2777.74	0.0003443
2787.39	0.0004428
2797.03	0.0004247
2806.68	0.0005097
2816.32	0.00054
2825.97	0.000812
2835.61	0.0010467
2845.26	0.001332
2854.9	0.001672
2864.55	0.001802
2874.19	0.002112
2883.84	0.002442
2893.48	0.002312
2903.12	0.001612
2912.77	0.001392
2922.41	0.001542
2932.06	0.001442
2941.7	0.001312
2951.35	0.0010429
2960.99	0.001034
2970.64	0.0008469
2980.28	0.0007833
2989.93	0.0006154
2999.57	0.0007044
3009.22	0.0004153
3018.86	0.000763
3028.51	0.001152
3038.15	0.001332
3047.8	0.0009856
3057.44	0.0008257
3067.09	0.0009494
3076.73	0.001742
3086.38	0.003472
3096.02	0.005532
3105.67	0.007272
3115.31	0.004502
3124.95	0.001542
3134.6	0.0008648
3144.24	0.0004922
3153.89	0.0004982
3163.53	0.000345
3173.18	0.000422
3182.82	0.0004491
3192.47	0.0003299
3202.11	0.0003797
3211.76	0.0002245
3221.4	0.000321
3231.05	0.00019512
3240.69	0.0002214
3250.34	7.45e-05
3259.98	0.0003457
3269.63	0.0003432
3279.27	0.0003237
3288.92	0.00014208
3298.56	0.0002325
3308.21	0.0002755
3317.85	0.0003108
3327.49	0.0002313
3337.14	0.0002137
3346.78	0.00014129
3356.43	0.0002751
3366.07	0.0002466
3375.72	0.0001375
3385.36	0.0004183
3395.01	0.0003159
3404.65	0.0002754
3414.3	0.0003527
3423.94	0.0003029
3433.59	0.0002142
3443.23	0.0004946
3452.88	0.0004182
3462.52	0.0005024
3472.17	0.0005968
3481.81	0.0005813
3491.46	0.0005469
3501.1	0.0006484
3510.75	0.0006664
3520.39	0.000738
3530.04	0.0009228
3539.68	0.001222
3549.32	0.001552
3558.97	0.001552
3568.61	0.001542
3578.26	0.001722
3587.9	0.001682
3597.55	0.001572
3607.19	0.0010803
3616.84	0.0009413
3626.48	0.0006674
3636.13	0.0007964
3645.77	0.0004091
3655.42	0.0006243
3665.06	0.0005475
3674.71	0.0004706
3684.35	0.0004712
3694	0.0003758
3703.64	0.0003524
3713.29	0.0004403
3722.93	0.0003882
3732.58	0.0003284
3742.22	0.00033
3751.86	0.0005159
3761.51	0.0003823
3771.15	0.0004418
3780.8	0.0004778
3790.44	0.0004029
3800.09	0.0003861
3809.73	0.0002315
3819.38	0.0004528
3829.02	0.00018519
3838.67	0.0004259
3848.31	0.00019832
3857.96	0.000363
3867.6	0.0005034
3877.25	0.0002599
3886.89	0.000231
3896.54	0.00016247
3906.18	0.0003071
3915.83	0.0002688
3925.47	0.0002748
3935.12	0.0004514
3944.76	0.0005656
3954.41	0.0002326
3964.05	0.0003185
3973.69	0.0004357
3983.34	0.0003874
3992.98	0.0003498
