Infrared Spectrum: PURINE-6(1H)-ONE, 1-BENZYL-
Formula: C12 H10 N4 O
CAS: 7074-59-1
State: SOLID (0.9 mg / 650 mg KBr DISC)
Class: COBLENTZ III
Instrument: PERKIN-ELMER 21 (GRATING)
Instrument parameters: FILTER CHANGE ABOUT 1025 CM^-^1
Sampling: TRANSMISSION
Resolution: 2
Origin: SOUTHERN RESEARCH INSTITUTE
1/CM	TRANSMITTANCE
601	0.5857
610.032	0.6046
619.064	0.6017
628.095	0.576
637.127	0.5323
646.159	0.5883
655.191	0.6508
664.222	0.6423
673.254	0.623
682.286	0.5775
691.318	0.3843
700.35	0.4797
709.381	0.6424
718.413	0.6227
727.445	0.6032
736.477	0.494
745.508	0.6187
754.54	0.7075
763.572	0.7134
772.604	0.6996
781.635	0.625
790.667	0.5142
799.699	0.6454
808.731	0.6408
817.763	0.6121
826.794	0.5703
835.826	0.6934
844.858	0.7062
853.89	0.7306
862.921	0.7338
871.953	0.7231
880.985	0.7235
890.017	0.7248
899.049	0.7347
908.08	0.7458
917.112	0.7415
926.144	0.7222
935.176	0.6758
944.207	0.6085
953.239	0.5676
962.271	0.709
971.303	0.7784
980.335	0.785
989.366	0.7715
998.398	0.7652
1007.43	0.7685
1016.46	0.7773
1025.49	0.7888
1034.53	0.7282
1043.56	0.7542
1052.59	0.7446
1061.62	0.7264
1070.65	0.686
1079.68	0.5918
1088.72	0.6592
1097.75	0.6007
1106.78	0.5146
1115.81	0.5034
1124.84	0.4984
1133.87	0.5459
1142.91	0.6469
1151.94	0.6437
1160.97	0.6882
1170	0.68
1179.03	0.5635
1188.07	0.4631
1197.1	0.5579
1206.13	0.4651
1215.16	0.5865
1224.19	0.438
1233.22	0.4796
1242.26	0.7446
1251.29	0.7573
1260.32	0.7273
1269.35	0.7199
1278.38	0.7193
1287.41	0.7007
1296.45	0.6795
1305.48	0.652
1314.51	0.6471
1323.54	0.5871
1332.57	0.5123
1341.61	0.5698
1350.64	0.4735
1359.67	0.3656
1368.7	0.4855
1377.73	0.5175
1386.76	0.4525
1395.8	0.3954
1404.83	0.2994
1413.86	0.4867
1422.89	0.647
1431.92	0.6122
1440.95	0.4738
1449.99	0.5164
1459.02	0.6183
1468.05	0.7593
1477.08	0.744
1486.11	0.6946
1495.15	0.5626
1504.18	0.569
1513.21	0.5102
1522.24	0.5124
1531.27	0.5544
1540.3	0.4035
1549.34	0.6699
1558.37	0.6331
1567.4	0.5646
1576.43	0.445
1585.46	0.3812
1594.5	0.524
1603.53	0.6025
1612.56	0.5949
1621.59	0.5565
1630.62	0.4903
1639.65	0.432
1648.69	0.3839
1657.72	0.3227
1666.75	0.2549
1675.78	0.1174
1684.81	0.0411
1693.84	0.0659
1702.88	0.2027
1711.91	0.3397
1720.94	0.4767
1729.97	0.6674
1739	0.7609
1748.04	0.7912
1757.07	0.8175
1766.1	0.8464
1775.13	0.8697
1784.16	0.8821
1793.19	0.8946
1802.23	0.9022
1811.26	0.9087
1820.29	0.9131
1829.32	0.9147
1838.35	0.9207
1847.38	0.9168
1856.42	0.9138
1865.45	0.907
1874.48	0.8986
1883.51	0.8916
1892.54	0.8873
1901.58	0.8874
1910.61	0.8889
1919.64	0.8887
1928.67	0.8884
1937.7	0.8883
1946.73	0.8882
1955.77	0.8883
1964.8	0.8884
1973.83	0.8882
1982.86	0.8877
1991.89	0.8866
2000.92	0.8848
2009.96	0.8831
2018.99	0.8811
2028.02	0.8789
2037.05	0.8768
2046.08	0.8745
2055.12	0.8712
2064.15	0.8677
2073.18	0.8643
2082.21	0.8616
2091.24	0.8584
2100.27	0.8554
2109.31	0.8529
2118.34	0.8505
2127.37	0.8474
2136.4	0.845
2145.43	0.8432
2154.47	0.8411
2163.5	0.839
2172.53	0.8361
2181.56	0.8328
2190.59	0.8294
2199.62	0.8261
2208.66	0.8232
2217.69	0.8211
2226.72	0.819
2235.75	0.8169
2244.78	0.8149
2253.81	0.8128
2262.85	0.8107
2271.88	0.8076
2280.91	0.8024
2289.94	0.7969
2298.97	0.7923
2308.01	0.7897
2317.04	0.7897
2326.07	0.79
2335.1	0.7902
2344.13	0.7898
2353.16	0.7893
2362.2	0.788
2371.23	0.7818
2380.26	0.7717
2389.29	0.7625
2398.32	0.7603
2407.35	0.7594
2416.39	0.7588
2425.42	0.7581
2434.45	0.7569
2443.48	0.755
2452.51	0.7527
2461.55	0.7488
2470.58	0.744
2479.61	0.7393
2488.64	0.7323
2497.67	0.7245
2506.7	0.7181
2515.74	0.7127
2524.77	0.7082
2533.8	0.7051
2542.83	0.7012
2551.86	0.6986
2560.89	0.6965
2569.93	0.6944
2578.96	0.6933
2587.99	0.6923
2597.02	0.6894
2606.05	0.6827
2615.09	0.6763
2624.12	0.6725
2633.15	0.6662
2642.18	0.6596
2651.21	0.6535
2660.24	0.6494
2669.28	0.6454
2678.31	0.6421
2687.34	0.6397
2696.37	0.637
2705.4	0.6343
2714.44	0.6305
2723.47	0.6239
2732.5	0.6162
2741.53	0.6085
2750.56	0.6015
2759.59	0.5947
2768.63	0.5889
2777.66	0.5833
2786.69	0.5777
2795.72	0.5721
2804.75	0.5675
2813.78	0.5632
2822.82	0.5577
2831.85	0.5511
2840.88	0.548
2849.91	0.5456
2858.94	0.543
2867.98	0.5396
2877.01	0.5361
2886.04	0.5274
2895.07	0.5155
2904.1	0.5059
2913.13	0.5033
2922.17	0.5033
2931.2	0.5033
2940.23	0.503
2949.26	0.5029
2958.29	0.5029
2967.32	0.4996
2976.36	0.4916
2985.39	0.4824
2994.42	0.4726
3003.45	0.4624
3012.48	0.4513
3021.52	0.4376
3030.55	0.4203
3039.58	0.4012
3048.61	0.382
3057.64	0.3765
3066.67	0.405
3075.71	0.4388
3084.74	0.4362
3093.77	0.421
3102.8	0.4114
3111.83	0.4056
3120.86	0.4158
3129.9	0.4281
3138.93	0.4419
3147.96	0.4541
3156.99	0.4621
3166.02	0.4664
3175.06	0.4687
3184.09	0.47
3193.12	0.4702
3202.15	0.4707
3211.18	0.4715
3220.21	0.4722
3229.25	0.4728
3238.28	0.4734
3247.31	0.4739
3256.34	0.4745
3265.37	0.4751
3274.41	0.4754
3283.44	0.4757
3292.47	0.4762
3301.5	0.4785
3310.53	0.4826
3319.56	0.4885
3328.6	0.4997
3337.63	0.5114
3346.66	0.5214
3355.69	0.5311
3364.72	0.5399
3373.75	0.5426
3382.79	0.5414
3391.82	0.54
3400.85	0.5374
3409.88	0.5333
3418.91	0.5294
3427.95	0.5256
3436.98	0.5222
3446.01	0.5207
3455.04	0.5212
3464.07	0.5225
3473.1	0.5263
3482.14	0.5305
3491.17	0.5349
3500.2	0.5398
3509.23	0.545
3518.26	0.5517
3527.29	0.5591
3536.33	0.5681
3545.36	0.5772
3554.39	0.586
3563.42	0.5954
3572.45	0.6048
3581.49	0.6146
3590.52	0.6246
3599.55	0.637
3608.58	0.6498
3617.61	0.6628
3626.64	0.6759
3635.68	0.6878
3644.71	0.6993
3653.74	0.7107
3662.77	0.7176
3671.8	0.7215
3680.83	0.7251
3689.87	0.7283
3698.9	0.7292
3707.93	0.7294
3716.96	0.7291
3725.99	0.729
3735.03	0.7291
3744.06	0.729
3753.09	0.7288
3762.12	0.7286
3771.15	0.7283
3780.18	0.7281
3789.22	0.7283
3798.25	0.729
3807.28	0.7305
3816.31	0.7322
3825.34	0.7299
3834.38	0.725
3843.41	0.719
3852.44	0.7139
3861.47	0.7127
3870.5	0.7121
3879.53	0.7113
3888.57	0.7099
3897.6	0.7089
3906.63	0.7083
3915.66	0.7056
3924.69	0.7027
3933.72	0.6996
3942.76	0.6969
3951.79	0.6943
3960.82	0.6914
3969.85	0.6885
3978.88	0.6864
3987.92	0.6851
3996.95	0.6859
4005.98	0.6874
