Infrared Spectrum: 1,3-DI-(1-CARBETHOXY-3-METHYLBUTYL) UREA
Formula: C17 H32 N2 O5
CAS: 70779-90-7
State: SOLID (KBr PRESSING)
Melting point: 113 C
Class: COBLENTZ
Instrument: Not specified, most likely a prism, grating, or hybrid spectrometer.
Sampling: TRANSMISSION
Resolution: 4
Origin: EASTMAN KODAK COMPANY, RESEARCH LABORATORIES, ROCHESTER, N.Y.
MICROMETERS	TRANSMITTANCE
2.204	0.709
2.2391	0.706
2.27421	0.708
2.30931	0.709
2.34442	0.709
2.37952	0.715
2.41463	0.718
2.44973	0.72
2.48484	0.72
2.51994	0.72
2.55505	0.723
2.59015	0.729
2.62525	0.73
2.66036	0.734
2.69546	0.727
2.73057	0.69
2.76567	0.625
2.80078	0.582
2.83588	0.531
2.87099	0.501
2.90609	0.452
2.9412	0.29
2.9763	0.176
3.01141	0.332
3.04651	0.596
3.08161	0.662
3.11672	0.692
3.15182	0.708
3.18693	0.72
3.22203	0.72
3.25714	0.716
3.29224	0.68
3.32735	0.421
3.36245	0.187
3.39756	0.321
3.43266	0.589
3.46776	0.501
3.50287	0.765
3.53797	0.781
3.57308	0.804
3.60818	0.809
3.64329	0.812
3.67839	0.816
3.7135	0.826
3.7486	0.83
3.78371	0.833
3.81881	0.837
3.85392	0.839
3.88902	0.84
3.92412	0.842
3.95923	0.846
3.99433	0.851
4.02944	0.853
4.06454	0.854
4.09965	0.854
4.13475	0.853
4.16986	0.853
4.20496	0.854
4.24007	0.854
4.27517	0.854
4.31027	0.856
4.34538	0.858
4.38048	0.858
4.41559	0.86
4.45069	0.861
4.4858	0.861
4.5209	0.861
4.55601	0.861
4.59111	0.86
4.62622	0.86
4.66132	0.86
4.69643	0.86
4.73153	0.86
4.76663	0.86
4.80174	0.856
4.83684	0.86
4.87195	0.856
4.90705	0.856
4.94216	0.854
4.97726	0.854
5.01237	0.854
5.04747	0.854
5.08258	0.854
5.11768	0.854
5.15278	0.853
5.18789	0.851
5.22299	0.842
5.2581	0.839
5.2932	0.837
5.32831	0.835
5.36341	0.828
5.39852	0.825
5.43362	0.823
5.46873	0.802
5.50383	0.779
5.53894	0.767
5.57404	0.751
5.60914	0.706
5.64425	0.657
5.67935	0.395
5.71446	0.127
5.74956	0.346
5.78467	0.442
5.81977	0.328
5.85488	0.089
5.88998	0.293
5.92509	0.571
5.96019	0.421
5.99529	0.145
6.0304	0.029
6.0655	0.202
6.10061	0.437
6.13571	0.505
6.17082	0.634
6.20592	0.697
6.24103	0.683
6.27613	0.634
6.31124	0.519
6.34634	0.41
6.38145	0.304
6.41655	0.255
6.45165	0.08
6.48676	0.12
6.52186	0.34
6.55697	0.451
6.59207	0.61
6.62718	0.643
6.66228	0.638
6.69739	0.582
6.73249	0.505
6.7676	0.513
6.8027	0.459
6.8378	0.59
6.87291	0.573
6.90801	0.559
6.94312	0.548
6.97822	0.704
7.01333	0.8
7.04843	0.805
7.08354	0.802
7.11864	0.767
7.15375	0.702
7.18885	0.62
7.22395	0.561
7.25906	0.603
7.29416	0.339
7.32927	0.442
7.36437	0.648
7.39948	0.709
7.43458	0.653
7.46969	0.631
7.50479	0.666
7.5399	0.718
7.575	0.673
7.61011	0.51
7.64521	0.396
7.68031	0.293
7.71542	0.246
7.75052	0.237
7.78563	0.243
7.82073	0.291
7.85584	0.363
7.89094	0.412
7.92605	0.356
7.96115	0.274
7.99626	0.354
8.03136	0.494
8.06646	0.498
8.10157	0.309
8.13667	0.482
8.17178	0.557
8.20688	0.454
8.24199	0.302
8.27709	0.188
8.3122	0.208
8.3473	0.335
8.38241	0.393
8.41751	0.328
8.45262	0.288
8.48772	0.402
8.52282	0.407
8.55793	0.384
8.59303	0.403
8.62814	0.263
8.66324	0.167
8.69835	0.319
8.73345	0.524
8.76856	0.624
8.80366	0.678
8.83877	0.652
8.87387	0.559
8.90897	0.634
8.94408	0.676
8.97918	0.662
9.01429	0.632
9.04939	0.629
9.0845	0.634
9.1196	0.653
9.15471	0.765
9.18981	0.811
9.22492	0.835
9.26002	0.861
9.29513	0.865
9.33023	0.865
9.36533	0.865
9.40044	0.847
9.43554	0.826
9.47065	0.788
9.50575	0.706
9.54086	0.559
9.57596	0.395
9.61107	0.351
9.64617	0.444
9.68128	0.451
9.71638	0.472
9.75148	0.482
9.78659	0.431
9.82169	0.578
9.8568	0.725
9.8919	0.776
9.92701	0.832
9.96211	0.86
9.99722	0.896
10.0323	0.909
10.0674	0.928
10.1025	0.933
10.1376	0.945
10.1727	0.947
10.2078	0.949
10.2429	0.949
10.2781	0.949
10.3132	0.949
10.3483	0.933
10.3834	0.912
10.4185	0.905
10.4536	0.907
10.4887	0.916
10.5238	0.919
10.5589	0.902
10.594	0.891
10.6291	0.874
10.6642	0.853
10.6993	0.795
10.7344	0.75
10.7695	0.793
10.8046	0.853
10.8397	0.882
10.8748	0.902
10.9099	0.933
10.945	0.954
10.9801	0.966
11.0152	0.968
11.0504	0.968
11.0855	0.972
11.1206	0.972
11.1557	0.972
11.1908	0.975
11.2259	0.973
11.261	0.97
11.2961	0.961
11.3312	0.949
11.3663	0.895
11.4014	0.797
11.4365	0.805
11.4716	0.874
11.5067	0.886
11.5418	0.882
11.5769	0.849
11.612	0.844
11.6471	0.875
11.6822	0.905
11.7173	0.928
11.7524	0.958
11.7876	0.959
11.8227	0.959
11.8578	0.968
11.8929	0.959
11.928	0.933
11.9631	0.888
11.9982	0.865
12.0333	0.917
12.0684	0.958
12.1035	0.965
12.1386	0.968
12.1737	0.968
12.2088	0.961
12.2439	0.952
12.279	0.954
12.3141	0.966
12.3492	0.97
12.3843	0.977
12.4194	0.979
12.4545	0.963
12.4896	0.961
12.5247	0.942
12.5599	0.919
12.595	0.919
12.6301	0.909
12.6652	0.888
12.7003	0.898
12.7354	0.907
12.7705	0.903
12.8056	0.893
12.8407	0.875
12.8758	0.837
12.9109	0.823
12.946	0.837
12.9811	0.879
13.0162	0.916
13.0513	0.933
13.0864	0.944
13.1215	0.945
13.1566	0.93
13.1917	0.921
13.2268	0.903
13.2619	0.877
13.297	0.872
13.3322	0.896
13.3673	0.928
13.4024	0.933
13.4375	0.935
13.4726	0.935
13.5077	0.933
13.5428	0.91
13.5779	0.889
13.613	0.874
13.6481	0.875
13.6832	0.889
13.7183	0.903
13.7534	0.907
13.7885	0.909
13.8236	0.903
13.8587	0.889
13.8938	0.868
13.9289	0.851
13.964	0.826
13.9991	0.795
14.0342	0.756
14.0693	0.729
14.1045	0.708
14.1396	0.699
14.1747	0.688
14.2098	0.702
14.2449	0.727
14.28	0.753
14.3151	0.777
14.3502	0.8
14.3853	0.818
14.4204	0.84
14.4555	0.854
14.4906	0.856
14.5257	0.856
14.5608	0.861
14.5959	0.868
14.631	0.868
14.6661	0.868
14.7012	0.865
14.7363	0.863
14.7714	0.863
14.8065	0.861
14.8416	0.858
14.8768	0.847
14.9119	0.833
14.947	0.804
14.9821	0.802
15.0172	0.83
15.0523	0.832
15.0874	0.819
15.1225	0.809
15.1576	0.8
15.1927	0.79
15.2278	0.784
15.2629	0.784
15.298	0.772
15.3331	0.767
15.3682	0.756
15.4033	0.748
15.4384	0.739
15.4735	0.732
15.5086	0.718
15.5437	0.711
15.5788	0.708
15.6139	0.702
15.6491	0.695
15.6842	0.681
15.7193	0.671
15.7544	0.657
15.7895	0.65
15.8246	0.643
15.8597	0.638
15.8948	0.627
15.9299	0.613
15.965	0.604
16.0001	0.597
