Infrared Spectrum: Acetophenone, 2,2,2,3'-tetrafluoro-
Formula: C8 H4 F4 O
CAS: 708-64-5
State: SOLUTION (10% CCl4 FOR 3800-1330, 10% CS2 FOR 1330-460 CM^-^1)
Class: COBLENTZ III
Instrument: DOW KBr FOREPRISM-GRATING
Instrument parameters: BLAZED AT 3.5, 12.0, 20.0 MICRON AND CHANGED AT 5.0, 7.5, 14.9 MICRON
Sampling: TRANSMISSION
Path length: 0.010 CM, 0.010 CM
Resolution: 2
Origin: DOW CHEMICAL COMPANY
1/CM	TRANSMITTANCE
461	0.7752
470	0.7761
479	0.7701
488	0.75
497	0.7584
506	0.7302
515	0.6469
524	0.7421
533	0.6871
542	0.8264
551	0.84
560	0.8498
569	0.8565
578	0.8625
587	0.8643
596	0.8616
605	0.8394
614	0.7935
623	0.8581
632	0.8766
641	0.8701
650	0.8295
659	0.6788
668	0.3945
677	0.4685
686	0.8235
695	0.8656
704	0.8633
713	0.8803
722	0.8747
731	0.8215
740	0.1525
749	0.5318
758	0.2571
767	0.717
776	0.8658
785	0.8643
794	0.8319
803	0.6633
812	0.8573
821	0.8581
830	0.7852
839	0.0917
848	0.5443
857	0.5565
866	0.3325
875	0.6429
884	0.6869
893	0.4184
902	0.8543
911	0.886
920	0.9097
929	0.9084
938	0.8969
947	0.9028
956	0.8989
965	0.8164
974	0.3417
983	0.5217
992	0.7894
1001	0.2891
1010	0.8854
1019	0.8953
1028	0.8984
1037	0.8774
1046	0.8792
1055	0.9031
1064	0.896
1073	0.8382
1082	0.8695
1091	0.8713
1100	0.8366
1109	0.7522
1118	0.6111
1127	0.3742
1136	0.0221
1145	0.0021
1154	0.0172
1163	0.0926
1172	0.3353
1181	0.3946
1190	0.2117
1199	0.0034
1208	0.0832
1217	0.3484
1226	0.1218
1235	0.0384
1244	0.0733
1253	0.5478
1262	0.6144
1271	0.7833
1280	0.6546
1289	0.8125
1298	0.8168
1307	0.7748
1316	0.6514
1325	0.7545
1334	0.6063
1343	0.4384
1352	0.773
1361	0.8287
1370	0.8466
1379	0.8514
1388	0.8409
1397	0.8374
1406	0.8147
1415	0.8294
1424	0.7686
1433	0.758
1442	0.4631
1451	0.142
1460	0.7115
1469	0.7395
1478	0.7088
1487	0.3501
1496	0.4831
1505	0.6664
1514	0.6522
1523	0.6099
1532	0.5644
1541	0.5031
1550	0.4608
1559	0.4856
1568	0.5363
1577	0.4674
1586	0.1441
1595	0.2295
1604	0.5906
1613	0.5788
1622	0.7638
1631	0.8343
1640	0.8363
1649	0.8298
1658	0.8222
1667	0.8051
1676	0.7986
1685	0.7499
1694	0.7723
1703	0.7504
1712	0.6031
1721	0.0193
1730	0.1232
1739	0.3929
1748	0.6447
1757	0.756
1766	0.8182
1775	0.8398
1784	0.8341
1793	0.8449
1802	0.8498
1811	0.8532
1820	0.8574
1829	0.8598
1838	0.863
1847	0.8657
1856	0.8669
1865	0.8652
1874	0.8544
1883	0.837
1892	0.8506
1901	0.8694
1910	0.8741
1919	0.8771
1928	0.8788
1937	0.8625
1946	0.8468
1955	0.8612
1964	0.8711
1973	0.8654
1982	0.868
1991	0.8717
2000	0.8988
2009	0.9016
2018	0.9028
2027	0.9047
2036	0.9076
2045	0.9088
2054	0.9097
2063	0.909
2072	0.9084
2081	0.9078
2090	0.9113
2099	0.9069
2108	0.9069
2117	0.9069
2126	0.9074
2135	0.9078
2144	0.9083
2153	0.9088
2162	0.9096
2171	0.9105
2180	0.9113
2189	0.9122
2198	0.913
2207	0.9134
2216	0.9139
2225	0.9142
2234	0.9143
2243	0.9141
2252	0.9141
2261	0.906
2270	0.8988
2279	0.8911
2288	0.8847
2297	0.8817
2306	0.8838
2315	0.8885
2324	0.8952
2333	0.8974
2342	0.899
2351	0.9002
2360	0.9015
2369	0.9022
2378	0.903
2387	0.9036
2396	0.9035
2405	0.9027
2414	0.9018
2423	0.9016
2432	0.9013
2441	0.9003
2450	0.8979
2459	0.8954
2468	0.893
2477	0.8913
2486	0.8901
2495	0.8955
2504	0.9003
2513	0.903
2522	0.9015
2531	0.8991
2540	0.9006
2549	0.9028
2558	0.9012
2567	0.8967
2576	0.8963
2585	0.8963
2594	0.8964
2603	0.8973
2612	0.8987
2621	0.9002
2630	0.9013
2639	0.9023
2648	0.9022
2657	0.9018
2666	0.901
2675	0.9
2684	0.8992
2693	0.8982
2702	0.8984
2711	0.8991
2720	0.8986
2729	0.897
2738	0.8954
2747	0.8936
2756	0.8923
2765	0.8909
2774	0.8906
2783	0.8908
2792	0.8922
2801	0.8925
2810	0.892
2819	0.8914
2828	0.8904
2837	0.8882
2846	0.8844
2855	0.8804
2864	0.8795
2873	0.88
2882	0.8803
2891	0.8806
2900	0.8795
2909	0.8765
2918	0.8734
2927	0.8714
2936	0.8733
2945	0.8759
2954	0.8762
2963	0.8759
2972	0.8755
2981	0.8763
2990	0.8814
2999	0.884
3008	0.8812
3017	0.878
3026	0.8747
3035	0.871
3044	0.8663
3053	0.8594
3062	0.8539
3071	0.8489
3080	0.7901
3089	0.7402
3098	0.8061
3107	0.8551
3116	0.8606
3125	0.8618
3134	0.8695
3143	0.8755
3152	0.8781
3161	0.8789
3170	0.8785
3179	0.8779
3188	0.8769
3197	0.8757
3206	0.8756
3215	0.8762
3224	0.8782
3233	0.8809
3242	0.8823
3251	0.8825
3260	0.8817
3269	0.8805
3278	0.8791
3287	0.8778
3296	0.8768
3305	0.8759
3314	0.8749
3323	0.8738
3332	0.8727
3341	0.8716
3350	0.8705
3359	0.8693
3368	0.8683
3377	0.8672
3386	0.8662
3395	0.8651
3404	0.8633
3413	0.8607
3422	0.8515
3431	0.8301
3440	0.8172
3449	0.8336
3458	0.856
3467	0.8601
3476	0.8598
3485	0.8598
3494	0.8602
3503	0.8606
3512	0.8608
3521	0.8608
3530	0.8609
3539	0.8609
3548	0.8604
3557	0.859
3566	0.8544
3575	0.8403
3584	0.8304
3593	0.8348
3602	0.849
3611	0.8609
3620	0.8682
3629	0.8707
3638	0.8726
3647	0.8739
3656	0.8741
3665	0.8738
3674	0.8733
3683	0.872
3692	0.8719
3701	0.874
3710	0.8752
3719	0.8753
3728	0.8754
3737	0.8756
3746	0.8757
3755	0.8754
3764	0.8752
3773	0.8751
3782	0.8754
3791	0.8751
3800	0.8747
