Infrared Spectrum: 1,1,3,3,5-Pentamethylcyclohexane
Formula: C 11 H 22
CAS: 70810-19-4
State: gas
Instrument: HP-GC/MS/IRD
Origin: NIST Mass Spectrometry Data Center
1/CM	ABSORBANCE
550	0.0002058
562	0.0001617
574	0.0002107
586	0.0002009
598	0.000196
610	0.0001176
622	0.0001764
634	4.41e-05
646	7.84e-05
658	4.41e-05
670	0.0001274
682	0.0001176
694	0.000147
706	0.0001617
718	0.0001323
730	0.0001519
742	0.0001813
754	0.0001127
766	0.0002156
778	0.0001911
790	0.0001813
802	0.000147
814	0.0001274
826	0.0001421
838	0.0002156
850	0.0003773
862	0.0006174
874	0.0004116
886	0.0001813
898	0.0001568
910	0.0002107
922	0.0004263
934	0.0007595
946	0.0004361
958	0.0003724
970	0.0004802
982	0.0003969
994	0.0002058
1006	0.0001715
1018	0.0001078
1030	0.0001372
1042	0.0001764
1054	0.0002009
1066	0.0002695
1078	0.0001666
1090	0.0001666
1102	0.0001372
1114	0.0001764
1126	0.0002695
1138	0.0005586
1150	0.0005978
1162	0.0006468
1174	0.0004949
1186	0.0005145
1198	0.0006223
1210	0.0008575
1222	0.0008575
1234	0.0009261
1246	0.0015974
1258	0.0012642
1270	0.0005586
1282	0.000539
1294	0.0007644
1306	0.0007693
1318	0.0006615
1330	0.0009163
1342	0.0016072
1354	0.003577
1366	0.0047775
1378	0.0047971
1390	0.0042532
1402	0.0017591
1414	0.0007987
1426	0.0012103
1438	0.0021119
1450	0.0041944
1462	0.0068355
1474	0.0051646
1486	0.0025872
1498	0.0010535
1510	0.0004851
1522	0.0002744
1534	0.0002107
1546	0.000196
1558	0.0001519
1570	0.0001617
1582	0.0001764
1594	0.0001764
1606	0.0001862
1618	0.0001911
1630	0.0001666
1642	0.0001666
1654	0.000147
1666	0.0001519
1678	0.0001568
1690	0.0001617
1702	0.0001421
1714	0.0001176
1726	9.8e-05
1738	9.8e-05
1750	0.0001078
1762	0.0001029
1774	9.8e-05
1786	8.82e-05
1798	9.31e-05
1810	6.86e-05
1822	9.31e-05
1834	8.82e-05
1846	7.84e-05
1858	7.84e-05
1870	7.35e-05
1882	7.84e-05
1894	4.41e-05
1906	4.9e-05
1918	5.88e-05
1930	5.39e-05
1942	4.9e-05
1954	2.94e-05
1966	2.94e-05
1978	9.8e-06
1990	3.92e-05
2002	3.43e-05
2014	3.92e-05
2026	4.41e-05
2038	2.45e-05
2050	3.92e-05
2062	2.45e-05
2074	4.41e-05
2086	1.96e-05
2098	0
2110	2.45e-05
2122	5.39e-05
2134	5.39e-05
2146	6.86e-05
2158	4.41e-05
2170	9.8e-06
2182	1.96e-05
2194	1.47e-05
2206	4.41e-05
2218	2.45e-05
2230	1.47e-05
2242	2.94e-05
2254	0
2266	3.43e-05
2278	1.96e-05
2290	3.43e-05
2302	4.41e-05
2314	1.47e-05
2326	1.47e-05
2338	9.8e-06
2350	2.94e-05
2362	1.47e-05
2374	2.45e-05
2386	3.43e-05
2398	4.9e-05
2410	5.88e-05
2422	8.33e-05
2434	7.35e-05
2446	0.0001127
2458	8.82e-05
2470	8.33e-05
2482	6.86e-05
2494	6.37e-05
2506	7.35e-05
2518	5.88e-05
2530	9.8e-05
2542	0.0001029
2554	0.0001274
2566	0.0001617
2578	0.0002009
2590	0.0002156
2602	0.0002254
2614	0.0002891
2626	0.0002891
2638	0.000294
2650	0.0003528
2662	0.0003822
2674	0.0004459
2686	0.000441
2698	0.0005292
2710	0.0006958
2722	0.0008575
2734	0.0008771
2746	0.0007938
2758	0.0007595
2770	0.0009163
2782	0.0011319
2794	0.0012642
2806	0.0017738
2818	0.0029008
2830	0.0058408
2842	0.0103537
2854	0.0097118
2866	0.013132
2878	0.0195216
2890	0.0250586
2902	0.0345205
2914	0.0325752
2926	0.0247793
2938	0.0238189
2950	0.0382641
2962	0.0443401
2974	0.0156996
2986	0.0081634
2998	0.0075656
3010	0.0042728
3022	0.0017346
3034	0.0010927
3046	0.0008869
3058	0.0007448
3070	0.0007987
3082	0.0008232
3094	0.0007889
3106	0.0006517
3118	0.0006272
3130	0.0006419
3142	0.0006223
3154	0.000588
3166	0.0005782
3178	0.0006419
3190	0.0005929
3202	0.0005586
3214	0.0003822
3226	0.0002744
3238	0.0002499
3250	0.0001715
3262	0.000147
3274	0.0001323
3286	0.0001421
3298	0.0001372
3310	0.0001029
3322	0.0001862
3334	0.0002009
3346	0.0002156
3358	0.0001666
3370	0.0001666
3382	0.0001764
3394	0.000147
3406	7.35e-05
3418	9.31e-05
3430	0.0001323
3442	0.0001421
3454	8.33e-05
3466	6.86e-05
3478	5.88e-05
3490	3.92e-05
3502	8.82e-05
3514	8.33e-05
3526	4.41e-05
3538	8.33e-05
3550	2.45e-05
3562	1.47e-05
3574	1.96e-05
3586	0
3598	5.88e-05
3610	4.9e-05
3622	8.33e-05
3634	4.41e-05
3646	5.88e-05
3658	2.94e-05
3670	6.86e-05
3682	8.82e-05
3694	4.9e-05
3706	7.84e-05
3718	7.84e-05
3730	5.88e-05
3742	0.0001078
3754	0.0001372
3766	0.0001078
3778	8.82e-05
3790	7.35e-05
3802	8.82e-05
3814	0.0001274
3826	9.31e-05
3838	0.0001225
