Infrared Spectrum: Purine, 2-azido-
Formula: C5 H3 N7
CAS: 7086-36-4
State: SOLID (0.5 mg / 650 mg KBr DISC)
Class: COBLENTZ III
Instrument: PERKIN-ELMER 21 (GRATING)
Instrument parameters: FILTER CHANGE ABOUT 1075 CM^-^1
Sampling: TRANSMISSION
Resolution: 2
Origin: SOUTHERN RESEARCH INSTITUTE
1/CM	TRANSMITTANCE
697.28	0.9815
706.315	0.9066
715.349	0.8134
724.384	0.912
733.418	0.8982
742.453	0.8732
751.488	0.8482
760.522	0.8166
769.557	0.7799
778.591	0.7334
787.626	0.673
796.661	0.38
805.695	0.4677
814.73	0.5643
823.764	0.513
832.799	0.468
841.834	0.4953
850.868	0.5534
859.903	0.6613
868.938	0.7185
877.972	0.7358
887.007	0.7376
896.041	0.7342
905.076	0.7178
914.111	0.6856
923.145	0.5783
932.18	0.6326
941.214	0.5873
950.249	0.5562
959.284	0.509
968.318	0.7501
977.353	0.8084
986.387	0.8089
995.422	0.8086
1004.46	0.8058
1013.49	0.8002
1022.53	0.7934
1031.56	0.7867
1040.6	0.7819
1049.63	0.7808
1058.66	0.7834
1067.7	0.7974
1076.73	0.7608
1085.77	0.7304
1094.8	0.7149
1103.84	0.7056
1112.87	0.6954
1121.91	0.6831
1130.94	0.661
1139.98	0.5546
1149.01	0.5618
1158.04	0.3865
1167.08	0.1805
1176.11	0.5378
1185.15	0.6319
1194.18	0.5853
1203.22	0.3209
1212.25	0.4909
1221.29	0.5138
1230.32	0.4914
1239.36	0.4064
1248.39	0.4285
1257.43	0.3553
1266.46	0.2974
1275.49	0.3304
1284.53	0.1295
1293.56	0.3388
1302.6	0.5028
1311.63	0.4727
1320.67	0.2668
1329.7	0.1122
1338.74	0.47
1347.77	0.6874
1356.81	0.6471
1365.84	0.483
1374.88	0.3158
1383.91	0.1879
1392.94	0.0636
1401.98	0.2069
1411.01	0.2928
1420.05	0.3238
1429.08	0.3278
1438.12	0.6972
1447.15	0.707
1456.19	0.5675
1465.22	0.273
1474.26	0.7133
1483.29	0.5028
1492.33	0.3008
1501.36	0.7357
1510.39	0.825
1519.43	0.8105
1528.46	0.787
1537.5	0.7596
1546.53	0.7445
1555.57	0.5503
1564.6	0.2822
1573.64	0.5587
1582.67	0.5813
1591.71	0.6181
1600.74	0.45
1609.78	0.2684
1618.81	0.4521
1627.84	0.5671
1636.88	0.6905
1645.91	0.7271
1654.95	0.7573
1663.98	0.7655
1673.02	0.7567
1682.05	0.7426
1691.09	0.7401
1700.12	0.7417
1709.16	0.75
1718.19	0.7635
1727.23	0.7659
1736.26	0.7658
1745.29	0.7653
1754.33	0.763
1763.36	0.7637
1772.4	0.7615
1781.43	0.7613
1790.47	0.7644
1799.5	0.7532
1808.54	0.7323
1817.57	0.7241
1826.61	0.7395
1835.64	0.7626
1844.68	0.758
1853.71	0.7536
1862.74	0.7587
1871.78	0.761
1880.81	0.7567
1889.85	0.752
1898.88	0.7484
1907.92	0.7447
1916.95	0.7409
1925.99	0.7376
1935.02	0.7345
1944.06	0.7299
1953.09	0.7232
1962.12	0.7155
1971.16	0.7074
1980.19	0.7001
1989.23	0.6941
1998.26	0.6869
2007.3	0.6788
2016.33	0.6694
2025.37	0.6564
2034.4	0.6412
2043.44	0.6248
2052.47	0.603
2061.51	0.5753
2070.54	0.5466
2079.57	0.5094
2088.61	0.4681
2097.64	0.4191
2106.68	0.3634
2115.71	0.2773
2124.75	0.1708
2133.78	0.1512
2142.82	0.1638
2151.85	0.1595
2160.89	0.1938
2169.92	0.3005
2178.96	0.5018
2187.99	0.703
2197.02	0.7588
2206.06	0.7735
2215.09	0.7714
2224.13	0.7702
2233.16	0.7688
2242.2	0.7616
2251.23	0.7544
2260.27	0.7457
2269.3	0.7351
2278.34	0.7271
2287.37	0.7188
2296.41	0.7081
2305.44	0.6909
2314.47	0.6755
2323.51	0.6495
2332.54	0.6419
2341.58	0.6404
2350.61	0.6321
2359.65	0.6345
2368.68	0.639
2377.72	0.6333
2386.75	0.6171
2395.79	0.5879
2404.82	0.5701
2413.86	0.5695
2422.89	0.5706
2431.92	0.5639
2440.96	0.5588
2449.99	0.5553
2459.03	0.55
2468.06	0.5415
2477.1	0.5325
2486.13	0.5234
2495.17	0.514
2504.2	0.5061
2513.24	0.4954
2522.27	0.4796
2531.31	0.4654
2540.34	0.4525
2549.37	0.4407
2558.41	0.4287
2567.44	0.4159
2576.48	0.4062
2585.51	0.4051
2594.55	0.4064
2603.58	0.4084
2612.62	0.4153
2621.65	0.4174
2630.69	0.4177
2639.72	0.4132
2648.76	0.3991
2657.79	0.3596
2666.82	0.35
2675.86	0.3415
2684.89	0.3347
2693.93	0.3379
2702.96	0.3329
2712	0.3255
2721.03	0.3283
2730.07	0.3188
2739.1	0.3169
2748.14	0.31
2757.17	0.3267
2766.21	0.3201
2775.24	0.2894
2784.27	0.2853
2793.31	0.2825
2802.34	0.2805
2811.38	0.287
2820.41	0.2982
2829.45	0.3299
2838.48	0.3533
2847.52	0.3674
2856.55	0.3744
2865.59	0.3878
2874.62	0.3939
2883.65	0.3887
2892.69	0.3908
2901.72	0.3978
2910.76	0.4133
2919.79	0.423
2928.83	0.4127
2937.86	0.4009
2946.9	0.3993
2955.93	0.3901
2964.97	0.3547
2974	0.3169
2983.04	0.3094
2992.07	0.3117
3001.1	0.328
3010.14	0.3321
3019.17	0.3507
3028.21	0.3738
3037.24	0.3941
3046.28	0.3937
3055.31	0.3932
3064.35	0.3949
3073.38	0.4065
3082.42	0.408
3091.45	0.409
3100.49	0.4102
3109.52	0.429
3118.55	0.4901
3127.59	0.5375
3136.62	0.5677
3145.66	0.5733
3154.69	0.5792
3163.73	0.5798
3172.76	0.5838
3181.8	0.5885
3190.83	0.5898
3199.87	0.5922
3208.9	0.5997
3217.94	0.5959
3226.97	0.5892
3236	0.5818
3245.04	0.5811
3254.07	0.5796
3263.11	0.5789
3272.14	0.5831
3281.18	0.5804
3290.21	0.5752
3299.25	0.5719
3308.28	0.5703
3317.32	0.5685
3326.35	0.5596
3335.39	0.5491
3344.42	0.5565
3353.45	0.5439
3362.49	0.534
3371.52	0.5185
3380.56	0.5065
3389.59	0.5062
3398.63	0.5069
3407.66	0.5041
3416.7	0.5032
3425.73	0.4921
3434.77	0.4956
3443.8	0.49
3452.84	0.4878
3461.87	0.4952
3470.9	0.5047
3479.94	0.5093
3488.97	0.5136
3498.01	0.5133
3507.04	0.5136
3516.08	0.5241
3525.11	0.5218
3534.15	0.5236
3543.18	0.5136
3552.22	0.5167
3561.25	0.5369
3570.29	0.5463
3579.32	0.5521
3588.35	0.5553
3597.39	0.5568
3606.42	0.5573
3615.46	0.5575
3624.49	0.5578
3633.53	0.5571
3642.56	0.5561
3651.6	0.553
3660.63	0.5499
3669.67	0.5462
3678.7	0.5421
3687.73	0.5514
3696.77	0.548
3705.8	0.5466
3714.84	0.5443
3723.87	0.5427
3732.91	0.5334
3741.94	0.5307
3750.98	0.5409
3760.01	0.5438
3769.05	0.541
3778.08	0.5379
3787.12	0.535
3796.15	0.5321
3805.18	0.5296
3814.22	0.5273
3823.25	0.5253
3832.29	0.5234
3841.32	0.5214
3850.36	0.5201
3859.39	0.5201
3868.43	0.5211
3877.46	0.5219
3886.5	0.522
3895.53	0.521
3904.57	0.5096
3913.6	0.5101
3922.63	0.5114
3931.67	0.5185
3940.7	0.5208
3949.74	0.5177
3958.77	0.5129
3967.81	0.5098
3976.84	0.507
3985.88	0.513
3994.91	0.5135
4003.95	0.5125
4012.98	0.5101
