Infrared Spectrum: 2-BUTENE-1,4-DISULFONIC ACID, DIMETHYL ESTER (CIS AND TRANS)
Formula: C6 H12 O6 S2
CAS: 70886-56-5
State: SOLID (1.6 mg / 650 mg KBr DISC)
Class: COBLENTZ III
Instrument: PERKIN-ELMER 21 (GRATING)
Instrument parameters: FILTER CHANGE AT ABOUT 1090 CM^-^1
Sampling: TRANSMISSION
Resolution: 2
Origin: SOUTHERN RESEARCH INSTITUTE
1/CM	TRANSMITTANCE
601.177	0.892
609.406	0.892
617.635	0.887
625.865	0.873
634.094	0.8671
642.323	0.8401
650.552	0.8133
658.782	0.7933
667.011	0.7871
675.24	0.7584
683.469	0.7286
691.699	0.7104
699.928	0.6984
708.157	0.6751
716.386	0.6188
724.616	0.4994
732.845	0.4614
741.074	0.5521
749.303	0.5634
757.532	0.4699
765.762	0.43
773.991	0.5244
782.22	0.5237
790.449	0.4545
798.679	0.5205
806.908	0.5073
815.137	0.47
823.366	0.3997
831.596	0.3172
839.825	0.2084
848.054	0.108
856.283	0.1153
864.513	0.2767
872.742	0.4808
880.971	0.5314
889.2	0.5052
897.43	0.4746
905.659	0.3648
913.888	0.2446
922.117	0.1275
930.346	0.0798
938.576	0.0883
946.805	0.0954
955.034	0.1032
963.263	0.2056
971.493	0.3225
979.722	0.242
987.951	0.2339
996.18	0.1731
1004.41	0.2615
1012.64	0.2894
1020.87	0.3335
1029.1	0.4212
1037.33	0.449
1045.56	0.4256
1053.79	0.39
1062.01	0.4175
1070.24	0.5042
1078.47	0.5597
1086.7	0.5875
1094.93	0.5983
1103.16	0.497
1111.39	0.5289
1119.62	0.5274
1127.85	0.493
1136.08	0.4512
1144.31	0.4197
1152.54	0.2965
1160.77	0.2009
1168.99	0.0872
1177.22	0.0389
1185.45	0.0738
1193.68	0.141
1201.91	0.1602
1210.14	0.1722
1218.37	0.2075
1226.6	0.2573
1234.83	0.274
1243.06	0.2939
1251.29	0.3784
1259.52	0.4309
1267.75	0.4499
1275.97	0.4684
1284.2	0.493
1292.43	0.4858
1300.66	0.4638
1308.89	0.4365
1317.12	0.3633
1325.35	0.2636
1333.58	0.1803
1341.81	0.093
1350.04	0.07
1358.27	0.066
1366.5	0.1297
1374.73	0.2174
1382.95	0.249
1391.18	0.2638
1399.41	0.3442
1407.64	0.3859
1415.87	0.4002
1424.1	0.3582
1432.33	0.3793
1440.56	0.4552
1448.79	0.4985
1457.02	0.4953
1465.25	0.4978
1473.48	0.4923
1481.71	0.4997
1489.93	0.5452
1498.16	0.5676
1506.39	0.5798
1514.62	0.589
1522.85	0.5968
1531.08	0.602
1539.31	0.6067
1547.54	0.615
1555.77	0.621
1564	0.62
1572.23	0.6227
1580.46	0.626
1588.69	0.6247
1596.91	0.6223
1605.14	0.616
1613.37	0.6047
1621.6	0.5964
1629.83	0.5874
1638.06	0.584
1646.29	0.582
1654.52	0.582
1662.75	0.5827
1670.98	0.593
1679.21	0.5924
1687.44	0.5909
1695.67	0.5835
1703.89	0.579
1712.12	0.5805
1720.35	0.583
1728.58	0.589
1736.81	0.604
1745.04	0.6194
1753.27	0.6549
1761.5	0.6668
1769.73	0.676
1777.96	0.6784
1786.19	0.6928
1794.42	0.7062
1802.65	0.7114
1810.87	0.7184
1819.1	0.7244
1827.33	0.7246
1835.56	0.7353
1843.79	0.738
1852.02	0.738
1860.25	0.739
1868.48	0.7406
1876.71	0.742
1884.94	0.743
1893.17	0.7453
1901.4	0.752
1909.63	0.7518
1917.85	0.749
1926.08	0.7404
1934.31	0.75
1942.54	0.7484
1950.77	0.7462
1959	0.751
1967.23	0.75
1975.46	0.7522
1983.69	0.7561
1991.92	0.757
2000.15	0.76
2008.38	0.754
2016.61	0.759
2024.83	0.763
2033.06	0.758
2041.29	0.758
2049.52	0.7589
2057.75	0.758
2065.98	0.759
2074.21	0.7589
2082.44	0.758
2090.67	0.757
2098.9	0.756
2107.13	0.758
2115.36	0.758
2123.59	0.7602
2131.81	0.763
2140.04	0.764
2148.27	0.764
2156.5	0.76
2164.73	0.765
2172.96	0.7649
2181.19	0.7631
2189.42	0.765
2197.65	0.765
2205.88	0.764
2214.11	0.7639
2222.34	0.76
2230.57	0.76
2238.8	0.76
2247.02	0.759
2255.25	0.758
2263.48	0.7561
2271.71	0.759
2279.94	0.759
2288.17	0.7579
2296.4	0.7468
2304.63	0.7389
2312.86	0.7371
2321.09	0.744
2329.32	0.746
2337.55	0.746
2345.78	0.744
2354	0.742
2362.23	0.742
2370.46	0.743
2378.69	0.742
2386.92	0.74
2395.15	0.74
2403.38	0.739
2411.61	0.7421
2419.84	0.744
2428.07	0.7439
2436.3	0.742
2444.53	0.739
2452.76	0.738
2460.98	0.7348
2469.21	0.7289
2477.44	0.7179
2485.67	0.709
2493.9	0.708
2502.13	0.7091
2510.36	0.7182
2518.59	0.73
2526.82	0.7351
2535.05	0.736
2543.28	0.737
2551.51	0.736
2559.74	0.7348
2567.96	0.7309
2576.19	0.7277
2584.42	0.725
2592.65	0.731
2600.88	0.732
2609.11	0.732
2617.34	0.73
2625.57	0.73
2633.8	0.73
2642.03	0.726
2650.26	0.725
2658.49	0.724
2666.72	0.724
2674.94	0.723
2683.17	0.722
2691.4	0.72
2699.63	0.719
2707.86	0.718
2716.09	0.719
2724.32	0.72
2732.55	0.72
2740.78	0.7159
2749.01	0.712
2757.24	0.71
2765.47	0.7029
2773.7	0.701
2781.92	0.6918
2790.15	0.683
2798.38	0.6808
2806.61	0.6708
2814.84	0.6618
2823.07	0.6509
2831.3	0.643
2839.53	0.642
2847.76	0.6409
2855.99	0.6349
2864.22	0.6289
2872.45	0.6158
2880.68	0.6039
2888.9	0.5988
2897.13	0.5884
2905.36	0.5607
2913.59	0.552
2921.82	0.553
2930.05	0.5624
2938.28	0.5774
2946.51	0.5975
2954.74	0.6104
2962.97	0.617
2971.2	0.6169
2979.43	0.6078
2987.66	0.5854
2995.88	0.5418
3004.11	0.4653
3012.34	0.4295
3020.57	0.4182
3028.8	0.4556
3037.03	0.5064
3045.26	0.5382
3053.49	0.5531
3061.72	0.5627
3069.95	0.5751
3078.18	0.5861
3086.41	0.5918
3094.64	0.589
3102.86	0.59
3111.09	0.59
3119.32	0.592
3127.55	0.592
3135.78	0.593
3144.01	0.597
3152.24	0.599
3160.47	0.599
3168.7	0.599
3176.93	0.6
3185.16	0.601
3193.39	0.601
3201.62	0.6
3209.84	0.6
3218.07	0.6
3226.3	0.5999
3234.53	0.5959
3242.76	0.5918
3250.99	0.5879
3259.22	0.584
3267.45	0.582
3275.68	0.579
3283.91	0.576
3292.14	0.5739
3300.37	0.57
3308.6	0.568
3316.83	0.5629
3325.05	0.556
3333.28	0.5526
3341.51	0.546
3349.74	0.5378
3357.97	0.5308
3366.2	0.524
3374.43	0.5189
3382.66	0.5139
3390.89	0.512
3399.12	0.513
3407.35	0.514
3415.58	0.516
3423.81	0.5201
3432.03	0.524
3440.26	0.5311
3448.49	0.5391
3456.72	0.5494
3464.95	0.5591
3473.18	0.5681
3481.41	0.5741
3489.64	0.5791
3497.87	0.5891
3506.1	0.6013
3514.33	0.6101
3522.56	0.6171
3530.79	0.6242
3539.01	0.629
3547.24	0.63
3555.47	0.6361
3563.7	0.6603
3571.93	0.669
3580.16	0.6741
3588.39	0.6963
3596.62	0.7051
3604.85	0.708
3613.08	0.708
3621.31	0.709
3629.54	0.709
3637.77	0.723
3645.99	0.726
3654.22	0.726
3662.45	0.7264
3670.68	0.7371
3678.91	0.74
3687.14	0.742
3695.37	0.738
3703.6	0.733
3711.83	0.731
3720.06	0.729
3728.29	0.726
3736.52	0.725
3744.75	0.7332
3752.97	0.738
3761.2	0.7329
3769.43	0.7332
3777.66	0.7391
3785.89	0.739
3794.12	0.738
3802.35	0.739
