Infrared Spectrum: 2,4-Dinitroiodobenzene
Formula: C 6 H 3 I N 2 O 4
CAS: 709-49-9
State: gas
Origin: EPA-IR VAPOR PHASE LIBRARY
1/CM	ABSORBANCE
501.5	0.00038246
513.074	0.0004813
524.648	0.0006894
536.222	0.0004842
547.796	0.00035092
559.37	0.0004584
570.944	0.0004723
582.518	0.0004925
594.092	0.00036438
605.666	0.00040784
617.24	0.0004222
628.814	0.00034017
640.388	0.0004934
651.962	0.002402
663.536	0.002362
675.11	0.0009809
686.684	0.001193
698.258	0.0012347
709.832	0.002212
721.406	0.010932
732.98	0.025482
744.554	0.010592
756.128	0.003932
767.702	0.001832
779.276	0.0012131
790.85	0.001342
802.423	0.001582
813.997	0.003072
825.571	0.020952
837.145	0.020242
848.719	0.002982
860.293	0.001542
871.867	0.001692
883.441	0.002812
895.015	0.007642
906.589	0.017982
918.163	0.008862
929.737	0.002072
941.311	0.0010447
952.885	0.0007622
964.459	0.0007147
976.033	0.000721
987.607	0.0008056
999.181	0.001442
1010.76	0.004882
1022.33	0.020252
1033.9	0.007692
1045.48	0.001602
1057.05	0.0009479
1068.63	0.0010968
1080.2	0.002042
1091.77	0.002342
1103.35	0.0010873
1114.92	0.0011714
1126.49	0.002082
1138.07	0.001672
1149.64	0.001902
1161.22	0.0012827
1172.79	0.0012169
1184.36	0.001412
1195.94	0.0011619
1207.51	0.0010754
1219.09	0.0010348
1230.66	0.001832
1242.23	0.006452
1253.81	0.005532
1265.38	0.002882
1276.96	0.003432
1288.53	0.004492
1300.1	0.005652
1311.68	0.009182
1323.25	0.019202
1334.83	0.049342
1346.4	0.104212
1357.97	0.057892
1369.55	0.021092
1381.12	0.009442
1392.7	0.007702
1404.27	0.004902
1415.84	0.003972
1427.42	0.004012
1438.99	0.004992
1450.57	0.007582
1462.14	0.007822
1473.71	0.004902
1485.29	0.006582
1496.86	0.010772
1508.44	0.013202
1520.01	0.019002
1531.58	0.044212
1543.16	0.096502
1554.73	0.092322
1566.31	0.047712
1577.88	0.035802
1589.45	0.057752
1601.03	0.043882
1612.6	0.014832
1624.18	0.005792
1635.75	0.004542
1647.32	0.003452
1658.9	0.002292
1670.47	0.001692
1682.05	0.0012702
1693.62	0.0011035
1705.19	0.000806
1716.77	0.0005075
1728.34	0.0004306
1739.92	0.00041025
1751.49	0.0002824
1763.06	0.0002957
1774.64	0.00040613
1786.21	0.0007987
1797.79	0.0010849
1809.36	0.0009348
1820.93	0.000664
1832.51	0.00034693
1844.08	0.0002792
1855.66	0.00032733
1867.23	0.00031739
1878.8	0.0002875
1890.38	0.0002853
1901.95	0.00036263
1913.53	0.0006001
1925.1	0.0008964
1936.67	0.0005885
1948.25	0.000278
1959.82	0.000176
1971.4	0.000158
1982.97	0.000176
1994.54	0.000204
2006.12	0.000181
2017.69	0.000177
2029.27	0.000194
2040.84	0.000209
2052.41	0.0002382
2063.99	0.0002496
2075.56	0.000202
2087.14	0.000176
2098.71	0.000149
2110.28	0.000143
2121.86	0.000173
2133.43	0.000103
2145.01	0.000145
2156.58	0.000139
2168.15	0.000142
2179.73	0.000167
2191.3	0.000163
2202.88	0.000146
2214.45	0.000146
2226.02	0.000172
2237.6	0.0002
2249.17	0.0002344
2260.74	0.000213
2272.32	0.0002343
2283.89	0.000193
2295.47	0.000169
2307.04	0.000212
2318.61	0.000215
2330.19	0.0002241
2341.76	0.000209
2353.34	0.0002301
2364.91	0.000274
2376.48	0.00036846
2388.06	0.0002887
2399.63	0.0002681
2411.21	0.0002396
2422.78	0.0002874
2434.35	0.00033584
2445.93	0.0003411
2457.5	0.0003605
2469.08	0.00037782
2480.65	0.00036289
2492.22	0.00037217
2503.8	0.00035399
2515.37	0.0002898
2526.95	0.000305
2538.52	0.00031698
2550.09	0.0002953
2561.67	0.00034964
2573.24	0.0004274
2584.82	0.00038231
2596.39	0.0003105
2607.96	0.00033607
2619.54	0.00036056
2631.11	0.00031549
2642.69	0.0003353
2654.26	0.000466
2665.83	0.0006679
2677.41	0.0008635
2688.98	0.0009862
2700.56	0.000872
2712.13	0.0006162
2723.7	0.0005445
2735.28	0.0005462
2746.85	0.000462
2758.43	0.00032156
2770	0.0002604
2781.57	0.0002701
2793.15	0.00034826
2804.72	0.00037435
2816.3	0.000511
2827.87	0.000626
2839.44	0.0007702
2851.02	0.0009089
2862.59	0.0011903
2874.17	0.001752
2885.74	0.002202
2897.31	0.002132
2908.89	0.001582
2920.46	0.0011957
2932.04	0.0011433
2943.61	0.0009838
2955.18	0.0007174
2966.76	0.0005202
2978.33	0.00040305
2989.91	0.0003068
3001.48	0.00031567
3013.05	0.0003021
3024.63	0.0003522
3036.2	0.00036375
3047.78	0.0003012
3059.35	0.00039223
3070.92	0.0009475
3082.5	0.002602
3094.07	0.004632
3105.65	0.005012
3117.22	0.001532
3128.79	0.0006311
3140.37	0.00040561
3151.94	0.00031365
3163.52	0.000219
3175.09	0.0002755
3186.66	0.000216
3198.24	0.000209
3209.81	2.5e-05
3221.39	4.7e-05
3232.96	0.000121
3244.53	8.6e-05
3256.11	5.7e-05
3267.68	3.2e-05
3279.26	0
3290.83	8.9e-05
3302.4	6.5e-05
3313.98	8e-05
3325.55	2.2e-05
3337.13	1.7e-05
3348.7	6.3e-05
3360.27	5.7e-05
3371.85	4.8e-05
3383.42	4e-05
3395	4.5e-05
3406.57	7.5e-05
3418.14	7.7e-05
3429.72	4e-05
3441.29	8.6e-05
3452.86	7.8e-05
3464.44	7.2e-05
3476.01	1.3e-05
3487.59	8.6e-05
3499.16	0.000107
3510.73	7.1e-05
3522.31	6.6e-05
3533.88	4.5e-05
3545.46	3.1e-05
3557.03	5.1e-05
3568.6	9.2e-05
3580.18	6.4e-05
3591.75	0.000111
3603.33	0.0001
3614.9	0.00011
3626.47	7.4e-05
3638.05	9.2e-05
3649.62	9.1e-05
3661.2	0.000113
3672.77	7.7e-05
3684.34	0.000112
3695.92	0.0002
3707.49	0.000144
3719.07	0.000173
3730.64	0.000162
3742.21	0.000141
3753.79	0.00017
3765.36	0.00019
3776.94	0.000103
3788.51	0.000148
3800.08	0.000171
3811.66	0.000151
3823.23	0.000168
3834.81	9.8e-05
3846.38	0.000144
3857.95	9.2e-05
3869.53	0.00013
3881.1	9.5e-05
3892.68	8.4e-05
3904.25	7.4e-05
3915.82	9e-05
3927.4	0.000143
3938.97	8.1e-05
3950.55	0.000139
3962.12	0.000126
3973.69	0.000107
3985.27	0.000158
3996.84	9.7e-05
