Infrared Spectrum: Benzylamine, o-fluoro-N-methyl-N-2-propynyl-,
Formula: C11 H12 F N
CAS: 709-54-6
State: LIQUID (NEAT)
Class: COBLENTZ III
Instrument: PERKIN-ELMER 21 (GRATING)
Instrument parameters: FILTER AT ABOUT 10 MICRONS
Path length: CAPILLARY
Resolution: 2
Origin: ABBOTT LABORATORIES
1/CM	TRANSMITTANCE
667	0.5028
676	0.5633
685	0.6394
694	0.6822
703	0.6913
712	0.7082
721	0.7273
730	0.755
739	0.728
748	0.5753
757	0.1254
766	0.3987
775	0.5918
784	0.6272
793	0.7601
802	0.8022
811	0.7839
820	0.6915
829	0.624
838	0.7066
847	0.7456
856	0.7135
865	0.7586
874	0.8198
883	0.8204
892	0.7214
901	0.7034
910	0.811
919	0.8324
928	0.8193
937	0.734
946	0.7777
955	0.7921
964	0.7749
973	0.7228
982	0.749
991	0.81
1000	0.7962
1009	0.7519
1018	0.5549
1027	0.3702
1036	0.5408
1045	0.7474
1054	0.793
1063	0.8041
1072	0.8018
1081	0.7471
1090	0.5302
1099	0.5603
1108	0.7518
1117	0.6639
1126	0.5754
1135	0.6644
1144	0.7257
1153	0.7721
1162	0.7843
1171	0.6782
1180	0.6394
1189	0.6153
1198	0.6571
1207	0.7076
1216	0.551
1225	0.3445
1234	0.5065
1243	0.5351
1252	0.5656
1261	0.5809
1270	0.6631
1279	0.6726
1288	0.7125
1297	0.6845
1306	0.697
1315	0.6501
1324	0.5487
1333	0.6674
1342	0.7186
1351	0.6813
1360	0.5686
1369	0.5391
1378	0.7351
1387	0.7892
1396	0.796
1405	0.768
1414	0.6833
1423	0.6964
1432	0.6196
1441	0.5414
1450	0.3893
1459	0.4045
1468	0.5475
1477	0.623
1486	0.3341
1495	0.4685
1504	0.6989
1513	0.7693
1522	0.8079
1531	0.8284
1540	0.8333
1549	0.833
1558	0.8259
1567	0.8083
1576	0.7372
1585	0.5961
1594	0.6241
1603	0.8053
1612	0.7597
1621	0.7259
1630	0.8175
1639	0.8233
1648	0.8255
1657	0.8241
1666	0.8186
1675	0.8183
1684	0.8241
1693	0.8307
1702	0.8377
1711	0.8446
1720	0.8516
1729	0.857
1738	0.8614
1747	0.8637
1756	0.8657
1765	0.8659
1774	0.8658
1783	0.8644
1792	0.8591
1801	0.8573
1810	0.8604
1819	0.8667
1828	0.8695
1837	0.8697
1846	0.8698
1855	0.8696
1864	0.8692
1873	0.8685
1882	0.8673
1891	0.8661
1900	0.8608
1909	0.8539
1918	0.8517
1927	0.8566
1936	0.8601
1945	0.8577
1954	0.856
1963	0.8616
1972	0.8676
1981	0.8682
1990	0.8667
1999	0.8657
2008	0.8649
2017	0.8662
2026	0.8676
2035	0.869
2044	0.8702
2053	0.8714
2062	0.8715
2071	0.8715
2080	0.8706
2089	0.869
2098	0.8632
2107	0.8584
2116	0.8609
2125	0.8665
2134	0.8709
2143	0.8741
2152	0.8743
2161	0.8749
2170	0.8756
2179	0.8759
2188	0.876
2197	0.875
2206	0.8739
2215	0.8729
2224	0.8717
2233	0.8706
2242	0.8695
2251	0.8684
2260	0.8673
2269	0.8662
2278	0.8659
2287	0.8656
2296	0.8653
2305	0.8651
2314	0.865
2323	0.8649
2332	0.8649
2341	0.8649
2350	0.8649
2359	0.8649
2368	0.8649
2377	0.865
2386	0.865
2395	0.8651
2404	0.865
2413	0.8649
2422	0.8648
2431	0.8647
2440	0.8645
2449	0.8643
2458	0.8641
2467	0.8639
2476	0.8632
2485	0.8624
2494	0.8615
2503	0.8607
2512	0.8598
2521	0.8589
2530	0.858
2539	0.857
2548	0.8561
2557	0.8547
2566	0.8534
2575	0.8521
2584	0.8507
2593	0.8493
2602	0.8478
2611	0.8463
2620	0.8448
2629	0.8432
2638	0.8405
2647	0.8379
2656	0.8354
2665	0.8325
2674	0.8289
2683	0.8251
2692	0.8214
2701	0.8161
2710	0.8106
2719	0.8051
2728	0.7955
2737	0.7835
2746	0.7697
2755	0.7408
2764	0.6902
2773	0.6433
2782	0.5966
2791	0.5762
2800	0.5999
2809	0.6222
2818	0.6382
2827	0.6313
2836	0.6027
2845	0.5759
2854	0.5733
2863	0.5975
2872	0.6239
2881	0.6501
2890	0.6624
2899	0.6517
2908	0.6369
2917	0.6223
2926	0.6077
2935	0.5934
2944	0.5905
2953	0.6099
2962	0.6403
2971	0.6705
2980	0.7005
2989	0.7304
2998	0.7598
3007	0.7774
3016	0.7826
3025	0.7826
3034	0.7811
3043	0.7764
3052	0.7705
3061	0.7708
3070	0.7742
3079	0.7788
3088	0.7858
3097	0.7931
3106	0.8015
3115	0.8061
3124	0.8068
3133	0.8064
3142	0.8052
3151	0.8031
3160	0.7996
3169	0.7956
3178	0.7915
3187	0.7872
3196	0.7797
3205	0.7725
3214	0.7669
3223	0.7617
3232	0.7569
3241	0.7528
3250	0.7498
3259	0.7419
3268	0.6827
3277	0.6214
3286	0.5605
3295	0.5
3304	0.4695
3313	0.4694
3322	0.5288
3331	0.629
3340	0.7287
3349	0.7931
3358	0.8115
3367	0.8192
3376	0.8224
3385	0.8253
3394	0.8271
3403	0.8289
3412	0.8305
3421	0.8316
3430	0.8325
3439	0.8332
3448	0.8333
3457	0.8336
3466	0.8343
3475	0.8352
3484	0.8369
3493	0.8417
3502	0.8457
3511	0.8493
3520	0.8512
3529	0.8524
3538	0.8534
3547	0.8541
3556	0.8546
3565	0.8552
3574	0.8557
3583	0.8561
3592	0.8566
3601	0.8567
3610	0.8569
3619	0.8571
3628	0.8572
3637	0.8574
3646	0.8575
3655	0.8577
3664	0.8578
3673	0.8579
3682	0.8579
3691	0.8579
3700	0.8579
3709	0.8579
3718	0.8578
3727	0.8578
3736	0.8578
3745	0.8572
3754	0.8567
3763	0.8562
3772	0.8556
3781	0.8551
3790	0.8545
3799	0.8541
3808	0.8535
3817	0.8529
3826	0.8522
3835	0.8514
3844	0.8505
3853	0.8498
3862	0.849
3871	0.8482
3880	0.8474
3889	0.8468
3898	0.8461
3907	0.8455
3916	0.8449
3925	0.8444
3934	0.8449
3943	0.8455
3952	0.8463
3961	0.8471
3970	0.8478
3979	0.8488
3988	0.8496
3997	0.8505
