Infrared Spectrum: Benzylamine,2, N-dimethyl-N-2-propynyl-,
Formula: C12 H15 N
CAS: 709-53-5
State: LIQUID (NEAT)
Class: COBLENTZ III
Instrument: PERKIN-ELMER 21 (GRATING)
Instrument parameters: FILTER AT ABOUT 10 MICRONS
Path length: CAPILLARY
Resolution: 2
Origin: ABBOTT LABORATORIES
1/CM	TRANSMITTANCE
668	0.4104
677	0.5001
686	0.6376
695	0.7046
704	0.736
713	0.7055
722	0.7059
731	0.6106
740	0.1158
749	0.1753
758	0.4753
767	0.4485
776	0.6774
785	0.8124
794	0.8338
803	0.8442
812	0.8276
821	0.7348
830	0.5952
839	0.6204
848	0.6918
857	0.7075
866	0.6976
875	0.7668
884	0.7634
893	0.5966
902	0.6065
911	0.7498
920	0.8199
929	0.8066
938	0.6582
947	0.7172
956	0.7374
965	0.6997
974	0.5932
983	0.6191
992	0.7613
1001	0.7822
1010	0.6942
1019	0.356
1028	0.2223
1037	0.4038
1046	0.5546
1055	0.6717
1064	0.8118
1073	0.8252
1082	0.8175
1091	0.7725
1100	0.622
1109	0.5442
1118	0.5641
1127	0.3611
1136	0.5487
1145	0.7001
1154	0.7326
1163	0.7824
1172	0.7233
1181	0.6458
1190	0.6002
1199	0.6841
1208	0.7514
1217	0.7226
1226	0.7466
1235	0.6784
1244	0.5721
1253	0.5732
1262	0.5718
1271	0.6081
1280	0.6356
1289	0.625
1298	0.6053
1307	0.6186
1316	0.5355
1325	0.3742
1334	0.4947
1343	0.6522
1352	0.5508
1361	0.3958
1370	0.4779
1379	0.6023
1388	0.7398
1397	0.7492
1406	0.6893
1415	0.5551
1424	0.5152
1433	0.4207
1442	0.3884
1451	0.3338
1460	0.2609
1469	0.3978
1478	0.5353
1487	0.5088
1496	0.4956
1505	0.7502
1514	0.7988
1523	0.8283
1532	0.8369
1541	0.8393
1550	0.8492
1559	0.8473
1568	0.8432
1577	0.8367
1586	0.8391
1595	0.8269
1604	0.7627
1613	0.7953
1622	0.8402
1631	0.8538
1640	0.8595
1649	0.8617
1658	0.8608
1667	0.8562
1676	0.848
1685	0.8438
1694	0.8426
1703	0.8438
1712	0.8494
1721	0.8576
1730	0.8657
1739	0.8722
1748	0.8781
1757	0.8816
1766	0.8827
1775	0.8808
1784	0.8778
1793	0.8711
1802	0.863
1811	0.8605
1820	0.8709
1829	0.8739
1838	0.87
1847	0.8671
1856	0.8715
1865	0.8743
1874	0.8716
1883	0.8729
1892	0.8712
1901	0.8531
1910	0.8451
1919	0.8543
1928	0.8649
1937	0.8653
1946	0.858
1955	0.8595
1964	0.8724
1973	0.8794
1982	0.8829
1991	0.886
2000	0.8885
2009	0.8896
2018	0.8906
2027	0.8914
2036	0.8921
2045	0.8922
2054	0.8912
2063	0.8891
2072	0.8865
2081	0.8836
2090	0.8773
2099	0.8711
2108	0.8736
2117	0.8778
2126	0.8822
2135	0.8861
2144	0.8883
2153	0.8896
2162	0.8906
2171	0.8914
2180	0.8922
2189	0.8929
2198	0.8929
2207	0.8928
2216	0.8915
2225	0.8901
2234	0.8893
2243	0.8893
2252	0.889
2261	0.8882
2270	0.8875
2279	0.8865
2288	0.8853
2297	0.8842
2306	0.8833
2315	0.8827
2324	0.8823
2333	0.8819
2342	0.8808
2351	0.8798
2360	0.8787
2369	0.879
2378	0.8804
2387	0.8816
2396	0.8826
2405	0.883
2414	0.8825
2423	0.8825
2432	0.8862
2441	0.8887
2450	0.888
2459	0.8868
2468	0.8852
2477	0.8835
2486	0.8818
2495	0.8804
2504	0.8796
2513	0.879
2522	0.878
2531	0.8764
2540	0.8749
2549	0.8732
2558	0.8715
2567	0.8698
2576	0.868
2585	0.8663
2594	0.8645
2603	0.8615
2612	0.8587
2621	0.8557
2630	0.8522
2639	0.8478
2648	0.841
2657	0.8302
2666	0.8167
2675	0.8048
2684	0.795
2693	0.7847
2702	0.7739
2711	0.7637
2720	0.7561
2729	0.7455
2738	0.692
2747	0.6432
2756	0.584
2765	0.5252
2774	0.4668
2783	0.4088
2792	0.3688
2801	0.3656
2810	0.4088
2819	0.4223
2828	0.4077
2837	0.3911
2846	0.3779
2855	0.3827
2864	0.3971
2873	0.4114
2882	0.4222
2891	0.421
2900	0.4028
2909	0.383
2918	0.3633
2927	0.3436
2936	0.3334
2945	0.3318
2954	0.3392
2963	0.3761
2972	0.4297
2981	0.483
2990	0.536
2999	0.5864
3008	0.5964
3017	0.5818
3026	0.5677
3035	0.5844
3044	0.6242
3053	0.638
3062	0.6437
3071	0.6515
3080	0.6596
3089	0.6843
3098	0.7233
3107	0.7684
3116	0.7873
3125	0.7973
3134	0.7997
3143	0.7993
3152	0.7983
3161	0.7955
3170	0.789
3179	0.782
3188	0.7745
3197	0.7657
3206	0.7529
3215	0.7386
3224	0.7229
3233	0.7089
3242	0.6582
3251	0.6025
3260	0.547
3269	0.4919
3278	0.4371
3287	0.3826
3296	0.331
3305	0.3206
3314	0.4343
3323	0.6121
3332	0.7748
3341	0.8082
3350	0.819
3359	0.8338
3368	0.8474
3377	0.8529
3386	0.8581
3395	0.8614
3404	0.8638
3413	0.8662
3422	0.8686
3431	0.8707
3440	0.8724
3449	0.8741
3458	0.8758
3467	0.8773
3476	0.8787
3485	0.8801
3494	0.8815
3503	0.8829
3512	0.8839
3521	0.8846
3530	0.8855
3539	0.8862
3548	0.887
3557	0.8877
3566	0.8883
3575	0.8887
3584	0.8891
3593	0.8895
3602	0.8899
3611	0.8904
3620	0.8906
3629	0.8907
3638	0.8907
3647	0.8908
3656	0.8908
3665	0.8909
3674	0.8904
3683	0.8899
3692	0.8893
3701	0.8887
3710	0.8882
3719	0.8876
3728	0.887
3737	0.8863
3746	0.8857
3755	0.8852
3764	0.8855
3773	0.8859
3782	0.8863
3791	0.8864
3800	0.8863
3809	0.8862
3818	0.8854
3827	0.8829
3836	0.8804
3845	0.878
3854	0.8758
3863	0.8739
3872	0.8727
3881	0.8716
3890	0.8711
3899	0.8712
3908	0.8713
3917	0.8721
3926	0.8731
3935	0.8742
3944	0.8753
3953	0.8764
3962	0.8775
3971	0.8785
3980	0.8796
3989	0.8806
3998	0.8815
