Infrared Spectrum: Propanil
Formula: C 9 H 9 Cl 2 N O
CAS: 709-98-8
State: gas
Instrument: HP-GC/MS/IRD
Origin: NIST Mass Spectrometry Data Center
1/CM	ABSORBANCE
550	0.0012994
562	0.0009417
574	0.0010074
586	0.0010512
598	0.0006424
610	0.0002701
622	0.0001022
634	3.65e-05
646	0.0001314
658	0.0005475
670	0.0030806
682	0.0033069
694	0.0018104
706	0.0010293
718	0.0007446
730	0.0007008
742	0.0005402
754	0.0002336
766	0.0003504
778	0.0006351
790	0.0021243
802	0.0054166
814	0.0050078
826	0.0032923
838	0.002044
850	0.0036427
862	0.0033945
874	0.00365
886	0.0037522
898	0.0041464
910	0.0042267
922	0.0036719
934	0.0020732
946	0.0010877
958	0.0006643
970	0.0007811
982	0.0012118
994	0.0019637
1006	0.0024966
1018	0.0047596
1030	0.0106361
1042	0.0079862
1054	0.0061466
1066	0.0057159
1078	0.0050297
1090	0.0039566
1102	0.0041026
1114	0.0071248
1126	0.0185785
1138	0.0187464
1150	0.014381
1162	0.0151256
1174	0.0190822
1186	0.0142423
1198	0.0089571
1210	0.006789
1222	0.0079862
1234	0.0071759
1246	0.0061612
1258	0.0072635
1270	0.011023
1282	0.0213233
1294	0.0128553
1306	0.0045406
1318	0.0037668
1330	0.0044165
1342	0.005694
1354	0.0094316
1366	0.0211335
1378	0.0250682
1390	0.0174981
1402	0.0072635
1414	0.005183
1426	0.0060079
1438	0.0087819
1450	0.0142496
1462	0.0309301
1474	0.0689412
1486	0.0661599
1498	0.0697734
1510	0.0361861
1522	0.0144467
1534	0.009417
1546	0.0068474
1558	0.0079205
1570	0.0162498
1582	0.0224767
1594	0.0225716
1606	0.0099645
1618	0.0044384
1630	0.0030149
1642	0.0021973
1654	0.0018469
1666	0.0021024
1678	0.0030003
1690	0.005329
1702	0.0097966
1714	0.022046
1726	0.0416757
1738	0.0281853
1750	0.0119282
1762	0.006789
1774	0.0032777
1786	0.0018104
1798	0.0012118
1810	0.0008906
1822	0.0006278
1834	0.0004745
1846	0.0004088
1858	0.0005037
1870	0.0004015
1882	0.0004015
1894	0.0004453
1906	0.0003431
1918	0.0001606
1930	0.0001314
1942	8.03e-05
1954	0.0001314
1966	0.0001095
1978	8.76e-05
1990	7.3e-05
2002	4.38e-05
2014	0
2026	3.65e-05
2038	2.19e-05
2050	5.11e-05
2062	7.3e-05
2074	8.76e-05
2086	6.57e-05
2098	7.3e-05
2110	5.11e-05
2122	5.84e-05
2134	6.57e-05
2146	7.3e-05
2158	0.0001022
2170	0.0001387
2182	0.000146
2194	8.76e-05
2206	6.57e-05
2218	2.19e-05
2230	0
2242	2.19e-05
2254	1.46e-05
2266	4.38e-05
2278	5.11e-05
2290	0.0001095
2302	7.3e-05
2314	4.38e-05
2326	2.92e-05
2338	2.92e-05
2350	0.0001168
2362	0.0001533
2374	0.0001898
2386	0.0002336
2398	0.0001825
2410	0.0001752
2422	0.0001314
2434	0.0001022
2446	7.3e-05
2458	9.49e-05
2470	5.11e-05
2482	0.0001387
2494	0.0001387
2506	0.0002263
2518	0.0001679
2530	5.84e-05
2542	2.19e-05
2554	1.46e-05
2566	3.65e-05
2578	6.57e-05
2590	8.03e-05
2602	0.0001241
2614	8.76e-05
2626	7.3e-05
2638	6.57e-05
2650	9.49e-05
2662	8.03e-05
2674	9.49e-05
2686	9.49e-05
2698	0.000146
2710	0.0001898
2722	0.0002409
2734	0.0002336
2746	0.0002482
2758	0.0002774
2770	0.0002044
2782	0.0001898
2794	0.0002847
2806	0.0003285
2818	0.0004599
2830	0.0006278
2842	0.0008176
2854	0.0009709
2866	0.0012921
2878	0.0017666
2890	0.0027667
2902	0.0031609
2914	0.0037814
2926	0.0045698
2938	0.0047377
2950	0.0062999
2962	0.0056648
2974	0.0061101
2986	0.0080884
2998	0.0052633
3010	0.00292
3022	0.0020221
3034	0.0017301
3046	0.0013067
3058	0.0012337
3070	0.0010877
3082	0.0010366
3094	0.0010658
3106	0.0009198
3118	0.0013359
3130	0.000949
3142	0.000438
3154	0.000365
3166	0.0002847
3178	0.0003139
3190	0.000292
3202	0.0001679
3214	0.0001898
3226	0.0001533
3238	8.03e-05
3250	7.3e-05
3262	4.38e-05
3274	4.38e-05
3286	2.92e-05
3298	3.65e-05
3310	9.49e-05
3322	4.38e-05
3334	7.3e-05
3346	9.49e-05
3358	7.3e-05
3370	0.0002409
3382	0.0002044
3394	0.0004015
3406	0.0007592
3418	0.0011388
3430	0.0015038
3442	0.0022192
3454	0.003723
3466	0.0044676
3478	0.0018761
3490	0.0008395
3502	0.000438
3514	0.0002701
3526	0.0001533
3538	0.0001606
3550	9.49e-05
3562	0.0001095
3574	0.0001168
3586	0.0001168
3598	0.0001168
3610	0.0001022
3622	0.0001387
3634	0.0001168
3646	0.000146
3658	8.03e-05
3670	0.0001022
3682	0.000146
3694	0.0001095
3706	0.0001168
3718	9.49e-05
3730	0.0001679
3742	0.0001679
3754	0.0001022
3766	0.0002117
3778	0.0001679
3790	0.0001387
3802	0.0001387
3814	0.0001825
3826	0.0002555
3838	0.000146
