Infrared Spectrum: 4-Trifluoromethylacetophenone
Formula: C 9 H 7 F 3 O
CAS: 709-63-7
State: gas
Origin: EPA-IR VAPOR PHASE LIBRARY
1/CM	ABSORBANCE
549.8	0.002567
559.445	0.002897
569.09	0.004437
578.734	0.009647
588.379	0.020687
598.024	0.058797
607.669	0.084047
617.313	0.051657
626.958	0.027627
636.603	0.013587
646.248	0.008437
655.893	0.006597
665.537	0.005877
675.182	0.007517
684.827	0.005797
694.472	0.005977
704.116	0.014757
713.761	0.100817
723.406	0.066597
733.051	0.007397
742.695	0.004457
752.34	0.003647
761.985	0.003127
771.63	0.003007
781.275	0.003927
790.919	0.005627
800.564	0.010077
810.209	0.018547
819.854	0.044487
829.498	0.091657
839.143	0.118687
848.788	0.110517
858.433	0.057597
868.078	0.020277
877.722	0.008917
887.367	0.007067
897.012	0.006717
906.657	0.006887
916.301	0.007857
925.946	0.009627
935.591	0.017637
945.236	0.044487
954.88	0.076707
964.525	0.053237
974.17	0.025497
983.815	0.016247
993.46	0.016217
1003.1	0.034907
1012.75	0.148047
1022.39	0.097407
1032.04	0.020407
1041.68	0.021427
1051.33	0.068347
1060.97	0.205017
1070.62	0.238457
1080.26	0.303657
1089.91	0.158627
1099.55	0.078687
1109.2	0.118117
1118.84	0.161407
1128.49	0.202767
1138.13	0.359327
1147.78	0.658187
1157.42	0.730557
1167.07	0.617577
1176.71	0.608307
1186.36	0.323087
1196	0.139157
1205.64	0.096497
1215.29	0.095777
1224.93	0.117107
1234.58	0.141817
1244.22	0.227067
1253.87	0.408277
1263.51	0.319507
1273.16	0.074687
1282.8	0.054987
1292.45	0.082947
1302.09	0.198437
1311.74	0.531657
1321.38	1.02359
1331.03	0.855267
1340.67	0.177357
1350.32	0.103347
1359.96	0.120277
1369.61	0.091937
1379.25	0.049717
1388.9	0.046597
1398.54	0.075477
1408.18	0.101357
1417.83	0.076097
1427.47	0.045147
1437.12	0.031627
1446.76	0.021607
1456.41	0.016197
1466.05	0.012587
1475.7	0.010507
1485.34	0.010517
1494.99	0.015687
1504.63	0.034767
1514.28	0.042977
1523.92	0.020287
1533.57	0.010657
1543.21	0.011567
1552.86	0.015657
1562.5	0.021937
1572.15	0.028747
1581.79	0.029357
1591.44	0.019077
1601.08	0.010817
1610.73	0.008877
1620.37	0.008147
1630.01	0.008137
1639.66	0.009497
1649.3	0.013017
1658.95	0.020547
1668.59	0.030207
1678.24	0.039027
1687.88	0.069987
1697.53	0.171477
1707.17	0.394437
1716.82	0.325717
1726.46	0.103437
1736.11	0.038337
1745.75	0.027727
1755.4	0.024697
1765.04	0.016767
1774.69	0.012417
1784.33	0.011147
1793.98	0.008807
1803.62	0.008937
1813.27	0.009457
1822.91	0.007697
1832.55	0.004657
1842.2	0.003967
1851.84	0.005067
1861.49	0.005207
1871.13	0.003887
1880.78	0.003277
1890.42	0.003997
1900.07	0.005507
1909.71	0.006897
1919.36	0.007737
1929	0.008067
1938.65	0.006947
1948.29	0.005867
1957.94	0.005367
1967.58	0.004777
1977.23	0.003687
1986.87	0.002367
1996.52	0.001987
2006.16	0.001657
2015.81	0.001547
2025.45	0.001797
2035.1	0.002207
2044.74	0.002177
2054.38	0.001397
2064.03	0.0011611
2073.67	0.001457
2083.32	0.001737
2092.96	0.002137
2102.61	0.002957
2112.25	0.003007
2121.9	0.002107
2131.54	0.001597
2141.19	0.001197
2150.83	0.0009949
2160.48	0.0009553
2170.12	0.0010995
2179.77	0.001337
2189.41	0.001667
2199.06	0.002137
2208.7	0.002767
2218.35	0.002887
2227.99	0.002827
2237.64	0.002717
2247.28	0.002527
2256.92	0.002337
2266.57	0.002897
2276.21	0.004127
2285.86	0.005107
2295.5	0.005417
2305.15	0.004977
2314.79	0.004577
2324.44	0.004017
2334.08	0.003697
2343.73	0.003207
2353.37	0.002857
2363.02	0.002597
2372.66	0.002437
2382.31	0.002207
2391.95	0.002157
2401.6	0.001717
2411.24	0.001487
2420.89	0.001327
2430.53	0.001477
2440.18	0.001807
2449.82	0.001707
2459.47	0.001587
2469.11	0.001707
2478.75	0.001877
2488.4	0.002127
2498.04	0.002037
2507.69	0.002207
2517.33	0.001487
2526.98	0.0010586
2536.62	0.0008808
2546.27	0.0008155
2555.91	0.0010737
2565.56	0.001156
2575.2	0.001307
2584.85	0.001477
2594.49	0.001607
2604.14	0.001407
2613.78	0.001827
2623.43	0.002287
2633.07	0.002677
2642.72	0.002847
2652.36	0.002597
2662.01	0.001877
2671.65	0.0011791
2681.29	0.001247
2690.94	0.0010378
2700.58	0.0007598
2710.23	0.0008394
2719.87	0.0006381
2729.52	0.0005784
2739.16	0.0004519
2748.81	0.0006377
2758.45	0.0007791
2768.1	0.0009538
2777.74	0.0010501
2787.39	0.0009363
2797.03	0.0010359
2806.68	0.001447
2816.32	0.001547
2825.97	0.002027
2835.61	0.002517
2845.26	0.002777
2854.9	0.002907
2864.55	0.003617
2874.19	0.003617
2883.84	0.002777
2893.48	0.002877
2903.12	0.003047
2912.77	0.004417
2922.41	0.006907
2932.06	0.009717
2941.7	0.009517
2951.35	0.007807
2960.99	0.008057
2970.64	0.009297
2980.28	0.009497
2989.93	0.008067
2999.57	0.009257
3009.22	0.015027
3018.86	0.018227
3028.51	0.010587
3038.15	0.007657
3047.8	0.009147
3057.44	0.012537
3067.09	0.015777
3076.73	0.014287
3086.38	0.012277
3096.02	0.011937
3105.67	0.011177
3115.31	0.008747
3124.95	0.005897
3134.6	0.004767
3144.24	0.003167
3153.89	0.001967
3163.53	0.001697
3173.18	0.0010033
3182.82	0.0009927
3192.47	0.0009513
3202.11	0.0010064
3211.76	0.0009419
3221.4	0.0008883
3231.05	0.0008652
3240.69	0.0010361
3250.34	0.0004895
3259.98	0.0007483
3269.63	0.0004475
3279.27	0.0007259
3288.92	0.0005215
3298.56	0.0005897
3308.21	0.0006541
3317.85	0.0005486
3327.49	0.000798
3337.14	0.0010511
3346.78	0.0010309
3356.43	0.001407
3366.07	0.001947
3375.72	0.002297
3385.36	0.003997
3395.01	0.007547
3404.65	0.008157
3414.3	0.005027
3423.94	0.002387
3433.59	0.001887
3443.23	0.001367
3452.88	0.0010897
3462.52	0.0006956
3472.17	0.0005736
3481.81	0.0004305
3491.46	0.0006758
3501.1	0.0004785
3510.75	0.0005804
3520.39	0.0005233
3530.04	0.0004715
3539.68	0.0009665
3549.32	0.0007947
3558.97	0.0005621
3568.61	0.0004063
3578.26	0.0006775
3587.9	0.0006878
3597.55	0.0003011
3607.19	0.0005395
3616.84	0.00023004
3626.48	0.0006259
3636.13	0.0003703
3645.77	0.0004397
3655.42	0.0004476
3665.06	0.0004848
3674.71	0.0003564
3684.35	0.0010296
3694	0.0010504
3703.64	0.0006129
3713.29	0.0005779
3722.93	0.0007942
3732.58	0.0007542
3742.22	0.0005018
3751.86	0.000414
3761.51	0.0007488
3771.15	0.0005781
3780.8	0.0005147
3790.44	0.0006128
3800.09	0.0007733
3809.73	0.0004793
3819.38	0.0004849
3829.02	5.5e-05
3838.67	0.0005351
3848.31	0.0006696
3857.96	0.0005355
3867.6	0.0007429
3877.25	0.0007149
3886.89	0.0005765
3896.54	0.0006724
3906.18	0.001357
3915.83	0.0009014
3925.47	0.0010068
3935.12	0.0007587
3944.76	0.001174
3954.41	0.0006312
3964.05	0.0010007
3973.69	0.0009646
3983.34	0.0009339
3992.98	0.000543
