Infrared Spectrum: 1,1,4-Trimethylcyclohexane
Formula: C 9 H 18
CAS: 7094-27-1
State: gas
Instrument: HP-GC/MS/IRD
Origin: NIST Mass Spectrometry Data Center
1/CM	ABSORBANCE
550	7e-05
562	2.8e-05
574	1.75e-05
586	0.0001155
598	0.0001645
610	0.000182
622	0.0001715
634	9.45e-05
646	0.000175
658	0.0001295
670	0.0001225
682	0.0001505
694	0.0001505
706	0.000147
718	9.45e-05
730	0.000112
742	0.0001155
754	0.000147
766	8.05e-05
778	9.1e-05
790	0.0001155
802	8.4e-05
814	0.000119
826	5.6e-05
838	5.6e-05
850	0.0001295
862	0.0001505
874	0.000168
886	0.0001715
898	0.000322
910	0.000336
922	0.0003535
934	0.000406
946	0.000308
958	0.000343
970	0.000357
982	0.0003045
994	0.000371
1006	0.0004375
1018	0.0004795
1030	0.000581
1042	0.0004725
1054	0.000266
1066	0.000161
1078	0.000168
1090	0.0002065
1102	0.0001925
1114	0.0001575
1126	0.0001855
1138	0.0003745
1150	0.000637
1162	0.000945
1174	0.000987
1186	0.000609
1198	0.000399
1210	0.0001785
1222	0.0001225
1234	0.000133
1246	0.000154
1258	0.0002065
1270	0.0003185
1282	0.000315
1294	0.0001995
1306	0.0002205
1318	0.0002415
1330	0.0002765
1342	0.000483
1354	0.0012215
1366	0.002177
1378	0.00259
1390	0.0022715
1402	0.001071
1414	0.000532
1426	0.0006615
1438	0.001757
1450	0.003598
1462	0.0044135
1474	0.003136
1486	0.0013965
1498	0.000511
1510	0.000245
1522	0.0001645
1534	0.000119
1546	0.0001015
1558	8.75e-05
1570	0.000105
1582	0.0001015
1594	0.000112
1606	0.000119
1618	0.0001155
1630	0.000112
1642	0.000105
1654	0.0001015
1666	0.000105
1678	0.0001015
1690	7e-05
1702	5.95e-05
1714	5.6e-05
1726	4.55e-05
1738	2.8e-05
1750	4.9e-05
1762	6.65e-05
1774	6.3e-05
1786	6.65e-05
1798	5.25e-05
1810	3.85e-05
1822	4.2e-05
1834	2.8e-05
1846	3.5e-05
1858	3.15e-05
1870	5.6e-05
1882	5.6e-05
1894	5.25e-05
1906	3.5e-05
1918	4.55e-05
1930	4.2e-05
1942	4.9e-05
1954	3.15e-05
1966	7.35e-05
1978	6.65e-05
1990	2.45e-05
2002	1.05e-05
2014	3.5e-05
2026	2.1e-05
2038	0
2050	1.75e-05
2062	2.45e-05
2074	3.5e-05
2086	2.8e-05
2098	3.15e-05
2110	2.45e-05
2122	2.8e-05
2134	3.15e-05
2146	2.45e-05
2158	7e-06
2170	3.15e-05
2182	4.2e-05
2194	1.75e-05
2206	1.75e-05
2218	1.4e-05
2230	3.5e-05
2242	4.2e-05
2254	3.85e-05
2266	5.25e-05
2278	4.55e-05
2290	6.65e-05
2302	5.6e-05
2314	4.2e-05
2326	4.9e-05
2338	2.1e-05
2350	7.35e-05
2362	5.95e-05
2374	5.95e-05
2386	6.3e-05
2398	8.4e-05
2410	6.3e-05
2422	5.95e-05
2434	6.3e-05
2446	8.75e-05
2458	0.000105
2470	0.000126
2482	0.000126
2494	9.1e-05
2506	0.0001015
2518	9.8e-05
2530	9.45e-05
2542	8.75e-05
2554	9.1e-05
2566	0.0001155
2578	0.000126
2590	0.0001435
2602	0.000189
2614	0.0002485
2626	0.00035
2638	0.0003955
2650	0.000434
2662	0.0003955
2674	0.0003535
2686	0.000315
2698	0.0003675
2710	0.0004445
2722	0.000539
2734	0.000546
2746	0.000511
2758	0.000532
2770	0.0006055
2782	0.000665
2794	0.000812
2806	0.001036
2818	0.0013965
2830	0.00231
2842	0.0055405
2854	0.010563
2866	0.013489
2878	0.0132615
2890	0.0126665
2902	0.0182245
2914	0.030107
2926	0.033943
2938	0.0249165
2950	0.0238245
2962	0.0227815
2974	0.012222
2986	0.004844
2998	0.0016135
3010	0.0008785
3022	0.0006615
3034	0.0005565
3046	0.000518
3058	0.0005075
3070	0.000511
3082	0.000532
3094	0.0004865
3106	0.00049
3118	0.000434
3130	0.0004515
3142	0.000469
3154	0.000441
3166	0.000378
3178	0.000322
3190	0.0002835
3202	0.0002625
3214	0.000273
3226	0.000245
3238	0.0001645
3250	0.0001295
3262	0.000105
3274	0.000133
3286	0.0001085
3298	0.0001085
3310	0.0001435
3322	0.0001855
3334	0.0001645
3346	0.0001575
3358	0.0001855
3370	0.0001575
3382	0.000119
3394	0.000119
3406	0.000112
3418	9.1e-05
3430	0.000105
3442	5.95e-05
3454	5.95e-05
3466	5.95e-05
3478	4.2e-05
3490	1.75e-05
3502	4.55e-05
3514	6.3e-05
3526	3.15e-05
3538	5.95e-05
3550	7.35e-05
3562	9.8e-05
3574	6.65e-05
3586	4.2e-05
3598	5.25e-05
3610	3.85e-05
3622	5.25e-05
3634	7.35e-05
3646	7.35e-05
3658	5.25e-05
3670	2.8e-05
3682	7.35e-05
3694	9.45e-05
3706	8.05e-05
3718	5.95e-05
3730	7e-06
3742	7.7e-05
3754	8.05e-05
3766	8.05e-05
3778	6.65e-05
3790	0.0001295
3802	0.000126
3814	0.0001015
3826	0.000133
3838	0.0001715
