Infrared Spectrum: 1,1,2-Trimethylcyclohexane
Formula: C 9 H 18
CAS: 7094-26-0
State: gas
Instrument: HP-GC/MS/IRD
Origin: NIST Mass Spectrometry Data Center
1/CM	ABSORBANCE
550	0.0003744
562	0.0001968
574	0
586	0.000112
598	0.0001984
610	9.12e-05
622	0.000136
634	0.000136
646	8.96e-05
658	4.48e-05
670	0.0001088
682	0.0001504
694	7.2e-05
706	3.68e-05
718	4.8e-05
730	2.88e-05
742	9.92e-05
754	5.12e-05
766	5.12e-05
778	4e-05
790	8.48e-05
802	8e-05
814	0.0001168
826	1.44e-05
838	0.0001088
850	9.28e-05
862	8e-05
874	0.0001168
886	0.0001344
898	0.000112
910	7.36e-05
922	0.0001952
934	0.0002432
946	0.0001456
958	9.12e-05
970	0.0001152
982	0.0001216
994	0.0001536
1006	0.0002384
1018	0.0001728
1030	0.0001936
1042	0.0001216
1054	0.0001136
1066	0.0001344
1078	9.76e-05
1090	0.0001376
1102	0.0001088
1114	5.12e-05
1126	0.0001184
1138	0.0001808
1150	0.0004112
1162	0.0003696
1174	0.0002624
1186	0.0002256
1198	0.0002112
1210	0.0002528
1222	0.0001648
1234	0.0001328
1246	0.0002048
1258	0.0001472
1270	0.0001488
1282	0.0001232
1294	0.0001072
1306	0.0001072
1318	0.0001312
1330	0.0001648
1342	0.0002432
1354	0.0005392
1366	0.0011152
1378	0.0012704
1390	0.0011232
1402	0.0006416
1414	0.0002864
1426	0.0003296
1438	0.0008816
1450	0.0015872
1462	0.0018432
1474	0.0013488
1486	0.0006656
1498	0.0002448
1510	0.0001232
1522	8.48e-05
1534	9.12e-05
1546	6.72e-05
1558	3.52e-05
1570	5.44e-05
1582	4.16e-05
1594	6.88e-05
1606	6.24e-05
1618	5.28e-05
1630	6.72e-05
1642	4.32e-05
1654	2.56e-05
1666	5.92e-05
1678	3.84e-05
1690	4.96e-05
1702	3.68e-05
1714	5.92e-05
1726	5.28e-05
1738	4e-05
1750	5.12e-05
1762	4.48e-05
1774	3.36e-05
1786	2.72e-05
1798	4.48e-05
1810	6.08e-05
1822	5.92e-05
1834	5.44e-05
1846	4.8e-05
1858	2.72e-05
1870	4.64e-05
1882	3.52e-05
1894	6.56e-05
1906	4e-05
1918	4e-05
1930	3.04e-05
1942	2.88e-05
1954	4e-05
1966	5.28e-05
1978	3.2e-05
1990	5.92e-05
2002	5.12e-05
2014	3.84e-05
2026	3.04e-05
2038	3.68e-05
2050	2.72e-05
2062	3.36e-05
2074	1.76e-05
2086	1.92e-05
2098	4.96e-05
2110	3.2e-06
2122	1.28e-05
2134	1.6e-05
2146	4.16e-05
2158	2.56e-05
2170	2.08e-05
2182	5.28e-05
2194	2.88e-05
2206	2.24e-05
2218	3.36e-05
2230	3.52e-05
2242	1.92e-05
2254	2.72e-05
2266	3.2e-05
2278	4.16e-05
2290	4.48e-05
2302	3.36e-05
2314	3.68e-05
2326	2.24e-05
2338	3.68e-05
2350	3.04e-05
2362	3.52e-05
2374	3.2e-05
2386	2.88e-05
2398	3.04e-05
2410	3.04e-05
2422	2.24e-05
2434	3.2e-06
2446	2.4e-05
2458	3.84e-05
2470	4.32e-05
2482	5.28e-05
2494	3.52e-05
2506	3.52e-05
2518	3.36e-05
2530	3.2e-05
2542	3.68e-05
2554	4.64e-05
2566	6.08e-05
2578	6.24e-05
2590	9.12e-05
2602	0.0001152
2614	0.0001536
2626	0.0001504
2638	0.0001856
2650	0.0002
2662	0.000208
2674	0.0002496
2686	0.000208
2698	0.000176
2710	0.000184
2722	0.0002192
2734	0.0002144
2746	0.0002176
2758	0.0002416
2770	0.0002496
2782	0.0003424
2794	0.0003984
2806	0.0004608
2818	0.000584
2830	0.0008688
2842	0.0018496
2854	0.0042144
2866	0.0062368
2878	0.0058016
2890	0.0050576
2902	0.0063744
2914	0.00988
2926	0.0139472
2938	0.0144768
2950	0.0109456
2962	0.0091456
2974	0.0075952
2986	0.0041344
2998	0.0014336
3010	0.0006112
3022	0.0004144
3034	0.0003488
3046	0.0003248
3058	0.0003008
3070	0.0002752
3082	0.0002608
3094	0.0002544
3106	0.0002592
3118	0.0002464
3130	0.0002448
3142	0.000216
3154	0.000176
3166	0.0002128
3178	0.0001952
3190	0.0001872
3202	0.0001344
3214	0.0001344
3226	0.0001408
3238	0.0001408
3250	0.000144
3262	0.0001184
3274	0.0001168
3286	7.84e-05
3298	9.92e-05
3310	7.52e-05
3322	9.28e-05
3334	8.32e-05
3346	0.0001072
3358	4.48e-05
3370	6.72e-05
3382	7.68e-05
3394	6.24e-05
3406	6.88e-05
3418	2.88e-05
3430	8.8e-05
3442	5.28e-05
3454	5.28e-05
3466	6.88e-05
3478	0.0001088
3490	0.0001024
3502	9.12e-05
3514	9.12e-05
3526	8.48e-05
3538	8.96e-05
3550	2.88e-05
3562	0.0001136
3574	9.28e-05
3586	7.68e-05
3598	5.76e-05
3610	1.76e-05
3622	7.04e-05
3634	7.68e-05
3646	0.0001008
3658	9.44e-05
3670	7.04e-05
3682	7.2e-05
3694	9.76e-05
3706	7.52e-05
3718	7.36e-05
3730	8.48e-05
3742	8.48e-05
3754	4e-05
3766	7.36e-05
3778	7.04e-05
3790	0.0001088
3802	0.0001072
3814	8.96e-05
3826	8.96e-05
3838	0.0001008
