Infrared Spectrum: Aniline, N-tert-butyl-N-methyl-
Formula: C11 H17 N
CAS: 70974-88-8
State: LIQUID (NEAT)
Class: COBLENTZ III
Instrument: BECKMAN IR-4 (HYBRID PRISM-GRATING)
Instrument parameters: NaCl PRISM
Sampling: TRANSMISSION
Path length: CAPILLARY
Resolution: 2
Origin: MONSANTO (J. FREEMAN)
1/CM	TRANSMITTANCE
626	0.8457
635	0.9322
644	0.9802
653	0.9855
662	0.9509
671	0.9336
680	0.8665
689	0.741
698	0.2865
707	0.2649
716	0.7411
725	0.8325
734	0.8576
743	0.8505
752	0.807
761	0.7203
770	0.3564
779	0.4741
788	0.5194
797	0.817
806	0.8696
815	0.8779
824	0.8737
833	0.8427
842	0.8492
851	0.8723
860	0.8608
869	0.8255
878	0.5474
887	0.4964
896	0.7249
905	0.7371
914	0.5912
923	0.7576
932	0.8831
941	0.9076
950	0.9132
959	0.9075
968	0.9087
977	0.9054
986	0.9056
995	0.8761
1004	0.8333
1013	0.6756
1022	0.5519
1031	0.7322
1040	0.8826
1049	0.9021
1058	0.8852
1067	0.6797
1076	0.5264
1085	0.3306
1094	0.6359
1103	0.8157
1112	0.8212
1121	0.7017
1130	0.6768
1139	0.1994
1148	0.4554
1157	0.6373
1166	0.7726
1175	0.7007
1184	0.675
1193	0.5019
1202	0.2818
1211	0.286
1220	0.1436
1229	0.3123
1238	0.5102
1247	0.7052
1256	0.797
1265	0.7747
1274	0.5896
1283	0.407
1292	0.2349
1301	0.4268
1310	0.6953
1319	0.7328
1328	0.7586
1337	0.7885
1346	0.8114
1355	0.5611
1364	0.1993
1373	0.6227
1382	0.7376
1391	0.3846
1400	0.7712
1409	0.8177
1418	0.7701
1427	0.7288
1436	0.6771
1445	0.4745
1454	0.3811
1463	0.401
1472	0.4646
1481	0.3824
1490	0.2984
1499	0.1438
1508	0.5209
1517	0.7293
1526	0.8127
1535	0.8424
1544	0.8517
1553	0.8574
1562	0.8574
1571	0.78
1580	0.682
1589	0.5458
1598	0.3133
1607	0.464
1616	0.7872
1625	0.8555
1634	0.8911
1643	0.9077
1652	0.9154
1661	0.9183
1670	0.9195
1679	0.9193
1688	0.9188
1697	0.9186
1706	0.9199
1715	0.9241
1724	0.9292
1733	0.929
1742	0.9213
1751	0.911
1760	0.902
1769	0.9043
1778	0.9098
1787	0.919
1796	0.9037
1805	0.8965
1814	0.9027
1823	0.9107
1832	0.9185
1841	0.9245
1850	0.9267
1859	0.9254
1868	0.9214
1877	0.9134
1886	0.9046
1895	0.9056
1904	0.9155
1913	0.9251
1922	0.927
1931	0.9121
1940	0.8919
1949	0.8801
1958	0.8858
1967	0.9038
1976	0.9174
1985	0.9277
1994	0.9339
2003	0.9373
2012	0.9395
2021	0.9409
2030	0.9425
2039	0.9439
2048	0.9454
2057	0.9442
2066	0.9409
2075	0.9381
2084	0.9373
2093	0.938
2102	0.94
2111	0.9425
2120	0.9457
2129	0.9481
2138	0.9491
2147	0.948
2156	0.9454
2165	0.9423
2174	0.9399
2183	0.9441
2192	0.9505
2201	0.9532
2210	0.9528
2219	0.9517
2228	0.9504
2237	0.949
2246	0.9477
2255	0.9462
2264	0.9449
2273	0.9436
2282	0.9422
2291	0.9408
2300	0.9399
2309	0.9392
2318	0.9398
2327	0.9405
2336	0.9418
2345	0.9437
2354	0.9453
2363	0.9466
2372	0.9477
2381	0.948
2390	0.9479
2399	0.9473
2408	0.9468
2417	0.9463
2426	0.9458
2435	0.9453
2444	0.9449
2453	0.9445
2462	0.9436
2471	0.9428
2480	0.9419
2489	0.9405
2498	0.9391
2507	0.9376
2516	0.9377
2525	0.9379
2534	0.9375
2543	0.9368
2552	0.9339
2561	0.9308
2570	0.9271
2579	0.9229
2588	0.9218
2597	0.9248
2606	0.9299
2615	0.9324
2624	0.9344
2633	0.9358
2642	0.9371
2651	0.9381
2660	0.9385
2669	0.9375
2678	0.9362
2687	0.9344
2696	0.9322
2705	0.9294
2714	0.9264
2723	0.9226
2732	0.9188
2741	0.9131
2750	0.9064
2759	0.8966
2768	0.8721
2777	0.8504
2786	0.7574
2795	0.6202
2804	0.5642
2813	0.566
2822	0.6119
2831	0.6576
2840	0.6766
2849	0.6767
2858	0.5242
2867	0.4079
2876	0.397
2885	0.3962
2894	0.4036
2903	0.411
2912	0.4097
2921	0.4055
2930	0.3963
2939	0.3642
2948	0.3103
2957	0.2567
2966	0.2035
2975	0.1505
2984	0.118
2993	0.1171
3002	0.2143
3011	0.3827
3020	0.5322
3029	0.5739
3038	0.5924
3047	0.5996
3056	0.6061
3065	0.6132
3074	0.6423
3083	0.6679
3092	0.6793
3101	0.7051
3110	0.7872
3119	0.869
3128	0.8985
3137	0.9053
3146	0.9082
3155	0.9101
3164	0.9118
3173	0.9133
3182	0.9147
3191	0.916
3200	0.9172
3209	0.9184
3218	0.9196
3227	0.9207
3236	0.9217
3245	0.9226
3254	0.9237
3263	0.9247
3272	0.9255
3281	0.9264
3290	0.9273
3299	0.9281
3308	0.929
3317	0.9299
3326	0.9304
3335	0.9309
3344	0.9314
3353	0.9319
3362	0.9324
3371	0.9328
3380	0.9327
3389	0.9327
3398	0.9326
3407	0.9326
3416	0.9327
3425	0.9329
3434	0.9329
3443	0.933
3452	0.9334
3461	0.9339
3470	0.9343
3479	0.9349
3488	0.9357
3497	0.9366
3506	0.9374
3515	0.9382
3524	0.9391
3533	0.9399
3542	0.9407
3551	0.9415
3560	0.9424
3569	0.9434
3578	0.9441
3587	0.9447
3596	0.9452
3605	0.9458
3614	0.9463
3623	0.9468
3632	0.9475
3641	0.9478
3650	0.9474
3659	0.9469
3668	0.9461
3677	0.9453
3686	0.9445
3695	0.9436
3704	0.9428
3713	0.942
3722	0.9414
3731	0.9409
3740	0.9404
3749	0.94
3758	0.9401
3767	0.9403
3776	0.9404
3785	0.9406
3794	0.9408
3803	0.9407
3812	0.9405
3821	0.9403
3830	0.9401
3839	0.94
3848	0.9398
3857	0.9397
3866	0.9393
3875	0.9389
3884	0.9384
3893	0.938
3902	0.9376
3911	0.9371
3920	0.9367
3929	0.9362
3938	0.9358
3947	0.9351
3956	0.9342
3965	0.9332
3974	0.9322
3983	0.9313
3992	0.9303
