Infrared Spectrum: 1-Ethylimidazole
Formula: C5 H8 N2
CAS: 7098-07-9
State: SOLUTION (10% CCl4 FOR 3800-1340, 10% CS2 FOR 1340-460 CM^-^1)
Class: COBLENTZ III
Instrument: DOW KBr FOREPRISM-GRATING
Instrument parameters: BLAZED AT 3.5, 12.0, 20.0 MICRON AND CHANGED AT 5.0, 7.5, 14.9 MICRON
Sampling: TRANSMISSION
Path length: 0.011 CM, 0.011 CM
Resolution: 2
Origin: DOW CHEMICAL COMPANY
1/CM	TRANSMITTANCE
3800	0.9655
3791	0.9659
3782	0.9586
3773	0.9573
3764	0.9567
3755	0.9566
3746	0.9596
3737	0.9681
3728	0.9625
3719	0.959
3710	0.9585
3701	0.9562
3692	0.9487
3683	0.9155
3674	0.8848
3665	0.9098
3656	0.9327
3647	0.9472
3638	0.9478
3629	0.946
3620	0.9478
3611	0.9481
3602	0.9453
3593	0.9446
3584	0.9425
3575	0.9388
3566	0.9357
3557	0.9319
3548	0.9295
3539	0.9248
3530	0.9212
3521	0.9154
3512	0.911
3503	0.9063
3494	0.9017
3485	0.8967
3476	0.8908
3467	0.885
3458	0.8789
3449	0.8725
3440	0.8656
3431	0.8583
3422	0.8513
3413	0.8453
3404	0.8398
3395	0.8342
3386	0.8284
3377	0.8225
3368	0.8241
3359	0.8251
3350	0.8262
3341	0.8263
3332	0.8264
3323	0.8267
3314	0.827
3305	0.8293
3296	0.8306
3287	0.8336
3278	0.8397
3269	0.8457
3260	0.8505
3251	0.8513
3242	0.8479
3233	0.8402
3224	0.8299
3215	0.8207
3206	0.8129
3197	0.8138
3188	0.8148
3179	0.8154
3170	0.816
3161	0.8147
3152	0.794
3143	0.7619
3134	0.7554
3125	0.6411
3116	0.6162
3107	0.6843
3098	0.7605
3089	0.8141
3080	0.8386
3071	0.8533
3062	0.8533
3053	0.8525
3044	0.852
3035	0.8447
3026	0.8172
3017	0.7528
3008	0.5776
2999	0.2992
2990	0.1603
2981	0.3505
2972	0.5418
2963	0.5694
2954	0.4689
2945	0.3795
2936	0.52
2927	0.6116
2918	0.622
2909	0.6219
2900	0.6079
2891	0.5902
2882	0.6324
2873	0.7415
2864	0.7984
2855	0.8095
2846	0.8243
2837	0.8429
2828	0.8493
2819	0.8557
2810	0.859
2801	0.8619
2792	0.8561
2783	0.8643
2774	0.8751
2765	0.8828
2756	0.8821
2747	0.8814
2738	0.8808
2729	0.8873
2720	0.8958
2711	0.8992
2702	0.8957
2693	0.8851
2684	0.8926
2675	0.8984
2666	0.9029
2657	0.9066
2648	0.9072
2639	0.9069
2630	0.9058
2621	0.9064
2612	0.9062
2603	0.9057
2594	0.9063
2585	0.905
2576	0.9009
2567	0.905
2558	0.9112
2549	0.9122
2540	0.9085
2531	0.9116
2522	0.9114
2513	0.9088
2504	0.9065
2495	0.9041
2486	0.9021
2477	0.9017
2468	0.8985
2459	0.8946
2450	0.8943
2441	0.9066
2432	0.9049
2423	0.9023
2414	0.9025
2405	0.9035
2396	0.9025
2387	0.901
2378	0.9018
2369	0.9036
2360	0.9052
2351	0.9094
2342	0.9092
2333	0.9079
2324	0.9057
2315	0.8961
2306	0.8904
2297	0.8911
2288	0.8902
2279	0.8893
2270	0.8864
2261	0.8838
2252	0.8826
2243	0.8812
2234	0.8804
2225	0.8819
2216	0.88
2207	0.8783
2198	0.8802
2189	0.8813
2180	0.8824
2171	0.8807
2162	0.8745
2153	0.8772
2144	0.8816
2135	0.8861
2126	0.89
2117	0.8934
2108	0.8955
2099	0.8959
2090	0.8941
2081	0.8883
2072	0.8846
2063	0.8867
2054	0.8872
2045	0.8853
2036	0.8924
2027	0.8859
2018	0.8832
2009	0.8909
2000	0.907
1991	0.9267
1982	0.9271
1973	0.9271
1964	0.929
1955	0.9299
1946	0.9288
1937	0.9291
1928	0.9287
1919	0.9265
1910	0.9232
1901	0.9224
1892	0.9204
1883	0.9191
1874	0.9221
1865	0.9229
1856	0.9233
1847	0.9221
1838	0.9213
1829	0.9188
1820	0.917
1811	0.9167
1802	0.9119
1793	0.9099
1784	0.9075
1775	0.9034
1766	0.9
1757	0.8972
1748	0.8907
1739	0.8829
1730	0.8746
1721	0.8674
1712	0.8554
1703	0.8345
1694	0.7995
1685	0.8127
1676	0.8128
1667	0.7891
1658	0.7901
1649	0.7995
1640	0.783
1631	0.7526
1622	0.7354
1613	0.7546
1604	0.76
1595	0.7563
1586	0.7009
1577	0.6069
1568	0.6451
1559	0.659
1550	0.7125
1541	0.752
1532	0.7188
1523	0.5069
1514	0.0062
1505	0.0734
1496	0.5474
1487	0.6211
1478	0.6066
1469	0.2667
1460	0.4477
1451	0.3001
1442	0.47
1433	0.681
1424	0.714
1415	0.6983
1406	0.6068
1397	0.4294
1388	0.4329
1379	0.6407
1370	0.6467
1361	0.478
1352	0.4443
1343	0.6473
1334	0.7334
1325	0.7967
1316	0.8014
1307	0.7491
1298	0.7857
1289	0.4588
1280	0.317
1271	0.6329
1262	0.7333
1253	0.5539
1244	0.5394
1235	0.4432
1226	0.0166
1217	0.3649
1208	0.8406
1199	0.9016
1190	0.9264
1181	0.9353
1172	0.8988
1163	0.8913
1154	0.8732
1145	0.8838
1136	0.8644
1127	0.7053
1118	0.4319
1109	0.0183
1100	0.3481
1091	0.54
1082	0.3925
1073	0.0033
1064	0.5423
1055	0.7778
1046	0.7744
1037	0.4945
1028	0.5096
1019	0.7276
1010	0.8834
1001	0.9395
992	0.9468
983	0.9241
974	0.9046
965	0.8656
956	0.662
947	0.9006
938	0.9459
929	0.9578
920	0.9425
911	0.6544
902	0.492
893	0.9064
884	0.9386
875	0.9069
866	0.8651
857	0.8207
848	0.7393
839	0.7122
830	0.6387
821	0.4469
812	0.1243
803	0.3164
794	0.7708
785	0.8668
776	0.8751
767	0.8377
758	0.7733
749	0.6556
740	0.4741
731	0.0358
722	0.4092
713	0.7776
704	0.871
695	0.8942
686	0.8879
677	0.8466
668	0.4268
659	0.0887
650	0.6659
641	0.8414
632	0.8481
623	0.5078
614	0.6407
605	0.8371
596	0.9007
587	0.9179
578	0.9198
569	0.9166
560	0.9063
551	0.8918
542	0.8832
533	0.8828
524	0.8841
515	0.8854
506	0.8876
497	0.89
488	0.8906
479	0.8913
470	0.8929
