Infrared Spectrum: L-Histidine
Formula: C 6 H 9 N 3 O 2
CAS: 71-00-1
State: solid
Instrument: Bruker Tensor 37 FTIR
Resolution: 0.96450084
Origin: Pacific Northwest National Laboratory Under IARPA Contract
1/cm	Reflectance
7498.99	0.697573
7481.63	0.702525
7464.27	0.692763
7446.91	0.692753
7429.55	0.684059
7412.19	0.677005
7394.84	0.673036
7377.48	0.661651
7360.12	0.651036
7342.76	0.666272
7325.4	0.645079
7308.04	0.65921
7290.68	0.656941
7273.32	0.654251
7255.96	0.664424
7238.6	0.663117
7221.24	0.660236
7203.88	0.659168
7186.52	0.664103
7169.16	0.677237
7151.8	0.676786
7134.44	0.67815
7117.08	0.681485
7099.72	0.682341
7082.36	0.682645
7065	0.676186
7047.64	0.674092
7030.28	0.668619
7012.92	0.658389
6995.56	0.651382
6978.2	0.63777
6960.84	0.620294
6943.48	0.60061
6926.12	0.580582
6908.76	0.553431
6891.4	0.516972
6874.04	0.48373
6856.68	0.448987
6839.32	0.401174
6821.96	0.342689
6804.6	0.373663
6787.24	0.366086
6769.88	0.368589
6752.52	0.369248
6735.16	0.364688
6717.8	0.35622
6700.44	0.348812
6683.08	0.304624
6665.72	0.314327
6648.36	0.321371
6631	0.312468
6613.64	0.327873
6596.28	0.330894
6578.92	0.310476
6561.56	0.319265
6544.2	0.320357
6526.85	0.312793
6509.49	0.320603
6492.13	0.316941
6474.77	0.318381
6457.41	0.317415
6440.05	0.317872
6422.69	0.313769
6405.33	0.316551
6387.97	0.316064
6370.61	0.315248
6353.25	0.319991
6335.89	0.31997
6318.53	0.31945
6301.17	0.319854
6283.81	0.315827
6266.45	0.312661
6249.09	0.311025
6231.73	0.307605
6214.37	0.303026
6197.01	0.292223
6179.65	0.271956
6162.29	0.247258
6144.93	0.221847
6127.57	0.192507
6110.21	0.164966
6092.85	0.154945
6075.49	0.140908
6058.13	0.119842
6040.77	0.132496
6023.41	0.134709
6006.05	0.136348
5988.69	0.137219
5971.33	0.11569
5953.97	0.142605
5936.61	0.115897
5919.25	0.141671
5901.89	0.113778
5884.53	0.150347
5867.17	0.127069
5849.81	0.114825
5832.45	0.15159
5815.09	0.151903
5797.73	0.140176
5780.37	0.145698
5763.01	0.172532
5745.65	0.190958
5728.29	0.181405
5710.93	0.16709
5693.57	0.187482
5676.21	0.200809
5658.86	0.186321
5641.5	0.184607
5624.14	0.189126
5606.78	0.203067
5589.42	0.19623
5572.06	0.174782
5554.7	0.174616
5537.34	0.164235
5519.98	0.153275
5502.62	0.143194
5485.26	0.132485
5467.9	0.118354
5450.54	0.104886
5433.18	0.0839139
5415.82	0.0651574
5398.46	0.0490274
5381.1	0.0380555
5363.74	0.0323195
5346.38	0.0302689
5329.02	0.0292573
5311.66	0.0304055
5294.3	0.0319714
5276.94	0.0324578
5259.58	0.0346235
5242.22	0.0353234
5224.86	0.0353645
5207.5	0.0354383
5190.14	0.0369227
5172.78	0.0375858
5155.42	0.0379301
5138.06	0.0377059
5120.7	0.0370706
5103.34	0.0369428
5085.98	0.0381063
5068.62	0.0389021
5051.26	0.0389541
5033.9	0.0393399
5016.54	0.0401768
4999.18	0.0444679
4981.82	0.0473794
4964.46	0.0477649
4947.1	0.0565932
4929.74	0.0633982
4912.38	0.0703748
4895.02	0.0691109
4877.66	0.0811292
4860.3	0.0857054
4842.94	0.092816
4825.58	0.0690581
4808.22	0.079692
4790.86	0.0641826
4773.51	0.0487009
4756.15	0.0433912
4738.79	0.0544839
4721.43	0.0655237
4704.07	0.0730929
4686.71	0.0658623
4669.35	0.0590677
4651.99	0.0483476
4634.63	0.0460689
4617.27	0.0394223
4599.91	0.0328234
4582.55	0.0232423
4565.19	0.0687568
4547.83	0.0304251
4530.47	0.0355375
4513.11	0.0282437
4495.75	0.0274812
4478.39	0.0728845
4461.03	0.0488353
4443.67	0.0429979
4426.31	0.0281018
4408.95	0.0383676
4391.59	0.0377498
4374.23	0.0578497
4356.87	0.0516251
4339.51	0.0493808
4322.15	0.0367976
4304.79	0.0411013
4287.43	0.0492834
4270.07	0.0523773
4252.71	0.0488493
4235.35	0.0274441
4217.99	0.0332062
4200.63	0.0396912
4183.27	0.0558096
4165.91	0.0609608
4148.55	0.0523329
4131.19	0.0827947
4113.83	0.0529589
4096.47	0.0685269
4079.11	0.0566549
4061.75	0.0758385
4044.39	0.699049
4027.03	0.702624
4009.67	0.699101
3992.31	0.681503
3974.95	0.683872
3957.59	0.677563
3940.23	0.66942
3922.87	0.650916
3905.52	0.653662
3888.16	0.659059
3870.8	0.640344
3853.44	0.658462
3836.08	0.649844
3818.72	0.655582
3801.36	0.663269
3784	0.659675
3766.64	0.658562
3749.28	0.656317
3731.92	0.667279
3714.56	0.674457
3697.2	0.672077
3679.84	0.678268
3662.48	0.673716
3645.12	0.676288
3627.76	0.675406
3610.4	0.675867
3593.04	0.668683
3575.68	0.666226
3558.32	0.650892
3540.96	0.643127
3523.6	0.62763
3506.24	0.61051
3488.88	0.586616
3471.52	0.562427
3454.16	0.534329
3436.8	0.498155
3419.44	0.46588
3402.08	0.436029
3384.72	0.324099
3367.36	0.337931
3350	0.362355
3332.64	0.345726
3315.28	0.36242
3297.92	0.358575
3280.56	0.353841
3263.2	0.34661
3245.84	0.332569
3228.48	0.319368
3211.12	0.277682
3193.76	0.31655
3176.4	0.313374
3159.04	0.322596
3141.68	0.313156
3124.32	0.31057
3106.96	0.312757
3089.6	0.306692
3072.24	0.30826
3054.88	0.312927
3037.53	0.30957
3020.17	0.310574
3002.81	0.307648
2985.45	0.30905
2968.09	0.306271
2950.73	0.308053
2933.37	0.307467
2916.01	0.307481
2898.65	0.312464
2881.29	0.310422
2863.93	0.311137
2846.57	0.310404
2829.21	0.308297
2811.85	0.304576
2794.49	0.301258
2777.13	0.299185
2759.77	0.2915
2742.41	0.279522
2725.05	0.256997
2707.69	0.231633
2690.33	0.206153
2672.97	0.179648
2655.61	0.158218
2638.25	0.145745
2620.89	0.121885
2603.53	0.119261
2586.17	0.130709
2568.81	0.129996
2551.45	0.133811
2534.09	0.129627
2516.73	0.128712
2499.37	0.128693
2482.01	0.131567
2464.65	0.133582
2447.29	0.104121
2429.93	0.145554
2412.57	0.11286
2395.21	0.123829
2377.85	0.144289
2360.49	0.138439
2343.13	0.152145
2325.77	0.138943
2308.41	0.178361
2291.05	0.186474
2273.69	0.144174
2256.33	0.169007
2238.97	0.185001
2221.61	0.202964
2204.25	0.175854
2186.89	0.17267
2169.53	0.194396
2152.18	0.191851
2134.82	0.187078
2117.46	0.148931
2100.1	0.169117
2082.74	0.15666
2065.38	0.147955
2048.02	0.137662
2030.66	0.126677
2013.3	0.11351
1995.94	0.0964009
1978.58	0.0766462
1961.22	0.0588548
1943.86	0.0443186
1926.5	0.0362645
1909.14	0.0321496
1891.78	0.0306528
1874.42	0.0298323
1857.06	0.0312557
1839.7	0.032521
1822.34	0.033117
1804.98	0.0350756
1787.62	0.0347995
1770.26	0.0358288
1752.9	0.0357126
1735.54	0.0374989
1718.18	0.03777
1700.82	0.0378002
1683.46	0.0375861
1666.1	0.0368681
1648.74	0.0373281
1631.38	0.0383676
1614.02	0.0395077
1596.66	0.0386354
1579.3	0.0403354
1561.94	0.0414169
1544.58	0.0448136
1527.22	0.0469118
1509.86	0.05102
1492.5	0.0604548
1475.14	0.0605629
1457.78	0.0641675
1440.42	0.0661695
1423.06	0.08337
1405.7	0.084106
1388.34	0.0881432
1370.98	0.0781132
1353.62	0.0722716
1336.26	0.0581368
1318.9	0.0451655
1301.54	0.0466753
1284.19	0.0578378
1266.83	0.0659568
1249.47	0.07155
1232.11	0.0666311
1214.75	0.0566449
1197.39	0.0458578
1180.03	0.0442107
1162.67	0.0385473
1145.31	0.0303721
1127.95	0.0258075
1110.59	0.0422855
1093.23	0.0382322
1075.87	0.0340561
1058.51	0.0262785
1041.15	0.0343949
1023.79	0.0672699
1006.43	0.0536299
989.068	0.0432846
971.709	0.0537578
954.349	0.0430287
936.989	0.0329963
919.629	0.0528416
902.269	0.0551803
884.91	0.0477094
867.55	0.0405993
850.19	0.0526305
832.83	0.0361347
815.47	0.0566992
798.111	0.0422684
780.751	0.0427064
763.391	0.0362719
746.031	0.0474823
728.671	0.046192
711.312	0.0437582
693.952	0.0431365
676.592	0.0882973
659.232	0.103301
641.872	0.0384058
624.513	0.062976
607.153	0.0814698
