Infrared Spectrum: Cytosine
Formula: C4 H5 N3 O
CAS: 71-30-7
State: SOLID (1 mg / 650 mg KBr DISC)
Class: COBLENTZ III
Instrument: PERKIN-ELMER 21 (GRATING)
Instrument parameters: FILTER CHANGE ABOUT 1070 CM^-^1
Resolution: 2
Origin: SOUTHERN RESEARCH INSTITUTE
1/CM	TRANSMITTANCE
623.62	0.3756
632.851	0.3676
642.081	0.3586
651.312	0.3372
660.542	0.3466
669.773	0.3607
679.004	0.3769
688.234	0.3918
697.465	0.4062
706.695	0.4616
715.926	0.5213
725.157	0.5268
734.387	0.5232
743.618	0.502
752.848	0.4816
762.079	0.4658
771.31	0.4398
780.54	0.3538
789.771	0.3046
799.001	0.3279
808.232	0.3047
817.463	0.2737
826.693	0.3466
835.924	0.4436
845.155	0.4966
854.385	0.4942
863.616	0.4692
872.846	0.4452
882.077	0.4539
891.308	0.503
900.538	0.532
909.769	0.5464
918.999	0.5462
928.23	0.5447
937.461	0.5424
946.691	0.5338
955.922	0.4913
965.152	0.4474
974.383	0.459
983.614	0.4564
992.844	0.4521
1002.07	0.4491
1011.31	0.4445
1020.54	0.4529
1029.77	0.446
1039	0.4369
1048.23	0.4262
1057.46	0.415
1066.69	0.4036
1075.92	0.3911
1085.15	0.3794
1094.38	0.3631
1103.61	0.3551
1112.84	0.3535
1122.07	0.3492
1131.3	0.3341
1140.53	0.3124
1149.76	0.3105
1159	0.33
1168.23	0.337
1177.46	0.3325
1186.69	0.3231
1195.92	0.3099
1205.15	0.2918
1214.38	0.2738
1223.61	0.209
1232.84	0.1213
1242.07	0.1696
1251.3	0.3078
1260.53	0.3033
1269.76	0.2782
1278.99	0.2627
1288.22	0.2608
1297.45	0.397
1306.68	0.3879
1315.92	0.3769
1325.15	0.3607
1334.38	0.3409
1343.61	0.3017
1352.84	0.2144
1362.07	0.1422
1371.3	0.2107
1380.53	0.2903
1389.76	0.3927
1398.99	0.3737
1408.22	0.3284
1417.45	0.282
1426.68	0.2363
1435.91	0.1799
1445.14	0.1268
1454.37	0.058
1463.61	0.0432
1472.84	0.1713
1482.07	0.1982
1491.3	0.1407
1500.53	0.1178
1509.76	0.1337
1518.99	0.1389
1528.22	0.1402
1537.45	0.1832
1546.68	0.2616
1555.91	0.319
1565.14	0.2981
1574.37	0.2517
1583.6	0.1882
1592.83	0.1367
1602.06	0.0639
1611.29	0.045
1620.53	0.0276
1629.76	0.0165
1638.99	0.0146
1648.22	0.0073
1657.45	0.0108
1666.68	0.0294
1675.91	0.0724
1685.14	0.1109
1694.37	0.1555
1703.6	0.214
1712.83	0.3427
1722.06	0.4124
1731.29	0.4496
1740.52	0.4941
1749.75	0.5256
1758.98	0.5565
1768.21	0.5843
1777.45	0.6183
1786.68	0.6549
1795.91	0.6734
1805.14	0.6897
1814.37	0.7032
1823.6	0.7092
1832.83	0.7185
1842.06	0.7238
1851.29	0.7286
1860.52	0.7375
1869.75	0.7456
1878.98	0.7521
1888.21	0.7539
1897.44	0.7517
1906.67	0.7495
1915.9	0.7442
1925.14	0.735
1934.37	0.7261
1943.6	0.718
1952.83	0.7096
1962.06	0.7079
1971.29	0.707
1980.52	0.703
1989.75	0.6958
1998.98	0.6915
2008.21	0.7004
2017.44	0.7019
2026.67	0.6971
2035.9	0.6904
2045.13	0.6836
2054.36	0.6767
2063.59	0.67
2072.82	0.6651
2082.06	0.6615
2091.29	0.6578
2100.52	0.6513
2109.75	0.643
2118.98	0.634
2128.21	0.6255
2137.44	0.6192
2146.67	0.6155
2155.9	0.6143
2165.13	0.6129
2174.36	0.61
2183.59	0.601
2192.82	0.5907
2202.05	0.5794
2211.28	0.5682
2220.51	0.5577
2229.75	0.5486
2238.98	0.5438
2248.21	0.5391
2257.44	0.5347
2266.67	0.5311
2275.9	0.5301
2285.13	0.5308
2294.36	0.5322
2303.59	0.5309
2312.82	0.5261
2322.05	0.5171
2331.28	0.5085
2340.51	0.5009
2349.74	0.4935
2358.97	0.4857
2368.2	0.4736
2377.43	0.4609
2386.67	0.4492
2395.9	0.4385
2405.13	0.4297
2414.36	0.4215
2423.59	0.4099
2432.82	0.3967
2442.05	0.3872
2451.28	0.3787
2460.51	0.3708
2469.74	0.3632
2478.97	0.3569
2488.2	0.3532
2497.43	0.3505
2506.66	0.3471
2515.89	0.3265
2525.12	0.3161
2534.36	0.3111
2543.59	0.3085
2552.82	0.3072
2562.05	0.3062
2571.28	0.3003
2580.51	0.2945
2589.74	0.2822
2598.97	0.2574
2608.2	0.2416
2617.43	0.2302
2626.66	0.2207
2635.89	0.213
2645.12	0.2075
2654.35	0.2017
2663.58	0.1967
2672.81	0.1949
2682.04	0.1973
2691.28	0.2015
2700.51	0.2055
2709.74	0.203
2718.97	0.1976
2728.2	0.1941
2737.43	0.1932
2746.66	0.192
2755.89	0.1843
2765.12	0.1756
2774.35	0.1791
2783.58	0.1925
2792.81	0.2084
2802.04	0.2179
2811.27	0.2217
2820.5	0.2261
2829.73	0.233
2838.97	0.2352
2848.2	0.2397
2857.43	0.2517
2866.66	0.2604
2875.89	0.2595
2885.12	0.2581
2894.35	0.2566
2903.58	0.2575
2912.81	0.2635
2922.04	0.269
2931.27	0.2692
2940.5	0.2692
2949.73	0.2696
2958.96	0.2705
2968.19	0.272
2977.42	0.273
2986.65	0.275
2995.89	0.2783
3005.12	0.2775
3014.35	0.2715
3023.58	0.2625
3032.81	0.2564
3042.04	0.2518
3051.27	0.2468
3060.5	0.2333
3069.73	0.2176
3078.96	0.201
3088.19	0.1803
3097.42	0.1564
3106.65	0.1338
3115.88	0.1133
3125.11	0.1014
3134.34	0.099
3143.58	0.1056
3152.81	0.1198
3162.04	0.1388
3171.27	0.1581
3180.5	0.1734
3189.73	0.1797
3198.96	0.1804
3208.19	0.1785
3217.42	0.1738
3226.65	0.169
3235.88	0.1644
3245.11	0.1602
3254.34	0.1547
3263.57	0.1477
3272.8	0.1373
3282.03	0.1265
3291.26	0.113
3300.5	0.0943
3309.73	0.082
3318.96	0.0736
3328.19	0.0668
3337.42	0.062
3346.65	0.0584
3355.88	0.0591
3365.11	0.0657
3374.34	0.0932
3383.57	0.1153
3392.8	0.1329
3402.03	0.1464
3411.26	0.16
3420.49	0.1752
3429.72	0.1927
3438.95	0.2182
3448.18	0.2419
3457.42	0.2733
3466.65	0.2987
3475.88	0.3365
3485.11	0.3662
3494.34	0.3998
3503.57	0.4304
3512.8	0.4539
3522.03	0.4731
3531.26	0.4868
3540.49	0.508
3549.72	0.5397
3558.95	0.5746
3568.18	0.6001
3577.41	0.621
3586.64	0.6508
3595.87	0.6696
3605.11	0.6815
3614.34	0.6911
3623.57	0.6989
3632.8	0.7015
3642.03	0.7023
3651.26	0.7023
3660.49	0.7021
3669.72	0.702
3678.95	0.7022
3688.18	0.7069
3697.41	0.7044
3706.64	0.7009
3715.87	0.6966
3725.1	0.6927
3734.33	0.6892
3743.56	0.6865
3752.79	0.6839
3762.03	0.681
3771.26	0.6782
3780.49	0.6752
3789.72	0.6723
3798.95	0.6687
3808.18	0.6645
3817.41	0.6604
3826.64	0.6563
3835.87	0.6521
3845.1	0.6479
3854.33	0.644
3863.56	0.6401
3872.79	0.6365
3882.02	0.6334
3891.25	0.6304
3900.48	0.6289
3909.72	0.6274
3918.95	0.6259
3928.18	0.6233
3937.41	0.6206
3946.64	0.6171
3955.87	0.6127
3965.1	0.6085
3974.33	0.6045
3983.56	0.6024
3992.79	0.602
