Infrared Spectrum: N,N'-Bis(3-aminopropyl)-1,4-butanediamine
Formula: C 10 H 26 N 4
CAS: 71-44-3
State: gas
Instrument: HP-GC/MS/IRD
Origin: NIST Mass Spectrometry Data Center
1/CM	ABSORBANCE
550	0.00272
562	0.0003485
574	0.000578
586	0.000884
598	0.001513
610	0.0020825
622	0.003077
634	0.0042925
646	0.0057205
658	0.007531
670	0.009384
682	0.01088
694	0.0124355
706	0.013583
718	0.0149345
730	0.016507
742	0.019261
754	0.021794
766	0.022355
778	0.021607
790	0.0183005
802	0.0133535
814	0.0099025
826	0.0076585
838	0.0061965
850	0.0053125
862	0.0044795
874	0.0038505
886	0.003502
898	0.0032725
910	0.003145
922	0.002992
934	0.0028985
946	0.0023205
958	0.002601
970	0.0028475
982	0.002652
994	0.0027795
1006	0.0031875
1018	0.004131
1030	0.0049725
1042	0.0053125
1054	0.006613
1066	0.0088485
1078	0.01037
1090	0.0109395
1102	0.0127075
1114	0.018547
1126	0.027166
1138	0.0223975
1150	0.0117555
1162	0.00697
1174	0.004709
1186	0.003536
1198	0.0029325
1210	0.0025245
1222	0.0023885
1234	0.0024225
1246	0.002312
1258	0.002533
1270	0.0029155
1282	0.0030005
1294	0.003468
1306	0.004012
1318	0.004505
1330	0.006154
1342	0.0094095
1354	0.0109225
1366	0.01054
1378	0.0086105
1390	0.006256
1402	0.0042755
1414	0.003893
1426	0.006273
1438	0.0111435
1450	0.01547
1462	0.018088
1474	0.013804
1486	0.006596
1498	0.0032895
1510	0.0022015
1522	0.001564
1534	0.001258
1546	0.001241
1558	0.001394
1570	0.001377
1582	0.0018615
1594	0.002737
1606	0.0043435
1618	0.0064345
1630	0.0061115
1642	0.003757
1654	0.00221
1666	0.001309
1678	0.001071
1690	0.00085
1702	0.0008755
1714	0.000595
1726	0.0003655
1738	0.0004165
1750	0.000459
1762	0.000493
1774	0.000459
1786	0.000476
1798	0.0005015
1810	0.000527
1822	0.000578
1834	0.0005695
1846	0.000612
1858	0.0004505
1870	0.000391
1882	0.0002805
1894	0.0002635
1906	0.0002295
1918	0.0002635
1930	0.0002465
1942	0.0002635
1954	0.000238
1966	0.0002805
1978	0.0002635
1990	0.0002975
2002	0.0002975
2014	0.0003145
2026	0.000357
2038	0.000374
2050	0.000374
2062	0.0003485
2074	0.0003315
2086	0.0003315
2098	0.0003145
2110	0.000323
2122	0.00034
2134	0.000323
2146	0.0003145
2158	0.000306
2170	0.000306
2182	0.000323
2194	0.000323
2206	0.000306
2218	0.0002975
2230	0.000306
2242	0.000323
2254	0.0002805
2266	0.0002805
2278	0.000323
2290	0.00034
2302	0.000425
2314	0.000442
2326	0.000476
2338	0.000459
2350	0.0004675
2362	0.000595
2374	0.000493
2386	0.000357
2398	0.000323
2410	0.0003485
2422	0.0003655
2434	0.000408
2446	0.0003825
2458	0.000459
2470	0.000442
2482	0.00051
2494	0.000561
2506	0.000646
2518	0.000714
2530	0.0007905
2542	0.0008755
2554	0.0009945
2566	0.001139
2578	0.001292
2590	0.0014365
2602	0.001649
2614	0.0019125
2626	0.0022185
2638	0.0025585
2650	0.0030515
2662	0.0036975
2674	0.004335
2686	0.005032
2698	0.005644
2710	0.0062135
2722	0.006936
2734	0.0079305
2746	0.009061
2758	0.0102935
2770	0.0119085
2782	0.0152915
2794	0.021845
2806	0.03145
2818	0.039389
2830	0.038964
2842	0.037757
2854	0.041412
2866	0.0423045
2878	0.0388195
2890	0.038471
2902	0.044676
2914	0.0604435
2926	0.0790075
2938	0.082518
2950	0.055369
2962	0.0296395
2974	0.0154955
2986	0.0085255
2998	0.005185
3010	0.0035105
3022	0.0025075
3034	0.001887
3046	0.0014875
3058	0.00119
3070	0.001037
3082	0.00085
3094	0.0008755
3106	0.000765
3118	0.0007055
3130	0.0006375
3142	0.0006375
3154	0.000629
3166	0.000629
3178	0.0005865
3190	0.000527
3202	0.0006375
3214	0.000663
3226	0.000578
3238	0.000578
3250	0.0005865
3262	0.0005865
3274	0.0005865
3286	0.00068
3298	0.000799
3310	0.0009605
3322	0.0013345
3334	0.001904
3346	0.002006
3358	0.0015555
3370	0.001156
3382	0.0009605
3394	0.0009945
3406	0.001088
3418	0.000884
3430	0.0007565
3442	0.0005525
3454	0.000476
3466	0.0004165
3478	0.000374
3490	0.0003655
3502	0.000408
3514	0.000357
3526	0.000374
3538	0.0003145
3550	0.0003995
3562	0.0003825
3574	0.0003315
3586	0.000459
3598	0.00034
3610	0.0004845
3622	0.0003995
3634	0.0003315
3646	0.000408
3658	0.0003485
3670	0.0004505
3682	0.0003655
3694	0.000323
3706	0.00034
3718	0.00034
3730	0.000476
3742	0.0004505
3754	0.000442
3766	0.000289
3778	0.000323
3790	0.0002635
3802	0.0002805
3814	0.0003315
3826	0.000357
3838	0.00051
