Infrared Spectrum: Ammonium iodide, (3-carbamoyl-3,3-diphenylpropyl)diisopropylmethyl-
Formula: C23 H33 I N2 O
CAS: 71-81-8
State: SOLID (OIL MULL)
Class: COBLENTZ III
Instrument: PERKIN-ELMER 21 (GRATING)
Instrument parameters: NaCl PRISM
Sampling: TRANSMISSION
Resolution: 2
Origin: SMITH KLINE & FRENCH LABS.
1/CM	TRANSMITTANCE
647	0.6167
656	0.6663
665	0.6996
674	0.7457
683	0.7694
692	0.7685
701	0.5991
710	0.3762
719	0.7538
728	0.6996
737	0.7785
746	0.8072
755	0.5718
764	0.6442
773	0.7288
782	0.8775
791	0.8758
800	0.9238
809	0.9412
818	0.9389
827	0.9408
836	0.9322
845	0.9254
854	0.9123
863	0.9153
872	0.9075
881	0.8624
890	0.8598
899	0.8759
908	0.8426
917	0.846
926	0.8675
935	0.8014
944	0.7715
953	0.7949
962	0.8182
971	0.8076
980	0.8305
989	0.842
998	0.7847
1007	0.8304
1016	0.8118
1025	0.78
1034	0.8058
1043	0.8365
1052	0.8441
1061	0.7994
1070	0.7602
1079	0.8165
1088	0.8038
1097	0.7608
1106	0.7652
1115	0.7209
1124	0.6699
1133	0.7778
1142	0.7616
1151	0.7353
1160	0.7057
1169	0.7227
1178	0.7162
1187	0.6788
1196	0.7475
1205	0.785
1214	0.8064
1223	0.8075
1232	0.8077
1241	0.8025
1250	0.7946
1259	0.7805
1268	0.7653
1277	0.7574
1286	0.7545
1295	0.7257
1304	0.7012
1313	0.6716
1322	0.6595
1331	0.646
1340	0.6501
1349	0.6351
1358	0.6163
1367	0.5281
1376	0.3722
1385	0.5233
1394	0.5638
1403	0.592
1412	0.7332
1421	0.7076
1430	0.6319
1439	0.367
1448	0.2521
1457	0.2265
1466	0.2394
1475	0.4476
1484	0.5472
1493	0.539
1502	0.7453
1511	0.7669
1520	0.7661
1529	0.761
1538	0.7419
1547	0.7268
1556	0.6709
1565	0.6111
1574	0.4547
1583	0.3366
1592	0.3789
1601	0.5457
1610	0.6785
1619	0.6765
1628	0.6207
1637	0.5697
1646	0.4325
1655	0.1467
1664	0.0955
1673	0.4088
1682	0.7746
1691	0.864
1700	0.8889
1709	0.8944
1718	0.8917
1727	0.8871
1736	0.8815
1745	0.8793
1754	0.8782
1763	0.8756
1772	0.8706
1781	0.869
1790	0.8665
1799	0.8643
1808	0.8619
1817	0.8541
1826	0.8384
1835	0.8278
1844	0.8295
1853	0.8346
1862	0.8353
1871	0.8304
1880	0.8252
1889	0.8195
1898	0.8126
1907	0.8076
1916	0.8059
1925	0.8068
1934	0.8058
1943	0.8039
1952	0.8009
1961	0.7949
1970	0.7881
1979	0.7804
1988	0.7818
1997	0.7846
2006	0.787
2015	0.7895
2024	0.7895
2033	0.7869
2042	0.7842
2051	0.7817
2060	0.7796
2069	0.7776
2078	0.7764
2087	0.7752
2096	0.7744
2105	0.7736
2114	0.7724
2123	0.7703
2132	0.7682
2141	0.7661
2150	0.7646
2159	0.7632
2168	0.762
2177	0.7608
2186	0.7597
2195	0.7586
2204	0.7573
2213	0.7557
2222	0.7541
2231	0.7522
2240	0.7504
2249	0.7484
2258	0.7464
2267	0.743
2276	0.7388
2285	0.7318
2294	0.7245
2303	0.7175
2312	0.7142
2321	0.7126
2330	0.709
2339	0.7064
2348	0.7093
2357	0.7152
2366	0.7211
2375	0.722
2384	0.7208
2393	0.718
2402	0.7157
2411	0.7166
2420	0.7185
2429	0.7175
2438	0.7159
2447	0.7096
2456	0.7048
2465	0.7024
2474	0.6999
2483	0.7017
2492	0.7021
2501	0.6978
2510	0.6932
2519	0.6885
2528	0.6833
2537	0.678
2546	0.6729
2555	0.6707
2564	0.6687
2573	0.6661
2582	0.6634
2591	0.6608
2600	0.6571
2609	0.6532
2618	0.6493
2627	0.646
2636	0.6433
2645	0.6409
2654	0.6418
2663	0.643
2672	0.6474
2681	0.6467
2690	0.6414
2699	0.6404
2708	0.6408
2717	0.6452
2726	0.6496
2735	0.6529
2744	0.6511
2753	0.6478
2762	0.6421
2771	0.6325
2780	0.6167
2789	0.5879
2798	0.5347
2807	0.4347
2816	0.2759
2825	0.1499
2834	0.094
2843	0.0946
2852	0.0986
2861	0.0979
2870	0.0938
2879	0.0829
2888	0.066
2897	0.06
2906	0.0614
2915	0.0631
2924	0.0618
2933	0.0613
2942	0.1061
2951	0.1664
2960	0.1792
2969	0.2151
2978	0.2853
2987	0.3436
2996	0.356
3005	0.3743
3014	0.3907
3023	0.4413
3032	0.4594
3041	0.4677
3050	0.4709
3059	0.4718
3068	0.4716
3077	0.4701
3086	0.4685
3095	0.4669
3104	0.4652
3113	0.4629
3122	0.4606
3131	0.4582
3140	0.4552
3149	0.4523
3158	0.4488
3167	0.4445
3176	0.439
3185	0.4332
3194	0.4271
3203	0.4176
3212	0.4053
3221	0.393
3230	0.3863
3239	0.3733
3248	0.3529
3257	0.3566
3266	0.3723
3275	0.388
3284	0.4035
3293	0.419
3302	0.4344
3311	0.4497
3320	0.465
3329	0.48
3338	0.4951
3347	0.5058
3356	0.5056
3365	0.4992
3374	0.4926
3383	0.4869
3392	0.4832
3401	0.4793
3410	0.4737
3419	0.4606
3428	0.4415
3437	0.4225
3446	0.4066
3455	0.4052
3464	0.451
3473	0.4901
3482	0.4895
3491	0.4841
3500	0.4789
3509	0.4738
3518	0.4727
3527	0.4776
3536	0.4866
3545	0.4934
3554	0.4985
3563	0.5019
3572	0.5037
3581	0.5053
3590	0.5066
3599	0.5073
3608	0.5073
3617	0.5061
3626	0.5048
3635	0.5032
3644	0.5018
3653	0.5004
3662	0.4991
3671	0.4978
3680	0.4964
3689	0.4951
3698	0.4938
3707	0.4925
3716	0.4913
3725	0.49
3734	0.4887
3743	0.4874
3752	0.4859
3761	0.4844
3770	0.483
3779	0.4816
3788	0.4802
3797	0.4789
3806	0.4775
3815	0.4762
3824	0.4748
3833	0.4735
3842	0.4718
3851	0.4702
3860	0.4685
3869	0.4668
3878	0.4652
3887	0.4635
3896	0.4619
3905	0.4602
3914	0.4586
3923	0.4569
3932	0.4552
3941	0.4536
3950	0.452
3959	0.4504
3968	0.4487
3977	0.447
3986	0.4452
3995	0.4433
