Infrared Spectrum: PHENETHYLSULFAMIDE
Formula: C8 H12 N2 O2 S
CAS: 710-15-6
State: SOLID (OIL MULL)
Class: COBLENTZ III
Instrument: Not specified, most likely a prism spectrometer.
Instrument parameters: NaCl PRISM
Sampling: TRANSMISSION
Resolution: 2
Origin: SMITH KLINE & FRENCH LABS.
MICROMETERS	TRANSMITTANCE
2.004	0.708
2.03816	0.711
2.07232	0.711
2.10648	0.712
2.14064	0.714
2.1748	0.716
2.20896	0.718
2.24312	0.72
2.27728	0.722
2.31144	0.723
2.34561	0.73
2.37977	0.733
2.41393	0.739
2.44809	0.741
2.48225	0.74
2.51641	0.74
2.55057	0.753
2.58473	0.769
2.61889	0.766
2.65305	0.771
2.68721	0.766
2.72137	0.771
2.75553	0.785
2.78969	0.793
2.82385	0.793
2.85801	0.793
2.89217	0.792
2.92633	0.762
2.96049	0.723
2.99466	0.577
3.02882	0.31
3.06298	0.207
3.09714	0.183
3.1313	0.16
3.16546	0.239
3.19962	0.265
3.23378	0.3
3.26794	0.382
3.3021	0.438
3.33626	0.449
3.37042	0.413
3.40458	0.216
3.43874	0.138
3.4729	0.134
3.50706	0.158
3.54122	0.292
3.57538	0.55
3.60954	0.674
3.64371	0.705
3.67787	0.717
3.71203	0.733
3.74619	0.747
3.78035	0.759
3.81451	0.765
3.84867	0.78
3.88283	0.787
3.91699	0.791
3.95115	0.793
3.98531	0.808
4.01947	0.816
4.05363	0.816
4.08779	0.821
4.12195	0.821
4.15611	0.828
4.19027	0.834
4.22443	0.824
4.25859	0.816
4.29276	0.809
4.32692	0.808
4.36108	0.815
4.39524	0.832
4.4294	0.838
4.46356	0.849
4.49772	0.847
4.53188	0.845
4.56604	0.847
4.6002	0.85
4.63436	0.864
4.66852	0.868
4.70268	0.866
4.73684	0.872
4.771	0.872
4.80516	0.864
4.83932	0.868
4.87348	0.868
4.90764	0.871
4.94181	0.873
4.97597	0.872
5.01013	0.868
5.04429	0.87
5.07845	0.871
5.11261	0.861
5.14677	0.851
5.18093	0.861
5.21509	0.866
5.24925	0.871
5.28341	0.871
5.31757	0.865
5.35173	0.853
5.38589	0.878
5.42005	0.883
5.45421	0.883
5.48837	0.882
5.52253	0.878
5.55669	0.877
5.59086	0.878
5.62502	0.878
5.65918	0.882
5.69334	0.861
5.7275	0.856
5.76166	0.86
5.79582	0.87
5.82998	0.871
5.86414	0.867
5.8983	0.861
5.93246	0.841
5.96662	0.827
6.00078	0.819
6.03494	0.808
6.0691	0.771
6.10326	0.745
6.13742	0.762
6.17158	0.779
6.20574	0.766
6.23991	0.679
6.27407	0.612
6.30823	0.479
6.34239	0.462
6.37655	0.509
6.41071	0.611
6.44487	0.662
6.47903	0.688
6.51319	0.718
6.54735	0.75
6.58151	0.766
6.61567	0.773
6.64983	0.748
6.68399	0.643
6.71815	0.69
6.75231	0.692
6.78647	0.535
6.82063	0.304
6.85479	0.302
6.88896	0.216
6.92312	0.298
6.95728	0.243
6.99144	0.239
7.0256	0.424
7.05976	0.555
7.09392	0.623
7.12808	0.657
7.16224	0.675
7.1964	0.639
7.23056	0.547
7.26472	0.464
7.29888	0.452
7.33304	0.521
7.3672	0.572
7.40136	0.571
7.43552	0.49
7.46968	0.377
7.50384	0.226
7.53801	0.225
7.57217	0.224
7.60633	0.16
7.64049	0.131
7.67465	0.162
7.70881	0.29
7.74297	0.4
7.77713	0.361
7.81129	0.435
7.84545	0.561
7.87961	0.6
7.91377	0.638
7.94793	0.688
7.98209	0.717
8.01625	0.731
8.05041	0.739
8.08457	0.747
8.11873	0.757
8.15289	0.771
8.18706	0.775
8.22122	0.774
8.25538	0.748
8.28954	0.733
8.3237	0.713
8.35786	0.707
8.39202	0.702
8.42618	0.702
8.46034	0.699
8.4945	0.6
8.52866	0.434
8.56282	0.275
8.59698	0.264
8.63114	0.309
8.6653	0.313
8.69946	0.277
8.73362	0.216
8.76778	0.134
8.80194	0.123
8.83611	0.192
8.87027	0.288
8.90443	0.33
8.93859	0.377
8.97275	0.4
9.00691	0.438
9.04107	0.469
9.07523	0.538
9.10939	0.61
9.14355	0.65
9.17771	0.667
9.21187	0.667
9.24603	0.589
9.28019	0.567
9.31435	0.601
9.34851	0.569
9.38267	0.408
9.41683	0.294
9.45099	0.297
9.48516	0.299
9.51932	0.319
9.55348	0.509
9.58764	0.594
9.6218	0.61
9.65596	0.672
9.69012	0.679
9.72428	0.688
9.75844	0.69
9.7926	0.672
9.82676	0.702
9.86092	0.73
9.89508	0.737
9.92924	0.742
9.9634	0.745
9.99756	0.747
10.0317	0.742
10.0659	0.75
10.1	0.74
10.1342	0.735
10.1684	0.733
10.2025	0.726
10.2367	0.709
10.2708	0.7
10.305	0.688
10.3392	0.668
10.3733	0.649
10.4075	0.628
10.4416	0.593
10.4758	0.558
10.51	0.489
10.5441	0.438
10.5783	0.358
10.6125	0.291
10.6466	0.254
10.6808	0.25
10.7149	0.25
10.7491	0.251
10.7833	0.266
10.8174	0.287
10.8516	0.324
10.8857	0.372
10.9199	0.425
10.9541	0.455
10.9882	0.495
11.0224	0.507
11.0565	0.527
11.0907	0.552
11.1249	0.599
11.159	0.61
11.1932	0.618
11.2273	0.632
11.2615	0.639
11.2957	0.644
11.3298	0.645
11.364	0.638
11.3981	0.628
11.4323	0.628
11.4665	0.623
11.5006	0.64
11.5348	0.665
11.5689	0.682
11.6031	0.686
11.6373	0.699
11.6714	0.706
11.7056	0.707
11.7397	0.707
11.7739	0.705
11.8081	0.717
11.8422	0.719
11.8764	0.714
11.9106	0.72
11.9447	0.719
11.9789	0.717
12.013	0.718
12.0472	0.717
12.0814	0.708
12.1155	0.703
12.1497	0.702
12.1838	0.701
12.218	0.696
12.2522	0.678
12.2863	0.648
12.3205	0.634
12.3546	0.627
12.3888	0.627
12.423	0.643
12.4571	0.649
12.4913	0.65
12.5254	0.658
12.5596	0.665
12.5938	0.671
12.6279	0.669
12.6621	0.668
12.6962	0.661
12.7304	0.65
12.7646	0.633
12.7987	0.595
12.8329	0.54
12.867	0.478
12.9012	0.4
12.9354	0.353
12.9695	0.362
13.0037	0.427
13.0378	0.469
13.072	0.49
13.1062	0.504
13.1403	0.508
13.1745	0.508
13.2087	0.503
13.2428	0.479
13.277	0.453
13.3111	0.425
13.3453	0.373
13.3795	0.331
13.4136	0.252
13.4478	0.265
13.4819	0.303
13.5161	0.353
13.5503	0.383
13.5844	0.395
13.6186	0.395
13.6527	0.371
13.6869	0.362
13.7211	0.319
13.7552	0.281
13.7894	0.273
13.8235	0.266
13.8577	0.27
13.8919	0.303
13.926	0.31
13.9602	0.332
13.9943	0.343
14.0285	0.353
14.0627	0.356
14.0968	0.356
14.131	0.353
14.1651	0.345
14.1993	0.316
14.2335	0.299
14.2676	0.285
14.3018	0.259
14.3359	0.242
14.3701	0.213
14.4043	0.203
14.4384	0.199
14.4726	0.256
14.5068	0.296
14.5409	0.317
14.5751	0.339
14.6092	0.366
14.6434	0.366
14.6776	0.367
14.7117	0.367
14.7459	0.371
14.78	0.365
14.8142	0.371
14.8484	0.377
14.8825	0.379
14.9167	0.378
14.9508	0.378
14.985	0.384
