Infrared Spectrum: P-ISOPROPYLPHENYL ALLYL ETHER
Formula: C12 H16 O
CAS: 71029-37-3
State: SOLUTION (10% CCl4 FOR 5000-1330, 10% CS2 FOR 1330-625 CM^-^1)
Class: COBLENTZ
Instrument: Not specified, most likely a prism, grating, or hybrid spectrometer.
Sampling: TRANSMISSION
Path length: 0.0120 CM, 0.0115 CM
Resolution: 4
Origin: DOW CHEMICAL COMPANY
MICROMETERS	TRANSMITTANCE
2.048	0.898
2.08914	0.898
2.13027	0.895
2.17141	0.891
2.21255	0.883
2.25369	0.871
2.29482	0.869
2.33596	0.879
2.3771	0.886
2.41824	0.883
2.45937	0.888
2.50051	0.891
2.54165	0.89
2.58278	0.891
2.62392	0.909
2.66506	0.895
2.7062	0.9
2.74733	0.854
2.78847	0.838
2.82961	0.849
2.87075	0.833
2.91188	0.835
2.95302	0.869
2.99416	0.886
3.0353	0.891
3.07643	0.886
3.11757	0.883
3.15871	0.876
3.19984	0.801
3.24098	0.718
3.28212	0.675
3.32326	0.596
3.36439	0.303
3.40553	0.313
3.44667	0.416
3.48781	0.584
3.52894	0.835
3.57008	0.876
3.61122	0.885
3.65235	0.883
3.69349	0.9
3.73463	0.91
3.77577	0.91
3.8169	0.902
3.85804	0.891
3.89918	0.909
3.94032	0.898
3.98145	0.905
4.02259	0.9
4.06373	0.903
4.10486	0.903
4.146	0.903
4.18714	0.897
4.22828	0.9
4.26941	0.903
4.31055	0.905
4.35169	0.898
4.39283	0.909
4.43396	0.922
4.4751	0.929
4.51624	0.929
4.55738	0.933
4.59851	0.931
4.63965	0.933
4.68079	0.929
4.72192	0.926
4.76306	0.921
4.8042	0.903
4.84534	0.9
4.88647	0.902
4.92761	0.902
4.96875	0.903
5.00989	0.907
5.05102	0.91
5.09216	0.917
5.1333	0.917
5.17443	0.921
5.21557	0.91
5.25671	0.888
5.29785	0.869
5.33898	0.828
5.38012	0.862
5.42126	0.879
5.4624	0.914
5.50353	0.919
5.54467	0.921
5.58581	0.924
5.62694	0.915
5.66808	0.907
5.70922	0.888
5.75036	0.902
5.79149	0.907
5.83263	0.909
5.87377	0.909
5.91491	0.909
5.95604	0.907
5.99718	0.876
6.03832	0.823
6.07945	0.789
6.12059	0.78
6.16173	0.595
6.20287	0.324
6.244	0.543
6.28514	0.506
6.32628	0.464
6.36742	0.55
6.40855	0.528
6.44969	0.48
6.49083	0.481
6.53197	0.497
6.5731	0.428
6.61424	0.233
6.65538	0.248
6.69651	0.566
6.73765	0.66
6.77879	0.569
6.81993	0.401
6.86106	0.442
6.9022	0.655
6.94334	0.675
6.98448	0.581
7.02561	0.506
7.06675	0.662
7.10789	0.722
7.14902	0.789
7.19016	0.699
7.2313	0.559
7.27244	0.684
7.31357	0.571
7.35471	0.614
7.39585	0.689
7.43699	0.68
7.47812	0.758
7.51926	0.766
7.5604	0.746
7.60153	0.687
7.64267	0.536
7.68381	0.493
7.72495	0.454
7.76608	0.339
7.80722	0.514
7.84836	0.593
7.8895	0.471
7.93063	0.341
7.97177	0.245
8.01291	0.137
8.05405	0.041
8.09518	0.048
8.13632	0.101
8.17746	0.114
8.21859	0.252
8.25973	0.485
8.30087	0.632
8.34201	0.699
8.38314	0.677
8.42428	0.535
8.46542	0.291
8.50656	0.204
8.54769	0.516
8.58883	0.689
8.62997	0.718
8.6711	0.734
8.71224	0.758
8.75338	0.765
8.79452	0.777
8.83565	0.782
8.87679	0.765
8.91793	0.71
8.95907	0.651
9.0002	0.619
9.04134	0.61
9.08248	0.619
9.12361	0.651
9.16475	0.735
9.20589	0.811
9.24703	0.835
9.28816	0.847
9.3293	0.85
9.37044	0.835
9.41158	0.783
9.45271	0.713
9.49385	0.67
9.53499	0.699
9.57613	0.691
9.61726	0.557
9.6584	0.411
9.69954	0.262
9.74067	0.209
9.78181	0.26
9.82295	0.351
9.86409	0.415
9.90522	0.461
9.94636	0.499
9.9875	0.427
10.0286	0.334
10.0698	0.344
10.1109	0.442
10.152	0.478
10.1932	0.485
10.2343	0.596
10.2755	0.722
10.3166	0.792
10.3577	0.818
10.3989	0.828
10.44	0.828
10.4811	0.826
10.5223	0.818
10.5634	0.802
10.6046	0.782
10.6457	0.728
10.6868	0.638
10.728	0.509
10.7691	0.372
10.8102	0.271
10.8514	0.202
10.8925	0.298
10.9337	0.56
10.9748	0.686
11.0159	0.77
11.0571	0.821
11.0982	0.842
11.1393	0.852
11.1805	0.849
11.2216	0.84
11.2628	0.842
11.3039	0.838
11.345	0.833
11.3862	0.821
11.4273	0.811
11.4684	0.797
11.5096	0.789
11.5507	0.771
11.5919	0.754
11.633	0.74
11.6741	0.727
11.7153	0.718
11.7564	0.708
11.7975	0.699
11.8387	0.675
11.8798	0.619
11.921	0.54
11.9621	0.451
12.0032	0.356
12.0444	0.181
12.0855	0.056
12.1266	0.036
12.1678	0.231
12.2089	0.439
12.25	0.591
12.2912	0.648
12.3323	0.643
12.3735	0.576
12.4146	0.516
12.4557	0.552
12.4969	0.699
12.538	0.775
12.5791	0.821
12.6203	0.84
12.6614	0.849
12.7026	0.85
12.7437	0.854
12.7848	0.861
12.826	0.869
12.8671	0.871
12.9082	0.871
12.9494	0.873
12.9905	0.878
13.0317	0.883
13.0728	0.883
13.1139	0.881
13.1551	0.876
13.1962	0.869
13.2373	0.861
13.2785	0.847
13.3196	0.831
13.3608	0.825
13.4019	0.823
13.443	0.826
13.4842	0.826
13.5253	0.826
13.5664	0.821
13.6076	0.807
13.6487	0.79
13.6899	0.754
13.731	0.72
13.7721	0.696
13.8133	0.687
13.8544	0.687
13.8955	0.692
13.9367	0.701
13.9778	0.71
14.019	0.722
14.0601	0.727
14.1012	0.73
14.1424	0.723
14.1835	0.71
14.2246	0.698
14.2658	0.679
14.3069	0.665
14.3481	0.656
14.3892	0.655
14.4303	0.65
14.4715	0.646
14.5126	0.643
14.5537	0.644
14.5949	0.644
14.636	0.643
14.6771	0.638
14.7183	0.634
14.7594	0.627
14.8006	0.619
14.8417	0.614
14.8828	0.602
14.924	0.59
14.9651	0.584
15.0062	0.576
15.0474	0.564
15.0885	0.55
15.1297	0.538
15.1708	0.526
15.2119	0.514
15.2531	0.499
15.2942	0.485
15.3353	0.476
15.3765	0.469
15.4176	0.466
15.4588	0.461
15.4999	0.452
15.541	0.439
15.5822	0.433
15.6233	0.428
15.6644	0.427
15.7056	0.427
15.7467	0.421
15.7879	0.42
15.829	0.416
15.8701	0.415
