Infrared Spectrum: 2-Propanone, [(9-Beta-D-ribofuranosyl-9H-purin-6-yl)thio]-
Formula: C13 H16 N4 O5 S
CAS: 71052-74-9
State: SOLID (1 mg / 650 mg KBr DISC)
Class: COBLENTZ III
Instrument: PERKIN-ELMER 21 (GRATING)
Instrument parameters: FILTER CHANGE ABOUT 1090 CM^-^1
Sampling: TRANSMISSION
Resolution: 2
Origin: SOUTHERN RESEARCH INSTITUTE
1/CM	TRANSMITTANCE
601	0.7628
610	0.7755
619	0.7614
628	0.7116
637	0.675
646	0.6772
655	0.7831
664	0.8411
673	0.8213
682	0.8329
691	0.8181
700	0.8037
709	0.8093
718	0.8342
727	0.83
736	0.8103
745	0.7763
754	0.7187
763	0.7024
772	0.7957
781	0.788
790	0.6853
799	0.7095
808	0.5204
817	0.5724
826	0.7681
835	0.7667
844	0.7042
853	0.6989
862	0.6896
871	0.6456
880	0.6294
889	0.7048
898	0.7368
907	0.7495
916	0.7788
925	0.7815
934	0.7177
943	0.6072
952	0.4839
961	0.5477
970	0.6656
979	0.6048
988	0.6495
997	0.6995
1006	0.6605
1015	0.5934
1024	0.4835
1033	0.4766
1042	0.4233
1051	0.3764
1060	0.2694
1069	0.4405
1078	0.4353
1087	0.3997
1096	0.3735
1105	0.4369
1114	0.4361
1123	0.3107
1132	0.3682
1141	0.4166
1150	0.4598
1159	0.4667
1168	0.6212
1177	0.6849
1186	0.6654
1195	0.5664
1204	0.3348
1213	0.3222
1222	0.4438
1231	0.5566
1240	0.6143
1249	0.6103
1258	0.6662
1267	0.6792
1276	0.6547
1285	0.6339
1294	0.6175
1303	0.6177
1312	0.6093
1321	0.5375
1330	0.4127
1339	0.3476
1348	0.4427
1357	0.4514
1366	0.5446
1375	0.5509
1384	0.498
1393	0.5283
1402	0.4828
1411	0.5182
1420	0.4959
1429	0.5085
1438	0.4935
1447	0.5469
1456	0.5969
1465	0.683
1474	0.6494
1483	0.6776
1492	0.7462
1501	0.7914
1510	0.7939
1519	0.7859
1528	0.7706
1537	0.656
1546	0.5864
1555	0.3345
1564	0.1508
1573	0.1553
1582	0.2407
1591	0.5289
1600	0.6919
1609	0.7727
1618	0.7802
1627	0.7852
1636	0.8082
1645	0.821
1654	0.8318
1663	0.8308
1672	0.817
1681	0.762
1690	0.727
1699	0.4859
1708	0.3847
1717	0.4236
1726	0.5521
1735	0.8071
1744	0.8471
1753	0.8627
1762	0.8807
1771	0.8861
1780	0.8894
1789	0.8908
1798	0.8922
1807	0.8997
1816	0.908
1825	0.9122
1834	0.9148
1843	0.9175
1852	0.9162
1861	0.9136
1870	0.9132
1879	0.909
1888	0.9057
1897	0.9038
1906	0.9056
1915	0.9105
1924	0.9112
1933	0.911
1942	0.9106
1951	0.9096
1960	0.9097
1969	0.9099
1978	0.9127
1987	0.9164
1996	0.919
2005	0.9127
2014	0.9099
2023	0.9083
2032	0.9063
2041	0.9042
2050	0.903
2059	0.9046
2068	0.9048
2077	0.9029
2086	0.9003
2095	0.8989
2104	0.8974
2113	0.8957
2122	0.894
2131	0.8928
2140	0.8916
2149	0.8906
2158	0.8896
2167	0.8886
2176	0.8868
2185	0.8854
2194	0.8853
2203	0.8874
2212	0.8866
2221	0.8849
2230	0.8826
2239	0.8815
2248	0.8807
2257	0.8797
2266	0.8782
2275	0.8765
2284	0.8747
2293	0.8763
2302	0.8744
2311	0.8704
2320	0.8666
2329	0.8584
2338	0.8548
2347	0.8525
2356	0.85
2365	0.8476
2374	0.8456
2383	0.8438
2392	0.8393
2401	0.8348
2410	0.8368
2419	0.8408
2428	0.8381
2437	0.8336
2446	0.8326
2455	0.8295
2464	0.8218
2473	0.8208
2482	0.8182
2491	0.8138
2500	0.8094
2509	0.8039
2518	0.8002
2527	0.799
2536	0.7987
2545	0.7978
2554	0.796
2563	0.7941
2572	0.792
2581	0.7904
2590	0.7886
2599	0.7822
2608	0.7733
2617	0.7685
2626	0.7651
2635	0.7621
2644	0.7503
2653	0.7388
2662	0.734
2671	0.73
2680	0.7283
2689	0.7311
2698	0.7342
2707	0.7331
2716	0.722
2725	0.7187
2734	0.7182
2743	0.7168
2752	0.7149
2761	0.7115
2770	0.7055
2779	0.6991
2788	0.6926
2797	0.681
2806	0.6636
2815	0.6433
2824	0.6257
2833	0.6157
2842	0.6141
2851	0.6048
2860	0.5984
2869	0.5928
2878	0.5824
2887	0.5622
2896	0.5233
2905	0.5091
2914	0.5117
2923	0.551
2932	0.5749
2941	0.5744
2950	0.5801
2959	0.6146
2968	0.6317
2977	0.6434
2986	0.6432
2995	0.6403
3004	0.6304
3013	0.6138
3022	0.6027
3031	0.5934
3040	0.5847
3049	0.576
3058	0.5668
3067	0.5552
3076	0.5329
3085	0.5066
3094	0.4828
3103	0.4584
3112	0.4494
3121	0.4528
3130	0.4414
3139	0.4269
3148	0.4149
3157	0.4032
3166	0.3912
3175	0.3784
3184	0.3677
3193	0.3617
3202	0.3587
3211	0.347
3220	0.3325
3229	0.319
3238	0.3154
3247	0.3149
3256	0.3138
3265	0.3088
3274	0.309
3283	0.3112
3292	0.3183
3301	0.3306
3310	0.3375
3319	0.339
3328	0.3409
3337	0.3428
3346	0.3448
3355	0.3471
3364	0.3499
3373	0.3618
3382	0.3609
3391	0.3636
3400	0.3771
3409	0.3956
3418	0.4158
3427	0.4391
3436	0.4647
3445	0.4911
3454	0.5154
3463	0.5356
3472	0.5645
3481	0.5908
3490	0.602
3499	0.6233
3508	0.647
3517	0.6698
3526	0.6978
3535	0.7162
3544	0.7331
3553	0.7569
3562	0.7738
3571	0.7885
3580	0.8066
3589	0.8269
3598	0.836
3607	0.8412
3616	0.8481
3625	0.8579
3634	0.8716
3643	0.8715
3652	0.8724
3661	0.8779
3670	0.8765
3679	0.8766
3688	0.8782
3697	0.8806
3706	0.8839
3715	0.8885
3724	0.8894
3733	0.8839
3742	0.8772
3751	0.8738
3760	0.8773
3769	0.8811
3778	0.8808
3787	0.8794
3796	0.8754
3805	0.8722
3814	0.8707
3823	0.8758
3832	0.8748
3841	0.869
3850	0.8686
3859	0.8684
3868	0.8696
3877	0.8693
3886	0.8659
3895	0.8621
3904	0.8619
3913	0.8626
3922	0.8649
3931	0.8675
3940	0.8607
3949	0.8574
3958	0.8552
3967	0.8536
3976	0.8537
3985	0.8553
3994	0.8607
