Infrared Spectrum: 4-(Trifluoromethyl)propiophenone
Formula: C 10 H 9 F 3 O
CAS: 711-33-1
State: gas
Origin: EPA-IR VAPOR PHASE LIBRARY
1/CM	ABSORBANCE
549.8	0.003224
559.445	0.003774
569.09	0.004314
578.734	0.005834
588.379	0.008564
598.024	0.009854
607.669	0.009394
617.313	0.005844
626.958	0.004774
636.603	0.004254
646.248	0.004054
655.893	0.004114
665.537	0.004504
675.182	0.005924
684.827	0.006594
694.472	0.007104
704.116	0.009264
713.761	0.011774
723.406	0.010684
733.051	0.012844
742.695	0.008834
752.34	0.004704
761.985	0.004954
771.63	0.006284
781.275	0.007714
790.919	0.010864
800.564	0.015884
810.209	0.016274
819.854	0.012684
829.498	0.012984
839.143	0.018734
848.788	0.026614
858.433	0.024174
868.078	0.012784
877.722	0.006274
887.367	0.004624
897.012	0.003834
906.657	0.004284
916.301	0.006434
925.946	0.012184
935.591	0.028714
945.236	0.044724
954.88	0.033974
964.525	0.011204
974.17	0.006594
983.815	0.006634
993.46	0.009494
1003.1	0.024504
1012.75	0.058234
1022.39	0.032124
1032.04	0.008814
1041.68	0.008934
1051.33	0.020914
1060.97	0.089524
1070.62	0.138574
1080.26	0.057874
1089.91	0.032154
1099.55	0.027014
1109.2	0.042004
1118.84	0.051774
1128.49	0.068104
1138.13	0.125884
1147.78	0.223754
1157.42	0.239624
1167.07	0.199714
1176.71	0.199404
1186.36	0.114394
1196	0.063814
1205.64	0.072634
1215.29	0.087314
1224.93	0.051884
1234.58	0.029974
1244.22	0.021874
1253.87	0.021784
1263.51	0.026724
1273.16	0.030554
1282.8	0.029404
1292.45	0.034774
1302.09	0.063204
1311.74	0.172424
1321.38	0.433644
1331.03	0.283384
1340.67	0.056784
1350.32	0.027894
1359.96	0.018944
1369.61	0.014764
1379.25	0.014664
1388.9	0.016524
1398.54	0.022144
1408.18	0.029244
1417.83	0.022344
1427.47	0.013784
1437.12	0.011284
1446.76	0.011214
1456.41	0.011324
1466.05	0.012714
1475.7	0.009334
1485.34	0.006344
1494.99	0.006634
1504.63	0.012344
1514.28	0.014534
1523.92	0.006444
1533.57	0.004584
1543.21	0.004424
1552.86	0.005184
1562.5	0.007204
1572.15	0.008984
1581.79	0.008874
1591.44	0.005804
1601.08	0.004124
1610.73	0.004164
1620.37	0.004204
1630.01	0.003794
1639.66	0.004424
1649.3	0.004804
1658.95	0.006684
1668.59	0.008954
1678.24	0.013854
1687.88	0.027994
1697.53	0.067714
1707.17	0.118074
1716.82	0.077344
1726.46	0.027454
1736.11	0.012044
1745.75	0.009064
1755.4	0.006934
1765.04	0.005224
1774.69	0.004464
1784.33	0.004324
1793.98	0.004224
1803.62	0.004454
1813.27	0.004254
1822.91	0.003114
1832.55	0.002814
1842.2	0.002264
1851.84	0.001943
1861.49	0.0019059
1871.13	0.001801
1880.78	0.001891
1890.42	0.001984
1900.07	0.002994
1909.71	0.003504
1919.36	0.003464
1929	0.003574
1938.65	0.002914
1948.29	0.002594
1957.94	0.002164
1967.58	0.0017877
1977.23	0.0016457
1986.87	0.0014202
1996.52	0.0013653
2006.16	0.0010888
2015.81	0.0010707
2025.45	0.00102202
2035.1	0.00095926
2044.74	0.0010905
2054.38	0.0010699
2064.03	0.00102422
2073.67	0.0013052
2083.32	0.0010748
2092.96	0.0014286
2102.61	0.0017883
2112.25	0.0016665
2121.9	0.00102736
2131.54	0.0011575
2141.19	0.000757
2150.83	0.00099102
2160.48	0.00103626
2170.12	0.0013059
2179.77	0.0011827
2189.41	0.0010864
2199.06	0.0010584
2208.7	0.001515
2218.35	0.0014325
2227.99	0.0014442
2237.64	0.0015845
2247.28	0.001075
2256.92	0.0012173
2266.57	0.0012755
2276.21	0.002014
2285.86	0.002394
2295.5	0.002234
2305.15	0.0019014
2314.79	0.002064
2324.44	0.0017151
2334.08	0.0018163
2343.73	0.0015647
2353.37	0.0017739
2363.02	0.0013037
2372.66	0.0011243
2382.31	0.00103051
2391.95	0.0013332
2401.6	0.000781
2411.24	0.0011729
2420.89	0.0011454
2430.53	0.000945608
2440.18	0.000663
2449.82	0.0011679
2459.47	0.000704
2469.11	0.0009029
2478.75	0.00101759
2488.4	0.00097344
2498.04	0.0010579
2507.69	0.001072
2517.33	0.000732
2526.98	0.000519
2536.62	0.000904
2546.27	0.000416
2555.91	0.00096861
2565.56	0.00103212
2575.2	0.000711
2584.85	0.000944517
2594.49	0.0008527
2604.14	0.000833
2613.78	0.000919
2623.43	0.0011283
2633.07	0.0016735
2642.72	0.0011648
2652.36	0.0013597
2662.01	0.000683
2671.65	0.000557
2681.29	0.000342
2690.94	0.000549
2700.58	0.000723
2710.23	0.0012403
2719.87	0.00096377
2729.52	0.000547
2739.16	0.000533
2748.81	0.0012113
2758.45	0.00093668
2768.1	0.0014646
2777.74	0.000759
2787.39	0.0011696
2797.03	0.0011597
2806.68	0.0012633
2816.32	0.002524
2825.97	0.002484
2835.61	0.002664
2845.26	0.002504
2854.9	0.003344
2864.55	0.004204
2874.19	0.005494
2883.84	0.008434
2893.48	0.011234
2903.12	0.010354
2912.77	0.014774
2922.41	0.015044
2932.06	0.013184
2941.7	0.015524
2951.35	0.022714
2960.99	0.015144
2970.64	0.014194
2980.28	0.022374
2989.93	0.025064
2999.57	0.016804
3009.22	0.009504
3018.86	0.005664
3028.51	0.004824
3038.15	0.003824
3047.8	0.004444
3057.44	0.005184
3067.09	0.006264
3076.73	0.004804
3086.38	0.003994
3096.02	0.003994
3105.67	0.003574
3115.31	0.002944
3124.95	0.002224
3134.6	0.002204
3144.24	0.0013179
3153.89	0.0015136
3163.53	0.0010838
3173.18	0.0011193
3182.82	0.00100218
3192.47	0.000787
3202.11	0.00044
3211.76	0.00103038
3221.4	0.0011679
3231.05	0.000666
3240.69	0.000226
3250.34	0.000637
3259.98	4.5e-05
3269.63	0.000768
3279.27	0.000529
3288.92	0.000538
3298.56	0.000343
3308.21	0.000284
3317.85	0.000256
3327.49	0.00031
3337.14	0.0011534
3346.78	0.0008634
3356.43	0.000631
3366.07	0.0015329
3375.72	0.0011251
3385.36	0.0018139
3395.01	0.002414
3404.65	0.002234
3414.3	0.0016103
3423.94	0.0008486
3433.59	0.0013136
3443.23	0.000515
3452.88	0.000786
3462.52	0.000762
3472.17	0.000775
3481.81	0.00097822
3491.46	0.000555
3501.1	0.00058
3510.75	0.000733
3520.39	0.0011037
3530.04	0.0009258
3539.68	0.000408
3549.32	0.000695
3558.97	0.00095704
3568.61	0.001077
3578.26	0.000509
3587.9	0.000676
3597.55	0.0010004
3607.19	0.000359
3616.84	0.000644
3626.48	0.0011794
3636.13	0.0008998
3645.77	0.000542
3655.42	0.0008462
3665.06	0.0012708
3674.71	0.00095914
3684.35	0.000276
3694	0.00093784
3703.64	0.000582
3713.29	0.000626
3722.93	0.0012292
3732.58	0.000736
3742.22	0.000281
3751.86	0.000722
3761.51	0.000636
3771.15	0.0015734
3780.8	0.000241
3790.44	0.0009632
3800.09	0.000439
3809.73	0.00104374
3819.38	0.000817
3829.02	0.00095436
3838.67	9.5e-05
3848.31	0.000341
3857.96	0.000444
3867.6	8.3e-05
3877.25	0.000363
3886.89	0.00025
3896.54	0.000514
3906.18	0.000531
3915.83	0.000721
3925.47	0.00037
3935.12	0.000354
3944.76	0.00094084
3954.41	0.00102562
3964.05	0.000945727
3973.69	0.00073
3983.34	0.00098881
3992.98	0.0012865
