Infrared Spectrum: 1,2-Phenylene diisothiocyanate
Formula: C 8 H 4 N 2 S 2
CAS: 71105-17-4
State: gas
Origin: EPA-IR VAPOR PHASE LIBRARY
1/CM	ABSORBANCE
549.8	0.023287
559.445	0.018897
569.09	0.017467
578.734	0.017867
588.379	0.014687
598.024	0.010387
607.669	0.007477
617.313	0.006377
626.958	0.006147
636.603	0.005977
646.248	0.005277
655.893	0.007377
665.537	0.009117
675.182	0.005667
684.827	0.003817
694.472	0.006167
704.116	0.010877
713.761	0.019257
723.406	0.025007
733.051	0.021217
742.695	0.056287
752.34	0.092607
761.985	0.027717
771.63	0.004577
781.275	0.002517
790.919	0.003567
800.564	0.003907
810.209	0.001787
819.854	0.0008314
829.498	0.0005698
839.143	0.0002147
848.788	0.0002341
858.433	0.000656
868.078	0.001327
877.722	0.004237
887.367	0.007477
897.012	0.006947
906.657	0.007707
916.301	0.011207
925.946	0.020597
935.591	0.034127
945.236	0.037677
954.88	0.037587
964.525	0.022797
974.17	0.010217
983.815	0.006597
993.46	0.005327
1003.1	0.002967
1012.75	0.001857
1022.39	0.001757
1032.04	0.001427
1041.68	0.000868
1051.33	0.0007364
1060.97	0.0004745
1070.62	0.0005259
1080.26	0.0008918
1089.91	0.0005498
1099.55	0.002147
1109.2	0.005887
1118.84	0.003097
1128.49	0.0006909
1138.13	0.0006992
1147.78	0.0011538
1157.42	0.001627
1167.07	0.00036768
1176.71	4.4e-05
1186.36	0.0006129
1196	0.0004387
1205.64	0.000973
1215.29	0.002437
1224.93	0.006247
1234.58	0.007007
1244.22	0.004317
1253.87	0.003717
1263.51	0.004867
1273.16	0.006467
1282.8	0.008317
1292.45	0.006987
1302.09	0.003697
1311.74	0.002257
1321.38	0.001627
1331.03	0.001497
1340.67	0.0011606
1350.32	0.0007748
1359.96	0.0008188
1369.61	0.0008311
1379.25	0.0012065
1388.9	0.002337
1398.54	0.002447
1408.18	0.002067
1417.83	0.002587
1427.47	0.003287
1437.12	0.005857
1446.76	0.016077
1456.41	0.017397
1466.05	0.009907
1475.7	0.027247
1485.34	0.065507
1494.99	0.042627
1504.63	0.013167
1514.28	0.008487
1523.92	0.004397
1533.57	0.003907
1543.21	0.004637
1552.86	0.006007
1562.5	0.010577
1572.15	0.020877
1581.79	0.033437
1591.44	0.035697
1601.08	0.018427
1610.73	0.007657
1620.37	0.004817
1630.01	0.003517
1639.66	0.002767
1649.3	0.002297
1658.95	0.001997
1668.59	0.002237
1678.24	0.003177
1687.88	0.003757
1697.53	0.002787
1707.17	0.003357
1716.82	0.003597
1726.46	0.002797
1736.11	0.002687
1745.75	0.002947
1755.4	0.003257
1765.04	0.003497
1774.69	0.003927
1784.33	0.004957
1793.98	0.005687
1803.62	0.005697
1813.27	0.006797
1822.91	0.008157
1832.55	0.008527
1842.2	0.008767
1851.84	0.010107
1861.49	0.012627
1871.13	0.016397
1880.78	0.018547
1890.42	0.021527
1900.07	0.028297
1909.71	0.035257
1919.36	0.041577
1929	0.054727
1938.65	0.075107
1948.29	0.097327
1957.94	0.125197
1967.58	0.165357
1977.23	0.220787
1986.87	0.294487
1996.52	0.389767
2006.16	0.495127
2015.81	0.579237
2025.45	0.630907
2035.1	0.626657
2044.74	0.556087
2054.38	0.474757
2064.03	0.435337
2073.67	0.443347
2083.32	0.464937
2092.96	0.463767
2102.61	0.411147
2112.25	0.321977
2121.9	0.237387
2131.54	0.176887
2141.19	0.135297
2150.83	0.106447
2160.48	0.085417
2170.12	0.070347
2179.77	0.059947
2189.41	0.048987
2199.06	0.036997
2208.7	0.030507
2218.35	0.026817
2227.99	0.022477
2237.64	0.017407
2247.28	0.012287
2256.92	0.008297
2266.57	0.006227
2276.21	0.005017
2285.86	0.004387
2295.5	0.004097
2305.15	0.004547
2314.79	0.004737
2324.44	0.004687
2334.08	0.004707
2343.73	0.004977
2353.37	0.005177
2363.02	0.005367
2372.66	0.005227
2382.31	0.005187
2391.95	0.005117
2401.6	0.004707
2411.24	0.004417
2420.89	0.004187
2430.53	0.004337
2440.18	0.004437
2449.82	0.004867
2459.47	0.005257
2469.11	0.005027
2478.75	0.004877
2488.4	0.005327
2498.04	0.006167
2507.69	0.007037
2517.33	0.007267
2526.98	0.007337
2536.62	0.008017
2546.27	0.009617
2555.91	0.011287
2565.56	0.011477
2575.2	0.010617
2584.85	0.009287
2594.49	0.007387
2604.14	0.005717
2613.78	0.004407
2623.43	0.003797
2633.07	0.003447
2642.72	0.003287
2652.36	0.003267
2662.01	0.003477
2671.65	0.003727
2681.29	0.004057
2690.94	0.004387
2700.58	0.004987
2710.23	0.005877
2719.87	0.007277
2729.52	0.008147
2739.16	0.008257
2748.81	0.007317
2758.45	0.006097
2768.1	0.004707
2777.74	0.003707
2787.39	0.002807
2797.03	0.002437
2806.68	0.002077
2816.32	0.002057
2825.97	0.001847
2835.61	0.001597
2845.26	0.001377
2854.9	0.001387
2864.55	0.001427
2874.19	0.0012492
2883.84	0.001407
2893.48	0.001397
2903.12	0.001567
2912.77	0.001927
2922.41	0.002187
2932.06	0.002447
2941.7	0.002847
2951.35	0.003277
2960.99	0.003317
2970.64	0.003207
2980.28	0.003007
2989.93	0.003007
2999.57	0.002857
3009.22	0.002777
3018.86	0.003137
3028.51	0.004107
3038.15	0.004597
3047.8	0.003917
3057.44	0.004037
3067.09	0.006797
3076.73	0.013427
3086.38	0.012027
3096.02	0.004707
3105.67	0.002537
3115.31	0.001587
3124.95	0.0009887
3134.6	0.0008558
3144.24	0.0008657
3153.89	0.0005262
3163.53	0.00034493
3173.18	0.000306293
3182.82	0.000159
3192.47	0.0002703
3202.11	0.00031718
3211.76	0.000184
3221.4	0.000146
3231.05	0.0002154
3240.69	0.0002238
3250.34	0
3259.98	0.000119
3269.63	0.0002172
3279.27	0.000172
3288.92	0.00035728
3298.56	0.000191
3308.21	8.2e-05
3317.85	9.6e-05
3327.49	0.000172
3337.14	8.9e-05
3346.78	0.00038467
3356.43	0.00031918
3366.07	0.000105
3375.72	0.0002935
3385.36	0.0002456
3395.01	0.0002479
3404.65	0.0002761
3414.3	0.0002636
3423.94	0.0004345
3433.59	0.0004533
3443.23	0.0004324
3452.88	0.0005052
3462.52	0.0002699
3472.17	0.0006472
3481.81	0.0002676
3491.46	0.0004992
3501.1	0.0004142
3510.75	0.0008433
3520.39	0.0005216
3530.04	0.0005137
3539.68	0.0004911
3549.32	0.0004121
3558.97	0.0004082
3568.61	0.0002869
3578.26	0.000449
3587.9	0.0004775
3597.55	0.0004634
3607.19	0.0002613
3616.84	0.0005674
3626.48	0.0004776
3636.13	0.00039202
3645.77	0.0003664
3655.42	0.0004987
3665.06	0.0006303
3674.71	0.0006502
3684.35	0.0006355
3694	0.0004948
3703.64	0.0007151
3713.29	0.0007261
3722.93	0.0005845
3732.58	0.0005424
3742.22	0.0005618
3751.86	0.0007046
3761.51	0.0006949
3771.15	0.0007639
3780.8	0.0007875
3790.44	0.0008659
3800.09	0.0010568
3809.73	0.0010786
3819.38	0.000896
3829.02	0.0008352
3838.67	0.0010777
3848.31	0.0011072
3857.96	0.0012375
3867.6	0.0012474
3877.25	0.001347
3886.89	0.001407
3896.54	0.001537
3906.18	0.001687
3915.83	0.001777
3925.47	0.001857
3935.12	0.002077
3944.76	0.002277
3954.41	0.002377
3964.05	0.002527
3973.69	0.002927
3983.34	0.002797
3992.98	0.002717
