Infrared Spectrum: 1,3-CYCLOBUTANEDIONE, 2,4-DIETHYL-2,4-DIMETHYL-
Formula: C10 H16 O2
CAS: 7116-94-1
Class: COBLENTZ
Instrument: Not specified, most likely a prism, grating, or hybrid spectrometer.
Sampling: TRANSMISSION
Path length: SMEAR
Resolution: 4
Origin: TENNESSEE EASTMAN COMPANY, RESEARCH LABORATORIES
MICROMETERS	TRANSMITTANCE
2.014	0.941
2.0546	0.94
2.0952	0.936
2.1358	0.934
2.1764	0.934
2.217	0.898
2.25759	0.859
2.29819	0.861
2.33879	0.881
2.37939	0.89
2.41999	0.892
2.46059	0.895
2.50119	0.902
2.54179	0.91
2.58239	0.914
2.62299	0.921
2.66358	0.924
2.70418	0.89
2.74478	0.844
2.78538	0.761
2.82598	0.808
2.86658	0.866
2.90718	0.864
2.94778	0.851
2.98838	0.849
3.02898	0.835
3.06957	0.83
3.11017	0.828
3.15077	0.828
3.19137	0.827
3.23197	0.821
3.27257	0.789
3.31317	0.604
3.35377	0.022
3.39437	0.066
3.43497	0.167
3.47557	0.493
3.51616	0.767
3.55676	0.83
3.59736	0.852
3.63796	0.859
3.67856	0.91
3.71916	0.917
3.75976	0.907
3.80036	0.9
3.84096	0.922
3.88156	0.926
3.92215	0.941
3.96275	0.943
4.00335	0.943
4.04395	0.945
4.08455	0.945
4.12515	0.938
4.16575	0.934
4.20635	0.916
4.24695	0.9
4.28755	0.91
4.32814	0.94
4.36874	0.95
4.40934	0.953
4.44994	0.96
4.49054	0.957
4.53114	0.953
4.57174	0.955
4.61234	0.943
4.65294	0.94
4.69354	0.952
4.73413	0.958
4.77473	0.96
4.81533	0.96
4.85593	0.955
4.89653	0.955
4.93713	0.957
4.97773	0.946
5.01833	0.9
5.05893	0.876
5.09953	0.895
5.14013	0.902
5.18072	0.886
5.22132	0.861
5.26192	0.784
5.30252	0.703
5.34312	0.731
5.38372	0.727
5.42432	0.763
5.46492	0.726
5.50552	0.698
5.54612	0.635
5.58671	0.525
5.62731	0.263
5.66791	0.039
5.70851	0.025
5.74911	0.037
5.78971	0.068
5.83031	0.131
5.87091	0.26
5.91151	0.458
5.95211	0.613
5.9927	0.7
6.0333	0.734
6.0739	0.753
6.1145	0.767
6.1551	0.775
6.1957	0.809
6.2363	0.845
6.2769	0.859
6.3175	0.864
6.3581	0.869
6.3987	0.864
6.43929	0.868
6.47989	0.863
6.52049	0.852
6.56109	0.842
6.60169	0.808
6.64229	0.76
6.68289	0.636
6.72349	0.462
6.76409	0.083
6.80469	0.049
6.84528	0.058
6.88588	0.244
6.92648	0.45
6.96708	0.619
7.00768	0.69
7.04828	0.712
7.08888	0.707
7.12948	0.583
7.17008	0.202
7.21068	0.296
7.25127	0.32
7.29187	0.496
7.33247	0.674
7.37307	0.707
7.41367	0.671
7.45427	0.544
7.49487	0.395
7.53547	0.503
7.57607	0.623
7.61667	0.522
7.65727	0.287
7.69786	0.395
7.73846	0.618
7.77906	0.681
7.81966	0.667
7.86026	0.583
7.90086	0.34
7.94146	0.172
7.98206	0.104
8.02266	0.16
8.06326	0.148
8.10385	0.09
8.14445	0.164
8.18505	0.256
8.22565	0.417
8.26625	0.534
8.30685	0.601
8.34745	0.63
8.38805	0.633
8.42865	0.621
8.46925	0.583
8.50984	0.561
8.55044	0.587
8.59104	0.611
8.63164	0.59
8.67224	0.587
8.71284	0.625
8.75344	0.669
8.79404	0.698
8.83464	0.717
8.87524	0.714
8.91583	0.708
8.95643	0.696
8.99703	0.678
9.03763	0.647
9.07823	0.601
9.11883	0.547
9.15943	0.419
9.20003	0.272
9.24063	0.172
9.28123	0.109
9.32183	0.071
9.36242	0.063
9.40302	0.099
9.44362	0.142
9.48422	0.22
9.52482	0.323
9.56542	0.375
9.60602	0.402
9.64662	0.431
9.68722	0.438
9.72782	0.464
9.76841	0.428
9.80901	0.284
9.84961	0.193
9.89021	0.14
9.93081	0.113
9.97141	0.133
10.012	0.282
10.0526	0.429
10.0932	0.501
10.1338	0.549
10.1744	0.537
10.215	0.41
10.2556	0.409
10.2962	0.525
10.3368	0.645
10.3774	0.684
10.418	0.693
10.4586	0.707
10.4992	0.702
10.5398	0.691
10.5804	0.734
10.621	0.761
10.6616	0.763
10.7022	0.767
10.7428	0.787
10.7834	0.808
10.824	0.818
10.8646	0.794
10.9052	0.777
10.9458	0.794
10.9864	0.811
11.027	0.833
11.0676	0.851
11.1082	0.864
11.1488	0.875
11.1894	0.876
11.23	0.878
11.2706	0.88
11.3112	0.881
11.3518	0.883
11.3924	0.89
11.433	0.904
11.4736	0.907
11.5142	0.912
11.5548	0.912
11.5954	0.912
11.636	0.912
11.6766	0.897
11.7172	0.878
11.7578	0.871
11.7984	0.866
11.839	0.847
11.8796	0.82
11.9202	0.787
11.9608	0.775
12.0014	0.784
12.042	0.796
12.0826	0.799
12.1232	0.804
12.1638	0.806
12.2044	0.794
12.245	0.738
12.2856	0.65
12.3262	0.577
12.3668	0.559
12.4074	0.554
12.448	0.609
12.4885	0.679
12.5291	0.732
12.5697	0.765
12.6103	0.77
12.6509	0.77
12.6915	0.773
12.7321	0.743
12.7727	0.703
12.8133	0.674
12.8539	0.647
12.8945	0.633
12.9351	0.631
12.9757	0.64
13.0163	0.63
13.0569	0.611
13.0975	0.613
13.1381	0.648
13.1787	0.7
13.2193	0.727
13.2599	0.755
13.3005	0.772
13.3411	0.797
13.3817	0.815
13.4223	0.828
13.4629	0.833
13.5035	0.835
13.5441	0.835
13.5847	0.837
13.6253	0.837
13.6659	0.837
13.7065	0.837
13.7471	0.827
13.7877	0.827
13.8283	0.827
13.8689	0.827
13.9095	0.827
13.9501	0.823
13.9907	0.82
14.0313	0.818
14.0719	0.813
14.1125	0.804
14.1531	0.797
14.1937	0.792
14.2343	0.789
14.2749	0.787
14.3155	0.792
14.3561	0.794
14.3967	0.796
14.4373	0.796
14.4779	0.789
14.5185	0.785
14.5591	0.784
14.5997	0.78
14.6403	0.773
14.6809	0.768
14.7215	0.768
14.7621	0.755
14.8027	0.756
14.8433	0.746
14.8839	0.734
14.9245	0.719
14.9651	0.714
15.0057	0.703
15.0463	0.698
15.0869	0.696
15.1275	0.69
15.1681	0.688
15.2087	0.686
15.2493	0.684
15.2899	0.683
15.3305	0.678
15.3711	0.676
15.4117	0.672
15.4523	0.669
15.4929	0.662
15.5335	0.66
15.5741	0.657
15.6147	0.652
15.6553	0.65
15.6959	0.645
15.7365	0.642
15.7771	0.64
15.8177	0.64
15.8583	0.636
15.8989	0.635
15.9395	0.633
