Infrared Spectrum: UREA, 3-(2-CHLOROETHYL)-1,1-DIMETHYL-
Formula: C5 H11 Cl N2 O
CAS: 71162-62-4
State: SOLID (0.7 mg / 500 mg KBr DISC)
Class: COBLENTZ III
Instrument: PERKIN-ELMER 221 (GRATING)
Instrument parameters: FILTER AT 980 CM ^-^1, GRATING FOR 4000-1428 CM^-^1, NaCl PRISM FOR 1428-650 CM^-^1
Sampling: TRANSMISSION
Resolution: 4
Origin: SOUTHERN RES. INSTITUTE
1/CM	TRANSMITTANCE
604.245	0.523
613.365	0.518
622.484	0.513
631.604	0.504
640.723	0.494
649.843	0.365
658.962	0.258
668.082	0.598
677.201	0.734
686.321	0.785
695.44	0.813
704.56	0.839
713.679	0.848
722.799	0.851
731.918	0.829
741.038	0.776
750.157	0.829
759.277	0.769
768.396	0.37
777.516	0.629
786.635	0.905
795.755	0.919
804.874	0.921
813.994	0.918
823.113	0.905
832.233	0.873
841.352	0.832
850.472	0.867
859.591	0.754
868.711	0.85
877.83	0.862
886.95	0.791
896.069	0.835
905.189	0.861
914.308	0.826
923.428	0.778
932.547	0.69
941.667	0.59
950.786	0.441
959.906	0.662
969.025	0.793
978.145	0.564
987.264	0.444
996.384	0.677
1005.5	0.75
1014.62	0.733
1023.74	0.734
1032.86	0.709
1041.98	0.643
1051.1	0.425
1060.22	0.44
1069.34	0.463
1078.46	0.552
1087.58	0.6
1096.7	0.588
1105.82	0.525
1114.94	0.503
1124.06	0.539
1133.18	0.54
1142.3	0.531
1151.42	0.511
1160.53	0.488
1169.65	0.416
1178.77	0.281
1187.89	0.343
1197.01	0.416
1206.13	0.335
1215.25	0.245
1224.37	0.135
1233.49	0.08
1242.61	0.132
1251.73	0.23
1260.85	0.299
1269.97	0.388
1279.09	0.515
1288.21	0.562
1297.33	0.438
1306.45	0.406
1315.57	0.453
1324.69	0.524
1333.81	0.456
1342.92	0.353
1352.04	0.218
1361.16	0.1
1370.28	0.195
1379.4	0.176
1388.52	0.198
1397.64	0.353
1406.76	0.291
1415.88	0.355
1425	0.265
1434.12	0.299
1443.24	0.369
1452.36	0.351
1461.48	0.349
1470.6	0.341
1479.72	0.305
1488.84	0.252
1497.96	0.225
1507.08	0.173
1516.2	0.11
1525.31	0.063
1534.43	0.052
1543.55	0.059
1552.67	0.063
1561.79	0.09
1570.91	0.122
1580.03	0.16
1589.15	0.166
1598.27	0.147
1607.39	0.126
1616.51	0.1
1625.63	0.046
1634.75	0.028
1643.87	0.058
1652.99	0.083
1662.11	0.12
1671.23	0.168
1680.35	0.211
1689.47	0.255
1698.59	0.257
1707.7	0.215
1716.82	0.214
1725.94	0.306
1735.06	0.416
1744.18	0.462
1753.3	0.514
1762.42	0.536
1771.54	0.564
1780.66	0.577
1789.78	0.587
1798.9	0.615
1808.02	0.64
1817.14	0.659
1826.26	0.674
1835.38	0.692
1844.5	0.707
1853.62	0.716
1862.74	0.728
1871.86	0.742
1880.98	0.752
1890.09	0.758
1899.21	0.76
1908.33	0.761
1917.45	0.766
1926.57	0.776
1935.69	0.782
1944.81	0.783
1953.93	0.785
1963.05	0.785
1972.17	0.784
1981.29	0.783
1990.41	0.787
1999.53	0.791
2008.65	0.801
2017.77	0.808
2026.89	0.81
2036.01	0.812
2045.13	0.812
2054.25	0.811
2063.37	0.81
2072.49	0.81
2081.6	0.813
2090.72	0.815
2099.84	0.82
2108.96	0.823
2118.08	0.824
2127.2	0.824
2136.32	0.827
2145.44	0.831
2154.56	0.833
2163.68	0.832
2172.8	0.832
2181.92	0.832
2191.04	0.832
2200.16	0.829
2209.28	0.822
2218.4	0.82
2227.52	0.82
2236.64	0.823
2245.76	0.826
2254.88	0.829
2263.99	0.832
2273.11	0.834
2282.23	0.832
2291.35	0.832
2300.47	0.832
2309.59	0.831
2318.71	0.831
2327.83	0.83
2336.95	0.829
2346.07	0.828
2355.19	0.827
2364.31	0.829
2373.43	0.83
2382.55	0.834
2391.67	0.835
2400.79	0.833
2409.91	0.83
2419.03	0.828
2428.15	0.827
2437.27	0.826
2446.38	0.82
2455.5	0.813
2464.62	0.813
2473.74	0.815
2482.86	0.816
2491.98	0.814
2501.1	0.813
2510.22	0.813
2519.34	0.812
2528.46	0.811
2537.58	0.81
2546.7	0.81
2555.82	0.808
2564.94	0.805
2574.06	0.8
2583.18	0.796
2592.3	0.794
2601.42	0.792
2610.54	0.791
2619.66	0.792
2628.77	0.791
2637.89	0.789
2647.01	0.785
2656.13	0.781
2665.25	0.773
2674.37	0.764
2683.49	0.76
2692.61	0.757
2701.73	0.753
2710.85	0.742
2719.97	0.718
2729.09	0.712
2738.21	0.709
2747.33	0.706
2756.45	0.694
2765.57	0.687
2774.69	0.678
2783.81	0.66
2792.93	0.636
2802.05	0.603
2811.16	0.579
2820.28	0.529
2829.4	0.488
2838.52	0.475
2847.64	0.47
2856.76	0.454
2865.88	0.426
2875	0.419
2884.12	0.413
2893.24	0.397
2902.36	0.351
2911.48	0.302
2920.6	0.261
2929.72	0.281
2938.84	0.302
2947.96	0.334
2957.08	0.334
2966.2	0.246
2975.32	0.346
2984.44	0.438
2993.55	0.452
3002.67	0.455
3011.79	0.453
3020.91	0.441
3030.03	0.463
3039.15	0.504
3048.27	0.517
3057.39	0.528
3066.51	0.537
3075.63	0.54
3084.75	0.554
3093.87	0.567
3102.99	0.574
3112.11	0.577
3121.23	0.579
3130.35	0.58
3139.47	0.578
3148.59	0.577
3157.71	0.567
3166.83	0.551
3175.94	0.545
3185.06	0.543
3194.18	0.539
3203.3	0.531
3212.42	0.511
3221.54	0.482
3230.66	0.432
3239.78	0.389
3248.9	0.345
3258.02	0.323
3267.14	0.305
3276.26	0.287
3285.38	0.255
3294.5	0.214
3303.62	0.178
3312.74	0.141
3321.86	0.11
3330.98	0.1
3340.1	0.122
3349.22	0.132
3358.34	0.169
3367.45	0.194
3376.57	0.231
3385.69	0.268
3394.81	0.294
3403.93	0.328
3413.05	0.357
3422.17	0.397
3431.29	0.416
3440.41	0.444
3449.53	0.47
3458.65	0.479
3467.77	0.498
3476.89	0.506
3486.01	0.526
3495.13	0.533
3504.25	0.545
3513.37	0.556
3522.49	0.566
3531.61	0.58
3540.73	0.59
3549.84	0.596
3558.96	0.606
3568.08	0.614
3577.2	0.622
3586.32	0.635
3595.44	0.64
3604.56	0.657
3613.68	0.662
3622.8	0.666
3631.92	0.679
3641.04	0.69
3650.16	0.695
3659.28	0.698
3668.4	0.704
3677.52	0.705
3686.64	0.707
3695.76	0.708
3704.88	0.709
3714	0.709
3723.12	0.709
3732.23	0.71
3741.35	0.71
3750.47	0.711
3759.59	0.712
3768.71	0.712
3777.83	0.712
3786.95	0.712
3796.07	0.712
3805.19	0.712
3814.31	0.712
3823.43	0.712
3832.55	0.712
3841.67	0.712
3850.79	0.712
3859.91	0.712
3869.03	0.712
3878.15	0.712
3887.27	0.712
3896.39	0.712
3905.51	0.712
3914.62	0.711
3923.74	0.711
3932.86	0.711
3941.98	0.711
3951.1	0.711
3960.22	0.712
3969.34	0.712
3978.46	0.712
3987.58	0.712
3996.7	0.712
