Infrared Spectrum: Alpha-CYANO-2-NORBORNANEACETIC ACID, ETHYL ESTER
Formula: C12 H17 N O2
CAS: 71172-71-9
State: SOLUTION (10% IN CCl4 FOR 3800-1330 CM^-^1, 10% IN CS2 FOR 1330-460 CM^-^1) VS. SOLVENT
Class: COBLENTZ III
Instrument: DOW KBr FOREPRISM-GRATING
Instrument parameters: GRATING BLAZED AT 3.5, 12.0, 20.0 MICRONS AND CHANGED AT 5.0, 7.5, 14.9 MICRONS
Sampling: TRANSMISSION
Path length: 0.012 CM, 0.011 CM
Resolution: 4
Origin: DOW CHEMICAL COMPANY
1/CM	TRANSMITTANCE
455.293	0.917
464.07	0.907
472.846	0.907
481.623	0.907
490.4	0.91
499.177	0.921
507.953	0.902
516.73	0.913
525.507	0.922
534.284	0.933
543.06	0.942
551.837	0.943
560.614	0.938
569.391	0.928
578.167	0.915
586.944	0.924
595.721	0.944
604.498	0.944
613.274	0.95
622.051	0.944
630.828	0.942
639.604	0.935
648.381	0.929
657.158	0.95
665.935	0.973
674.711	0.946
683.488	0.94
692.265	0.924
701.042	0.917
709.818	0.933
718.595	0.932
727.372	0.922
736.149	0.921
744.925	0.902
753.702	0.885
762.479	0.889
771.255	0.877
780.032	0.884
788.809	0.87
797.586	0.915
806.362	0.909
815.139	0.935
823.916	0.917
832.693	0.837
841.469	0.926
850.246	0.831
859.023	0.753
867.8	0.906
876.576	0.936
885.353	0.936
894.13	0.968
902.907	0.947
911.683	0.903
920.46	0.873
929.237	0.907
938.013	0.811
946.79	0.863
955.567	0.892
964.344	0.921
973.12	0.925
981.897	0.899
990.674	0.884
999.451	0.807
1008.23	0.774
1017	0.575
1025.78	0.212
1034.56	0.38
1043.33	0.577
1052.11	0.735
1060.89	0.608
1069.66	0.738
1078.44	0.796
1087.22	0.662
1095.99	0.559
1104.77	0.677
1113.55	0.644
1122.32	0.644
1131.1	0.644
1139.88	0.534
1148.66	0.278
1157.43	0.22
1166.21	0.207
1174.99	0.191
1183.76	0.283
1192.54	0.348
1201.32	0.318
1210.09	0.169
1218.87	0.373
1227.65	0.292
1236.42	0.162
1245.2	0.063
1253.98	0.081
1262.75	0.148
1271.53	0.232
1280.31	0.366
1289.08	0.345
1297.86	0.301
1306.64	0.254
1315.41	0.398
1324.19	0.422
1332.97	0.662
1341.74	0.772
1350.52	0.731
1359.3	0.727
1368.07	0.374
1376.85	0.727
1385.63	0.756
1394.4	0.717
1403.18	0.826
1411.96	0.86
1420.73	0.884
1429.51	0.871
1438.29	0.796
1447.06	0.508
1455.84	0.516
1464.62	0.506
1473.39	0.668
1482.17	0.702
1490.95	0.904
1499.72	0.933
1508.5	0.955
1517.28	0.966
1526.05	0.975
1534.83	0.983
1543.61	1.005
1552.38	1.004
1561.16	0.987
1569.94	0.971
1578.72	0.96
1587.49	0.936
1596.27	0.873
1605.05	0.763
1613.82	0.76
1622.6	0.757
1631.38	0.818
1640.15	0.888
1648.93	0.917
1657.71	0.909
1666.48	0.862
1675.26	0.848
1684.04	0.831
1692.81	0.79
1701.59	0.767
1710.37	0.719
1719.14	0.63
1727.92	0.404
1736.7	0.125
1745.47	0
1754.25	0
1763.03	0.228
1771.8	0.625
1780.58	0.779
1789.36	0.855
1798.13	0.896
1806.91	0.922
1815.69	0.94
1824.46	0.953
1833.24	0.964
1842.02	0.969
1850.79	0.975
1859.57	0.977
1868.35	0.977
1877.12	0.973
1885.9	0.971
1894.68	0.977
1903.45	0.98
1912.23	0.984
1921.01	0.988
1929.78	0.991
1938.56	0.997
1947.34	1.002
1956.11	1.006
1964.89	1.011
1973.67	1.016
1982.45	1.022
1991.22	1.027
2000	1.033
2008.78	1.035
2017.55	1.038
2026.33	1.041
2035.11	1.042
2043.88	1.044
2052.66	1.045
2061.44	1.044
2070.21	1.042
2078.99	1.0409
2087.77	1.038
2096.54	1.037
2105.32	1.037
2114.1	1.041
2122.87	1.0408
2131.65	1.041
2140.43	1.0423
2149.2	1.0449
2157.98	1.041
2166.76	1.039
2175.53	1.035
2184.31	1.035
2193.09	1.0308
2201.86	1.027
2210.64	1.023
2219.42	1.0146
2228.19	0.995
2236.97	0.9993
2245.75	0.9503
2254.52	0.8738
2263.3	0.9764
2272.08	1.0068
2280.85	1.0113
2289.63	1.0123
2298.41	1.012
2307.18	1.013
2315.96	1.0176
2324.74	1.0233
2333.51	1.023
2342.29	1.022
2351.07	1.022
2359.84	1.02
2368.62	1.0167
2377.4	1.0103
2386.17	1.0046
2394.95	1.006
2403.73	1.008
2412.51	1.0056
2421.28	1.002
2430.06	1.008
2438.84	1.0098
2447.61	1.009
2456.39	1.011
2465.17	1.011
2473.94	1.0086
2482.72	1.0046
2491.5	1.002
2500.27	1.002
2509.05	1.0045
2517.83	1.008
2526.6	1.011
2535.38	1.01
2544.16	1.008
2552.93	1.006
2561.71	1.0085
2570.49	1.0099
2579.26	1.008
2588.04	1.008
2596.82	1.0069
2605.59	1.002
2614.37	1.001
2623.15	1.004
2631.92	1.009
2640.7	1.011
2649.48	1.011
2658.25	1.009
2667.03	1.008
2675.81	1.006
2684.58	1.005
2693.36	1.004
2702.14	1.002
2710.91	1.002
2719.69	1.0003
2728.47	1
2737.24	0.9973
2746.02	0.995
2754.8	0.993
2763.57	0.9886
2772.35	0.986
2781.13	0.9833
2789.9	0.983
2798.68	0.983
2807.46	0.98
2816.23	0.973
2825.01	0.964
2833.79	0.9554
2842.57	0.9397
2851.34	0.9077
2860.12	0.8216
2868.9	0.4659
2877.67	0.2296
2886.45	0.3651
2895.23	0.5044
2904	0.5787
2912.78	0.4686
2921.56	0.3624
2930.33	0.3189
2939.11	0.1955
2947.89	0.1122
2956.66	0.0268
2965.44	0.0188
2974.22	0.0717
2982.99	0.2049
2991.77	0.304
3000.55	0.4384
3009.32	0.6562
3018.1	0.7931
3026.88	0.8694
3035.65	0.915
3044.43	0.9428
3053.21	0.9539
3061.98	0.964
3070.76	0.971
3079.54	0.976
3088.31	0.98
3097.09	0.982
3105.87	0.986
3114.64	0.987
3123.42	0.986
3132.2	0.9901
3140.97	0.994
3149.75	0.9911
3158.53	0.99
3167.3	0.991
3176.08	0.991
3184.86	0.99
3193.63	0.99
3202.41	0.99
3211.19	0.99
3219.96	0.99
3228.74	0.9897
3237.52	0.987
3246.29	0.988
3255.07	0.99
3263.85	0.9926
3272.63	0.9908
3281.4	0.988
3290.18	0.9902
3298.96	0.9938
3307.73	0.991
3316.51	0.99
3325.29	0.99
3334.06	0.9925
3342.84	0.987
3351.62	0.988
3360.39	0.9885
3369.17	0.991
3377.95	0.987
3386.72	0.988
3395.5	0.988
3404.28	0.986
3413.05	0.984
3421.83	0.986
3430.61	0.9837
3439.38	0.9827
3448.16	0.9783
3456.94	0.9743
3465.71	0.9633
3474.49	0.9482
3483.27	0.9534
3492.04	0.9608
3500.82	0.9702
3509.6	0.979
3518.37	0.98
3527.15	0.977
3535.93	0.9766
3544.7	0.9756
3553.48	0.972
3562.26	0.9699
3571.03	0.9725
3579.81	0.9755
3588.59	0.976
3597.36	0.977
3606.14	0.979
3614.92	0.976
3623.69	0.977
3632.47	0.9781
3641.25	0.9825
3650.02	0.984
3658.8	0.9809
3667.58	0.979
3676.36	0.976
3685.13	0.9754
3693.91	0.976
3702.69	0.976
3711.46	0.975
3720.24	0.9756
3729.02	0.9796
3737.79	0.979
3746.57	0.976
3755.35	0.975
3764.12	0.977
3772.9	0.9763
3781.68	0.9767
3790.45	0.979
3799.23	0.979
