Infrared Spectrum: N-[2-(2-Hydroxyethoxy)ethyl]formamide
Formula: C5 H11 N O3
CAS: 71172-48-0
State: LIQUID (NEAT)
Class: COBLENTZ III
Instrument: DOW KBr FOREPRISM-GRATING
Instrument parameters: BLAZED AT 3.5, 12.0, 20.0 MICRON AND CHANGED AT 5.0, 7.5, 14.9 MICRON
Sampling: TRANSMISSION
Path length: CAPILLARY
Resolution: 2
Origin: DOW CHEMICAL COMPANY
1/CM	TRANSMITTANCE
3800	0.8675
3791	0.8674
3782	0.8671
3773	0.8668
3764	0.8665
3755	0.8665
3746	0.8664
3737	0.8663
3728	0.8657
3719	0.8648
3710	0.8639
3701	0.8581
3692	0.8568
3683	0.8555
3674	0.8541
3665	0.8523
3656	0.8489
3647	0.8439
3638	0.8383
3629	0.8328
3620	0.8254
3611	0.8165
3602	0.8058
3593	0.7946
3584	0.783
3575	0.7719
3566	0.7546
3557	0.7384
3548	0.7228
3539	0.7051
3530	0.6871
3521	0.6686
3512	0.6496
3503	0.6289
3494	0.6062
3485	0.584
3476	0.564
3467	0.5468
3458	0.5314
3449	0.5162
3440	0.5014
3431	0.4865
3422	0.4714
3413	0.4583
3404	0.446
3395	0.4329
3386	0.4195
3377	0.4032
3368	0.3904
3359	0.3795
3350	0.3692
3341	0.3609
3332	0.3536
3323	0.3472
3314	0.3428
3305	0.3388
3296	0.3382
3287	0.3443
3278	0.3558
3269	0.3697
3260	0.3806
3251	0.395
3242	0.4167
3233	0.4452
3224	0.4737
3215	0.5003
3206	0.5267
3197	0.5544
3188	0.5802
3179	0.6053
3170	0.6255
3161	0.6443
3152	0.6625
3143	0.6761
3134	0.6851
3125	0.6945
3116	0.7006
3107	0.704
3098	0.7046
3089	0.6996
3080	0.6812
3071	0.6649
3062	0.6531
3053	0.6504
3044	0.6689
3035	0.6901
3026	0.7118
3017	0.7307
3008	0.7467
2999	0.7488
2990	0.7465
2981	0.7245
2972	0.6951
2963	0.6389
2954	0.5699
2945	0.5397
2936	0.5224
2927	0.5192
2918	0.5186
2909	0.5216
2900	0.5222
2891	0.4953
2882	0.4608
2873	0.4399
2864	0.4407
2855	0.4871
2846	0.576
2837	0.6373
2828	0.6682
2819	0.6905
2810	0.7046
2801	0.7178
2792	0.7301
2783	0.7401
2774	0.7478
2765	0.7561
2756	0.763
2747	0.7686
2738	0.7741
2729	0.7795
2720	0.7861
2711	0.7936
2702	0.7996
2693	0.8042
2684	0.8089
2675	0.8133
2666	0.8175
2657	0.8214
2648	0.8252
2639	0.8277
2630	0.8302
2621	0.8314
2612	0.8321
2603	0.8327
2594	0.8331
2585	0.8334
2576	0.8344
2567	0.8355
2558	0.8366
2549	0.8371
2540	0.8374
2531	0.8374
2522	0.8371
2513	0.8368
2504	0.8367
2495	0.8377
2486	0.8388
2477	0.8397
2468	0.8403
2459	0.8409
2450	0.8417
2441	0.8423
2432	0.843
2423	0.8436
2414	0.8442
2405	0.845
2396	0.8459
2387	0.8468
2378	0.8475
2369	0.8484
2360	0.8492
2351	0.8495
2342	0.8498
2333	0.849
2324	0.8483
2315	0.8475
2306	0.8475
2297	0.8475
2288	0.8477
2279	0.8478
2270	0.848
2261	0.8482
2252	0.8488
2243	0.8492
2234	0.8491
2225	0.849
2216	0.8488
2207	0.8481
2198	0.8475
2189	0.8468
2180	0.8462
2171	0.8456
2162	0.8454
2153	0.8452
2144	0.845
2135	0.8442
2126	0.8433
2117	0.8421
2108	0.841
2099	0.8407
2090	0.8404
2081	0.8401
2072	0.8397
2063	0.8392
2054	0.8394
2045	0.8399
2036	0.8403
2027	0.8402
2018	0.8406
2009	0.8427
2000	0.8497
1991	0.8502
1982	0.849
1973	0.8475
1964	0.8457
1955	0.844
1946	0.8437
1937	0.8432
1928	0.8437
1919	0.846
1910	0.8484
1901	0.8495
1892	0.8496
1883	0.8492
1874	0.8487
1865	0.8482
1856	0.8478
1847	0.8473
1838	0.8465
1829	0.8456
1820	0.8441
1811	0.8408
1802	0.8364
1793	0.8305
1784	0.8242
1775	0.8184
1766	0.8125
1757	0.8055
1748	0.798
1739	0.7889
1730	0.7761
1721	0.7506
1712	0.6762
1703	0.4255
1694	0.2551
1685	0.1527
1676	0.1175
1667	0.1158
1658	0.1657
1649	0.3476
1640	0.5498
1631	0.6436
1622	0.6892
1613	0.7151
1604	0.7301
1595	0.7391
1586	0.7396
1577	0.7241
1568	0.6755
1559	0.595
1550	0.5143
1541	0.4649
1532	0.4698
1523	0.5321
1514	0.5939
1505	0.6558
1496	0.6904
1487	0.6758
1478	0.6395
1469	0.6184
1460	0.5988
1451	0.6031
1442	0.6245
1433	0.6468
1424	0.6634
1415	0.6555
1406	0.5687
1397	0.4396
1388	0.3875
1379	0.5405
1370	0.5726
1361	0.5839
1352	0.5748
1343	0.6335
1334	0.6596
1325	0.6451
1316	0.654
1307	0.6642
1298	0.6633
1289	0.6495
1280	0.6275
1271	0.6168
1262	0.6097
1253	0.5922
1244	0.5841
1235	0.5896
1226	0.6038
1217	0.6664
1208	0.72
1199	0.7444
1190	0.761
1181	0.7647
1172	0.7621
1163	0.7478
1154	0.6833
1145	0.4897
1136	0.3175
1127	0.2988
1118	0.4005
1109	0.5415
1100	0.5868
1091	0.5583
1082	0.4474
1073	0.3823
1064	0.4122
1055	0.5099
1046	0.5877
1037	0.6098
1028	0.65
1019	0.7003
1010	0.7337
1001	0.7641
992	0.7771
983	0.7858
974	0.7935
965	0.7993
956	0.8011
947	0.7789
938	0.7612
929	0.7608
920	0.7684
911	0.7706
902	0.7342
893	0.6975
884	0.7239
875	0.7532
866	0.7705
857	0.7888
848	0.7975
839	0.7786
830	0.7639
821	0.7583
812	0.7662
803	0.776
794	0.7718
785	0.7661
776	0.7614
767	0.7521
758	0.7457
749	0.7394
740	0.7421
731	0.7475
722	0.7503
713	0.7518
704	0.753
695	0.7538
686	0.7545
677	0.7553
668	0.7561
659	0.7568
650	0.7575
641	0.7587
632	0.7608
623	0.7562
614	0.7465
605	0.7471
596	0.7575
587	0.7626
578	0.7618
569	0.7567
560	0.7503
551	0.7424
542	0.7374
533	0.7408
524	0.7447
515	0.7564
506	0.7689
497	0.7775
488	0.7806
479	0.7801
470	0.7798
461	0.7746
452	0.7658
443	0.7656
434	0.7615
425	0.7541
416	0.7454
407	0.7371
398	0.7305
389	0.725
