Infrared Spectrum: 4-CARBOXY-1-PIPERIDINEACETIC ACID, 4-ETHYL-1, METHYL ESTER
Formula: C11 H19 N O4
CAS: 71172-59-3
State: SOLUTION (10% IN CCl4 FOR 3800-1330, 10% IN CS2 FOR 1330-460 CM^-^1) VS. SOLVENT
Class: COBLENTZ
Instrument: DOW KBr FOREPRISM-GRATING
Instrument parameters: BLAZED AT 3.5, 12.0, 20.0 MICRONS AND CHANGED AT 5.0, 7.5, 14.9 MICRONS
Sampling: TRANSMISSION
Path length: 0.011 CM, 0.012 CM
Resolution: 2
Origin: DOW CHEMICAL COMPANY
1/CM	TRANSMITTANCE
461.404	0.968
470.176	0.964
478.948	0.962
487.72	0.962
496.492	0.941
505.264	0.93
514.036	0.933
522.807	0.958
531.579	0.968
540.351	0.966
549.123	0.962
557.895	0.95
566.667	0.922
575.439	0.918
584.211	0.932
592.983	0.937
601.755	0.936
610.527	0.947
619.299	0.959
628.071	0.959
636.843	0.933
645.614	0.912
654.386	0.893
663.158	0.955
671.93	0.959
680.702	0.959
689.474	0.959
698.246	0.941
707.018	0.929
715.79	0.914
724.562	0.914
733.334	0.911
742.106	0.919
750.878	0.901
759.649	0.849
768.421	0.871
777.193	0.86
785.965	0.769
794.737	0.81
803.509	0.864
812.281	0.878
821.053	0.948
829.825	0.998
838.597	0.982
847.369	0.893
856.141	0.744
864.913	0.698
873.684	0.816
882.456	0.968
891.228	1.001
900	0.964
908.772	0.917
917.544	0.866
926.316	0.882
935.088	0.874
943.86	0.825
952.632	0.882
961.404	0.936
970.176	0.774
978.948	0.885
987.72	0.893
996.491	0.7689
1005.26	0.533
1014.04	0.57
1022.81	0.263
1031.58	0.084
1040.35	0.12
1049.12	0.111
1057.89	0.448
1066.67	0.679
1075.44	0.73
1084.21	0.64
1092.98	0.285
1101.75	0.341
1110.53	0.251
1119.3	0.375
1128.07	0.269
1136.84	0.104
1145.61	0.06
1154.39	0.02
1163.16	0.02
1171.93	0.017
1180.7	0.009
1189.47	0.017
1198.25	0.066
1207.02	0.12
1215.79	0.222
1224.56	0.299
1233.33	0.294
1242.11	0.222
1250.88	0.116
1259.65	0.081
1268.42	0.214
1277.19	0.248
1285.96	0.102
1294.74	0.146
1303.51	0.233
1312.28	0.331
1321.05	0.331
1329.82	0.509
1338.6	0.512
1347.37	0.602
1356.14	0.676
1364.91	0.476
1373.68	0.321
1382.46	0.401
1391.23	0.377
1400	0.47
1408.77	0.52
1417.54	0.638
1426.32	0.533
1435.09	0.559
1443.86	0.328
1452.63	0.377
1461.4	0.4249
1470.18	0.4532
1478.95	0.5081
1487.72	0.799
1496.49	0.854
1505.26	0.881
1514.04	0.896
1522.81	0.917
1531.58	0.93
1540.35	0.953
1549.12	0.959
1557.89	0.95
1566.67	0.928
1575.44	0.914
1584.21	0.9
1592.98	0.881
1601.75	0.857
1610.53	0.834
1619.3	0.805
1628.07	0.783
1636.84	0.762
1645.61	0.741
1654.39	0.733
1663.16	0.726
1671.93	0.722
1680.7	0.697
1689.47	0.636
1698.25	0.588
1707.02	0.48
1715.79	0.2219
1724.56	0.008
1733.33	0.001
1742.11	0.004
1750.88	0.023
1759.65	0.059
1768.42	0.473
1777.19	0.705
1785.96	0.78
1794.74	0.82
1803.51	0.849
1812.28	0.872
1821.05	0.883
1829.82	0.892
1838.6	0.911
1847.37	0.926
1856.14	0.933
1864.91	0.933
1873.68	0.929
1882.46	0.922
1891.23	0.918
1900	0.919
1908.77	0.928
1917.54	0.935
1926.32	0.941
1935.09	0.948
1943.86	0.954
1952.63	0.962
1961.4	0.97
1970.18	0.979
1978.95	0.987
1987.72	0.993
1996.49	0.994
2005.26	0.993
2014.03	0.987
2022.81	0.98
2031.58	0.979
2040.35	0.9769
2049.12	0.976
2057.89	0.9772
2066.67	0.983
2075.44	0.987
2084.21	0.988
2092.98	0.991
2101.75	0.9932
2110.53	0.997
2119.3	1.001
2128.07	1.001
2136.84	1.001
2145.61	1.002
2154.39	1.004
2163.16	1.004
2171.93	1.004
2180.7	1.002
2189.47	1.0017
2198.25	1.001
2207.02	1.001
2215.79	1.001
2224.56	0.998
2233.33	0.9936
2242.1	0.9876
2250.88	0.988
2259.65	0.99
2268.42	0.988
2277.19	0.99
2285.96	0.991
2294.74	0.991
2303.51	0.99
2312.28	0.987
2321.05	0.9875
2329.82	0.986
2338.6	0.984
2347.37	0.983
2356.14	0.9808
2364.91	0.9778
2373.68	0.9754
2382.46	0.972
2391.23	0.97
2400	0.97
2408.77	0.97
2417.54	0.973
2426.32	0.973
2435.09	0.9723
2443.86	0.97
2452.63	0.968
2461.4	0.965
2470.17	0.9624
2478.95	0.959
2487.72	0.9572
2496.49	0.9578
2505.26	0.958
2514.03	0.958
2522.81	0.9571
2531.58	0.955
2540.35	0.957
2549.12	0.955
2557.89	0.955
2566.67	0.955
2575.44	0.953
2584.21	0.95
2592.98	0.947
2601.75	0.943
2610.53	0.935
2619.3	0.9219
2628.07	0.9099
2636.84	0.8949
2645.61	0.8779
2654.39	0.8627
2663.16	0.8289
2671.93	0.7915
2680.7	0.796
2689.47	0.779
2698.24	0.7656
2707.02	0.7738
2715.79	0.7502
2724.56	0.717
2733.33	0.6483
2742.1	0.5845
2750.88	0.5802
2759.65	0.5762
2768.42	0.5589
2777.19	0.5442
2785.96	0.5006
2794.74	0.4817
2803.51	0.46
2812.28	0.4594
2821.05	0.4834
2829.82	0.5587
2838.6	0.563
2847.37	0.5474
2856.14	0.563
2864.91	0.5606
2873.68	0.5975
2882.46	0.4938
2891.23	0.385
2900	0.3184
2908.77	0.3555
2917.54	0.2421
2926.32	0.165
2935.09	0.189
2943.86	0.189
2952.63	0.2249
2961.4	0.2448
2970.17	0.1862
2978.95	0.1955
2987.72	0.3094
2996.49	0.518
3005.26	0.7337
3014.03	0.8084
3022.81	0.8551
3031.58	0.8769
3040.35	0.8897
3049.12	0.9007
3057.89	0.906
3066.67	0.9118
3075.44	0.918
3084.21	0.921
3092.98	0.9236
3101.75	0.9258
3110.53	0.928
3119.3	0.9299
3128.07	0.93
3136.84	0.932
3145.61	0.93
3154.39	0.93
3163.16	0.93
3171.93	0.93
3180.7	0.93
3189.47	0.93
3198.24	0.932
3207.02	0.935
3215.79	0.937
3224.56	0.939
3233.33	0.939
3242.1	0.939
3250.88	0.939
3259.65	0.94
3268.42	0.943
3277.19	0.939
3285.96	0.9369
3294.74	0.935
3303.51	0.935
3312.28	0.932
3321.05	0.932
3329.82	0.929
3338.6	0.924
3347.37	0.922
3356.14	0.921
3364.91	0.919
3373.68	0.917
3382.46	0.915
3391.23	0.914
3400	0.91
3408.77	0.9023
3417.54	0.8943
3426.31	0.8763
3435.09	0.875
3443.86	0.8798
3452.63	0.8888
3461.4	0.8964
3470.17	0.9035
3478.95	0.9105
3487.72	0.9175
3496.49	0.923
3505.26	0.92
3514.03	0.919
3522.81	0.919
3531.58	0.9215
3540.35	0.9251
3549.12	0.9326
3557.89	0.9312
3566.67	0.939
3575.44	0.9466
3584.21	0.947
3592.98	0.9493
3601.75	0.954
3610.53	0.955
3619.3	0.957
3628.07	0.9617
3636.84	0.9643
3645.61	0.959
3654.38	0.958
3663.16	0.9502
3671.93	0.9538
3680.7	0.9658
3689.47	0.975
3698.24	0.977
3707.02	0.977
3715.79	0.979
3724.56	0.9817
3733.33	0.9791
3742.1	0.977
3750.88	0.976
3759.65	0.976
3768.42	0.977
3777.19	0.977
3785.96	0.979
3794.74	0.98
