Infrared Spectrum: 3-[(BENZYLMETHYLAMINO)METHYL]-2-NORBORNANONE
Formula: C16 H21 N O
CAS: 71172-50-4
State: SOLUTION (10% CCl4 FOR 3800-1330, 10% CS2 FOR 1330-400 CM^-^1)
Class: COBLENTZ III
Instrument: BECKMAN IR-9 (GRATING)
Instrument parameters: ORDER CHANGES: 670, 1200, 2000 CM^-^1
Sampling: TRANSMISSION
Path length: 0.011 CM, 0.011 CM
Resolution: 2
Origin: DOW CHEMICAL COMPANY
1/CM	TRANSMITTANCE
410.174	0.239
418.895	0.416
427.616	0.591
436.337	0.674
445.058	0.726
453.779	0.775
462.5	0.799
471.221	0.774
479.941	0.726
488.662	0.714
497.383	0.834
506.104	0.86
514.825	0.83
523.546	0.857
532.267	0.868
540.988	0.909
549.709	0.911
558.43	0.9
567.151	0.901
575.872	0.919
584.593	0.935
593.314	0.937
602.034	0.935
610.755	0.845
619.476	0.898
628.197	0.915
636.918	0.93
645.639	0.922
654.36	0.894
663.081	0.909
671.802	0.913
680.523	0.953
689.244	0.922
697.965	0.37
706.686	0.592
715.407	0.862
724.128	0.836
732.848	0.329
741.569	0.189
750.29	0.635
759.011	0.709
767.732	0.852
776.453	0.942
785.174	0.967
793.895	0.965
802.616	0.939
811.337	0.879
820.058	0.87
828.779	0.846
837.5	0.882
846.221	0.707
854.941	0.745
863.662	0.737
872.383	0.661
881.104	0.715
889.825	0.663
898.546	0.801
907.267	0.734
915.988	0.692
924.709	0.898
933.43	0.898
942.151	0.4941
950.872	0.866
959.593	0.715
968.314	0.823
977.035	0.775
985.755	0.778
994.476	0.837
1003.2	0.856
1011.92	0.796
1020.64	0.558
1029.36	0.271
1038.08	0.483
1046.8	0.666
1055.52	0.765
1064.24	0.781
1072.96	0.551
1081.69	0.307
1090.41	0.599
1099.13	0.797
1107.85	0.818
1116.57	0.646
1125.29	0.564
1134.01	0.654
1142.73	0.676
1151.45	0.612
1160.17	0.775
1168.9	0.7249
1177.62	0.646
1186.34	0.699
1195.06	0.632
1203.78	0.713
1212.5	0.744
1221.22	0.804
1229.94	0.743
1238.66	0.801
1247.38	0.741
1256.1	0.684
1264.83	0.73
1273.55	0.762
1282.27	0.595
1290.99	0.596
1299.71	0.601
1308.43	0.614
1317.15	0.677
1325.87	0.726
1334.59	0.784
1343.31	0.836
1352.03	0.632
1360.76	0.687
1369.48	0.627
1378.2	0.654
1386.92	0.778
1395.64	0.857
1404.36	0.874
1413.08	0.893
1421.8	0.812
1430.52	0.866
1439.24	0.8309
1447.96	0.543
1456.69	0.2701
1465.41	0.382
1474.13	0.736
1482.85	0.815
1491.57	0.7399
1500.29	0.729
1509.01	0.799
1517.73	0.765
1526.45	0.718
1535.17	0.646
1543.9	0.553
1552.62	0.521
1561.34	0.575
1570.06	0.648
1578.78	0.677
1587.5	0.666
1596.22	0.748
1604.94	0.74
1613.66	0.874
1622.38	0.915
1631.1	0.928
1639.83	0.933
1648.55	0.93
1657.27	0.926
1665.99	0.912
1674.71	0.853
1683.43	0.762
1692.15	0.762
1700.87	0.771
1709.59	0.703
1718.31	0.71
1727.03	0.565
1735.76	0.172
1744.48	0.005
1753.2	0.0391
1761.92	0.571
1770.64	0.756
1779.36	0.827
1788.08	0.892
1796.8	0.909
1805.52	0.898
1814.24	0.879
1822.96	0.911
1831.69	0.934
1840.41	0.942
1849.13	0.948
1857.85	0.957
1866.57	0.957
1875.29	0.938
1884.01	0.948
1892.73	0.956
1901.45	0.965
1910.17	0.969
1918.9	0.972
1927.62	0.971
1936.34	0.965
1945.06	0.928
1953.78	0.935
1962.5	0.948
1971.22	0.964
1979.94	0.969
1988.66	0.968
1997.38	0.953
2006.1	0.965
2014.83	0.965
2023.55	0.9659
2032.27	0.967
2040.99	0.968
2049.71	0.968
2058.43	0.9684
2067.15	0.971
2075.87	0.971
2084.59	0.9767
2093.31	0.975
2102.03	0.972
2110.76	0.969
2119.48	0.969
2128.2	0.968
2136.92	0.968
2145.64	0.968
2154.36	0.968
2163.08	0.967
2171.8	0.965
2180.52	0.968
2189.24	0.968
2197.96	0.968
2206.69	0.968
2215.41	0.9679
2224.13	0.9669
2232.85	0.965
2241.57	0.964
2250.29	0.961
2259.01	0.957
2267.73	0.954
2276.45	0.954
2285.17	0.952
2293.9	0.946
2302.62	0.9489
2311.34	0.9518
2320.06	0.953
2328.78	0.956
2337.5	0.9587
2346.22	0.9608
2354.94	0.9638
2363.66	0.967
2372.38	0.9706
2381.1	0.9695
2389.83	0.967
2398.55	0.9633
2407.27	0.961
2415.99	0.96
2424.71	0.961
2433.43	0.9637
2442.15	0.965
2450.87	0.965
2459.59	0.965
2468.31	0.965
2477.03	0.9634
2485.76	0.961
2494.48	0.961
2503.2	0.963
2511.92	0.963
2520.64	0.963
2529.36	0.963
2538.08	0.963
2546.8	0.963
2555.52	0.961
2564.24	0.96
2572.96	0.959
2581.69	0.957
2590.41	0.956
2599.13	0.9536
2607.85	0.9403
2616.57	0.939
2625.29	0.942
2634.01	0.942
2642.73	0.941
2651.45	0.938
2660.17	0.934
2668.9	0.9278
2677.62	0.9158
2686.34	0.9004
2695.06	0.871
2703.78	0.8374
2712.5	0.8313
2721.22	0.8371
2729.94	0.8407
2738.66	0.8297
2747.38	0.791
2756.1	0.6681
2764.83	0.5464
2773.55	0.4887
2782.27	0.3929
2790.99	0.311
2799.71	0.3228
2808.43	0.4212
2817.15	0.4786
2825.87	0.5094
2834.59	0.5398
2843.31	0.4402
2852.03	0.4748
2860.76	0.6059
2869.48	0.5563
2878.2	0.2472
2886.92	0.3068
2895.64	0.514
2904.36	0.5484
2913.08	0.4578
2921.8	0.4003
2930.52	0.3965
2939.24	0.3398
2947.97	0.2247
2956.69	0.1673
2965.41	0.1463
2974.13	0.2038
2982.85	0.2718
2991.57	0.363
3000.29	0.5282
3009.01	0.6766
3017.73	0.7436
3026.45	0.618
3035.17	0.5577
3043.9	0.7306
3052.62	0.7945
3061.34	0.7429
3070.06	0.6705
3078.78	0.7933
3087.5	0.7206
3096.22	0.8277
3104.94	0.8608
3113.66	0.8666
3122.38	0.8911
3131.1	0.9033
3139.83	0.905
3148.55	0.911
3157.27	0.911
3165.99	0.9105
3174.71	0.909
3183.43	0.912
3192.15	0.915
3200.87	0.918
3209.59	0.9204
3218.31	0.9232
3227.03	0.9262
3235.76	0.9283
3244.48	0.931
3253.2	0.933
3261.92	0.933
3270.64	0.934
3279.36	0.935
3288.08	0.935
3296.8	0.935
3305.52	0.935
3314.24	0.935
3322.97	0.934
3331.69	0.934
3340.41	0.934
3349.13	0.933
3357.85	0.931
3366.57	0.93
3375.29	0.93
3384.01	0.928
3392.73	0.9272
3401.45	0.926
3410.17	0.924
3418.9	0.923
3427.62	0.922
3436.34	0.92
3445.06	0.915
3453.78	0.911
3462.5	0.8989
3471.22	0.8862
3479.94	0.8783
3488.66	0.8897
3497.38	0.9026
3506.1	0.9109
3514.83	0.913
3523.55	0.913
3532.27	0.913
3540.99	0.9156
3549.71	0.919
3558.43	0.919
3567.15	0.919
3575.87	0.919
3584.59	0.919
3593.31	0.9209
3602.03	0.9269
3610.76	0.928
3619.48	0.927
3628.2	0.924
3636.92	0.924
3645.64	0.923
3654.36	0.923
3663.08	0.923
3671.8	0.9214
3680.52	0.9214
3689.24	0.9187
3697.97	0.916
3706.69	0.919
3715.41	0.922
3724.13	0.9232
3732.85	0.926
3741.57	0.926
3750.29	0.926
3759.01	0.924
3767.73	0.923
3776.45	0.924
3785.17	0.924
3793.9	0.922
