Infrared Spectrum: 4,5-Methylenedioxy-2-nitrobenzaldehyde
Formula: C 8 H 5 N O 5
CAS: 712-97-0
State: gas
Origin: EPA-IR VAPOR PHASE LIBRARY
1/CM	ABSORBANCE
549.8	0.002079
559.445	0.002319
569.09	0.002049
578.734	0.002189
588.379	0.002139
598.024	0.002439
607.669	0.002759
617.313	0.002419
626.958	0.002199
636.603	0.001759
646.248	0.001719
655.893	0.001919
665.537	0.002079
675.182	0.002499
684.827	0.003379
694.472	0.003049
704.116	0.001699
713.761	0.002639
723.406	0.003909
733.051	0.003029
742.695	0.002599
752.34	0.003639
761.985	0.003069
771.63	0.003319
781.275	0.004909
790.919	0.004899
800.564	0.005229
810.209	0.010519
819.854	0.013999
829.498	0.008209
839.143	0.003429
848.788	0.002809
858.433	0.004379
868.078	0.007909
877.722	0.009979
887.367	0.011449
897.012	0.006089
906.657	0.002999
916.301	0.003389
925.946	0.007269
935.591	0.013909
945.236	0.013479
954.88	0.006079
964.525	0.002869
974.17	0.002789
983.815	0.003089
993.46	0.004809
1003.1	0.008919
1012.75	0.013899
1022.39	0.017719
1032.04	0.025479
1041.68	0.034899
1051.33	0.032789
1060.97	0.020489
1070.62	0.008959
1080.26	0.004009
1089.91	0.003319
1099.55	0.003769
1109.2	0.006479
1118.84	0.010269
1128.49	0.007789
1138.13	0.003899
1147.78	0.002389
1157.42	0.002809
1167.07	0.003389
1176.71	0.002609
1186.36	0.002289
1196	0.002619
1205.64	0.004739
1215.29	0.006359
1224.93	0.007129
1234.58	0.010829
1244.22	0.028649
1253.87	0.082069
1263.51	0.112259
1273.16	0.046299
1282.8	0.012289
1292.45	0.006779
1302.09	0.006469
1311.74	0.009709
1321.38	0.017949
1331.03	0.028379
1340.67	0.030269
1350.32	0.030509
1359.96	0.034569
1369.61	0.027619
1379.25	0.018239
1388.9	0.019329
1398.54	0.026569
1408.18	0.030389
1417.83	0.035119
1427.47	0.025659
1437.12	0.011549
1446.76	0.010639
1456.41	0.016709
1466.05	0.034949
1475.7	0.083609
1485.34	0.084309
1494.99	0.029789
1504.63	0.026619
1514.28	0.029419
1523.92	0.024779
1533.57	0.035359
1543.21	0.050389
1552.86	0.047349
1562.5	0.028919
1572.15	0.018339
1581.79	0.012959
1591.44	0.010559
1601.08	0.012329
1610.73	0.012749
1620.37	0.008559
1630.01	0.005569
1639.66	0.003929
1649.3	0.003489
1658.95	0.003629
1668.59	0.004089
1678.24	0.005309
1687.88	0.008829
1697.53	0.025609
1707.17	0.064649
1716.82	0.050669
1726.46	0.012529
1736.11	0.006919
1745.75	0.004499
1755.4	0.003619
1765.04	0.003129
1774.69	0.002799
1784.33	0.002249
1793.98	0.001839
1803.62	0.001539
1813.27	0.001419
1822.91	0.001285
1832.55	0.0012376
1842.2	0.0012773
1851.84	0.001369
1861.49	0.001529
1871.13	0.001709
1880.78	0.001489
1890.42	0.0011369
1900.07	0.0007748
1909.71	0.0008179
1919.36	0.0007287
1929	0.0007674
1938.65	0.0007841
1948.29	0.0009424
1957.94	0.0009939
1967.58	0.0008968
1977.23	0.0009498
1986.87	0.0009927
1996.52	0.0010426
2006.16	0.0008641
2015.81	0.0009836
2025.45	0.0010699
2035.1	0.0011058
2044.74	0.0010071
2054.38	0.0009256
2064.03	0.0009361
2073.67	0.0010518
2083.32	0.0009727
2092.96	0.0008548
2102.61	0.0007333
2112.25	0.0007387
2121.9	0.0008378
2131.54	0.0009899
2141.19	0.0008043
2150.83	0.0006995
2160.48	0.0006083
2170.12	0.0005522
2179.77	0.0005457
2189.41	0.0004432
2199.06	0.0006095
2208.7	0.0006311
2218.35	0.0004746
2227.99	0.0005478
2237.64	0.0005721
2247.28	0.0006096
2256.92	0.0005664
2266.57	0.0005625
2276.21	0.0007653
2285.86	0.0007654
2295.5	0.0007664
2305.15	0.0007014
2314.79	0.0007088
2324.44	0.0007631
2334.08	0.00083
2343.73	0.0009116
2353.37	0.0009582
2363.02	0.0008228
2372.66	0.0009276
2382.31	0.0008691
2391.95	0.0007234
2401.6	0.0006579
2411.24	0.0006561
2420.89	0.0005921
2430.53	0.000562
2440.18	0.0005327
2449.82	0.0005433
2459.47	0.0004983
2469.11	0.0005791
2478.75	0.0004801
2488.4	0.0005953
2498.04	0.0005103
2507.69	0.0004983
2517.33	0.000607
2526.98	0.0006295
2536.62	0.0005484
2546.27	0.0006913
2555.91	0.0007098
2565.56	0.0006715
2575.2	0.0007766
2584.85	0.0009953
2594.49	0.0012555
2604.14	0.001369
2613.78	0.001729
2623.43	0.001689
2633.07	0.001509
2642.72	0.001419
2652.36	0.001349
2662.01	0.001319
2671.65	0.001489
2681.29	0.001619
2690.94	0.001579
2700.58	0.001489
2710.23	0.001499
2719.87	0.001439
2729.52	0.001739
2739.16	0.001949
2748.81	0.002099
2758.45	0.002119
2768.1	0.002969
2777.74	0.003659
2787.39	0.003469
2797.03	0.002959
2806.68	0.002839
2816.32	0.002999
2825.97	0.003329
2835.61	0.003709
2845.26	0.003869
2854.9	0.004409
2864.55	0.005299
2874.19	0.007029
2883.84	0.009399
2893.48	0.011979
2903.12	0.012919
2912.77	0.011859
2922.41	0.011149
2932.06	0.010179
2941.7	0.007789
2951.35	0.006189
2960.99	0.006139
2970.64	0.006199
2980.28	0.004929
2989.93	0.003969
2999.57	0.003189
3009.22	0.003209
3018.86	0.004079
3028.51	0.003779
3038.15	0.002129
3047.8	0.001609
3057.44	0.001749
3067.09	0.001899
3076.73	0.001809
3086.38	0.001869
3096.02	0.002279
3105.67	0.002279
3115.31	0.002129
3124.95	0.001429
3134.6	0.001027
3144.24	0.0007006
3153.89	0.0006343
3163.53	0.00032231
3173.18	0.00039179
3182.82	0.00035924
3192.47	0.00015
3202.11	0.00033291
3211.76	0.000539
3221.4	0.00034926
3231.05	0.0007327
3240.69	0.0005153
3250.34	0.00034832
3259.98	0.00040691
3269.63	0.0002411
3279.27	0.00038644
3288.92	0.00033107
3298.56	0.0004186
3308.21	0.000129
3317.85	0.0004719
3327.49	0.00035102
3337.14	0.0002433
3346.78	0.0005877
3356.43	0.00058
3366.07	0.0005855
3375.72	0.000674
3385.36	0.0009082
3395.01	0.001589
3404.65	0.001449
3414.3	0.0007048
3423.94	0.0006534
3433.59	0.0005861
3443.23	0.0004242
3452.88	0.00038854
3462.52	0.000162
3472.17	0.0004401
3481.81	0.00030586
3491.46	0.000309083
3501.1	0.0002837
3510.75	0.00036384
3520.39	0.00033139
3530.04	0.0003563
3539.68	0.000147
3549.32	0.00014
3558.97	0.000111
3568.61	0.00038568
3578.26	0.000339
3587.9	0.00030013
3597.55	0.0002838
3607.19	0.00032027
3616.84	0.0002629
3626.48	0.00034581
3636.13	5.2e-05
3645.77	0.0002985
3655.42	0.0002239
3665.06	0.00034562
3674.71	0.0005344
3684.35	0.0002328
3694	0.000123
3703.64	0.0002312
3713.29	0.0002143
3722.93	0.00040694
3732.58	0.0002543
3742.22	0.000115
3751.86	4.3e-05
3761.51	8.5e-05
3771.15	0.0002988
3780.8	0.0002
3790.44	0.000208
3800.09	0.0004415
3809.73	0.000179
3819.38	0.000118
3829.02	0.000196
3838.67	0.0004098
3848.31	0.00012
3857.96	0.0004668
3867.6	0.0005323
3877.25	0.0002122
3886.89	0.0002138
3896.54	0.00036802
3906.18	0.000196
3915.83	0.0002938
3925.47	0.0002725
3935.12	0.0002096
3944.76	0.0004765
3954.41	0.00038128
3964.05	0.0005247
3973.69	0.0006142
3983.34	0.00038847
3992.98	0.0007123
