Infrared Spectrum: 1,2,4,5-Tetracyanobenzene
Formula: C 10 H 2 N 4
CAS: 712-74-3
State: gas
Origin: EPA-IR VAPOR PHASE LIBRARY
1/CM	ABSORBANCE
549.8	0.0011975
559.445	0.0012574
569.09	0.0012854
578.734	0.0011163
588.379	0.0010261
598.024	0.000947
607.669	0.0014004
617.313	0.0014856
626.958	0.0015513
636.603	0.0012511
646.248	0.0011652
655.893	0.0008792
665.537	0.0015738
675.182	0.001899
684.827	0.001438
694.472	0.0011068
704.116	0.0013217
713.761	0.0010484
723.406	0.0010369
733.051	0.0012865
742.695	0.001899
752.34	0.003029
761.985	0.001869
771.63	0.0010476
781.275	0.0012506
790.919	0.002359
800.564	0.002559
810.209	0.001779
819.854	0.0014067
829.498	0.0015546
839.143	0.001769
848.788	0.0012941
858.433	0.0009769
868.078	0.001091
877.722	0.0014799
887.367	0.002199
897.012	0.004319
906.657	0.012379
916.301	0.016689
925.946	0.006779
935.591	0.002019
945.236	0.0011204
954.88	0.0010529
964.525	0.0012938
974.17	0.0011846
983.815	0.0010458
993.46	0.0007315
1003.1	0.0006812
1012.75	0.000507
1022.39	0.000599
1032.04	0.000679
1041.68	0.000588
1051.33	0.000911
1060.97	0.00077498
1070.62	0.000615
1080.26	0.000573
1089.91	0.0007214
1099.55	0.000667
1109.2	0.000231
1118.84	0.000565
1128.49	0.0013129
1138.13	0.0011219
1147.78	0.0011482
1157.42	0.0011952
1167.07	0.0016097
1176.71	0.0017552
1186.36	0.0011973
1196	0.00083096
1205.64	0.000591
1215.29	0.00083487
1224.93	0.001859
1234.58	0.003019
1244.22	0.003769
1253.87	0.003769
1263.51	0.005999
1273.16	0.002919
1282.8	0.0011643
1292.45	0.0010832
1302.09	0.0008979
1311.74	0.00084743
1321.38	0.0007421
1331.03	0.0007604
1340.67	0.00082603
1350.32	0.0011046
1359.96	0.0014054
1369.61	0.002469
1379.25	0.002699
1388.9	0.0013217
1398.54	0.00087426
1408.18	0.0009719
1417.83	0.0012496
1427.47	0.0013152
1437.12	0.0009543
1446.76	0.0013973
1456.41	0.0016571
1466.05	0.002339
1475.7	0.006849
1485.34	0.017009
1494.99	0.011429
1504.63	0.002119
1514.28	0.0012759
1523.92	0.000989
1533.57	0.0009439
1543.21	0.00086818
1552.86	0.000783741
1562.5	0.0008634
1572.15	0.00084239
1581.79	0.0009381
1591.44	0.000937
1601.08	0.00082748
1610.73	0.00085312
1620.37	0.000671
1630.01	0.0007585
1639.66	0.0007485
1649.3	0.000956
1658.95	0.0009368
1668.59	0.0007207
1678.24	0.0007307
1687.88	0.000613
1697.53	0.000628
1707.17	0.000671
1716.82	0.000608
1726.46	0.00061
1736.11	0.000663
1745.75	0.0007687
1755.4	0.00082694
1765.04	0.0011887
1774.69	0.0014832
1784.33	0.0010749
1793.98	0.0011251
1803.62	0.001909
1813.27	0.002679
1822.91	0.002069
1832.55	0.0010864
1842.2	0.00084971
1851.84	0.00083025
1861.49	0.00084502
1871.13	0.0007086
1880.78	0.00077715
1890.42	0.00080385
1900.07	0.00080726
1909.71	0.0007389
1919.36	0.0006864
1929	0.000779944
1938.65	0.00080926
1948.29	0.0007335
1957.94	0.0007669
1967.58	0.000768
1977.23	0.0007671
1986.87	0.0008518
1996.52	0.0007434
2006.16	0.0007731
2015.81	0.00082182
2025.45	0.00077274
2035.1	0.00087509
2044.74	0.000788884
2054.38	0.0008852
2064.03	0.0008082
2073.67	0.00077398
2083.32	0.00081959
2092.96	0.0007394
2102.61	0.00081481
2112.25	0.00087277
2121.9	0.0009723
2131.54	0.00086677
2141.19	0.00082486
2150.83	0.0008979
2160.48	0.00084699
2170.12	0.0008906
2179.77	0.00086875
2189.41	0.0009153
2199.06	0.001115
2208.7	0.0014257
2218.35	0.0015318
2227.99	0.002399
2237.64	0.005459
2247.28	0.004889
2256.92	0.0014507
2266.57	0.00081452
2276.21	0.00080853
2285.86	0.00079596
2295.5	0.00085702
2305.15	0.0008807
2314.79	0.0007141
2324.44	0.00080545
2334.08	0.00087614
2343.73	0.0011249
2353.37	0.0011387
2363.02	0.0008948
2372.66	0.00083284
2382.31	0.0008421
2391.95	0.00078751
2401.6	0.000784163
2411.24	0.0007638
2420.89	0.00080975
2430.53	0.000993
2440.18	0.0011671
2449.82	0.0010945
2459.47	0.0009246
2469.11	0.00084414
2478.75	0.0007649
2488.4	0.0006797
2498.04	0.0007516
2507.69	0.00078909
2517.33	0.0006839
2526.98	0.0007406
2536.62	0.0007364
2546.27	0.0007051
2555.91	0.0007432
2565.56	0.00085453
2575.2	0.00078552
2584.85	0.000778204
2594.49	0.00077709
2604.14	0.00084692
2613.78	0.0007538
2623.43	0.0007288
2633.07	0.00083885
2642.72	0.0007516
2652.36	0.000591
2662.01	0.0007311
2671.65	0.0007538
2681.29	0.00080278
2690.94	0.00086641
2700.58	0.0009008
2710.23	0.0009092
2719.87	0.00087331
2729.52	0.0009354
2739.16	0.0011539
2748.81	0.0010741
2758.45	0.0009327
2768.1	0.0009143
2777.74	0.0007314
2787.39	0.00080187
2797.03	0.00077081
2806.68	0.0007287
2816.32	0.00077104
2825.97	0.000645
2835.61	0.00066
2845.26	0.00067
2854.9	0.00081505
2864.55	0.0006822
2874.19	0.0007631
2883.84	0.0007189
2893.48	0.0007338
2903.12	0.00077291
2912.77	0.00082412
2922.41	0.0007295
2932.06	0.00085027
2941.7	0.0007296
2951.35	0.00080664
2960.99	0.0009549
2970.64	0.0008818
2980.28	0.0007553
2989.93	0.0007222
2999.57	0.00077727
3009.22	0.0007365
3018.86	0.0008969
3028.51	0.0008464
3038.15	0.0011346
3047.8	0.0015546
3057.44	0.0014791
3067.09	0.001152
3076.73	0.00081942
3086.38	0.0010165
3096.02	0.0011137
3105.67	0.0015713
3115.31	0.0017047
3124.95	0.0010281
3134.6	0.0009056
3144.24	0.000537
3153.89	0.000643
3163.53	0.000652
3173.18	0.000637
3182.82	0.000556
3192.47	0.000647
3202.11	0.000637
3211.76	0.000638
3221.4	0.000654
3231.05	0.00063
3240.69	0.000502
3250.34	0.0007173
3259.98	0.000626
3269.63	0.000597
3279.27	0.00064
3288.92	0.0007078
3298.56	0.0006902
3308.21	0.0007531
3317.85	0.0007286
3327.49	0.0006834
3337.14	0.000636
3346.78	0.0007154
3356.43	0.000633
3366.07	0.0007684
3375.72	0.000626
3385.36	0.000614
3395.01	0.000614
3404.65	0.00079663
3414.3	0.00084492
3423.94	0.0007175
3433.59	0.0007567
3443.23	0.0007134
3452.88	0.000715
3462.52	0.000669
3472.17	0.00082344
3481.81	0.0009285
3491.46	0.0007616
3501.1	0.000625
3510.75	0.000639
3520.39	0.0007589
3530.04	0.000629
3539.68	0.000557
3549.32	0.00077417
3558.97	0.000602
3568.61	0.000451
3578.26	0.0007523
3587.9	0.000674
3597.55	0.000783141
3607.19	0.000629
3616.84	0.0006936
3626.48	0.0007021
3636.13	0.0006975
3645.77	0.000739
3655.42	0.0007156
3665.06	0.0007642
3674.71	0.00058
3684.35	0.0007664
3694	0.0006879
3703.64	0.0007203
3713.29	0.0007523
3722.93	0.00080204
3732.58	0.0007258
3742.22	0.000514
3751.86	0.0007684
3761.51	0.00085774
3771.15	0.00080709
3780.8	0.0007966
3790.44	0.0007247
3800.09	0.0007441
3809.73	0.00079852
3819.38	0.00081463
3829.02	0.0007142
3838.67	0.000611
3848.31	0.0006876
3857.96	0.0006972
3867.6	0.0007006
3877.25	0.0007486
3886.89	0.000535
3896.54	0.0007659
3906.18	0.0006814
3915.83	0.000524
3925.47	0.000615
3935.12	0.00081517
3944.76	0.000475
3954.41	0.000676
3964.05	0.000612
3973.69	0.000632
3983.34	0.0007272
3992.98	0.0007172
