Infrared Spectrum: Alpha,Alpha,Alpha-TRIFLUORO-4'-NITROANISOLE
Formula: C7 H4 F3 N O3
CAS: 713-65-5
State: SOLUTION (10% CCl4 FOR 3800-1330, 10% CS2 FOR 1330-400 CM^-^1)
Class: COBLENTZ III
Instrument: DOW KBr FOREPRISM-GRATING
Instrument parameters: BLAZED AT 3.5, 12.0, 20.0 MICRON AND CHANGED AT 5.0, 7.5, 14.9 MICRON
Sampling: TRANSMISSION
Path length: 0.011 CM, 0.011 CM
Resolution: 2
Origin: DOW CHEMICAL COMPANY
1/CM	TRANSMITTANCE
398.83	0.347
407.608	0.434
416.387	0.652
425.165	0.69
433.943	0.694
442.722	0.706
451.5	0.727
460.278	0.856
469.057	0.878
477.835	0.884
486.614	0.852
495.392	0.73
504.17	0.832
512.949	0.904
521.727	0.904
530.505	0.894
539.284	0.884
548.062	0.838
556.84	0.908
565.619	0.956
574.397	0.972
583.175	0.971
591.954	0.963
600.732	0.952
609.51	0.894
618.289	0.906
627.067	0.912
635.846	0.904
644.624	0.878
653.402	0.819
662.181	0.812
670.959	0.71
679.737	0.665
688.516	0.845
697.294	0.812
706.072	0.583
714.851	0.484
723.629	0.798
732.407	0.876
741.186	0.867
749.964	0.7519
758.743	0.538
767.521	0.932
776.299	0.924
785.078	0.916
793.856	0.957
802.634	0.939
811.413	0.875
820.191	0.88
828.969	0.893
837.748	0.794
846.526	0.731
855.304	0.202
864.083	0.249
872.861	0.389
881.639	0.753
890.418	0.894
899.196	0.942
907.975	0.947
916.753	0.942
925.531	0.854
934.31	0.808
943.088	0.923
951.866	0.91
960.645	0.908
969.423	0.927
978.201	0.942
986.98	0.958
995.758	0.958
1004.54	0.95
1013.31	0.843
1022.09	0.946
1030.87	0.949
1039.65	0.946
1048.43	0.947
1057.21	0.941
1065.98	0.927
1074.76	0.904
1083.54	0.883
1092.32	0.787
1101.1	0.719
1109.88	0.547
1118.66	0.6541
1127.43	0.776
1136.21	0.726
1144.99	0.59
1153.77	0.386
1162.55	0.058
1171.33	0.004
1180.1	0
1188.88	0.006
1197.66	0
1206.44	0
1215.22	0.002
1224	0
1232.77	0.05
1241.55	0.057
1250.33	0.005
1259.11	0.004
1267.89	0.005
1276.67	0.043
1285.44	0.239
1294.22	0.313
1303	0.132
1311.78	0.3501
1320.56	0.515
1329.34	0.4801
1338.11	0.468
1346.89	0.1559
1355.67	0.009
1364.45	0.1721
1373.23	0.5211
1382.01	0.701
1390.78	0.778
1399.56	0.772
1408.34	0.795
1417.12	0.742
1425.9	0.743
1434.68	0.779
1443.45	0.865
1452.23	0.85
1461.01	0.846
1469.79	0.843
1478.57	0.824
1487.35	0.721
1496.12	0.2307
1504.9	0.3801
1513.68	0.505
1522.46	0.452
1531.24	0.0979
1540.02	0
1548.79	0.109
1557.57	0.246
1566.35	0.364
1575.13	0.465
1583.91	0.524
1592.69	0.482
1601.46	0.1969
1610.24	0.5041
1619.02	0.4489
1627.8	0.497
1636.58	0.83
1645.36	0.893
1654.13	0.92
1662.91	0.916
1671.69	0.912
1680.47	0.919
1689.25	0.917
1698.03	0.936
1706.8	0.938
1715.58	0.943
1724.36	0.945
1733.14	0.946
1741.92	0.956
1750.7	0.967
1759.47	0.969
1768.25	0.958
1777.03	0.938
1785.81	0.958
1794.59	0.98
1803.37	0.979
1812.14	0.979
1820.92	0.979
1829.7	0.984
1838.48	0.99
1847.26	0.987
1856.04	0.982
1864.82	0.99
1873.59	0.99
1882.37	0.99
1891.15	0.991
1899.93	0.986
1908.71	0.967
1917.49	0.893
1926.26	0.945
1935.04	0.986
1943.82	0.995
1952.6	1
1961.38	0.989
1970.16	0.98
1978.93	0.982
1987.71	0.986
1996.49	0.983
2005.27	0.982
2014.05	0.9801
2022.83	0.9732
2031.6	0.9562
2040.38	0.9883
2049.16	0.9939
2057.94	0.998
2066.72	1
2075.5	1
2084.27	1
2093.05	0.998
2101.83	0.9955
2110.61	0.994
2119.39	0.994
2128.17	0.993
2136.94	0.9917
2145.72	0.99
2154.5	0.9992
2163.28	1.008
2172.06	1.009
2180.84	1.0029
2189.61	0.993
2198.39	1.0015
2207.17	1.004
2215.95	1.004
2224.73	1.005
2233.51	1.005
2242.28	1.005
2251.06	1.0032
2259.84	0.9999
2268.62	0.9883
2277.4	0.983
2286.18	0.9787
2294.95	0.98
2303.73	0.9833
2312.51	0.986
2321.29	0.989
2330.07	0.987
2338.85	0.983
2347.62	0.9799
2356.4	0.973
2365.18	0.9679
2373.96	0.9628
2382.74	0.9559
2391.52	0.95
2400.29	0.942
2409.07	0.935
2417.85	0.9281
2426.63	0.924
2435.41	0.9309
2444.19	0.9311
2452.96	0.927
2461.74	0.9335
2470.52	0.9458
2479.3	0.9538
2488.08	0.9638
2496.86	0.968
2505.63	0.964
2514.41	0.963
2523.19	0.9637
2531.97	0.9677
2540.75	0.9757
2549.53	0.9737
2558.31	0.969
2567.08	0.9742
2575.86	0.978
2584.64	0.98
2593.42	0.98
2602.2	0.979
2610.98	0.978
2619.75	0.976
2628.53	0.9741
2637.31	0.9679
2646.09	0.9768
2654.87	0.978
2663.65	0.978
2672.42	0.9743
2681.2	0.9687
2689.98	0.965
2698.76	0.964
2707.54	0.969
2716.32	0.969
2725.09	0.971
2733.87	0.972
2742.65	0.971
2751.43	0.9688
2760.21	0.967
2768.99	0.964
2777.76	0.963
2786.54	0.965
2795.32	0.967
2804.1	0.967
2812.88	0.965
2821.66	0.964
2830.43	0.961
2839.21	0.9581
2847.99	0.9541
2856.77	0.9347
2865.55	0.8845
2874.33	0.8556
2883.1	0.9241
2891.88	0.9418
2900.66	0.947
2909.44	0.95
2918.22	0.9555
2927	0.9545
2935.77	0.9508
2944.55	0.9399
2953.33	0.9457
2962.11	0.95
2970.89	0.953
2979.67	0.956
2988.44	0.956
2997.22	0.956
3006	0.9551
3014.78	0.956
3023.56	0.956
3032.34	0.956
3041.11	0.9535
3049.89	0.9453
3058.67	0.93
3067.45	0.931
3076.23	0.9208
3085.01	0.8845
3093.78	0.803
3102.56	0.8494
3111.34	0.8867
3120.12	0.866
3128.9	0.83
3137.68	0.9036
3146.45	0.9316
3155.23	0.9452
3164.01	0.9492
3172.79	0.9531
3181.57	0.9614
3190.35	0.967
3199.12	0.9712
3207.9	0.975
3216.68	0.975
3225.46	0.973
3234.24	0.973
3243.02	0.98
3251.8	0.9859
3260.57	0.987
3269.35	0.99
3278.13	0.99
3286.91	0.99
3295.69	0.99
3304.47	0.9938
3313.24	0.997
3322.02	1
3330.8	1
3339.58	1
3348.36	1
3357.14	1
3365.91	1
3374.69	1.0006
3383.47	1.002
3392.25	1.006
3401.03	1.005
3409.81	1.005
3418.58	1.005
3427.36	1.004
3436.14	1.004
3444.92	1.004
3453.7	1.004
3462.48	1.0031
3471.25	1.004
3480.03	1.008
3488.81	1.008
3497.59	1.008
3506.37	1.006
3515.15	1.006
3523.92	1.006
3532.7	1.006
3541.48	1.006
3550.26	1.008
3559.04	1.009
3567.82	1.0092
3576.59	1.012
3585.37	1.012
3594.15	1.012
3602.93	1.012
3611.71	1.0121
3620.49	1.013
3629.26	1.015
3638.04	1.015
3646.82	1.013
3655.6	1.015
3664.38	1.015
3673.16	1.015
3681.93	1.013
3690.71	1.013
3699.49	1.015
3708.27	1.015
3717.05	1.0122
3725.83	1.0158
3734.6	1.016
3743.38	1.0135
3752.16	1.012
3760.94	1.0106
3769.72	1.012
3778.5	1.015
3787.27	1.015
3796.05	1.015
