Infrared Spectrum: 1-Chloro-7-phenylheptane
Formula: C 13 H 19 Cl
CAS: 71434-47-4
State: gas
Origin: EPA-IR VAPOR PHASE LIBRARY
1/CM	ABSORBANCE
549.8	0.001615
559.445	0.002785
569.09	0.004645
578.734	0.003165
588.379	0.002165
598.024	0.001495
607.669	0.001225
617.313	0.001425
626.958	0.002115
636.603	0.004125
646.248	0.006915
655.893	0.012945
665.537	0.015595
675.182	0.014715
684.827	0.022925
694.472	0.046675
704.116	0.040425
713.761	0.032965
723.406	0.036575
733.051	0.046125
742.695	0.044785
752.34	0.027045
761.985	0.016465
771.63	0.010325
781.275	0.007155
790.919	0.006175
800.564	0.005345
810.209	0.004815
819.854	0.004355
829.498	0.003575
839.143	0.003605
848.788	0.003525
858.433	0.003205
868.078	0.003205
877.722	0.003415
887.367	0.004075
897.012	0.004145
906.657	0.004555
916.301	0.003675
925.946	0.002955
935.591	0.002615
945.236	0.002565
954.88	0.002905
964.525	0.002505
974.17	0.002935
983.815	0.002625
993.46	0.003015
1003.1	0.003295
1012.75	0.004035
1022.39	0.006335
1032.04	0.009185
1041.68	0.004615
1051.33	0.004895
1060.97	0.004345
1070.62	0.003625
1080.26	0.003815
1089.91	0.003595
1099.55	0.002395
1109.2	0.001595
1118.84	0.001685
1128.49	0.001515
1138.13	0.001315
1147.78	0.001575
1157.42	0.001445
1167.07	0.001935
1176.71	0.002235
1186.36	0.002105
1196	0.002745
1205.64	0.003035
1215.29	0.002355
1224.93	0.003745
1234.58	0.004455
1244.22	0.005435
1253.87	0.007095
1263.51	0.008855
1273.16	0.010905
1282.8	0.013835
1292.45	0.016885
1302.09	0.016935
1311.74	0.015395
1321.38	0.012805
1331.03	0.010235
1340.67	0.009965
1350.32	0.011095
1359.96	0.009345
1369.61	0.007115
1379.25	0.004725
1388.9	0.003255
1398.54	0.002815
1408.18	0.003245
1417.83	0.004255
1427.47	0.007005
1437.12	0.013345
1446.76	0.025485
1456.41	0.029735
1466.05	0.021115
1475.7	0.011955
1485.34	0.011845
1494.99	0.023095
1504.63	0.011375
1514.28	0.003675
1523.92	0.002635
1533.57	0.002225
1543.21	0.001835
1552.86	0.001775
1562.5	0.001965
1572.15	0.002955
1581.79	0.004805
1591.44	0.007895
1601.08	0.011905
1610.73	0.007745
1620.37	0.002715
1630.01	0.001675
1639.66	0.001595
1649.3	0.001385
1658.95	0.001295
1668.59	0.0009689
1678.24	0.0009731
1687.88	0.0008714
1697.53	0.0009386
1707.17	0.001135
1716.82	0.001235
1726.46	0.001325
1736.11	0.001515
1745.75	0.001345
1755.4	0.001145
1765.04	0.001175
1774.69	0.001495
1784.33	0.002485
1793.98	0.003595
1803.62	0.002265
1813.27	0.001545
1822.91	0.001225
1832.55	0.001175
1842.2	0.001255
1851.84	0.001715
1861.49	0.002315
1871.13	0.002355
1880.78	0.002105
1890.42	0.001335
1900.07	0.00106
1909.71	0.001195
1919.36	0.001665
1929	0.002565
1938.65	0.003035
1948.29	0.003055
1957.94	0.001985
1967.58	0.0009059
1977.23	0.0007355
1986.87	0.000729
1996.52	0.0006161
2006.16	0.0006633
2015.81	0.0007291
2025.45	0.0007039
2035.1	0.0008253
2044.74	0.0008029
2054.38	0.0007726
2064.03	0.0006741
2073.67	0.0007676
2083.32	0.0007562
2092.96	0.0008112
2102.61	0.0007141
2112.25	0.0007058
2121.9	0.0006742
2131.54	0.0007088
2141.19	0.0005707
2150.83	0.000707
2160.48	0.0006915
2170.12	0.0008488
2179.77	0.0007509
2189.41	0.0007501
2199.06	0.0007983
2208.7	0.0007392
2218.35	0.0007273
2227.99	0.0007721
2237.64	0.0007904
2247.28	0.0006717
2256.92	0.0007526
2266.57	0.0007439
2276.21	0.0007505
2285.86	0.0008139
2295.5	0.0008464
2305.15	0.0010291
2314.79	0.0010501
2324.44	0.0008153
2334.08	0.0009388
2343.73	0.000977
2353.37	0.0009247
2363.02	0.0010247
2372.66	0.0007733
2382.31	0.0007676
2391.95	0.0006025
2401.6	0.0007782
2411.24	0.0006757
2420.89	0.0007313
2430.53	0.0007825
2440.18	0.0007167
2449.82	0.0005582
2459.47	0.0007139
2469.11	0.0007404
2478.75	0.0007373
2488.4	0.0006283
2498.04	0.0008977
2507.69	0.000828
2517.33	0.000941
2526.98	0.0009757
2536.62	0.0009043
2546.27	0.0009816
2555.91	0.0008536
2565.56	0.0009369
2575.2	0.00109
2584.85	0.001335
2594.49	0.001355
2604.14	0.001555
2613.78	0.001415
2623.43	0.001595
2633.07	0.001755
2642.72	0.001875
2652.36	0.002015
2662.01	0.002035
2671.65	0.002055
2681.29	0.002455
2690.94	0.002385
2700.58	0.002235
2710.23	0.002105
2719.87	0.002005
2729.52	0.002055
2739.16	0.002205
2748.81	0.002145
2758.45	0.002455
2768.1	0.002575
2777.74	0.003255
2787.39	0.003925
2797.03	0.004405
2806.68	0.005285
2816.32	0.006725
2825.97	0.008895
2835.61	0.012905
2845.26	0.022875
2854.9	0.048265
2864.55	0.074405
2874.19	0.059295
2883.84	0.039995
2893.48	0.037215
2903.12	0.049855
2912.77	0.072935
2922.41	0.116495
2932.06	0.178895
2941.7	0.186335
2951.35	0.111985
2960.99	0.066815
2970.64	0.041975
2980.28	0.025845
2989.93	0.023555
2999.57	0.027405
3009.22	0.021245
3018.86	0.025235
3028.51	0.040825
3038.15	0.036595
3047.8	0.020935
3057.44	0.022255
3067.09	0.036285
3076.73	0.030775
3086.38	0.021105
3096.02	0.014505
3105.67	0.009805
3115.31	0.006095
3124.95	0.003035
3134.6	0.002005
3144.24	0.001645
3153.89	0.001275
3163.53	0.001545
3173.18	0.0011167
3182.82	0.001001
3192.47	0.0007494
3202.11	0.0007161
3211.76	0.0008136
3221.4	0.0006019
3231.05	0.0005006
3240.69	0.0004919
3250.34	0.0006429
3259.98	0.0004163
3269.63	0.0006321
3279.27	0.0007726
3288.92	0.0005425
3298.56	0.0005961
3308.21	0.0006172
3317.85	0.0003754
3327.49	0.0004749
3337.14	0.0005383
3346.78	0.0004318
3356.43	0.000494
3366.07	0.0002651
3375.72	0.0005058
3385.36	0.0005144
3395.01	0.0003174
3404.65	0.0003562
3414.3	0.0003138
3423.94	0.0004384
3433.59	0.0002436
3443.23	0.0004905
3452.88	0.0003103
3462.52	0.00021096
3472.17	0.0005541
3481.81	0.0004264
3491.46	0.0006137
3501.1	0.0004518
3510.75	0.00022181
3520.39	0.0003536
3530.04	0.0003497
3539.68	0.0005328
3549.32	0.000406
3558.97	0.0002408
3568.61	0.0005223
3578.26	0.0003504
3587.9	0.0005692
3597.55	0.0005586
3607.19	0.0005482
3616.84	0.0005901
3626.48	0.0006889
3636.13	0.0006421
3645.77	0.0006321
3655.42	0.0005851
3665.06	0.0006244
3674.71	0.0006226
3684.35	0.000648
3694	0.0008478
3703.64	0.0006088
3713.29	0.0007307
3722.93	0.000636
3732.58	0.0007162
3742.22	0.0008062
3751.86	0.0006026
3761.51	0.000923
3771.15	0.0008348
3780.8	0.0005953
3790.44	0.0009996
3800.09	0.0006373
3809.73	0.000774
3819.38	0.0009371
3829.02	0.0006342
3838.67	0.0008497
3848.31	0.0005082
3857.96	0.0008675
3867.6	0.0007393
3877.25	0.0008456
3886.89	0.0005334
3896.54	0.0007542
3906.18	0.000675
3915.83	0.000672
3925.47	0.0009267
3935.12	0.0011072
3944.76	0.0009136
3954.41	0.0007344
3964.05	0.0005691
3973.69	0.001225
3983.34	0.0009285
3992.98	0.001054
