Infrared Spectrum: 1-Chloro-6-phenylhexane
Formula: C 12 H 17 Cl
CAS: 71434-68-9
State: gas
Origin: EPA-IR VAPOR PHASE LIBRARY
1/CM	ABSORBANCE
549.8	0.0006
559.445	0.00112
569.09	0.00311
578.734	0.00242
588.379	0.00103
598.024	0.00118
607.669	0.00169
617.313	0.00207
626.958	0.00189
636.603	0.00363
646.248	0.00628
655.893	0.01205
665.537	0.01432
675.182	0.01439
684.827	0.02213
694.472	0.04326
704.116	0.03822
713.761	0.02952
723.406	0.03373
733.051	0.04527
742.695	0.04496
752.34	0.02449
761.985	0.01516
771.63	0.00942
781.275	0.00697
790.919	0.0055336
800.564	0.0050639
810.209	0.00483025
819.854	0.004081
829.498	0.004123
839.143	0.00381
848.788	0.00396
858.433	0.0037
868.078	0.0037
877.722	0.00375
887.367	0.00378
897.012	0.00379
906.657	0.0047709
916.301	0.004325
925.946	0.00365
935.591	0.00354
945.236	0.0033
954.88	0.00271
964.525	0.00308
974.17	0.00343
983.815	0.00314
993.46	0.00332
1003.1	0.00319
1012.75	0.003865
1022.39	0.00644
1032.04	0.00891
1041.68	0.00457
1051.33	0.0047223
1060.97	0.0047737
1070.62	0.004391
1080.26	0.004032
1089.91	0.00324
1099.55	0.00293
1109.2	0.00223
1118.84	0.00137
1128.49	0.00262
1138.13	0.00154
1147.78	0.00146
1157.42	0.00147
1167.07	0.00153
1176.71	0.00212
1186.36	0.00315
1196	0.00298
1205.64	0.00231
1215.29	0.00236
1224.93	0.00352
1234.58	0.0049655
1244.22	0.0053616
1253.87	0.00662
1263.51	0.00787
1273.16	0.01063
1282.8	0.01379
1292.45	0.01579
1302.09	0.01536
1311.74	0.01402
1321.38	0.01188
1331.03	0.00954
1340.67	0.00918
1350.32	0.00984
1359.96	0.00819
1369.61	0.00621
1379.25	0.004436
1388.9	0.00314
1398.54	0.00294
1408.18	0.00322
1417.83	0.004168
1427.47	0.00661
1437.12	0.01218
1446.76	0.02266
1456.41	0.02588
1466.05	0.01776
1475.7	0.0105
1485.34	0.01085
1494.99	0.02134
1504.63	0.01115
1514.28	0.00397
1523.92	0.00275
1533.57	0.00249
1543.21	0.00215
1552.86	0.00201
1562.5	0.00233
1572.15	0.00307
1581.79	0.004776
1591.44	0.00782
1601.08	0.01149
1610.73	0.00773
1620.37	0.00308
1630.01	0.00192
1639.66	0.00183
1649.3	0.00169
1658.95	0.00134
1668.59	0.00132
1678.24	0.00125
1687.88	0.00133
1697.53	0.00134
1707.17	0.00135
1716.82	0.00145
1726.46	0.00165
1736.11	0.00177
1745.75	0.00166
1755.4	0.00141
1765.04	0.00133
1774.69	0.00168
1784.33	0.00254
1793.98	0.00371
1803.62	0.00254
1813.27	0.00167
1822.91	0.00135
1832.55	0.00139
1842.2	0.00161
1851.84	0.00194
1861.49	0.00233
1871.13	0.00253
1880.78	0.00201
1890.42	0.00149
1900.07	0.00126
1909.71	0.00123
1919.36	0.0018
1929	0.00253
1938.65	0.00329
1948.29	0.00326
1957.94	0.00217
1967.58	0.00112
1977.23	0.00093
1986.87	0.00084
1996.52	0.001
2006.16	0.0009
2015.81	0.00095
2025.45	0.00085
2035.1	0.00097
2044.74	0.00085
2054.38	0.0008
2064.03	0.00088
2073.67	0.00072
2083.32	0.00083
2092.96	0.00079
2102.61	0.0008
2112.25	0.00086
2121.9	0.00087
2131.54	0.00086
2141.19	0.00078
2150.83	0.00089
2160.48	0.00078
2170.12	0.00089
2179.77	0.00101
2189.41	0.00105
2199.06	0.00085
2208.7	0.00083
2218.35	0.00076
2227.99	0.00094
2237.64	0.00069
2247.28	0.00079
2256.92	0.00067
2266.57	0.00077
2276.21	0.00065
2285.86	0.00103
2295.5	0.00092
2305.15	0.00115
2314.79	0.00112
2324.44	0.00104
2334.08	0.00105
2343.73	0.00084
2353.37	0.00106
2363.02	0.00109
2372.66	0.00094
2382.31	0.00074
2391.95	0.00078
2401.6	0.0008
2411.24	0.00085
2420.89	0.00071
2430.53	0.00057
2440.18	0.00091
2449.82	0.00066
2459.47	0.0008
2469.11	0.00075
2478.75	0.00057
2488.4	0.0007
2498.04	0.00072
2507.69	0.00084
2517.33	0.00092
2526.98	0.00107
2536.62	0.00078
2546.27	0.00098
2555.91	0.00077
2565.56	0.00096
2575.2	0.00089
2584.85	0.00103
2594.49	0.00111
2604.14	0.00116
2613.78	0.00123
2623.43	0.00145
2633.07	0.00152
2642.72	0.00162
2652.36	0.00159
2662.01	0.00177
2671.65	0.00174
2681.29	0.00186
2690.94	0.0018
2700.58	0.00176
2710.23	0.00174
2719.87	0.00173
2729.52	0.00152
2739.16	0.0018
2748.81	0.00162
2758.45	0.00189
2768.1	0.00222
2777.74	0.0027
2787.39	0.00302
2797.03	0.00332
2806.68	0.00378
2816.32	0.0050851
2825.97	0.00665
2835.61	0.00978
2845.26	0.01747
2854.9	0.03457
2864.55	0.05318
2874.19	0.04598
2883.84	0.03191
2893.48	0.02914
2903.12	0.03733
2912.77	0.05337
2922.41	0.08273
2932.06	0.12549
2941.7	0.14059
2951.35	0.09257
2960.99	0.057
2970.64	0.03647
2980.28	0.02189
2989.93	0.02051
2999.57	0.02453
3009.22	0.01912
3018.86	0.02286
3028.51	0.03689
3038.15	0.03386
3047.8	0.01928
3057.44	0.02041
3067.09	0.0334
3076.73	0.02892
3086.38	0.01943
3096.02	0.01368
3105.67	0.00914
3115.31	0.0055596
3124.95	0.00277
3134.6	0.0015
3144.24	0.00158
3153.89	0.00127
3163.53	0.00123
3173.18	0.00096
3182.82	0.00064
3192.47	0.00064
3202.11	0.00047
3211.76	0.00024
3221.4	0.00036
3231.05	0.00043
3240.69	0.00049
3250.34	0.00066
3259.98	0.00043
3269.63	0.00061
3279.27	0.00052
3288.92	0.00044
3298.56	0.00052
3308.21	0.0005
3317.85	0.00042
3327.49	0.00045
3337.14	0.0001
3346.78	0.00031
3356.43	0.00033
3366.07	0.00034
3375.72	0.00031
3385.36	0.0005
3395.01	0.00017
3404.65	0.00039
3414.3	0.00035
3423.94	0.0002
3433.59	0.00037
3443.23	0.00084
3452.88	0.0008
3462.52	0.00036
3472.17	0.00017
3481.81	0.00016
3491.46	0.00034
3501.1	0.00015
3510.75	0.00026
3520.39	0.00028
3530.04	0.00016
3539.68	0.0003
3549.32	0.00044
3558.97	0.00046
3568.61	0.00042
3578.26	0.00052
3587.9	0.00027
3597.55	0.0006
3607.19	3e-05
3616.84	0.00034
3626.48	0.00062
3636.13	0.00053
3645.77	0.00063
3655.42	0.00053
3665.06	0.00065
3674.71	0.00074
3684.35	0.00045
3694	0.00064
3703.64	0.00065
3713.29	0.00049
3722.93	0.00066
3732.58	0.00058
3742.22	0.00057
3751.86	0.00048
3761.51	0.00057
3771.15	0.00058
3780.8	0.00077
3790.44	0.00073
3800.09	0.00097
3809.73	0.00034
3819.38	0.00045
3829.02	0.00054
3838.67	0.0007
3848.31	0.00052
3857.96	0.00052
3867.6	0.00039
3877.25	0.00034
3886.89	0.00074
3896.54	0.00075
3906.18	0.00072
3915.83	0.00066
3925.47	0.00098
3935.12	0.00051
3944.76	0.00051
3954.41	0.00056
3964.05	0.00043
3973.69	0.00034
3983.34	0.00095
3992.98	0.00054
