Infrared Spectrum: Methanesulphonic anhydride
Formula: C 2 H 6 O 5 S 2
CAS: 7143-01-3
State: gas
Origin: EPA-IR VAPOR PHASE LIBRARY
1/CM	ABSORBANCE
549.8	0.030133
559.445	0.017663
569.09	0.009933
578.735	0.003963
588.38	0.002373
598.025	0.0018432
607.67	0.0016912
617.315	0.0018086
626.96	0.0018015
636.605	0.002013
646.251	0.002303
655.896	0.002623
665.541	0.003663
675.186	0.006163
684.831	0.014373
694.476	0.032743
704.121	0.054663
713.766	0.073693
723.411	0.066873
733.056	0.041373
742.701	0.017753
752.346	0.013113
761.991	0.023333
771.636	0.050613
781.281	0.093203
790.926	0.125933
800.571	0.128113
810.216	0.086133
819.861	0.037213
829.507	0.010533
839.152	0.005743
848.797	0.004073
858.442	0.003613
868.087	0.003533
877.732	0.003963
887.377	0.004593
897.022	0.005313
906.667	0.006473
916.312	0.008203
925.957	0.011333
935.602	0.018013
945.247	0.036263
954.892	0.078983
964.537	0.111973
974.182	0.128273
983.827	0.135763
993.472	0.138553
1003.12	0.172233
1012.76	0.194903
1022.41	0.171323
1032.05	0.107493
1041.7	0.050903
1051.34	0.026553
1060.99	0.017153
1070.63	0.012093
1080.28	0.009123
1089.92	0.007513
1099.57	0.006723
1109.21	0.006373
1118.86	0.006233
1128.5	0.006263
1138.15	0.007653
1147.79	0.013203
1157.44	0.032303
1167.08	0.080353
1176.73	0.142533
1186.37	0.193823
1196.02	0.150643
1205.66	0.105203
1215.31	0.036813
1224.95	0.011413
1234.6	0.007423
1244.24	0.006333
1253.89	0.005793
1263.53	0.005333
1273.18	0.005283
1282.82	0.005813
1292.47	0.007013
1302.11	0.010123
1311.76	0.016603
1321.4	0.025653
1331.05	0.039583
1340.69	0.055023
1350.34	0.091023
1359.98	0.141783
1369.63	0.214693
1379.27	0.238633
1388.92	0.231913
1398.56	0.158363
1408.21	0.093993
1417.85	0.044143
1427.5	0.025303
1437.14	0.018253
1446.79	0.013683
1456.43	0.011623
1466.08	0.010423
1475.73	0.009373
1485.37	0.008323
1495.02	0.007273
1504.66	0.006343
1514.31	0.005503
1523.95	0.004633
1533.6	0.003853
1543.24	0.003533
1552.89	0.003253
1562.53	0.003183
1572.18	0.003103
1581.82	0.002913
1591.47	0.002663
1601.11	0.002403
1610.76	0.002113
1620.4	0.0018416
1630.05	0.0015782
1639.69	0.0013408
1649.34	0.0013826
1658.98	0.0014151
1668.63	0.0016842
1678.27	0.001883
1687.92	0.002253
1697.56	0.002583
1707.21	0.002853
1716.85	0.003203
1726.5	0.003313
1736.14	0.002953
1745.79	0.002083
1755.43	0.0013232
1765.08	0.0009724
1774.72	0.0010094
1784.37	0.0010939
1794.01	0.001143
1803.66	0.0012454
1813.3	0.001266
1822.95	0.0010922
1832.59	0.000872591
1842.24	0.000753
1851.88	0.00073
1861.53	0.0007984
1871.17	0.00093907
1880.82	0.00094342
1890.46	0.0009961
1900.11	0.0009957
1909.75	0.0009861
1919.4	0.00085319
1929.04	0.0008442
1938.69	0.00087425
1948.33	0.0008455
1957.98	0.0010236
1967.62	0.0010713
1977.27	0.0011198
1986.91	0.0012155
1996.56	0.0012692
2006.2	0.0013366
2015.85	0.0013657
2025.49	0.0013141
2035.14	0.0012073
2044.78	0.0010973
2054.43	0.0008841
2064.07	0.000739
2073.72	0.000708
2083.36	0.0007689
2093.01	0.0007957
2102.65	0.00087106
2112.3	0.00096128
2121.94	0.0009798
2131.59	0.0009995
2141.23	0.0009907
2150.88	0.0009204
2160.52	0.000865827
2170.17	0.0008307
2179.81	0.000705
2189.46	0.000676
2199.1	0.000596
2208.75	0.000548
2218.39	0.000512
2228.04	0.000456
2237.68	0.0005
2247.33	0.000469
2256.97	0.000458
2266.62	0.000486
2276.26	0.000625
2285.91	0.0008459
2295.55	0.0009813
2305.2	0.00089163
2314.84	0.0008058
2324.49	0.000611
2334.13	0.000724
2343.78	0.00094186
2353.42	0.0011293
2363.07	0.001307
2372.72	0.0012134
2382.36	0.001076
2392.01	0.0008094
2401.65	0.000545
2411.3	0.000373
2420.94	0.0004
2430.59	0.000306
2440.23	0.00024
2449.88	0.000271
2459.52	0.00021
2469.17	0.000241
2478.81	0.000306
2488.46	0.00024
2498.1	0.000373
2507.75	0.000457
2517.39	0.000623
2527.04	0.00093625
2536.68	0.00131
2546.33	0.0016166
2555.97	0.001775
2565.62	0.0016986
2575.26	0.0014449
2584.91	0.0010132
2594.55	0.000717
2604.2	0.000551
2613.84	0.000638
2623.49	0.000597
2633.13	0.000681
2642.78	0.000625
2652.42	0.000473
2662.07	0.000356
2671.71	0.000219
2681.36	0.000215
2691	0.000158
2700.65	0.000223
2710.29	0.000159
2719.94	0.00021
2729.58	0.000203
2739.23	0.000194
2748.87	0.000302
2758.52	0.000286
2768.16	0.000328
2777.81	0.000332
2787.45	0.000351
2797.1	0.000558
2806.74	0.000745
2816.39	0.0011689
2826.03	0.001963
2835.68	0.003563
2845.32	0.005053
2854.97	0.005923
2864.61	0.005843
2874.26	0.004753
2883.9	0.004053
2893.55	0.004123
2903.19	0.004653
2912.84	0.005433
2922.48	0.005993
2932.13	0.007633
2941.77	0.012653
2951.42	0.022053
2961.06	0.026333
2970.71	0.025283
2980.35	0.020863
2990	0.011753
2999.64	0.009083
3009.29	0.009313
3018.93	0.009263
3028.58	0.008913
3038.22	0.008013
3047.87	0.006023
3057.51	0.004573
3067.16	0.003563
3076.8	0.002973
3086.45	0.002763
3096.09	0.002483
3105.74	0.002073
3115.38	0.0017587
3125.03	0.0015777
3134.67	0.0013043
3144.32	0.0010656
3153.96	0.00085708
3163.61	0.000552
3173.25	0.000375
3182.9	0.00025
3192.54	0.00019
3202.19	0.000251
3211.83	0.00016
3221.48	0.000125
3231.12	8.6e-05
3240.77	0.00017
3250.41	5.5e-05
3260.06	0.000338
3269.7	0.000129
3279.35	0.00018
3289	0.000164
3298.64	0.000144
3308.29	0.000192
3317.93	6.8e-05
3327.58	0.000112
3337.22	0.000169
3346.87	0.000259
3356.51	0.000184
3366.16	0.000335
3375.8	0.000338
3385.45	0.000311
3395.09	0.000194
3404.74	7.3e-05
3414.38	0.000294
3424.03	9e-05
3433.67	0.00011
3443.32	0.000206
3452.96	0.000339
3462.61	0.000162
3472.25	0.000321
3481.9	0.000198
3491.54	0.000158
3501.19	0.000132
3510.83	0.000217
3520.48	0.000176
3530.12	0.000209
3539.77	0.000378
3549.41	0.000182
3559.06	0.000297
3568.7	0.000218
3578.35	0.000298
3587.99	0.00033
3597.64	0.000284
3607.28	0.0002
3616.93	0.000336
3626.57	0.000369
3636.22	0.000277
3645.86	0.000349
3655.51	0.000401
3665.15	0.000476
3674.8	0.00038
3684.44	0.000273
3694.09	0.000361
3703.73	0.000344
3713.38	0.000327
3723.02	0.000524
3732.67	0.000357
3742.31	0.000512
3751.96	0.000497
3761.6	0.000528
3771.25	0.000264
3780.89	0.000406
3790.54	0.000343
3800.18	0.00049
3809.83	0.000579
3819.47	0.000621
3829.12	0.000737
3838.76	0.000688
3848.41	0.000642
3858.05	0.000615
3867.7	0.000583
3877.34	0.000523
3886.99	0.000557
3896.63	0.000683
3906.28	0.0008352
3915.92	0.00090756
3925.57	0.00092382
3935.21	0.0007798
3944.86	0.000745
3954.5	0.0008404
3964.15	0.00089324
3973.79	0.0011074
3983.44	0.0013339
3993.08	0.0013562
