Infrared Spectrum: 4-(Aminomethyl)piperidine
Formula: C 6 H 14 N 2
CAS: 7144-05-0
State: gas
Instrument: HP-GC/MS/IRD
Origin: NIST Mass Spectrometry Data Center
1/CM	ABSORBANCE
550	0.0028435
562	0.0037788
574	0.0028012
586	0.0017249
598	0.0016638
610	0.0016121
622	0.0014147
634	0.0011703
646	0.001222
658	0.0016826
670	0.0023124
682	0.0032054
694	0.0046389
706	0.007097
718	0.011327
730	0.0162056
742	0.0184663
754	0.0172537
766	0.0130472
778	0.0089159
790	0.006956
802	0.0053909
814	0.0035861
826	0.0021197
838	0.0012737
850	0.0008789
862	0.0007708
874	0.0006956
886	0.000611
898	0.000517
910	0.0004371
922	0.0004042
934	0.0005311
946	0.0009353
958	0.0011609
970	0.0010763
982	0.0009541
994	0.0012549
1006	0.0016638
1018	0.0017343
1030	0.002444
1042	0.0029281
1054	0.0024205
1066	0.0018001
1078	0.0017531
1090	0.0026508
1102	0.0035579
1114	0.003337
1126	0.0031913
1138	0.0035203
1150	0.0030597
1162	0.0016732
1174	0.0007567
1186	0.0004183
1198	0.0002914
1210	0.0002303
1222	0.0003525
1234	0.000423
1246	0.0006533
1258	0.0009917
1270	0.0009964
1282	0.0008319
1294	0.0010293
1306	0.0022466
1318	0.0038869
1330	0.0039339
1342	0.0021761
1354	0.0020351
1366	0.0023829
1378	0.0025944
1390	0.002162
1402	0.0011891
1414	0.0011374
1426	0.0024769
1438	0.0039762
1450	0.0045355
1462	0.0036002
1474	0.0021244
1486	0.0007285
1498	0.0001692
1510	4.7e-05
1522	9.4e-06
1534	3.76e-05
1546	9.4e-05
1558	0.000141
1570	0.0003008
1582	0.0005546
1594	0.0010434
1606	0.002021
1618	0.0030973
1630	0.0028294
1642	0.001504
1654	0.0005922
1666	0.000235
1678	8.46e-05
1690	1.41e-05
1702	4.7e-06
1714	4.7e-06
1726	2.35e-05
1738	1.41e-05
1750	1.41e-05
1762	4.7e-05
1774	7.05e-05
1786	0.0001269
1798	0.0001551
1810	0.000141
1822	0.0001504
1834	0.0001175
1846	0.0001128
1858	0.0001034
1870	0.0001269
1882	0.0001457
1894	0.0001598
1906	0.000141
1918	0.0001175
1930	0.0001034
1942	0.0001034
1954	9.4e-05
1966	0.0001316
1978	0.0001504
1990	0.0001645
2002	0.0001974
2014	0.0002491
2026	0.000282
2038	0.000282
2050	0.0002867
2062	0.0003102
2074	0.0003196
2086	0.0003384
2098	0.0003478
2110	0.0003572
2122	0.0003713
2134	0.0003995
2146	0.0003995
2158	0.0003995
2170	0.0004277
2182	0.000423
2194	0.0004136
2206	0.0004277
2218	0.0004277
2230	0.0004371
2242	0.0004512
2254	0.0004559
2266	0.0004183
2278	0.0004418
2290	0.0004277
2302	0.0004418
2314	0.0004512
2326	0.00047
2338	0.0004371
2350	0.000423
2362	0.0004747
2374	0.000423
2386	0.0004183
2398	0.0004371
2410	0.0004747
2422	0.0004512
2434	0.0004794
2446	0.0004747
2458	0.0004935
2470	0.0005264
2482	0.0005593
2494	0.0005076
2506	0.0005405
2518	0.000517
2530	0.0005546
2542	0.0005734
2554	0.0006439
2566	0.0007426
2578	0.0008178
2590	0.0009353
2602	0.001081
2614	0.0012925
2626	0.0015275
2638	0.0017531
2650	0.0016967
2662	0.0018518
2674	0.0021573
2686	0.0024628
2698	0.0026085
2710	0.0031819
2722	0.0047141
2734	0.0065283
2746	0.0062886
2758	0.0054144
2770	0.0061006
2782	0.0081874
2794	0.011233
2806	0.0147204
2818	0.014476
2830	0.012925
2842	0.0148567
2854	0.0186073
2866	0.0192371
2878	0.016779
2890	0.0168448
2902	0.0247502
2914	0.0382016
2926	0.0466475
2938	0.0450495
2950	0.033558
2962	0.0182736
2974	0.0056917
2986	0.0021291
2998	0.001363
3010	0.0010951
3022	0.00094
3034	0.0008178
3046	0.0007144
3058	0.0006251
3070	0.0005405
3082	0.0004888
3094	0.000564
3106	0.0005593
3118	0.0005546
3130	0.0005405
3142	0.0005828
3154	0.0006298
3166	0.0006345
3178	0.0006439
3190	0.0005593
3202	0.000517
3214	0.0005405
3226	0.0005452
3238	0.0005264
3250	0.0005358
3262	0.0005593
3274	0.0004935
3286	0.0004888
3298	0.0004747
3310	0.000517
3322	0.0005593
3334	0.000705
3346	0.0007661
3358	0.0007661
3370	0.0006392
3382	0.0006298
3394	0.0005546
3406	0.000564
3418	0.0005922
3430	0.000517
3442	0.0005029
3454	0.0004606
3466	0.0004606
3478	0.0004888
3490	0.0005029
3502	0.0004982
3514	0.0005076
3526	0.0004606
3538	0.0004465
3550	0.0005217
3562	0.0004559
3574	0.0004277
3586	0.0004512
3598	0.0004512
3610	0.0005123
3622	0.000517
3634	0.0004794
3646	0.0004606
3658	0.0004653
3670	0.0005499
3682	0.0005029
3694	0.0005452
3706	0.0004935
3718	0.0005264
3730	0.0005311
3742	0.000517
3754	0.0004935
3766	0.0005593
3778	0.0005405
3790	0.0005687
3802	0.0005781
3814	0.0005546
3826	0.0005922
3838	0.0005358
