Infrared Spectrum: Propane, 1-(2'-biphenyloxy)-2,3-epoxy-
Formula: C15 H14 O2
CAS: 7144-65-2
State: SOLUTION (10% CCl4 FOR 2.7-7.5, 10% CS2 FOR 7.5-26 MICRON) VS SOLVENT
Class: COBLENTZ III
Instrument: DOW KBr FOREPRISM-GRATING
Instrument parameters: BLAZED AT 3.5, 12.0, 20.0 MICRON AND CHANGED AT 5.0, 7.5, 14.9 MICRON
Sampling: TRANSMISSION
Path length: 0.011 CM, 0.011 CM
Resolution: 2
Origin: DOW CHEMICAL COMPANY
1/CM	TRANSMITTANCE
394	0.7558
403	0.7558
412	0.7553
421	0.7541
430	0.7534
439	0.7517
448	0.7486
457	0.7451
466	0.7457
475	0.7474
484	0.7505
493	0.7545
502	0.7595
511	0.7606
520	0.7625
529	0.7771
538	0.7761
547	0.7595
556	0.7292
565	0.6732
574	0.7834
583	0.7618
592	0.7441
601	0.7692
610	0.6731
619	0.7986
628	0.8068
637	0.8192
646	0.821
655	0.8266
664	0.7997
673	0.7998
682	0.7518
691	0.2892
700	0.1864
709	0.7175
718	0.6238
727	0.2901
736	0.2469
745	0.0943
754	0.1633
763	0.3937
772	0.3197
781	0.74
790	0.7346
799	0.7171
808	0.7371
817	0.7136
826	0.5097
835	0.4098
844	0.4647
853	0.4845
862	0.5488
871	0.7744
880	0.7925
889	0.7874
898	0.7503
907	0.517
916	0.478
925	0.6811
934	0.6471
943	0.7332
952	0.6665
961	0.5908
970	0.5291
979	0.6833
988	0.6776
997	0.5612
1006	0.3422
1015	0.5387
1024	0.3884
1033	0.2778
1042	0.5508
1051	0.434
1060	0.5544
1069	0.5442
1078	0.5612
1087	0.7308
1096	0.7197
1105	0.6465
1114	0.5766
1123	0.2432
1132	0.5483
1141	0.7256
1150	0.6999
1159	0.6019
1168	0.6774
1177	0.6615
1186	0.6255
1195	0.609
1204	0.4926
1213	0.1949
1222	0.189
1231	0.1215
1240	0.2391
1249	0.2511
1258	0.1716
1267	0.1426
1276	0.3544
1285	0.5139
1294	0.509
1303	0.5633
1312	0.6753
1321	0.7393
1330	0.7256
1339	0.7181
1348	0.6998
1357	0.6747
1366	0.7467
1375	0.7544
1384	0.7222
1393	0.7496
1402	0.7415
1411	0.6907
1420	0.6515
1429	0.5001
1438	0.0718
1447	0.6386
1456	0.3768
1465	0.5965
1474	0.4779
1483	0.0672
1492	0.4472
1501	0.4409
1510	0.4427
1519	0.7817
1528	0.7911
1537	0.8156
1546	0.8346
1555	0.8234
1564	0.7706
1573	0.7167
1582	0.5243
1591	0.5979
1600	0.4781
1609	0.7037
1618	0.7744
1627	0.851
1636	0.8563
1645	0.8571
1654	0.857
1663	0.8506
1672	0.8432
1681	0.8402
1690	0.8475
1699	0.8433
1708	0.7968
1717	0.7337
1726	0.7517
1735	0.7956
1744	0.826
1753	0.854
1762	0.858
1771	0.8535
1780	0.8604
1789	0.8568
1798	0.8435
1807	0.8515
1816	0.8614
1825	0.874
1834	0.8768
1843	0.876
1852	0.8694
1861	0.8539
1870	0.8387
1879	0.8408
1888	0.8208
1897	0.8353
1906	0.8631
1915	0.8641
1924	0.8394
1933	0.826
1942	0.8343
1951	0.8538
1960	0.8666
1969	0.8801
1978	0.876
1987	0.8728
1996	0.8786
2005	0.8777
2014	0.8766
2023	0.8721
2032	0.8682
2041	0.8657
2050	0.8632
2059	0.8615
2068	0.8604
2077	0.8648
2086	0.871
2095	0.8724
2104	0.8721
2113	0.874
2122	0.8778
2131	0.8804
2140	0.8812
2149	0.8805
2158	0.8793
2167	0.8782
2176	0.8865
2185	0.887
2194	0.8838
2203	0.8811
2212	0.879
2221	0.8773
2230	0.8759
2239	0.8749
2248	0.8739
2257	0.8694
2266	0.8656
2275	0.8665
2284	0.8685
2293	0.8691
2302	0.869
2311	0.8686
2320	0.8683
2329	0.8688
2338	0.8795
2347	0.8801
2356	0.8795
2365	0.8786
2374	0.8777
2383	0.8768
2392	0.876
2401	0.8752
2410	0.8746
2419	0.8746
2428	0.8747
2437	0.8747
2446	0.8748
2455	0.8743
2464	0.8734
2473	0.8728
2482	0.8724
2491	0.8716
2500	0.8707
2509	0.8705
2518	0.8706
2527	0.8706
2536	0.8708
2545	0.8716
2554	0.8724
2563	0.8732
2572	0.8734
2581	0.8735
2590	0.8735
2599	0.8736
2608	0.8745
2617	0.8756
2626	0.8767
2635	0.8771
2644	0.8775
2653	0.8771
2662	0.8759
2671	0.8748
2680	0.8736
2689	0.8721
2698	0.8707
2707	0.8691
2716	0.8675
2725	0.8666
2734	0.866
2743	0.8652
2752	0.865
2761	0.8681
2770	0.871
2779	0.8721
2788	0.872
2797	0.8713
2806	0.8687
2815	0.8587
2824	0.8425
2833	0.827
2842	0.8218
2851	0.8004
2860	0.7584
2869	0.7174
2878	0.6983
2887	0.7486
2896	0.7483
2905	0.7046
2914	0.6366
2923	0.5703
2932	0.5632
2941	0.703
2950	0.7674
2959	0.7739
2968	0.7725
2977	0.7621
2986	0.7291
2995	0.6522
3004	0.6021
3013	0.6204
3022	0.5725
3031	0.5283
3040	0.571
3049	0.5542
3058	0.4899
3067	0.4596
3076	0.5464
3085	0.6286
3094	0.7811
3103	0.8161
3112	0.8424
3121	0.8631
3130	0.8813
3139	0.8832
3148	0.8827
3157	0.888
3166	0.8939
3175	0.8982
3184	0.9003
3193	0.9016
3202	0.9025
3211	0.9036
3220	0.9042
3229	0.9047
3238	0.9046
3247	0.9045
3256	0.9042
3265	0.9031
3274	0.9021
3283	0.901
3292	0.8999
3301	0.8987
3310	0.8975
3319	0.8963
3328	0.8948
3337	0.8933
3346	0.8918
3355	0.8904
3364	0.8889
3373	0.8871
3382	0.8855
3391	0.8837
3400	0.8818
3409	0.8804
3418	0.8793
3427	0.8782
3436	0.8771
3445	0.876
3454	0.8751
3463	0.8741
3472	0.8731
3481	0.872
3490	0.871
3499	0.87
3508	0.8684
3517	0.8668
3526	0.8635
3535	0.8578
3544	0.8486
3553	0.8391
3562	0.8421
3571	0.8456
3580	0.8492
3589	0.8528
3598	0.856
3607	0.8583
3616	0.8604
3625	0.8596
3634	0.8587
3643	0.858
3652	0.8601
3661	0.8601
3670	0.859
3679	0.8591
3688	0.8603
3697	0.8605
3706	0.8607
3715	0.8602
3724	0.8595
3733	0.8587
3742	0.858
3751	0.8573
3760	0.8566
3769	0.8559
3778	0.8547
3787	0.8535
