Infrared Spectrum: 2,3-Dimethyl-2-hexene
Formula: C 8 H 16
CAS: 7145-20-2
State: gas
Instrument: HP-GC/MS/IRD
Origin: NIST Mass Spectrometry Data Center
1/CM	ABSORBANCE
550	0.0002036
562	0.0001476
574	0.0001592
586	0.0002064
598	0.0001688
610	0.0001796
622	0.0002196
634	0.0001912
646	0.0001624
658	9.32e-05
670	0.0001656
682	0.0001968
694	0.0001804
706	0.0001404
718	0.0001776
730	0.000156
742	0.000188
754	0.0002116
766	0.0001508
778	0.0001816
790	0.0001756
802	0.0001984
814	0.0001872
826	1.8e-05
838	0.000178
850	0.0001816
862	0.0001856
874	0.0001968
886	0.0002064
898	0.0002716
910	0.00022
922	0.0002748
934	0.0002012
946	0.0001928
958	0.0002236
970	0.0001908
982	0.0002108
994	0.000226
1006	0.0002308
1018	0.0002256
1030	0.0002328
1042	0.0002408
1054	0.0002332
1066	0.0001952
1078	0.000286
1090	0.0002316
1102	0.0002468
1114	0.000198
1126	0.0002008
1138	0.0003256
1150	0.000558
1162	0.000578
1174	0.0002872
1186	0.0001468
1198	0.00016
1210	0.0001376
1222	0.0001696
1234	0.0001904
1246	0.0001644
1258	0.0001432
1270	0.0001548
1282	0.000146
1294	0.000174
1306	0.0001332
1318	0.0001824
1330	0.0001912
1342	0.0002436
1354	0.000262
1366	0.0003976
1378	0.0005704
1390	0.0005332
1402	0.0003944
1414	0.00032
1426	0.0003492
1438	0.00046
1450	0.0005844
1462	0.000674
1474	0.0005796
1486	0.0003844
1498	0.0003056
1510	0.0002228
1522	0.0002388
1534	0.0002576
1546	0.0002236
1558	0.0002156
1570	0.0001904
1582	0.0001592
1594	0.0001504
1606	0.000134
1618	0.0001072
1630	9.48e-05
1642	8.32e-05
1654	9.84e-05
1666	7.92e-05
1678	7.24e-05
1690	7.24e-05
1702	7.44e-05
1714	8.08e-05
1726	4.96e-05
1738	5.2e-05
1750	4.84e-05
1762	5.6e-05
1774	5e-05
1786	2.36e-05
1798	5.4e-05
1810	3.32e-05
1822	5.56e-05
1834	6.36e-05
1846	3.8e-05
1858	5.2e-05
1870	4.12e-05
1882	5.96e-05
1894	5.36e-05
1906	3.08e-05
1918	4.28e-05
1930	3.32e-05
1942	4.76e-05
1954	2.88e-05
1966	1e-05
1978	4.6e-05
1990	3.04e-05
2002	4.84e-05
2014	4.08e-05
2026	4.16e-05
2038	3.56e-05
2050	5.84e-05
2062	4.56e-05
2074	3.76e-05
2086	3.08e-05
2098	2.96e-05
2110	3.76e-05
2122	4e-05
2134	2.16e-05
2146	2.24e-05
2158	4.64e-05
2170	3e-05
2182	1.6e-05
2194	3.24e-05
2206	1.76e-05
2218	1.64e-05
2230	2.72e-05
2242	3.88e-05
2254	3.2e-05
2266	2.56e-05
2278	4.96e-05
2290	3.36e-05
2302	3.72e-05
2314	4.16e-05
2326	3.68e-05
2338	4.6e-05
2350	6.96e-05
2362	5e-05
2374	4.92e-05
2386	4.48e-05
2398	5.8e-05
2410	7e-05
2422	6e-05
2434	6.32e-05
2446	3.84e-05
2458	6.24e-05
2470	6.84e-05
2482	5.68e-05
2494	4.92e-05
2506	8.6e-05
2518	6.4e-05
2530	6.88e-05
2542	5.92e-05
2554	4.84e-05
2566	6e-05
2578	7.76e-05
2590	8.2e-05
2602	7.16e-05
2614	8.72e-05
2626	7.32e-05
2638	8.52e-05
2650	9.84e-05
2662	0.00011
2674	9.48e-05
2686	8.24e-05
2698	0.0001232
2710	0.0001316
2722	0.0001708
2734	0.0002244
2746	0.0002192
2758	0.0002052
2770	0.0001996
2782	0.0002224
2794	0.0002556
2806	0.0003296
2818	0.0004032
2830	0.0005824
2842	0.0009364
2854	0.0016428
2866	0.00261
2878	0.003116
2890	0.002804
2902	0.0026956
2914	0.0033068
2926	0.003912
2938	0.0039084
2950	0.00349
2962	0.0036772
2974	0.003242
2986	0.0020472
2998	0.0016244
3010	0.0014944
3022	0.0012284
3034	0.0009636
3046	0.0006932
3058	0.0005004
3070	0.0003604
3082	0.0003212
3094	0.0002368
3106	0.00016
3118	0.000162
3130	0.0001612
3142	0.0001164
3154	0.00013
3166	0.0001408
3178	8.84e-05
3190	9.52e-05
3202	9.56e-05
3214	0.0001104
3226	0.0001052
3238	0.0001064
3250	7.52e-05
3262	9.8e-05
3274	6.04e-05
3286	6.12e-05
3298	6.24e-05
3310	4.56e-05
3322	7.44e-05
3334	7.2e-05
3346	4.92e-05
3358	5.08e-05
3370	7.72e-05
3382	0.0001024
3394	6.32e-05
3406	7.28e-05
3418	6.24e-05
3430	5.76e-05
3442	8.12e-05
3454	2.92e-05
3466	6.32e-05
3478	8e-05
3490	7.72e-05
3502	6.16e-05
3514	4.84e-05
3526	8.72e-05
3538	5.2e-05
3550	9.68e-05
3562	4.92e-05
3574	3.84e-05
3586	5.64e-05
3598	4.68e-05
3610	4.4e-05
3622	9.28e-05
3634	6.2e-05
3646	6.8e-05
3658	8.28e-05
3670	9.92e-05
3682	6.16e-05
3694	0.0001244
3706	0.0001008
3718	7.48e-05
3730	7.84e-05
3742	8.84e-05
3754	0.0001184
3766	8.52e-05
3778	9.36e-05
3790	8.6e-05
3802	0.0001456
3814	0.0001444
3826	0.00013
3838	0.0001264
