Infrared Spectrum: 2,3-Dimethyl-3-hexene
Formula: C 8 H 16
CAS: 7145-23-5
State: gas
Instrument: HP-GC/MS/IRD
Origin: NIST Mass Spectrometry Data Center
1/CM	ABSORBANCE
550	0.0001974
562	0.0001224
574	7.5e-05
586	3.06e-05
598	0.0001314
610	0.000126
622	0.0001062
634	0.000129
646	9.9e-05
658	5.76e-05
670	0.0001038
682	0.0001608
694	0.0001476
706	0.0001896
718	0.000213
730	0.0001656
742	0.0001644
754	0.0001998
766	0.000177
778	0.0001608
790	0.0002022
802	0.0001674
814	0.000216
826	0.0002466
838	0.0003276
850	0.000459
862	0.0004146
874	0.0002622
886	0.0002544
898	0.0002388
910	0.0002742
922	0.0002958
934	0.000231
946	0.0002178
958	0.0002034
970	0.000219
982	0.0001938
994	0.0002124
1006	0.0002166
1018	0.0002778
1030	0.0003042
1042	0.0002964
1054	0.000318
1066	0.0003114
1078	0.0003588
1090	0.0004074
1102	0.0003834
1114	0.0002682
1126	0.0002004
1138	0.0002268
1150	0.0002136
1162	0.0001788
1174	0.0001326
1186	9.84e-05
1198	0.0001368
1210	9.72e-05
1222	8.46e-05
1234	7.74e-05
1246	0.00015
1258	0.0001716
1270	0.0002046
1282	0.0002274
1294	0.0003378
1306	0.0004416
1318	0.0003876
1330	0.000288
1342	0.0002616
1354	0.0003738
1366	0.0005352
1378	0.0006948
1390	0.000606
1402	0.0004176
1414	0.0003324
1426	0.000357
1438	0.0004482
1450	0.0005874
1462	0.000759
1474	0.0006654
1486	0.0004422
1498	0.0002784
1510	0.0002196
1522	0.0001758
1534	0.0001398
1546	0.0001548
1558	0.0001494
1570	0.0001392
1582	0.000123
1594	0.0001296
1606	0.0001164
1618	0.0001044
1630	0.0001002
1642	0.0001194
1654	0.000147
1666	0.0001596
1678	0.0001236
1690	0.000132
1702	0.0001128
1714	0.0001134
1726	6.96e-05
1738	6.18e-05
1750	9.18e-05
1762	8.34e-05
1774	7.08e-05
1786	7.86e-05
1798	8.76e-05
1810	7.44e-05
1822	6.9e-05
1834	6.06e-05
1846	5.94e-05
1858	4.98e-05
1870	7.02e-05
1882	7.68e-05
1894	5.34e-05
1906	5.7e-05
1918	4.92e-05
1930	6.24e-05
1942	4.86e-05
1954	6.42e-05
1966	5.58e-05
1978	5.52e-05
1990	5.94e-05
2002	5.7e-05
2014	3.72e-05
2026	4.62e-05
2038	3.24e-05
2050	5.64e-05
2062	4.26e-05
2074	4.8e-05
2086	5.76e-05
2098	3.84e-05
2110	3.36e-05
2122	5.88e-05
2134	4.26e-05
2146	3.72e-05
2158	1.74e-05
2170	1.62e-05
2182	3.84e-05
2194	2.22e-05
2206	3.54e-05
2218	3.6e-05
2230	3e-05
2242	3.48e-05
2254	3.12e-05
2266	2.94e-05
2278	4.5e-05
2290	9.6e-06
2302	3.48e-05
2314	6e-06
2326	4.2e-06
2338	1.44e-05
2350	2.7e-05
2362	0
2374	0
2386	3.9e-05
2398	3.24e-05
2410	6.9e-05
2422	5.22e-05
2434	5.34e-05
2446	5.28e-05
2458	6.24e-05
2470	4.74e-05
2482	5.22e-05
2494	4.32e-05
2506	7.44e-05
2518	6.42e-05
2530	5.22e-05
2542	6.84e-05
2554	6.18e-05
2566	8.88e-05
2578	8.22e-05
2590	8.52e-05
2602	9.42e-05
2614	7.26e-05
2626	9.3e-05
2638	8.64e-05
2650	6.78e-05
2662	9.48e-05
2674	0.0001182
2686	0.0001128
2698	8.22e-05
2710	0.0001302
2722	0.0001602
2734	0.0001584
2746	0.0001578
2758	0.000183
2770	0.0001794
2782	0.0001812
2794	0.0002244
2806	0.0002388
2818	0.0002982
2830	0.0004314
2842	0.0005904
2854	0.0009348
2866	0.0016092
2878	0.0023628
2890	0.0023802
2902	0.0021876
2914	0.0022614
2926	0.0026088
2938	0.003159
2950	0.0036696
2962	0.005538
2974	0.0055956
2986	0.0029676
2998	0.0015378
3010	0.0010098
3022	0.0007302
3034	0.0005646
3046	0.0004524
3058	0.000384
3070	0.000336
3082	0.0002484
3094	0.0002286
3106	0.0002574
3118	0.0001986
3130	0.0001596
3142	0.0001722
3154	0.0001482
3166	0.000123
3178	0.0001446
3190	0.0001248
3202	0.000129
3214	0.0001044
3226	8.82e-05
3238	7.32e-05
3250	8.16e-05
3262	6.9e-05
3274	6.42e-05
3286	7.2e-05
3298	6.3e-05
3310	7.74e-05
3322	6.6e-05
3334	4.2e-05
3346	3.24e-05
3358	4.38e-05
3370	5.64e-05
3382	5.82e-05
3394	6.48e-05
3406	3.48e-05
3418	6.54e-05
3430	5.4e-05
3442	5.58e-05
3454	7.14e-05
3466	4.5e-05
3478	8.88e-05
3490	2.4e-05
3502	5.76e-05
3514	4.5e-05
3526	2.22e-05
3538	1.86e-05
3550	1.14e-05
3562	2.4e-06
3574	1.32e-05
3586	8.58e-05
3598	2.16e-05
3610	4.8e-05
3622	2.82e-05
3634	4.38e-05
3646	3.06e-05
3658	3.84e-05
3670	3.06e-05
3682	3.9e-05
3694	4.02e-05
3706	5.88e-05
3718	4.38e-05
3730	5.58e-05
3742	4.2e-05
3754	2.04e-05
3766	2.7e-05
3778	6.24e-05
3790	2.88e-05
3802	4.98e-05
3814	4.38e-05
3826	6.3e-05
3838	6.3e-05
