Infrared Spectrum: 5-Methyl-1,3-benzodioxole
Formula: C 8 H 8 O 2
CAS: 7145-99-5
State: gas
Origin: EPA-IR VAPOR PHASE LIBRARY
1/CM	ABSORBANCE
549.8	0.00038138
559.445	0.0008378
569.09	0.001936
578.734	0.003586
588.379	0.003436
598.024	0.003206
607.669	0.002076
617.313	0.00126
626.958	0.0006074
636.603	0.0004702
646.248	0.000151
655.893	0.00029102
665.537	0.0004473
675.182	0.0002798
684.827	0.00038827
694.472	0.00036114
704.116	0.0009849
713.761	0.0011392
723.406	0.0011611
733.051	0.0010292
742.695	0.001936
752.34	0.002336
761.985	0.002786
771.63	0.004036
781.275	0.010576
790.919	0.019966
800.564	0.027616
810.209	0.020716
819.854	0.009246
829.498	0.005526
839.143	0.006976
848.788	0.008236
858.433	0.005576
868.078	0.003426
877.722	0.001696
887.367	0.001896
897.012	0.003166
906.657	0.007406
916.301	0.014946
925.946	0.020896
935.591	0.024046
945.236	0.025606
954.88	0.019996
964.525	0.010406
974.17	0.005336
983.815	0.004276
993.46	0.003936
1003.1	0.004826
1012.75	0.007896
1022.39	0.015036
1032.04	0.027276
1041.68	0.042926
1051.33	0.050236
1060.97	0.040446
1070.62	0.022436
1080.26	0.013496
1089.91	0.012596
1099.55	0.013756
1109.2	0.014416
1118.84	0.013106
1128.49	0.009476
1138.13	0.006046
1147.78	0.004416
1157.42	0.003316
1167.07	0.005396
1176.71	0.013916
1186.36	0.035486
1196	0.041506
1205.64	0.027296
1215.29	0.020036
1224.93	0.032546
1234.58	0.083126
1244.22	0.114066
1253.87	0.080906
1263.51	0.018896
1273.16	0.009246
1282.8	0.006096
1292.45	0.004786
1302.09	0.004896
1311.74	0.006756
1321.38	0.010086
1331.03	0.014826
1340.67	0.018076
1350.32	0.014126
1359.96	0.004836
1369.61	0.003096
1379.25	0.003516
1388.9	0.004446
1398.54	0.005116
1408.18	0.006196
1417.83	0.010576
1427.47	0.026196
1437.12	0.039936
1446.76	0.034316
1456.41	0.017876
1466.05	0.016416
1475.7	0.037076
1485.34	0.102946
1494.99	0.116236
1504.63	0.065966
1514.28	0.029856
1523.92	0.010686
1533.57	0.005926
1543.21	0.003806
1552.86	0.003706
1562.5	0.003896
1572.15	0.003936
1581.79	0.004296
1591.44	0.004416
1601.08	0.004326
1610.73	0.003486
1620.37	0.002776
1630.01	0.002286
1639.66	0.001906
1649.3	0.001626
1658.95	0.001486
1668.59	0.001446
1678.24	0.001546
1687.88	0.002036
1697.53	0.002466
1707.17	0.002306
1716.82	0.001656
1726.46	0.0012381
1736.11	0.0011787
1745.75	0.0012251
1755.4	0.001666
1765.04	0.001746
1774.69	0.001436
1784.33	0.0010466
1793.98	0.0009947
1803.62	0.0012327
1813.27	0.002006
1822.91	0.002846
1832.55	0.003046
1842.2	0.002806
1851.84	0.002576
1861.49	0.002386
1871.13	0.002216
1880.78	0.002046
1890.42	0.001816
1900.07	0.001376
1909.71	0.0010998
1919.36	0.0009841
1929	0.0008764
1938.65	0.0008436
1948.29	0.0008859
1957.94	0.0007912
1967.58	0.0009144
1977.23	0.0009511
1986.87	0.000957
1996.52	0.0012342
2006.16	0.001296
2015.81	0.001296
2025.45	0.001326
2035.1	0.001376
2044.74	0.001366
2054.38	0.001316
2064.03	0.001104
2073.67	0.0009923
2083.32	0.0009996
2092.96	0.0010234
2102.61	0.0009749
2112.25	0.0008606
2121.9	0.0007644
2131.54	0.0007897
2141.19	0.0008035
2150.83	0.0007709
2160.48	0.0007257
2170.12	0.0007031
2179.77	0.0008113
2189.41	0.0009547
2199.06	0.0008731
2208.7	0.0007583
2218.35	0.0007159
2227.99	0.0008107
2237.64	0.0007505
2247.28	0.0007683
2256.92	0.0006824
2266.57	0.0006954
2276.21	0.0007222
2285.86	0.0009014
2295.5	0.0010243
2305.15	0.0010521
2314.79	0.0009179
2324.44	0.0008011
2334.08	0.0008151
2343.73	0.0008709
2353.37	0.0008482
2363.02	0.0009695
2372.66	0.0008428
2382.31	0.0008682
2391.95	0.0007517
2401.6	0.0006454
2411.24	0.0006106
2420.89	0.0006416
2430.53	0.0007087
2440.18	0.0006351
2449.82	0.0006816
2459.47	0.0005914
2469.11	0.0006053
2478.75	0.0006649
2488.4	0.0006299
2498.04	0.0006667
2507.69	0.0007865
2517.33	0.0009039
2526.98	0.0011684
2536.62	0.0012125
2546.27	0.0011064
2555.91	0.0010518
2565.56	0.0011213
2575.2	0.001366
2584.85	0.001536
2594.49	0.001386
2604.14	0.0010137
2613.78	0.0007026
2623.43	0.0008158
2633.07	0.0008054
2642.72	0.0008579
2652.36	0.0009525
2662.01	0.0010407
2671.65	0.0012892
2681.29	0.001486
2690.94	0.001346
2700.58	0.0012393
2710.23	0.0012753
2719.87	0.0012902
2729.52	0.001756
2739.16	0.002206
2748.81	0.002846
2758.45	0.004146
2768.1	0.006566
2777.74	0.006526
2787.39	0.004136
2797.03	0.003306
2806.68	0.003536
2816.32	0.004176
2825.97	0.005466
2835.61	0.007176
2845.26	0.009426
2854.9	0.012976
2864.55	0.020776
2874.19	0.028916
2883.84	0.029266
2893.48	0.023486
2903.12	0.022296
2912.77	0.024816
2922.41	0.027876
2932.06	0.029096
2941.7	0.025126
2951.35	0.018406
2960.99	0.014296
2970.64	0.011556
2980.28	0.009866
2989.93	0.009666
2999.57	0.010196
3009.22	0.011916
3018.86	0.012996
3028.51	0.013356
3038.15	0.012796
3047.8	0.011516
3057.44	0.009556
3067.09	0.008126
3076.73	0.006166
3086.38	0.004036
3096.02	0.002916
3105.67	0.002576
3115.31	0.002056
3124.95	0.001626
3134.6	0.0009718
3144.24	0.0008864
3153.89	0.0005017
3163.53	0.0005525
3173.18	0.00037727
3182.82	0.00034324
3192.47	0.0003107
3202.11	0.0004866
3211.76	0.00037732
3221.4	0.00038482
3231.05	0.00037403
3240.69	0.00037344
3250.34	0.0004335
3259.98	0.0004837
3269.63	0.0004466
3279.27	0.00037803
3288.92	0.0004506
3298.56	0.0002241
3308.21	0.0003905
3317.85	0.00018
3327.49	0.00031308
3337.14	0.0002848
3346.78	0.0005158
3356.43	0.00038008
3366.07	0.0002489
3375.72	0.0003521
3385.36	0.00038408
3395.01	0.0002821
3404.65	0.00030035
3414.3	0.0002477
3423.94	0.0002546
3433.59	0.000301404
3443.23	0.000188
3452.88	0.0002223
3462.52	0.0003154
3472.17	0.00028614
3481.81	0.00025
3491.46	0.00034454
3501.1	0.0002514
3510.75	0.0002062
3520.39	0.0002793
3530.04	0.0005183
3539.68	0.00037132
3549.32	0.0002569
3558.97	0.00036169
3568.61	0.0002134
3578.26	0.000112
3587.9	0.0002617
3597.55	0.0005234
3607.19	0.0002157
3616.84	0.00031361
3626.48	0.00038765
3636.13	0.0004504
3645.77	0.0004864
3655.42	0.0005045
3665.06	0.00028901
3674.71	0.00033933
3684.35	0.0002772
3694	0.0004979
3703.64	0.000459
3713.29	0.00032359
3722.93	0.00036904
3732.58	0.0002388
3742.22	0.00039256
3751.86	0.000401
3761.51	0.0004361
3771.15	0.0003243
3780.8	0.0004851
3790.44	0.0004656
3800.09	0.0004815
3809.73	0.0005479
3819.38	0.0006086
3829.02	0.00037202
3838.67	0.0004982
3848.31	0.000448
3857.96	0.0005105
3867.6	0.0005928
3877.25	0.000368
3886.89	0.00036294
3896.54	0.000526
3906.18	0.0007146
3915.83	0.0005655
3925.47	0.00037032
3935.12	0.0005187
3944.76	0.0007151
3954.41	0.0005985
3964.05	0.0004531
3973.69	0.000653
3983.34	0.0007046
3992.98	0.0006639
