Infrared Spectrum: Glycine, N-[(2-chloroethyl )carbamoyl]-, ethyl ester
Formula: C7 H13 Cl N2 O3
CAS: 7145-35-9
State: SOLID (0.7 mg / 650 mg KBr DISC)
Class: COBLENTZ III
Instrument: PERKIN-ELMER 221 (GRATING)
Instrument parameters: FILTER AT 980 CM^-^1. GRATING 4000-1428 CM^-^1, NaCl PRISM 1428-650 CM^-^1
Sampling: TRANSMISSION
Resolution: 2
Origin: SOUTHERN RESEARCH INSTITUTE
1/CM	TRANSMITTANCE
587.48	0.53
596.497	0.5298
605.514	0.5314
614.531	0.5385
623.549	0.5549
632.566	0.5598
641.583	0.5335
650.6	0.5816
659.617	0.6375
668.634	0.6903
677.651	0.7163
686.668	0.7241
695.686	0.7063
704.703	0.6961
713.72	0.7177
722.737	0.7602
731.754	0.7949
740.771	0.8087
749.788	0.814
758.805	0.8131
767.823	0.7969
776.84	0.7404
785.857	0.8088
794.874	0.8304
803.891	0.8232
812.908	0.8371
821.925	0.8414
830.942	0.8419
839.96	0.8352
848.977	0.8143
857.994	0.7994
867.011	0.7412
876.028	0.8077
885.045	0.8233
894.062	0.809
903.079	0.7891
912.097	0.7476
921.114	0.7143
930.131	0.7788
939.148	0.7776
948.165	0.7304
957.182	0.7129
966.199	0.7645
975.216	0.7525
984.234	0.724
993.251	0.7249
1002.27	0.6748
1011.29	0.5559
1020.3	0.5455
1029.32	0.656
1038.34	0.7175
1047.35	0.7214
1056.37	0.6819
1065.39	0.6339
1074.4	0.689
1083.42	0.6149
1092.44	0.5678
1101.46	0.6653
1110.47	0.6979
1119.49	0.6893
1128.51	0.6678
1137.52	0.639
1146.54	0.6074
1155.56	0.538
1164.58	0.4958
1173.59	0.4579
1182.61	0.3308
1191.63	0.2614
1200.64	0.338
1209.66	0.4406
1218.68	0.5351
1227.7	0.5788
1236.71	0.6296
1245.73	0.619
1254.75	0.5806
1263.76	0.5589
1272.78	0.5734
1281.8	0.5348
1290.82	0.5868
1299.83	0.6134
1308.85	0.629
1317.87	0.6588
1326.88	0.7502
1335.9	0.7689
1344.92	0.7653
1353.94	0.728
1362.95	0.7001
1371.97	0.5261
1380.99	0.5714
1390	0.6195
1399.02	0.5412
1408.04	0.5294
1417.06	0.7353
1426.07	0.6479
1435.09	0.5718
1444.11	0.6145
1453.12	0.7043
1462.14	0.6726
1471.16	0.7489
1480.18	0.7641
1489.19	0.75
1498.21	0.7183
1507.23	0.6725
1516.24	0.6162
1525.26	0.615
1534.28	0.6136
1543.3	0.5897
1552.31	0.5347
1561.33	0.4871
1570.35	0.4112
1579.36	0.2977
1588.38	0.2306
1597.4	0.2865
1606.42	0.2906
1615.43	0.1551
1624.45	0.1934
1633.47	0.2933
1642.48	0.3803
1651.5	0.4325
1660.52	0.4931
1669.54	0.5515
1678.55	0.5888
1687.57	0.5995
1696.59	0.5988
1705.6	0.6264
1714.62	0.6395
1723.64	0.633
1732.66	0.4958
1741.67	0.195
1750.69	0.3019
1759.71	0.4102
1768.72	0.5491
1777.74	0.5994
1786.76	0.6276
1795.78	0.6473
1804.79	0.6605
1813.81	0.6711
1822.83	0.6807
1831.84	0.6893
1840.86	0.7013
1849.88	0.7093
1858.9	0.7149
1867.91	0.7184
1876.93	0.7219
1885.95	0.7231
1894.96	0.7246
1903.98	0.7307
1913	0.7329
1922.01	0.7367
1931.03	0.7406
1940.05	0.7444
1949.07	0.748
1958.08	0.7511
1967.1	0.7545
1976.12	0.7578
1985.13	0.7603
1994.15	0.7626
2003.17	0.7642
2012.19	0.7647
2021.2	0.7646
2030.22	0.7645
2039.24	0.7644
2048.25	0.7643
2057.27	0.7643
2066.29	0.7638
2075.31	0.7638
2084.32	0.7649
2093.34	0.7661
2102.36	0.7674
2111.37	0.7692
2120.39	0.7713
2129.41	0.7732
2138.43	0.775
2147.44	0.7777
2156.46	0.7806
2165.48	0.7821
2174.49	0.7821
2183.51	0.7819
2192.53	0.7819
2201.55	0.7834
2210.56	0.7856
2219.58	0.7862
2228.6	0.785
2237.61	0.7835
2246.63	0.7839
2255.65	0.7861
2264.67	0.7854
2273.68	0.7848
2282.7	0.7847
2291.72	0.7846
2300.73	0.7844
2309.75	0.784
2318.77	0.7832
2327.79	0.7823
2336.8	0.7811
2345.82	0.7796
2354.84	0.7772
2363.85	0.7771
2372.87	0.781
2381.89	0.7832
2390.91	0.7842
2399.92	0.7843
2408.94	0.7839
2417.96	0.7843
2426.97	0.7853
2435.99	0.7848
2445.01	0.7834
2454.03	0.782
2463.04	0.7809
2472.06	0.7802
2481.08	0.7737
2490.09	0.781
2499.11	0.7828
2508.13	0.7868
2517.15	0.789
2526.16	0.7864
2535.18	0.784
2544.2	0.7887
2553.21	0.7863
2562.23	0.7874
2571.25	0.7822
2580.27	0.7798
2589.28	0.7781
2598.3	0.7783
2607.32	0.781
2616.33	0.7831
2625.35	0.7837
2634.37	0.7837
2643.39	0.7838
2652.4	0.7833
2661.42	0.7821
2670.44	0.7809
2679.45	0.7794
2688.47	0.7779
2697.49	0.775
2706.51	0.772
2715.52	0.7687
2724.54	0.7652
2733.56	0.764
2742.57	0.7682
2751.59	0.7706
2760.61	0.7704
2769.62	0.7687
2778.64	0.7667
2787.66	0.7659
2796.68	0.7673
2805.69	0.7657
2814.71	0.7578
2823.73	0.7472
2832.74	0.7364
2841.76	0.7258
2850.78	0.7196
2859.8	0.7192
2868.81	0.7246
2877.83	0.7234
2886.85	0.7204
2895.86	0.7106
2904.88	0.6992
2913.9	0.69
2922.92	0.6776
2931.93	0.6473
2940.95	0.6238
2949.97	0.6792
2958.98	0.6703
2968	0.6453
2977.02	0.6174
2986.04	0.5862
2995.05	0.6357
3004.07	0.6359
3013.09	0.643
3022.1	0.6563
3031.12	0.6617
3040.14	0.6753
3049.16	0.6852
3058.17	0.6928
3067.19	0.7032
3076.21	0.7108
3085.22	0.7165
3094.24	0.7183
3103.26	0.717
3112.28	0.7111
3121.29	0.7002
3130.31	0.6828
3139.33	0.6595
3148.34	0.6539
3157.36	0.6595
3166.38	0.6655
3175.4	0.6688
3184.41	0.6742
3193.43	0.6791
3202.45	0.6783
3211.46	0.6751
3220.48	0.6699
3229.5	0.6619
3238.52	0.6507
3247.53	0.6334
3256.55	0.6135
3265.57	0.5952
3274.58	0.5763
3283.6	0.5558
3292.62	0.5335
3301.64	0.5128
3310.65	0.4931
3319.67	0.4711
3328.69	0.434
3337.7	0.3946
3346.72	0.3483
3355.74	0.2903
3364.76	0.272
3373.77	0.3234
3382.79	0.3796
3391.81	0.4236
3400.82	0.4583
3409.84	0.4764
3418.86	0.4958
3427.88	0.5166
3436.89	0.5338
3445.91	0.5518
3454.93	0.567
3463.94	0.5753
3472.96	0.5807
3481.98	0.5899
3491	0.6017
3500.01	0.6075
3509.03	0.6144
3518.05	0.622
3527.06	0.6282
3536.08	0.635
3545.1	0.6413
3554.12	0.6473
3563.13	0.6522
3572.15	0.6622
3581.17	0.6688
3590.18	0.6758
3599.2	0.6823
3608.22	0.6888
3617.23	0.6947
3626.25	0.7006
3635.27	0.7067
3644.29	0.7115
3653.3	0.7152
3662.32	0.7183
3671.34	0.7197
3680.35	0.7214
3689.37	0.7225
3698.39	0.7242
3707.41	0.7277
3716.42	0.7298
3725.44	0.7308
3734.46	0.7312
3743.47	0.7313
3752.49	0.7305
3761.51	0.7293
3770.53	0.7281
3779.54	0.7278
3788.56	0.7307
3797.58	0.7328
3806.59	0.7336
3815.61	0.7319
3824.63	0.7289
3833.65	0.7337
3842.66	0.7303
3851.68	0.7346
3860.7	0.735
3869.71	0.734
3878.73	0.7295
3887.75	0.7283
3896.77	0.7299
3905.78	0.7304
3914.8	0.7302
3923.82	0.7299
3932.83	0.7281
3941.85	0.7306
3950.87	0.7345
3959.89	0.7311
3968.9	0.7295
3977.92	0.7282
3986.94	0.7323
3995.95	0.7284
4004.97	0.7316
4013.99	0.7279
