Infrared Spectrum: Pyrimido[4,5-e]-as-triazine-3,6,8(2H,5H,7H)-trione, 5,7-dimethyl-, monohydrate
Formula: C7 H7 N5 O3  * H2 O
CAS: 7146-10-3
State: SOLID (0.8 mg / 650 mg KBr DISC)
Class: COBLENTZ III
Instrument: PERKIN-ELMER 21 (GRATING)
Instrument parameters: FILTER CHANGE ABOUT 1090 CM^-^1
Sampling: TRANSMISSION
Resolution: 2
Origin: SOUTHERN RESEARCH INSTITUTE
1/CM	TRANSMITTANCE
601.32	0.6243
610.356	0.63
619.392	0.6401
628.429	0.672
637.465	0.754
646.501	0.8226
655.537	0.8392
664.574	0.8482
673.61	0.8474
682.646	0.8313
691.682	0.8109
700.719	0.7917
709.755	0.7918
718.791	0.7779
727.827	0.7561
736.864	0.7265
745.9	0.6604
754.936	0.5967
763.972	0.7489
773.009	0.6566
782.045	0.6502
791.081	0.6999
800.117	0.616
809.154	0.6222
818.19	0.8085
827.226	0.814
836.262	0.8155
845.299	0.8149
854.335	0.8106
863.371	0.8039
872.407	0.7959
881.444	0.7869
890.48	0.7796
899.516	0.7739
908.552	0.7553
917.589	0.734
926.625	0.7297
935.661	0.7071
944.697	0.6543
953.734	0.5317
962.77	0.7105
971.806	0.7528
980.842	0.7324
989.878	0.7243
998.915	0.7123
1007.95	0.6848
1016.99	0.66
1026.02	0.6097
1035.06	0.5469
1044.1	0.4686
1053.13	0.3209
1062.17	0.2989
1071.2	0.2916
1080.24	0.3752
1089.28	0.5588
1098.31	0.5763
1107.35	0.5357
1116.39	0.7001
1125.42	0.7128
1134.46	0.7035
1143.49	0.6855
1152.53	0.6621
1161.57	0.632
1170.6	0.5911
1179.64	0.5399
1188.68	0.4628
1197.71	0.346
1206.75	0.2173
1215.78	0.3029
1224.82	0.2642
1233.86	0.2044
1242.89	0.3374
1251.93	0.5304
1260.97	0.5667
1270	0.6223
1279.04	0.5527
1288.07	0.4507
1297.11	0.6112
1306.15	0.6604
1315.18	0.6321
1324.22	0.5771
1333.26	0.5159
1342.29	0.4133
1351.33	0.3411
1360.36	0.2728
1369.4	0.1618
1378.44	0.1681
1387.47	0.2108
1396.51	0.324
1405.55	0.3876
1414.58	0.2544
1423.62	0.3675
1432.65	0.4288
1441.69	0.4285
1450.73	0.3829
1459.76	0.3085
1468.8	0.3355
1477.84	0.4099
1486.87	0.5633
1495.91	0.6216
1504.94	0.6354
1513.98	0.6042
1523.02	0.4709
1532.05	0.3885
1541.09	0.4518
1550.13	0.5821
1559.16	0.6955
1568.2	0.7173
1577.23	0.7034
1586.27	0.6658
1595.31	0.6011
1604.34	0.5228
1613.38	0.4779
1622.42	0.4504
1631.45	0.3052
1640.49	0.213
1649.52	0.152
1658.56	0.1568
1667.6	0.2486
1676.63	0.1627
1685.67	0.1823
1694.71	0.2824
1703.74	0.407
1712.78	0.4193
1721.81	0.3109
1730.85	0.2425
1739.89	0.3391
1748.92	0.4562
1757.96	0.5091
1767	0.5945
1776.03	0.6524
1785.07	0.7022
1794.1	0.7358
1803.14	0.7729
1812.18	0.8005
1821.21	0.8158
1830.25	0.8247
1839.29	0.8277
1848.32	0.8341
1857.36	0.8446
1866.39	0.8539
1875.43	0.8624
1884.47	0.867
1893.5	0.8667
1902.54	0.8689
1911.58	0.874
1920.61	0.8787
1929.65	0.8836
1938.68	0.8862
1947.72	0.8862
1956.76	0.8872
1965.79	0.8885
1974.83	0.8896
1983.87	0.8904
1992.9	0.891
2001.94	0.8905
2010.97	0.8885
2020.01	0.8865
2029.05	0.8875
2038.08	0.8877
2047.12	0.8856
2056.16	0.8832
2065.19	0.8812
2074.23	0.8847
2083.26	0.8859
2092.3	0.8869
2101.34	0.8874
2110.37	0.8875
2119.41	0.8874
2128.45	0.8874
2137.48	0.8871
2146.52	0.8867
2155.55	0.8863
2164.59	0.8862
2173.63	0.8861
2182.66	0.8864
2191.7	0.8871
2200.74	0.8876
2209.77	0.8864
2218.81	0.8849
2227.84	0.883
2236.88	0.8822
2245.92	0.8861
2254.95	0.8881
2263.99	0.888
2273.03	0.8878
2282.06	0.8878
2291.1	0.8884
2300.13	0.8918
2309.17	0.8956
2318.21	0.8959
2327.24	0.8959
2336.28	0.8958
2345.32	0.8954
2354.35	0.8952
2363.39	0.889
2372.42	0.8814
2381.46	0.8746
2390.5	0.8687
2399.53	0.8651
2408.57	0.8625
2417.6	0.8628
2426.64	0.8643
2435.68	0.8665
2444.71	0.8631
2453.75	0.8574
2462.79	0.8577
2471.82	0.8549
2480.86	0.852
2489.89	0.857
2498.93	0.8609
2507.97	0.8552
2517	0.8541
2526.04	0.8538
2535.08	0.8533
2544.11	0.8525
2553.15	0.8517
2562.18	0.8518
2571.22	0.8495
2580.26	0.8457
2589.29	0.8464
2598.33	0.8491
2607.37	0.8443
2616.4	0.8391
2625.44	0.8381
2634.47	0.8365
2643.51	0.8364
2652.55	0.8348
2661.58	0.8346
2670.62	0.8349
2679.66	0.8285
2688.69	0.8306
2697.73	0.8329
2706.76	0.8314
2715.8	0.8257
2724.84	0.819
2733.87	0.8189
2742.91	0.8251
2751.95	0.8183
2760.98	0.8137
2770.02	0.8111
2779.05	0.8089
2788.09	0.8073
2797.13	0.8059
2806.16	0.8046
2815.2	0.8033
2824.24	0.8019
2833.27	0.8
2842.31	0.7978
2851.34	0.7945
2860.38	0.7908
2869.42	0.7855
2878.45	0.7797
2887.49	0.7732
2896.53	0.7667
2905.56	0.7595
2914.6	0.7524
2923.63	0.7431
2932.67	0.7342
2941.71	0.7265
2950.74	0.725
2959.78	0.7278
2968.82	0.7385
2977.85	0.7435
2986.89	0.742
2995.92	0.7331
3004.96	0.7257
3014	0.7263
3023.03	0.7258
3032.07	0.7158
3041.11	0.712
3050.14	0.7003
3059.18	0.6858
3068.21	0.6755
3077.25	0.6734
3086.29	0.6646
3095.32	0.6467
3104.36	0.6226
3113.4	0.5969
3122.43	0.5688
3131.47	0.5392
3140.5	0.504
3149.54	0.4906
3158.58	0.4948
3167.61	0.5011
3176.65	0.5032
3185.69	0.5049
3194.72	0.5104
3203.76	0.5253
3212.79	0.5389
3221.83	0.5648
3230.87	0.5766
3239.9	0.5968
3248.94	0.6081
3257.98	0.6072
3267.01	0.6171
3276.05	0.618
3285.08	0.6075
3294.12	0.6055
3303.16	0.5965
3312.19	0.5803
3321.23	0.5597
3330.27	0.5492
3339.3	0.54
3348.34	0.5214
3357.37	0.4971
3366.41	0.4691
3375.45	0.425
3384.48	0.3561
3393.52	0.3506
3402.56	0.3831
3411.59	0.423
3420.63	0.4605
3429.66	0.4767
3438.7	0.4909
3447.74	0.5114
3456.77	0.5324
3465.81	0.5498
3474.85	0.5679
3483.88	0.5867
3492.92	0.5981
3501.95	0.6045
3510.99	0.6161
3520.03	0.6314
3529.06	0.6365
3538.1	0.6467
3547.14	0.6502
3556.17	0.6613
3565.21	0.6843
3574.24	0.6965
3583.28	0.7089
3592.32	0.7255
3601.35	0.734
3610.39	0.7493
3619.43	0.7583
3628.46	0.7662
3637.5	0.776
3646.53	0.7859
3655.57	0.7958
3664.61	0.8055
3673.64	0.8125
3682.68	0.8109
3691.72	0.807
3700.75	0.8106
3709.79	0.8179
3718.82	0.8208
3727.86	0.8242
3736.9	0.8293
3745.93	0.8334
3754.97	0.8343
3764.01	0.8277
3773.04	0.8332
3782.08	0.8273
3791.11	0.8179
3800.15	0.8215
3809.19	0.8185
3818.22	0.8185
3827.26	0.8231
3836.3	0.82
3845.33	0.8177
3854.37	0.8167
3863.4	0.8193
3872.44	0.819
3881.48	0.817
3890.51	0.8167
3899.55	0.8157
3908.59	0.8121
3917.62	0.8052
3926.66	0.8017
3935.69	0.8083
3944.73	0.8032
3953.77	0.7998
3962.8	0.7979
3971.84	0.7986
3980.88	0.799
3989.91	0.8014
3998.95	0.8
4007.98	0.8123
