Infrared Spectrum: 2,3-Dimethyloctane
Formula: C 10 H 22
CAS: 7146-60-3
State: gas
Instrument: HP-GC/MS/IRD
Origin: NIST Mass Spectrometry Data Center
1/CM	ABSORBANCE
550	0.00026
562	0.0002175
574	0.0002
586	0.0001175
598	0.0001
610	0.00011
622	9.5e-05
634	0.000155
646	0.0001175
658	0.00019
670	0.00012
682	0.00011
694	0.0001325
706	0.00022
718	0.0003225
730	0.000375
742	0.000345
754	0.000245
766	0.0001775
778	0.0002125
790	0.00018
802	0.00014
814	0.0001475
826	1.5e-05
838	0.00012
850	0.0002
862	0.00019
874	0.0001475
886	0.00016
898	0.0001375
910	0.0001925
922	0.000165
934	0.0001575
946	0.00013
958	0.0001975
970	0.0001675
982	0.0002125
994	0.000165
1006	0.000195
1018	0.00025
1030	0.000315
1042	0.000255
1054	0.000245
1066	0.000255
1078	0.0002875
1090	0.000275
1102	0.0002825
1114	0.00054
1126	0.0007825
1138	0.000635
1150	0.000425
1162	0.000355
1174	0.000305
1186	0.000295
1198	0.0002975
1210	0.0003075
1222	0.0002675
1234	0.000335
1246	0.000345
1258	0.0003075
1270	0.0003525
1282	0.00043
1294	0.00049
1306	0.00056
1318	0.0005175
1330	0.000555
1342	0.0007075
1354	0.000975
1366	0.00175
1378	0.0026625
1390	0.0024425
1402	0.0010625
1414	0.000605
1426	0.00063
1438	0.00099
1450	0.0019625
1462	0.003015
1474	0.0024875
1486	0.0011925
1498	0.0005525
1510	0.0003
1522	0.0001975
1534	0.0001775
1546	0.0001375
1558	0.0001
1570	0.0001375
1582	0.0001775
1594	0.0001375
1606	0.00015
1618	0.0001425
1630	0.00015
1642	0.0001225
1654	9e-05
1666	0.0001225
1678	0.0001175
1690	0.0001125
1702	8.5e-05
1714	9.25e-05
1726	7e-05
1738	6.75e-05
1750	3.25e-05
1762	4.25e-05
1774	6.75e-05
1786	5e-05
1798	4.5e-05
1810	4.75e-05
1822	5.25e-05
1834	6e-05
1846	2.25e-05
1858	5.25e-05
1870	5e-05
1882	3.25e-05
1894	4.25e-05
1906	2.5e-05
1918	2.75e-05
1930	4e-05
1942	3.5e-05
1954	2.75e-05
1966	3e-05
1978	3e-05
1990	5.5e-05
2002	5.75e-05
2014	2.75e-05
2026	5.5e-05
2038	3.75e-05
2050	6.25e-05
2062	2.75e-05
2074	3.75e-05
2086	4.5e-05
2098	3.25e-05
2110	4.25e-05
2122	2e-05
2134	4.75e-05
2146	2.5e-05
2158	5.5e-05
2170	3.25e-05
2182	5.25e-05
2194	2.25e-05
2206	2.75e-05
2218	1.75e-05
2230	5e-06
2242	4e-05
2254	1.25e-05
2266	5e-05
2278	4.25e-05
2290	5e-05
2302	5.75e-05
2314	5e-05
2326	5.5e-05
2338	6.5e-05
2350	8.25e-05
2362	6.75e-05
2374	7.25e-05
2386	6.5e-05
2398	6.25e-05
2410	7.5e-05
2422	9.25e-05
2434	7.25e-05
2446	5.75e-05
2458	7.75e-05
2470	9.5e-05
2482	8.75e-05
2494	0.00011
2506	8.5e-05
2518	0.00011
2530	9e-05
2542	0.0001125
2554	0.00014
2566	0.0001625
2578	0.00023
2590	0.0002525
2602	0.00026
2614	0.00029
2626	0.000265
2638	0.00027
2650	0.0003025
2662	0.0003125
2674	0.0003525
2686	0.0003275
2698	0.0003275
2710	0.000355
2722	0.0004125
2734	0.000495
2746	0.000515
2758	0.0005125
2770	0.0005375
2782	0.000595
2794	0.00072
2806	0.000945
2818	0.00124
2830	0.0016325
2842	0.002635
2854	0.0052775
2866	0.00905
2878	0.0119825
2890	0.01132
2902	0.0101775
2914	0.0130475
2926	0.0187275
2938	0.0208125
2950	0.018715
2962	0.0239175
2974	0.0204625
2986	0.0086975
2998	0.003625
3010	0.0020625
3022	0.0014225
3034	0.0010825
3046	0.0008975
3058	0.00075
3070	0.0006825
3082	0.000635
3094	0.0005675
3106	0.0004925
3118	0.00049
3130	0.000425
3142	0.0004275
3154	0.000425
3166	0.0003875
3178	0.00038
3190	0.000335
3202	0.00028
3214	0.000225
3226	0.000175
3238	0.000165
3250	0.00017
3262	0.0001675
3274	0.000135
3286	0.0001225
3298	9.25e-05
3310	8e-05
3322	9e-05
3334	4e-05
3346	0.000125
3358	0.00015
3370	0.0001525
3382	0.000135
3394	0.0001275
3406	0.0001225
3418	0.00011
3430	0.000125
3442	9.25e-05
3454	9.75e-05
3466	0.0001125
3478	0.0001325
3490	7.5e-05
3502	8.75e-05
3514	0.00011
3526	0.0001075
3538	9.75e-05
3550	7e-05
3562	0.000115
3574	8.25e-05
3586	0.000115
3598	0.000135
3610	9e-05
3622	0.0001325
3634	0.000105
3646	0.000115
3658	0.0001575
3670	0.00011
3682	0.0001275
3694	0.000125
3706	9.5e-05
3718	0.00011
3730	0.000105
3742	0.00012
3754	0.000105
3766	0.0001075
3778	0.000125
3790	0.0001775
3802	0.000145
3814	0.0001625
3826	0.00017
3838	0.00015
