Infrared Spectrum: 3-Methyl-4-penten-1-ol acetate
Formula: C 8 H 14 O 2
CAS: 71487-16-6
State: gas
Instrument: HP-GC/MS/IRD
Origin: NIST Mass Spectrometry Data Center
1/CM	ABSORBANCE
550	0.0001105
562	9.1e-05
574	4.55e-05
586	0.000299
598	0.0007995
610	0.0012025
622	0.001209
634	0.001534
646	0.001248
658	0.000962
670	0.001274
682	0.001274
694	0.000624
706	0.000338
718	0.000234
730	0.000299
742	0.0003315
754	0.000481
766	0.0006045
778	0.0006175
790	0.0005655
802	0.000715
814	0.00091
826	0.001079
838	0.0011245
850	0.0012025
862	0.001326
874	0.001495
886	0.0019825
898	0.0031525
910	0.006461
922	0.007202
934	0.0039325
946	0.0032045
958	0.003458
970	0.003484
982	0.004355
994	0.006513
1006	0.007423
1018	0.008307
1030	0.0099645
1042	0.0124215
1054	0.0122525
1066	0.0091195
1078	0.007228
1090	0.005824
1102	0.0043615
1114	0.0031785
1126	0.002652
1138	0.0022685
1150	0.0019695
1162	0.0021125
1174	0.0026975
1186	0.004251
1198	0.0086385
1210	0.021073
1222	0.050531
1234	0.0642655
1246	0.03744
1258	0.0174525
1270	0.0111085
1282	0.006916
1294	0.0046865
1306	0.0035425
1318	0.0027885
1330	0.002496
1342	0.002613
1354	0.0049985
1366	0.011622
1378	0.0101335
1390	0.007111
1402	0.004563
1414	0.0033215
1426	0.0032045
1438	0.0030615
1450	0.0035035
1462	0.004004
1474	0.0032955
1486	0.0020865
1498	0.001378
1510	0.001131
1522	0.0009815
1534	0.000858
1546	0.0007865
1558	0.000754
1570	0.00078
1582	0.0007865
1594	0.0008255
1606	0.0009165
1618	0.001183
1630	0.0019305
1642	0.002483
1654	0.001729
1666	0.0013065
1678	0.0012935
1690	0.0015535
1702	0.0021255
1714	0.003406
1726	0.0060125
1738	0.0119795
1750	0.026442
1762	0.037973
1774	0.02275
1786	0.009113
1798	0.0040885
1810	0.002301
1822	0.0017485
1834	0.00156
1846	0.0011635
1858	0.0007865
1870	0.000611
1882	0.000494
1894	0.0004355
1906	0.0003575
1918	0.0003315
1930	0.0003055
1942	0.0002665
1954	0.00026
1966	0.0002665
1978	0.000299
1990	0.000299
2002	0.000312
2014	0.000325
2026	0.000325
2038	0.000338
2050	0.0003445
2062	0.000351
2074	0.000338
2086	0.000312
2098	0.00026
2110	0.0002145
2122	0.000195
2134	0.000182
2146	0.0001625
2158	0.000156
2170	0.00013
2182	0.0001105
2194	8.45e-05
2206	8.45e-05
2218	5.85e-05
2230	7.15e-05
2242	4.55e-05
2254	7.15e-05
2266	8.45e-05
2278	6.5e-05
2290	5.85e-05
2302	7.15e-05
2314	7.15e-05
2326	5.2e-05
2338	3.9e-05
2350	3.9e-05
2362	1.95e-05
2374	5.2e-05
2386	3.9e-05
2398	5.2e-05
2410	3.9e-05
2422	7.8e-05
2434	7.8e-05
2446	9.1e-05
2458	9.75e-05
2470	0.00013
2482	9.1e-05
2494	5.2e-05
2506	2.6e-05
2518	1.3e-05
2530	6.5e-06
2542	1.95e-05
2554	1.95e-05
2566	5.2e-05
2578	3.9e-05
2590	9.1e-05
2602	9.1e-05
2614	0.000104
2626	6.5e-05
2638	5.2e-05
2650	8.45e-05
2662	7.15e-05
2674	8.45e-05
2686	0.000117
2698	0.000117
2710	0.00013
2722	0.000208
2734	0.000234
2746	0.000247
2758	0.0002275
2770	0.0002145
2782	0.000247
2794	0.0002925
2806	0.000338
2818	0.0004875
2830	0.0007345
2842	0.001196
2854	0.001794
2866	0.00299
2878	0.00455
2890	0.004992
2902	0.00533
2914	0.006708
2926	0.008138
2938	0.00949
2950	0.0103545
2962	0.0133705
2974	0.0162175
2986	0.0106925
2998	0.005811
3010	0.003575
3022	0.0022295
3034	0.0016185
3046	0.0014885
3058	0.0016965
3070	0.0023465
3082	0.003601
3094	0.0030355
3106	0.0012675
3118	0.000689
3130	0.000481
3142	0.0003575
3154	0.000299
3166	0.00026
3178	0.0002405
3190	0.0001885
3202	0.0001885
3214	0.00013
3226	0.0001235
3238	0.000104
3250	7.8e-05
3262	6.5e-05
3274	9.75e-05
3286	7.8e-05
3298	7.8e-05
3310	8.45e-05
3322	5.85e-05
3334	7.8e-05
3346	9.1e-05
3358	7.15e-05
3370	2.6e-05
3382	5.85e-05
3394	4.55e-05
3406	6.5e-05
3418	0.0001105
3430	9.1e-05
3442	9.1e-05
3454	0.0001105
3466	0.0001495
3478	0.000234
3490	0.000351
3502	0.0005135
3514	0.0004615
3526	0.0002925
3538	0.000182
3550	0.000104
3562	9.1e-05
3574	7.15e-05
3586	5.2e-05
3598	5.2e-05
3610	3.25e-05
3622	6.5e-05
3634	1.95e-05
3646	6.5e-05
3658	5.85e-05
3670	7.15e-05
3682	9.1e-05
3694	1.95e-05
3706	7.15e-05
3718	5.2e-05
3730	3.25e-05
3742	4.55e-05
3754	5.2e-05
3766	6.5e-05
3778	7.15e-05
3790	9.75e-05
3802	5.85e-05
3814	7.15e-05
3826	6.5e-05
3838	8.45e-05
