Infrared Spectrum: 4-Chloro-3-methylaniline
Formula: C 7 H 8 Cl N
CAS: 7149-75-9
State: gas
Origin: EPA-IR VAPOR PHASE LIBRARY
1/CM	ABSORBANCE
549.8	0.02114
559.445	0.02504
569.09	0.02295
578.734	0.02123
588.379	0.0183
598.024	0.01906
607.669	0.02238
617.313	0.04621
626.958	0.09232
636.603	0.09536
646.248	0.0459
655.893	0.03031
665.537	0.04757
675.182	0.0537
684.827	0.0427
694.472	0.03396
704.116	0.02623
713.761	0.02031
723.406	0.01726
733.051	0.01874
742.695	0.01869
752.34	0.01655
761.985	0.01669
771.63	0.01681
781.275	0.02354
790.919	0.04153
800.564	0.06716
810.209	0.04584
819.854	0.02752
829.498	0.02202
839.143	0.02949
848.788	0.04267
858.433	0.03102
868.078	0.02051
877.722	0.01374
887.367	0.0098
897.012	0.0081
906.657	0.00714
916.301	0.00716
925.946	0.00819
935.591	0.0087
945.236	0.00922
954.88	0.00942
964.525	0.00912
974.17	0.00948
983.815	0.00996
993.46	0.01209
1003.1	0.01535
1012.75	0.01463
1022.39	0.01234
1032.04	0.01613
1041.68	0.03857
1051.33	0.06104
1060.97	0.05157
1070.62	0.02266
1080.26	0.01606
1089.91	0.0214
1099.55	0.02132
1109.2	0.01853
1118.84	0.01759
1128.49	0.02058
1138.13	0.03731
1147.78	0.03753
1157.42	0.02401
1167.07	0.03559
1176.71	0.03928
1186.36	0.01981
1196	0.00999
1205.64	0.00953
1215.29	0.00908
1224.93	0.01239
1234.58	0.02253
1244.22	0.04072
1253.87	0.0466
1263.51	0.0303
1273.16	0.01597
1282.8	0.02158
1292.45	0.0469
1302.09	0.07154
1311.74	0.0565
1321.38	0.01566
1331.03	0.00705
1340.67	0.00576
1350.32	0.00628
1359.96	0.00829
1369.61	0.00956
1379.25	0.01054
1388.9	0.01049
1398.54	0.00964
1408.18	0.01377
1417.83	0.02484
1427.47	0.03587
1437.12	0.0366
1446.76	0.0305
1456.41	0.0325
1466.05	0.06241
1475.7	0.13078
1485.34	0.15356
1494.99	0.09989
1504.63	0.04739
1514.28	0.02299
1523.92	0.02055
1533.57	0.02135
1543.21	0.02033
1552.86	0.02036
1562.5	0.02721
1572.15	0.03894
1581.79	0.04425
1591.44	0.04305
1601.08	0.04936
1610.73	0.07865
1620.37	0.13881
1630.01	0.14056
1639.66	0.06713
1649.3	0.02323
1658.95	0.01405
1668.59	0.01153
1678.24	0.01037
1687.88	0.00904
1697.53	0.00768
1707.17	0.00645
1716.82	0.00684
1726.46	0.00714
1736.11	0.00664
1745.75	0.00497
1755.4	0.00392
1765.04	0.00363
1774.69	0.00362
1784.33	0.0033
1793.98	0.00329
1803.62	0.00299
1813.27	0.00284
1822.91	0.00279
1832.55	0.00379
1842.2	0.00533
1851.84	0.00666
1861.49	0.0064
1871.13	0.00475
1880.78	0.00398
1890.42	0.00348
1900.07	0.00345
1909.71	0.00314
1919.36	0.0034
1929	0.00333
1938.65	0.00313
1948.29	0.00269
1957.94	0.00206
1967.58	0.00265
1977.23	0.00282
1986.87	0.00261
1996.52	0.00246
2006.16	0.00231
2015.81	0.00211
2025.45	0.00217
2035.1	0.00217
2044.74	0.00214
2054.38	0.00227
2064.03	0.00231
2073.67	0.0022
2083.32	0.00225
2092.96	0.00188
2102.61	0.00199
2112.25	0.00146
2121.9	0.00162
2131.54	0.00173
2141.19	0.00144
2150.83	0.0016
2160.48	0.00151
2170.12	0.0019
2179.77	0.00182
2189.41	0.00185
2199.06	0.00171
2208.7	0.00162
2218.35	0.00169
2227.99	0.00182
2237.64	0.00155
2247.28	0.00176
2256.92	0.00183
2266.57	0.00163
2276.21	0.0014
2285.86	0.00167
2295.5	0.00162
2305.15	0.00152
2314.79	0.00139
2324.44	0.00142
2334.08	0.00138
2343.73	0.00137
2353.37	0.00152
2363.02	0.0011306
2372.66	0.00103
2382.31	0.00125
2391.95	0.00131
2401.6	0.00133
2411.24	0.00128
2420.89	0.00177
2430.53	0.00137
2440.18	0.00129
2449.82	0.00134
2459.47	0.0012113
2469.11	0.00166
2478.75	0.00132
2488.4	0.00125
2498.04	0.00123
2507.69	0.0010957
2517.33	0.0008907
2526.98	0.0009488
2536.62	0.00142
2546.27	0.00146
2555.91	0.00185
2565.56	0.00136
2575.2	0.00181
2584.85	0.0011548
2594.49	0.00123
2604.14	0.0010741
2613.78	0.00132
2623.43	0.0011764
2633.07	0.0009917
2642.72	0.0009214
2652.36	0.0009599
2662.01	0.00131
2671.65	0.0011587
2681.29	0.00132
2690.94	0.00148
2700.58	0.00152
2710.23	0.0014
2719.87	0.0013
2729.52	0.00131
2739.16	0.00241
2748.81	0.00226
2758.45	0.00182
2768.1	0.0011869
2777.74	0.00158
2787.39	0.0015
2797.03	0.00145
2806.68	0.00151
2816.32	0.00149
2825.97	0.00244
2835.61	0.0034
2845.26	0.00509
2854.9	0.00715
2864.55	0.00958
2874.19	0.01038
2883.84	0.00875
2893.48	0.00803
2903.12	0.0089
2912.77	0.01236
2922.41	0.01869
2932.06	0.02538
2941.7	0.02452
2951.35	0.01967
2960.99	0.01664
2970.64	0.01716
2980.28	0.01797
2989.93	0.01814
2999.57	0.01831
3009.22	0.0264
3018.86	0.03247
3028.51	0.02844
3038.15	0.02189
3047.8	0.02088
3057.44	0.01978
3067.09	0.01538
3076.73	0.01068
3086.38	0.00847
3096.02	0.00773
3105.67	0.00662
3115.31	0.00432
3124.95	0.00269
3134.6	0.00191
3144.24	0.0014
3153.89	0.00175
3163.53	0.00125
3173.18	0.00142
3182.82	0.00177
3192.47	0.00116
3202.11	0.00187
3211.76	0.0023
3221.4	0.00294
3231.05	0.00258
3240.69	0.00285
3250.34	0.00247
3259.98	0.0012009
3269.63	0.00127
3279.27	0.0010114
3288.92	0.0008542
3298.56	0.0006938
3308.21	0.00024323
3317.85	0.0008403
3327.49	0.0005199
3337.14	0.0002098
3346.78	0.0008199
3356.43	0.0006662
3366.07	0.00135
3375.72	0.00244
3385.36	0.00485
3395.01	0.01023
3404.65	0.01685
3414.3	0.01976
3423.94	0.0127
3433.59	0.00638
3443.23	0.00355
3452.88	0.0027
3462.52	0.00415
3472.17	0.00686
3481.81	0.01078
3491.46	0.01187
3501.1	0.01183
3510.75	0.00787
3520.39	0.0054
3530.04	0.0024
3539.68	0.0015
3549.32	0.0012239
3558.97	0.0009639
3568.61	0.0010061
3578.26	0.0007237
3587.9	0.0006324
3597.55	0.0006043
3607.19	0.0009995
3616.84	0.0007059
3626.48	0.001039
3636.13	0.0003501
3645.77	0.0005258
3655.42	0.0003772
3665.06	0.0010017
3674.71	0.0002161
3684.35	0.0002089
3694	0.0005273
3703.64	0.0008327
3713.29	0.0007533
3722.93	0.0010531
3732.58	0.0007338
3742.22	0.0010577
3751.86	0.000474
3761.51	0.0007563
3771.15	0.0009331
3780.8	0.0009372
3790.44	0.0006877
3800.09	0.000989
3809.73	0.0008199
3819.38	0.0007089
3829.02	0.0010259
3838.67	0.0007278
3848.31	0.0011543
3857.96	0.00266
3867.6	0.00205
3877.25	0.0010924
3886.89	0.00183
3896.54	0.0011065
3906.18	0.0010971
3915.83	0.0001851
3925.47	0.0009946
3935.12	0.00127
3944.76	0.0010909
3954.41	0.00157
3964.05	0.00203
3973.69	0.00145
3983.34	0.0009876
3992.98	0.00206
