Infrared Spectrum: ACETIC ACID, (3-METHYLUREIDO)-, ETHYL ESTER
Formula: C6 H12 N2 O3
CAS: 7150-62-1
State: SOLID (0.7 mg / 500 mg KBr DISC)
Class: COBLENTZ III
Instrument: PERKIN-ELMER 221 (GRATING)
Instrument parameters: FILTER CHANGE AT 2490, 980 CM^-^1, GRATING FOR 4000-1428 CM^-^1, NaCl PRISM FOR 1428-650 CM^-^1
Sampling: TRANSMISSION
Resolution: 4
Origin: SOUTHERN RESEARCH INSTITUTE
1/CM	TRANSMITTANCE
586.219	0.492
595.445	0.481
604.67	0.472
613.896	0.469
623.121	0.474
632.347	0.483
641.572	0.512
650.798	0.554
660.023	0.617
669.249	0.675
678.474	0.743
687.7	0.763
696.925	0.765
706.151	0.775
715.376	0.776
724.602	0.821
733.827	0.912
743.053	0.919
752.279	0.913
761.504	0.871
770.73	0.765
779.955	0.845
789.181	0.948
798.406	0.945
807.632	0.947
816.857	0.976
826.083	0.979
835.308	0.976
844.534	0.97
853.759	0.933
862.985	0.779
872.21	0.858
881.436	0.947
890.661	0.918
899.887	0.841
909.112	0.861
918.338	0.841
927.564	0.931
936.789	0.929
946.015	0.92
955.24	0.913
964.466	0.893
973.691	0.864
982.917	0.839
992.142	0.809
1001.37	0.729
1010.59	0.554
1019.82	0.379
1029.04	0.415
1038.27	0.653
1047.5	0.718
1056.72	0.636
1065.95	0.512
1075.17	0.591
1084.4	0.667
1093.62	0.594
1102.85	0.623
1112.07	0.583
1121.3	0.611
1130.53	0.549
1139.75	0.467
1148.98	0.318
1158.2	0.202
1167.43	0.103
1176.65	0.06
1185.88	0.073
1195.1	0.07
1204.33	0.113
1213.55	0.268
1222.78	0.424
1232.01	0.519
1241.23	0.576
1250.46	0.55
1259.68	0.511
1268.91	0.523
1278.13	0.44
1287.36	0.341
1296.58	0.384
1305.81	0.551
1315.04	0.648
1324.26	0.711
1333.49	0.752
1342.71	0.761
1351.94	0.717
1361.16	0.704
1370.39	0.461
1379.61	0.471
1388.84	0.588
1398.07	0.624
1407.29	0.341
1416.52	0.559
1425.74	0.685
1434.97	0.755
1444.19	0.633
1453.42	0.604
1462.64	0.645
1471.87	0.648
1481.1	0.635
1490.32	0.747
1499.55	0.723
1508.77	0.646
1518	0.598
1527.22	0.462
1536.45	0.471
1545.67	0.432
1554.9	0.332
1564.12	0.262
1573.35	0.164
1582.58	0.104
1591.8	0.061
1601.03	0.056
1610.25	0.052
1619.48	0.038
1628.7	0.028
1637.93	0.031
1647.15	0.049
1656.38	0.122
1665.61	0.196
1674.83	0.273
1684.06	0.347
1693.28	0.31
1702.51	0.395
1711.73	0.527
1720.96	0.548
1730.18	0.47
1739.41	0.239
1748.64	0.099
1757.86	0.104
1767.09	0.166
1776.31	0.376
1785.54	0.467
1794.76	0.525
1803.99	0.569
1813.21	0.607
1822.44	0.628
1831.67	0.652
1840.89	0.672
1850.12	0.685
1859.34	0.708
1868.57	0.729
1877.79	0.738
1887.02	0.747
1896.24	0.751
1905.47	0.763
1914.7	0.768
1923.92	0.779
1933.15	0.789
1942.37	0.794
1951.6	0.8
1960.82	0.81
1970.05	0.813
1979.27	0.819
1988.5	0.824
1997.72	0.829
2006.95	0.833
2016.18	0.836
2025.4	0.837
2034.63	0.836
2043.85	0.835
2053.08	0.836
2062.3	0.838
2071.53	0.841
2080.75	0.843
2089.98	0.845
2099.21	0.846
2108.43	0.848
2117.66	0.851
2126.88	0.855
2136.11	0.859
2145.33	0.861
2154.56	0.864
2163.78	0.864
2173.01	0.865
2182.24	0.866
2191.46	0.868
2200.69	0.868
2209.91	0.869
2219.14	0.869
2228.36	0.868
2237.59	0.867
2246.81	0.865
2256.04	0.865
2265.27	0.866
2274.49	0.867
2283.72	0.867
2292.94	0.867
2302.17	0.866
2311.39	0.864
2320.62	0.865
2329.84	0.866
2339.07	0.864
2348.29	0.854
2357.52	0.852
2366.75	0.855
2375.97	0.861
2385.2	0.868
2394.42	0.869
2403.65	0.868
2412.87	0.869
2422.1	0.868
2431.32	0.866
2440.55	0.868
2449.78	0.868
2459	0.865
2468.23	0.863
2477.45	0.861
2486.68	0.861
2495.9	0.864
2505.13	0.865
2514.35	0.866
2523.58	0.866
2532.81	0.864
2542.03	0.859
2551.26	0.855
2560.48	0.849
2569.71	0.846
2578.93	0.847
2588.16	0.85
2597.38	0.856
2606.61	0.858
2615.84	0.86
2625.06	0.861
2634.29	0.862
2643.51	0.861
2652.74	0.86
2661.96	0.859
2671.19	0.858
2680.41	0.855
2689.64	0.852
2698.86	0.848
2708.09	0.844
2717.32	0.837
2726.54	0.838
2735.77	0.841
2744.99	0.842
2754.22	0.845
2763.44	0.845
2772.67	0.841
2781.89	0.836
2791.12	0.823
2800.35	0.79
2809.57	0.76
2818.8	0.782
2828.02	0.789
2837.25	0.778
2846.47	0.761
2855.7	0.754
2864.92	0.724
2874.15	0.659
2883.38	0.665
2892.6	0.653
2901.83	0.574
2911.05	0.583
2920.28	0.617
2929.5	0.527
2938.73	0.449
2947.95	0.493
2957.18	0.501
2966.41	0.492
2975.63	0.524
2984.86	0.443
2994.08	0.382
3003.31	0.511
3012.53	0.578
3021.76	0.591
3030.98	0.599
3040.21	0.619
3049.44	0.648
3058.66	0.666
3067.89	0.684
3077.11	0.703
3086.34	0.71
3095.56	0.716
3104.79	0.724
3114.01	0.717
3123.24	0.699
3132.46	0.668
3141.69	0.614
3150.92	0.596
3160.14	0.598
3169.37	0.601
3178.59	0.607
3187.82	0.613
3197.04	0.62
3206.27	0.633
3215.49	0.635
3224.72	0.617
3233.95	0.598
3243.17	0.56
3252.4	0.526
3261.62	0.485
3270.85	0.445
3280.07	0.403
3289.3	0.36
3298.52	0.324
3307.75	0.279
3316.98	0.231
3326.2	0.181
3335.43	0.138
3344.65	0.092
3353.88	0.092
3363.1	0.109
3372.33	0.137
3381.55	0.165
3390.78	0.213
3400.01	0.255
3409.23	0.293
3418.46	0.334
3427.68	0.366
3436.91	0.399
3446.13	0.434
3455.36	0.467
3464.58	0.487
3473.81	0.498
3483.03	0.518
3492.26	0.529
3501.49	0.545
3510.71	0.565
3519.94	0.578
3529.16	0.59
3538.39	0.6
3547.61	0.61
3556.84	0.617
3566.06	0.624
3575.29	0.634
3584.52	0.642
3593.74	0.648
3602.97	0.654
3612.19	0.665
3621.42	0.668
3630.64	0.673
3639.87	0.678
3649.09	0.681
3658.32	0.685
3667.55	0.686
3676.77	0.688
3686	0.695
3695.22	0.697
3704.45	0.699
3713.67	0.7
3722.9	0.7
3732.12	0.7
3741.35	0.698
3750.58	0.7
3759.8	0.704
3769.03	0.707
3778.25	0.707
3787.48	0.707
3796.7	0.708
3805.93	0.708
3815.15	0.708
3824.38	0.707
3833.6	0.707
3842.83	0.707
3852.06	0.706
3861.28	0.705
3870.51	0.705
3879.73	0.706
3888.96	0.707
3898.18	0.707
3907.41	0.707
3916.63	0.707
3925.86	0.707
3935.09	0.707
3944.31	0.707
3953.54	0.708
3962.76	0.708
3971.99	0.707
3981.21	0.707
3990.44	0.707
3999.66	0.707
4008.89	0.706
