Infrared Spectrum: UREA, 1-(2-CYANOETHYL)-3-METHYL-
Formula: C5 H9 N3 O
CAS: 7150-75-6
State: SOLID (0.7 mg / 500 mg KBr DISC)
Class: COBLENTZ III
Instrument: PERKIN-ELMER 221 (GRATING)
Instrument parameters: FILTER CHANGE AT 2490, 980 CM^-^1, GRATING FOR 4000-1428 CM^-^1, NaCl PRISM FOR 1428-650 CM^-^1
Sampling: TRANSMISSION
Resolution: 4
Origin: SOUTHERN RESEARCH INST.
1/CM	TRANSMITTANCE
527.875	0.785
537.096	0.742
546.317	0.713
555.538	0.651
564.759	0.624
573.98	0.63
583.201	0.635
592.422	0.635
601.643	0.632
610.864	0.626
620.085	0.623
629.306	0.621
638.527	0.625
647.748	0.649
656.969	0.669
666.19	0.702
675.411	0.732
684.632	0.76
693.853	0.781
703.074	0.797
712.295	0.809
721.516	0.814
730.737	0.822
739.958	0.827
749.179	0.825
758.4	0.801
767.621	0.832
776.842	0.844
786.063	0.849
795.284	0.851
804.505	0.852
813.726	0.84
822.947	0.849
832.168	0.853
841.389	0.848
850.61	0.844
859.831	0.805
869.052	0.767
878.273	0.839
887.494	0.847
896.715	0.847
905.936	0.845
915.157	0.843
924.378	0.841
933.599	0.84
942.82	0.838
952.041	0.837
961.262	0.835
970.483	0.831
979.704	0.824
988.925	0.794
998.146	0.813
1007.37	0.808
1016.59	0.802
1025.81	0.804
1035.03	0.791
1044.25	0.774
1053.47	0.673
1062.69	0.768
1071.91	0.707
1081.13	0.766
1090.36	0.775
1099.58	0.778
1108.8	0.778
1118.02	0.775
1127.24	0.774
1136.46	0.77
1145.68	0.754
1154.9	0.738
1164.12	0.735
1173.34	0.756
1182.57	0.74
1191.79	0.734
1201.01	0.763
1210.23	0.732
1219.45	0.723
1228.67	0.718
1237.89	0.676
1247.11	0.602
1256.33	0.529
1265.55	0.486
1274.78	0.526
1284	0.611
1293.22	0.675
1302.44	0.711
1311.66	0.729
1320.88	0.734
1330.1	0.754
1339.32	0.769
1348.54	0.773
1357.76	0.758
1366.99	0.768
1376.21	0.774
1385.43	0.767
1394.65	0.744
1403.87	0.682
1413.09	0.56
1422.31	0.741
1431.53	0.728
1440.75	0.635
1449.97	0.778
1459.2	0.785
1468.42	0.79
1477.64	0.784
1486.86	0.778
1496.08	0.766
1505.3	0.747
1514.52	0.722
1523.74	0.685
1532.96	0.622
1542.18	0.557
1551.41	0.544
1560.63	0.527
1569.85	0.461
1579.07	0.361
1588.29	0.258
1597.51	0.257
1606.73	0.298
1615.95	0.295
1625.17	0.246
1634.39	0.227
1643.62	0.261
1652.84	0.342
1662.06	0.42
1671.28	0.492
1680.5	0.554
1689.72	0.608
1698.94	0.657
1708.16	0.698
1717.38	0.73
1726.6	0.751
1735.83	0.76
1745.05	0.773
1754.27	0.781
1763.49	0.788
1772.71	0.794
1781.93	0.8
1791.15	0.809
1800.37	0.815
1809.59	0.825
1818.81	0.829
1828.04	0.833
1837.26	0.835
1846.48	0.835
1855.7	0.836
1864.92	0.837
1874.14	0.84
1883.36	0.844
1892.58	0.847
1901.8	0.848
1911.02	0.85
1920.25	0.851
1929.47	0.849
1938.69	0.847
1947.91	0.85
1957.13	0.85
1966.35	0.851
1975.57	0.852
1984.79	0.853
1994.01	0.853
2003.23	0.852
2012.46	0.851
2021.68	0.851
2030.9	0.854
2040.12	0.852
2049.34	0.85
2058.56	0.849
2067.78	0.847
2077	0.848
2086.22	0.848
2095.44	0.847
2104.67	0.847
2113.89	0.848
2123.11	0.848
2132.33	0.849
2141.55	0.848
2150.77	0.851
2159.99	0.847
2169.21	0.845
2178.43	0.844
2187.65	0.843
2196.88	0.841
2206.1	0.841
2215.32	0.841
2224.54	0.833
2233.76	0.778
2242.98	0.722
2252.2	0.814
2261.42	0.834
2270.64	0.836
2279.86	0.841
2289.09	0.842
2298.31	0.839
2307.53	0.834
2316.75	0.83
2325.97	0.83
2335.19	0.833
2344.41	0.834
2353.63	0.831
2362.85	0.834
2372.07	0.838
2381.3	0.837
2390.52	0.834
2399.74	0.837
2408.96	0.839
2418.18	0.838
2427.4	0.835
2436.62	0.834
2445.84	0.832
2455.06	0.83
2464.28	0.829
2473.51	0.829
2482.73	0.829
2491.95	0.829
2501.17	0.828
2510.39	0.829
2519.61	0.831
2528.83	0.832
2538.05	0.831
2547.27	0.831
2556.49	0.831
2565.72	0.823
2574.94	0.821
2584.16	0.822
2593.38	0.824
2602.6	0.825
2611.82	0.826
2621.04	0.829
2630.26	0.829
2639.48	0.828
2648.7	0.825
2657.93	0.827
2667.15	0.828
2676.37	0.828
2685.59	0.826
2694.81	0.821
2704.03	0.817
2713.25	0.817
2722.47	0.814
2731.69	0.81
2740.91	0.817
2750.14	0.817
2759.36	0.815
2768.58	0.811
2777.8	0.808
2787.02	0.8
2796.24	0.791
2805.46	0.781
2814.68	0.788
2823.9	0.784
2833.12	0.778
2842.35	0.763
2851.57	0.75
2860.79	0.755
2870.01	0.75
2879.23	0.742
2888.45	0.735
2897.67	0.732
2906.89	0.723
2916.11	0.705
2925.33	0.685
2934.55	0.669
2943.78	0.644
2953	0.678
2962.22	0.7
2971.44	0.73
2980.66	0.74
2989.88	0.732
2999.1	0.735
3008.32	0.743
3017.54	0.742
3026.76	0.735
3035.99	0.727
3045.21	0.698
3054.43	0.694
3063.65	0.706
3072.87	0.716
3082.09	0.732
3091.31	0.741
3100.53	0.746
3109.75	0.745
3118.97	0.742
3128.2	0.727
3137.42	0.716
3146.64	0.688
3155.86	0.671
3165.08	0.67
3174.3	0.671
3183.52	0.672
3192.74	0.672
3201.96	0.673
3211.18	0.675
3220.41	0.674
3229.63	0.669
3238.85	0.663
3248.07	0.641
3257.29	0.619
3266.51	0.592
3275.73	0.565
3284.95	0.536
3294.17	0.507
3303.39	0.472
3312.62	0.412
3321.84	0.374
3331.06	0.37
3340.28	0.372
3349.5	0.365
3358.72	0.372
3367.94	0.422
3377.16	0.456
3386.38	0.485
3395.6	0.515
3404.83	0.542
3414.05	0.567
3423.27	0.588
3432.49	0.607
3441.71	0.622
3450.93	0.638
3460.15	0.653
3469.37	0.661
3478.59	0.669
3487.81	0.676
3497.04	0.682
3506.26	0.691
3515.48	0.696
3524.7	0.698
3533.92	0.704
3543.14	0.716
3552.36	0.722
3561.58	0.726
3570.8	0.731
3580.02	0.735
3589.25	0.738
3598.47	0.745
3607.69	0.753
3616.91	0.756
3626.13	0.759
3635.35	0.764
3644.57	0.766
3653.79	0.769
3663.01	0.773
3672.23	0.769
3681.46	0.759
3690.68	0.77
3699.9	0.775
3709.12	0.776
3718.34	0.778
3727.56	0.778
3736.78	0.775
3746	0.775
3755.22	0.779
3764.44	0.78
3773.67	0.778
3782.89	0.78
3792.11	0.78
3801.33	0.775
3810.55	0.777
3819.77	0.775
3828.99	0.775
3838.21	0.776
3847.43	0.776
3856.65	0.771
3865.88	0.775
3875.1	0.774
3884.32	0.776
3893.54	0.775
3902.76	0.779
3911.98	0.778
3921.2	0.778
3930.42	0.776
3939.64	0.778
3948.86	0.775
3958.09	0.778
3967.31	0.778
3976.53	0.778
3985.75	0.778
3994.97	0.777
