Infrared Spectrum: Carbamic acid, vinyl-, tert-butyl ester
Formula: C7 H13 N O2
CAS: 7150-72-3
State: SOLID (SPLIT MULL), FLUOROLUBE FOR 3800-1330 CM^-^1, NUJOL FOR 1330-400 CM^-^1
Class: COBLENTZ III
Instrument: BECKMAN IR-9 (GRATING)
Instrument parameters: ORDER CHANGES: 670, 1200, 2000 CM^-^1
Sampling: TRANSMISSION
Resolution: 2
Origin: DOW CHEMICAL COMPANY
1/CM	TRANSMITTANCE
3800	0.7892
3791	0.7901
3782	0.7911
3773	0.7921
3764	0.7932
3755	0.7945
3746	0.7958
3737	0.7972
3728	0.7988
3719	0.8
3710	0.8014
3701	0.8025
3692	0.8039
3683	0.8051
3674	0.8062
3665	0.8067
3656	0.8071
3647	0.8076
3638	0.808
3629	0.8075
3620	0.804
3611	0.8034
3602	0.8086
3593	0.8048
3584	0.8015
3575	0.8051
3566	0.8067
3557	0.8065
3548	0.8064
3539	0.8058
3530	0.8055
3521	0.8054
3512	0.805
3503	0.8037
3494	0.8021
3485	0.7958
3476	0.7735
3467	0.751
3458	0.7526
3449	0.7599
3440	0.7622
3431	0.7582
3422	0.745
3413	0.7246
3404	0.7035
3395	0.6738
3386	0.6346
3377	0.58
3368	0.517
3359	0.4066
3350	0.3432
3341	0.2761
3332	0.1719
3323	0.1461
3314	0.2228
3305	0.3168
3296	0.4029
3287	0.4195
3278	0.478
3269	0.5405
3260	0.5794
3251	0.6062
3242	0.6317
3233	0.6491
3224	0.6626
3215	0.6761
3206	0.6915
3197	0.7037
3188	0.7119
3179	0.7145
3170	0.7085
3161	0.7062
3152	0.7197
3143	0.7398
3134	0.7581
3125	0.7539
3116	0.745
3107	0.7601
3098	0.7612
3089	0.7378
3080	0.7501
3071	0.7715
3062	0.7783
3053	0.7699
3044	0.7612
3035	0.7504
3026	0.7137
3017	0.6754
3008	0.5982
2999	0.5977
2990	0.3389
2981	0.3655
2972	0.378
2963	0.541
2954	0.6197
2945	0.5775
2936	0.5453
2927	0.6039
2918	0.6442
2909	0.668
2900	0.6896
2891	0.7122
2882	0.7193
2873	0.7158
2864	0.7478
2855	0.7707
2846	0.7938
2837	0.8083
2828	0.806
2819	0.8071
2810	0.8097
2801	0.8096
2792	0.8043
2783	0.7988
2774	0.7988
2765	0.8028
2756	0.8086
2747	0.8145
2738	0.8183
2729	0.8234
2720	0.8313
2711	0.8382
2702	0.8427
2693	0.8453
2684	0.844
2675	0.8417
2666	0.8397
2657	0.8386
2648	0.8397
2639	0.8425
2630	0.8431
2621	0.8448
2612	0.8487
2603	0.8517
2594	0.8533
2585	0.8507
2576	0.852
2567	0.8559
2558	0.8587
2549	0.8612
2540	0.8636
2531	0.8646
2522	0.8651
2513	0.8649
2504	0.8648
2495	0.864
2486	0.8628
2477	0.8613
2468	0.8581
2459	0.8551
2450	0.8528
2441	0.8518
2432	0.8536
2423	0.8561
2414	0.8577
2405	0.8601
2396	0.8642
2387	0.865
2378	0.863
2369	0.8612
2360	0.8598
2351	0.8587
2342	0.8575
2333	0.8567
2324	0.8563
2315	0.8557
2306	0.8553
2297	0.8557
2288	0.8621
2279	0.8663
2270	0.8689
2261	0.8715
2252	0.8747
2243	0.8787
2234	0.8835
2225	0.8834
2216	0.8812
2207	0.8791
2198	0.8778
2189	0.8804
2180	0.886
2171	0.8897
2162	0.8935
2153	0.8967
2144	0.8994
2135	0.9018
2126	0.905
2117	0.9075
2108	0.9101
2099	0.9131
2090	0.9111
2081	0.9131
2072	0.9168
2063	0.92
2054	0.9206
2045	0.9189
2036	0.9178
2027	0.9191
2018	0.9199
2009	0.9202
2000	0.9194
1991	0.9165
1982	0.9139
1973	0.9139
1964	0.9154
1955	0.8973
1946	0.9092
1937	0.9183
1928	0.923
1919	0.9257
1910	0.9287
1901	0.9305
1892	0.9306
1883	0.9268
1874	0.9168
1865	0.9014
1856	0.8945
1847	0.8918
1838	0.8906
1829	0.8933
1820	0.8971
1811	0.8951
1802	0.8813
1793	0.8691
1784	0.8556
1775	0.8385
1766	0.8138
1757	0.7653
1748	0.6202
1739	0.4337
1730	0.2552
1721	0.1904
1712	0.0974
1703	0.0395
1694	0.032
1685	0.075
1676	0.222
1667	0.3284
1658	0.2052
1649	0.0235
1640	0.1387
1631	0.4136
1622	0.5579
1613	0.6192
1604	0.6688
1595	0.6981
1586	0.7188
1577	0.7121
1568	0.6824
1559	0.6239
1550	0.5572
1541	0.4349
1532	0.3573
1523	0.1763
1514	0.0869
1505	0.1218
1496	0.1894
1487	0.2831
1478	0.415
1469	0.5267
1460	0.406
1451	0.4672
1442	0.5731
1433	0.6084
1424	0.5932
1415	0.553
1406	0.4242
1397	0.1407
1388	0.3209
1379	0.3516
1370	0.0799
1361	0.3897
1352	0.4609
1343	0.5064
1334	0.5432
1325	0.5679
1316	0.5702
1307	0.5312
1298	0.4577
1289	0.3259
1280	0.1604
1271	0.0778
1262	0.0847
1253	0.0652
1244	0.1149
1235	0.2439
1226	0.3574
1217	0.4068
1208	0.5012
1199	0.3996
1190	0.2351
1181	0.1194
1172	0.0676
1163	0.0471
1154	0.0679
1145	0.1567
1136	0.3482
1127	0.4775
1118	0.5626
1109	0.521
1100	0.1829
1091	0.179
1082	0.2121
1073	0.3222
1064	0.4212
1055	0.4974
1046	0.5626
1037	0.5362
1028	0.5812
1019	0.6333
1010	0.6608
1001	0.6764
992	0.6693
983	0.3849
974	0.3695
965	0.6771
956	0.7201
947	0.7386
938	0.6425
929	0.7085
920	0.7878
911	0.8128
902	0.8158
893	0.8076
884	0.7936
875	0.7018
866	0.3442
857	0.1691
848	0.3986
839	0.5852
830	0.7308
821	0.7837
812	0.7943
803	0.7911
794	0.7601
785	0.6173
776	0.5724
767	0.6591
758	0.441
749	0.645
740	0.6483
731	0.6076
722	0.5166
713	0.4841
704	0.6108
695	0.7158
686	0.364
677	0.3814
668	0.5384
659	0.6401
650	0.7132
641	0.7433
632	0.7676
623	0.7861
614	0.8025
605	0.8185
596	0.8328
587	0.8436
578	0.8473
569	0.8421
560	0.833
551	0.8408
542	0.8395
533	0.8318
524	0.8233
515	0.8011
506	0.8188
497	0.8271
488	0.8225
479	0.8036
470	0.7521
461	0.7195
452	0.7401
443	0.7161
434	0.6936
425	0.6012
416	0.5596
407	0.5273
