Infrared Spectrum: BENZOIC ACID, p-(METHYLSULFONAMIDO)-, ETHYL ESTER
Formula: C10 H13 N O4 S
CAS: 7151-77-1
State: SOLID (1 mg / 650 mg KBr DISC)
Class: COBLENTZ III
Instrument: PERKIN-ELMER 221 (GRATING)
Instrument parameters: FILTER CHANGE AT 2490, 980 CM^-^1, GRATING FOR 4000-1428 CM^-^1, NaCl PRISM FOR 1428-650 CM^-^1
Sampling: TRANSMISSION
Resolution: 4
Origin: SOUTHERN RESEARCH INSTITUTE
1/CM	TRANSMITTANCE
614.431	0.622
623.599	0.627
632.767	0.632
641.935	0.648
651.103	0.674
660.272	0.683
669.44	0.685
678.608	0.619
687.776	0.528
696.944	0.708
706.112	0.705
715.28	0.694
724.448	0.677
733.616	0.563
742.784	0.491
751.953	0.491
761.121	0.331
770.289	0.651
779.457	0.66
788.625	0.648
797.793	0.587
806.961	0.632
816.129	0.676
825.297	0.631
834.465	0.664
843.634	0.401
852.802	0.596
861.97	0.624
871.138	0.628
880.306	0.595
889.474	0.51
898.642	0.403
907.81	0.327
916.978	0.557
926.146	0.659
935.315	0.657
944.483	0.595
953.651	0.319
962.819	0.276
971.987	0.403
981.155	0.68
990.323	0.692
999.491	0.65
1008.66	0.513
1017.83	0.534
1027	0.666
1036.16	0.67
1045.33	0.654
1054.5	0.638
1063.67	0.618
1072.84	0.582
1082	0.517
1091.17	0.412
1100.34	0.312
1109.51	0.3
1118.68	0.412
1127.84	0.267
1137.01	0.115
1146.18	0.254
1155.35	0.461
1164.52	0.538
1173.69	0.421
1182.85	0.609
1192.02	0.625
1201.19	0.622
1210.36	0.512
1219.53	0.382
1228.69	0.361
1237.86	0.544
1247.03	0.515
1256.2	0.301
1265.37	0.166
1274.53	0.187
1283.7	0.257
1292.87	0.332
1302.04	0.261
1311.21	0.337
1320.37	0.227
1329.54	0.26
1338.71	0.475
1347.88	0.492
1357.05	0.372
1366.22	0.572
1375.38	0.556
1384.55	0.506
1393.72	0.5
1402.89	0.562
1412.06	0.69
1421.22	0.72
1430.39	0.7
1439.56	0.664
1448.73	0.668
1457.9	0.596
1467.06	0.498
1476.23	0.593
1485.4	0.673
1494.57	0.506
1503.74	0.276
1512.9	0.538
1522.07	0.72
1531.24	0.712
1540.41	0.705
1549.58	0.685
1558.75	0.664
1567.91	0.585
1577.08	0.497
1586.25	0.529
1595.42	0.241
1604.59	0.316
1613.75	0.548
1622.92	0.613
1632.09	0.638
1641.26	0.6
1650.43	0.554
1659.59	0.519
1668.76	0.421
1677.93	0.207
1687.1	0.146
1696.27	0.292
1705.43	0.435
1714.6	0.551
1723.77	0.638
1732.94	0.693
1742.11	0.729
1751.28	0.747
1760.44	0.764
1769.61	0.772
1778.78	0.774
1787.95	0.777
1797.12	0.777
1806.28	0.785
1815.45	0.791
1824.62	0.796
1833.79	0.799
1842.96	0.802
1852.12	0.805
1861.29	0.806
1870.46	0.803
1879.63	0.8
1888.8	0.796
1897.97	0.793
1907.13	0.789
1916.3	0.787
1925.47	0.785
1934.64	0.781
1943.81	0.78
1952.97	0.782
1962.14	0.785
1971.31	0.787
1980.48	0.787
1989.65	0.785
1998.81	0.784
2007.98	0.782
2017.15	0.78
2026.32	0.779
2035.49	0.778
2044.65	0.777
2053.82	0.776
2062.99	0.774
2072.16	0.773
2081.33	0.772
2090.5	0.77
2099.66	0.77
2108.83	0.769
2118	0.769
2127.17	0.769
2136.34	0.769
2145.5	0.769
2154.67	0.768
2163.84	0.767
2173.01	0.767
2182.18	0.767
2191.34	0.764
2200.51	0.764
2209.68	0.763
2218.85	0.761
2228.02	0.761
2237.18	0.757
2246.35	0.754
2255.52	0.752
2264.69	0.741
2273.86	0.738
2283.03	0.737
2292.19	0.736
2301.36	0.735
2310.53	0.735
2319.7	0.732
2328.87	0.735
2338.03	0.734
2347.2	0.73
2356.37	0.727
2365.54	0.727
2374.71	0.727
2383.87	0.726
2393.04	0.726
2402.21	0.726
2411.38	0.726
2420.55	0.726
2429.71	0.726
2438.88	0.726
2448.05	0.726
2457.22	0.726
2466.39	0.725
2475.56	0.722
2484.72	0.717
2493.89	0.717
2503.06	0.711
2512.23	0.709
2521.4	0.71
2530.56	0.711
2539.73	0.711
2548.9	0.711
2558.07	0.711
2567.24	0.711
2576.4	0.711
2585.57	0.711
2594.74	0.711
2603.91	0.712
2613.08	0.71
2622.24	0.709
2631.41	0.709
2640.58	0.709
2649.75	0.708
2658.92	0.706
2668.09	0.699
2677.25	0.697
2686.42	0.693
2695.59	0.691
2704.76	0.69
2713.93	0.69
2723.09	0.689
2732.26	0.687
2741.43	0.685
2750.6	0.683
2759.77	0.679
2768.93	0.677
2778.1	0.674
2787.27	0.672
2796.44	0.67
2805.61	0.666
2814.78	0.664
2823.94	0.662
2833.11	0.658
2842.28	0.651
2851.45	0.638
2860.62	0.62
2869.78	0.619
2878.95	0.617
2888.12	0.612
2897.29	0.571
2906.46	0.621
2915.62	0.599
2924.79	0.573
2933.96	0.579
2943.13	0.59
2952.3	0.578
2961.46	0.586
2970.63	0.569
2979.8	0.551
2988.97	0.588
2998.14	0.616
3007.31	0.614
3016.47	0.577
3025.64	0.636
3034.81	0.633
3043.98	0.622
3053.15	0.6
3062.31	0.593
3071.48	0.609
3080.65	0.613
3089.82	0.606
3098.99	0.611
3108.15	0.6
3117.32	0.595
3126.49	0.585
3135.66	0.576
3144.83	0.561
3153.99	0.54
3163.16	0.524
3172.33	0.523
3181.5	0.518
3190.67	0.494
3199.84	0.464
3209	0.423
3218.17	0.364
3227.34	0.28
3236.51	0.283
3245.68	0.302
3254.84	0.303
3264.01	0.319
3273.18	0.456
3282.35	0.533
3291.52	0.569
3300.68	0.582
3309.85	0.59
3319.02	0.591
3328.19	0.586
3337.36	0.581
3346.52	0.577
3355.69	0.574
3364.86	0.562
3374.03	0.554
3383.2	0.548
3392.37	0.544
3401.53	0.541
3410.7	0.541
3419.87	0.541
3429.04	0.541
3438.21	0.543
3447.37	0.545
3456.54	0.545
3465.71	0.548
3474.88	0.55
3484.05	0.552
3493.21	0.555
3502.38	0.56
3511.55	0.564
3520.72	0.567
3529.89	0.574
3539.05	0.578
3548.22	0.588
3557.39	0.593
3566.56	0.596
3575.73	0.603
3584.9	0.61
3594.06	0.617
3603.23	0.63
3612.4	0.634
3621.57	0.636
3630.74	0.638
3639.9	0.639
3649.07	0.64
3658.24	0.64
3667.41	0.64
3676.58	0.644
3685.74	0.645
3694.91	0.645
3704.08	0.645
3713.25	0.645
3722.42	0.645
3731.59	0.645
3740.75	0.645
3749.92	0.645
3759.09	0.645
3768.26	0.644
3777.43	0.641
3786.59	0.639
3795.76	0.638
3804.93	0.637
3814.1	0.636
3823.27	0.635
3832.43	0.635
3841.6	0.635
3850.77	0.634
3859.94	0.634
3869.11	0.634
3878.27	0.633
3887.44	0.633
3896.61	0.632
3905.78	0.632
3914.95	0.631
3924.12	0.63
3933.28	0.63
3942.45	0.63
3951.62	0.629
3960.79	0.629
3969.96	0.629
3979.12	0.628
3988.29	0.627
3997.46	0.625
