Infrared Spectrum: BENZOIC ACID, 4-METHYLSULFONYLAMINO-
Formula: C8 H9 N O4 S
CAS: 7151-76-0
State: SOLID (1 mg / 650 mg KBr DISC)
Class: COBLENTZ III
Instrument: PERKIN-ELMER 221 (GRATING)
Instrument parameters: GRATING FOR 4000-1428, FILTERS AT 2490, 980, NaCl PRISM FOR 1428-650 CM^-^1
Sampling: TRANSMISSION
Resolution: 4
Origin: SOUTHERN RESEARCH INSTITUTE
1/CM	TRANSMITTANCE
675.402	0.613
684.002	0.5593
692.601	0.3147
701.201	0.6403
709.8	0.657
718.4	0.65
726.999	0.6193
735.599	0.566
744.198	0.4309
752.798	0.1272
761.397	0.2978
769.997	0.25
778.596	0.5446
787.196	0.5615
795.795	0.5562
804.395	0.625
812.994	0.625
821.594	0.6063
830.193	0.5843
838.793	0.5642
847.392	0.5582
855.992	0.5272
864.591	0.2827
873.191	0.5604
881.79	0.551
890.39	0.5036
898.989	0.4161
907.589	0.2246
916.188	0.4295
924.788	0.4422
933.387	0.3351
941.987	0.3025
950.586	0.3622
959.186	0.3753
967.785	0.2246
976.385	0.2296
984.984	0.3827
993.584	0.5051
1002.18	0.5433
1010.78	0.4971
1019.38	0.5728
1027.98	0.5667
1036.58	0.564
1045.18	0.5527
1053.78	0.5365
1062.38	0.5274
1070.98	0.5185
1079.58	0.5025
1088.18	0.4805
1096.78	0.3997
1105.38	0.374
1113.98	0.3501
1122.58	0.2794
1131.18	0.1876
1139.78	0.0304
1148.37	0.0534
1156.97	0.2586
1165.57	0.3451
1174.17	0.3643
1182.77	0.5077
1191.37	0.51
1199.97	0.4914
1208.57	0.3514
1217.17	0.3935
1225.77	0.497
1234.37	0.4556
1242.97	0.4291
1251.57	0.3819
1260.17	0.328
1268.77	0.2014
1277.37	0.1398
1285.97	0.075
1294.57	0.0833
1303.17	0.0454
1311.77	0.0384
1320.36	0.0878
1328.96	0.1509
1337.56	0.3639
1346.16	0.4368
1354.76	0.4153
1363.36	0.3058
1371.96	0.3068
1380.56	0.3007
1389.16	0.3311
1397.76	0.441
1406.36	0.4211
1414.96	0.217
1423.56	0.2309
1432.16	0.3269
1440.76	0.2761
1449.36	0.2915
1457.96	0.5079
1466.56	0.5971
1475.16	0.6463
1483.76	0.638
1492.35	0.6133
1500.95	0.5615
1509.55	0.4654
1518.15	0.5864
1526.75	0.6154
1535.35	0.614
1543.95	0.6106
1552.55	0.5831
1561.15	0.5656
1569.75	0.5292
1578.35	0.4792
1586.95	0.359
1595.55	0.4009
1604.15	0.112
1612.75	0.3361
1621.35	0.5026
1629.95	0.4875
1638.55	0.4418
1647.15	0.3846
1655.75	0.3019
1664.34	0.1855
1672.94	0.0634
1681.54	0.0522
1690.14	0.0781
1698.74	0.0846
1707.34	0.2579
1715.94	0.4157
1724.54	0.5342
1733.14	0.5762
1741.74	0.607
1750.34	0.618
1758.94	0.613
1767.54	0.608
1776.14	0.607
1784.74	0.604
1793.34	0.602
1801.94	0.602
1810.54	0.6039
1819.14	0.608
1827.74	0.6109
1836.34	0.623
1844.93	0.623
1853.53	0.623
1862.13	0.6202
1870.73	0.6239
1879.33	0.626
1887.93	0.626
1896.53	0.628
1905.13	0.6263
1913.73	0.6231
1922.33	0.6203
1930.93	0.619
1939.53	0.617
1948.13	0.6198
1956.73	0.626
1965.33	0.6296
1973.93	0.634
1982.53	0.633
1991.13	0.633
1999.73	0.633
2008.33	0.63
2016.92	0.628
2025.52	0.6242
2034.12	0.6205
2042.72	0.6122
2051.32	0.6082
2059.92	0.607
2068.52	0.604
2077.12	0.601
2085.72	0.598
2094.32	0.598
2102.92	0.598
2111.52	0.596
2120.12	0.593
2128.72	0.592
2137.32	0.5902
2145.92	0.588
2154.52	0.586
2163.12	0.585
2171.72	0.582
2180.32	0.581
2188.91	0.581
2197.51	0.58
2206.11	0.5762
2214.71	0.5715
2223.31	0.5682
2231.91	0.5645
2240.51	0.561
2249.11	0.5592
2257.71	0.5542
2266.31	0.552
2274.91	0.5462
2283.51	0.5344
2292.11	0.5235
2300.71	0.5175
2309.31	0.5152
2317.91	0.514
2326.51	0.5102
2335.11	0.51
2343.71	0.5074
2352.31	0.5015
2360.9	0.4942
2369.5	0.488
2378.1	0.485
2386.7	0.4842
2395.3	0.4732
2403.9	0.4637
2412.5	0.46
2421.1	0.453
2429.7	0.4474
2438.3	0.444
2446.9	0.44
2455.5	0.4314
2464.1	0.423
2472.7	0.417
2481.3	0.403
2489.9	0.3985
2498.5	0.3862
2507.1	0.3752
2515.7	0.3642
2524.3	0.3572
2532.89	0.3445
2541.49	0.339
2550.09	0.3362
2558.69	0.3413
2567.29	0.3488
2575.89	0.3608
2584.49	0.37
2593.09	0.377
2601.69	0.38
2610.29	0.382
2618.89	0.3812
2627.49	0.3714
2636.09	0.366
2644.69	0.3582
2653.29	0.3532
2661.89	0.35
2670.49	0.352
2679.09	0.3548
2687.69	0.3706
2696.29	0.387
2704.88	0.403
2713.48	0.4002
2722.08	0.4008
2730.68	0.404
2739.28	0.406
2747.88	0.4032
2756.48	0.3952
2765.08	0.386
2773.68	0.384
2782.28	0.3702
2790.88	0.3535
2799.48	0.3447
2808.08	0.3322
2816.68	0.3295
2825.28	0.331
2833.88	0.3338
2842.48	0.3405
2851.08	0.344
2859.68	0.3478
2868.28	0.348
2876.87	0.347
2885.47	0.346
2894.07	0.347
2902.67	0.347
2911.27	0.346
2919.87	0.3387
2928.47	0.332
2937.07	0.3413
2945.67	0.348
2954.27	0.344
2962.87	0.3432
2971.47	0.341
2980.07	0.3395
2988.67	0.337
2997.27	0.3344
3005.87	0.2954
3014.47	0.314
3023.07	0.3191
3031.67	0.3703
3040.27	0.381
3048.87	0.3842
3057.46	0.38
3066.06	0.3735
3074.66	0.3738
3083.26	0.3859
3091.86	0.4069
3100.46	0.4148
3109.06	0.4238
3117.66	0.4413
3126.26	0.45
3134.86	0.4518
3143.46	0.452
3152.06	0.452
3160.66	0.451
3169.26	0.4492
3177.86	0.447
3186.46	0.4425
3195.06	0.4342
3203.66	0.4204
3212.26	0.4122
3220.86	0.4002
3229.45	0.3842
3238.05	0.3707
3246.65	0.3349
3255.25	0.2819
3263.85	0.1787
3272.45	0.0747
3281.05	0.0738
3289.65	0.2353
3298.25	0.33
3306.85	0.3918
3315.45	0.4329
3324.05	0.4601
3332.65	0.4668
3341.25	0.471
3349.85	0.468
3358.45	0.465
3367.05	0.462
3375.65	0.458
3384.25	0.4535
3392.85	0.451
3401.44	0.45
3410.04	0.45
3418.64	0.45
3427.24	0.45
3435.84	0.45
3444.44	0.45
3453.04	0.45
3461.64	0.452
3470.24	0.4545
3478.84	0.461
3487.44	0.462
3496.04	0.4718
3504.64	0.472
3513.24	0.472
3521.84	0.472
3530.44	0.472
3539.04	0.4728
3547.64	0.4768
3556.24	0.4815
3564.84	0.488
3573.43	0.493
3582.03	0.495
3590.63	0.498
3599.23	0.5066
3607.83	0.5118
3616.43	0.5158
3625.03	0.521
3633.63	0.5268
3642.23	0.527
3650.83	0.5315
3659.43	0.541
3668.03	0.539
3676.63	0.5405
3685.23	0.541
3693.83	0.543
3702.43	0.543
3711.03	0.541
3719.63	0.539
3728.23	0.536
3736.83	0.536
3745.42	0.5332
3754.02	0.5345
3762.62	0.537
3771.22	0.537
3779.82	0.534
3788.42	0.533
3797.02	0.533
3805.62	0.532
3814.22	0.5285
3822.82	0.528
3831.42	0.528
3840.02	0.526
3848.62	0.526
3857.22	0.525
3865.82	0.526
3874.42	0.522
3883.02	0.52
3891.62	0.519
3900.22	0.519
3908.82	0.519
3917.41	0.519
3926.01	0.519
3934.61	0.519
3943.21	0.519
3951.81	0.519
3960.41	0.519
3969.01	0.517
3977.61	0.515
3986.21	0.5158
3994.81	0.515
4003.41	0.515
