Infrared Spectrum: 3-Methoxy-p-toluic acid
Formula: C 9 H 10 O 3
CAS: 7151-68-0
State: gas
Origin: EPA-IR VAPOR PHASE LIBRARY
1/CM	ABSORBANCE
549.8	0.005493
559.445	0.004063
569.09	0.004613
578.734	0.005913
588.379	0.007373
598.024	0.009013
607.669	0.015153
617.313	0.017013
626.958	0.008403
636.603	0.002783
646.248	0.001543
655.893	0.001293
665.537	0.0009625
675.182	0.0009453
684.827	0.0011312
694.472	0.002213
704.116	0.010123
713.761	0.017583
723.406	0.007233
733.051	0.002713
742.695	0.004893
752.34	0.013583
761.985	0.023333
771.63	0.013123
781.275	0.004623
790.919	0.002273
800.564	0.001603
810.209	0.001583
819.854	0.001983
829.498	0.002233
839.143	0.001423
848.788	0.0011279
858.433	0.001673
868.078	0.002773
877.722	0.004173
887.367	0.005013
897.012	0.007293
906.657	0.006593
916.301	0.002493
925.946	0.001533
935.591	0.001203
945.236	0.0010457
954.88	0.001193
964.525	0.001443
974.17	0.002023
983.815	0.003533
993.46	0.005073
1003.1	0.005093
1012.75	0.005753
1022.39	0.010023
1032.04	0.017813
1041.68	0.020643
1051.33	0.014323
1060.97	0.010003
1070.62	0.017193
1080.26	0.029243
1089.91	0.033483
1099.55	0.021163
1109.2	0.012013
1118.84	0.017723
1128.49	0.023643
1138.13	0.025063
1147.78	0.035723
1157.42	0.046783
1167.07	0.033623
1176.71	0.022193
1186.36	0.022603
1196	0.020943
1205.64	0.014143
1215.29	0.009683
1224.93	0.011303
1234.58	0.020063
1244.22	0.036343
1253.87	0.041113
1263.51	0.025623
1273.16	0.018603
1282.8	0.018373
1292.45	0.017813
1302.09	0.015733
1311.74	0.013213
1321.38	0.013113
1331.03	0.018473
1340.67	0.023463
1350.32	0.019193
1359.96	0.013623
1369.61	0.011083
1379.25	0.010393
1388.9	0.011633
1398.54	0.020443
1408.18	0.031343
1417.83	0.024013
1427.47	0.011533
1437.12	0.007123
1446.76	0.007423
1456.41	0.011623
1466.05	0.014783
1475.7	0.012013
1485.34	0.008583
1494.99	0.010933
1504.63	0.014123
1514.28	0.010483
1523.92	0.004733
1533.57	0.003123
1543.21	0.002843
1552.86	0.003423
1562.5	0.005033
1572.15	0.008443
1581.79	0.012053
1591.44	0.010943
1601.08	0.008573
1610.73	0.007983
1620.37	0.005633
1630.01	0.002953
1639.66	0.002013
1649.3	0.002043
1658.95	0.002043
1668.59	0.001723
1678.24	0.001653
1687.88	0.002193
1697.53	0.003843
1707.17	0.005893
1716.82	0.006053
1726.46	0.006693
1736.11	0.014973
1745.75	0.053073
1755.4	0.111253
1765.04	0.084543
1774.69	0.016823
1784.33	0.007243
1793.98	0.005753
1803.62	0.005893
1813.27	0.005013
1822.91	0.002633
1832.55	0.001343
1842.2	0.0010387
1851.84	0.0010047
1861.49	0.001077
1871.13	0.0010657
1880.78	0.0010799
1890.42	0.001183
1900.07	0.001383
1909.71	0.001273
1919.36	0.0009408
1929	0.0007545
1938.65	0.0006844
1948.29	0.0006803
1957.94	0.0006773
1967.58	0.0006984
1977.23	0.0005615
1986.87	0.0005978
1996.52	0.0006826
2006.16	0.0006964
2015.81	0.0007303
2025.45	0.0007132
2035.1	0.0007611
2044.74	0.0009023
2054.38	0.000929
2064.03	0.0008859
2073.67	0.0008759
2083.32	0.0007767
2092.96	0.0006708
2102.61	0.0006454
2112.25	0.0005542
2121.9	0.0005495
2131.54	0.0005661
2141.19	0.0007064
2150.83	0.0007687
2160.48	0.0007801
2170.12	0.0006284
2179.77	0.0005244
2189.41	0.0004621
2199.06	0.0004356
2208.7	0.000418
2218.35	0.0004168
2227.99	0.000432
2237.64	0.0004415
2247.28	0.0004135
2256.92	0.0003513
2266.57	0.0004023
2276.21	0.0004067
2285.86	0.0004095
2295.5	0.0005426
2305.15	0.0005119
2314.79	0.0005536
2324.44	0.0005032
2334.08	0.0004931
2343.73	0.0004879
2353.37	0.0004009
2363.02	0.000391
2372.66	0.000403
2382.31	0.0004266
2391.95	0.0004437
2401.6	0.0005084
2411.24	0.0005036
2420.89	0.0005434
2430.53	0.0005105
2440.18	0.0004714
2449.82	0.0005352
2459.47	0.0004635
2469.11	0.0004945
2478.75	0.0005325
2488.4	0.0006027
2498.04	0.0007429
2507.69	0.000697
2517.33	0.0005773
2526.98	0.0004253
2536.62	0.0004112
2546.27	0.0004631
2555.91	0.000463
2565.56	0.0005109
2575.2	0.0004785
2584.85	0.0005354
2594.49	0.0006086
2604.14	0.0005677
2613.78	0.000609
2623.43	0.0005371
2633.07	0.0005539
2642.72	0.0005741
2652.36	0.0005646
2662.01	0.0004322
2671.65	0.0004788
2681.29	0.0003736
2690.94	0.0003976
2700.58	0.0004951
2710.23	0.0004475
2719.87	0.0004491
2729.52	0.000398
2739.16	0.000442
2748.81	0.0007131
2758.45	0.0005672
2768.1	0.0006306
2777.74	0.0006397
2787.39	0.0007506
2797.03	0.0008971
2806.68	0.0010892
2816.32	0.001503
2825.97	0.002263
2835.61	0.003883
2845.26	0.005183
2854.9	0.004943
2864.55	0.005033
2874.19	0.005043
2883.84	0.004413
2893.48	0.004133
2903.12	0.004503
2912.77	0.005583
2922.41	0.007333
2932.06	0.010383
2941.7	0.012873
2951.35	0.012223
2960.99	0.010863
2970.64	0.008473
2980.28	0.006573
2989.93	0.006263
2999.57	0.007713
3009.22	0.008823
3018.86	0.006003
3028.51	0.004113
3038.15	0.004643
3047.8	0.004233
3057.44	0.002583
3067.09	0.002253
3076.73	0.002623
3086.38	0.002513
3096.02	0.002083
3105.67	0.001503
3115.31	0.0010258
3124.95	0.000858
3134.6	0.000682
3144.24	0.0004208
3153.89	0.0004714
3163.53	0.0003902
3173.18	0.0004157
3182.82	0.0004869
3192.47	0.0003014
3202.11	0.0003345
3211.76	0.0003875
3221.4	0.0002977
3231.05	0.0002552
3240.69	0.0003966
3250.34	0.0003548
3259.98	7.86e-05
3269.63	0.0002668
3279.27	0.0002925
3288.92	0.00021617
3298.56	0.0003125
3308.21	0.00022274
3317.85	0.00018724
3327.49	0.0001672
3337.14	0.0002511
3346.78	0.00024059
3356.43	0.000245
3366.07	0.0004365
3375.72	3.7e-05
3385.36	0.000146884
3395.01	0.000152765
3404.65	0.0002566
3414.3	0.00016912
3423.94	0.0002865
3433.59	0.00023308
3443.23	0.0003138
3452.88	0.00013627
3462.52	0.0002863
3472.17	0.0003261
3481.81	0.0007851
3491.46	0.0010246
3501.1	0.0010279
3510.75	0.0007787
3520.39	0.000654
3530.04	0.0006955
3539.68	0.0005066
3549.32	0.0007205
3558.97	0.0010534
3568.61	0.005333
3578.26	0.028513
3587.9	0.032253
3597.55	0.006493
3607.19	0.001273
3616.84	0.0008143
3626.48	0.0006233
3636.13	0.0003543
3645.77	0.0002665
3655.42	0.000255
3665.06	0.00023281
3674.71	0.0002673
3684.35	0.00020767
3694	0.0001275
3703.64	8.75e-05
3713.29	0.00013786
3722.93	0.00016154
3732.58	0.0002879
3742.22	0.00023605
3751.86	0.00021021
3761.51	0.0004243
3771.15	0.0003288
3780.8	0.0001009
3790.44	0.00023892
3800.09	0.0004209
3809.73	0.0001271
3819.38	0.0001026
3829.02	0.00022804
3838.67	0.00019407
3848.31	0.00017514
3857.96	0.0003726
3867.6	0.0002603
3877.25	0.00022499
3886.89	0.00013751
3896.54	0.0003325
3906.18	0.0001072
3915.83	0.000509
3925.47	0.0001305
3935.12	0.0004279
3944.76	0.00022445
3954.41	0.0003514
3964.05	0.0003009
3973.69	0.0003068
3983.34	0.0003732
3992.98	0.0005771
