Infrared Spectrum: 7H-IMIDAZO[4,5-d]-v-TRIAZIN-4-ONE, HYDRATE
Formula: C4 H3 N5 O  * H2 O
CAS: 7151-03-3
State: SOLID (1 mg / 500 mg KBr DISC)
Class: COBLENTZ III
Instrument: PERKIN-ELMER 621
Sampling: TRANSMISSION
Resolution: 4
Origin: SOUTHERN RESEARCH INSTITUTE
1/CM	TRANSMITTANCE
267.309	0.253
277.808	0.2908
288.306	0.5097
298.805	0.5519
309.304	0.5828
319.802	0.593
330.301	0.5621
340.8	0.5357
351.298	0.7708
361.797	0.7946
372.296	0.8076
382.794	0.809
393.293	0.809
403.792	0.8064
414.29	0.804
424.789	0.801
435.288	0.788
445.786	0.7765
456.285	0.763
466.784	0.7493
477.282	0.7326
487.781	0.7049
498.28	0.6653
508.779	0.5536
519.277	0.6133
529.776	0.7606
540.275	0.7546
550.773	0.7635
561.272	0.7852
571.771	0.763
582.269	0.7337
592.768	0.7008
603.267	0.5879
613.765	0.4437
624.264	0.5277
634.763	0.732
645.261	0.806
655.76	0.817
666.259	0.819
676.757	0.8175
687.256	0.7967
697.755	0.7331
708.253	0.8532
718.752	0.868
729.251	0.8672
739.749	0.8616
750.248	0.8523
760.747	0.8283
771.245	0.7052
781.744	0.8029
792.243	0.8257
802.741	0.8144
813.24	0.8047
823.739	0.7927
834.237	0.7775
844.736	0.7643
855.235	0.7452
865.733	0.714
876.232	0.6711
886.731	0.634
897.229	0.6121
907.728	0.5517
918.227	0.5441
928.725	0.5602
939.224	0.6072
949.723	0.5759
960.221	0.7678
970.72	0.8393
981.219	0.853
991.718	0.851
1002.22	0.847
1012.71	0.832
1023.21	0.815
1033.71	0.7871
1044.21	0.7511
1054.71	0.7044
1065.21	0.6681
1075.71	0.6726
1086.21	0.7611
1096.7	0.7351
1107.2	0.682
1117.7	0.6066
1128.2	0.6436
1138.7	0.809
1149.2	0.8155
1159.7	0.772
1170.19	0.6812
1180.69	0.663
1191.19	0.6353
1201.69	0.5589
1212.19	0.5687
1222.69	0.8571
1233.19	0.8313
1243.69	0.7977
1254.18	0.8182
1264.68	0.8597
1275.18	0.8553
1285.68	0.8394
1296.18	0.8159
1306.68	0.7643
1317.18	0.7382
1327.68	0.6741
1338.17	0.536
1348.67	0.7248
1359.17	0.6686
1369.67	0.5839
1380.17	0.7139
1390.67	0.6105
1401.17	0.4945
1411.66	0.6836
1422.16	0.6581
1432.66	0.6546
1443.16	0.613
1453.66	0.5426
1464.16	0.5979
1474.66	0.8006
1485.16	0.7765
1495.65	0.7478
1506.15	0.6753
1516.65	0.7207
1527.15	0.698
1537.65	0.7394
1548.15	0.7103
1558.65	0.6684
1569.14	0.7268
1579.64	0.7156
1590.14	0.6808
1600.64	0.6337
1611.14	0.5673
1621.64	0.5232
1632.14	0.5328
1642.64	0.4965
1653.13	0.4272
1663.63	0.3418
1674.13	0.2474
1684.63	0.1719
1695.13	0.1591
1705.63	0.2104
1716.13	0.2851
1726.62	0.4071
1737.12	0.5236
1747.62	0.6643
1758.12	0.7491
1768.62	0.772
1779.12	0.793
1789.62	0.814
1800.12	0.822
1810.61	0.8359
1821.11	0.8417
1831.61	0.8479
1842.11	0.8586
1852.61	0.87
1863.11	0.8789
1873.61	0.8819
1884.1	0.8908
1894.6	0.8948
1905.1	0.896
1915.6	0.896
1926.1	0.8976
1936.6	0.895
1947.1	0.892
1957.6	0.891
1968.09	0.89
1978.59	0.885
1989.09	0.879
1999.59	0.8759
2010.09	0.8693
2020.59	0.868
2031.09	0.8653
2041.58	0.862
2052.08	0.861
2062.58	0.8553
2073.08	0.8553
2083.58	0.8556
2094.08	0.8473
2104.58	0.8433
2115.08	0.8366
2125.57	0.8259
2136.07	0.819
2146.57	0.818
2157.07	0.814
2167.57	0.812
2178.07	0.8026
2188.57	0.795
2199.07	0.789
2209.56	0.785
2220.06	0.7816
2230.56	0.7766
2241.06	0.775
2251.56	0.774
2262.06	0.77
2272.56	0.767
2283.05	0.7583
2293.55	0.7483
2304.05	0.7373
2314.55	0.7219
2325.05	0.714
2335.55	0.711
2346.05	0.708
2356.55	0.706
2367.04	0.6983
2377.54	0.689
2388.04	0.677
2398.54	0.6696
2409.04	0.659
2419.54	0.6513
2430.04	0.646
2440.53	0.6376
2451.03	0.6293
2461.53	0.6146
2472.03	0.6043
2482.53	0.5953
2493.03	0.584
2503.53	0.58
2514.03	0.5696
2524.52	0.562
2535.02	0.5503
2545.52	0.546
2556.02	0.5403
2566.52	0.5437
2577.02	0.5514
2587.52	0.5509
2598.01	0.5416
2608.51	0.5233
2619.01	0.5116
2629.51	0.4963
2640.01	0.498
2650.51	0.5081
2661.01	0.5137
2671.51	0.51
2682	0.5107
2692.5	0.515
2703	0.515
2713.5	0.5096
2724	0.4859
2734.5	0.4723
2745	0.4609
2755.49	0.455
2765.99	0.454
2776.49	0.453
2786.99	0.443
2797.49	0.432
2807.99	0.437
2818.49	0.438
2828.99	0.4366
2839.48	0.4467
2849.98	0.4571
2860.48	0.471
2870.98	0.4834
2881.48	0.4939
2891.98	0.4732
2902.48	0.4579
2912.97	0.453
2923.47	0.422
2933.97	0.4073
2944.47	0.4054
2954.97	0.4124
2965.47	0.4317
2975.97	0.4554
2986.47	0.4837
2996.96	0.501
3007.46	0.5
3017.96	0.4926
3028.46	0.4756
3038.96	0.4683
3049.46	0.468
3059.96	0.4646
3070.46	0.4493
3080.95	0.4383
3091.45	0.4333
3101.95	0.4203
3112.45	0.4203
3122.95	0.4234
3133.45	0.426
3143.95	0.426
3154.44	0.4641
3164.94	0.479
3175.44	0.4957
3185.94	0.5067
3196.44	0.5147
3206.94	0.5291
3217.44	0.533
3227.94	0.537
3238.43	0.548
3248.93	0.55
3259.43	0.553
3269.93	0.5567
3280.43	0.5651
3290.93	0.575
3301.43	0.5891
3311.92	0.601
3322.42	0.6137
3332.92	0.6207
3343.42	0.624
3353.92	0.622
3364.42	0.6146
3374.92	0.6049
3385.42	0.599
3395.91	0.588
3406.41	0.5823
3416.91	0.5743
3427.41	0.5636
3437.91	0.5573
3448.41	0.5416
3458.91	0.5156
3469.4	0.4749
3479.9	0.4279
3490.4	0.4254
3500.9	0.4635
3511.4	0.5174
3521.9	0.5684
3532.4	0.6095
3542.9	0.6488
3553.39	0.6936
3563.89	0.7264
3574.39	0.7571
3584.89	0.7904
3595.39	0.8174
3605.89	0.834
3616.39	0.8578
3626.88	0.869
3637.38	0.8787
3647.88	0.882
3658.38	0.882
3668.88	0.879
3679.38	0.8817
3689.88	0.887
3700.38	0.887
3710.87	0.883
3721.37	0.881
3731.87	0.881
3742.37	0.881
3752.87	0.8796
3763.37	0.875
3773.87	0.875
3784.36	0.874
3794.86	0.87
3805.36	0.869
3815.86	0.868
3826.36	0.8643
3836.86	0.861
3847.36	0.8593
3857.86	0.857
3868.35	0.857
3878.85	0.855
3889.35	0.853
3899.85	0.852
3910.35	0.852
3920.85	0.849
3931.35	0.849
3941.84	0.849
3952.34	0.8473
3962.84	0.84
3973.34	0.84
3983.84	0.84
3994.34	0.8397
