Infrared Spectrum: Imidazo[1,2-c]pyrimidine-5(1H)-thione, 1-(2-chloroethyl)-2,3-dihydro-
Formula: C8 H10 Cl N3 S
CAS: 7151-75-9
State: SOLID (1 mg / 650 mg KBr DISC)
Class: COBLENTZ III
Instrument: PERKIN-ELMER 221 (GRATING)
Instrument parameters: FILTER AT 980 CM^-^1. GRATING 4000-1428 CM^-^1, NaCl PRISM 1428-650 CM^-^1
Sampling: TRANSMISSION
Resolution: 2
Origin: SOUTHERN RESEARCH INSTITUTE
1/CM	TRANSMITTANCE
629	0.6932
638	0.7251
647	0.7153
656	0.6061
665	0.6798
674	0.7742
683	0.7651
692	0.741
701	0.7301
710	0.6974
719	0.6413
728	0.3592
737	0.5959
746	0.4542
755	0.3285
764	0.4756
773	0.6824
782	0.7264
791	0.7171
800	0.7049
809	0.6654
818	0.5461
827	0.385
836	0.689
845	0.7566
854	0.7611
863	0.743
872	0.7164
881	0.7041
890	0.7166
899	0.7191
908	0.7203
917	0.7193
926	0.709
935	0.695
944	0.6839
953	0.6537
962	0.6022
971	0.6014
980	0.6069
989	0.5712
998	0.582
1007	0.6428
1016	0.6342
1025	0.6106
1034	0.5594
1043	0.4791
1052	0.5121
1061	0.5216
1070	0.6103
1079	0.6065
1088	0.5745
1097	0.5544
1106	0.5377
1115	0.5078
1124	0.482
1133	0.4358
1142	0.3547
1151	0.3107
1160	0.41
1169	0.3709
1178	0.2423
1187	0.1161
1196	0.0942
1205	0.1117
1214	0.3239
1223	0.617
1232	0.5955
1241	0.5168
1250	0.538
1259	0.4322
1268	0.3693
1277	0.1778
1286	0.3218
1295	0.3065
1304	0.3156
1313	0.4347
1322	0.3487
1331	0.1728
1340	0.1004
1349	0.3919
1358	0.7135
1367	0.7367
1376	0.647
1385	0.4511
1394	0.2451
1403	0.4949
1412	0.709
1421	0.7022
1430	0.5893
1439	0.5328
1448	0.3628
1457	0.5134
1466	0.5807
1475	0.4343
1484	0.3623
1493	0.4858
1502	0.4876
1511	0.4121
1520	0.3166
1529	0.2624
1538	0.1126
1547	0.0927
1556	0.0917
1565	0.4941
1574	0.7027
1583	0.6581
1592	0.5573
1601	0.3772
1610	0.1867
1619	0.0818
1628	0.1657
1637	0.3788
1646	0.5028
1655	0.6374
1664	0.7587
1673	0.8623
1682	0.8732
1691	0.8699
1700	0.8634
1709	0.8776
1718	0.8934
1727	0.8979
1736	0.8953
1745	0.8849
1754	0.8796
1763	0.8735
1772	0.8668
1781	0.8597
1790	0.8511
1799	0.8438
1808	0.8387
1817	0.826
1826	0.8169
1835	0.815
1844	0.8076
1853	0.8008
1862	0.7954
1871	0.7901
1880	0.7855
1889	0.7813
1898	0.7775
1907	0.7739
1916	0.7709
1925	0.7686
1934	0.7589
1943	0.7512
1952	0.7451
1961	0.7386
1970	0.733
1979	0.7314
1988	0.7319
1997	0.7289
2006	0.7246
2015	0.7207
2024	0.7167
2033	0.7092
2042	0.7054
2051	0.7019
2060	0.6985
2069	0.6953
2078	0.6923
2087	0.6898
2096	0.6875
2105	0.6854
2114	0.6835
2123	0.6818
2132	0.6795
2141	0.6768
2150	0.6754
2159	0.6706
2168	0.663
2177	0.6578
2186	0.6524
2195	0.6534
2204	0.6532
2213	0.6567
2222	0.6563
2231	0.6481
2240	0.6377
2249	0.6354
2258	0.6344
2267	0.634
2276	0.6339
2285	0.6334
2294	0.6326
2303	0.6312
2312	0.6283
2321	0.6226
2330	0.6175
2339	0.6153
2348	0.6116
2357	0.6108
2366	0.6138
2375	0.6167
2384	0.6139
2393	0.6115
2402	0.6095
2411	0.6082
2420	0.6068
2429	0.6056
2438	0.6044
2447	0.6038
2456	0.6044
2465	0.6069
2474	0.6089
2483	0.5928
2492	0.5916
2501	0.5906
2510	0.5901
2519	0.5896
2528	0.5886
2537	0.5878
2546	0.5836
2555	0.5818
2564	0.5814
2573	0.5807
2582	0.5739
2591	0.5711
2600	0.5695
2609	0.5679
2618	0.5663
2627	0.5647
2636	0.5628
2645	0.5612
2654	0.5602
2663	0.5591
2672	0.5581
2681	0.5573
2690	0.5564
2699	0.5562
2708	0.5564
2717	0.5561
2726	0.5541
2735	0.5524
2744	0.5505
2753	0.5483
2762	0.5474
2771	0.5467
2780	0.5417
2789	0.5296
2798	0.5247
2807	0.5246
2816	0.5236
2825	0.5184
2834	0.5107
2843	0.5035
2852	0.4978
2861	0.4925
2870	0.4875
2879	0.4845
2888	0.4847
2897	0.4897
2906	0.4881
2915	0.4826
2924	0.4755
2933	0.4685
2942	0.463
2951	0.4627
2960	0.4702
2969	0.4888
2978	0.4975
2987	0.4993
2996	0.4988
3005	0.4986
3014	0.4988
3023	0.4984
3032	0.4978
3041	0.497
3050	0.4955
3059	0.4921
3068	0.4887
3077	0.4872
3086	0.487
3095	0.4891
3104	0.4912
3113	0.4946
3122	0.4949
3131	0.4957
3140	0.4936
3149	0.4895
3158	0.4865
3167	0.4862
3176	0.4793
3185	0.4756
3194	0.474
3203	0.4728
3212	0.4705
3221	0.4663
3230	0.4595
3239	0.4564
3248	0.4544
3257	0.4509
3266	0.4478
3275	0.4447
3284	0.442
3293	0.4388
3302	0.4338
3311	0.4279
3320	0.4224
3329	0.418
3338	0.4119
3347	0.4069
3356	0.4038
3365	0.392
3374	0.3764
3383	0.3721
3392	0.3698
3401	0.3684
3410	0.3674
3419	0.3669
3428	0.3664
3437	0.368
3446	0.3708
3455	0.3702
3464	0.3707
3473	0.3741
3482	0.3777
3491	0.3805
3500	0.3843
3509	0.3891
3518	0.3925
3527	0.399
3536	0.4032
3545	0.4068
3554	0.4119
3563	0.4199
3572	0.4233
3581	0.4266
3590	0.4297
3599	0.4326
3608	0.4364
3617	0.4421
3626	0.444
3635	0.4448
3644	0.4451
3653	0.445
3662	0.4438
3671	0.4425
3680	0.4426
3689	0.4433
3698	0.4413
3707	0.4388
3716	0.4393
3725	0.4401
3734	0.4411
3743	0.4432
3752	0.4448
3761	0.4451
3770	0.4446
3779	0.4439
3788	0.4396
3797	0.4336
3806	0.4324
3815	0.4323
3824	0.4324
3833	0.4326
3842	0.4326
3851	0.4323
3860	0.432
3869	0.4318
3878	0.4315
3887	0.431
3896	0.4305
