Infrared Spectrum: Bis(2,4,6-trimethylphenyl) diselenide
Formula: C 18 H 22 Se 2
CAS: 71518-92-8
State: gas
Origin: EPA-IR VAPOR PHASE LIBRARY
1/CM	ABSORBANCE
549.8	0.008899
559.445	0.003159
569.09	0.0010002
578.734	0.0012829
588.379	0.003579
598.024	0.0008067
607.669	0.0009048
617.313	0.0005928
626.958	0.00057379
636.603	0.000277
646.248	0.00052847
655.893	0.0009531
665.537	0.0012793
675.182	0.0007219
684.827	0.0007649
694.472	0.001238
704.116	0.005319
713.761	0.003099
723.406	0.001629
733.051	0.0010572
742.695	0.0014188
752.34	0.001869
761.985	0.0007237
771.63	0.0009877
781.275	0.000967
790.919	0.0011061
800.564	0.001959
810.209	0.001809
819.854	0.002069
829.498	0.003739
839.143	0.017439
848.788	0.034899
858.433	0.005589
868.078	0.002439
877.722	0.002929
887.367	0.002339
897.012	0.001659
906.657	0.002119
916.301	0.001869
925.946	0.001879
935.591	0.001789
945.236	0.002029
954.88	0.001629
964.525	0.0014775
974.17	0.0014534
983.815	0.002389
993.46	0.002519
1003.1	0.004549
1012.75	0.009909
1022.39	0.010179
1032.04	0.008189
1041.68	0.006669
1051.33	0.004479
1060.97	0.003169
1070.62	0.002239
1080.26	0.002609
1089.91	0.002009
1099.55	0.0013869
1109.2	0.0007906
1118.84	0.0013
1128.49	0.0011006
1138.13	0.001398
1147.78	0.0012555
1157.42	0.0013281
1167.07	0.001969
1176.71	0.001879
1186.36	0.0009849
1196	0.0008746
1205.64	0.0014065
1215.29	0.0011864
1224.93	0.001809
1234.58	0.001719
1244.22	0.002039
1253.87	0.002389
1263.51	0.002909
1273.16	0.004019
1282.8	0.010309
1292.45	0.016209
1302.09	0.004359
1311.74	0.003339
1321.38	0.003229
1331.03	0.003559
1340.67	0.003749
1350.32	0.004419
1359.96	0.005859
1369.61	0.009099
1379.25	0.023469
1388.9	0.012759
1398.54	0.009419
1408.18	0.013799
1417.83	0.016429
1427.47	0.017339
1437.12	0.021879
1446.76	0.025229
1456.41	0.026869
1466.05	0.024589
1475.7	0.018769
1485.34	0.015249
1494.99	0.013259
1504.63	0.012389
1514.28	0.012369
1523.92	0.012379
1533.57	0.012779
1543.21	0.015129
1552.86	0.016479
1562.5	0.015059
1572.15	0.013259
1581.79	0.015709
1591.44	0.027789
1601.08	0.023309
1610.73	0.007379
1620.37	0.004059
1630.01	0.002899
1639.66	0.002479
1649.3	0.001999
1658.95	0.001809
1668.59	0.001479
1678.24	0.0014699
1687.88	0.001619
1697.53	0.001829
1707.17	0.003159
1716.82	0.004749
1726.46	0.002419
1736.11	0.002219
1745.75	0.002909
1755.4	0.001859
1765.04	0.0012873
1774.69	0.0011006
1784.33	0.0010288
1793.98	0.0010295
1803.62	0.0011013
1813.27	0.0008745
1822.91	0.000873
1832.55	0.0010025
1842.2	0.0010131
1851.84	0.0010908
1861.49	0.0010401
1871.13	0.0012522
1880.78	0.001479
1890.42	0.0014165
1900.07	0.0013263
1909.71	0.0014025
1919.36	0.0012853
1929	0.0013689
1938.65	0.001619
1948.29	0.0012228
1957.94	0.0013468
1967.58	0.0014163
1977.23	0.001146
1986.87	0.0009334
1996.52	0.0009221
2006.16	0.0009439
2015.81	0.0008113
2025.45	0.0009608
2035.1	0.0010213
2044.74	0.0010898
2054.38	0.0011537
2064.03	0.0010741
2073.67	0.0007961
2083.32	0.0007627
2092.96	0.000905
2102.61	0.0009075
2112.25	0.0008646
2121.9	0.0007748
2131.54	0.0008998
2141.19	0.0007569
2150.83	0.0010205
2160.48	0.0008319
2170.12	0.0008583
2179.77	0.0009528
2189.41	0.0008794
2199.06	0.0009484
2208.7	0.0009962
2218.35	0.0006609
2227.99	0.0008426
2237.64	0.0008739
2247.28	0.00057328
2256.92	0.0008082
2266.57	0.0007736
2276.21	0.0007789
2285.86	0.0008745
2295.5	0.0008861
2305.15	0.0012149
2314.79	0.0008802
2324.44	0.0010783
2334.08	0.0010602
2343.73	0.0009508
2353.37	0.0009488
2363.02	0.00107
2372.66	0.0012566
2382.31	0.0013134
2391.95	0.001599
2401.6	0.001569
2411.24	0.001749
2420.89	0.001679
2430.53	0.001719
2440.18	0.0013593
2449.82	0.0012861
2459.47	0.0013114
2469.11	0.0011365
2478.75	0.0012977
2488.4	0.0012441
2498.04	0.0011226
2507.69	0.001016
2517.33	0.0010583
2526.98	0.0009445
2536.62	0.0007833
2546.27	0.0009033
2555.91	0.0011019
2565.56	0.0010337
2575.2	0.0010864
2584.85	0.0010485
2594.49	0.0011193
2604.14	0.0013652
2613.78	0.001629
2623.43	0.0014182
2633.07	0.0013889
2642.72	0.0011586
2652.36	0.0010349
2662.01	0.001529
2671.65	0.0014272
2681.29	0.0013979
2690.94	0.0012646
2700.58	0.001188
2710.23	0.001709
2719.87	0.001929
2729.52	0.002759
2739.16	0.005209
2748.81	0.003459
2758.45	0.002039
2768.1	0.001979
2777.74	0.002219
2787.39	0.002209
2797.03	0.002819
2806.68	0.002999
2816.32	0.003879
2825.97	0.005239
2835.61	0.007339
2845.26	0.011179
2854.9	0.017359
2864.55	0.024249
2874.19	0.023509
2883.84	0.020409
2893.48	0.021199
2903.12	0.026129
2912.77	0.036139
2922.41	0.059139
2932.06	0.077809
2941.7	0.045849
2951.35	0.032209
2960.99	0.032539
2970.64	0.033299
2980.28	0.035869
2989.93	0.033119
2999.57	0.029889
3009.22	0.030819
3018.86	0.040689
3028.51	0.047459
3038.15	0.032319
3047.8	0.018329
3057.44	0.013219
3067.09	0.009859
3076.73	0.007359
3086.38	0.005799
3096.02	0.004669
3105.67	0.003769
3115.31	0.003289
3124.95	0.002679
3134.6	0.002309
3144.24	0.001939
3153.89	0.0014214
3163.53	0.0013302
3173.18	0.0014187
3182.82	0.0012986
3192.47	0.0012455
3202.11	0.0010635
3211.76	0.0007382
3221.4	0.0007394
3231.05	0.0006116
3240.69	0.000756
3250.34	0.0009208
3259.98	0.000875
3269.63	0.0010141
3279.27	0.0007383
3288.92	0.0006948
3298.56	0.0007143
3308.21	0.0008305
3317.85	0.0006481
3327.49	0.0007866
3337.14	0.00055243
3346.78	0.0004469
3356.43	0.0006445
3366.07	0.0008211
3375.72	0.0007043
3385.36	0.0009191
3395.01	0.0006568
3404.65	0.000484882
3414.3	0.0006103
3423.94	0.00054004
3433.59	0.000425
3443.23	0.0007086
3452.88	0.00051904
3462.52	0.00054156
3472.17	0.0009608
3481.81	0.0006737
3491.46	0.000321
3501.1	0.0008463
3510.75	0.00057807
3520.39	0.0005955
3530.04	0.0006781
3539.68	0.00050031
3549.32	0.0004327
3558.97	0.0005858
3568.61	0.0005895
3578.26	0.000317
3587.9	0.000326
3597.55	0.000352
3607.19	0.0005923
3616.84	0.0006993
3626.48	0.000221
3636.13	0.0004343
3645.77	0
3655.42	0.000358
3665.06	0.0004382
3674.71	0.000323
3684.35	0.000378
3694	0.0005841
3703.64	4.6e-05
3713.29	0.000311
3722.93	0.00056801
3732.58	0.00024
3742.22	0.0004599
3751.86	0.00033
3761.51	0.0007616
3771.15	0.0005718
3780.8	0.000459
3790.44	0.0007624
3800.09	0.0008428
3809.73	0.000275
3819.38	0.00047181
3829.02	0.000114
3838.67	0.000209
3848.31	0.0005809
3857.96	0.0004323
3867.6	0.0006205
3877.25	0.0006284
3886.89	0.0008591
3896.54	0.0007089
3906.18	0.0009411
3915.83	0.0006129
3925.47	0.000748
3935.12	0.0009091
3944.76	0.0011288
3954.41	0.0009226
3964.05	0.0010238
3973.69	0.0010189
3983.34	0.0008944
3992.98	0.0010476
