Infrared Spectrum: UREA, 1-METHYL, 3-[9H-PURIN-6-YLAMINOETHYL]-
Formula: C9 H13 N7 O
CAS: 7151-39-5
State: SOLID (1 mg / 650 mg KBr DISC)
Class: COBLENTZ III
Instrument: PERKIN-ELMER 221 (GRATING)
Instrument parameters: GRATING FOR 4000-1428, FILTERS AT 2490, 980, NaCl PRISM FOR 1428-650 CM^-^1
Sampling: TRANSMISSION
Resolution: 4
Origin: SOUTHERN RESEARCH INSTITUTE
1/CM	TRANSMITTANCE
641.692	0.416
650.911	0.636
660.13	0.5613
669.35	0.6031
678.569	0.5908
687.788	0.6732
697.007	0.6578
706.226	0.6487
715.446	0.6829
724.665	0.7218
733.884	0.6723
743.103	0.7755
752.322	0.7905
761.541	0.7926
770.761	0.7529
779.98	0.7759
789.199	0.7659
798.418	0.7084
807.637	0.8088
816.857	0.805
826.076	0.7909
835.295	0.7756
844.514	0.7396
853.733	0.6447
862.953	0.5543
872.172	0.7079
881.391	0.6871
890.61	0.6232
899.829	0.5606
909.049	0.4517
918.268	0.7544
927.487	0.6795
936.706	0.4186
945.925	0.788
955.144	0.8106
964.364	0.841
973.583	0.8361
982.802	0.83
992.021	0.8273
1001.24	0.8194
1010.46	0.8105
1019.68	0.7953
1028.9	0.7695
1038.12	0.6699
1047.34	0.6929
1056.56	0.7623
1065.77	0.783
1074.99	0.774
1084.21	0.7076
1093.43	0.748
1102.65	0.7452
1111.87	0.7384
1121.09	0.7195
1130.31	0.6879
1139.53	0.6057
1148.75	0.6354
1157.97	0.5152
1167.19	0.6032
1176.41	0.7085
1185.62	0.709
1194.84	0.7
1204.06	0.6876
1213.28	0.6727
1222.5	0.6247
1231.72	0.5501
1240.94	0.4272
1250.16	0.3791
1259.38	0.2341
1268.6	0.3424
1277.82	0.4965
1287.04	0.5661
1296.25	0.4952
1305.47	0.3179
1314.69	0.5354
1323.91	0.4001
1333.13	0.4793
1342.35	0.4672
1351.57	0.454
1360.79	0.5192
1370.01	0.7122
1379.23	0.6958
1388.45	0.6299
1397.67	0.4971
1406.88	0.5875
1416.1	0.616
1425.32	0.542
1434.54	0.5881
1443.76	0.5985
1452.98	0.561
1462.2	0.5503
1471.42	0.6775
1480.64	0.6637
1489.86	0.6308
1499.08	0.611
1508.3	0.5911
1517.52	0.5018
1526.73	0.4236
1535.95	0.4089
1545.17	0.3779
1554.39	0.3178
1563.61	0.2334
1572.83	0.1512
1582.05	0.1232
1591.27	0.1576
1600.49	0.1387
1609.71	0.0876
1618.93	0.0839
1628.15	0.0724
1637.36	0.1108
1646.58	0.2153
1655.8	0.3161
1665.02	0.4457
1674.24	0.5313
1683.46	0.6156
1692.68	0.6628
1701.9	0.72
1711.12	0.736
1720.34	0.74
1729.56	0.7478
1738.78	0.7642
1747.99	0.788
1757.21	0.795
1766.43	0.805
1775.65	0.8177
1784.87	0.8293
1794.09	0.8376
1803.31	0.845
1812.53	0.8495
1821.75	0.8535
1830.97	0.856
1840.19	0.8608
1849.41	0.8607
1858.63	0.8654
1867.84	0.8623
1877.06	0.8655
1886.28	0.856
1895.5	0.8634
1904.72	0.8711
1913.94	0.875
1923.16	0.876
1932.38	0.877
1941.6	0.8769
1950.82	0.88
1960.04	0.879
1969.26	0.8748
1978.47	0.8767
1987.69	0.87
1996.91	0.8667
2006.13	0.87
2015.35	0.868
2024.57	0.868
2033.79	0.866
2043.01	0.868
2052.23	0.867
2061.45	0.8633
2070.67	0.8646
2079.89	0.8583
2089.11	0.866
2098.32	0.866
2107.54	0.863
2116.76	0.8634
2125.98	0.8583
2135.2	0.8567
2144.42	0.854
2153.64	0.854
2162.86	0.858
2172.08	0.856
2181.3	0.8497
2190.52	0.843
2199.74	0.8493
2208.95	0.8397
2218.17	0.8383
2227.39	0.8283
2236.61	0.825
2245.83	0.821
2255.05	0.821
2264.27	0.817
2273.49	0.8097
2282.71	0.805
2291.93	0.794
2301.15	0.79
2310.37	0.7887
2319.58	0.7793
2328.8	0.774
2338.02	0.766
2347.24	0.762
2356.46	0.7533
2365.68	0.7483
2374.9	0.7327
2384.12	0.721
2393.34	0.721
2402.56	0.72
2411.78	0.709
2421	0.708
2430.22	0.7063
2439.43	0.7023
2448.65	0.696
2457.87	0.691
2467.09	0.6783
2476.31	0.6737
2485.53	0.6608
2494.75	0.65
2503.97	0.6447
2513.19	0.636
2522.41	0.6244
2531.63	0.606
2540.85	0.6033
2550.06	0.5943
2559.28	0.5801
2568.5	0.557
2577.72	0.5434
2586.94	0.5477
2596.16	0.5567
2605.38	0.555
2614.6	0.549
2623.82	0.549
2633.04	0.548
2642.26	0.544
2651.48	0.539
2660.69	0.536
2669.91	0.5235
2679.13	0.5117
2688.35	0.506
2697.57	0.509
2706.79	0.501
2716.01	0.498
2725.23	0.496
2734.45	0.4967
2743.67	0.522
2752.89	0.519
2762.11	0.4902
2771.33	0.477
2780.54	0.4677
2789.76	0.465
2798.98	0.464
2808.2	0.4687
2817.42	0.4926
2826.64	0.498
2835.86	0.521
2845.08	0.5307
2854.3	0.535
2863.52	0.532
2872.74	0.53
2881.96	0.5496
2891.17	0.55
2900.39	0.5357
2909.61	0.5128
2918.83	0.4874
2928.05	0.469
2937.27	0.4687
2946.49	0.4743
2955.71	0.477
2964.93	0.477
2974.15	0.475
2983.37	0.4807
2992.59	0.497
3001.8	0.5137
3011.02	0.5333
3020.24	0.538
3029.46	0.538
3038.68	0.5367
3047.9	0.5313
3057.12	0.5207
3066.34	0.5197
3075.56	0.522
3084.78	0.5513
3094	0.5767
3103.22	0.5707
3112.44	0.562
3121.65	0.557
3130.87	0.5537
3140.09	0.5457
3149.31	0.546
3158.53	0.5702
3167.75	0.574
3176.97	0.5657
3186.19	0.5497
3195.41	0.5048
3204.63	0.4584
3213.85	0.4533
3223.07	0.4793
3232.28	0.482
3241.5	0.479
3250.72	0.4474
3259.94	0.43
3269.16	0.4377
3278.38	0.4496
3287.6	0.4717
3296.82	0.472
3306.04	0.4643
3315.26	0.4175
3324.48	0.3775
3333.7	0.3118
3342.91	0.291
3352.13	0.3073
3361.35	0.3533
3370.57	0.4312
3379.79	0.4989
3389.01	0.5488
3398.23	0.5995
3407.45	0.6389
3416.67	0.685
3425.89	0.685
3435.11	0.6906
3444.33	0.7067
3453.55	0.723
3462.76	0.7353
3471.98	0.742
3481.2	0.7507
3490.42	0.7563
3499.64	0.7603
3508.86	0.766
3518.08	0.775
3527.3	0.778
3536.52	0.78
3545.74	0.788
3554.96	0.797
3564.18	0.8063
3573.39	0.8047
3582.61	0.8177
3591.83	0.821
3601.05	0.833
3610.27	0.8329
3619.49	0.848
3628.71	0.851
3637.93	0.8543
3647.15	0.86
3656.37	0.856
3665.59	0.856
3674.81	0.858
3684.03	0.8573
3693.24	0.8653
3702.46	0.8693
3711.68	0.8703
3720.9	0.867
3730.12	0.868
3739.34	0.87
3748.56	0.872
3757.78	0.8717
3767	0.8727
3776.22	0.868
3785.44	0.866
3794.66	0.868
3803.87	0.866
3813.09	0.868
3822.31	0.8717
3831.53	0.8707
3840.75	0.866
3849.97	0.867
3859.19	0.8677
3868.41	0.868
3877.63	0.871
3886.85	0.8673
3896.07	0.8667
3905.29	0.8687
3914.5	0.8693
3923.72	0.867
3932.94	0.862
3942.16	0.865
3951.38	0.868
3960.6	0.8637
3969.82	0.859
3979.04	0.859
3988.26	0.862
3997.48	0.86
4006.7	0.859
4015.92	0.859
