Infrared Spectrum: 2-(Methylmercapto)benzimidazole
Formula: C 8 H 8 N 2 S
CAS: 7152-24-1
State: gas
Origin: EPA-IR VAPOR PHASE LIBRARY
1/CM	ABSORBANCE
549.8	0.0005344
559.445	0.00030666
569.09	0.000127
578.734	0.0005
588.379	0.0008653
598.024	0.0008847
607.669	0.0004539
617.313	0.00032517
626.958	0.0003614
636.603	0.00027514
646.248	0.00033521
655.893	0.0007219
665.537	0.0011008
675.182	0.002091
684.827	0.001771
694.472	0.001391
704.116	0.001561
713.761	0.003011
723.406	0.008391
733.051	0.015871
742.695	0.015661
752.34	0.008861
761.985	0.003611
771.63	0.001561
781.275	0.000994
790.919	0.001551
800.564	0.002551
810.209	0.002851
819.854	0.002651
829.498	0.003241
839.143	0.003701
848.788	0.003691
858.433	0.003181
868.078	0.002541
877.722	0.001881
887.367	0.001861
897.012	0.002131
906.657	0.001911
916.301	0.001621
925.946	0.001731
935.591	0.001321
945.236	0.001371
954.88	0.001901
964.525	0.003181
974.17	0.003581
983.815	0.003231
993.46	0.002861
1003.1	0.003071
1012.75	0.002771
1022.39	0.001501
1032.04	0.001171
1041.68	0.0010017
1051.33	0.0010135
1060.97	0.0007806
1070.62	0.0006903
1080.26	0.0010288
1089.91	0.001076
1099.55	0.0009998
1109.2	0.0011422
1118.84	0.0006535
1128.49	0.0010958
1138.13	0.003321
1147.78	0.004181
1157.42	0.002321
1167.07	0.001021
1176.71	0.0009642
1186.36	0.000794
1196	0.0007193
1205.64	0.0009856
1215.29	0.002631
1224.93	0.003331
1234.58	0.001571
1244.22	0.002891
1253.87	0.013561
1263.51	0.019471
1273.16	0.007271
1282.8	0.005851
1292.45	0.004061
1302.09	0.002411
1311.74	0.004981
1321.38	0.010491
1331.03	0.012461
1340.67	0.011121
1350.32	0.009551
1359.96	0.006181
1369.61	0.006671
1379.25	0.015991
1388.9	0.020731
1398.54	0.011921
1408.18	0.005951
1417.83	0.006021
1427.47	0.010961
1437.12	0.026311
1446.76	0.035751
1456.41	0.017571
1466.05	0.008461
1475.7	0.013621
1485.34	0.015611
1494.99	0.009901
1504.63	0.004501
1514.28	0.002301
1523.92	0.001521
1533.57	0.001611
1543.21	0.001591
1552.86	0.0012569
1562.5	0.001331
1572.15	0.001701
1581.79	0.001651
1591.44	0.0011056
1601.08	0.0011739
1610.73	0.001741
1620.37	0.001901
1630.01	0.0011825
1639.66	0.0006592
1649.3	0.0008573
1658.95	0.0010648
1668.59	0.0006717
1678.24	0.0005536
1687.88	0.0003932
1697.53	0.0002267
1707.17	0.0003657
1716.82	0.00032708
1726.46	0.0003634
1736.11	0.0003808
1745.75	0.000573
1755.4	0.0008383
1765.04	0.0007981
1774.69	0.000404
1784.33	0.00035449
1793.98	0.0006014
1803.62	0.0005534
1813.27	0.0002451
1822.91	0.00031533
1832.55	0.0004932
1842.2	0.0006807
1851.84	0.0005453
1861.49	0.0005432
1871.13	0.0008237
1880.78	0.0008191
1890.42	0.0006187
1900.07	0.0003864
1909.71	0.000682
1919.36	0.0010274
1929	0.0006024
1938.65	0.00029638
1948.29	0.0002454
1957.94	0.00034427
1967.58	0.00025397
1977.23	0.00026489
1986.87	0.00028697
1996.52	0.00032497
2006.16	0.0003477
2015.81	0.00030222
2025.45	0.00030841
2035.1	0.00033322
2044.74	0.00032922
2054.38	0.00027143
2064.03	0.00033155
2073.67	0.00031945
2083.32	0.00028857
2092.96	0.00028871
2102.61	0.00036087
2112.25	0.000442
2121.9	0.00033889
2131.54	0.0003672
2141.19	0.00033586
2150.83	0.00030703
2160.48	0.0004235
2170.12	0.00027846
2179.77	0.00032096
2189.41	0.00032307
2199.06	0.00031477
2208.7	0.00029199
2218.35	0.0003878
2227.99	0.0003729
2237.64	0.00033387
2247.28	0.00032256
2256.92	0.000263105
2266.57	0.000403
2276.21	0.0004594
2285.86	0.0004199
2295.5	0.0004823
2305.15	0.000363
2314.79	0.0004073
2324.44	0.00029398
2334.08	0.00029187
2343.73	0.0003891
2353.37	0.00034759
2363.02	0.0004713
2372.66	0.0004193
2382.31	0.00035952
2391.95	0.0004492
2401.6	0.00042
2411.24	0.0004324
2420.89	0.0004846
2430.53	0.0004301
2440.18	0.0004288
2449.82	0.0004372
2459.47	0.0005122
2469.11	0.0005686
2478.75	0.0005582
2488.4	0.000658
2498.04	0.0007654
2507.69	0.0006543
2517.33	0.000775
2526.98	0.0007373
2536.62	0.0006082
2546.27	0.0004884
2555.91	0.0004933
2565.56	0.0003877
2575.2	0.0005836
2584.85	0.0005725
2594.49	0.0005961
2604.14	0.000384
2613.78	0.0003799
2623.43	0.00032701
2633.07	0.0003745
2642.72	0.00033497
2652.36	0.0005246
2662.01	0.0004962
2671.65	0.0005092
2681.29	0.0003949
2690.94	0.00028777
2700.58	0.00032291
2710.23	0.00035377
2719.87	0.0004404
2729.52	0.00032047
2739.16	0.0004192
2748.81	0.0004637
2758.45	0.0004532
2768.1	0.0004604
2777.74	0.0005398
2787.39	0.0004019
2797.03	0.0004413
2806.68	0.0005311
2816.32	0.0005345
2825.97	0.0006768
2835.61	0.0007069
2845.26	0.0008873
2854.9	0.0007255
2864.55	0.0009307
2874.19	0.0009522
2883.84	0.000987
2893.48	0.0008308
2903.12	0.0009593
2912.77	0.0010502
2922.41	0.001521
2932.06	0.003481
2941.7	0.006711
2951.35	0.004541
2960.99	0.001551
2970.64	0.001281
2980.28	0.001086
2989.93	0.0009682
2999.57	0.0010873
3009.22	0.0011855
3018.86	0.001411
3028.51	0.001921
3038.15	0.002841
3047.8	0.003761
3057.44	0.005471
3067.09	0.008241
3076.73	0.008001
3086.38	0.004141
3096.02	0.002861
3105.67	0.001701
3115.31	0.0009981
3124.95	0.0004235
3134.6	0.0004335
3144.24	0.0004362
3153.89	0.0005552
3163.53	0.00034984
3173.18	0.0003904
3182.82	0.0004179
3192.47	0.0004084
3202.11	0.0004184
3211.76	0.00033521
3221.4	0.00025379
3231.05	0.00032947
3240.69	0.00030706
3250.34	0.0004371
3259.98	0.0004224
3269.63	0.000375
3279.27	0.000187
3288.92	0.00035929
3298.56	0.000245
3308.21	0.00031681
3317.85	0.00031332
3327.49	0.000106
3337.14	0.0002254
3346.78	0.000152
3356.43	0.0003691
3366.07	0.00031797
3375.72	0.00032744
3385.36	0.0001994
3395.01	0.00035685
3404.65	0.0003711
3414.3	0.0004031
3423.94	0.00030685
3433.59	0.0006254
3443.23	0.0008453
3452.88	0.001261
3462.52	0.002161
3472.17	0.003321
3481.81	0.005781
3491.46	0.010051
3501.1	0.011451
3510.75	0.008091
3520.39	0.002501
3530.04	0.0007857
3539.68	0.0006327
3549.32	0.0003667
3558.97	9.5e-05
3568.61	0.000123
3578.26	0.00036009
3587.9	0.0002178
3597.55	0.00030765
3607.19	0.0003883
3616.84	0.000136
3626.48	0.00029667
3636.13	0.00028176
3645.77	0.00027145
3655.42	0.000266505
3665.06	0.0004928
3674.71	0.0004378
3684.35	0.0002021
3694	0.0002371
3703.64	0.00027901
3713.29	7e-05
3722.93	4.2e-05
3732.58	3.3e-05
3742.22	0.0003726
3751.86	0.00030356
3761.51	0.0002296
3771.15	0.0003104
3780.8	0.0004103
3790.44	0.00025706
3800.09	0.00034435
3809.73	0.0002089
3819.38	0.0001868
3829.02	0.0002164
3838.67	0.000236
3848.31	0.0005397
3857.96	0.0004048
3867.6	0.000138
3877.25	0.0003753
3886.89	0.000260435
3896.54	0.00030633
3906.18	0.0003646
3915.83	0.00031214
3925.47	0.0003725
3935.12	0.000545
3944.76	0.0003805
3954.41	0.00030388
3964.05	0.00035135
3973.69	0.0004658
3983.34	0.0003409
3992.98	0.000384
