Infrared Spectrum: 11Beta-HYDROXY-5Alpha-ANDROSTAN-17-ONE
Formula: C19 H30 O2
CAS: 7152-51-4
State: SOLID (KBr DISC)
Class: COBLENTZ III
Instrument: BECKMAN IR-7
Sampling: TRANSMISSION
Resolution: 4
Origin: THE WORCESTER FOUNDATION FOR EXPERIMENTAL BIOLOGY, Neal L. McNiven
1/CM	TRANSMITTANCE
598.542	0.716
607.287	0.743
616.033	0.868
624.778	0.918
633.524	0.92
642.269	0.917
651.015	0.889
659.76	0.883
668.506	0.896
677.251	0.851
685.997	0.729
694.742	0.866
703.487	0.888
712.233	0.889
720.978	0.889
729.724	0.882
738.469	0.875
747.215	0.862
755.96	0.757
764.706	0.828
773.451	0.863
782.197	0.858
790.942	0.843
799.687	0.8031
808.433	0.831
817.178	0.796
825.924	0.763
834.669	0.841
843.415	0.769
852.16	0.7639
860.906	0.707
869.651	0.666
878.397	0.803
887.142	0.832
895.888	0.873
904.633	0.808
913.378	0.775
922.124	0.791
930.869	0.785
939.615	0.763
948.36	0.804
957.106	0.603
965.851	0.741
974.597	0.747
983.342	0.72
992.088	0.696
1000.83	0.602
1009.58	0.544
1018.32	0.3201
1027.07	0.4539
1035.81	0.605
1044.56	0.471
1053.31	0.484
1062.05	0.408
1070.8	0.581
1079.54	0.563
1088.29	0.682
1097.03	0.717
1105.78	0.683
1114.52	0.685
1123.27	0.575
1132.01	0.695
1140.76	0.71
1149.51	0.684
1158.25	0.514
1167	0.602
1175.74	0.712
1184.49	0.572
1193.23	0.618
1201.98	0.7039
1210.72	0.72
1219.47	0.571
1228.21	0.607
1236.96	0.509
1245.71	0.551
1254.45	0.66
1263.2	0.593
1271.94	0.649
1280.69	0.689
1289.43	0.559
1298.18	0.562
1306.92	0.695
1315.67	0.745
1324.41	0.73
1333.16	0.672
1341.91	0.638
1350.65	0.586
1359.4	0.635
1368.14	0.495
1376.89	0.549
1385.63	0.562
1394.38	0.517
1403.12	0.551
1411.87	0.707
1420.61	0.721
1429.36	0.645
1438.11	0.577
1446.85	0.451
1455.6	0.482
1464.34	0.577
1473.09	0.649
1481.83	0.785
1490.58	0.801
1499.32	0.806
1508.07	0.807
1516.81	0.816
1525.56	0.82
1534.31	0.832
1543.05	0.835
1551.8	0.833
1560.54	0.833
1569.29	0.836
1578.03	0.825
1586.78	0.819
1595.52	0.815
1604.27	0.804
1613.01	0.791
1621.76	0.79
1630.51	0.782
1639.25	0.777
1648	0.774
1656.74	0.769
1665.49	0.745
1674.23	0.728
1682.98	0.688
1691.72	0.642
1700.47	0.586
1709.21	0.486
1717.96	0.2931
1726.71	0.139
1735.45	0.218
1744.2	0.408
1752.94	0.622
1761.69	0.685
1770.43	0.731
1779.18	0.782
1787.92	0.793
1796.67	0.806
1805.41	0.812
1814.16	0.818
1822.91	0.82
1831.65	0.823
1840.4	0.83
1849.14	0.833
1857.89	0.831
1866.63	0.83
1875.38	0.831
1884.12	0.829
1892.87	0.832
1901.62	0.836
1910.36	0.839
1919.11	0.836
1927.85	0.833
1936.6	0.832
1945.34	0.828
1954.09	0.831
1962.83	0.832
1971.58	0.833
1980.32	0.833
1989.07	0.835
1997.82	0.833
2006.56	0.833
2015.31	0.833
2024.05	0.833
2032.8	0.833
2041.54	0.833
2050.29	0.832
2059.03	0.8315
2067.78	0.831
2076.52	0.831
2085.27	0.8294
2094.02	0.828
2102.76	0.827
2111.51	0.826
2120.25	0.8252
2129	0.8252
2137.74	0.824
2146.49	0.824
2155.23	0.824
2163.98	0.824
2172.72	0.823
2181.47	0.8229
2190.22	0.821
2198.96	0.8199
2207.71	0.8067
2216.45	0.7988
2225.2	0.7948
2233.94	0.7927
2242.69	0.791
2251.43	0.79
2260.18	0.788
2268.92	0.788
2277.67	0.7865
2286.42	0.786
2295.16	0.785
2303.91	0.7814
2312.65	0.7767
2321.4	0.775
2330.14	0.773
2338.89	0.7712
2347.63	0.7692
2356.38	0.767
2365.12	0.765
2373.87	0.7621
2382.62	0.76
2391.36	0.758
2400.11	0.757
2408.85	0.755
2417.6	0.754
2426.34	0.7519
2435.09	0.7498
2443.83	0.7478
2452.58	0.7455
2461.32	0.7427
2470.07	0.741
2478.82	0.741
2487.56	0.7392
2496.31	0.7375
2505.05	0.7355
2513.8	0.733
2522.54	0.7304
2531.29	0.7288
2540.03	0.728
2548.78	0.728
2557.52	0.727
2566.27	0.7217
2575.02	0.7162
2583.76	0.7111
2592.51	0.709
2601.25	0.7023
2610	0.6911
2618.74	0.685
2627.49	0.68
2636.23	0.6778
2644.98	0.6641
2653.72	0.6428
2662.47	0.6466
2671.22	0.656
2679.96	0.6633
2688.71	0.6673
2697.45	0.6724
2706.2	0.674
2714.94	0.6726
2723.69	0.664
2732.43	0.6565
2741.18	0.6612
2749.92	0.6676
2758.67	0.6675
2767.42	0.645
2776.16	0.6322
2784.91	0.6227
2793.65	0.6091
2802.4	0.5838
2811.14	0.5375
2819.89	0.4785
2828.63	0.3789
2837.38	0.2584
2846.12	0.249
2854.87	0.3148
2863.62	0.3384
2872.36	0.3428
2881.11	0.2241
2889.85	0.1677
2898.6	0.1233
2907.34	0.1438
2916.09	0.199
2924.83	0.2413
2933.58	0.2747
2942.32	0.2922
2951.07	0.319
2959.82	0.3464
2968.56	0.3878
2977.31	0.446
2986.05	0.5011
2994.8	0.5314
3003.54	0.5625
3012.29	0.6085
3021.03	0.6458
3029.78	0.6653
3038.52	0.6689
3047.27	0.6738
3056.02	0.678
3064.76	0.678
3073.51	0.677
3082.25	0.675
3091	0.6749
3099.74	0.6738
3108.49	0.67
3117.23	0.67
3125.98	0.6703
3134.72	0.6713
3143.47	0.672
3152.22	0.6724
3160.96	0.673
3169.71	0.674
3178.45	0.6745
3187.2	0.675
3195.94	0.675
3204.69	0.675
3213.43	0.674
3222.18	0.6733
3230.92	0.6723
3239.67	0.6702
3248.42	0.67
3257.16	0.67
3265.91	0.67
3274.65	0.6711
3283.4	0.67
3292.14	0.668
3300.89	0.667
3309.63	0.6659
3318.38	0.6649
3327.12	0.6618
3335.87	0.6564
3344.62	0.653
3353.36	0.6494
3362.11	0.6417
3370.85	0.6356
3379.6	0.6312
3388.34	0.6261
3397.09	0.621
3405.83	0.6125
3414.58	0.6012
3423.32	0.5854
3432.07	0.572
3440.82	0.5784
3449.56	0.5843
3458.31	0.5797
3467.05	0.5724
3475.8	0.557
3484.54	0.5378
3493.29	0.5139
3502.03	0.4806
3510.78	0.4342
3519.52	0.3677
3528.27	0.2623
3537.02	0.1873
3545.76	0.1861
3554.51	0.2681
3563.25	0.3506
3572	0.4275
3580.74	0.4996
3589.49	0.5585
3598.23	0.6059
3606.98	0.6425
3615.72	0.6654
3624.47	0.6785
3633.22	0.6916
3641.96	0.696
3650.71	0.698
3659.45	0.698
3668.2	0.697
3676.94	0.696
3685.69	0.6952
3694.43	0.693
3703.18	0.692
3711.92	0.6928
3720.67	0.6921
3729.42	0.691
3738.16	0.691
3746.91	0.691
3755.65	0.6889
3764.4	0.6869
3773.14	0.6858
3781.89	0.6816
3790.63	0.678
3799.38	0.678
3808.12	0.6793
3816.87	0.681
3825.62	0.6806
3834.36	0.678
3843.11	0.677
3851.85	0.6775
3860.6	0.678
3869.34	0.6754
3878.09	0.6776
3886.83	0.678
3895.58	0.678
3904.32	0.6763
3913.07	0.675
3921.82	0.675
3930.56	0.6721
3939.31	0.67
3948.05	0.67
3956.8	0.67
3965.54	0.67
3974.29	0.67
3983.03	0.67
