Infrared Spectrum: Cyclopropyl-4-methoxyphenylketone
Formula: C 11 H 12 O 2
CAS: 7152-03-6
State: gas
Instrument: HP-GC/MS/IRD
Origin: NIST Mass Spectrometry Data Center
1/CM	ABSORBANCE
550	0.000231
562	0.000198
574	0.0004092
586	0.0019536
598	0.003993
610	0.0014949
622	0.0005181
634	0.0003993
646	5.28e-05
658	3.96e-05
670	0.0001617
682	0.000462
694	0.000759
706	0.000495
718	0.0001452
730	0.0001287
742	0.0004752
754	0.0008514
766	0.00066
778	0.0007128
790	0.0012177
802	0.0013926
814	0.002013
826	0.0036993
838	0.0047553
850	0.0029205
862	0.0013134
874	0.0008283
886	0.0004884
898	0.0005346
910	0.0006699
922	0.0007557
934	0.0009141
946	0.0009933
958	0.0013695
970	0.0026103
982	0.0093555
994	0.0172788
1006	0.005742
1018	0.0043494
1030	0.0069993
1042	0.0069267
1054	0.0031185
1066	0.0017853
1078	0.0013002
1090	0.0011715
1102	0.0013266
1114	0.0016335
1126	0.0014091
1138	0.0015543
1150	0.003201
1162	0.0147873
1174	0.0195723
1186	0.0069498
1198	0.0070158
1210	0.013695
1222	0.0302346
1234	0.023793
1246	0.0152493
1258	0.0165066
1270	0.0081477
1282	0.0056034
1294	0.0067452
1306	0.0053955
1318	0.0027126
1330	0.0016863
1342	0.0018348
1354	0.0032175
1366	0.0083127
1378	0.0159192
1390	0.0086361
1402	0.0043362
1414	0.0063657
1426	0.0041514
1438	0.002607
1450	0.0033231
1462	0.0038544
1474	0.0033132
1486	0.0025971
1498	0.0050193
1510	0.0075966
1522	0.0029568
1534	0.0014586
1546	0.0014091
1558	0.0021153
1570	0.0046167
1582	0.0072831
1594	0.0142329
1606	0.019866
1618	0.0075933
1630	0.0025641
1642	0.0019239
1654	0.0021516
1666	0.003927
1678	0.0112959
1690	0.0149721
1702	0.0056496
1714	0.0017061
1726	0.0010164
1738	0.0006963
1750	0.0005016
1762	0.0004818
1774	0.0004422
1786	0.0002904
1798	0.0002442
1810	0.0002475
1822	0.0002145
1834	0.0002244
1846	0.0002904
1858	0.0003102
1870	0.000264
1882	0.0002871
1894	0.0003762
1906	0.0003663
1918	0.0002673
1930	0.0002145
1942	0.0002046
1954	0.0002211
1966	0.0002376
1978	0.000231
1990	0.000165
2002	0.000132
2014	0.0002046
2026	0.0003102
2038	0.0004026
2050	0.0004587
2062	0.0005049
2074	0.0004818
2086	0.0003861
2098	0.0002937
2110	0.0002145
2122	0.0001353
2134	5.28e-05
2146	1.65e-05
2158	0
2170	2.31e-05
2182	1.98e-05
2194	4.95e-05
2206	5.61e-05
2218	7.59e-05
2230	4.95e-05
2242	6.27e-05
2254	2.31e-05
2266	4.29e-05
2278	8.91e-05
2290	0.0001188
2302	0.0001056
2314	8.58e-05
2326	2.64e-05
2338	3.63e-05
2350	2.97e-05
2362	0.0001089
2374	0.0001221
2386	0.0001518
2398	0.0001551
2410	0.0001254
2422	0.0001353
2434	0.0001518
2446	0.0001749
2458	0.0001617
2470	0.0001551
2482	0.0002112
2494	0.0001881
2506	0.0001716
2518	0.0002013
2530	0.0002145
2542	0.0002904
2554	0.0003399
2566	0.0003366
2578	0.0002508
2590	0.0001848
2602	0.0001551
2614	0.0001287
2626	0.0001287
2638	9.24e-05
2650	5.61e-05
2662	4.95e-05
2674	1.65e-05
2686	2.97e-05
2698	4.62e-05
2710	4.29e-05
2722	7.26e-05
2734	9.9e-05
2746	9.24e-05
2758	0.0001254
2770	0.0001617
2782	0.0001551
2794	0.0002013
2806	0.0003201
2818	0.0005445
2830	0.0008976
2842	0.0020922
2854	0.0021648
2866	0.0010065
2878	0.0007689
2890	0.0008613
2902	0.0011979
2914	0.0018282
2926	0.0019998
2938	0.0026895
2950	0.0034683
2962	0.0030492
2974	0.0022176
2986	0.0017919
2998	0.0023034
3010	0.0050589
3022	0.0049203
3034	0.0023067
3046	0.0020196
3058	0.0017754
3070	0.0015906
3082	0.0018183
3094	0.0017688
3106	0.0016137
3118	0.0008217
3130	0.0004587
3142	0.0002673
3154	0.0001848
3166	0.0001353
3178	0.0001386
3190	0.0001188
3202	8.58e-05
3214	9.9e-05
3226	3.3e-05
3238	4.29e-05
3250	7.92e-05
3262	5.94e-05
3274	5.28e-05
3286	6.27e-05
3298	7.26e-05
3310	5.94e-05
3322	6.27e-05
3334	0.0001716
3346	0.0002508
3358	0.0003168
3370	0.0001815
3382	0.0001287
3394	3.3e-06
3406	6.27e-05
3418	7.92e-05
3430	0.0001122
3442	5.61e-05
3454	7.92e-05
3466	5.61e-05
3478	6.27e-05
3490	0.0001155
3502	6.93e-05
3514	5.94e-05
3526	8.58e-05
3538	0.0001122
3550	6.6e-05
3562	0.0001023
3574	0.0001056
3586	7.26e-05
3598	0.0001023
3610	2.97e-05
3622	9.9e-05
3634	5.61e-05
3646	5.94e-05
3658	8.25e-05
3670	0.0001551
3682	0.000132
3694	9.9e-05
3706	0.0001221
3718	9.24e-05
3730	6.93e-05
3742	6.6e-05
3754	0.0001122
3766	9.57e-05
3778	0.0001419
3790	6.27e-05
3802	7.26e-05
3814	0.0001914
3826	0.0001254
3838	0.0001155
