Infrared Spectrum: 2-PYRIMIDINECARBAMONITRILE, 1,6-DIHYDRO-4-METHYL-6-OXO-
Formula: C6 H6 N4 O
CAS: 7152-19-4
State: SOLID (SPLIT MULL), FLUOROLUBE FOR 3800-1330 CM^-^1, NUJOL FOR 1330-400 CM^-^1
Class: COBLENTZ III
Instrument: DOW KBr FOREPRISM-GRATING
Instrument parameters: BLAZED AT 3.5, 12.0, 20.0 MICRON AND CHANGED AT 5.0, 7.5, 14.9 MICRON
Sampling: TRANSMISSION
Resolution: 2
Origin: DOW CHEMICAL COMPANY
1/CM	TRANSMITTANCE
379.543	0.779
388.336	0.791
397.128	0.805
405.921	0.817
414.713	0.828
423.506	0.833
432.298	0.84
441.091	0.849
449.883	0.853
458.676	0.868
467.468	0.88
476.261	0.871
485.053	0.634
493.846	0.871
502.638	0.83
511.431	0.622
520.223	0.066
529.016	0.853
537.808	0.867
546.601	0.851
555.393	0.801
564.186	0.188
572.978	0.853
581.771	0.878
590.563	0.931
599.356	0.935
608.148	0.94
616.941	0.944
625.733	0.946
634.526	0.944
643.318	0.948
652.111	0.955
660.903	0.954
669.696	0.955
678.488	0.95
687.281	0.94
696.073	0.926
704.866	0.795
713.658	0.783
722.451	0.371
731.243	0.831
740.036	0.644
748.828	0.856
757.621	0.889
766.413	0.888
775.206	0.88
783.998	0.866
792.791	0.852
801.583	0.816
810.376	0.754
819.168	0.604
827.961	0.55
836.753	0.668
845.546	0.622
854.338	0.617
863.131	0.588
871.923	0.473
880.716	0.362
889.508	0.434
898.301	0.566
907.093	0.653
915.886	0.697
924.678	0.707
933.471	0.678
942.263	0.529
951.056	0.337
959.848	0.634
968.641	0.751
977.433	0.787
986.226	0.798
995.018	0.784
1003.81	0.708
1012.6	0.78
1021.4	0.772
1030.19	0.624
1038.98	0.584
1047.77	0.681
1056.57	0.743
1065.36	0.762
1074.15	0.757
1082.94	0.733
1091.74	0.616
1100.53	0.758
1109.32	0.704
1118.11	0.757
1126.91	0.729
1135.7	0.733
1144.49	0.689
1153.28	0.543
1162.08	0.706
1170.87	0.715
1179.66	0.667
1188.45	0.697
1197.25	0.71
1206.04	0.693
1214.83	0.675
1223.62	0.671
1232.42	0.641
1241.21	0.595
1250	0.456
1258.79	0.448
1267.59	0.616
1276.38	0.605
1285.17	0.579
1293.96	0.553
1302.76	0.518
1311.55	0.482
1320.34	0.474
1329.13	0.428
1337.93	0.335
1346.72	0.175
1355.51	0.055
1364.3	0.3251
1373.1	0.591
1381.89	0.438
1390.68	0.171
1399.47	0.544
1408.27	0.602
1417.06	0.554
1425.85	0.362
1434.64	0.51
1443.44	0.569
1452.23	0.637
1461.02	0.536
1469.81	0.488
1478.61	0.497
1487.4	0.467
1496.19	0.611
1504.98	0.644
1513.78	0.619
1522.57	0.583
1531.36	0.537
1540.15	0.503
1548.95	0.473
1557.74	0.435
1566.53	0.388
1575.32	0.355
1584.12	0.297
1592.91	0.223
1601.7	0.161
1610.49	0.107
1619.29	0.089
1628.08	0.066
1636.87	0.031
1645.66	0.011
1654.46	0.03
1663.25	0.059
1672.04	0.049
1680.83	0.026
1689.63	0.044
1698.42	0.146
1707.21	0.299
1716	0.518
1724.8	0.657
1733.59	0.71
1742.38	0.699
1751.17	0.74
1759.97	0.844
1768.76	0.873
1777.55	0.908
1786.34	0.946
1795.14	0.964
1803.93	0.976
1812.72	0.982
1821.51	0.982
1830.31	0.973
1839.1	0.957
1847.89	0.948
1856.68	0.955
1865.48	0.953
1874.27	0.942
1883.06	0.932
1891.85	0.921
1900.65	0.897
1909.44	0.891
1918.23	0.902
1927.02	0.908
1935.82	0.903
1944.61	0.9
1953.4	0.897
1962.19	0.891
1970.99	0.885
1979.78	0.881
1988.57	0.871
1997.36	0.86
2006.16	0.854
2014.95	0.851
2023.74	0.843
2032.53	0.8396
2041.33	0.8345
2050.12	0.8265
2058.91	0.8155
2067.7	0.8055
2076.5	0.7853
2085.29	0.7707
2094.08	0.7471
2102.87	0.7082
2111.67	0.6654
2120.46	0.6437
2129.25	0.6341
2138.04	0.6197
2146.84	0.5971
2155.63	0.5375
2164.42	0.4482
2173.21	0.3682
2182.01	0.2275
2190.8	0.0758
2199.59	0.1424
2208.38	0.2406
2217.18	0.3602
2225.97	0.6091
2234.76	0.8031
2243.55	0.8568
2252.35	0.874
2261.14	0.8676
2269.93	0.8566
2278.72	0.847
2287.52	0.8343
2296.31	0.8197
2305.1	0.7813
2313.89	0.775
2322.69	0.7727
2331.48	0.768
2340.27	0.7634
2349.06	0.761
2357.86	0.761
2366.65	0.762
2375.44	0.7744
2384.23	0.7569
2393.03	0.7454
2401.82	0.74
2410.61	0.737
2419.4	0.7327
2428.2	0.7264
2436.99	0.7137
2445.78	0.711
2454.57	0.708
2463.37	0.707
2472.16	0.7015
2480.95	0.6928
2489.74	0.6763
2498.54	0.6655
2507.33	0.649
2516.12	0.646
2524.91	0.6418
2533.71	0.6308
2542.5	0.6166
2551.29	0.6084
2560.08	0.5917
2568.88	0.5709
2577.67	0.5471
2586.46	0.5271
2595.25	0.547
2604.05	0.5363
2612.84	0.5258
2621.63	0.5205
2630.42	0.5122
2639.22	0.4958
2648.01	0.4889
2656.8	0.4744
2665.59	0.4599
2674.39	0.4519
2683.18	0.4438
2691.97	0.4366
2700.76	0.4225
2709.56	0.4104
2718.35	0.3967
2727.14	0.3824
2735.93	0.3646
2744.73	0.3456
2753.52	0.3275
2762.31	0.2945
2771.1	0.2637
2779.9	0.2529
2788.69	0.2457
2797.48	0.2268
2806.27	0.2048
2815.07	0.198
2823.86	0.2
2832.65	0.205
2841.44	0.2282
2850.24	0.245
2859.03	0.248
2867.82	0.249
2876.61	0.244
2885.41	0.2309
2894.2	0.223
2902.99	0.224
2911.78	0.228
2920.58	0.223
2929.37	0.223
2938.16	0.228
2946.95	0.2489
2955.75	0.2729
2964.54	0.281
2973.33	0.2702
2982.12	0.251
2990.92	0.245
2999.71	0.2792
3008.5	0.3127
3017.29	0.3388
3026.09	0.3659
3034.88	0.3788
3043.67	0.3927
3052.46	0.4089
3061.26	0.4278
3070.05	0.428
3078.84	0.43
3087.63	0.43
3096.43	0.431
3105.22	0.433
3114.01	0.4416
3122.8	0.4519
3131.6	0.456
3140.39	0.457
3149.18	0.464
3157.97	0.4855
3166.77	0.5037
3175.56	0.5454
3184.35	0.5847
3193.14	0.6229
3201.94	0.6522
3210.73	0.673
3219.52	0.6797
3228.31	0.682
3237.11	0.682
3245.9	0.684
3254.69	0.684
3263.48	0.6848
3272.28	0.685
3281.07	0.685
3289.86	0.684
3298.65	0.682
3307.45	0.682
3316.24	0.681
3325.03	0.678
3333.82	0.674
3342.62	0.675
3351.41	0.6778
3360.2	0.68
3368.99	0.68
3377.79	0.6785
3386.58	0.677
3395.37	0.675
3404.16	0.6733
3412.96	0.671
3421.75	0.67
3430.54	0.6673
3439.33	0.666
3448.13	0.6633
3456.92	0.662
3465.71	0.659
3474.5	0.659
3483.3	0.657
3492.09	0.655
3500.88	0.6523
3509.67	0.651
3518.47	0.6483
3527.26	0.648
3536.05	0.646
3544.84	0.645
3553.64	0.642
3562.43	0.642
3571.22	0.6404
3580.01	0.638
3588.81	0.637
3597.6	0.635
3606.39	0.6317
3615.18	0.63
3623.98	0.628
3632.77	0.627
3641.56	0.626
3650.35	0.623
3659.15	0.622
3667.94	0.619
3676.73	0.617
3685.52	0.616
3694.32	0.615
3703.11	0.6139
3711.9	0.613
3720.69	0.6114
3729.49	0.609
3738.28	0.606
3747.07	0.604
3755.86	0.602
3764.66	0.6
3773.45	0.5959
3782.24	0.593
3791.03	0.593
