Infrared Spectrum: ACETIC ACID, [3-(1,2,3,4-TETRAHYDRO-2,4-DIOXO-5-PYRIMIDINYL)UREIDO]- ETHYL ESTER
Formula: C9 H12 N4 O5
CAS: 7154-16-7
State: SOLID (0.7 mg / 500 mg KBr DISC)
Class: COBLENTZ III
Instrument: PERKIN-ELMER 221 (GRATING)
Instrument parameters: FILTERS AT 2490, 980 CM ^-^1, GRATING FOR 1428-4000 CM^-^1, NaCl PRISM FOR 1428-650 CM^-^1
Sampling: TRANSMISSION
Resolution: 4
Origin: SOUTHERN RES. INSTITUTE
1/CM	TRANSMITTANCE
592.479	0.734
601.695	0.731
610.911	0.726
620.127	0.705
629.343	0.636
638.56	0.544
647.776	0.46
656.992	0.463
666.208	0.619
675.424	0.711
684.64	0.775
693.856	0.797
703.072	0.807
712.289	0.816
721.505	0.827
730.721	0.826
739.937	0.549
749.153	0.603
758.369	0.789
767.585	0.817
776.801	0.787
786.017	0.816
795.234	0.832
804.45	0.828
813.666	0.821
822.882	0.815
832.098	0.809
841.314	0.749
850.53	0.715
859.746	0.768
868.962	0.692
878.179	0.638
887.395	0.54
896.611	0.497
905.827	0.785
915.043	0.817
924.259	0.811
933.475	0.817
942.691	0.798
951.908	0.76
961.124	0.826
970.34	0.834
979.556	0.828
988.772	0.809
997.988	0.762
1007.2	0.779
1016.42	0.581
1025.64	0.707
1034.85	0.796
1044.07	0.75
1053.28	0.699
1062.5	0.78
1071.72	0.777
1080.93	0.766
1090.15	0.758
1099.37	0.749
1108.58	0.742
1117.8	0.74
1127.01	0.737
1136.23	0.707
1145.45	0.671
1154.66	0.597
1163.88	0.451
1173.09	0.592
1182.31	0.552
1191.53	0.481
1200.74	0.335
1209.96	0.168
1219.17	0.222
1228.39	0.408
1237.61	0.57
1246.82	0.711
1256.04	0.653
1265.26	0.646
1274.47	0.72
1283.69	0.78
1292.9	0.798
1302.12	0.79
1311.34	0.777
1320.55	0.754
1329.77	0.737
1338.98	0.644
1348.2	0.558
1357.42	0.524
1366.63	0.704
1375.85	0.615
1385.06	0.696
1394.28	0.625
1403.5	0.599
1412.71	0.688
1421.93	0.627
1431.15	0.561
1440.36	0.422
1449.58	0.631
1458.79	0.537
1468.01	0.279
1477.23	0.263
1486.44	0.66
1495.66	0.701
1504.87	0.667
1514.09	0.638
1523.31	0.587
1532.52	0.491
1541.74	0.353
1550.96	0.19
1560.17	0.094
1569.39	0.244
1578.6	0.492
1587.82	0.638
1597.04	0.701
1606.25	0.705
1615.47	0.68
1624.68	0.604
1633.9	0.498
1643.12	0.426
1652.33	0.254
1661.55	0.137
1670.76	0.098
1679.98	0.085
1689.2	0.126
1698.41	0.09
1707.63	0.146
1716.85	0.298
1726.06	0.48
1735.28	0.383
1744.49	0.298
1753.71	0.609
1762.93	0.669
1772.14	0.708
1781.36	0.707
1790.57	0.731
1799.79	0.761
1809.01	0.796
1818.22	0.807
1827.44	0.819
1836.65	0.827
1845.87	0.836
1855.09	0.84
1864.3	0.847
1873.52	0.851
1882.74	0.854
1891.95	0.855
1901.17	0.857
1910.38	0.861
1919.6	0.866
1928.82	0.869
1938.03	0.869
1947.25	0.869
1956.46	0.869
1965.68	0.869
1974.9	0.869
1984.11	0.869
1993.33	0.868
2002.54	0.865
2011.76	0.863
2020.98	0.867
2030.19	0.869
2039.41	0.87
2048.63	0.87
2057.84	0.869
2067.06	0.869
2076.27	0.868
2085.49	0.866
2094.71	0.865
2103.92	0.863
2113.14	0.861
2122.35	0.86
2131.57	0.862
2140.79	0.863
2150	0.863
2159.22	0.864
2168.43	0.864
2177.65	0.863
2186.87	0.863
2196.08	0.863
2205.3	0.863
2214.52	0.863
2223.73	0.862
2232.95	0.861
2242.16	0.861
2251.38	0.86
2260.6	0.858
2269.81	0.857
2279.03	0.857
2288.24	0.856
2297.46	0.855
2306.68	0.853
2315.89	0.851
2325.11	0.849
2334.32	0.847
2343.54	0.844
2352.76	0.843
2361.97	0.844
2371.19	0.845
2380.41	0.846
2389.62	0.845
2398.84	0.843
2408.05	0.841
2417.27	0.838
2426.49	0.836
2435.7	0.834
2444.92	0.834
2454.13	0.836
2463.35	0.838
2472.57	0.838
2481.78	0.838
2491	0.837
2500.22	0.835
2509.43	0.834
2518.65	0.834
2527.86	0.834
2537.08	0.834
2546.3	0.833
2555.51	0.832
2564.73	0.831
2573.94	0.83
2583.16	0.828
2592.38	0.825
2601.59	0.822
2610.81	0.819
2620.02	0.815
2629.24	0.812
2638.46	0.806
2647.67	0.8
2656.89	0.799
2666.11	0.796
2675.32	0.796
2684.54	0.795
2693.75	0.793
2702.97	0.791
2712.19	0.789
2721.4	0.779
2730.62	0.775
2739.83	0.771
2749.05	0.769
2758.27	0.759
2767.48	0.747
2776.7	0.735
2785.91	0.719
2795.13	0.706
2804.35	0.68
2813.56	0.641
2822.78	0.6
2832	0.571
2841.21	0.544
2850.43	0.574
2859.64	0.657
2868.86	0.706
2878.08	0.704
2887.29	0.72
2896.51	0.722
2905.72	0.695
2914.94	0.679
2924.16	0.666
2933.37	0.634
2942.59	0.605
2951.8	0.631
2961.02	0.612
2970.24	0.588
2979.45	0.565
2988.67	0.558
2997.89	0.559
3007.1	0.561
3016.32	0.565
3025.53	0.57
3034.75	0.585
3043.97	0.624
3053.18	0.662
3062.4	0.685
3071.61	0.701
3080.83	0.704
3090.05	0.707
3099.26	0.709
3108.48	0.708
3117.69	0.701
3126.91	0.668
3136.13	0.66
3145.34	0.611
3154.56	0.653
3163.78	0.699
3172.99	0.714
3182.21	0.729
3191.42	0.736
3200.64	0.738
3209.86	0.733
3219.07	0.725
3228.29	0.718
3237.5	0.715
3246.72	0.717
3255.94	0.719
3265.15	0.713
3274.37	0.703
3283.58	0.692
3292.8	0.673
3302.02	0.619
3311.23	0.533
3320.45	0.418
3329.67	0.376
3338.88	0.452
3348.1	0.374
3357.31	0.263
3366.53	0.155
3375.75	0.186
3384.96	0.342
3394.18	0.463
3403.39	0.584
3412.61	0.647
3421.83	0.691
3431.04	0.709
3440.26	0.72
3449.47	0.732
3458.69	0.738
3467.91	0.745
3477.12	0.75
3486.34	0.755
3495.56	0.759
3504.77	0.761
3513.99	0.764
3523.2	0.768
3532.42	0.768
3541.64	0.771
3550.85	0.777
3560.07	0.78
3569.28	0.782
3578.5	0.784
3587.72	0.787
3596.93	0.789
3606.15	0.793
3615.37	0.796
3624.58	0.8
3633.8	0.803
3643.01	0.806
3652.23	0.808
3661.45	0.809
3670.66	0.81
3679.88	0.811
3689.09	0.812
3698.31	0.812
3707.53	0.813
3716.74	0.814
3725.96	0.815
3735.17	0.815
3744.39	0.813
3753.61	0.811
3762.82	0.81
3772.04	0.812
3781.26	0.812
3790.47	0.814
3799.69	0.814
3808.9	0.814
3818.12	0.812
3827.34	0.81
3836.55	0.81
3845.77	0.808
3854.98	0.808
3864.2	0.808
3873.42	0.807
3882.63	0.806
3891.85	0.806
3901.06	0.806
3910.28	0.806
3919.5	0.806
3928.71	0.806
3937.93	0.803
3947.15	0.804
3956.36	0.806
3965.58	0.806
3974.79	0.806
3984.01	0.806
3993.23	0.805
4002.44	0.804
