Infrared Spectrum: 2,2,3,3-Tetramethylpentane
Formula: C 9 H 20
CAS: 7154-79-2
State: gas
Instrument: HP-GC/MS/IRD
Origin: NIST Mass Spectrometry Data Center
1/CM	ABSORBANCE
550	0
562	0.0002668
574	0.0001334
586	0.0001508
598	0.0002581
610	0.0002581
622	0.0002958
634	0.0003161
646	0.0002842
658	0.000377
670	0.0003451
682	0.0003364
694	0.0003161
706	0.0002436
718	0.0002668
730	0.0002755
742	0.00029
754	0.0003509
766	0.0005394
778	0.0005133
790	0.0004495
802	0.0004089
814	0.0003364
826	0.0002349
838	0.0002958
850	0.0003364
862	0.0003335
874	0.0003567
886	0.0002958
898	0.0003103
910	0.0004089
922	0.0004002
934	0.0003335
946	0.0003248
958	0.0003161
970	0.0003045
982	0.0003393
994	0.0005133
1006	0.0007598
1018	0.0007569
1030	0.000551
1042	0.0004524
1054	0.0005075
1066	0.0003683
1078	0.0002929
1090	0.0002813
1102	0.0003451
1114	0.0003567
1126	0.0004988
1138	0.001015
1150	0.0020184
1162	0.0027724
1174	0.0019778
1186	0.0008932
1198	0.0005394
1210	0.0004466
1222	0.000551
1234	0.000551
1246	0.0003625
1258	0.0002929
1270	0.0002813
1282	0.0002958
1294	0.0003422
1306	0.0003683
1318	0.0004118
1330	0.0004263
1342	0.0005539
1354	0.0012296
1366	0.0031639
1378	0.0048981
1390	0.0039933
1402	0.0021431
1414	0.0011629
1426	0.000754
1438	0.0009947
1450	0.0016269
1462	0.0026796
1474	0.0032944
1486	0.0024447
1498	0.0011658
1510	0.0005365
1522	0.0004118
1534	0.0003248
1546	0.0003045
1558	0.0002639
1570	0.0002407
1582	0.0001943
1594	0.0002262
1606	0.0002204
1618	0.0002088
1630	0.0002088
1642	0.0001682
1654	0.0001914
1666	0.000145
1678	0.0001566
1690	0.0001856
1702	0.0001885
1714	0.0001334
1726	0.0001537
1738	0.0001421
1750	0.0001421
1762	0.000145
1774	0.0001305
1786	0.0001363
1798	0.0001102
1810	0.0001392
1822	0.0001218
1834	0.0001276
1846	0.0001102
1858	0.000116
1870	0.0001102
1882	0.0001189
1894	9.28e-05
1906	8.12e-05
1918	9.57e-05
1930	7.54e-05
1942	8.41e-05
1954	7.83e-05
1966	8.99e-05
1978	9.28e-05
1990	8.41e-05
2002	9.86e-05
2014	9.57e-05
2026	6.96e-05
2038	6.09e-05
2050	7.25e-05
2062	6.38e-05
2074	7.54e-05
2086	6.09e-05
2098	8.12e-05
2110	8.7e-05
2122	8.12e-05
2134	7.83e-05
2146	6.96e-05
2158	7.83e-05
2170	5.22e-05
2182	5.51e-05
2194	4.35e-05
2206	6.09e-05
2218	7.54e-05
2230	7.83e-05
2242	3.77e-05
2254	8.99e-05
2266	6.67e-05
2278	6.09e-05
2290	7.83e-05
2302	8.12e-05
2314	6.67e-05
2326	8.41e-05
2338	6.67e-05
2350	8.41e-05
2362	9.86e-05
2374	0.0001102
2386	0.0001247
2398	0.0001392
2410	9.57e-05
2422	9.86e-05
2434	0.0001073
2446	0.0001189
2458	7.83e-05
2470	8.99e-05
2482	8.7e-05
2494	0.0001131
2506	0.0001015
2518	0.0001247
2530	0.0001247
2542	0.0001479
2554	0.0001537
2566	0.0001247
2578	0.0001421
2590	0.000174
2602	0.0002117
2614	0.0002088
2626	0.0002175
2638	0.0002059
2650	0.0002407
2662	0.0002523
2674	0.0002291
2686	0.0002552
2698	0.0002639
2710	0.000319
2722	0.0003886
2734	0.0004176
2746	0.0004379
2758	0.0004176
2770	0.000464
2782	0.0005133
2794	0.0005539
2806	0.0006293
2818	0.0007511
2830	0.0009309
2842	0.0012354
2854	0.0018038
2866	0.0031581
2878	0.0059334
2890	0.0082186
2902	0.0083549
2914	0.0085028
2926	0.0098803
2938	0.0121684
2950	0.0156455
2962	0.0222894
2974	0.029
2986	0.0212309
2998	0.0082534
3010	0.0031726
3022	0.0018531
3034	0.0013137
3046	0.0010614
3058	0.0008642
3070	0.0006496
3082	0.0006148
3094	0.0005916
3106	0.0005075
3118	0.0004582
3130	0.000464
3142	0.0004176
3154	0.0004611
3166	0.0004611
3178	0.0004234
3190	0.0004669
3202	0.000406
3214	0.0003683
3226	0.0003364
3238	0.00029
3250	0.0002755
3262	0.0002523
3274	0.0001943
3286	0.0001856
3298	0.0002291
3310	0.0002059
3322	0.0001943
3334	0.0002059
3346	0.000145
3358	0.0001827
3370	0.0001247
3382	0.0001189
3394	0.0001421
3406	0.0001856
3418	0.0001305
3430	0.0001363
3442	0.0001479
3454	0.0001363
3466	7.54e-05
3478	0.0001392
3490	0.0001073
3502	0.0001392
3514	9.57e-05
3526	6.09e-05
3538	6.38e-05
3550	3.19e-05
3562	8.7e-05
3574	0.0001044
3586	7.25e-05
3598	4.93e-05
3610	4.06e-05
3622	5.8e-05
3634	5.22e-05
3646	3.77e-05
3658	3.48e-05
3670	8.7e-05
3682	2.32e-05
3694	4.64e-05
3706	6.09e-05
3718	7.83e-05
3730	2.61e-05
3742	7.83e-05
3754	8.41e-05
3766	0.0001189
3778	4.93e-05
3790	5.22e-05
3802	0.0001131
3814	0.0001363
3826	9.86e-05
3838	8.12e-05
