Infrared Spectrum: 3,3,5-Trimethylheptane
Formula: C 10 H 22
CAS: 7154-80-5
State: gas
Instrument: HP-GC/MS/IRD
Origin: NIST Mass Spectrometry Data Center
1/CM	ABSORBANCE
550	6.57e-05
562	0.0001107
574	0.0001332
586	0.0002034
598	9.99e-05
610	0.0001719
622	5.4e-05
634	0.0001071
646	9.99e-05
658	5.94e-05
670	0.000117
682	8.91e-05
694	0.0001404
706	9.27e-05
718	9.27e-05
730	8.1e-05
742	6.93e-05
754	8.37e-05
766	0.0001512
778	0.0002331
790	0.0001674
802	0.0001548
814	0.0001467
826	0.0001593
838	0.0001053
850	9e-05
862	0.0001773
874	0.0001224
886	0.0001107
898	6.57e-05
910	0.000135
922	0.0001044
934	0.0001215
946	0.0001341
958	0.0001845
970	0.0002259
982	0.000243
994	0.0002592
1006	0.0003177
1018	0.0002781
1030	0.000216
1042	0.0001638
1054	0.0001395
1066	0.0001089
1078	0.0001332
1090	0.0001602
1102	0.000117
1114	0.0001188
1126	0.0001368
1138	0.0001224
1150	0.0001431
1162	0.0001782
1174	0.0002466
1186	0.000261
1198	0.0002349
1210	0.0001719
1222	0.0001242
1234	0.0001197
1246	0.0001188
1258	0.0001377
1270	0.000144
1282	0.0001746
1294	0.0001611
1306	0.0001584
1318	0.0001404
1330	0.0001764
1342	0.0002502
1354	0.0004554
1366	0.0007308
1378	0.0009963
1390	0.0009324
1402	0.000441
1414	0.0002403
1426	0.0002547
1438	0.0003852
1450	0.0007425
1462	0.0012105
1474	0.0011862
1486	0.0006381
1498	0.0002799
1510	0.0001134
1522	7.47e-05
1534	0.0001026
1546	4.68e-05
1558	3.6e-05
1570	8.64e-05
1582	9.09e-05
1594	9e-05
1606	9.27e-05
1618	5.13e-05
1630	5.04e-05
1642	6.12e-05
1654	9e-06
1666	4.23e-05
1678	4.41e-05
1690	3.24e-05
1702	9e-06
1714	3.33e-05
1726	3.78e-05
1738	2.52e-05
1750	2.34e-05
1762	3.6e-05
1774	3.69e-05
1786	3.87e-05
1798	2.34e-05
1810	5.13e-05
1822	2.7e-05
1834	2.88e-05
1846	1.8e-05
1858	4.95e-05
1870	4.23e-05
1882	4.95e-05
1894	5.22e-05
1906	3.6e-05
1918	4.68e-05
1930	2.97e-05
1942	3.69e-05
1954	5.13e-05
1966	5.31e-05
1978	6.12e-05
1990	4.32e-05
2002	3.96e-05
2014	4.86e-05
2026	5.94e-05
2038	4.95e-05
2050	4.86e-05
2062	5.67e-05
2074	4.95e-05
2086	7.11e-05
2098	4.68e-05
2110	6.66e-05
2122	5.67e-05
2134	6.12e-05
2146	6.12e-05
2158	7.47e-05
2170	7.56e-05
2182	5.67e-05
2194	6.57e-05
2206	7.65e-05
2218	7.29e-05
2230	6.57e-05
2242	7.29e-05
2254	7.56e-05
2266	4.68e-05
2278	8.46e-05
2290	6.57e-05
2302	6.93e-05
2314	8.01e-05
2326	8.19e-05
2338	9.54e-05
2350	8.73e-05
2362	9.99e-05
2374	0.0001017
2386	0.0001089
2398	0.0001089
2410	0.000108
2422	0.0001071
2434	0.0001269
2446	0.0001053
2458	0.0001098
2470	0.0001269
2482	0.0001242
2494	0.0001197
2506	0.0001143
2518	0.0001377
2530	0.0001413
2542	0.0001458
2554	0.0001368
2566	0.0001737
2578	0.0001782
2590	0.0001728
2602	0.0002025
2614	0.0001737
2626	0.0001953
2638	0.0002007
2650	0.0002502
2662	0.0002412
2674	0.0002268
2686	0.0002394
2698	0.0002331
2710	0.0002556
2722	0.0002736
2734	0.0002907
2746	0.0003411
2758	0.0003204
2770	0.0003159
2782	0.0003546
2794	0.0003771
2806	0.0004788
2818	0.0005481
2830	0.0006768
2842	0.0010107
2854	0.0016794
2866	0.0023958
2878	0.0031563
2890	0.0036144
2902	0.0041472
2914	0.0051471
2926	0.0054855
2938	0.0055386
2950	0.0060264
2962	0.0084231
2974	0.0080739
2986	0.0036936
2998	0.0015084
3010	0.0008703
3022	0.0006057
3034	0.0005022
3046	0.0004401
3058	0.0004104
3070	0.0003825
3082	0.0003636
3094	0.000369
3106	0.0002871
3118	0.0002745
3130	0.0002889
3142	0.0002862
3154	0.0002817
3166	0.0002907
3178	0.0003015
3190	0.0002358
3202	0.0002376
3214	0.0001953
3226	0.0002259
3238	0.0001962
3250	0.0001809
3262	0.0001854
3274	0.0001566
3286	0.0001521
3298	0.0001503
3310	0.000162
3322	0.000135
3334	0.0001557
3346	0.0001431
3358	0.0001827
3370	0.0001368
3382	0.0001818
3394	0.0001341
3406	0.0001548
3418	0.0001278
3430	0.0001332
3442	0.0001116
3454	0.0001107
3466	9.54e-05
3478	0.0001161
3490	0.0001125
3502	9.72e-05
3514	0.0001341
3526	9.45e-05
3538	0.0001044
3550	0.0001062
3562	9.9e-05
3574	8.55e-05
3586	6.12e-05
3598	0.0001017
3610	0.000126
3622	8.64e-05
3634	0.0001017
3646	8.28e-05
3658	0.0001314
3670	9.72e-05
3682	0.0001512
3694	0.0001116
3706	0.0001215
3718	0.0001161
3730	0.0001305
3742	3.87e-05
3754	0.0001035
3766	0.0001422
3778	0.000162
3790	0.0001647
3802	0.0001098
3814	0.0001368
3826	0.0001413
3838	9.72e-05
