Infrared Spectrum: 7-Methyl-1-nonyne
Formula: C 10 H 18
CAS: 71566-65-9
State: gas
Instrument: HP-GC/MS/IRD
Origin: NIST Mass Spectrometry Data Center
1/CM	ABSORBANCE
550	0.000644
562	0.0003528
574	0.0003052
586	0.00049
598	0.0008876
610	0.002688
622	0.0083356
634	0.0201068
646	0.0078988
658	0.0019516
670	0.0007728
682	0.0002884
694	0.0001988
706	8.68e-05
718	0.0002604
730	0.0002492
742	0.0002996
754	0.0002156
766	0.0002744
778	0.000322
790	0.0002408
802	0.0001204
814	7e-05
826	5.32e-05
838	1.68e-05
850	5.04e-05
862	1.68e-05
874	3.64e-05
886	4.48e-05
898	4.48e-05
910	6.72e-05
922	6.16e-05
934	4.48e-05
946	6.72e-05
958	0.0002436
970	0.0003388
982	0.0003752
994	0.0003276
1006	0.0003472
1018	0.0003164
1030	0.0002464
1042	0.0001932
1054	7.84e-05
1066	0.0001316
1078	5.04e-05
1090	0.0001204
1102	0.000252
1114	0.000252
1126	0.0002548
1138	0.0002688
1150	0.0003892
1162	0.00035
1174	0.0002968
1186	0.0002912
1198	0.000336
1210	0.0005124
1222	0.0007672
1234	0.002128
1246	0.0049644
1258	0.0031864
1270	0.001274
1282	0.0009408
1294	0.000784
1306	0.0008568
1318	0.0010472
1330	0.0011648
1342	0.0012404
1354	0.0014028
1366	0.0015288
1378	0.0022596
1390	0.0019908
1402	0.000868
1414	0.0007084
1426	0.0011592
1438	0.002282
1450	0.0032032
1462	0.0040964
1474	0.0028588
1486	0.0012376
1498	0.000574
1510	0.0003388
1522	0.000224
1534	0.0001736
1546	0.0001596
1558	0.0001036
1570	0.0001316
1582	0.0001316
1594	0.0001204
1606	8.96e-05
1618	8.4e-05
1630	8.12e-05
1642	8.4e-05
1654	8.68e-05
1666	5.88e-05
1678	3.92e-05
1690	3.92e-05
1702	1.68e-05
1714	2.24e-05
1726	4.2e-05
1738	2.24e-05
1750	1.68e-05
1762	4.76e-05
1774	6.72e-05
1786	4.76e-05
1798	5.88e-05
1810	5.32e-05
1822	3.92e-05
1834	3.08e-05
1846	2.8e-05
1858	3.64e-05
1870	8.4e-06
1882	3.36e-05
1894	4.2e-05
1906	1.96e-05
1918	5.04e-05
1930	4.2e-05
1942	4.48e-05
1954	1.96e-05
1966	3.36e-05
1978	4.48e-05
1990	3.08e-05
2002	3.08e-05
2014	6.72e-05
2026	7e-05
2038	5.6e-05
2050	6.16e-05
2062	9.8e-05
2074	0.000112
2086	0.0002072
2098	0.0004088
2110	0.0008148
2122	0.0009352
2134	0.0003808
2146	0.0001316
2158	7e-05
2170	5.88e-05
2182	2.8e-05
2194	2.52e-05
2206	1.12e-05
2218	3.64e-05
2230	1.68e-05
2242	3.64e-05
2254	2.24e-05
2266	1.96e-05
2278	2.24e-05
2290	4.2e-05
2302	1.96e-05
2314	1.96e-05
2326	3.92e-05
2338	3.36e-05
2350	5.6e-05
2362	4.48e-05
2374	4.48e-05
2386	7e-05
2398	5.6e-05
2410	4.76e-05
2422	5.6e-05
2434	3.92e-05
2446	1.96e-05
2458	6.44e-05
2470	5.04e-05
2482	1.96e-05
2494	5.32e-05
2506	4.76e-05
2518	5.32e-05
2530	6.16e-05
2542	9.24e-05
2554	9.52e-05
2566	0.0001372
2578	0.0001596
2590	0.0001932
2602	0.0002128
2614	0.0002268
2626	0.0002716
2638	0.0002884
2650	0.0003388
2662	0.0003388
2674	0.0003892
2686	0.0004004
2698	0.0004704
2710	0.000392
2722	0.0004648
2734	0.0005096
2746	0.00056
2758	0.0005488
2770	0.0005404
2782	0.0006244
2794	0.0008204
2806	0.0010388
2818	0.001414
2830	0.0020132
2842	0.0035532
2854	0.0069076
2866	0.010934
2878	0.0129332
2890	0.0120708
2902	0.012628
2914	0.0180908
2926	0.0235676
2938	0.0277816
2950	0.0255444
2962	0.0236236
2974	0.0198828
2986	0.00784
2998	0.0031892
3010	0.0018788
3022	0.0013244
3034	0.0010556
3046	0.0009464
3058	0.0008092
3070	0.0007168
3082	0.000658
3094	0.0005656
3106	0.0005012
3118	0.0004368
3130	0.0004144
3142	0.0003612
3154	0.0003696
3166	0.0003444
3178	0.0003332
3190	0.0002184
3202	0.0001792
3214	0.000196
3226	0.0001484
3238	0.0002016
3250	0.0002884
3262	0.0004004
3274	0.0006776
3286	0.0012432
3298	0.0021
3310	0.0037408
3322	0.0061852
3334	0.0063084
3346	0.0017976
3358	0.0009352
3370	0.0004424
3382	0.0001988
3394	0.000154
3406	0.0001064
3418	8.96e-05
3430	8.96e-05
3442	0.0001288
3454	8.68e-05
3466	6.44e-05
3478	5.04e-05
3490	5.04e-05
3502	7.84e-05
3514	3.36e-05
3526	6.16e-05
3538	5.04e-05
3550	2.24e-05
3562	1.96e-05
3574	4.48e-05
3586	6.44e-05
3598	7.56e-05
3610	8.68e-05
3622	9.8e-05
3634	6.44e-05
3646	4.48e-05
3658	0.0001064
3670	0.0001176
3682	0.0001064
3694	7.84e-05
3706	8.4e-05
3718	8.4e-05
3730	6.72e-05
3742	7.56e-05
3754	5.32e-05
3766	0.0001036
3778	9.8e-05
3790	7.28e-05
3802	8.68e-05
3814	8.12e-05
3826	0.0001316
3838	0.0001428
