Infrared Spectrum: 9-Chloroanthracene
Formula: C 14 H 9 Cl
CAS: 716-53-0
State: gas
Instrument: HP-GC/MS/IRD
Origin: NIST Mass Spectrometry Data Center
1/CM	ABSORBANCE
550	0.0010332
562	0.0002562
574	0.000462
586	0.0013713
598	0.0019194
610	0.0015666
622	0.0003549
634	0.0007539
646	0.0007371
658	0.0004137
670	0.0006741
682	0.000378
694	0.0001974
706	0.0008022
718	0.0057918
730	0.021
742	0.0065898
754	0.001239
766	0.0028959
778	0.0030975
790	0.0006132
802	0.0003192
814	0.0007644
826	0.0033642
838	0.0046116
850	0.0010437
862	0.0013587
874	0.0049497
886	0.0039312
898	0.0006552
910	0.0003612
922	0.0008148
934	0.0064386
946	0.0115962
958	0.0023226
970	0.000525
982	0.0002877
994	0.0005922
1006	0.0022302
1018	0.0013146
1030	0.0001764
1042	4.41e-05
1054	7.14e-05
1066	9.45e-05
1078	6.93e-05
1090	1.26e-05
1102	9.45e-05
1114	3.36e-05
1126	5.67e-05
1138	0.0001323
1150	4.62e-05
1162	0.0002142
1174	0.0004284
1186	0.0001764
1198	0.000273
1210	0.0001785
1222	0.0002499
1234	0.0003654
1246	0.0010563
1258	0.0038556
1270	0.0058317
1282	0.0016842
1294	0.001701
1306	0.0055482
1318	0.0062916
1330	0.0020916
1342	0.0004137
1354	0.0004515
1366	0.0004074
1378	0.0007896
1390	0.0018585
1402	0.0013398
1414	0.0004116
1426	0.0003444
1438	0.0014637
1450	0.0009765
1462	0.0004452
1474	0.0006993
1486	0.0005607
1498	0.0002877
1510	0.0005397
1522	0.0011655
1534	0.000903
1546	0.0012558
1558	0.0010521
1570	0.0006195
1582	0.0004452
1594	0.0004221
1606	0.0003843
1618	0.0008337
1630	0.0008841
1642	0.0002394
1654	0.0001197
1666	0.000294
1678	0.0009702
1690	0.000798
1702	0.0011802
1714	0.0006888
1726	0.0004242
1738	0.0003612
1750	0.0004599
1762	0.0003675
1774	0.0003423
1786	0.0007686
1798	0.0010752
1810	0.001092
1822	0.0005082
1834	0.0003171
1846	0.0002289
1858	0.0001911
1870	7.98e-05
1882	9.45e-05
1894	0.0004011
1906	0.0007266
1918	0.0007182
1930	0.0008106
1942	0.0010857
1954	0.0001869
1966	6.72e-05
1978	4.62e-05
1990	2.73e-05
2002	4.41e-05
2014	4.41e-05
2026	7.14e-05
2038	8.61e-05
2050	7.77e-05
2062	7.14e-05
2074	5.67e-05
2086	2.1e-05
2098	2.52e-05
2110	3.36e-05
2122	2.94e-05
2134	4.62e-05
2146	2.73e-05
2158	2.31e-05
2170	3.36e-05
2182	4.62e-05
2194	4.41e-05
2206	5.67e-05
2218	4.62e-05
2230	6.93e-05
2242	9.24e-05
2254	8.4e-05
2266	9.03e-05
2278	9.45e-05
2290	0.0001239
2302	0.0001407
2314	0.0001638
2326	0.0001155
2338	7.56e-05
2350	0.0001512
2362	0.0001323
2374	7.77e-05
2386	6.93e-05
2398	8.61e-05
2410	4.62e-05
2422	6.3e-05
2434	6.09e-05
2446	7.56e-05
2458	3.99e-05
2470	8.61e-05
2482	8.61e-05
2494	3.57e-05
2506	4.2e-05
2518	6.51e-05
2530	5.46e-05
2542	7.77e-05
2554	6.51e-05
2566	3.99e-05
2578	2.73e-05
2590	2.73e-05
2602	3.78e-05
2614	2.52e-05
2626	3.78e-05
2638	4.2e-05
2650	5.25e-05
2662	3.57e-05
2674	3.78e-05
2686	6.72e-05
2698	0.000105
2710	4.83e-05
2722	4.2e-05
2734	1.68e-05
2746	1.47e-05
2758	3.15e-05
2770	5.25e-05
2782	4.41e-05
2794	4.41e-05
2806	6.72e-05
2818	0.0001197
2830	0.0001386
2842	0.0001029
2854	8.82e-05
2866	0.0001113
2878	0.0001134
2890	0.000147
2902	0.0001638
2914	0.0002415
2926	0.0002415
2938	0.0002058
2950	0.0002016
2962	0.0002688
2974	0.0003906
2986	0.0007245
2998	0.0011361
3010	0.001113
3022	0.0015078
3034	0.0034146
3046	0.0067788
3058	0.0101766
3070	0.0068019
3082	0.0070203
3094	0.0054096
3106	0.0014133
3118	0.0005628
3130	0.0002919
3142	0.000252
3154	0.000273
3166	0.0002016
3178	0.000189
3190	0.0001575
3202	0.0001491
3214	8.61e-05
3226	0.0001239
3238	0.0001344
3250	0.0001407
3262	9.87e-05
3274	0.0001197
3286	0.0001008
3298	0.0001218
3310	7.98e-05
3322	0.0001281
3334	2.31e-05
3346	5.46e-05
3358	5.25e-05
3370	0
3382	8.61e-05
3394	6.51e-05
3406	5.88e-05
3418	5.46e-05
3430	3.36e-05
3442	5.46e-05
3454	8.4e-05
3466	8.19e-05
3478	0.0001008
3490	5.04e-05
3502	0.0001155
3514	4.41e-05
3526	6.3e-05
3538	8.19e-05
3550	9.24e-05
3562	0.0001092
3574	0.0001176
3586	0.0001407
3598	8.61e-05
3610	8.61e-05
3622	0.0001638
3634	0.0001365
3646	0.0001302
3658	0.0001743
3670	0.0001911
3682	0.0001932
3694	0.000252
3706	0.0001764
3718	0.0001512
3730	0.0001407
3742	0.0001533
3754	0.0001533
3766	0.0001848
3778	0.0001533
3790	0.0001743
3802	8.61e-05
3814	9.45e-05
3826	0.000168
3838	0.0001554
