Infrared Spectrum: 2-Benzyl-p-cresol
Formula: C14 H14 O
CAS: 716-96-1
State: SOLUTION (10% CCl4 FOR 3800-1340, 10% CS2 FOR 1340-400 CM^-^1) VS SOLVENT
Class: COBLENTZ II
Instrument: BECKMAN IR-9 (GRATING)
Instrument parameters: ORDER CHANGES: 670, 1200, 2000 CM^-^1
Sampling: TRANSMISSION
Path length: 0.010 CM, 0.011 CM
Resolution: 2
Origin: DOW CHEMICAL COMPANY
1/CM	TRANSMITTANCE
3812	0.8888
3803	0.8877
3794	0.8864
3785	0.8859
3776	0.8856
3767	0.8852
3758	0.8847
3749	0.8842
3740	0.8842
3731	0.8843
3722	0.8827
3713	0.8808
3704	0.8775
3695	0.8735
3686	0.8693
3677	0.863
3668	0.8553
3659	0.8464
3650	0.8264
3641	0.7862
3632	0.3902
3623	0.3691
3614	0.4989
3605	0.549
3596	0.528
3587	0.5005
3578	0.4651
3569	0.4554
3560	0.4696
3551	0.5223
3542	0.5632
3533	0.5877
3524	0.6012
3515	0.6068
3506	0.6118
3497	0.618
3488	0.6239
3479	0.6312
3470	0.64
3461	0.6515
3452	0.6658
3443	0.6787
3434	0.6924
3425	0.7068
3416	0.7198
3407	0.7331
3398	0.7443
3389	0.755
3380	0.7651
3371	0.7747
3362	0.7833
3353	0.7918
3344	0.7988
3335	0.8051
3326	0.8111
3317	0.8168
3308	0.8225
3299	0.8282
3290	0.833
3281	0.8378
3272	0.8428
3263	0.8467
3254	0.8506
3245	0.8539
3236	0.857
3227	0.8603
3218	0.8637
3209	0.8666
3200	0.8684
3191	0.8698
3182	0.8709
3173	0.8717
3164	0.8721
3155	0.8708
3146	0.8657
3137	0.8543
3128	0.8357
3119	0.8145
3110	0.8108
3101	0.7543
3092	0.6811
3083	0.7134
3074	0.5592
3065	0.6649
3056	0.6625
3047	0.5468
3038	0.4014
3029	0.5062
3020	0.5659
3011	0.6676
3002	0.7339
2993	0.7282
2984	0.7075
2975	0.6976
2966	0.6799
2957	0.6278
2948	0.6052
2939	0.5435
2930	0.4789
2921	0.5398
2912	0.6024
2903	0.6758
2894	0.7369
2885	0.7215
2876	0.6398
2867	0.716
2858	0.7649
2849	0.786
2840	0.8176
2831	0.8508
2822	0.8671
2813	0.8732
2804	0.8753
2795	0.8762
2786	0.8771
2777	0.8774
2768	0.8768
2759	0.8712
2750	0.8546
2741	0.8566
2732	0.8788
2723	0.88
2714	0.8795
2705	0.879
2696	0.8788
2687	0.8788
2678	0.8787
2669	0.8787
2660	0.8789
2651	0.8795
2642	0.8805
2633	0.8814
2624	0.8821
2615	0.8825
2606	0.8828
2597	0.8831
2588	0.8835
2579	0.8838
2570	0.8835
2561	0.8816
2552	0.8781
2543	0.875
2534	0.8723
2525	0.8728
2516	0.8736
2507	0.8741
2498	0.8742
2489	0.8743
2480	0.8749
2471	0.8753
2462	0.8759
2453	0.8763
2444	0.8766
2435	0.8763
2426	0.8762
2417	0.8777
2408	0.8804
2399	0.8804
2390	0.875
2381	0.8668
2372	0.8678
2363	0.8701
2354	0.8736
2345	0.8762
2336	0.8774
2327	0.8786
2318	0.8798
2309	0.8815
2300	0.8832
2291	0.8842
2282	0.8852
2273	0.8859
2264	0.8865
2255	0.8868
2246	0.8871
2237	0.8878
2228	0.888
2219	0.8882
2210	0.8888
2201	0.8897
2192	0.8906
2183	0.8907
2174	0.8908
2165	0.8908
2156	0.8909
2147	0.891
2138	0.8907
2129	0.89
2120	0.8899
2111	0.89
2102	0.8899
2093	0.8896
2084	0.889
2075	0.888
2066	0.887
2057	0.8868
2048	0.8877
2039	0.8877
2030	0.8865
2021	0.8856
2012	0.8821
2003	0.8802
1994	0.8814
1985	0.883
1976	0.8836
1967	0.871
1958	0.8644
1949	0.8439
1940	0.8578
1931	0.8793
1922	0.881
1913	0.8809
1904	0.8788
1895	0.8733
1886	0.8568
1877	0.8518
1868	0.8516
1859	0.8542
1850	0.8637
1841	0.8706
1832	0.8661
1823	0.8521
1814	0.8384
1805	0.8388
1796	0.8634
1787	0.8704
1778	0.8632
1769	0.8636
1760	0.8618
1751	0.8575
1742	0.8617
1733	0.8678
1724	0.8727
1715	0.8745
1706	0.8749
1697	0.8752
1688	0.8741
1679	0.8718
1670	0.8662
1661	0.8601
1652	0.8566
1643	0.8518
1634	0.8351
1625	0.8018
1616	0.6675
1607	0.6327
1598	0.5883
1589	0.7551
1580	0.7972
1571	0.8294
1562	0.8415
1553	0.8434
1544	0.7951
1535	0.7831
1526	0.7244
1517	0.4314
1508	0.1179
1499	0.1518
1490	0.2935
1481	0.6511
1472	0.6583
1463	0.6244
1454	0.3262
1445	0.5522
1436	0.5334
1427	0.6146
1418	0.6062
1409	0.731
1400	0.7945
1391	0.7954
1382	0.7818
1373	0.7865
1364	0.7824
1355	0.7607
1346	0.7287
1337	0.6698
1328	0.5472
1319	0.4186
1310	0.6092
1301	0.7298
1292	0.7358
1283	0.6825
1274	0.5677
1265	0.2896
1256	0.1716
1247	0.4462
1238	0.4699
1229	0.4867
1220	0.5871
1211	0.5464
1202	0.4343
1193	0.363
1184	0.1651
1175	0.1948
1166	0.3343
1157	0.5219
1148	0.5322
1139	0.5978
1130	0.7669
1121	0.7711
1112	0.6789
1103	0.3858
1094	0.4493
1085	0.6085
1076	0.7171
1067	0.6835
1058	0.8064
1049	0.8065
1040	0.7568
1031	0.6886
1022	0.7892
1013	0.8178
1004	0.8003
995	0.8115
986	0.8312
977	0.8318
968	0.8306
959	0.8299
950	0.8263
941	0.7551
932	0.6693
923	0.7544
914	0.7769
905	0.7903
896	0.7968
887	0.7888
878	0.6753
869	0.7771
860	0.8301
851	0.8296
842	0.8086
833	0.7905
824	0.6537
815	0.3024
806	0.2852
797	0.3834
788	0.7194
779	0.724
770	0.7949
761	0.8025
752	0.6726
743	0.6921
734	0.6379
725	0.1503
716	0.4517
707	0.5275
698	0.1403
689	0.6014
680	0.8117
671	0.8015
662	0.8171
653	0.7968
644	0.7971
635	0.7508
626	0.7283
617	0.7636
608	0.7651
599	0.7983
590	0.7921
581	0.7021
572	0.7624
563	0.7797
554	0.7458
545	0.6748
536	0.4579
527	0.7582
518	0.7761
509	0.7738
500	0.7572
491	0.6418
482	0.6721
473	0.6987
464	0.7378
455	0.634
446	0.7138
437	0.7328
428	0.7546
419	0.7451
410	0.7401
401	0.7401
