Infrared Spectrum: 3',4'-Dichloropivalanilide
Formula: C 11 H 13 Cl 2 N O
CAS: 7160-22-7
State: gas
Origin: EPA-IR VAPOR PHASE LIBRARY
1/CM	ABSORBANCE
549.8	0.005088
559.445	0.003968
569.09	0.003808
578.734	0.004868
588.379	0.003448
598.024	0.001618
607.669	0.001358
617.313	0.0010144
626.958	0.0007781
636.603	0.000899
646.248	0.0011636
655.893	0.001538
665.537	0.006518
675.182	0.009588
684.827	0.003308
694.472	0.004518
704.116	0.005228
713.761	0.002878
723.406	0.002148
733.051	0.001588
742.695	0.001358
752.34	0.001418
761.985	0.001728
771.63	0.002328
781.275	0.003658
790.919	0.006408
800.564	0.011238
810.209	0.010998
819.854	0.008928
829.498	0.004758
839.143	0.004878
848.788	0.007818
858.433	0.007518
868.078	0.007308
877.722	0.008248
887.367	0.008288
897.012	0.009128
906.657	0.010368
916.301	0.010648
925.946	0.011048
935.591	0.007598
945.236	0.004578
954.88	0.002998
964.525	0.002258
974.17	0.001898
983.815	0.002148
993.46	0.002488
1003.1	0.003438
1012.75	0.006478
1022.39	0.014578
1032.04	0.018868
1041.68	0.010038
1051.33	0.005438
1060.97	0.003938
1070.62	0.004248
1080.26	0.004148
1089.91	0.005668
1099.55	0.007998
1109.2	0.013948
1118.84	0.034938
1128.49	0.090648
1138.13	0.088428
1147.78	0.043218
1157.42	0.023318
1167.07	0.014498
1176.71	0.010018
1186.36	0.006618
1196	0.006848
1205.64	0.008758
1215.29	0.013328
1224.93	0.015838
1234.58	0.010488
1244.22	0.008828
1253.87	0.010088
1263.51	0.013408
1273.16	0.023958
1282.8	0.043588
1292.45	0.035578
1302.09	0.013128
1311.74	0.007558
1321.38	0.006068
1331.03	0.006018
1340.67	0.007508
1350.32	0.013088
1359.96	0.028518
1369.61	0.046438
1379.25	0.044998
1388.9	0.033118
1398.54	0.029978
1408.18	0.017168
1417.83	0.010108
1427.47	0.011718
1437.12	0.015858
1446.76	0.027038
1456.41	0.047158
1466.05	0.080278
1475.7	0.150798
1485.34	0.140648
1494.99	0.158858
1504.63	0.121808
1514.28	0.059528
1523.92	0.036938
1533.57	0.024858
1543.21	0.015588
1552.86	0.013948
1562.5	0.021428
1572.15	0.040468
1581.79	0.049758
1591.44	0.046808
1601.08	0.030308
1610.73	0.013668
1620.37	0.007888
1630.01	0.005708
1639.66	0.004478
1649.3	0.004238
1658.95	0.004668
1668.59	0.005988
1678.24	0.009128
1687.88	0.015068
1697.53	0.023668
1707.17	0.048388
1716.82	0.073788
1726.46	0.046598
1736.11	0.021478
1745.75	0.012668
1755.4	0.006768
1765.04	0.004228
1774.69	0.003048
1784.33	0.002358
1793.98	0.002088
1803.62	0.002008
1813.27	0.001758
1822.91	0.001458
1832.55	0.001348
1842.2	0.001298
1851.84	0.001338
1861.49	0.001428
1871.13	0.0011567
1880.78	0.0010394
1890.42	0.0011524
1900.07	0.001207
1909.71	0.0009398
1919.36	0.0008973
1929	0.0008224
1938.65	0.0008238
1948.29	0.0008624
1957.94	0.0007881
1967.58	0.0007878
1977.23	0.0007197
1986.87	0.0007893
1996.52	0.0006032
2006.16	0.0005878
2015.81	0.000603
2025.45	0.0005541
2035.1	0.0006886
2044.74	0.0005863
2054.38	0.0006386
2064.03	0.0006961
2073.67	0.0006476
2083.32	0.0006552
2092.96	0.0005346
2102.61	0.0005825
2112.25	0.0004461
2121.9	0.0005375
2131.54	0.0006096
2141.19	0.0006777
2150.83	0.0008146
2160.48	0.0009248
2170.12	0.000912
2179.77	0.0009116
2189.41	0.0008904
2199.06	0.0006592
2208.7	0.0005886
2218.35	0.0003984
2227.99	0.0003782
2237.64	0.0004168
2247.28	0.00036941
2256.92	0.000553
2266.57	0.0006656
2276.21	0.0007111
2285.86	0.0007163
2295.5	0.0008089
2305.15	0.0006332
2314.79	0.0004179
2324.44	0.0005789
2334.08	0.0005247
2343.73	0.0004076
2353.37	0.0005173
2363.02	0.0006209
2372.66	0.0008027
2382.31	0.0008312
2391.95	0.0009182
2401.6	0.0008081
2411.24	0.0008056
2420.89	0.0006713
2430.53	0.0006307
2440.18	0.00053
2449.82	0.0005147
2459.47	0.0004768
2469.11	0.0006333
2478.75	0.0005862
2488.4	0.0006864
2498.04	0.0007917
2507.69	0.0006788
2517.33	0.0006264
2526.98	0.0006126
2536.62	0.0005478
2546.27	0.0004698
2555.91	0.0004992
2565.56	0.0005234
2575.2	0.0004712
2584.85	0.0005869
2594.49	0.0006825
2604.14	0.0007447
2613.78	0.0006598
2623.43	0.0007082
2633.07	0.0007452
2642.72	0.0005777
2652.36	0.0006168
2662.01	0.0006715
2671.65	0.000561
2681.29	0.0005682
2690.94	0.0006568
2700.58	0.0007241
2710.23	0.0009758
2719.87	0.0010911
2729.52	0.0011439
2739.16	0.0010459
2748.81	0.0010321
2758.45	0.0010258
2768.1	0.0009321
2777.74	0.0009165
2787.39	0.0010149
2797.03	0.0011423
2806.68	0.0011607
2816.32	0.001458
2825.97	0.001638
2835.61	0.001868
2845.26	0.002468
2854.9	0.003768
2864.55	0.006668
2874.19	0.010678
2883.84	0.012258
2893.48	0.011458
2903.12	0.011848
2912.77	0.014158
2922.41	0.016028
2932.06	0.018118
2941.7	0.021928
2951.35	0.030458
2960.99	0.047538
2970.64	0.053318
2980.28	0.032138
2989.93	0.018698
2999.57	0.010288
3009.22	0.005248
3018.86	0.003348
3028.51	0.003198
3038.15	0.002478
3047.8	0.002288
3057.44	0.002378
3067.09	0.002228
3076.73	0.002078
3086.38	0.002508
3096.02	0.002348
3105.67	0.002008
3115.31	0.002678
3124.95	0.002958
3134.6	0.001778
3144.24	0.001198
3153.89	0.0012013
3163.53	0.0012693
3173.18	0.0010315
3182.82	0.001166
3192.47	0.0011646
3202.11	0.0010773
3211.76	0.0009313
3221.4	0.0007473
3231.05	0.0007613
3240.69	0.0005444
3250.34	0.0005473
3259.98	0.0005992
3269.63	0.0003977
3279.27	0.0002613
3288.92	0.00029993
3298.56	0.00036981
3308.21	0.0004268
3317.85	0.00032388
3327.49	0.0004291
3337.14	0.0004211
3346.78	0.0004968
3356.43	0.0002613
3366.07	0.0004936
3375.72	0.0004966
3385.36	0.0006814
3395.01	0.0007652
3404.65	0.0010796
3414.3	0.001428
3423.94	0.001598
3433.59	0.001598
3443.23	0.002558
3452.88	0.004428
3462.52	0.008648
3472.17	0.014478
3481.81	0.010038
3491.46	0.003518
3501.1	0.001638
3510.75	0.0011897
3520.39	0.0006783
3530.04	0.0004009
3539.68	0.0003411
3549.32	0.00037286
3558.97	0.00044
3568.61	0.00030306
3578.26	0.00030285
3587.9	0.000139
3597.55	0.000135
3607.19	0.000105
3616.84	0.0002576
3626.48	0.0002047
3636.13	0.0004133
3645.77	7.1e-05
3655.42	0.0002205
3665.06	0.00030669
3674.71	0.00038
3684.35	0.00036886
3694	6.4e-05
3703.64	0.00035075
3713.29	0.0003265
3722.93	0.0002397
3732.58	0.0002322
3742.22	0.00029256
3751.86	0.000133
3761.51	0.00031179
3771.15	6.9e-05
3780.8	0.0001948
3790.44	0.0004823
3800.09	0.00032348
3809.73	0.000146
3819.38	0.000145
3829.02	0.0001939
3838.67	0.0002338
3848.31	0.0003902
3857.96	0.000122
3867.6	0.0004032
3877.25	0.0004994
3886.89	0.0003362
3896.54	0.00036828
3906.18	0.0004044
3915.83	0.00036888
3925.47	0.00035552
3935.12	0.0003785
3944.76	0.00031322
3954.41	0.00036314
3964.05	0.0004644
3973.69	0.00034272
3983.34	0.00036049
3992.98	0.00036798
