Infrared Spectrum: o-Hexyloxybenzaldehyde
Formula: C 13 H 18 O 2
CAS: 7162-59-6
State: gas
Origin: EPA-IR VAPOR PHASE LIBRARY
1/CM	ABSORBANCE
549.8	0.0006446
559.445	8.8e-05
569.09	0.00027349
578.734	0.0005903
588.379	0.0011074
598.024	0.001806
607.669	0.001526
617.313	0.001396
626.958	0.001646
636.603	0.003256
646.248	0.004606
655.893	0.004446
665.537	0.002396
675.182	0.001406
684.827	0.0009078
694.472	0.001246
704.116	0.001966
713.761	0.003696
723.406	0.005566
733.051	0.006806
742.695	0.012836
752.34	0.024176
761.985	0.019276
771.63	0.008886
781.275	0.004816
790.919	0.004066
800.564	0.004466
810.209	0.005006
819.854	0.007026
829.498	0.009366
839.143	0.008936
848.788	0.006536
858.433	0.004866
868.078	0.003766
877.722	0.002566
887.367	0.002076
897.012	0.001666
906.657	0.001926
916.301	0.002336
925.946	0.003996
935.591	0.005616
945.236	0.005686
954.88	0.004706
964.525	0.004296
974.17	0.004666
983.815	0.005796
993.46	0.008786
1003.1	0.013676
1012.75	0.018056
1022.39	0.015816
1032.04	0.013676
1041.68	0.016156
1051.33	0.012116
1060.97	0.007166
1070.62	0.004806
1080.26	0.004646
1089.91	0.007056
1099.55	0.012066
1109.2	0.010096
1118.84	0.006306
1128.49	0.005066
1138.13	0.004506
1147.78	0.008546
1157.42	0.019046
1167.07	0.011776
1176.71	0.010496
1186.36	0.014306
1196	0.014356
1205.64	0.018036
1215.29	0.029696
1224.93	0.046376
1234.58	0.060006
1244.22	0.053096
1253.87	0.028996
1263.51	0.022646
1273.16	0.032616
1282.8	0.040616
1292.45	0.030176
1302.09	0.019226
1311.74	0.009886
1321.38	0.005556
1331.03	0.004036
1340.67	0.003726
1350.32	0.004136
1359.96	0.005686
1369.61	0.009926
1379.25	0.020116
1388.9	0.023816
1398.54	0.013426
1408.18	0.006066
1417.83	0.004696
1427.47	0.005896
1437.12	0.010036
1446.76	0.021496
1456.41	0.038826
1466.05	0.032356
1475.7	0.039576
1485.34	0.033426
1494.99	0.014246
1504.63	0.007606
1514.28	0.004236
1523.92	0.002816
1533.57	0.002226
1543.21	0.002236
1552.86	0.003006
1562.5	0.005106
1572.15	0.010206
1581.79	0.019806
1591.44	0.033696
1601.08	0.040596
1610.73	0.016716
1620.37	0.006616
1630.01	0.004356
1639.66	0.003706
1649.3	0.003816
1658.95	0.004646
1668.59	0.006236
1678.24	0.008646
1687.88	0.016456
1697.53	0.045006
1707.17	0.091896
1716.82	0.057156
1726.46	0.027206
1736.11	0.010246
1745.75	0.003976
1755.4	0.002256
1765.04	0.001686
1774.69	0.001596
1784.33	0.001746
1793.98	0.001846
1803.62	0.001696
1813.27	0.001566
1822.91	0.001246
1832.55	0.0010449
1842.2	0.0008759
1851.84	0.0007737
1861.49	0.0007328
1871.13	0.0008477
1880.78	0.0009592
1890.42	0.0010703
1900.07	0.0010382
1909.71	0.001366
1919.36	0.001496
1929	0.001296
1938.65	0.001396
1948.29	0.001466
1957.94	0.0010839
1967.58	0.0009337
1977.23	0.0009484
1986.87	0.0010037
1996.52	0.0010595
2006.16	0.0010667
2015.81	0.0010592
2025.45	0.0011582
2035.1	0.0011205
2044.74	0.0010704
2054.38	0.0009293
2064.03	0.0009292
2073.67	0.0008762
2083.32	0.0007433
2092.96	0.000635
2102.61	0.0005737
2112.25	0.0005521
2121.9	0.0004685
2131.54	0.0005
2141.19	0.0004216
2150.83	0.0003978
2160.48	0.0003437
2170.12	0.0004062
2179.77	0.0003749
2189.41	0.0004226
2199.06	0.0004538
2208.7	0.0004028
2218.35	0.0004776
2227.99	0.0005011
2237.64	0.0005241
2247.28	0.0005173
2256.92	0.0006193
2266.57	0.0005861
2276.21	0.0005697
2285.86	0.0005954
2295.5	0.0005829
2305.15	0.0005038
2314.79	0.0006491
2324.44	0.000681
2334.08	0.0006456
2343.73	0.0005384
2353.37	0.0005383
2363.02	0.0006142
2372.66	0.0007368
2382.31	0.0007373
2391.95	0.0007499
2401.6	0.0006901
2411.24	0.0006214
2420.89	0.00063
2430.53	0.0006124
2440.18	0.0006463
2449.82	0.0008536
2459.47	0.0008666
2469.11	0.0008413
2478.75	0.0008539
2488.4	0.0007127
2498.04	0.0006766
2507.69	0.0006545
2517.33	0.0007914
2526.98	0.0007614
2536.62	0.0006858
2546.27	0.0007052
2555.91	0.0008801
2565.56	0.000775
2575.2	0.0008671
2584.85	0.0008941
2594.49	0.0008397
2604.14	0.0007264
2613.78	0.0008284
2623.43	0.0008179
2633.07	0.0009825
2642.72	0.0011772
2652.36	0.001236
2662.01	0.001486
2671.65	0.001746
2681.29	0.001996
2690.94	0.002446
2700.58	0.003326
2710.23	0.004726
2719.87	0.004876
2729.52	0.003726
2739.16	0.004366
2748.81	0.006356
2758.45	0.005486
2768.1	0.003976
2777.74	0.003486
2787.39	0.003346
2797.03	0.003396
2806.68	0.003876
2816.32	0.005096
2825.97	0.006716
2835.61	0.009866
2845.26	0.017246
2854.9	0.029476
2864.55	0.032396
2874.19	0.028936
2883.84	0.026546
2893.48	0.022386
2903.12	0.022696
2912.77	0.028856
2922.41	0.039266
2932.06	0.052296
2941.7	0.057326
2951.35	0.048286
2960.99	0.042676
2970.64	0.040156
2980.28	0.022036
2989.93	0.011366
2999.57	0.007286
3009.22	0.005666
3018.86	0.004966
3028.51	0.004546
3038.15	0.005366
3047.8	0.005106
3057.44	0.004656
3067.09	0.006166
3076.73	0.010276
3086.38	0.009106
3096.02	0.004206
3105.67	0.002956
3115.31	0.001646
3124.95	0.0011906
3134.6	0.0011528
3144.24	0.0008784
3153.89	0.0009907
3163.53	0.0009062
3173.18	0.0007872
3182.82	0.0006977
3192.47	0.000706
3202.11	0.0005374
3211.76	0.0003851
3221.4	0.0003304
3231.05	0.0004269
3240.69	0.0003503
3250.34	0.00025469
3259.98	0.0003248
3269.63	0.00025492
3279.27	0.00029933
3288.92	0.0003401
3298.56	0.0004596
3308.21	0.0003756
3317.85	0.00029111
3327.49	0.0001789
3337.14	0.000221981
3346.78	0.0003535
3356.43	0.0004121
3366.07	0.0006158
3375.72	0.0006647
3385.36	0.0012046
3395.01	0.001386
3404.65	0.001256
3414.3	0.0005907
3423.94	0.0005103
3433.59	0.0004969
3443.23	0.0003472
3452.88	0.0002028
3462.52	0.0001398
3472.17	0.00026135
3481.81	2.2e-05
3491.46	0.00023323
3501.1	0.000113
3510.75	0.000219726
3520.39	0.0001
3530.04	0.000220707
3539.68	0.000108
3549.32	0.0001237
3558.97	0.0001465
3568.61	2e-06
3578.26	0.0001164
3587.9	0.0002027
3597.55	7.1e-05
3607.19	0.0003298
3616.84	0.00022827
3626.48	0.00025142
3636.13	0.0002614
3645.77	0.00028263
3655.42	0.00029363
3665.06	0.0001563
3674.71	0.00031415
3684.35	0.00026856
3694	0.00026872
3703.64	0.00029131
3713.29	0.0003363
3722.93	0.0001355
3732.58	0.00026346
3742.22	0.0001942
3751.86	0.00022957
3761.51	0.0003198
3771.15	0.00025218
3780.8	0.0002479
3790.44	0.0004011
3800.09	0.00029275
3809.73	0.00023161
3819.38	0.0004015
3829.02	0.0002778
3838.67	0.0004104
3848.31	0.0004714
3857.96	0.0003684
3867.6	0.0005056
3877.25	0.0004484
3886.89	0.0003194
3896.54	0.0004307
3906.18	0.0005066
3915.83	0.0004282
3925.47	0.0004134
3935.12	0.0005719
3944.76	0.0003657
3954.41	0.0004045
3964.05	0.0004251
3973.69	0.0003266
3983.34	0.00025362
3992.98	0.0003649
