Infrared Spectrum: Thiophene-3-methanol
Formula: C 5 H 6 O S
CAS: 71637-34-8
State: gas
Origin: EPA-IR VAPOR PHASE LIBRARY
1/CM	ABSORBANCE
549.9	0.00892
559.547	0.0115
569.193	0.01195
578.84	0.01052
588.486	0.00996
598.133	0.00977
607.779	0.0103
617.426	0.01179
627.072	0.01363
636.719	0.01562
646.365	0.01446
656.012	0.01632
665.658	0.02243
675.305	0.03223
684.951	0.04205
694.598	0.03672
704.245	0.02665
713.891	0.01973
723.538	0.01724
733.184	0.01816
742.831	0.02434
752.477	0.04134
762.124	0.06716
771.77	0.10323
781.417	0.09594
791.063	0.06406
800.71	0.03398
810.356	0.01715
820.003	0.02119
829.649	0.03343
839.296	0.0397
848.943	0.04255
858.589	0.03907
868.236	0.03523
877.882	0.01416
887.529	0.00938
897.175	0.00909
906.822	0.01144
916.468	0.01677
926.115	0.02073
935.761	0.02085
945.408	0.0203
955.054	0.02419
964.701	0.02867
974.347	0.03152
983.994	0.03539
993.64	0.0437
1003.29	0.05951
1012.93	0.08471
1022.58	0.10803
1032.23	0.10487
1041.87	0.07788
1051.52	0.04771
1061.17	0.03135
1070.81	0.02545
1080.46	0.01995
1090.11	0.01668
1099.75	0.01158
1109.4	0.00983
1119.05	0.01049
1128.69	0.01403
1138.34	0.02263
1147.99	0.03012
1157.63	0.03051
1167.28	0.0249
1176.92	0.0213
1186.57	0.02045
1196.22	0.02039
1205.86	0.02172
1215.51	0.02444
1225.16	0.0272
1234.8	0.0278
1244.45	0.02567
1254.1	0.02216
1263.74	0.01889
1273.39	0.01663
1283.04	0.01549
1292.68	0.01509
1302.33	0.01529
1311.98	0.01547
1321.62	0.01624
1331.27	0.01815
1340.92	0.02148
1350.56	0.02677
1360.21	0.03316
1369.86	0.03939
1379.5	0.03989
1389.15	0.03925
1398.79	0.04321
1408.44	0.05005
1418.09	0.04425
1427.73	0.02889
1437.38	0.01821
1447.03	0.01688
1456.67	0.01629
1466.32	0.01502
1475.97	0.01149
1485.61	0.00778
1495.26	0.00545
1504.91	0.00462
1514.55	0.00446
1524.2	0.00489
1533.85	0.00615
1543.49	0.00928
1553.14	0.01225
1562.79	0.01139
1572.43	0.00709
1582.08	0.00389
1591.73	0.0030842
1601.37	0.0029492
1611.02	0.0028901
1620.67	0.0027996
1630.31	0.0029004
1639.96	0.0032323
1649.6	0.0035435
1659.25	0.0034258
1668.9	0.0027566
1678.54	0.002292
1688.19	0.002088
1697.84	0.001974
1707.48	0.0018
1717.13	0.00212
1726.78	0.00266801
1736.42	0.0035294
1746.07	0.00412
1755.72	0.00404
1765.36	0.0034039
1775.01	0.002456
1784.66	0.001899
1794.3	0.001732
1803.95	0.001611
1813.6	0.00161
1823.24	0.00152
1832.89	0.00154
1842.54	0.00155
1852.18	0.00156
1861.83	0.00154
1871.47	0.00157
1881.12	0.00156
1890.77	0.001593
1900.41	0.001594
1910.06	0.00157
1919.71	0.001608
1929.35	0.00176
1939	0.001915
1948.65	0.001938
1958.29	0.001948
1967.94	0.001891
1977.59	0.001996
1987.23	0.002206
1996.88	0.002455
2006.53	0.0026975
2016.17	0.0028508
2025.82	0.0028957
2035.47	0.0028254
2045.11	0.0027745
2054.76	0.00265314
2064.41	0.002435
2074.05	0.002343
2083.7	0.002172
2093.35	0.001956
2102.99	0.001782
2112.64	0.001685
2122.28	0.001676
2131.93	0.001732
2141.58	0.001921
2151.22	0.002201
2160.87	0.002388
2170.52	0.002349
2180.16	0.002109
2189.81	0.001932
2199.46	0.001874
2209.1	0.001876
2218.75	0.001945
2228.4	0.001956
2238.04	0.002042
2247.69	0.002003
2257.34	0.001996
2266.98	0.002065
2276.63	0.002165
2286.28	0.002159
2295.92	0.002109
2305.57	0.00213
2315.22	0.00209
2324.86	0.002045
2334.51	0.002075
2344.16	0.002022
2353.8	0.001996
2363.45	0.001977
2373.09	0.002023
2382.74	0.002018
2392.39	0.002049
2402.03	0.002062
2411.68	0.002048
2421.33	0.002004
2430.97	0.002003
2440.62	0.001977
2450.27	0.001995
2459.91	0.002075
2469.56	0.002037
2479.21	0.002031
2488.85	0.001847
2498.5	0.001881
2508.15	0.001693
2517.79	0.001652
2527.44	0.001631
2537.09	0.001605
2546.73	0.0015
2556.38	0.00154
2566.03	0.00144
2575.67	0.00147
2585.32	0.0015
2594.96	0.00152
2604.61	0.001639
2614.26	0.001687
2623.9	0.001711
2633.55	0.001731
2643.2	0.001758
2652.84	0.001742
2662.49	0.001766
2672.14	0.001781
2681.78	0.001889
2691.43	0.002027
2701.08	0.002019
2710.72	0.002183
2720.37	0.002344
2730.02	0.0025405
2739.66	0.0027614
2749.31	0.0029835
2758.96	0.0033532
2768.6	0.00381
2778.25	0.00422
2787.9	0.00481
2797.54	0.00548
2807.19	0.00638
2816.84	0.00764
2826.48	0.00936
2836.13	0.01154
2845.77	0.01498
2855.42	0.02
2865.07	0.0277
2874.71	0.03762
2884.36	0.04369
2894.01	0.04222
2903.65	0.03733
2913.3	0.03479
2922.95	0.03464
2932.59	0.03435
2942.24	0.0334
2951.89	0.02967
2961.53	0.02363
2971.18	0.01607
2980.83	0.01003
2990.47	0.00626
3000.12	0.00403
3009.77	0.0028301
3019.41	0.002103
3029.06	0.001811
3038.71	0.001895
3048.35	0.0025137
3058	0.0032796
3067.64	0.00402
3077.29	0.00434
3086.94	0.00392
3096.58	0.0033941
3106.23	0.002757
3115.88	0.002461
3125.52	0.001885
3135.17	0.00106
3144.82	0.00058
3154.46	0.00028
3164.11	0.00012
3173.76	0.00016
3183.4	0.00011
3193.05	7e-05
3202.7	0.00017
3212.34	0.00024
3221.99	0.00021
3231.64	0.00022
3241.28	0.00013
3250.93	0.00012
3260.58	0.00015
3270.22	0.00021
3279.87	0.00038
3289.52	0.00017
3299.16	0.00026
3308.81	0.00036
3318.45	0.00038
3328.1	0.00046
3337.75	0.00051
3347.39	0.00051
3357.04	0.00067
3366.69	0.00079
3376.33	0.00087
3385.98	0.00104
3395.63	0.00117
3405.27	0.00132
3414.92	0.00127
3424.57	0.00135
3434.21	0.00143
3443.86	0.00139
3453.51	0.00154
3463.15	0.001595
3472.8	0.001686
3482.45	0.001709
3492.09	0.001872
3501.74	0.001813
3511.39	0.001691
3521.03	0.001645
3530.68	0.00163
3540.33	0.00159
3549.97	0.001667
3559.62	0.001695
3569.26	0.001915
3578.91	0.00218
3588.56	0.002393
3598.2	0.0028519
3607.85	0.00372
3617.5	0.0054
3627.14	0.00845
3636.79	0.0133
3646.44	0.02023
3656.08	0.02402
3665.73	0.02188
3675.38	0.01569
3685.02	0.00932
3694.67	0.00626
3704.32	0.00472
3713.96	0.00377
3723.61	0.0031662
3733.26	0.0027135
3742.9	0.0026767
3752.55	0.00261079
3762.2	0.00243
3771.84	0.002428
3781.49	0.002301
3791.13	0.002376
3800.78	0.00235
3810.43	0.002394
3820.07	0.002283
3829.72	0.002354
3839.37	0.002355
3849.01	0.002425
3858.66	0.002407
3868.31	0.0025259
3877.95	0.0024938
3887.6	0.002435
3897.25	0.0024963
3906.89	0.002362
3916.54	0.00225
3926.19	0.002257
3935.83	0.002313
3945.48	0.002343
3955.13	0.002387
3964.77	0.002186
3974.42	0.002064
3984.07	0.001899
3993.71	0.001893
