Infrared Spectrum: 1-Phenylimidazole
Formula: C 9 H 8 N 2
CAS: 7164-98-9
State: gas
Instrument: HP-GC/MS/IRD
Origin: NIST Mass Spectrometry Data Center
1/CM	ABSORBANCE
550	0.0005292
562	0.000162
574	0
586	3.24e-05
598	0.0003996
610	0.0011124
622	0.0017928
634	0.0029592
646	0.0067824
658	0.0106272
670	0.011232
682	0.0186948
694	0.0230148
706	0.0181116
718	0.01998
730	0.0177336
742	0.0172908
754	0.0243864
766	0.0192996
778	0.0087588
790	0.0055728
802	0.0099792
814	0.01161
826	0.0058968
838	0.0025056
850	0.0023112
862	0.0018144
874	0.0013932
886	0.00378
898	0.0088884
910	0.0037368
922	0.0010152
934	0.000594
946	0.0013608
958	0.0072576
970	0.0060696
982	0.001242
994	0.0018036
1006	0.0023652
1018	0.0019548
1030	0.0039852
1042	0.021276
1054	0.0455004
1066	0.0160164
1078	0.0046548
1090	0.0053136
1102	0.0074196
1114	0.0059076
1126	0.0026676
1138	0.0011772
1150	0.0010476
1162	0.0008424
1174	0.000864
1186	0.0007668
1198	0.00081
1210	0.0015336
1222	0.0034128
1234	0.0138564
1246	0.020952
1258	0.0088884
1270	0.00513
1282	0.0073116
1294	0.0334368
1306	0.0400572
1318	0.0086832
1330	0.0029592
1342	0.0020304
1354	0.002916
1366	0.0054
1378	0.00432
1390	0.0016308
1402	0.0011988
1414	0.0017172
1426	0.0032724
1438	0.005616
1450	0.0080352
1462	0.0114804
1474	0.0215136
1486	0.0379836
1498	0.082242
1510	0.0980964
1522	0.0305424
1534	0.0070632
1546	0.0037908
1558	0.0044388
1570	0.0095796
1582	0.013446
1594	0.0273996
1606	0.0307476
1618	0.0090936
1630	0.003294
1642	0.0031428
1654	0.0054108
1666	0.0038232
1678	0.0015012
1690	0.0021276
1702	0.0035748
1714	0.002592
1726	0.002052
1738	0.001242
1750	0.00054
1762	0.0003996
1774	0.0008532
1786	0.0012636
1798	0.0007236
1810	0.0003996
1822	0.000216
1834	0.0002808
1846	0.0006912
1858	0.0012312
1870	0.0011988
1882	0.0009288
1894	0.0003996
1906	0.0002484
1918	0.000594
1930	0.0010692
1942	0.0012744
1954	0.0013932
1966	0.0006912
1978	0.0002376
1990	0.0002484
2002	0.0001728
2014	8.64e-05
2026	0
2038	2.16e-05
2050	7.56e-05
2062	8.64e-05
2074	5.4e-05
2086	1.08e-05
2098	6.48e-05
2110	8.64e-05
2122	0
2134	9.72e-05
2146	0.0001728
2158	0.0001512
2170	9.72e-05
2182	0.0001836
2194	0.0002376
2206	0.0001728
2218	9.72e-05
2230	3.24e-05
2242	0
2254	4.32e-05
2266	0.000108
2278	0.0001836
2290	0.0003132
2302	0.0001944
2314	0.0003348
2326	0.0003672
2338	0.0003564
2350	0.0002916
2362	0.0002376
2374	0.000162
2386	0.0001296
2398	0.000324
2410	0.0003564
2422	0.000432
2434	0.000216
2446	0.0001404
2458	0.0001404
2470	0.0003348
2482	0.0004752
2494	0.0005724
2506	0.000594
2518	0.0003996
2530	0.0003996
2542	0.0004752
2554	0.0006804
2566	0.0008316
2578	0.0007884
2590	0.0007452
2602	0.0007776
2614	0.0006156
2626	0.0005292
2638	0.0004104
2650	0.00027
2662	0.0002052
2674	0.0002376
2686	0.0002592
2698	0.000324
2710	0.0005832
2722	0.0008208
2734	0.0007884
2746	0.0006048
2758	0.0004752
2770	0.0005616
2782	0.0006048
2794	0.000378
2806	0.0003996
2818	0.0002916
2830	0.0002268
2842	0.000324
2854	0.0002268
2866	0.0001512
2878	0.000108
2890	0.0001296
2902	0.0002376
2914	0.0002916
2926	0.0003672
2938	0.0004212
2950	0.0005076
2962	0.0004968
2974	0.0005508
2986	0.0005292
2998	0.0004644
3010	0.000756
3022	0.001512
3034	0.003618
3046	0.0074412
3058	0.0091476
3070	0.0094068
3082	0.0105948
3094	0.006696
3106	0.0045576
3118	0.0045252
3130	0.0034236
3142	0.0016956
3154	0.001404
3166	0.0006372
3178	0.0003348
3190	0.0002484
3202	0.000216
3214	0.0001728
3226	1.08e-05
3238	9.72e-05
3250	3.24e-05
3262	3.24e-05
3274	8.64e-05
3286	5.4e-05
3298	2.16e-05
3310	5.4e-05
3322	3.24e-05
3334	5.4e-05
3346	2.16e-05
3358	0.0001512
3370	0.000108
3382	4.32e-05
3394	3.24e-05
3406	8.64e-05
3418	0.0001512
3430	9.72e-05
3442	7.56e-05
3454	0.0001296
3466	8.64e-05
3478	0.000108
3490	0.0001296
3502	0.0001188
3514	8.64e-05
3526	7.56e-05
3538	5.4e-05
3550	4.32e-05
3562	0.0001404
3574	0.0001188
3586	0.0001404
3598	0.000108
3610	0.000108
3622	0.0001404
3634	0.0001296
3646	0.0002268
3658	0.0001728
3670	0.0002268
3682	0.0001296
3694	0.0002808
3706	0.0001836
3718	0.0002376
3730	0.000162
3742	0.0003024
3754	0.0002592
3766	0.0002916
3778	0.0002268
3790	0.0001512
3802	0.0001512
3814	0.0001728
3826	0.0001728
3838	0.0001836
