Infrared Spectrum: 5-Amino-2,6-dihydroxy-4-pyrimidinecarboxylic acid
Formula: C5 H5 N3 O4
CAS: 7164-43-4
State: SOLID (SPLIT MULL), FLUOROLUBE FOR 3800-1330 CM^-^1, NUJOL FOR 1330-460 CM^-^1
Class: COBLENTZ II
Instrument: DOW KBr FOREPRISM-GRATING
Instrument parameters: BLAZED AT 3.5, 12.0, 20.0 MICRON AND CHANGED AT 5.0, 7.5, 14.9 MICRON
Sampling: TRANSMISSION
Resolution: 2
Origin: DOW CHEMICAL COMPANY
1/CM	TRANSMITTANCE
461	0.5027
470	0.5237
479	0.5319
488	0.5084
497	0.3902
506	0.4767
515	0.6134
524	0.6316
533	0.6366
542	0.6356
551	0.6315
560	0.6419
569	0.6349
578	0.6195
587	0.583
596	0.5219
605	0.6021
614	0.6089
623	0.6104
632	0.6077
641	0.6018
650	0.5928
659	0.5807
668	0.567
677	0.5462
686	0.5386
695	0.5171
704	0.5043
713	0.4782
722	0.4422
731	0.4638
740	0.4704
749	0.2807
758	0.4134
767	0.2782
776	0.199
785	0.4262
794	0.3427
803	0.2875
812	0.3593
821	0.2188
830	0.3956
839	0.4508
848	0.387
857	0.2679
866	0.3392
875	0.5333
884	0.6074
893	0.6371
902	0.6585
911	0.6745
920	0.6653
929	0.632
938	0.5993
947	0.6884
956	0.7375
965	0.7518
974	0.7604
983	0.7671
992	0.7725
1001	0.7757
1010	0.7754
1019	0.7728
1028	0.7693
1037	0.7655
1046	0.7651
1055	0.7682
1064	0.7611
1073	0.7519
1082	0.7504
1091	0.7471
1100	0.7387
1109	0.7222
1118	0.703
1127	0.6965
1136	0.7011
1145	0.7008
1154	0.6948
1163	0.6861
1172	0.676
1181	0.6628
1190	0.6482
1199	0.6317
1208	0.6106
1217	0.5731
1226	0.5107
1235	0.4519
1244	0.4742
1253	0.361
1262	0.2258
1271	0.1891
1280	0.2822
1289	0.3121
1298	0.2696
1307	0.3618
1316	0.4368
1325	0.4747
1334	0.3359
1343	0.3029
1352	0.2656
1361	0.2304
1370	0.1562
1379	0.0806
1388	0.1313
1397	0.2679
1406	0.1592
1415	0.1085
1424	0.1301
1433	0.2178
1442	0.397
1451	0.4223
1460	0.435
1469	0.5059
1478	0.4696
1487	0.4041
1496	0.3418
1505	0.4103
1514	0.5015
1523	0.4308
1532	0.3547
1541	0.2779
1550	0.2532
1559	0.3726
1568	0.4567
1577	0.4009
1586	0.3284
1595	0.2616
1604	0.2237
1613	0.2044
1622	0.158
1631	0.1529
1640	0.145
1649	0.2376
1658	0.2582
1667	0.2149
1676	0.1644
1685	0.106
1694	0.088
1703	0.0914
1712	0.1073
1721	0.1675
1730	0.3099
1739	0.5381
1748	0.673
1757	0.751
1766	0.8218
1775	0.868
1784	0.8835
1793	0.8856
1802	0.8816
1811	0.8784
1820	0.8868
1829	0.8963
1838	0.8947
1847	0.8909
1856	0.8867
1865	0.8828
1874	0.8804
1883	0.8817
1892	0.8838
1901	0.878
1910	0.8733
1919	0.8707
1928	0.8681
1937	0.8659
1946	0.8604
1955	0.8528
1964	0.8443
1973	0.8356
1982	0.8278
1991	0.8259
2000	0.8304
2009	0.8264
2018	0.8216
2027	0.8162
2036	0.8114
2045	0.8056
2054	0.7991
2063	0.7915
2072	0.7844
2081	0.7778
2090	0.7722
2099	0.768
2108	0.7642
2117	0.76
2126	0.7562
2135	0.7536
2144	0.7499
2153	0.7461
2162	0.7415
2171	0.7371
2180	0.7318
2189	0.7262
2198	0.7201
2207	0.7125
2216	0.7049
2225	0.6971
2234	0.6894
2243	0.6815
2252	0.6748
2261	0.6686
2270	0.6624
2279	0.6554
2288	0.6487
2297	0.6432
2306	0.6377
2315	0.6323
2324	0.6268
2333	0.6217
2342	0.6188
2351	0.6157
2360	0.612
2369	0.6083
2378	0.6037
2387	0.5989
2396	0.5943
2405	0.5897
2414	0.5852
2423	0.5806
2432	0.576
2441	0.5716
2450	0.5671
2459	0.5621
2468	0.5572
2477	0.5521
2486	0.5472
2495	0.5421
2504	0.537
2513	0.5319
2522	0.5267
2531	0.5212
2540	0.5158
2549	0.51
2558	0.5033
2567	0.4966
2576	0.4899
2585	0.4829
2594	0.4757
2603	0.4686
2612	0.4608
2621	0.4525
2630	0.4443
2639	0.436
2648	0.4278
2657	0.4195
2666	0.4112
2675	0.4028
2684	0.3942
2693	0.3855
2702	0.3755
2711	0.3654
2720	0.3553
2729	0.3453
2738	0.3353
2747	0.3253
2756	0.3149
2765	0.3042
2774	0.2934
2783	0.2805
2792	0.2668
2801	0.2579
2810	0.2527
2819	0.2494
2828	0.2548
2837	0.2629
2846	0.2748
2855	0.2884
2864	0.2876
2873	0.2797
2882	0.2733
2891	0.2667
2900	0.2602
2909	0.2527
2918	0.245
2927	0.2372
2936	0.2295
2945	0.2218
2954	0.2142
2963	0.2063
2972	0.1982
2981	0.1901
2990	0.1815
2999	0.1728
3008	0.1672
3017	0.1678
3026	0.1727
3035	0.1804
3044	0.1893
3053	0.1987
3062	0.2064
3071	0.2094
3080	0.2098
3089	0.209
3098	0.2076
3107	0.2071
3116	0.2099
3125	0.2145
3134	0.2198
3143	0.2251
3152	0.2304
3161	0.2371
3170	0.2484
3179	0.2621
3188	0.276
3197	0.2898
3206	0.3035
3215	0.3174
3224	0.3312
3233	0.345
3242	0.358
3251	0.3709
3260	0.3714
3269	0.3678
3278	0.3586
3287	0.3475
3296	0.3405
3305	0.343
3314	0.3599
3323	0.3821
3332	0.4888
3341	0.514
3350	0.5242
3359	0.5255
3368	0.5128
3377	0.489
3386	0.4554
3395	0.4084
3404	0.358
3413	0.34
3422	0.386
3431	0.4673
3440	0.5175
3449	0.5533
3458	0.5832
3467	0.6056
3476	0.6188
3485	0.6236
3494	0.6209
3503	0.6159
3512	0.6067
3521	0.5917
3530	0.5664
3539	0.5309
3548	0.4871
3557	0.4279
3566	0.3687
3575	0.3526
3584	0.4569
3593	0.5796
3602	0.6833
3611	0.7165
3620	0.7275
3629	0.7287
3638	0.7261
3647	0.7207
3656	0.7126
3665	0.7034
3674	0.694
3683	0.6844
3692	0.6771
3701	0.6706
3710	0.6642
3719	0.658
3728	0.6518
3737	0.6462
3746	0.641
3755	0.6364
3764	0.6319
3773	0.6269
3782	0.6227
3791	0.6184
3800	0.6139
