Infrared Spectrum: 3-Methyl-2,4,6-tribromoaniline
Formula: C 7 H 6 Br 3 N
CAS: 71642-16-5
State: gas
Origin: EPA-IR VAPOR PHASE LIBRARY
1/CM	ABSORBANCE
549.9	0.00575
559.547	0.00534
569.193	0.00519
578.84	0.00526
588.486	0.00548
598.133	0.00629
607.779	0.00813
617.426	0.01262
627.072	0.01971
636.719	0.01666
646.365	0.01345
656.012	0.02542
665.658	0.04948
675.305	0.0404
684.951	0.01692
694.598	0.01293
704.245	0.01667
713.891	0.0157
723.538	0.01218
733.184	0.00998
742.831	0.00992
752.477	0.0149
762.124	0.03328
771.77	0.03718
781.417	0.02357
791.063	0.01584
800.71	0.01246
810.356	0.01054
820.003	0.00839
829.649	0.00756
839.296	0.00695
848.943	0.00732
858.589	0.01195
868.236	0.01961
877.882	0.00931
887.529	0.00551
897.175	0.0047
906.822	0.00501
916.468	0.00576
926.115	0.00652
935.761	0.0059
945.408	0.00625
955.054	0.01117
964.701	0.02415
974.347	0.01917
983.994	0.01044
993.64	0.00883
1003.29	0.01053
1012.93	0.01312
1022.58	0.01334
1032.23	0.01126
1041.87	0.00992
1051.52	0.00885
1061.17	0.00846
1070.81	0.0091
1080.46	0.01016
1090.11	0.01022
1099.75	0.01177
1109.4	0.02343
1119.05	0.02916
1128.69	0.01212
1138.34	0.00547
1147.99	0.00373
1157.63	0.00314
1167.28	0.00289
1176.92	0.00344
1186.57	0.00652
1196.22	0.00774
1205.86	0.00668
1215.51	0.00593
1225.16	0.0032
1234.8	0.00288
1244.45	0.00343
1254.1	0.00557
1263.74	0.0109
1273.39	0.00854
1283.04	0.00586
1292.68	0.00428
1302.33	0.00409
1311.98	0.00351
1321.62	0.00285
1331.27	0.00287
1340.92	0.00328
1350.56	0.0043
1360.21	0.00689
1369.86	0.01489
1379.5	0.03694
1389.15	0.04253
1398.79	0.02345
1408.44	0.01756
1418.09	0.02725
1427.73	0.07144
1437.38	0.12581
1447.03	0.09482
1456.67	0.04007
1466.32	0.0277
1475.97	0.0171
1485.61	0.01102
1495.26	0.00865
1504.91	0.00781
1514.55	0.0082
1524.2	0.00977
1533.85	0.01204
1543.49	0.01499
1553.14	0.01645
1562.79	0.01699
1572.43	0.01558
1582.08	0.01381
1591.73	0.02367
1601.37	0.06325
1611.02	0.09815
1620.67	0.05324
1630.31	0.02087
1639.96	0.01107
1649.6	0.00724
1659.25	0.00577
1668.9	0.00528
1678.54	0.00452
1688.19	0.0039
1697.84	0.00363
1707.48	0.00332
1717.13	0.00379
1726.78	0.00504
1736.42	0.00465
1746.07	0.00299
1755.72	0.0024205
1765.36	0.0021545
1775.01	0.0019425
1784.66	0.0017924
1794.3	0.0016267
1803.95	0.00152024
1813.6	0.00151484
1823.24	0.00149067
1832.89	0.001451
1842.54	0.0014307
1852.18	0.00151866
1861.83	0.00148848
1871.47	0.00152436
1881.12	0.00154799
1890.77	0.00150314
1900.41	0.0014689
1910.06	0.00147708
1919.71	0.0014724
1929.35	0.0014644
1939	0.00150789
1948.65	0.00148746
1958.29	0.00149289
1967.94	0.001351
1977.59	0.001341
1987.23	0.0013873
1996.88	0.001376
2006.53	0.0014586
2016.17	0.00147661
2025.82	0.0014561
2035.47	0.0014117
2045.11	0.0014339
2054.76	0.0014286
2064.41	0.0014236
2074.05	0.0014503
2083.7	0.0014471
2093.35	0.001365
2102.99	0.001233
2112.64	0.001116
2122.28	0.001088
2131.93	0.001048
2141.58	0.001066
2151.22	0.001077
2160.87	0.001137
2170.52	0.001115
2180.16	0.001203
2189.81	0.001358
2199.46	0.001344
2209.1	0.001242
2218.75	0.00117
2228.4	0.001231
2238.04	0.001295
2247.69	0.001205
2257.34	0.001114
2266.98	0.001051
2276.63	0.001057
2286.28	0.001058
2295.92	0.001046
2305.57	0.001092
2315.22	0.00106
2324.86	0.001087
2334.51	0.001083
2344.16	0.001042
2353.8	0.001031
2363.45	0.001129
2373.09	0.001255
2382.74	0.00135
2392.39	0.001281
2402.03	0.00122
2411.68	0.001107
2421.33	0.001002
2430.97	0.000948
2440.62	0.000953
2450.27	0.000917
2459.91	0.00089
2469.56	0.000891
2479.21	0.000938
2488.85	0.000968
2498.5	0.001026
2508.15	0.001053
2517.79	0.001059
2527.44	0.001121
2537.09	0.001159
2546.73	0.000995
2556.38	0.000836
2566.03	0.000855
2575.67	0.000814
2585.32	0.000722
2594.96	0.000718
2604.61	0.000717
2614.26	0.000694
2623.9	0.000716
2633.55	0.000683
2643.2	0.000653
2652.84	0.000651
2662.49	0.000596
2672.14	0.000589
2681.78	0.00042
2691.43	0.00044
2701.08	0.0005
2710.72	0.00045
2720.37	0.00048
2730.02	0.000521
2739.66	0.000527
2749.31	0.000601
2758.96	0.00044
2768.6	0.00041
2778.25	0.000485
2787.9	0.000584
2797.54	0.00064
2807.19	0.000675
2816.84	0.000719
2826.48	0.000805
2836.13	0.000841
2845.77	0.001052
2855.42	0.001354
2865.07	0.0017928
2874.71	0.0018505
2884.36	0.00156622
2894.01	0.001478
2903.65	0.00154863
2913.3	0.0018587
2922.95	0.0029
2932.59	0.00558
2942.24	0.00738
2951.89	0.00532
2961.53	0.00366
2971.18	0.0024257
2980.83	0.001666
2990.47	0.00150061
3000.12	0.001379
3009.77	0.001262
3019.41	0.00155921
3029.06	0.0016664
3038.71	0.001841
3048.35	0.0016968
3058	0.00147829
3067.64	0.001261
3077.29	0.001003
3086.94	0.00105
3096.58	0.000494
3106.23	0.00039
3115.88	0.00037
3125.52	0.000785
3135.17	0.000856
3144.82	0.000767
3154.46	0.000555
3164.11	0.00055
3173.76	0.00042
3183.4	0.00019
3193.05	0.0003
3202.7	0.00025
3212.34	0.00015
3221.99	0.00028
3231.64	0.00019
3241.28	7e-05
3250.93	0.00012
3260.58	0.00023
3270.22	0.00034
3279.87	0.00016
3289.52	0.0003
3299.16	0.00039
3308.81	0.00039
3318.45	0.000573
3328.1	0.000582
3337.75	0.000577
3347.39	0.000617
3357.04	0.000957
3366.69	0.00157629
3376.33	0.0031
3385.98	0.00684
3395.63	0.01663
3405.27	0.02479
3414.92	0.01938
3424.57	0.00854
3434.21	0.00327
3443.86	0.00274
3453.51	0.00315
3463.15	0.00419
3472.8	0.00689
3482.45	0.01228
3492.09	0.02189
3501.74	0.02926
3511.39	0.02508
3521.03	0.01611
3530.68	0.0069
3540.33	0.00332
3549.97	0.0021489
3559.62	0.0017082
3569.26	0.00150067
3578.91	0.00129
3588.56	0.001049
3598.2	0.001066
3607.85	0.000955
3617.5	0.000804
3627.14	0.000927
3636.79	0.000994
3646.44	0.000909
3656.08	0.000977
3665.73	0.000982
3675.38	0.00104
3685.02	0.001068
3694.67	0.001182
3704.32	0.001114
3713.96	0.000877
3723.61	0.000968
3733.26	0.001008
3742.9	0.000999
3752.55	0.000844
3762.2	0.000951
3771.84	0.000903
3781.49	0.000894
3791.13	0.00104
3800.78	0.001053
3810.43	0.001115
3820.07	0.001355
3829.72	0.001338
3839.37	0.0014318
3849.01	0.00156855
3858.66	0.0017354
3868.31	0.0016234
3877.95	0.00155216
3887.6	0.00148783
3897.25	0.00129
3906.89	0.001182
3916.54	0.001147
3926.19	0.001105
3935.83	0.001176
3945.48	0.001344
3955.13	0.0014032
3964.77	0.0014434
3974.42	0.001332
3984.07	0.001129
3993.71	0.000903
