Infrared Spectrum: 4-Bromo-3-methylphenyl isothiocyanate
Formula: C 8 H 6 Br N S
CAS: 71672-88-3
State: gas
Origin: EPA-IR VAPOR PHASE LIBRARY
1/CM	ABSORBANCE
549.8	0.011645
559.445	0.010035
569.09	0.010265
578.734	0.011125
588.379	0.011245
598.024	0.008465
607.669	0.005495
617.313	0.003745
626.958	0.003385
636.603	0.002495
646.248	0.002295
655.893	0.003485
665.537	0.003335
675.182	0.001501
684.827	0.0012399
694.472	0.0014689
704.116	0.0010997
713.761	0.0009933
723.406	0.001825
733.051	0.002255
742.695	0.001675
752.34	0.001675
761.985	0.002525
771.63	0.003575
781.275	0.004235
790.919	0.008315
800.564	0.023755
810.209	0.046405
819.854	0.050895
829.498	0.037985
839.143	0.016585
848.788	0.008785
858.433	0.014605
868.078	0.025755
877.722	0.019535
887.367	0.007595
897.012	0.003865
906.657	0.003575
916.301	0.003365
925.946	0.002825
935.591	0.002435
945.236	0.003025
954.88	0.005445
964.525	0.011865
974.17	0.028425
983.815	0.023605
993.46	0.011695
1003.1	0.014915
1012.75	0.022635
1022.39	0.057235
1032.04	0.136255
1041.68	0.044815
1051.33	0.011075
1060.97	0.005025
1070.62	0.003385
1080.26	0.002215
1089.91	0.001765
1099.55	0.002345
1109.2	0.005225
1118.84	0.008345
1128.49	0.006425
1138.13	0.006055
1147.78	0.003065
1157.42	0.002285
1167.07	0.003555
1176.71	0.003485
1186.36	0.002975
1196	0.001775
1205.64	0.0016572
1215.29	0.002435
1224.93	0.003975
1234.58	0.009705
1244.22	0.011235
1253.87	0.006815
1263.51	0.006515
1273.16	0.007435
1282.8	0.016365
1292.45	0.014575
1302.09	0.003455
1311.74	0.001965
1321.38	0.0015408
1331.03	0.0014928
1340.67	0.0016405
1350.32	0.001975
1359.96	0.002895
1369.61	0.005315
1379.25	0.007135
1388.9	0.009645
1398.54	0.015885
1408.18	0.012745
1417.83	0.012395
1427.47	0.018315
1437.12	0.014515
1446.76	0.016235
1456.41	0.029165
1466.05	0.080455
1475.7	0.099045
1485.34	0.035075
1494.99	0.021255
1504.63	0.015315
1514.28	0.009245
1523.92	0.008105
1533.57	0.008175
1543.21	0.010045
1552.86	0.015495
1562.5	0.023505
1572.15	0.025805
1581.79	0.026315
1591.44	0.038845
1601.08	0.036475
1610.73	0.015725
1620.37	0.009205
1630.01	0.005485
1639.66	0.003205
1649.3	0.002405
1658.95	0.002285
1668.59	0.002265
1678.24	0.002355
1687.88	0.002085
1697.53	0.001945
1707.17	0.002165
1716.82	0.002395
1726.46	0.002975
1736.11	0.003625
1745.75	0.003935
1755.4	0.003215
1765.04	0.003015
1774.69	0.003165
1784.33	0.003565
1793.98	0.004125
1803.62	0.004795
1813.27	0.005165
1822.91	0.005515
1832.55	0.006085
1842.2	0.006585
1851.84	0.006695
1861.49	0.007325
1871.13	0.008775
1880.78	0.010065
1890.42	0.010565
1900.07	0.012035
1909.71	0.015575
1919.36	0.021735
1929	0.031825
1938.65	0.046685
1948.29	0.067685
1957.94	0.094095
1967.58	0.128145
1977.23	0.171535
1986.87	0.217135
1996.52	0.262825
2006.16	0.323585
2015.81	0.390025
2025.45	0.437335
2035.1	0.513835
2044.74	0.591645
2054.38	0.423715
2064.03	0.290195
2073.67	0.282485
2083.32	0.345235
2092.96	0.411125
2102.61	0.331485
2112.25	0.207575
2121.9	0.146835
2131.54	0.124345
2141.19	0.123345
2150.83	0.106565
2160.48	0.068745
2170.12	0.042665
2179.77	0.031635
2189.41	0.025615
2199.06	0.020245
2208.7	0.017795
2218.35	0.016115
2227.99	0.012795
2237.64	0.010545
2247.28	0.010315
2256.92	0.010945
2266.57	0.010195
2276.21	0.008035
2285.86	0.007355
2295.5	0.007275
2305.15	0.006485
2314.79	0.004845
2324.44	0.003995
2334.08	0.004425
2343.73	0.004955
2353.37	0.004185
2363.02	0.003525
2372.66	0.003115
2382.31	0.003015
2391.95	0.003115
2401.6	0.003555
2411.24	0.003915
2420.89	0.003325
2430.53	0.002905
2440.18	0.003125
2449.82	0.004195
2459.47	0.005005
2469.11	0.004125
2478.75	0.003545
2488.4	0.003135
2498.04	0.003035
2507.69	0.003455
2517.33	0.004075
2526.98	0.004595
2536.62	0.004515
2546.27	0.004495
2555.91	0.005415
2565.56	0.006655
2575.2	0.008325
2584.85	0.009715
2594.49	0.010595
2604.14	0.010925
2613.78	0.009895
2623.43	0.006595
2633.07	0.004215
2642.72	0.003285
2652.36	0.002925
2662.01	0.002705
2671.65	0.002495
2681.29	0.002235
2690.94	0.002205
2700.58	0.002145
2710.23	0.002265
2719.87	0.002635
2729.52	0.002805
2739.16	0.002995
2748.81	0.002875
2758.45	0.002465
2768.1	0.002135
2777.74	0.002395
2787.39	0.002675
2797.03	0.002775
2806.68	0.002905
2816.32	0.003115
2825.97	0.003365
2835.61	0.003555
2845.26	0.004265
2854.9	0.005095
2864.55	0.006215
2874.19	0.006585
2883.84	0.005955
2893.48	0.005165
2903.12	0.005125
2912.77	0.006245
2922.41	0.008865
2932.06	0.012625
2941.7	0.013215
2951.35	0.009735
2960.99	0.008475
2970.64	0.008595
2980.28	0.008935
2989.93	0.009855
2999.57	0.007945
3009.22	0.005665
3018.86	0.005225
3028.51	0.005105
3038.15	0.004815
3047.8	0.004185
3057.44	0.004485
3067.09	0.004645
3076.73	0.004615
3086.38	0.004125
3096.02	0.003775
3105.67	0.002335
3115.31	0.0015897
3124.95	0.0012028
3134.6	0.0009886
3144.24	0.0008023
3153.89	0.000539
3163.53	0.000469
3173.18	0.000525
3182.82	0.000303
3192.47	0.000177
3202.11	0.000189
3211.76	0.000163
3221.4	0.000198
3231.05	0.000224
3240.69	7.7e-05
3250.34	0.000169
3259.98	0.000366
3269.63	0.000297
3279.27	0.000319
3288.92	0.000176
3298.56	0.000274
3308.21	0.0004
3317.85	0.00041
3327.49	0.000262
3337.14	0.000183
3346.78	0.000304
3356.43	0.000249
3366.07	0.000335
3375.72	0.00048
3385.36	0.000249
3395.01	0.000399
3404.65	0.000338
3414.3	0.000261
3423.94	0.000448
3433.59	0.000429
3443.23	0.000529
3452.88	0.000446
3462.52	0.000448
3472.17	0.000425
3481.81	0.000445
3491.46	0.000504
3501.1	0.0006448
3510.75	0.000429
3520.39	0.000256
3530.04	0.000459
3539.68	0.000474
3549.32	0.000412
3558.97	0.000423
3568.61	0.000465
3578.26	0.000502
3587.9	0.000453
3597.55	0.000347
3607.19	0.000521
3616.84	0.000131
3626.48	0.00043
3636.13	0.000239
3645.77	0.000539
3655.42	0.000391
3665.06	0.000327
3674.71	0.0006404
3684.35	0.000323
3694	0.000342
3703.64	0.0005867
3713.29	0.000501
3722.93	0.0007425
3732.58	0.000536
3742.22	0.000462
3751.86	0.00072306
3761.51	0.000558
3771.15	0.0008431
3780.8	0.0008807
3790.44	0.0007441
3800.09	0.000637
3809.73	0.000365
3819.38	0.00071533
3829.02	0.000547
3838.67	0.00068569
3848.31	0.0007827
3857.96	0.0009727
3867.6	0.000979
3877.25	0.0010453
3886.89	0.0011317
3896.54	0.0013444
3906.18	0.0013595
3915.83	0.0013855
3925.47	0.001795
3935.12	0.001785
3944.76	0.001835
3954.41	0.002025
3964.05	0.002045
3973.69	0.002345
3983.34	0.002425
3992.98	0.002285
