Infrared Spectrum: DIETHYL-1-ETHYLPROPYL MALONATE
Formula: C12 H22 O4
CAS: 71691-56-0
State: LIQUID
Class: COBLENTZ
Instrument: PERKIN-ELMER
Sampling: TRANSMISSION
Path length: CAPILLARY
Resolution: 4
Origin: ABBOTT LABORATORIES - WASHBURN
MICROMETERS	TRANSMITTANCE
2.071	0.876
2.10451	0.876
2.13802	0.876
2.17153	0.882
2.20504	0.887
2.23855	0.886
2.27206	0.889
2.30557	0.891
2.33908	0.877
2.37259	0.882
2.4061	0.887
2.43961	0.891
2.47312	0.886
2.50663	0.884
2.54014	0.886
2.57365	0.892
2.60716	0.894
2.64067	0.889
2.67418	0.8919
2.70769	0.894
2.7412	0.8889
2.77471	0.874
2.80822	0.8501
2.84173	0.849
2.87524	0.8389
2.90875	0.832
2.94226	0.825
2.97577	0.83
3.00928	0.835
3.04279	0.8371
3.0763	0.84
3.10981	0.844
3.14332	0.8471
3.17683	0.85
3.21034	0.852
3.24385	0.8569
3.27736	0.8551
3.31087	0.852
3.34438	0.8281
3.37789	0.6599
3.4114	0.4528
3.44491	0.4708
3.47842	0.5651
3.51193	0.6439
3.54544	0.7514
3.57895	0.8288
3.61246	0.8638
3.64597	0.8719
3.67948	0.877
3.71299	0.8738
3.7465	0.8838
3.78001	0.8842
3.81352	0.886
3.84703	0.8861
3.88054	0.8812
3.91405	0.877
3.94756	0.879
3.98107	0.881
4.01458	0.8761
4.04809	0.8757
4.0816	0.872
4.11511	0.871
4.14862	0.8669
4.18213	0.8637
4.21564	0.86
4.24915	0.8571
4.28266	0.8551
4.31617	0.859
4.34968	0.857
4.38319	0.8541
4.4167	0.852
4.45021	0.8471
4.48372	0.85
4.51723	0.8451
4.55074	0.844
4.58425	0.844
4.61776	0.844
4.65127	0.842
4.68478	0.84
4.71829	0.84
4.7518	0.835
4.78531	0.835
4.81882	0.834
4.85233	0.8321
4.88584	0.835
4.91935	0.834
4.95286	0.832
4.98637	0.8339
5.01988	0.8291
5.05339	0.8299
5.0869	0.832
5.12041	0.83
5.15392	0.829
5.18743	0.83
5.22094	0.829
5.25445	0.825
5.28796	0.821
5.32147	0.8181
5.35498	0.819
5.38849	0.8214
5.422	0.817
5.45551	0.8149
5.48902	0.8087
5.52253	0.798
5.55604	0.7932
5.58955	0.7727
5.62306	0.7272
5.65657	0.5978
5.69008	0.2919
5.72359	0.1979
5.7571	0.1691
5.79061	0.138
5.82412	0.3371
5.85763	0.6383
5.89114	0.6992
5.92465	0.737
5.95816	0.7722
5.99167	0.7803
6.02518	0.7832
6.05869	0.785
6.0922	0.797
6.12571	0.792
6.15922	0.793
6.19273	0.8005
6.22624	0.798
6.25976	0.804
6.29327	0.8083
6.32678	0.81
6.36029	0.814
6.3938	0.812
6.42731	0.8177
6.46082	0.8147
6.49433	0.812
6.52784	0.814
6.56135	0.8119
6.59486	0.817
6.62837	0.809
6.66188	0.8042
6.69539	0.7953
6.7289	0.7836
6.76241	0.7138
6.79592	0.6576
6.82943	0.557
6.86294	0.5294
6.89645	0.6038
6.92996	0.6156
6.96347	0.6681
6.99698	0.7413
7.03049	0.7584
7.064	0.7632
7.09751	0.7599
7.13102	0.7451
7.16453	0.7037
7.19804	0.6543
7.23155	0.6148
7.26506	0.5715
7.29857	0.5536
7.33208	0.507
7.36559	0.6524
7.3991	0.7119
7.43261	0.709
7.46612	0.6685
7.49963	0.5782
7.53314	0.5512
7.56665	0.5456
7.60016	0.5367
7.63367	0.5095
7.66718	0.4504
7.70069	0.4301
7.7342	0.4519
7.76771	0.477
7.80122	0.4662
7.83473	0.458
7.86824	0.4536
7.90175	0.435
7.93526	0.3973
7.96877	0.376
8.00228	0.3768
8.03579	0.3767
8.0693	0.3838
8.10281	0.4026
8.13632	0.4122
8.16983	0.3971
8.20334	0.3782
8.23685	0.397
8.27036	0.4418
8.30387	0.4717
8.33738	0.474
8.37089	0.4632
8.4044	0.3939
8.43791	0.3576
8.47142	0.35
8.50493	0.3313
8.53844	0.311
8.57195	0.336
8.60546	0.3568
8.63897	0.3593
8.67248	0.3525
8.70599	0.3306
8.7395	0.3337
8.77301	0.3569
8.80652	0.4016
8.84003	0.4023
8.87354	0.402
8.90705	0.4365
8.94056	0.4917
8.97407	0.5258
9.00758	0.5431
9.04109	0.5465
9.0746	0.5676
9.10811	0.5478
9.14162	0.5081
9.17513	0.5258
9.20864	0.6164
9.24215	0.6986
9.27566	0.7283
9.30917	0.742
9.34268	0.7401
9.37619	0.7303
9.4097	0.7102
9.44321	0.6741
9.47672	0.624
9.51023	0.565
9.54374	0.5367
9.57725	0.5194
9.61076	0.4792
9.64427	0.4363
9.67778	0.4038
9.71129	0.4024
9.7448	0.4652
9.77831	0.5378
9.81182	0.6227
9.84533	0.6712
9.87884	0.6979
9.91235	0.723
9.94586	0.7541
9.97937	0.7642
10.0129	0.768
10.0464	0.772
10.0799	0.778
10.1134	0.7918
10.1469	0.798
10.1804	0.8029
10.2139	0.807
10.2474	0.8028
10.281	0.7978
10.3145	0.795
10.348	0.7902
10.3815	0.795
10.415	0.7999
10.4485	0.8049
10.482	0.8114
10.5155	0.8187
10.549	0.8166
10.5826	0.8155
10.6161	0.81
10.6496	0.804
10.6831	0.804
10.7166	0.8
10.7501	0.798
10.7836	0.8043
10.8171	0.8105
10.8506	0.814
10.8841	0.815
10.9177	0.814
10.9512	0.8071
10.9847	0.797
11.0182	0.7881
11.0517	0.78
11.0852	0.7816
11.1187	0.7913
11.1522	0.8013
11.1857	0.8096
11.2192	0.814
11.2528	0.814
11.2863	0.8096
11.3198	0.7977
11.3533	0.7823
11.3868	0.7664
11.4203	0.7548
11.4538	0.75
11.4873	0.747
11.5208	0.75
11.5543	0.748
11.5879	0.7529
11.6214	0.7616
11.6549	0.7741
11.6884	0.7863
11.7219	0.7941
11.7554	0.7975
11.7889	0.805
11.8224	0.804
11.8559	0.807
11.8894	0.81
11.923	0.8143
11.9565	0.812
11.99	0.8123
12.0235	0.8099
12.057	0.81
12.0905	0.809
12.124	0.8053
12.1575	0.805
12.191	0.802
12.2245	0.804
12.2581	0.804
12.2916	0.801
12.3251	0.8
12.3586	0.795
12.3921	0.802
12.4256	0.802
12.4591	0.793
12.4926	0.795
12.5261	0.7947
12.5596	0.797
12.5932	0.795
12.6267	0.795
12.6602	0.7904
12.6937	0.7928
12.7272	0.7829
12.7607	0.7807
12.7942	0.778
12.8277	0.7825
12.8612	0.7859
12.8947	0.786
12.9283	0.7904
12.9618	0.787
12.9953	0.7814
13.0288	0.7746
13.0623	0.773
13.0958	0.7749
13.1293	0.773
13.1628	0.7748
13.1963	0.7683
13.2298	0.768
13.2634	0.767
13.2969	0.7624
13.3304	0.76
13.3639	0.76
13.3974	0.762
13.4309	0.763
13.4644	0.7638
13.4979	0.7687
13.5314	0.7736
13.5649	0.7766
13.5985	0.7771
13.632	0.777
13.6655	0.777
13.699	0.777
13.7325	0.78
13.766	0.777
13.7995	0.778
13.833	0.7785
13.8665	0.7723
13.9	0.7724
13.9336	0.7698
13.9671	0.7675
14.0006	0.7642
14.0341	0.767
14.0676	0.7615
14.1011	0.7578
14.1346	0.7547
14.1681	0.7499
14.2016	0.7479
14.2351	0.7432
14.2687	0.7375
14.3022	0.735
14.3357	0.738
14.3692	0.733
14.4027	0.7253
14.4362	0.725
14.4697	0.7221
14.5032	0.718
14.5367	0.7188
14.5702	0.718
14.6038	0.7107
14.6373	0.71
14.6708	0.7109
14.7043	0.708
14.7378	0.708
14.7713	0.703
14.8048	0.703
14.8383	0.6962
14.8718	0.6933
14.9053	0.69
14.9389	0.686
14.9724	0.6935
15.0059	0.6889
15.0394	0.68
15.0729	0.676
15.1064	0.671
15.1399	0.67
15.1734	0.6656
15.2069	0.658
15.2404	0.6589
15.274	0.6557
15.3075	0.6489
15.341	0.643
15.3745	0.6362
15.408	0.634
