Infrared Spectrum: 1,3,5-Tri-isopropylbenzene
Formula: C 15 H 24
CAS: 717-74-8
State: gas
Instrument: HP-GC/MS/IRD
Origin: NIST Mass Spectrometry Data Center
1/CM	ABSORBANCE
550	0.0003744
562	0.000168
574	0.000288
586	0.0002976
598	0.0002544
610	8.64e-05
622	0.0001968
634	0.0002784
646	0.0002112
658	0.0002544
670	0.0001968
682	0.0001824
694	0.0005712
706	0.0023568
718	0.003024
730	0.0004128
742	0.0002688
754	0.0001872
766	0.0002016
778	0.0001392
790	0.0001968
802	0.000312
814	0.000624
826	0.0007008
838	0.0003456
850	0.000456
862	0.0021264
874	0.0032736
886	0.0007296
898	0.0004512
910	0.0006576
922	0.0016848
934	0.0025344
946	0.0016368
958	0.0005328
970	0.0004224
982	0.0003792
994	0.0003504
1006	0.0004752
1018	0.0004608
1030	0.0003984
1042	0.000336
1054	0.000504
1066	0.0006
1078	0.0005664
1090	0.0008016
1102	0.0010368
1114	0.0005664
1126	0.0003744
1138	0.0002304
1150	0.0002448
1162	0.0002832
1174	0.0009264
1186	0.0022896
1198	0.0010752
1210	0.000336
1222	0.0003264
1234	0.00048
1246	0.000864
1258	0.0006288
1270	0.0008016
1282	0.000744
1294	0.001224
1306	0.003096
1318	0.0027888
1330	0.0013584
1342	0.0018384
1354	0.001776
1366	0.0035616
1378	0.0028368
1390	0.0035808
1402	0.0015984
1414	0.0015792
1426	0.002088
1438	0.003672
1450	0.004968
1462	0.0066576
1474	0.0060192
1486	0.0024
1498	0.0017088
1510	0.0027264
1522	0.0021888
1534	0.001344
1546	0.001536
1558	0.0019632
1570	0.0012144
1582	0.0025728
1594	0.0064224
1606	0.0059376
1618	0.0017328
1630	0.000696
1642	0.0006624
1654	0.001392
1666	0.0006384
1678	0.0008544
1690	0.0006816
1702	0.0012768
1714	0.0010512
1726	0.000456
1738	0.0010512
1750	0.0016944
1762	0.0011616
1774	0.0010464
1786	0.0007008
1798	0.0006432
1810	0.0003408
1822	0.0004128
1834	0.0003216
1846	0.0006432
1858	0.0002016
1870	0.0004464
1882	0.0001488
1894	0.0002112
1906	0.000144
1918	0.0003024
1930	7.68e-05
1942	0.0002256
1954	7.68e-05
1966	0.0001488
1978	0.0001008
1990	0.0002256
2002	8.16e-05
2014	0.0001248
2026	7.2e-05
2038	0.0001056
2050	6.72e-05
2062	9.12e-05
2074	5.28e-05
2086	6.24e-05
2098	5.28e-05
2110	6.72e-05
2122	5.76e-05
2134	9.6e-05
2146	7.68e-05
2158	7.68e-05
2170	9.12e-05
2182	9.12e-05
2194	0.0001008
2206	0.0001104
2218	9.12e-05
2230	0.0001296
2242	0.0001056
2254	0.00012
2266	0.00012
2278	0.0001056
2290	0.0001296
2302	0.0001872
2314	0.000216
2326	0.0002352
2338	0.0001728
2350	0.0002016
2362	0.0002688
2374	0.0002784
2386	0.000168
2398	0.00012
2410	9.6e-05
2422	7.68e-05
2434	8.64e-05
2446	9.6e-05
2458	0.0001152
2470	0.0001296
2482	0.0001056
2494	0.0001008
2506	7.68e-05
2518	9.6e-05
2530	0.0001104
2542	0.0001104
2554	0.0001152
2566	0.0001584
2578	0.0001968
2590	0.0002928
2602	0.0002832
2614	0.0002304
2626	0.000168
2638	0.0001728
2650	0.0001632
2662	0.000192
2674	0.0001584
2686	0.0001536
2698	0.000192
2710	0.0002688
2722	0.0004176
2734	0.000504
2746	0.0004416
2758	0.000504
2770	0.0005472
2782	0.0004992
2794	0.000528
2806	0.0007056
2818	0.0009312
2830	0.0011424
2842	0.0015504
2854	0.0028176
2866	0.005544
2878	0.0110304
2890	0.0106032
2902	0.0115728
2914	0.0108528
2926	0.0120288
2938	0.0162384
2950	0.016776
2962	0.0406656
2974	0.0349152
2986	0.0091872
2998	0.0052704
3010	0.003624
3022	0.0034512
3034	0.0029184
3046	0.0024768
3058	0.0020592
3070	0.0014112
3082	0.00096
3094	0.0008112
3106	0.0006768
3118	0.0005232
3130	0.0004224
3142	0.0003984
3154	0.000432
3166	0.0004848
3178	0.0005232
3190	0.0005664
3202	0.0005088
3214	0.0004272
3226	0.0003408
3238	0.0002256
3250	0.0001776
3262	0.0001584
3274	0.000144
3286	0.0001248
3298	9.12e-05
3310	0.0001008
3322	0.0001056
3334	0.0001008
3346	6.24e-05
3358	8.16e-05
3370	6.72e-05
3382	6.72e-05
3394	0.0001008
3406	2.88e-05
3418	5.76e-05
3430	3.36e-05
3442	0.0001104
3454	3.36e-05
3466	5.28e-05
3478	0.0001104
3490	1.44e-05
3502	0.0003456
3514	4.8e-05
3526	0.0004704
3538	0.0001008
3550	0.0003216
3562	0.0003456
3574	0.0001056
3586	0.0007584
3598	0.000336
3610	0.000816
3622	0.0003408
3634	0.000288
3646	0.0005904
3658	0.0002064
3670	0.0005472
3682	0.0001056
3694	0.000144
3706	0.0001728
3718	0.0003312
3730	0.000576
3742	0.000888
3754	0.0005376
3766	0.0001728
3778	9.6e-06
3790	4.8e-06
3802	0.00036
3814	0.00024
3826	0.0002352
3838	0.0006864
