Infrared Spectrum: FURFURAL ACETOPHENONE
Formula: C13 H10 O2
CAS: 717-21-5
State: SOLUTION (10% CCl4 FOR 5000-1330, 10% CS2 FOR 1330-625 CM^-^1)
Class: COBLENTZ
Instrument: Not specified, most likely a prism, grating, or hybrid spectrometer.
Sampling: TRANSMISSION
Path length: 0.0119 CM, 0.0119 CM
Resolution: 4
Origin: DOW CHEMICAL COMPANY
MICROMETERS	TRANSMITTANCE
2.027	0.903
2.06698	0.898
2.10696	0.897
2.14694	0.895
2.18692	0.897
2.2269	0.897
2.26688	0.887
2.30687	0.885
2.34685	0.888
2.38683	0.897
2.42681	0.892
2.46679	0.882
2.50677	0.9
2.54675	0.906
2.58673	0.906
2.62671	0.905
2.66669	0.901
2.70667	0.903
2.74665	0.903
2.78663	0.897
2.82662	0.882
2.8666	0.875
2.90658	0.873
2.94656	0.868
2.98654	0.857
3.02652	0.848
3.0665	0.847
3.10648	0.842
3.14646	0.84
3.18644	0.799
3.22642	0.745
3.2664	0.692
3.30638	0.767
3.34637	0.863
3.38635	0.857
3.42633	0.858
3.46631	0.863
3.50629	0.88
3.54627	0.888
3.58625	0.895
3.62623	0.897
3.66621	0.903
3.70619	0.9
3.74617	0.898
3.78615	0.883
3.82613	0.883
3.86612	0.898
3.9061	0.885
3.94608	0.901
3.98606	0.908
4.02604	0.903
4.06602	0.9
4.106	0.903
4.14598	0.895
4.18596	0.911
4.22594	0.905
4.26592	0.9
4.3059	0.901
4.34588	0.911
4.38587	0.913
4.42585	0.911
4.46583	0.91
4.50581	0.908
4.54579	0.915
4.58577	0.918
4.62575	0.915
4.66573	0.918
4.70571	0.921
4.74569	0.918
4.78567	0.9
4.82565	0.908
4.86563	0.911
4.90562	0.9
4.9456	0.887
4.98558	0.91
5.02556	0.91
5.06554	0.89
5.10552	0.877
5.1455	0.903
5.18548	0.903
5.22546	0.872
5.26544	0.873
5.30542	0.9
5.3454	0.901
5.38538	0.9
5.42537	0.895
5.46535	0.88
5.50533	0.858
5.54531	0.863
5.58529	0.875
5.62527	0.852
5.66525	0.852
5.70523	0.86
5.74521	0.818
5.78519	0.792
5.82517	0.799
5.86515	0.8
5.90513	0.699
5.94512	0.49
5.9851	0.114
6.02508	0.21
6.06506	0.348
6.10504	0.395
6.14502	0.3
6.185	0.094
6.22498	0.044
6.26496	0.191
6.30494	0.362
6.34492	0.428
6.3849	0.491
6.42488	0.373
6.46487	0.31
6.50485	0.586
6.54483	0.752
6.58481	0.803
6.62479	0.815
6.66477	0.777
6.70475	0.634
6.74473	0.368
6.78471	0.609
6.82469	0.744
6.86467	0.649
6.90465	0.614
6.94463	0.852
6.98462	0.853
7.0246	0.858
7.06458	0.86
7.10456	0.833
7.14454	0.79
7.18452	0.561
7.2245	0.729
7.26448	0.815
7.30446	0.82
7.34444	0.813
7.38442	0.787
7.4244	0.662
7.46438	0.411
7.50437	0.186
7.54435	0.284
7.58433	0.401
7.62431	0.28
7.66429	0.232
7.70427	0.147
7.74425	0.166
7.78423	0.083
7.82421	0.257
7.86419	0.372
7.90417	0.287
7.94415	0.308
7.98413	0.583
8.02412	0.629
8.0641	0.606
8.10408	0.473
8.14406	0.179
8.18404	0.064
8.22402	0.372
8.264	0.606
8.30398	0.681
8.34396	0.629
8.38394	0.468
8.42392	0.48
8.4639	0.38
8.50388	0.456
8.54387	0.654
8.58385	0.679
8.62383	0.596
8.66381	0.513
8.70379	0.636
8.74377	0.692
8.78375	0.712
8.82373	0.752
8.86371	0.765
8.90369	0.777
8.94367	0.78
8.98365	0.78
9.02363	0.775
9.06362	0.762
9.1036	0.744
9.14358	0.724
9.18356	0.697
9.22354	0.612
9.26352	0.599
9.3035	0.612
9.34348	0.636
9.38346	0.661
9.42344	0.687
9.46342	0.724
9.5034	0.735
9.54338	0.727
9.58337	0.704
9.62335	0.637
9.66333	0.5
9.70331	0.451
9.74329	0.529
9.78327	0.443
9.82325	0.202
9.86323	0.053
9.90321	0.043
9.94319	0.161
9.98317	0.355
10.0232	0.473
10.0631	0.563
10.1031	0.578
10.1431	0.571
10.1831	0.534
10.2231	0.45
10.263	0.299
10.303	0.134
10.343	0.139
10.383	0.343
10.423	0.526
10.4629	0.602
10.5029	0.641
10.5429	0.672
10.5829	0.694
10.6229	0.714
10.6628	0.717
10.7028	0.697
10.7428	0.571
10.7828	0.363
10.8228	0.436
10.8627	0.641
10.9027	0.72
10.9427	0.752
10.9827	0.772
11.0227	0.782
11.0627	0.79
11.1026	0.802
11.1426	0.812
11.1826	0.815
11.2226	0.807
11.2626	0.737
11.3025	0.44
11.3425	0.488
11.3825	0.737
11.4225	0.769
11.4625	0.759
11.5024	0.735
11.5424	0.714
11.5824	0.692
11.6224	0.669
11.6624	0.627
11.7023	0.563
11.7423	0.573
11.7823	0.686
11.8223	0.745
11.8623	0.772
11.9022	0.775
11.9422	0.785
11.9822	0.799
12.0222	0.802
12.0622	0.803
12.1022	0.802
12.1421	0.789
12.1821	0.76
12.2221	0.735
12.2621	0.676
12.3021	0.566
12.342	0.475
12.382	0.534
12.422	0.686
12.462	0.74
12.502	0.77
12.5419	0.774
12.5819	0.765
12.6219	0.744
12.6619	0.725
12.7019	0.724
12.7418	0.72
12.7818	0.677
12.8218	0.561
12.8618	0.388
12.9018	0.172
12.9417	0.141
12.9817	0.318
13.0217	0.483
13.0617	0.571
13.1017	0.594
13.1417	0.588
13.1816	0.551
13.2216	0.513
13.2616	0.481
13.3016	0.43
13.3416	0.347
13.3815	0.229
13.4215	0.107
13.4615	0.046
13.5015	0.063
13.5415	0.167
13.5814	0.307
13.6214	0.435
13.6614	0.471
13.7014	0.443
13.7414	0.405
13.7813	0.451
13.8213	0.574
13.8613	0.641
13.9013	0.671
13.9413	0.677
13.9812	0.669
14.0212	0.627
14.0612	0.579
14.1012	0.501
14.1412	0.388
14.1812	0.245
14.2211	0.116
14.2611	0.053
14.3011	0.043
14.3411	0.081
14.3811	0.167
14.421	0.265
14.461	0.352
14.501	0.41
14.541	0.433
14.581	0.446
14.6209	0.481
14.6609	0.549
14.7009	0.624
14.7409	0.681
14.7809	0.722
14.8208	0.742
14.8608	0.757
14.9008	0.762
14.9408	0.767
14.9808	0.772
15.0207	0.787
15.0607	0.794
15.1007	0.799
15.1407	0.799
15.1807	0.799
15.2207	0.794
15.2606	0.787
15.3006	0.779
15.3406	0.77
15.3806	0.75
15.4206	0.729
15.4605	0.694
15.5005	0.632
15.5405	0.561
15.5805	0.485
15.6205	0.43
15.6604	0.39
15.7004	0.373
15.7404	0.37
15.7804	0.368
15.8204	0.37
15.8603	0.38
