Infrared Spectrum: 3-Phenoxypropionic acid
Formula: C 9 H 10 O 3
CAS: 7170-38-9
State: gas
Instrument: HP-GC/MS/IRD
Origin: NIST Mass Spectrometry Data Center
1/CM	ABSORBANCE
550	0.0068573
562	0.0063638
574	0.007097
586	0.0081122
598	0.0084506
610	0.0088971
622	0.0088924
634	0.0078678
646	0.0056729
658	0.0043898
670	0.004935
682	0.0075012
694	0.0080746
706	0.0046201
718	0.0028059
730	0.0036707
742	0.0084318
754	0.0117124
766	0.0078866
778	0.0050995
790	0.0038352
802	0.0028294
814	0.0014429
826	0.0005076
838	6.11e-05
850	9.4e-06
862	0.0003196
874	0.0010293
886	0.0018236
898	0.0023547
910	0.0021761
922	0.0008695
934	0.0003572
946	0.000376
958	0.0006251
970	0.0010998
982	0.0020304
994	0.0033088
1006	0.0046624
1018	0.0086104
1030	0.017437
1042	0.0253189
1054	0.0171832
1066	0.0119051
1078	0.0107442
1090	0.0092731
1102	0.0110779
1114	0.0156886
1126	0.0262824
1138	0.0368903
1150	0.0291306
1162	0.023406
1174	0.0182642
1186	0.0118769
1198	0.0142222
1210	0.0227104
1222	0.0306017
1234	0.0433058
1246	0.0407302
1258	0.0183723
1270	0.0124926
1282	0.0122059
1294	0.0112847
1306	0.0093812
1318	0.0065048
1330	0.0057669
1342	0.0056823
1354	0.0063591
1366	0.0066317
1378	0.0075012
1390	0.0099405
1402	0.0098465
1414	0.0068949
1426	0.0044227
1438	0.003243
1450	0.0030832
1462	0.0056494
1474	0.011045
1486	0.0177519
1498	0.0264234
1510	0.0082579
1522	0.0027072
1534	0.0014476
1546	0.0013959
1558	0.0020445
1570	0.004277
1582	0.010152
1594	0.0208069
1606	0.0144102
1618	0.0032524
1630	0.0011562
1642	0.0006157
1654	0.0004559
1666	0.0004606
1678	0.0006392
1690	0.0009729
1702	0.0015181
1714	0.0023547
1726	0.0042159
1738	0.0082438
1750	0.0151716
1762	0.026132
1774	0.0416608
1786	0.0451999
1798	0.028106
1810	0.0140342
1822	0.0068291
1834	0.0033793
1846	0.0018988
1858	0.0011374
1870	0.0006533
1882	0.0004136
1894	0.0003431
1906	0.0004935
1918	0.0007332
1930	0.000799
1942	0.0007802
1954	0.0004465
1966	0.0003431
1978	0.0002961
1990	0.0002914
2002	0.0003243
2014	0.0003854
2026	0.0005311
2038	0.0005922
2050	0.0004559
2062	0.0003854
2074	0.0003243
2086	0.0002538
2098	0.0002021
2110	9.4e-05
2122	9.4e-06
2134	3.29e-05
2146	4.7e-06
2158	0
2170	2.35e-05
2182	2.82e-05
2194	2.82e-05
2206	4.7e-05
2218	6.58e-05
2230	4.7e-05
2242	8.46e-05
2254	9.87e-05
2266	0.0001645
2278	0.0001833
2290	0.0001974
2302	0.0001598
2314	0.0002162
2326	0.0001786
2338	0.0001833
2350	0.0001363
2362	0.0001739
2374	0.0001692
2386	0.0002021
2398	0.0002162
2410	0.0002256
2422	0.0002209
2434	0.0002632
2446	0.0002726
2458	0.0003055
2470	0.0002632
2482	0.0002914
2494	0.0002397
2506	0.0002585
2518	0.0002585
2530	0.000235
2542	0.0002538
2554	0.0002209
2566	0.0001363
2578	8.46e-05
2590	5.64e-05
2602	9.4e-05
2614	4.23e-05
2626	6.11e-05
2638	3.29e-05
2650	2.35e-05
2662	2.82e-05
2674	2.82e-05
2686	2.35e-05
2698	0.0001034
2710	0.0001034
2722	0.0001457
2734	0.000188
2746	0.0002632
2758	0.0002914
2770	0.000282
2782	0.0002068
2794	0.0001457
2806	0.0001786
2818	0.0002585
2830	0.0003478
2842	0.0004794
2854	0.0007191
2866	0.0011468
2878	0.0019646
2890	0.0031114
2902	0.0033558
2914	0.0030456
2926	0.0033417
2938	0.0042911
2950	0.0042065
2962	0.0034592
2974	0.0031114
2986	0.0030127
2998	0.0024957
3010	0.0019834
3022	0.0024393
3034	0.003854
3046	0.0053533
3058	0.0045543
3070	0.0056964
3082	0.0059455
3094	0.0038916
3106	0.0028153
3118	0.0012784
3130	0.0004512
3142	0.0002491
3154	0.0002021
3166	9.87e-05
3178	0.0001363
3190	0.0001974
3202	6.11e-05
3214	0.0001175
3226	6.11e-05
3238	0.0001034
3250	7.05e-05
3262	4.23e-05
3274	0.0001316
3286	0.0001128
3298	0.0001316
3310	0.0001269
3322	0.0001175
3334	0.0001175
3346	8.93e-05
3358	0.0001363
3370	0.0001645
3382	0.0002115
3394	0.0001645
3406	0.0002209
3418	0.0002444
3430	0.0002726
3442	0.0003196
3454	0.0003901
3466	0.000564
3478	0.0006721
3490	0.0006815
3502	0.0006956
3514	0.0008225
3526	0.0009118
3538	0.0014993
3550	0.0025803
3562	0.0067774
3574	0.0195896
3586	0.0091368
3598	0.002679
3610	0.0011891
3622	0.0007191
3634	0.0005499
3646	0.0004136
3658	0.0003337
3670	0.0002397
3682	0.0002444
3694	0.000235
3706	0.0001974
3718	0.0002679
3730	0.0001786
3742	0.0001974
3754	0.0001504
3766	0.0002397
3778	0.0001692
3790	0.0001692
3802	0.0002068
3814	0.0002115
3826	0.0002444
3838	0.0002491
