Infrared Spectrum: N-Pentafluoropropionylimidazole
Formula: C 6 H 3 F 5 N 2 O
CAS: 71735-32-5
State: gas
Origin: EPA-IR VAPOR PHASE LIBRARY
1/CM	ABSORBANCE
549.9	0.00694
559.547	0.00603
569.193	0.00601
578.84	0.00633
588.486	0.00715
598.133	0.00882
607.779	0.01037
617.426	0.00953
627.072	0.01373
636.719	0.02317
646.365	0.01518
656.012	0.00761
665.658	0.00863
675.305	0.00949
684.951	0.00667
694.598	0.00615
704.245	0.00717
713.891	0.01291
723.538	0.0304
733.184	0.05846
742.831	0.06505
752.477	0.02985
762.124	0.0134
771.77	0.00585
781.417	0.00433
791.063	0.00441
800.71	0.00579
810.356	0.01149
820.003	0.01806
829.649	0.02373
839.296	0.05137
848.943	0.05368
858.589	0.03492
868.236	0.05141
877.882	0.04813
887.529	0.02766
897.175	0.01039
906.822	0.00436
916.468	0.0031744
926.115	0.0029542
935.761	0.0030428
945.408	0.0032728
955.054	0.00359
964.701	0.00414
974.347	0.00536
983.994	0.00911
993.64	0.01492
1003.29	0.01452
1012.93	0.0095
1022.58	0.00899
1032.23	0.01983
1041.87	0.06923
1051.52	0.10635
1061.17	0.06145
1070.81	0.02729
1080.46	0.0472
1090.11	0.06727
1099.75	0.0482
1109.4	0.03854
1119.05	0.03228
1128.69	0.02694
1138.34	0.03376
1147.99	0.05535
1157.63	0.08497
1167.28	0.12346
1176.92	0.12627
1186.57	0.10956
1196.22	0.12941
1205.86	0.12938
1215.51	0.12047
1225.16	0.17189
1234.8	0.20945
1244.45	0.16194
1254.1	0.08447
1263.74	0.04886
1273.39	0.03488
1283.04	0.0435
1292.68	0.08718
1302.33	0.14423
1311.98	0.12449
1321.62	0.0613
1331.27	0.04493
1340.92	0.03911
1350.56	0.03031
1360.21	0.02229
1369.86	0.02822
1379.5	0.06717
1389.15	0.10232
1398.79	0.07241
1408.44	0.03191
1418.09	0.01484
1427.73	0.01133
1437.38	0.01192
1447.03	0.0156
1456.67	0.01903
1466.32	0.03219
1475.97	0.0476
1485.61	0.05207
1495.26	0.03546
1504.91	0.01782
1514.55	0.00936
1524.2	0.00759
1533.85	0.01058
1543.49	0.01171
1553.14	0.00707
1562.79	0.00644
1572.43	0.00516
1582.08	0.00486
1591.73	0.0067
1601.37	0.00686
1611.02	0.00632
1620.67	0.00737
1630.31	0.00784
1639.96	0.0061
1649.6	0.00443
1659.25	0.00471
1668.9	0.00521
1678.54	0.00546
1688.19	0.00646
1697.84	0.00713
1707.48	0.00738
1717.13	0.00884
1726.78	0.01394
1736.42	0.0273
1746.07	0.05184
1755.72	0.10797
1765.36	0.16519
1775.01	0.09053
1784.66	0.02302
1794.3	0.00936
1803.95	0.00613
1813.6	0.00456
1823.24	0.00399
1832.89	0.00386
1842.54	0.00358
1852.18	0.0030153
1861.83	0.0027993
1871.47	0.0025758
1881.12	0.00245935
1890.77	0.00236453
1900.41	0.00225
1910.06	0.002167
1919.71	0.002223
1929.35	0.0023
1939	0.00236925
1948.65	0.002299
1958.29	0.0022935
1967.94	0.0022681
1977.59	0.002225
1987.23	0.002008
1996.88	0.001825
2006.53	0.001636
2016.17	0.001568
2025.82	0.001518
2035.47	0.001677
2045.11	0.001697
2054.76	0.001679
2064.41	0.001719
2074.05	0.001663
2083.7	0.001627
2093.35	0.001602
2102.99	0.001536
2112.64	0.00152
2122.28	0.001584
2131.93	0.001581
2141.58	0.001622
2151.22	0.00165
2160.87	0.001572
2170.52	0.001505
2180.16	0.00148
2189.81	0.001515
2199.46	0.001488
2209.1	0.001443
2218.75	0.00141
2228.4	0.001478
2238.04	0.001517
2247.69	0.001577
2257.34	0.001642
2266.98	0.001664
2276.63	0.001641
2286.28	0.001654
2295.92	0.001768
2305.57	0.0018
2315.22	0.001949
2324.86	0.001863
2334.51	0.001788
2344.16	0.001761
2353.8	0.001677
2363.45	0.001784
2373.09	0.002003
2382.74	0.002012
2392.39	0.002063
2402.03	0.002019
2411.68	0.002008
2421.33	0.001971
2430.97	0.001913
2440.62	0.001884
2450.27	0.00188
2459.91	0.00197
2469.56	0.002097
2479.21	0.002095
2488.85	0.002169
2498.5	0.002235
2508.15	0.002144
2517.79	0.002098
2527.44	0.002122
2537.09	0.001956
2546.73	0.001833
2556.38	0.001778
2566.03	0.001723
2575.67	0.001681
2585.32	0.001501
2594.96	0.00134
2604.61	0.00124
2614.26	0.00117
2623.9	0.00117
2633.55	0.00114
2643.2	0.00113
2652.84	0.00098
2662.49	0.0009
2672.14	0.00093
2681.78	0.00088
2691.43	0.0009
2701.08	0.00089
2710.72	0.00083
2720.37	0.00076
2730.02	0.00072
2739.66	0.00067
2749.31	0.00092
2758.96	0.00089
2768.6	0.00104
2778.25	0.00097
2787.9	0.00087
2797.54	0.00069
2807.19	0.00055
2816.84	0.00048
2826.48	0.00042
2836.13	0.00029
2845.77	0.00031
2855.42	0.00032
2865.07	0.00028
2874.71	0.00034
2884.36	0.00021
2894.01	0.00027
2903.65	0.0003
2913.3	0.00029
2922.95	0.00041
2932.59	0.00055
2942.24	0.00056
2951.89	0.00064
2961.53	0.00043
2971.18	0.00035
2980.83	0.00018
2990.47	0.00023
3000.12	0.00029
3009.77	0.00024
3019.41	0.00013
3029.06	0
3038.71	0.00016
3048.35	0.00021
3058	0.00049
3067.64	0.00061
3077.29	0.0005
3086.94	0.00018
3096.58	0.00016
3106.23	0.00013
3115.88	0.00052
3125.52	0.00135
3135.17	0.0032097
3144.82	0.00385
3154.46	0.0027749
3164.11	0.0032053
3173.76	0.00365
3183.4	0.0027374
3193.05	0.002045
3202.7	0.00108
3212.34	0.00028
3221.99	0.00029
3231.64	0.00035
3241.28	0.00018
3250.93	0.0004
3260.58	0.00035
3270.22	0.00045
3279.87	0.00047
3289.52	0.00031
3299.16	0.00043
3308.81	0.00051
3318.45	0.00059
3328.1	0.00062
3337.75	0.00058
3347.39	0.00064
3357.04	0.00062
3366.69	0.00061
3376.33	0.00067
3385.98	0.00091
3395.63	0.00081
3405.27	0.001
3414.92	0.00109
3424.57	0.00083
3434.21	0.00102
3443.86	0.00106
3453.51	0.00107
3463.15	0.00123
3472.8	0.0014
3482.45	0.001754
3492.09	0.002142
3501.74	0.0026194
3511.39	0.0027951
3521.03	0.0023432
3530.68	0.001667
3540.33	0.00133
3549.97	0.00124
3559.62	0.001371
3569.26	0.00118
3578.91	0.00115
3588.56	0.00121
3598.2	0.00117
3607.85	0.00123
3617.5	0.00127
3627.14	0.0012
3636.79	0.00118
3646.44	0.00119
3656.08	0.00126
3665.73	0.00121
3675.38	0.00112
3685.02	0.00134
3694.67	0.00125
3704.32	0.001368
3713.96	0.00133
3723.61	0.00118
3733.26	0.00121
3742.9	0.00135
3752.55	0.00119
3762.2	0.00125
3771.84	0.0012
3781.49	0.00122
3791.13	0.00129
3800.78	0.00124
3810.43	0.00122
3820.07	0.0012
3829.72	0.00133
3839.37	0.00125
3849.01	0.00128
3858.66	0.00112
3868.31	0.00124
3877.95	0.00129
3887.6	0.00116
3897.25	0.0012
3906.89	0.00128
3916.54	0.00116
3926.19	0.00111
3935.83	0.00119
3945.48	0.00119
3955.13	0.00125
3964.77	0.00124
3974.42	0.00135
3984.07	0.00124
3993.71	0.00118
