Infrared Spectrum: BICYCLO[2.4.0]OCTAN-2-ONE, 3,3-DIMETHYL-5-OXA-
Formula: C9 H14 O2
CAS: 7176-96-7
Boiling point: 90 C AT 11 mmHg
Class: COBLENTZ
Instrument: Not specified, most likely a prism, grating, or hybrid spectrometer.
Sampling: TRANSMISSION
Resolution: 4
Origin: TENNESSEE EASTMAN COMPANY, RESEARCH LABORATORIES
MICROMETERS	TRANSMITTANCE
2.04	0.913
2.07975	0.913
2.11951	0.913
2.15926	0.912
2.19902	0.91
2.23877	0.885
2.27853	0.865
2.31828	0.865
2.35803	0.87
2.39779	0.87
2.43754	0.87
2.4773	0.87
2.51705	0.872
2.55681	0.872
2.59656	0.872
2.63632	0.872
2.67607	0.873
2.71582	0.875
2.75558	0.873
2.79533	0.842
2.83509	0.809
2.87484	0.865
2.9146	0.875
2.95435	0.878
2.9941	0.882
3.03386	0.878
3.07361	0.878
3.11337	0.875
3.15312	0.855
3.19288	0.849
3.23263	0.849
3.27238	0.832
3.31214	0.663
3.35189	0.129
3.39165	0.043
3.4314	0.092
3.47116	0.127
3.51091	0.466
3.55067	0.742
3.59042	0.824
3.63017	0.817
3.66993	0.742
3.70968	0.824
3.74944	0.839
3.78919	0.844
3.82895	0.847
3.8687	0.867
3.90845	0.88
3.94821	0.885
3.98796	0.888
4.02772	0.862
4.06747	0.88
4.10723	0.89
4.14698	0.893
4.18673	0.893
4.22649	0.893
4.26624	0.888
4.306	0.878
4.34575	0.878
4.38551	0.888
4.42526	0.893
4.46501	0.893
4.50477	0.892
4.54452	0.895
4.58428	0.897
4.62403	0.89
4.66379	0.897
4.70354	0.897
4.7433	0.895
4.78305	0.892
4.8228	0.888
4.86256	0.873
4.90231	0.865
4.94207	0.868
4.98182	0.867
5.02158	0.849
5.06133	0.842
5.10108	0.84
5.14084	0.839
5.18059	0.817
5.22035	0.817
5.2601	0.8
5.29986	0.8
5.33961	0.779
5.37936	0.772
5.41912	0.731
5.45887	0.603
5.49863	0.407
5.53838	0.321
5.57814	0.061
5.61789	0.013
5.65765	0.061
5.6974	0.371
5.73715	0.55
5.77691	0.693
5.81666	0.782
5.85642	0.805
5.89617	0.812
5.93593	0.817
5.97568	0.817
6.01543	0.809
6.05519	0.82
6.09494	0.837
6.1347	0.834
6.17445	0.819
6.21421	0.849
6.25396	0.857
6.29371	0.859
6.33347	0.859
6.37322	0.859
6.41298	0.854
6.45273	0.849
6.49249	0.85
6.53224	0.844
6.572	0.839
6.61175	0.827
6.6515	0.802
6.69126	0.737
6.73101	0.601
6.77077	0.285
6.81052	0.192
6.85028	0.32
6.89003	0.257
6.92978	0.349
6.96954	0.64
7.00929	0.736
7.04905	0.781
7.0888	0.791
7.12856	0.759
7.16831	0.6
7.20806	0.421
7.24782	0.538
7.28757	0.514
7.32733	0.315
7.36708	0.512
7.40684	0.577
7.44659	0.492
7.48634	0.658
7.5261	0.588
7.56585	0.51
7.60561	0.497
7.64536	0.308
7.68512	0.461
7.72487	0.527
7.76463	0.625
7.80438	0.592
7.84413	0.356
7.88389	0.472
7.92364	0.658
7.9634	0.583
8.00315	0.194
8.04291	0.464
8.08266	0.646
8.12241	0.703
8.16217	0.701
8.20192	0.638
8.24168	0.553
8.28143	0.582
8.32119	0.398
8.36094	0.215
8.40069	0.306
8.44045	0.338
8.4802	0.318
8.51996	0.467
8.55971	0.573
8.59947	0.557
8.63922	0.407
8.67898	0.315
8.71873	0.366
8.75848	0.482
8.79824	0.429
8.83799	0.22
8.87775	0.061
8.9175	0.109
8.95726	0.333
8.99701	0.525
9.03676	0.625
9.07652	0.653
9.11627	0.608
9.15603	0.51
9.19578	0.492
9.23554	0.557
9.27529	0.568
9.31504	0.492
9.3548	0.338
9.39455	0.142
9.43431	0.039
9.47406	0.029
9.51382	0.084
9.55357	0.273
9.59333	0.325
9.63308	0.247
9.67283	0.235
9.71259	0.238
9.75234	0.152
9.7921	0.164
9.83185	0.368
9.87161	0.52
9.91136	0.578
9.95111	0.6
9.99087	0.653
10.0306	0.686
10.0704	0.701
10.1101	0.714
10.1499	0.704
10.1896	0.651
10.2294	0.565
10.2691	0.389
10.3089	0.265
10.3487	0.25
10.3884	0.29
10.4282	0.308
10.4679	0.378
10.5077	0.454
10.5474	0.461
10.5872	0.519
10.6269	0.633
10.6667	0.701
10.7064	0.723
10.7462	0.729
10.786	0.723
10.8257	0.688
10.8655	0.611
10.9052	0.527
10.945	0.349
10.9847	0.2
11.0245	0.152
11.0642	0.248
11.104	0.24
11.1437	0.199
11.1835	0.291
11.2233	0.495
11.263	0.575
11.3028	0.58
11.3425	0.47
11.3823	0.29
11.422	0.222
11.4618	0.374
11.5015	0.582
11.5413	0.693
11.581	0.741
11.6208	0.764
11.6606	0.777
11.7003	0.781
11.7401	0.781
11.7798	0.796
11.8196	0.822
11.8593	0.829
11.8991	0.837
11.9388	0.842
11.9786	0.845
12.0183	0.845
12.0581	0.847
12.0978	0.85
12.1376	0.85
12.1774	0.854
12.2171	0.854
12.2569	0.854
12.2966	0.854
12.3364	0.852
12.3761	0.852
12.4159	0.852
12.4556	0.852
12.4954	0.844
12.5351	0.825
12.5749	0.805
12.6147	0.804
12.6544	0.82
12.6942	0.83
12.7339	0.834
12.7737	0.835
12.8134	0.832
12.8532	0.809
12.8929	0.776
12.9327	0.684
12.9724	0.648
13.0122	0.716
13.052	0.777
13.0917	0.807
13.1315	0.822
13.1712	0.827
13.211	0.83
13.2507	0.832
13.2905	0.834
13.3302	0.834
13.37	0.834
13.4097	0.834
13.4495	0.832
13.4893	0.832
13.529	0.829
13.5688	0.829
13.6085	0.825
13.6483	0.822
13.688	0.817
13.7278	0.807
13.7675	0.799
13.8073	0.776
13.847	0.762
13.8868	0.761
13.9265	0.764
13.9663	0.776
14.0061	0.789
14.0458	0.791
14.0856	0.791
14.1253	0.792
14.1651	0.792
14.2048	0.789
14.2446	0.787
14.2843	0.781
14.3241	0.777
14.3638	0.771
14.4036	0.767
14.4434	0.761
14.4831	0.756
14.5229	0.747
14.5626	0.744
14.6024	0.741
14.6421	0.734
14.6819	0.731
14.7216	0.724
14.7614	0.719
14.8011	0.716
14.8409	0.711
14.8807	0.703
14.9204	0.688
14.9602	0.673
14.9999	0.673
15.0397	0.673
15.0794	0.673
15.1192	0.669
15.1589	0.666
15.1987	0.66
15.2384	0.653
15.2782	0.648
15.318	0.643
15.3577	0.636
15.3975	0.631
15.4372	0.626
15.477	0.621
15.5167	0.618
15.5565	0.613
15.5962	0.608
15.636	0.606
15.6757	0.603
15.7155	0.6
15.7552	0.595
15.795	0.59
15.8348	0.59
15.8745	0.588
15.9143	0.585
15.954	0.585
15.9938	0.587
