Infrared Spectrum: IMIDAZOLE-4-CARBOXAMIDE, 1-BENZYL-5-(N-BENZYLFORMAMIDO)-
Formula: C19 H18 N4 O2
CAS: 7178-28-1
State: SOLID (1 mg / 650 mg KBr DISC)
Class: COBLENTZ III
Instrument: PERKIN-ELMER 521 (GRATING)
Instrument parameters: FILTER CHANGE AT 3150, 2500, 2000, 1150, 700, 410 CM^-^1, GRATING CHANGES AT 2000, 630 CM^-^1
Sampling: TRANSMISSION
Resolution: 4
Origin: SOUTHERN RESEARCH INSTITUTE
1/CM	TRANSMITTANCE
239.532	0.214
248.635	0.234
257.737	0.259
266.84	0.325
275.943	0.38
285.046	0.441
294.148	0.496
303.251	0.526
312.354	0.55
321.457	0.584
330.559	0.611
339.662	0.62
348.765	0.645
357.867	0.678
366.97	0.693
376.073	0.693
385.176	0.686
394.278	0.717
403.381	0.745
412.484	0.706
421.586	0.72
430.689	0.756
439.792	0.769
448.895	0.673
457.997	0.756
467.1	0.769
476.203	0.705
485.306	0.76
494.408	0.788
503.511	0.742
512.614	0.742
521.716	0.796
530.819	0.801
539.922	0.8
549.025	0.798
558.127	0.795
567.23	0.763
576.333	0.753
585.435	0.785
594.538	0.745
603.641	0.703
612.744	0.727
621.846	0.761
630.949	0.754
640.052	0.726
649.155	0.639
658.257	0.672
667.36	0.585
676.463	0.576
685.565	0.542
694.668	0.531
703.771	0.425
712.874	0.72
721.976	0.558
731.079	0.396
740.182	0.577
749.284	0.79
758.387	0.812
767.49	0.781
776.593	0.779
785.695	0.785
794.798	0.775
803.901	0.769
813.004	0.692
822.106	0.742
831.209	0.837
840.312	0.842
849.414	0.791
858.517	0.761
867.62	0.865
876.723	0.871
885.825	0.87
894.928	0.864
904.031	0.837
913.134	0.843
922.236	0.86
931.339	0.85
940.442	0.811
949.544	0.631
958.647	0.737
967.75	0.841
976.853	0.852
985.955	0.85
995.058	0.755
1004.16	0.758
1013.26	0.835
1022.37	0.796
1031.47	0.785
1040.57	0.826
1049.67	0.844
1058.78	0.838
1067.88	0.801
1076.98	0.712
1086.09	0.797
1095.19	0.727
1104.29	0.773
1113.39	0.82
1122.5	0.835
1131.6	0.833
1140.7	0.82
1149.8	0.793
1158.91	0.776
1168.01	0.73
1177.11	0.703
1186.22	0.547
1195.32	0.567
1204.42	0.702
1213.52	0.673
1222.63	0.511
1231.73	0.666
1240.83	0.757
1249.93	0.736
1259.04	0.594
1268.14	0.402
1277.24	0.584
1286.35	0.756
1295.45	0.74
1304.55	0.711
1313.65	0.71
1322.76	0.659
1331.86	0.488
1340.96	0.661
1350.06	0.699
1359.17	0.574
1368.27	0.63
1377.37	0.432
1386.48	0.719
1395.58	0.743
1404.68	0.72
1413.78	0.703
1422.89	0.607
1431.99	0.516
1441.09	0.566
1450.19	0.542
1459.3	0.747
1468.4	0.801
1477.5	0.8
1486.61	0.709
1495.71	0.507
1504.81	0.532
1513.91	0.78
1523.02	0.831
1532.12	0.829
1541.22	0.823
1550.32	0.801
1559.43	0.754
1568.53	0.689
1577.63	0.468
1586.74	0.472
1595.84	0.523
1604.94	0.587
1614.04	0.646
1623.15	0.67
1632.25	0.675
1641.35	0.648
1650.45	0.561
1659.56	0.415
1668.66	0.268
1677.76	0.29
1686.86	0.183
1695.97	0.1
1705.07	0.331
1714.17	0.542
1723.28	0.721
1732.38	0.765
1741.48	0.8
1750.58	0.828
1759.69	0.851
1768.79	0.858
1777.89	0.864
1786.99	0.871
1796.1	0.873
1805.2	0.87
1814.3	0.869
1823.41	0.875
1832.51	0.88
1841.61	0.883
1850.71	0.884
1859.82	0.882
1868.92	0.881
1878.02	0.879
1887.12	0.879
1896.23	0.881
1905.33	0.882
1914.43	0.882
1923.54	0.88
1932.64	0.877
1941.74	0.876
1950.84	0.874
1959.95	0.877
1969.05	0.878
1978.15	0.879
1987.25	0.88
1996.36	0.882
2005.46	0.882
2014.56	0.882
2023.67	0.882
2032.77	0.882
2041.87	0.881
2050.97	0.881
2060.08	0.88
2069.18	0.88
2078.28	0.88
2087.38	0.88
2096.49	0.879
2105.59	0.879
2114.69	0.878
2123.8	0.877
2132.9	0.877
2142	0.876
2151.1	0.875
2160.21	0.875
2169.31	0.874
2178.41	0.873
2187.51	0.873
2196.62	0.873
2205.72	0.872
2214.82	0.871
2223.93	0.87
2233.03	0.869
2242.13	0.869
2251.23	0.868
2260.34	0.868
2269.44	0.867
2278.54	0.867
2287.64	0.867
2296.75	0.867
2305.85	0.865
2314.95	0.864
2324.06	0.862
2333.16	0.86
2342.26	0.859
2351.36	0.859
2360.47	0.859
2369.57	0.861
2378.67	0.861
2387.77	0.862
2396.88	0.862
2405.98	0.862
2415.08	0.862
2424.19	0.862
2433.29	0.861
2442.39	0.86
2451.49	0.859
2460.6	0.858
2469.7	0.857
2478.8	0.855
2487.9	0.855
2497.01	0.854
2506.11	0.853
2515.21	0.852
2524.32	0.85
2533.42	0.848
2542.52	0.846
2551.62	0.848
2560.73	0.851
2569.83	0.851
2578.93	0.85
2588.03	0.847
2597.14	0.846
2606.24	0.845
2615.34	0.844
2624.45	0.843
2633.55	0.842
2642.65	0.84
2651.75	0.838
2660.86	0.837
2669.96	0.836
2679.06	0.835
2688.16	0.834
2697.27	0.832
2706.37	0.831
2715.47	0.829
2724.58	0.828
2733.68	0.826
2742.78	0.818
2751.88	0.81
2760.99	0.81
2770.09	0.816
2779.19	0.819
2788.29	0.822
2797.4	0.822
2806.5	0.82
2815.6	0.819
2824.71	0.816
2833.81	0.812
2842.91	0.805
2852.01	0.794
2861.12	0.792
2870.22	0.791
2879.32	0.789
2888.42	0.787
2897.53	0.783
2906.63	0.776
2915.73	0.759
2924.84	0.734
2933.94	0.718
2943.04	0.738
2952.14	0.752
2961.25	0.76
2970.35	0.754
2979.45	0.75
2988.55	0.749
2997.66	0.744
3006.76	0.733
3015.86	0.724
3024.97	0.682
3034.07	0.688
3043.17	0.689
3052.27	0.687
3061.38	0.652
3070.48	0.671
3079.58	0.676
3088.68	0.655
3097.79	0.621
3106.89	0.58
3115.99	0.61
3125.1	0.612
3134.2	0.57
3143.3	0.531
3152.4	0.506
3161.51	0.507
3170.61	0.518
3179.71	0.544
3188.81	0.575
3197.92	0.608
3207.02	0.638
3216.12	0.662
3225.23	0.675
3234.33	0.681
3243.43	0.68
3252.53	0.676
3261.64	0.671
3270.74	0.655
3279.84	0.638
3288.94	0.626
3298.05	0.622
3307.15	0.618
3316.25	0.609
3325.36	0.579
3334.46	0.537
3343.56	0.49
3352.66	0.449
3361.77	0.496
3370.87	0.568
3379.97	0.616
3389.07	0.645
3398.18	0.663
3407.28	0.675
3416.38	0.685
3425.49	0.701
3434.59	0.707
3443.69	0.709
3452.79	0.711
3461.9	0.712
3471	0.721
3480.1	0.725
3489.2	0.733
3498.31	0.741
3507.41	0.749
3516.51	0.759
3525.62	0.765
3534.72	0.773
3543.82	0.78
3552.92	0.784
3562.03	0.787
3571.13	0.794
3580.23	0.801
3589.33	0.804
3598.44	0.81
3607.54	0.814
3616.64	0.819
3625.74	0.824
3634.85	0.828
3643.95	0.829
3653.05	0.83
3662.16	0.83
3671.26	0.828
3680.36	0.828
3689.46	0.832
3698.57	0.834
3707.67	0.835
3716.77	0.835
3725.87	0.833
3734.98	0.832
3744.08	0.829
3753.18	0.829
3762.29	0.831
3771.39	0.835
3780.49	0.836
3789.59	0.835
3798.7	0.833
3807.8	0.832
