Infrared Spectrum: 2-Methoxy-5-nitrophenylisothiocyanate
Formula: C 8 H 6 N 2 O 3 S
CAS: 71793-51-6
State: gas
Origin: EPA-IR VAPOR PHASE LIBRARY
1/CM	ABSORBANCE
549.8	0.006753
559.445	0.005313
569.09	0.005553
578.734	0.005783
588.379	0.006533
598.024	0.008653
607.669	0.010903
617.313	0.010983
626.958	0.021803
636.603	0.028523
646.248	0.013223
655.893	0.010723
665.537	0.010823
675.182	0.010403
684.827	0.010673
694.472	0.016143
704.116	0.032243
713.761	0.032813
723.406	0.015683
733.051	0.014523
742.695	0.021453
752.34	0.012753
761.985	0.006263
771.63	0.005583
781.275	0.011343
790.919	0.016063
800.564	0.005553
810.209	0.009043
819.854	0.014693
829.498	0.008913
839.143	0.007743
848.788	0.016783
858.433	0.019023
868.078	0.007853
877.722	0.004613
887.367	0.010003
897.012	0.020503
906.657	0.013873
916.301	0.005103
925.946	0.003363
935.591	0.003193
945.236	0.003633
954.88	0.004213
964.525	0.006553
974.17	0.012013
983.815	0.019313
993.46	0.017273
1003.1	0.017153
1012.75	0.025703
1022.39	0.034923
1032.04	0.033983
1041.68	0.016413
1051.33	0.007513
1060.97	0.006293
1070.62	0.011073
1080.26	0.027653
1089.91	0.045953
1099.55	0.027633
1109.2	0.009853
1118.84	0.009023
1128.49	0.019103
1138.13	0.022873
1147.78	0.010163
1157.42	0.004583
1167.07	0.004393
1176.71	0.007103
1186.36	0.008073
1196	0.006453
1205.64	0.006943
1215.29	0.013683
1224.93	0.030523
1234.58	0.038483
1244.22	0.025763
1253.87	0.031923
1263.51	0.061793
1273.16	0.105723
1282.8	0.100593
1292.45	0.050443
1302.09	0.033773
1311.74	0.035523
1321.38	0.036023
1331.03	0.046583
1340.67	0.104663
1350.32	0.187123
1359.96	0.109213
1369.61	0.040643
1379.25	0.019333
1388.9	0.011663
1398.54	0.009723
1408.18	0.011033
1417.83	0.013603
1427.47	0.017033
1437.12	0.020953
1446.76	0.025013
1456.41	0.020443
1466.05	0.026703
1475.7	0.031463
1485.34	0.054203
1494.99	0.098043
1504.63	0.085363
1514.28	0.050853
1523.92	0.060023
1533.57	0.103913
1543.21	0.147913
1552.86	0.098833
1562.5	0.046663
1572.15	0.047193
1581.79	0.062123
1591.44	0.052933
1601.08	0.027363
1610.73	0.014603
1620.37	0.009043
1630.01	0.007043
1639.66	0.006573
1649.3	0.005813
1658.95	0.004713
1668.59	0.003863
1678.24	0.003323
1687.88	0.002923
1697.53	0.002563
1707.17	0.002493
1716.82	0.002503
1726.46	0.002533
1736.11	0.002353
1745.75	0.002883
1755.4	0.003443
1765.04	0.003133
1774.69	0.003263
1784.33	0.003603
1793.98	0.003863
1803.62	0.003713
1813.27	0.003353
1822.91	0.003773
1832.55	0.004953
1842.2	0.005643
1851.84	0.005283
1861.49	0.005783
1871.13	0.007713
1880.78	0.009423
1890.42	0.009903
1900.07	0.011733
1909.71	0.015323
1919.36	0.020973
1929	0.028843
1938.65	0.040243
1948.29	0.055843
1957.94	0.080253
1967.58	0.111843
1977.23	0.133243
1986.87	0.150483
1996.52	0.183483
2006.16	0.263993
2015.81	0.418573
2025.45	0.452943
2035.1	0.337403
2044.74	0.237113
2054.38	0.172613
2064.03	0.150813
2073.67	0.177233
2083.32	0.223323
2092.96	0.229703
2102.61	0.180883
2112.25	0.128613
2121.9	0.097553
2131.54	0.077733
2141.19	0.062223
2150.83	0.048143
2160.48	0.035273
2170.12	0.025443
2179.77	0.018833
2189.41	0.014503
2199.06	0.012323
2208.7	0.011833
2218.35	0.011723
2227.99	0.009643
2237.64	0.007813
2247.28	0.006653
2256.92	0.005663
2266.57	0.005043
2276.21	0.004243
2285.86	0.003493
2295.5	0.002993
2305.15	0.002673
2314.79	0.002793
2324.44	0.002993
2334.08	0.002953
2343.73	0.002973
2353.37	0.003393
2363.02	0.003593
2372.66	0.003433
2382.31	0.003073
2391.95	0.003043
2401.6	0.002913
2411.24	0.003043
2420.89	0.003303
2430.53	0.003383
2440.18	0.003503
2449.82	0.003503
2459.47	0.003713
2469.11	0.003833
2478.75	0.003943
2488.4	0.004453
2498.04	0.004613
2507.69	0.004763
2517.33	0.004773
2526.98	0.004983
2536.62	0.005413
2546.27	0.006273
2555.91	0.006883
2565.56	0.006473
2575.2	0.005953
2584.85	0.005623
2594.49	0.005173
2604.14	0.004573
2613.78	0.004233
2623.43	0.004043
2633.07	0.003633
2642.72	0.002943
2652.36	0.002643
2662.01	0.002573
2671.65	0.002803
2681.29	0.003053
2690.94	0.003183
2700.58	0.002913
2710.23	0.002993
2719.87	0.003593
2729.52	0.004173
2739.16	0.004263
2748.81	0.003763
2758.45	0.003423
2768.1	0.003143
2777.74	0.003003
2787.39	0.003183
2797.03	0.003513
2806.68	0.003893
2816.32	0.004023
2825.97	0.004383
2835.61	0.006073
2845.26	0.010193
2854.9	0.011963
2864.55	0.009383
2874.19	0.007943
2883.84	0.007453
2893.48	0.007463
2903.12	0.008273
2912.77	0.009083
2922.41	0.009363
2932.06	0.010103
2941.7	0.015143
2951.35	0.021003
2960.99	0.017543
2970.64	0.013933
2980.28	0.011713
2989.93	0.007823
2999.57	0.006343
3009.22	0.007193
3018.86	0.010273
3028.51	0.008083
3038.15	0.003923
3047.8	0.002873
3057.44	0.002673
3067.09	0.002983
3076.73	0.004233
3086.38	0.007213
3096.02	0.008303
3105.67	0.004683
3115.31	0.001963
3124.95	0.0012424
3134.6	0.0011929
3144.24	0.000837
3153.89	0.0008
3163.53	0.000939
3173.18	0.0006809
3182.82	0.0007078
3192.47	0.0007163
3202.11	0.0007338
3211.76	0.0008487
3221.4	0.0005564
3231.05	0.000392
3240.69	0.000312
3250.34	0.000266
3259.98	9.9e-05
3269.63	0.00027
3279.27	0.000261
3288.92	0.000283
3298.56	0.000142
3308.21	0.000321
3317.85	0.000219
3327.49	0.000311
3337.14	0.00016
3346.78	0.000134
3356.43	0.000246
3366.07	0.000274
3375.72	0.0004369
3385.36	0.000283
3395.01	0.000287
3404.65	0.000286
3414.3	0.000398
3423.94	0.000248
3433.59	0.000401
3443.23	0.00029
3452.88	0.000366
3462.52	0.000272
3472.17	0.000288
3481.81	0.000355
3491.46	0.000343
3501.1	0.000336
3510.75	0.000348
3520.39	0.000369
3530.04	0.0004437
3539.68	0.000274
3549.32	0.0004498
3558.97	0.00039
3568.61	0.000268
3578.26	0.000402
3587.9	0.000156
3597.55	0.000275
3607.19	0.000153
3616.84	0.000213
3626.48	0.000308
3636.13	0.000364
3645.77	0.000266
3655.42	0.000352
3665.06	0.000405
3674.71	0.000373
3684.35	0.0004978
3694	0.00051036
3703.64	0.0004337
3713.29	0.000287
3722.93	0.000327
3732.58	0.0006402
3742.22	0.000355
3751.86	0.000412
3761.51	0.0004147
3771.15	0.00057213
3780.8	0.0006279
3790.44	0.000512519
3800.09	0.000489
3809.73	0.00055263
3819.38	0.0004182
3829.02	0.000394
3838.67	0.0006427
3848.31	0.0008139
3857.96	0.0008048
3867.6	0.0009177
3877.25	0.001126
3886.89	0.000889
3896.54	0.0009604
3906.18	0.0010146
3915.83	0.0011653
3925.47	0.0012317
3935.12	0.001583
3944.76	0.0013436
3954.41	0.001773
3964.05	0.001703
3973.69	0.002093
3983.34	0.002033
3992.98	0.002013
