Infrared Spectrum: p-Nitrobenzylidene t-butylamine
Formula: C 11 H 14 N 2 O 2
CAS: 718-36-5
State: gas
Origin: EPA-IR VAPOR PHASE LIBRARY
1/CM	ABSORBANCE
549.8	0.0005169
559.445	0.0002289
569.09	0.00035387
578.734	0.0006442
588.379	0.0008258
598.024	0.0010208
607.669	0.0005915
617.313	0.0007778
626.958	0.0007198
636.603	0.00031547
646.248	0.0006211
655.893	0.0009769
665.537	0.003092
675.182	0.004322
684.827	0.006112
694.472	0.005892
704.116	0.004002
713.761	0.002162
723.406	0.002302
733.051	0.005132
742.695	0.009522
752.34	0.008952
761.985	0.004182
771.63	0.001702
781.275	0.002142
790.919	0.002672
800.564	0.003112
810.209	0.004192
819.854	0.011232
829.498	0.042522
839.143	0.043022
848.788	0.022972
858.433	0.017232
868.078	0.011792
877.722	0.003982
887.367	0.003452
897.012	0.005502
906.657	0.009282
916.301	0.006432
925.946	0.003862
935.591	0.003852
945.236	0.005632
954.88	0.005882
964.525	0.004782
974.17	0.003162
983.815	0.002352
993.46	0.002292
1003.1	0.003062
1012.75	0.010312
1022.39	0.003062
1032.04	0.001482
1041.68	0.0010684
1051.33	0.0008087
1060.97	0.0011188
1070.62	0.0011284
1080.26	0.002052
1089.91	0.003512
1099.55	0.005602
1109.2	0.007692
1118.84	0.003362
1128.49	0.002502
1138.13	0.002062
1147.78	0.002772
1157.42	0.003552
1167.07	0.005342
1176.71	0.008272
1186.36	0.016662
1196	0.038192
1205.64	0.040362
1215.29	0.029332
1224.93	0.027302
1234.58	0.012962
1244.22	0.007402
1253.87	0.006092
1263.51	0.006502
1273.16	0.007082
1282.8	0.009262
1292.45	0.014502
1302.09	0.011612
1311.74	0.013132
1321.38	0.015572
1331.03	0.029052
1340.67	0.077092
1350.32	0.138322
1359.96	0.076352
1369.61	0.048442
1379.25	0.032782
1388.9	0.016692
1398.54	0.009052
1408.18	0.007092
1417.83	0.006032
1427.47	0.004612
1437.12	0.004772
1446.76	0.005752
1456.41	0.008022
1466.05	0.010472
1475.7	0.015022
1485.34	0.016072
1494.99	0.014762
1504.63	0.012632
1514.28	0.021462
1523.92	0.049472
1533.57	0.087452
1543.21	0.085812
1552.86	0.045922
1562.5	0.020972
1572.15	0.015592
1581.79	0.018452
1591.44	0.027262
1601.08	0.034642
1610.73	0.023532
1620.37	0.011172
1630.01	0.011702
1639.66	0.027982
1649.3	0.029352
1658.95	0.012522
1668.59	0.009112
1678.24	0.005972
1687.88	0.003492
1697.53	0.002502
1707.17	0.001852
1716.82	0.001382
1726.46	0.001292
1736.11	0.001352
1745.75	0.0012559
1755.4	0.0011784
1765.04	0.0011856
1774.69	0.001472
1784.33	0.001682
1793.98	0.002082
1803.62	0.002062
1813.27	0.001542
1822.91	0.001342
1832.55	0.0010253
1842.2	0.0007692
1851.84	0.0007427
1861.49	0.0006885
1871.13	0.0006544
1880.78	0.0007693
1890.42	0.0011206
1900.07	0.001202
1909.71	0.001282
1919.36	0.001472
1929	0.001462
1938.65	0.001137
1948.29	0.0009247
1957.94	0.0007925
1967.58	0.0005864
1977.23	0.0005322
1986.87	0.0004086
1996.52	0.00029487
2006.16	0.00031354
2015.81	0.000265
2025.45	0.00030751
2035.1	0.00031338
2044.74	0.0002609
2054.38	0.0002161
2064.03	0.0002621
2073.67	0.0002539
2083.32	0.0002639
2092.96	0.00034037
2102.61	0.00035242
2112.25	0.0004095
2121.9	0.000504
2131.54	0.0004174
2141.19	0.0003901
2150.83	0.00032929
2160.48	0.0002648
2170.12	0.0002963
2179.77	0.000287672
2189.41	0.00036038
2199.06	0.0004061
2208.7	0.0004472
2218.35	0.0004244
2227.99	0.0004075
2237.64	0.00031722
2247.28	0.00035206
2256.92	0.0004578
2266.57	0.0006386
2276.21	0.0007059
2285.86	0.0006139
2295.5	0.0004195
2305.15	0.00034398
2314.79	0.0002707
2324.44	0.000289861
2334.08	0.0002511
2343.73	0.000285266
2353.37	0.0003494
2363.02	0.0005485
2372.66	0.0004444
2382.31	0.0004985
2391.95	0.0005407
2401.6	0.0005275
2411.24	0.0004664
2420.89	0.0004721
2430.53	0.0005999
2440.18	0.0006806
2449.82	0.0009213
2459.47	0.000925
2469.11	0.0007562
2478.75	0.0006004
2488.4	0.0004907
2498.04	0.0003768
2507.69	0.000266
2517.33	0.00030975
2526.98	0.0002566
2536.62	0.000255
2546.27	0.0002614
2555.91	0.00031953
2565.56	0.0004738
2575.2	0.0006491
2584.85	0.0007868
2594.49	0.0007835
2604.14	0.0008265
2613.78	0.0009201
2623.43	0.0006711
2633.07	0.0006158
2642.72	0.0006765
2652.36	0.0007143
2662.01	0.0007865
2671.65	0.0009363
2681.29	0.0011972
2690.94	0.001372
2700.58	0.001562
2710.23	0.001392
2719.87	0.001332
2729.52	0.0011692
2739.16	0.0009932
2748.81	0.0010758
2758.45	0.0011086
2768.1	0.0012653
2777.74	0.001462
2787.39	0.001472
2797.03	0.001732
2806.68	0.001982
2816.32	0.002452
2825.97	0.002722
2835.61	0.003592
2845.26	0.004872
2854.9	0.008002
2864.55	0.013742
2874.19	0.019792
2883.84	0.023132
2893.48	0.021812
2903.12	0.019112
2912.77	0.019392
2922.41	0.020202
2932.06	0.021532
2941.7	0.022772
2951.35	0.026182
2960.99	0.036712
2970.64	0.070562
2980.28	0.088912
2989.93	0.030522
2999.57	0.010972
3009.22	0.005222
3018.86	0.003702
3028.51	0.003472
3038.15	0.003622
3047.8	0.003902
3057.44	0.004272
3067.09	0.004652
3076.73	0.002512
3086.38	0.001852
3096.02	0.001512
3105.67	0.0012751
3115.31	0.0011293
3124.95	0.0009946
3134.6	0.0008419
3144.24	0.0007787
3153.89	0.0008964
3163.53	0.0009625
3173.18	0.0011831
3182.82	0.0012111
3192.47	0.0011621
3202.11	0.0011082
3211.76	0.0009622
3221.4	0.0010919
3231.05	0.0012286
3240.69	0.001302
3250.34	0.001312
3259.98	0.0012262
3269.63	0.0011768
3279.27	0.001302
3288.92	0.0010891
3298.56	0.0006312
3308.21	0.0005832
3317.85	0.0006604
3327.49	0.0005747
3337.14	0.0005913
3346.78	0.0004915
3356.43	0.00037053
3366.07	0.000281418
3375.72	0.0004042
3385.36	0.00031759
3395.01	9.2e-05
3404.65	0.00030025
3414.3	0.0002031
3423.94	0.0001936
3433.59	0.00028046
3443.23	0.00027903
3452.88	0.0002545
3462.52	0.00036015
3472.17	0.00038038
3481.81	0.0002965
3491.46	0.000103
3501.1	0.000234
3510.75	0.00033612
3520.39	0.0002892
3530.04	0.000162
3539.68	0.0002672
3549.32	0.000156
3558.97	0.000155
3568.61	0.000105
3578.26	0.000251
3587.9	0.00014
3597.55	0.000127
3607.19	3.9e-05
3616.84	8.1e-05
3626.48	9.3e-05
3636.13	0.0002215
3645.77	2.9e-05
3655.42	0.000125
3665.06	0.0002621
3674.71	0.0002262
3684.35	0.00030598
3694	0.00029248
3703.64	0.0002052
3713.29	0.000139
3722.93	0.00031812
3732.58	0.00034464
3742.22	0.000268
3751.86	0.000165
3761.51	0.0003916
3771.15	0.0002615
3780.8	0.0002417
3790.44	0.000272
3800.09	0.00036895
3809.73	0.000239
3819.38	7.7e-05
3829.02	9.4e-05
3838.67	0.0002308
3848.31	0.00033241
3857.96	0.0002159
3867.6	0.000282286
3877.25	0.00030227
3886.89	0.000286566
3896.54	0.0002438
3906.18	0.0002776
3915.83	0.0003194
3925.47	0.00032215
3935.12	0.00032504
3944.76	0.0002664
3954.41	0.0002602
3964.05	0.00035183
3973.69	0.000167
3983.34	0.000125
3992.98	0.0005194
