Infrared Spectrum: 2,3,4,5,6-Pentafluorocinnamic acid
Formula: C 9 H 3 F 5 O 2
CAS: 719-60-8
State: gas
Origin: EPA-IR VAPOR PHASE LIBRARY
1/CM	ABSORBANCE
549.8	0.007193
559.445	0.009673
569.09	0.014483
578.734	0.005923
588.379	0.004493
598.024	0.012993
607.669	0.014693
617.313	0.003313
626.958	0.003283
636.603	0.003713
646.248	0.002463
655.893	0.002123
665.537	0.001823
675.182	0.002213
684.827	0.001943
694.472	0.002043
704.116	0.002813
713.761	0.002073
723.406	0.0014442
733.051	0.000514
742.695	0.0013318
752.34	0.0016062
761.985	0.0012048
771.63	0.0013754
781.275	0.0009729
790.919	0.0009998
800.564	0.0011747
810.209	0.000552
819.854	0.0011318
829.498	0.00074267
839.143	0.0009286
848.788	0.0013859
858.433	0.001863
868.078	0.002593
877.722	0.002863
887.367	0.001713
897.012	0.002103
906.657	0.0015988
916.301	0.002183
925.946	0.004433
935.591	0.004993
945.236	0.004313
954.88	0.006733
964.525	0.015493
974.17	0.021373
983.815	0.017273
993.46	0.019383
1003.1	0.028373
1012.75	0.029423
1022.39	0.022053
1032.04	0.013893
1041.68	0.008773
1051.33	0.005033
1060.97	0.003293
1070.62	0.003073
1080.26	0.003353
1089.91	0.005593
1099.55	0.009313
1109.2	0.022133
1118.84	0.063643
1128.49	0.048973
1138.13	0.020783
1147.78	0.016993
1157.42	0.016863
1167.07	0.012363
1176.71	0.008213
1186.36	0.006593
1196	0.004513
1205.64	0.003103
1215.29	0.003193
1224.93	0.002433
1234.58	0.005043
1244.22	0.006043
1253.87	0.006273
1263.51	0.007353
1273.16	0.008793
1282.8	0.007493
1292.45	0.007563
1302.09	0.011573
1311.74	0.010983
1321.38	0.008233
1331.03	0.008513
1340.67	0.008553
1350.32	0.011283
1359.96	0.016493
1369.61	0.011023
1379.25	0.005173
1388.9	0.004303
1398.54	0.003873
1408.18	0.004043
1417.83	0.004933
1427.47	0.004703
1437.12	0.003013
1446.76	0.002753
1456.41	0.003283
1466.05	0.005123
1475.7	0.011433
1485.34	0.035793
1494.99	0.075203
1504.63	0.062003
1514.28	0.058163
1523.92	0.056303
1533.57	0.011513
1543.21	0.004703
1552.86	0.003503
1562.5	0.003093
1572.15	0.003493
1581.79	0.003643
1591.44	0.003803
1601.08	0.003903
1610.73	0.004453
1620.37	0.005883
1630.01	0.007103
1639.66	0.011683
1649.3	0.014433
1658.95	0.005193
1668.59	0.002333
1678.24	0.001803
1687.88	0.002083
1697.53	0.002253
1707.17	0.003063
1716.82	0.004463
1726.46	0.006243
1736.11	0.011253
1745.75	0.019693
1755.4	0.045423
1765.04	0.050883
1774.69	0.018093
1784.33	0.012633
1793.98	0.010503
1803.62	0.005253
1813.27	0.003213
1822.91	0.002363
1832.55	0.002133
1842.2	0.001793
1851.84	0.0016145
1861.49	0.0015981
1871.13	0.0012994
1880.78	0.001238
1890.42	0.0010179
1900.07	0.00072912
1909.71	0.000895
1919.36	0.0009308
1929	0.0009854
1938.65	0.00078271
1948.29	0.0008478
1957.94	0.001038
1967.58	0.0008262
1977.23	0.000781
1986.87	0.000904
1996.52	0.0008806
2006.16	0.00069942
2015.81	0.00077734
2025.45	0.0008051
2035.1	0.00075336
2044.74	0.0011067
2054.38	0.0010062
2064.03	0.0012107
2073.67	0.0008499
2083.32	0.0009867
2092.96	0.000931
2102.61	0.0010437
2112.25	0.0008043
2121.9	0.0008272
2131.54	0.0006861
2141.19	0.0006399
2150.83	0.00076022
2160.48	0.00073808
2170.12	0.0009492
2179.77	0.0008179
2189.41	0.0009002
2199.06	0.00079593
2208.7	0.0009102
2218.35	0.0009665
2227.99	0.0009976
2237.64	0.0010056
2247.28	0.0009705
2256.92	0.0010469
2266.57	0.0008978
2276.21	0.0008878
2285.86	0.0009215
2295.5	0.0009856
2305.15	0.0010056
2314.79	0.0009379
2324.44	0.0008413
2334.08	0.0009131
2343.73	0.0008975
2353.37	0.00070176
2363.02	0.0009016
2372.66	0.0009054
2382.31	0.0010598
2391.95	0.0008788
2401.6	0.000911
2411.24	0.0008601
2420.89	0.0010689
2430.53	0.001039
2440.18	0.0009008
2449.82	0.0009689
2459.47	0.0012856
2469.11	0.00128
2478.75	0.0010124
2488.4	0.0011111
2498.04	0.0011791
2507.69	0.0010272
2517.33	0.0008179
2526.98	0.0010864
2536.62	0.0009212
2546.27	0.0008622
2555.91	0.000832
2565.56	0.00078541
2575.2	0.0009752
2584.85	0.0008437
2594.49	0.00077491
2604.14	0.0009479
2613.78	0.00076095
2623.43	0.0010185
2633.07	0.001099
2642.72	0.0010386
2652.36	0.0012263
2662.01	0.0011133
2671.65	0.0011481
2681.29	0.000811
2690.94	0.0008096
2700.58	0.00073932
2710.23	0.0007138
2719.87	0.00080296
2729.52	0.000625
2739.16	0.00076923
2748.81	0.0007906
2758.45	0.0009415
2768.1	0.0008861
2777.74	0.0008329
2787.39	0.00078671
2797.03	0.00078259
2806.68	0.000602
2816.32	0.00077216
2825.97	0.00055
2835.61	0.0007372
2845.26	0.0006061
2854.9	0.000494
2864.55	0.0008958
2874.19	0.0006534
2883.84	0.000879
2893.48	0.0006894
2903.12	0.0010112
2912.77	0.0008232
2922.41	0.0009055
2932.06	0.0008513
2941.7	0.0008274
2951.35	0.0006259
2960.99	0.0006569
2970.64	0.0009777
2980.28	0.000973
2989.93	0.0006655
2999.57	0.0009314
3009.22	0.00080275
3018.86	0.00070181
3028.51	0.0009364
3038.15	0.000532
3047.8	0.000536
3057.44	0.00069379
3067.09	0.0006194
3076.73	0.00076954
3086.38	0.000554
3096.02	0.0007308
3105.67	0.0006551
3115.31	0.00072309
3124.95	0.00080067
3134.6	0.0010419
3144.24	0.0006814
3153.89	0.0006832
3163.53	0.00079977
3173.18	0.000412
3182.82	0.0006662
3192.47	0.000592
3202.11	0.000386
3211.76	0.000523
3221.4	0.00079085
3231.05	0.00079593
3240.69	0.0006661
3250.34	0.0008267
3259.98	0.0006337
3269.63	0.00052
3279.27	0.0008437
3288.92	0.00069364
3298.56	0.0006251
3308.21	0.000485
3317.85	0.000578
3327.49	0.0007248
3337.14	0.000446
3346.78	0.00068
3356.43	0.00069918
3366.07	0.00073432
3375.72	0.000453
3385.36	0.00071964
3395.01	0.000515
3404.65	0.000268
3414.3	0.00070419
3423.94	0.0006385
3433.59	0.0009213
3443.23	0.00074056
3452.88	0.000573
3462.52	0.000512
3472.17	0.0008719
3481.81	0.00074099
3491.46	0.00071772
3501.1	0.0009947
3510.75	0.0011576
3520.39	0.0006415
3530.04	0.0011471
3539.68	0.0007338
3549.32	0.0009577
3558.97	0.0014021
3568.61	0.004463
3578.26	0.025083
3587.9	0.016513
3597.55	0.002533
3607.19	0.0011793
3616.84	0.0006036
3626.48	0.0007726
3636.13	0.0010195
3645.77	0.00069941
3655.42	0.0006273
3665.06	0.00076924
3674.71	0.000537
3684.35	0.000464
3694	0.00072004
3703.64	0.000401
3713.29	0.000531
3722.93	0.000513
3732.58	0.000274
3742.22	0.000456
3751.86	0.000437
3761.51	0.000456
3771.15	0.00077175
3780.8	0.00055
3790.44	0.000541
3800.09	0.000469
3809.73	0.00078564
3819.38	0.000535
3829.02	0.000439
3838.67	0.000357
3848.31	0.000342
3857.96	0.000476
3867.6	0.0006072
3877.25	0.000431
3886.89	0.000352
3896.54	0.000147
3906.18	0.000442
3915.83	0.000448
3925.47	0.000356
3935.12	0.000517
3944.76	0.00045
3954.41	0.000347
3964.05	0.00078883
3973.69	0.000236
3983.34	0.00072397
3992.98	0.000551
