Infrared Spectrum: BENZOPHENONE, 2-AMINO-5-CHLORO-
Formula: C13 H10 Cl N O
CAS: 719-59-5
State: SOLID (KBr DISC)
Class: COBLENTZ III
Instrument: PERKIN-ELMER 21 (GRATING)
Instrument parameters: FILTER CHANGE AT 10 MICRONS
Sampling: TRANSMISSION
Resolution: 2
MICROMETERS	TRANSMITTANCE
2.011	0.362
2.04429	0.367
2.07759	0.37
2.11088	0.381
2.14417	0.386
2.17746	0.388
2.21076	0.398
2.24405	0.403
2.27734	0.407
2.31064	0.414
2.34393	0.42
2.37722	0.429
2.41051	0.437
2.44381	0.441
2.4771	0.444
2.51039	0.454
2.54369	0.462
2.57698	0.468
2.61027	0.474
2.64356	0.482
2.67686	0.492
2.71015	0.501
2.74344	0.512
2.77674	0.518
2.81003	0.52
2.84332	0.524
2.87661	0.533
2.90991	0.373
2.9432	0.239
2.97649	0.407
3.00979	0.258
3.04308	0.304
3.07637	0.379
3.10966	0.405
3.14296	0.428
3.17625	0.444
3.20954	0.467
3.24284	0.473
3.27613	0.481
3.30942	0.498
3.34271	0.507
3.37601	0.518
3.4093	0.527
3.44259	0.538
3.47589	0.548
3.50918	0.554
3.54247	0.558
3.57576	0.568
3.60906	0.57
3.64235	0.579
3.67564	0.583
3.70894	0.588
3.74223	0.593
3.77552	0.594
3.80881	0.6
3.84211	0.605
3.8754	0.607
3.90869	0.607
3.94199	0.62
3.97528	0.623
4.00857	0.634
4.04186	0.636
4.07516	0.639
4.10845	0.646
4.14174	0.651
4.17504	0.659
4.20833	0.658
4.24162	0.652
4.27491	0.65
4.30821	0.655
4.3415	0.669
4.37479	0.683
4.40809	0.689
4.44138	0.69
4.47467	0.701
4.50796	0.707
4.54126	0.712
4.57455	0.714
4.60784	0.721
4.64114	0.726
4.67443	0.731
4.70772	0.734
4.74101	0.739
4.77431	0.74
4.8076	0.744
4.84089	0.749
4.87419	0.758
4.90748	0.763
4.94077	0.769
4.97406	0.772
5.00736	0.772
5.04065	0.77
5.07394	0.77
5.10724	0.772
5.14053	0.781
5.17382	0.794
5.20711	0.784
5.24041	0.776
5.2737	0.784
5.30699	0.806
5.34029	0.813
5.37358	0.82
5.40687	0.824
5.44016	0.831
5.47346	0.832
5.50675	0.837
5.54004	0.841
5.57334	0.846
5.60663	0.824
5.63992	0.82
5.67321	0.84
5.70651	0.856
5.7398	0.869
5.77309	0.877
5.80639	0.884
5.83968	0.898
5.87297	0.898
5.90626	0.885
5.93956	0.877
5.97285	0.841
6.00614	0.791
6.03944	0.737
6.07273	0.631
6.10602	0.376
6.13931	0.195
6.17261	0.101
6.2059	0.122
6.23919	0.265
6.27249	0.297
6.30578	0.249
6.33907	0.272
6.37236	0.43
6.40566	0.485
6.43895	0.473
6.47224	0.237
6.50554	0.115
6.53883	0.281
6.57212	0.422
6.60541	0.519
6.63871	0.556
6.672	0.588
6.70529	0.573
6.73859	0.538
6.77188	0.472
6.80517	0.386
6.83846	0.401
6.87176	0.543
6.90505	0.538
6.93834	0.517
6.97164	0.652
7.00493	0.695
7.03822	0.69
7.07151	0.621
7.10481	0.604
7.1381	0.668
7.17139	0.683
7.20469	0.652
7.23798	0.706
7.27127	0.751
7.30456	0.762
7.33786	0.652
7.37115	0.636
7.40444	0.658
7.43774	0.678
7.47103	0.662
7.50432	0.617
7.53761	0.431
7.57091	0.242
7.6042	0.261
7.63749	0.354
7.67079	0.445
7.70408	0.356
7.73737	0.328
7.77066	0.451
7.80396	0.571
7.83725	0.655
7.87054	0.702
7.90384	0.727
7.93713	0.726
7.97042	0.64
8.00371	0.444
8.03701	0.252
8.0703	0.141
8.10359	0.159
8.13689	0.221
8.17018	0.318
8.20347	0.388
8.23676	0.435
8.27006	0.453
8.30335	0.47
8.33664	0.545
8.36994	0.604
8.40323	0.657
8.43652	0.661
8.46981	0.505
8.50311	0.568
8.5364	0.624
8.56969	0.657
8.60299	0.612
8.63628	0.462
8.66957	0.313
8.70286	0.278
8.73616	0.318
8.76945	0.413
8.80274	0.45
8.83604	0.498
8.86933	0.541
8.90262	0.554
8.93591	0.582
8.96921	0.593
9.0025	0.606
9.03579	0.614
9.06909	0.63
9.10238	0.626
9.13567	0.582
9.16896	0.59
9.20226	0.623
9.23555	0.639
9.26884	0.587
9.30214	0.554
9.33543	0.593
9.36872	0.621
9.40201	0.634
9.43531	0.642
9.4686	0.656
9.50189	0.662
9.53519	0.667
9.56848	0.681
9.60177	0.688
9.63506	0.692
9.66836	0.699
9.70165	0.703
9.73494	0.617
9.76824	0.613
9.80153	0.661
9.83482	0.681
9.86811	0.695
9.90141	0.702
9.9347	0.715
9.96799	0.72
10.0013	0.72
10.0346	0.725
10.0679	0.728
10.1012	0.728
10.1345	0.725
10.1677	0.726
10.201	0.732
10.2343	0.744
10.2676	0.746
10.3009	0.753
10.3342	0.762
10.3675	0.763
10.4008	0.741
10.4341	0.72
10.4674	0.701
10.5007	0.631
10.534	0.392
10.5673	0.318
10.6006	0.481
10.6338	0.619
10.6671	0.693
10.7004	0.712
10.7337	0.724
10.767	0.709
10.8003	0.63
10.8336	0.624
10.8669	0.681
10.9002	0.711
10.9335	0.736
10.9668	0.759
11.0001	0.77
11.0334	0.781
11.0667	0.789
11.0999	0.791
11.1332	0.79
11.1665	0.768
11.1998	0.683
11.2331	0.673
11.2664	0.689
11.2997	0.65
11.333	0.68
11.3663	0.762
11.3996	0.778
11.4329	0.807
11.4662	0.814
11.4995	0.824
11.5328	0.829
11.566	0.833
11.5993	0.835
11.6326	0.837
11.6659	0.834
11.6992	0.825
11.7325	0.79
11.7658	0.778
11.7991	0.765
11.8324	0.75
11.8657	0.746
11.899	0.758
11.9323	0.775
11.9656	0.751
11.9989	0.648
12.0321	0.558
12.0654	0.558
12.0987	0.485
12.132	0.318
12.1653	0.317
12.1986	0.472
12.2319	0.624
12.2652	0.721
12.2985	0.764
12.3318	0.79
12.3651	0.819
12.3984	0.821
12.4317	0.81
12.465	0.645
12.4982	0.571
12.5315	0.671
12.5648	0.731
12.5981	0.788
12.6314	0.813
12.6647	0.82
12.698	0.815
12.7313	0.81
12.7646	0.824
12.7979	0.84
12.8312	0.843
12.8645	0.843
12.8978	0.845
12.9311	0.848
12.9643	0.825
12.9976	0.747
13.0309	0.567
13.0642	0.391
13.0975	0.3
13.1308	0.278
13.1641	0.303
13.1974	0.366
13.2307	0.499
13.264	0.604
13.2973	0.655
13.3306	0.686
13.3639	0.706
13.3972	0.717
13.4304	0.701
13.4637	0.623
13.497	0.611
13.5303	0.64
13.5636	0.703
13.5969	0.747
13.6302	0.793
13.6635	0.812
13.6968	0.828
13.7301	0.843
13.7634	0.845
13.7967	0.85
13.83	0.852
13.8633	0.856
13.8965	0.858
13.9298	0.863
13.9631	0.859
13.9964	0.852
14.0297	0.845
14.063	0.795
14.0963	0.749
14.1296	0.636
14.1629	0.476
14.1962	0.302
14.2295	0.202
14.2628	0.142
14.2961	0.156
14.3294	0.287
14.3626	0.428
14.3959	0.497
14.4292	0.558
14.4625	0.573
14.4958	0.592
14.5291	0.613
14.5624	0.633
14.5957	0.659
14.629	0.686
14.6623	0.718
14.6956	0.738
14.7289	0.743
14.7622	0.743
14.7955	0.74
14.8287	0.733
14.862	0.731
14.8953	0.722
14.9286	0.701
14.9619	0.688
14.9952	0.673
15.0285	0.491
15.0618	0.336
15.0951	0.299
15.1284	0.312
15.1617	0.423
15.195	0.525
15.2283	0.549
