Infrared Spectrum: 5-Chloro-3-phenyl-2,1-benzisoxazole
Formula: C 13 H 8 Cl N O
CAS: 719-64-2
State: gas
Origin: EPA-IR VAPOR PHASE LIBRARY
1/CM	ABSORBANCE
549.8	0.002601
559.445	0.001711
569.09	0.002151
578.734	0.002241
588.379	0.001511
598.024	0.0005513
607.669	0.0004788
617.313	0.0008439
626.958	0.0008785
636.603	0.0011113
646.248	0.001611
655.893	0.005981
665.537	0.011801
675.182	0.005261
684.827	0.008241
694.472	0.008201
704.116	0.004191
713.761	0.004061
723.406	0.005241
733.051	0.006301
742.695	0.004531
752.34	0.004021
761.985	0.012211
771.63	0.021351
781.275	0.009001
790.919	0.004601
800.564	0.011891
810.209	0.008141
819.854	0.001701
829.498	0.001331
839.143	0.001851
848.788	0.003721
858.433	0.002981
868.078	0.001441
877.722	0.0011858
887.367	0.0011216
897.012	0.001541
906.657	0.002571
916.301	0.005531
925.946	0.011811
935.591	0.005831
945.236	0.002061
954.88	0.001601
964.525	0.0013112
974.17	0.002371
983.815	0.002421
993.46	0.001461
1003.1	0.001521
1012.75	0.001215
1022.39	0.002221
1032.04	0.002341
1041.68	0.004271
1051.33	0.009011
1060.97	0.004871
1070.62	0.001951
1080.26	0.0005213
1089.91	0.0010893
1099.55	0.0009682
1109.2	0.0005454
1118.84	0.0010512
1128.49	0.0011189
1138.13	0.002501
1147.78	0.002281
1157.42	0.0009108
1167.07	0.0012919
1176.71	0.001411
1186.36	0.003871
1196	0.007281
1205.64	0.005001
1215.29	0.002131
1224.93	0.002041
1234.58	0.002621
1244.22	0.003641
1253.87	0.009471
1263.51	0.003861
1273.16	0.001971
1282.8	0.001401
1292.45	0.0010518
1302.09	0.0009655
1311.74	0.001391
1321.38	0.001351
1331.03	0.001441
1340.67	0.002451
1350.32	0.004561
1359.96	0.003571
1369.61	0.001511
1379.25	0.0012646
1388.9	0.0010992
1398.54	0.0011064
1408.18	0.001661
1417.83	0.003341
1427.47	0.006951
1437.12	0.006781
1446.76	0.005231
1456.41	0.007011
1466.05	0.005901
1475.7	0.003181
1485.34	0.005931
1494.99	0.014571
1504.63	0.008221
1514.28	0.008281
1523.92	0.005091
1533.57	0.003971
1543.21	0.009721
1552.86	0.012361
1562.5	0.003271
1572.15	0.002001
1581.79	0.001801
1591.44	0.001661
1601.08	0.001871
1610.73	0.001471
1620.37	0.002161
1630.01	0.004201
1639.66	0.003821
1649.3	0.002041
1658.95	0.0012358
1668.59	0.0012888
1678.24	0.001591
1687.88	0.001571
1697.53	0.001911
1707.17	0.001581
1716.82	0.0011402
1726.46	0.0010319
1736.11	0.0009422
1745.75	0.001421
1755.4	0.001581
1765.04	0.0011054
1774.69	0.0010491
1784.33	0.0008691
1793.98	0.0012116
1803.62	0.001193
1813.27	0.0009995
1822.91	0.0010469
1832.55	0.0009966
1842.2	0.0008439
1851.84	0.0008306
1861.49	0.0007853
1871.13	0.0009832
1880.78	0.0011239
1890.42	0.0012139
1900.07	0.001421
1909.71	0.001461
1919.36	0.0009047
1929	0.0008938
1938.65	0.0010546
1948.29	0.0011043
1957.94	0.0012448
1967.58	0.0011816
1977.23	0.0007427
1986.87	0.0007749
1996.52	0.0006646
2006.16	0.0006057
2015.81	0.0006363
2025.45	0.0005973
2035.1	0.0006207
2044.74	0.000732
2054.38	0.0005428
2064.03	0.0006514
2073.67	0.0005808
2083.32	0.0005683
2092.96	0.0006128
2102.61	0.00068
2112.25	0.0006905
2121.9	0.0005769
2131.54	0.0006089
2141.19	0.0005939
2150.83	0.0005441
2160.48	0.0006164
2170.12	0.0005744
2179.77	0.00063
2189.41	0.0005634
2199.06	0.0005401
2208.7	0.0004697
2218.35	0.0005746
2227.99	0.000593
2237.64	0.0005996
2247.28	0.0004782
2256.92	0.0006944
2266.57	0.000721
2276.21	0.0007648
2285.86	0.0008045
2295.5	0.0007252
2305.15	0.0006641
2314.79	0.0006887
2324.44	0.0006776
2334.08	0.0006592
2343.73	0.0007824
2353.37	0.0006275
2363.02	0.0005539
2372.66	0.0007498
2382.31	0.0007003
2391.95	0.0007088
2401.6	0.0006002
2411.24	0.0005317
2420.89	0.0005052
2430.53	0.0006053
2440.18	0.0005526
2449.82	0.000638
2459.47	0.0005116
2469.11	0.000608
2478.75	0.0005966
2488.4	0.0005609
2498.04	0.0007257
2507.69	0.0006433
2517.33	0.0005815
2526.98	0.0006267
2536.62	0.000649
2546.27	0.000621
2555.91	0.0006992
2565.56	0.0007692
2575.2	0.0006306
2584.85	0.0005922
2594.49	0.0007262
2604.14	0.000723
2613.78	0.0004854
2623.43	0.0005074
2633.07	0.0005881
2642.72	0.0005922
2652.36	0.000616
2662.01	0.0006816
2671.65	0.00069
2681.29	0.0006428
2690.94	0.0006564
2700.58	0.0005763
2710.23	0.000532
2719.87	0.0004991
2729.52	0.000442
2739.16	0.0005295
2748.81	0.0004563
2758.45	0.0006652
2768.1	0.0006996
2777.74	0.0006355
2787.39	0.0006347
2797.03	0.0005232
2806.68	0.0005731
2816.32	0.0005636
2825.97	0.0005801
2835.61	0.0004899
2845.26	0.0005779
2854.9	0.0006396
2864.55	0.0005594
2874.19	0.000641
2883.84	0.0006355
2893.48	0.0006989
2903.12	0.0006321
2912.77	0.0006308
2922.41	0.0005936
2932.06	0.000517
2941.7	0.0006464
2951.35	0.000604
2960.99	0.0005504
2970.64	0.0005852
2980.28	0.0007164
2989.93	0.0007619
2999.57	0.0010389
3009.22	0.0010497
3018.86	0.0013187
3028.51	0.001781
3038.15	0.002211
3047.8	0.002331
3057.44	0.003701
3067.09	0.006071
3076.73	0.006541
3086.38	0.005501
3096.02	0.003781
3105.67	0.002371
3115.31	0.001491
3124.95	0.0011358
3134.6	0.0008103
3144.24	0.0007392
3153.89	0.0007578
3163.53	0.0007889
3173.18	0.0005707
3182.82	0.0005088
3192.47	0.0005582
3202.11	0.0005681
3211.76	0.0004981
3221.4	0.0006889
3231.05	0.0005737
3240.69	0.00037465
3250.34	0.0005591
3259.98	0.0004997
3269.63	0.000541
3279.27	0.00032384
3288.92	0.0003203
3298.56	0.0004649
3308.21	0.0005524
3317.85	0.00041883
3327.49	0.00041881
3337.14	0.0005219
3346.78	0.0004343
3356.43	0.0002946
3366.07	0.0005477
3375.72	0.0004923
3385.36	0.00037523
3395.01	0.0005429
3404.65	0.0004427
3414.3	0.0005333
3423.94	0.00038304
3433.59	0.00042739
3443.23	0.0006509
3452.88	0.0005054
3462.52	0.00037397
3472.17	0.00042566
3481.81	0.0005101
3491.46	0.0007251
3501.1	0.0005991
3510.75	0.0002934
3520.39	0.00039746
3530.04	0.0005134
3539.68	0.0004786
3549.32	0.00042346
3558.97	0.0006594
3568.61	0.00034573
3578.26	0.00036138
3587.9	0.0004544
3597.55	0.0005833
3607.19	0.00039568
3616.84	0.0003017
3626.48	0.00041718
3636.13	0.00038024
3645.77	0.0006393
3655.42	0.0006342
3665.06	0.0004355
3674.71	0.0004389
3684.35	0.0004777
3694	0.00040785
3703.64	0.0005313
3713.29	0.00036467
3722.93	0.00039387
3732.58	0.0002595
3742.22	0.0004379
3751.86	0.00041326
3761.51	0.00041137
3771.15	0.0004735
3780.8	0.0005933
3790.44	0.0004468
3800.09	0.000564
3809.73	0.0005007
3819.38	0.0005555
3829.02	0.00041945
3838.67	0.000335365
3848.31	0.00039692
3857.96	0.0004961
3867.6	0.0005498
3877.25	0.0004375
3886.89	0.00038813
3896.54	0.00043063
3906.18	0.0004898
3915.83	0.0002858
3925.47	0.0005041
3935.12	0.0005354
3944.76	0.00041526
3954.41	0.00040834
3964.05	0.00035118
3973.69	0.000452
3983.34	0.0005472
3992.98	0.0007483
