Infrared Spectrum: 2,3-Cycloheptenopyridine
Formula: C 10 H 13 N
CAS: 7197-96-8
State: gas
Origin: EPA-IR VAPOR PHASE LIBRARY
1/CM	ABSORBANCE
549.8	0.00108
559.445	0.00183
569.09	0.00362
578.734	0.00855
588.379	0.01059
598.024	0.00572
607.669	0.00314
617.313	0.00246
626.958	0.00166
636.603	0.00158
646.248	0.0011
655.893	0.00133
665.537	0.00172
675.182	0.00252
684.827	0.00504
694.472	0.00644
704.116	0.0058
713.761	0.00432
723.406	0.00455
733.051	0.00797
742.695	0.01507
752.34	0.03467
761.985	0.06221
771.63	0.05315
781.275	0.04811
790.919	0.05973
800.564	0.03749
810.209	0.01532
819.854	0.00665
829.498	0.00723
839.143	0.00795
848.788	0.00475
858.433	0.0043
868.078	0.00445
877.722	0.00396
887.367	0.00353
897.012	0.00487
906.657	0.00935
916.301	0.01018
925.946	0.01068
935.591	0.01199
945.236	0.02376
954.88	0.03304
964.525	0.02269
974.17	0.00782
983.815	0.00288
993.46	0.00222
1003.1	0.00371
1012.75	0.00466
1022.39	0.00505
1032.04	0.00266
1041.68	0.00313
1051.33	0.00397
1060.97	0.00581
1070.62	0.01359
1080.26	0.0248
1089.91	0.02647
1099.55	0.01698
1109.2	0.00813
1118.84	0.00337
1128.49	0.00501
1138.13	0.00973
1147.78	0.01507
1157.42	0.01564
1167.07	0.0112
1176.71	0.0084
1186.36	0.01508
1196	0.01501
1205.64	0.00698
1215.29	0.00719
1224.93	0.01513
1234.58	0.01537
1244.22	0.00898
1253.87	0.00767
1263.51	0.00887
1273.16	0.00794
1282.8	0.00777
1292.45	0.00599
1302.09	0.00397
1311.74	0.00294
1321.38	0.00409
1331.03	0.00624
1340.67	0.00941
1350.32	0.01704
1359.96	0.01614
1369.61	0.00768
1379.25	0.00547
1388.9	0.00658
1398.54	0.00789
1408.18	0.01204
1417.83	0.03097
1427.47	0.09395
1437.12	0.15875
1446.76	0.1592
1456.41	0.13293
1466.05	0.0804
1475.7	0.02663
1485.34	0.0108
1494.99	0.00698
1504.63	0.00493
1514.28	0.00391
1523.92	0.00411
1533.57	0.00577
1543.21	0.01008
1552.86	0.02082
1562.5	0.04422
1572.15	0.06722
1581.79	0.06639
1591.44	0.03434
1601.08	0.01493
1610.73	0.00738
1620.37	0.00398
1630.01	0.00283
1639.66	0.00222
1649.3	0.00221
1658.95	0.00234
1668.59	0.00219
1678.24	0.00204
1687.88	0.00218
1697.53	0.00268
1707.17	0.0028
1716.82	0.00353
1726.46	0.00395
1736.11	0.00314
1745.75	0.00204
1755.4	0.00201
1765.04	0.00186
1774.69	0.00162
1784.33	0.00111
1793.98	0.00117
1803.62	0.00112
1813.27	0.0013
1822.91	0.00122
1832.55	0.00147
1842.2	0.00183
1851.84	0.00272
1861.49	0.00369
1871.13	0.00393
1880.78	0.00416
1890.42	0.00526
1900.07	0.00528
1909.71	0.00407
1919.36	0.00439
1929	0.0064
1938.65	0.00504
1948.29	0.00165
1957.94	0.00115
1967.58	0.00103
1977.23	0.0011
1986.87	0.00118
1996.52	0.0008284
2006.16	0.0008318
2015.81	0.0008758
2025.45	0.00111
2035.1	0.0011
2044.74	0.000743
2054.38	0.00087
2064.03	0.0006606
2073.67	0.0008554
2083.32	0.0007451
2092.96	0.0009801
2102.61	0.0009852
2112.25	0.00126
2121.9	0.0018
2131.54	0.00222
2141.19	0.00254
2150.83	0.00215
2160.48	0.00197
2170.12	0.00167
2179.77	0.00116
2189.41	0.0014
2199.06	0.00156
2208.7	0.0014
2218.35	0.00158
2227.99	0.00176
2237.64	0.00222
2247.28	0.00244
2256.92	0.00226
2266.57	0.00198
2276.21	0.00199
2285.86	0.0016
2295.5	0.00182
2305.15	0.00169
2314.79	0.00164
2324.44	0.00126
2334.08	0.00143
2343.73	0.00155
2353.37	0.00123
2363.02	0.00123
2372.66	0.00143
2382.31	0.00132
2391.95	0.00148
2401.6	0.00164
2411.24	0.00167
2420.89	0.00187
2430.53	0.00175
2440.18	0.0017
2449.82	0.00189
2459.47	0.00169
2469.11	0.00185
2478.75	0.00167
2488.4	0.0016
2498.04	0.00159
2507.69	0.00191
2517.33	0.00191
2526.98	0.00199
2536.62	0.00211
2546.27	0.00184
2555.91	0.00186
2565.56	0.00176
2575.2	0.0018
2584.85	0.00167
2594.49	0.0023
2604.14	0.00236
2613.78	0.00297
2623.43	0.00303
2633.07	0.00298
2642.72	0.00335
2652.36	0.00436
2662.01	0.00546
2671.65	0.0066
2681.29	0.00783
2690.94	0.00842
2700.58	0.00775
2710.23	0.00565
2719.87	0.00388
2729.52	0.0029
2739.16	0.00274
2748.81	0.0032
2758.45	0.00384
2768.1	0.00506
2777.74	0.00626
2787.39	0.00818
2797.03	0.00934
2806.68	0.0112
2816.32	0.01249
2825.97	0.0158
2835.61	0.02815
2845.26	0.0648
2854.9	0.13483
2864.55	0.1495
2874.19	0.10503
2883.84	0.07323
2893.48	0.07482
2903.12	0.09995
2912.77	0.16966
2922.41	0.37014
2932.06	0.60148
2941.7	0.43677
2951.35	0.17345
2960.99	0.08953
2970.64	0.06335
2980.28	0.03703
2989.93	0.02528
2999.57	0.03008
3009.22	0.03512
3018.86	0.03656
3028.51	0.03882
3038.15	0.05077
3047.8	0.07104
3057.44	0.07614
3067.09	0.06912
3076.73	0.04922
3086.38	0.01805
3096.02	0.00573
3105.67	0.00418
3115.31	0.00423
3124.95	0.00559
3134.6	0.00663
3144.24	0.00679
3153.89	0.00533
3163.53	0.00395
3173.18	0.00363
3182.82	0.00281
3192.47	0.00209
3202.11	0.00148
3211.76	0.0008593
3221.4	0.00128
3231.05	0.00107
3240.69	0.00138
3250.34	0.00129
3259.98	0.00149
3269.63	0.00123
3279.27	0.0009157
3288.92	0.00114
3298.56	0.0009719
3308.21	0.00102
3317.85	0.0005074
3327.49	0.000994
3337.14	0.001
3346.78	0.00107
3356.43	0.0009801
3366.07	0.0008035
3375.72	0.00147
3385.36	0.00114
3395.01	0.0007064
3404.65	0.0006776
3414.3	0.0007638
3423.94	0.00102
3433.59	0.000972
3443.23	0.0017
3452.88	0.00141
3462.52	0.0009228
3472.17	0.00103
3481.81	0.0006288
3491.46	0.0008588
3501.1	0.0009684
3510.75	0.0008994
3520.39	0.0007106
3530.04	0.0006824
3539.68	0.0001513
3549.32	0.0005563
3558.97	0.0003936
3568.61	0.0009001
3578.26	0.0003671
3587.9	0.000368
3597.55	0.000704
3607.19	0.0006275
3616.84	0.0009922
3626.48	0.0008718
3636.13	0.0006549
3645.77	0.0007645
3655.42	0.0007874
3665.06	0.00127
3674.71	0.00113
3684.35	0.00115
3694	0.0009273
3703.64	0.0009532
3713.29	0.000709
3722.93	0.0009926
3732.58	0.0011
3742.22	0.00102
3751.86	0.0007485
3761.51	0.0009818
3771.15	0.0008706
3780.8	0.00112
3790.44	0.0008147
3800.09	0.00128
3809.73	0.00129
3819.38	0.00121
3829.02	0.00107
3838.67	0.00143
3848.31	0.00144
3857.96	0.00184
3867.6	0.00204
3877.25	0.00248
3886.89	0.00184
3896.54	0.00183
3906.18	0.00104
3915.83	0.00126
3925.47	0.00133
3935.12	0.00169
3944.76	0.00116
3954.41	0.00174
3964.05	0.00151
3973.69	0.00181
3983.34	0.00201
3992.98	0.00192
