Infrared Spectrum: 2,3,4-Trimethoxybenzyl alcohol
Formula: C 10 H 14 O 4
CAS: 71989-96-3
State: gas
Origin: EPA-IR VAPOR PHASE LIBRARY
1/CM	ABSORBANCE
549.8	0.0008076
559.445	0.00101
569.09	0.00121
578.734	0.0008927
588.379	0.00113
598.024	0.00158
607.669	0.00131
617.313	0.0013
626.958	0.0014
636.603	0.00147
646.248	0.00195
655.893	0.00262
665.537	0.00316
675.182	0.00363
684.827	0.00368
694.472	0.00273
704.116	0.00197
713.761	0.00131
723.406	0.0014
733.051	0.00203
742.695	0.00256
752.34	0.00237
761.985	0.00198
771.63	0.00207
781.275	0.00351
790.919	0.00625
800.564	0.00806
810.209	0.00709
819.854	0.00521
829.498	0.00285
839.143	0.00154
848.788	0.00146
858.433	0.0016
868.078	0.00178
877.722	0.00288
887.367	0.005
897.012	0.00666
906.657	0.00506
916.301	0.00403
925.946	0.00469
935.591	0.00567
945.236	0.00609
954.88	0.007
964.525	0.00863
974.17	0.0098
983.815	0.0117
993.46	0.0166
1003.1	0.02821
1012.75	0.04341
1022.39	0.04877
1032.04	0.03398
1041.68	0.02427
1051.33	0.02315
1060.97	0.02256
1070.62	0.02522
1080.26	0.03606
1089.91	0.04422
1099.55	0.04896
1109.2	0.04377
1118.84	0.02397
1128.49	0.01215
1138.13	0.00932
1147.78	0.0106
1157.42	0.01553
1167.07	0.01675
1176.71	0.01489
1186.36	0.0164
1196	0.01937
1205.64	0.0175
1215.29	0.01482
1224.93	0.0181
1234.58	0.02207
1244.22	0.02214
1253.87	0.02516
1263.51	0.02943
1273.16	0.03564
1282.8	0.04428
1292.45	0.04407
1302.09	0.0301
1311.74	0.01739
1321.38	0.01082
1331.03	0.00796
1340.67	0.00689
1350.32	0.00677
1359.96	0.00786
1369.61	0.01009
1379.25	0.01292
1388.9	0.0153
1398.54	0.01742
1408.18	0.02473
1417.83	0.03306
1427.47	0.02574
1437.12	0.01909
1446.76	0.01809
1456.41	0.0273
1466.05	0.03991
1475.7	0.03534
1485.34	0.03614
1494.99	0.03964
1504.63	0.01727
1514.28	0.00705
1523.92	0.0049
1533.57	0.00415
1543.21	0.00391
1552.86	0.00404
1562.5	0.00492
1572.15	0.00704
1581.79	0.01057
1591.44	0.01577
1601.08	0.01691
1610.73	0.01012
1620.37	0.0049
1630.01	0.00303
1639.66	0.00236
1649.3	0.00167
1658.95	0.00136
1668.59	0.00126
1678.24	0.0012
1687.88	0.00107
1697.53	0.00146
1707.17	0.00143
1716.82	0.0012
1726.46	0.000997
1736.11	0.0007958
1745.75	0.0008019
1755.4	0.0008047
1765.04	0.0007991
1774.69	0.0006795
1784.33	0.0006745
1793.98	0.0006768
1803.62	0.0006667
1813.27	0.0007497
1822.91	0.0008948
1832.55	0.00102
1842.2	0.000991
1851.84	0.00103
1861.49	0.0009273
1871.13	0.0008069
1880.78	0.0007112
1890.42	0.000866
1900.07	0.0008867
1909.71	0.00108
1919.36	0.00117
1929	0.00132
1938.65	0.00137
1948.29	0.00138
1957.94	0.00135
1967.58	0.00125
1977.23	0.00131
1986.87	0.00128
1996.52	0.00129
2006.16	0.00126
2015.81	0.00132
2025.45	0.0013
2035.1	0.00121
2044.74	0.00109
2054.38	0.0009527
2064.03	0.0008407
2073.67	0.0008626
2083.32	0.0008076
2092.96	0.0009175
2102.61	0.0009628
2112.25	0.0009816
2121.9	0.00109
2131.54	0.0009866
2141.19	0.0009163
2150.83	0.0008293
2160.48	0.000826
2170.12	0.0008564
2179.77	0.0008854
2189.41	0.0007341
2199.06	0.0007942
2208.7	0.0007181
2218.35	0.0007508
2227.99	0.0006824
2237.64	0.0005407
2247.28	0.0005944
2256.92	0.000483
2266.57	0.0004011
2276.21	0.0004281
2285.86	0.0004865
2295.5	0.0005698
2305.15	0.0004973
2314.79	0.0004906
2324.44	0.0004996
2334.08	0.0003501
2343.73	0.0006001
2353.37	0.0005504
2363.02	0.000677
2372.66	0.0006091
2382.31	0.0006511
2391.95	0.0007246
2401.6	0.0007852
2411.24	0.0005915
2420.89	0.0006125
2430.53	0.0007052
2440.18	0.0006489
2449.82	0.0006507
2459.47	0.0007234
2469.11	0.0007664
2478.75	0.0007314
2488.4	0.0007507
2498.04	0.0008018
2507.69	0.0008719
2517.33	0.0009516
2526.98	0.0008944
2536.62	0.000819
2546.27	0.0008502
2555.91	0.00073
2565.56	0.0008559
2575.2	0.0009029
2584.85	0.0007958
2594.49	0.0007367
2604.14	0.0008614
2613.78	0.0008354
2623.43	0.0007471
2633.07	0.0008269
2642.72	0.0008376
2652.36	0.0007529
2662.01	0.0006989
2671.65	0.0007249
2681.29	0.0007103
2690.94	0.0008181
2700.58	0.0008372
2710.23	0.0008612
2719.87	0.0008107
2729.52	0.0009815
2739.16	0.00108
2748.81	0.00119
2758.45	0.00115
2768.1	0.00148
2777.74	0.00165
2787.39	0.00195
2797.03	0.00243
2806.68	0.00341
2816.32	0.00542
2825.97	0.00931
2835.61	0.01501
2845.26	0.01611
2854.9	0.01299
2864.55	0.01182
2874.19	0.01335
2883.84	0.01534
2893.48	0.01546
2903.12	0.01517
2912.77	0.01609
2922.41	0.01809
2932.06	0.02363
2941.7	0.03474
2951.35	0.0354
2960.99	0.02635
2970.64	0.02079
2980.28	0.01739
2989.93	0.0166
2999.57	0.01856
3009.22	0.01612
3018.86	0.01021
3028.51	0.00767
3038.15	0.00665
3047.8	0.00571
3057.44	0.00535
3067.09	0.00488
3076.73	0.00459
3086.38	0.00421
3096.02	0.00322
3105.67	0.0023
3115.31	0.0015
3124.95	0.00135
3134.6	0.00107
3144.24	0.001
3153.89	0.0007788
3163.53	0.0008286
3173.18	0.0006033
3182.82	0.0005977
3192.47	0.0004596
3202.11	0.000416
3211.76	0.0004075
3221.4	0.0004395
3231.05	0.0004207
3240.69	0.0004403
3250.34	0.00033
3259.98	0.0003039
3269.63	0.0003148
3279.27	0.0003623
3288.92	0.0004534
3298.56	0.000202
3308.21	0.000311
3317.85	0.000279
3327.49	0.0002734
3337.14	0.000122
3346.78	0.0003033
3356.43	0.0002628
3366.07	0.0003868
3375.72	0.0003403
3385.36	0.000395
3395.01	0.0003833
3404.65	0.0002754
3414.3	0.0004082
3423.94	0.0002394
3433.59	0.0002695
3443.23	0.0004598
3452.88	0.0004598
3462.52	0.0002873
3472.17	0.0003313
3481.81	0.000188
3491.46	0.0003687
3501.1	0.0005079
3510.75	0.0004489
3520.39	0.0003737
3530.04	0.0003628
3539.68	0.0005137
3549.32	0.0004833
3558.97	0.0006757
3568.61	0.0007109
3578.26	0.0006537
3587.9	0.0007633
3597.55	0.0008084
3607.19	0.00133
3616.84	0.00202
3626.48	0.00274
3636.13	0.00251
3645.77	0.00286
3655.42	0.00298
3665.06	0.00245
3674.71	0.00182
3684.35	0.00157
3694	0.00104
3703.64	0.0006597
3713.29	0.0007457
3722.93	0.0006007
3732.58	0.00039
3742.22	0.0003784
3751.86	0.0004407
3761.51	0.0005218
3771.15	0.0004325
3780.8	0.0004638
3790.44	0.0005178
3800.09	0.0003667
3809.73	0.00044
3819.38	0.0004896
3829.02	0.000516
3838.67	0.0004606
3848.31	0.0003534
3857.96	0.0005248
3867.6	0.000518
3877.25	0.0003992
3886.89	0.0003381
3896.54	0.0003375
3906.18	0.0003934
3915.83	0.0003534
3925.47	0.0003005
3935.12	0.0004268
3944.76	0.0005607
3954.41	0.000577
3964.05	0.0005088
3973.69	0.0004204
3983.34	0.0002588
3992.98	0.000382
