Infrared Spectrum: L-VALINE
Formula: C5 H11 N O2
CAS: 72-18-4
State: SOLID (KBr DISC)
Melting point: 315 C
Class: COBLENTZ III
Instrument: PERKIN-ELMER 21 (GRATING)
Instrument parameters: FILTER AT ABOUT 10 MICRONS
Sampling: TRANSMISSION
Resolution: 2
1/CM	TRANSMITTANCE
4000	0.9001
3991	0.9008
3982	0.9015
3973	0.9021
3964	0.9028
3955	0.9033
3946	0.9037
3937	0.9042
3928	0.9046
3919	0.9049
3910	0.9054
3901	0.9059
3892	0.9064
3883	0.9068
3874	0.9074
3865	0.9078
3856	0.9084
3847	0.9089
3838	0.9093
3829	0.9096
3820	0.91
3811	0.9104
3802	0.9108
3793	0.9111
3784	0.9111
3775	0.9112
3766	0.9113
3757	0.9114
3748	0.9113
3739	0.9112
3730	0.9112
3721	0.9111
3712	0.911
3703	0.9103
3694	0.9096
3685	0.9087
3676	0.9077
3667	0.9066
3658	0.9056
3649	0.9045
3640	0.9035
3631	0.9024
3622	0.9013
3613	0.9003
3604	0.8987
3595	0.8971
3586	0.8956
3577	0.894
3568	0.8924
3559	0.8908
3550	0.8888
3541	0.8867
3532	0.8848
3523	0.8827
3514	0.8807
3505	0.8783
3496	0.8746
3487	0.871
3478	0.8668
3469	0.8623
3460	0.8575
3451	0.8525
3442	0.8475
3433	0.8428
3424	0.8393
3415	0.8357
3406	0.8321
3397	0.8274
3388	0.8214
3379	0.8153
3370	0.8089
3361	0.7999
3352	0.7908
3343	0.7817
3334	0.7725
3325	0.7634
3316	0.7538
3307	0.7375
3298	0.7221
3289	0.7081
3280	0.6954
3271	0.6824
3262	0.6587
3253	0.6367
3244	0.6239
3235	0.6014
3226	0.5721
3217	0.5426
3208	0.513
3199	0.4894
3190	0.474
3181	0.456
3172	0.4345
3163	0.4048
3154	0.3755
3145	0.3622
3136	0.36
3127	0.3588
3118	0.3568
3109	0.3523
3100	0.3462
3091	0.3394
3082	0.3288
3073	0.3141
3064	0.3041
3055	0.2968
3046	0.2922
3037	0.2876
3028	0.2831
3019	0.2781
3010	0.2717
3001	0.2499
2992	0.2297
2983	0.2019
2974	0.1913
2965	0.1843
2956	0.1811
2947	0.1795
2938	0.179
2929	0.1822
2920	0.1922
2911	0.2034
2902	0.2138
2893	0.2213
2884	0.2284
2875	0.2375
2866	0.2487
2857	0.262
2848	0.2759
2839	0.2879
2830	0.2989
2821	0.3043
2812	0.3117
2803	0.3208
2794	0.3309
2785	0.3388
2776	0.3455
2767	0.35
2758	0.3543
2749	0.3582
2740	0.3638
2731	0.3703
2722	0.3748
2713	0.378
2704	0.3795
2695	0.3808
2686	0.3828
2677	0.3894
2668	0.405
2659	0.4122
2650	0.4144
2641	0.4121
2632	0.3959
2623	0.3859
2614	0.383
2605	0.385
2596	0.3898
2587	0.3923
2578	0.3947
2569	0.4012
2560	0.416
2551	0.4326
2542	0.4495
2533	0.4666
2524	0.4852
2515	0.5087
2506	0.5394
2497	0.5605
2488	0.5802
2479	0.5957
2470	0.607
2461	0.6178
2452	0.6309
2443	0.6471
2434	0.6631
2425	0.6705
2416	0.6758
2407	0.6841
2398	0.7011
2389	0.7172
2380	0.7265
2371	0.7317
2362	0.7355
2353	0.74
2344	0.7508
2335	0.7691
2326	0.7883
2317	0.8049
2308	0.8075
2299	0.8098
2290	0.8124
2281	0.8165
2272	0.8239
2263	0.8313
2254	0.8375
2245	0.8437
2236	0.8482
2227	0.8539
2218	0.8601
2209	0.8653
2200	0.8661
2191	0.8615
2182	0.8505
2173	0.8361
2164	0.8162
2155	0.7914
2146	0.7717
2137	0.7508
2128	0.7294
2119	0.7168
2110	0.7134
2101	0.719
2092	0.7321
2083	0.7492
2074	0.7693
2065	0.7918
2056	0.8091
2047	0.8254
2038	0.8401
2029	0.8546
2020	0.8678
2011	0.8789
2002	0.8865
1993	0.8932
1984	0.8978
1975	0.9006
1966	0.9023
1957	0.9041
1948	0.9045
1939	0.9045
1930	0.9041
1921	0.9041
1912	0.9048
1903	0.9068
1894	0.9084
1885	0.9071
1876	0.9032
1867	0.8974
1858	0.8918
1849	0.8886
1840	0.885
1831	0.8784
1822	0.8701
1813	0.8615
1804	0.8538
1795	0.8458
1786	0.8351
1777	0.82
1768	0.8064
1759	0.7925
1750	0.7771
1741	0.7612
1732	0.7419
1723	0.7135
1714	0.6848
1705	0.6499
1696	0.6157
1687	0.5872
1678	0.5409
1669	0.4627
1660	0.4338
1651	0.331
1642	0.2567
1633	0.1944
1624	0.1644
1615	0.1295
1606	0.1503
1597	0.1214
1588	0.0792
1579	0.1254
1570	0.1205
1561	0.1913
1552	0.3647
1543	0.4327
1534	0.356
1525	0.2151
1516	0.1059
1507	0.108
1498	0.2082
1489	0.2991
1480	0.3503
1471	0.3356
1462	0.4026
1453	0.4241
1444	0.4253
1435	0.3686
1426	0.2952
1417	0.4152
1408	0.4307
1399	0.1741
1390	0.2397
1381	0.4377
1372	0.4804
1363	0.5026
1354	0.2978
1345	0.4124
1336	0.3487
1327	0.1922
1318	0.3575
1309	0.4999
1300	0.5945
1291	0.6336
1282	0.6615
1273	0.5449
1264	0.59
1255	0.6836
1246	0.7203
1237	0.7468
1228	0.7644
1219	0.7772
1210	0.781
1201	0.7685
1192	0.5868
1183	0.6621
1174	0.5645
1165	0.6575
1156	0.7311
1147	0.6418
1138	0.5374
1129	0.6228
1120	0.7222
1111	0.7624
1102	0.733
1093	0.7978
1084	0.8078
1075	0.7915
1066	0.5
1057	0.6939
1048	0.7821
1039	0.7114
1030	0.5983
1021	0.7204
1012	0.803
1003	0.8362
994	0.8491
985	0.8618
976	0.8702
967	0.8391
958	0.8585
949	0.6229
940	0.8115
931	0.8033
922	0.7797
913	0.8696
904	0.7264
895	0.7465
886	0.7181
877	0.8451
868	0.8828
859	0.8912
850	0.8151
841	0.8794
832	0.8838
823	0.7315
814	0.8813
805	0.9158
796	0.9156
787	0.9059
778	0.6668
769	0.8305
760	0.8834
751	0.7838
742	0.8931
733	0.8947
724	0.8075
715	0.4246
706	0.7743
697	0.8652
688	0.8946
679	0.8895
670	0.816
