Infrared Spectrum: Endrin
Formula: C 12 H 8 Cl 6 O
CAS: 72-20-8
State: gas
Instrument: HP-GC/MS/IRD
Origin: NIST Mass Spectrometry Data Center
1/CM	ABSORBANCE
550	0.001119
562	0.00252
574	0.001384
586	0.00037
598	0.00029
610	0.000353
622	8.4e-05
634	0
646	0.000123
658	8.5e-05
670	0.000722
682	0.002391
694	0.000682
706	0.001084
718	0.00447
730	0.001825
742	0.003851
754	0.003439
766	0.000643
778	0.00046
790	0.000427
802	0.001142
814	0.000826
826	0.000873
838	0.001366
850	0.00901
862	0.003622
874	0.00169
886	0.003307
898	0.002745
910	0.002812
922	0.000975
934	0.000896
946	0.001218
958	0.001472
970	0.001552
982	0.003551
994	0.001951
1006	0.003107
1018	0.001812
1030	0.002648
1042	0.004692
1054	0.003623
1066	0.002521
1078	0.002285
1090	0.001165
1102	0.001065
1114	0.00134
1126	0.000546
1138	0.000884
1150	0.000529
1162	0.000957
1174	0.002116
1186	0.002321
1198	0.000657
1210	0.00028
1222	0.00062
1234	0.001971
1246	0.001073
1258	0.002274
1270	0.001126
1282	0.000814
1294	0.001862
1306	0.000711
1318	0.000237
1330	0.000178
1342	0.000186
1354	0.00029
1366	0.00071
1378	0.001447
1390	0.000336
1402	0.00025
1414	0.000271
1426	0.000201
1438	0.000224
1450	0.000504
1462	0.001259
1474	0.000326
1486	0.00018
1498	0.000135
1510	8.5e-05
1522	8.4e-05
1534	6.8e-05
1546	7.1e-05
1558	0.000104
1570	0.000272
1582	0.000542
1594	0.002364
1606	0.002186
1618	0.000272
1630	0.000151
1642	0.000116
1654	4.2e-05
1666	0.000123
1678	0.000128
1690	8e-05
1702	8.8e-05
1714	8.1e-05
1726	0.000173
1738	0.00023
1750	0.000147
1762	0.000289
1774	0.000289
1786	0.000155
1798	0.000107
1810	9.9e-05
1822	5.3e-05
1834	6.3e-05
1846	8.1e-05
1858	8.3e-05
1870	5.4e-05
1882	7.5e-05
1894	5e-05
1906	8.4e-05
1918	6.2e-05
1930	6.7e-05
1942	6.1e-05
1954	9.5e-05
1966	0.000106
1978	8.9e-05
1990	9.9e-05
2002	7.4e-05
2014	8.8e-05
2026	4.6e-05
2038	6.1e-05
2050	5.7e-05
2062	8.2e-05
2074	9.7e-05
2086	0.000105
2098	7.9e-05
2110	8.5e-05
2122	8.2e-05
2134	0.000102
2146	0.000115
2158	8.8e-05
2170	0.000109
2182	8.9e-05
2194	9.5e-05
2206	0.0001
2218	9.6e-05
2230	0.000102
2242	0.000105
2254	8.5e-05
2266	9.2e-05
2278	9.4e-05
2290	6.5e-05
2302	7.6e-05
2314	7.8e-05
2326	7.6e-05
2338	7.4e-05
2350	6.2e-05
2362	8.9e-05
2374	8.4e-05
2386	8.4e-05
2398	6.7e-05
2410	8.6e-05
2422	8.1e-05
2434	5.5e-05
2446	4.4e-05
2458	4.1e-05
2470	7e-05
2482	4.3e-05
2494	6.6e-05
2506	8.5e-05
2518	5.5e-05
2530	5e-05
2542	4.9e-05
2554	4.5e-05
2566	3.4e-05
2578	4.3e-05
2590	5.2e-05
2602	2e-05
2614	5.4e-05
2626	1e-06
2638	4.5e-05
2650	3.8e-05
2662	5e-05
2674	7.2e-05
2686	7.5e-05
2698	7e-05
2710	7.9e-05
2722	6.6e-05
2734	7.4e-05
2746	3.2e-05
2758	8.4e-05
2770	5.4e-05
2782	8.4e-05
2794	7e-05
2806	9.3e-05
2818	6.5e-05
2830	9.8e-05
2842	0.00012
2854	0.000132
2866	0.000103
2878	0.000171
2890	0.000435
2902	0.000478
2914	0.000242
2926	0.000218
2938	0.000327
2950	0.000594
2962	0.002126
2974	0.0029
2986	0.00615
2998	0.000666
3010	0.000339
3022	0.001181
3034	0.000647
3046	0.000157
3058	0.000259
3070	0.000756
3082	0.00049
3094	0.000128
3106	4.9e-05
3118	0.000105
3130	8.3e-05
3142	7.3e-05
3154	8.5e-05
3166	9.4e-05
3178	0.000124
3190	7e-05
3202	6.9e-05
3214	7.4e-05
3226	2.9e-05
3238	9.3e-05
3250	5.5e-05
3262	6.7e-05
3274	6.4e-05
3286	5.3e-05
3298	5.5e-05
3310	1.4e-05
3322	4.7e-05
3334	8.5e-05
3346	6e-05
3358	6.5e-05
3370	0.000115
3382	6.6e-05
3394	5e-05
3406	1.2e-05
3418	0.000107
3430	2.2e-05
3442	8e-05
3454	2.5e-05
3466	4.7e-05
3478	8.9e-05
3490	9.2e-05
3502	9.9e-05
3514	6.8e-05
3526	7.5e-05
3538	3.2e-05
3550	5.5e-05
3562	3.9e-05
3574	7.7e-05
3586	9.9e-05
3598	9e-05
3610	9.2e-05
3622	7.2e-05
3634	7.1e-05
3646	4.5e-05
3658	2e-06
3670	9e-05
3682	0.000134
3694	6.7e-05
3706	0.00011
3718	8.8e-05
3730	9.3e-05
3742	4.1e-05
3754	7.9e-05
3766	8.4e-05
3778	0.00012
3790	8.5e-05
3802	6.4e-05
3814	9.9e-05
3826	9.4e-05
3838	7.2e-05
