Infrared Spectrum: IMIDAZOLE-4(5)-CARBOXAMIDE, 5-(4)-AMINO-, HYDROCHLORIDE
Formula: C4 H7 Cl N4 O
CAS: 72-40-2
State: SOLID (0.7 mg / 650 mg KBr DISC)
Class: COBLENTZ III
Instrument: PERKIN-ELMER 21 (GRATING)
Instrument parameters: FILTER CHANGE AT ABOUT 1020 CM^-^1
Sampling: TRANSMISSION
Resolution: 2
Origin: SOUTHERN RESEARCH INSTITUTE
1/CM	TRANSMITTANCE
604.943	0.605
613.539	0.602
622.134	0.599
630.73	0.596
639.325	0.5882
647.921	0.5754
656.516	0.5498
665.112	0.5186
673.707	0.4696
682.303	0.4783
690.899	0.5538
699.494	0.5875
708.09	0.5875
716.685	0.5826
725.281	0.5661
733.876	0.5283
742.472	0.4777
751.068	0.4445
759.663	0.5842
768.259	0.4876
776.854	0.3949
785.45	0.3422
794.045	0.2789
802.641	0.3179
811.236	0.4201
819.832	0.5664
828.428	0.7022
837.023	0.7408
845.619	0.751
854.214	0.75
862.81	0.7356
871.405	0.6956
880.001	0.644
888.596	0.629
897.192	0.652
905.788	0.7064
914.383	0.735
922.979	0.7267
931.574	0.6863
940.17	0.6795
948.765	0.7802
957.361	0.795
965.957	0.795
974.552	0.792
983.148	0.7889
991.743	0.779
1000.34	0.772
1008.93	0.7592
1017.53	0.7201
1026.13	0.7539
1034.72	0.754
1043.32	0.754
1051.91	0.752
1060.51	0.743
1069.1	0.7344
1077.7	0.7212
1086.29	0.6695
1094.89	0.612
1103.49	0.6108
1112.08	0.6957
1120.68	0.7194
1129.27	0.7207
1137.87	0.7071
1146.46	0.6326
1155.06	0.6298
1163.65	0.6572
1172.25	0.6286
1180.85	0.6805
1189.44	0.702
1198.04	0.703
1206.63	0.6959
1215.23	0.696
1223.82	0.7026
1232.42	0.714
1241.01	0.7007
1249.61	0.692
1258.21	0.707
1266.8	0.7034
1275.4	0.6918
1283.99	0.687
1292.59	0.6775
1301.18	0.6661
1309.78	0.6556
1318.37	0.6486
1326.97	0.638
1335.57	0.6124
1344.16	0.5838
1352.76	0.5317
1361.35	0.4454
1369.95	0.411
1378.54	0.4345
1387.14	0.3434
1395.73	0.1943
1404.33	0.1738
1412.93	0.3625
1421.52	0.5817
1430.12	0.5917
1438.71	0.5502
1447.31	0.4462
1455.9	0.2153
1464.5	0.1104
1473.09	0.1576
1481.69	0.332
1490.29	0.5238
1498.88	0.598
1507.48	0.5691
1516.07	0.4582
1524.67	0.4772
1533.26	0.5125
1541.86	0.4317
1550.45	0.4183
1559.05	0.3777
1567.65	0.2786
1576.24	0.2524
1584.84	0.3661
1593.43	0.4631
1602.03	0.4044
1610.62	0.2887
1619.22	0.2096
1627.81	0.2208
1636.41	0.2438
1645.01	0.1509
1653.6	0.1083
1662.2	0.1322
1670.79	0.0614
1679.39	0.0685
1687.98	0.0957
1696.58	0.1871
1705.17	0.3536
1713.77	0.5047
1722.37	0.6063
1730.96	0.684
1739.56	0.736
1748.15	0.7674
1756.75	0.7957
1765.34	0.8281
1773.94	0.834
1782.53	0.846
1791.13	0.857
1799.73	0.8648
1808.32	0.8729
1816.92	0.877
1825.51	0.881
1834.11	0.8837
1842.7	0.887
1851.3	0.887
1859.89	0.887
1868.49	0.887
1877.09	0.887
1885.68	0.887
1894.28	0.8851
1902.87	0.882
1911.47	0.8787
1920.06	0.876
1928.66	0.872
1937.25	0.87
1945.85	0.87
1954.45	0.87
1963.04	0.8698
1971.64	0.868
1980.23	0.868
1988.83	0.868
1997.42	0.8651
2006.02	0.861
2014.61	0.86
2023.21	0.857
2031.81	0.855
2040.4	0.852
2049	0.8501
2057.59	0.849
2066.19	0.846
2074.78	0.845
2083.38	0.8412
2091.97	0.839
2100.57	0.8352
2109.17	0.832
2117.76	0.8291
2126.36	0.829
2134.95	0.828
2143.55	0.823
2152.14	0.819
2160.74	0.8131
2169.34	0.8082
2177.93	0.8032
2186.53	0.799
2195.12	0.794
2203.72	0.7872
2212.31	0.7831
2220.91	0.778
2229.5	0.7702
2238.1	0.7641
2246.7	0.7581
2255.29	0.7542
2263.89	0.751
2272.48	0.7461
2281.08	0.7411
2289.67	0.7301
2298.27	0.7191
2306.86	0.708
2315.46	0.707
2324.06	0.704
2332.65	0.704
2341.25	0.6982
2349.84	0.6931
2358.44	0.689
2367.03	0.688
2375.63	0.6762
2384.22	0.6553
2392.82	0.6421
2401.42	0.6312
2410.01	0.6211
2418.61	0.6152
2427.2	0.6132
2435.8	0.613
2444.39	0.6061
2452.99	0.5962
2461.58	0.5853
2470.18	0.5721
2478.78	0.5602
2487.37	0.5402
2495.97	0.5193
2504.56	0.5042
2513.16	0.4645
2521.75	0.4422
2530.35	0.4161
2538.94	0.4063
2547.54	0.3981
2556.14	0.3891
2564.73	0.387
2573.33	0.387
2581.92	0.3761
2590.52	0.3603
2599.11	0.3223
2607.71	0.316
2616.3	0.3101
2624.9	0.3001
2633.5	0.2902
2642.09	0.2791
2650.69	0.2613
2659.28	0.2365
2667.88	0.1981
2676.47	0.1853
2685.07	0.1722
2693.66	0.167
2702.26	0.1641
2710.86	0.1553
2719.45	0.149
2728.05	0.1452
2736.64	0.139
2745.24	0.1321
2753.83	0.1281
2762.43	0.126
2771.02	0.127
2779.62	0.1308
2788.22	0.1418
2796.81	0.1499
2805.41	0.158
2814	0.1649
2822.6	0.1709
2831.19	0.1769
2839.79	0.1848
2848.38	0.189
2856.98	0.1833
2865.58	0.18
2874.17	0.1857
2882.77	0.2014
2891.36	0.2228
2899.96	0.23
2908.55	0.23
2917.15	0.2369
2925.74	0.24
2934.34	0.24
2942.94	0.24
2951.53	0.238
2960.13	0.237
2968.72	0.2342
2977.32	0.2241
2985.91	0.219
2994.51	0.2239
3003.1	0.2378
3011.7	0.2469
3020.3	0.2558
3028.89	0.259
3037.49	0.259
3046.08	0.257
3054.68	0.2588
3063.27	0.262
3071.87	0.264
3080.46	0.2621
3089.06	0.2512
3097.66	0.2324
3106.25	0.2082
3114.85	0.1991
3123.44	0.2018
3132.04	0.205
3140.63	0.2021
3149.23	0.197
3157.82	0.1979
3166.42	0.2
3175.02	0.2156
3183.61	0.2397
3192.21	0.2605
3200.8	0.283
3209.4	0.2999
3217.99	0.3228
3226.59	0.33
3235.18	0.329
3243.78	0.325
3252.38	0.323
3260.97	0.3171
3269.57	0.3053
3278.16	0.2891
3286.76	0.2742
3295.35	0.2583
3303.95	0.2411
3312.54	0.2162
3321.14	0.199
3329.74	0.198
3338.33	0.1971
3346.93	0.1854
3355.52	0.1848
3364.12	0.1967
3372.71	0.2309
3381.31	0.2641
3389.9	0.338
3398.5	0.3824
3407.1	0.4232
3415.69	0.4479
3424.29	0.458
3432.88	0.455
3441.48	0.4461
3450.07	0.4147
3458.67	0.3776
3467.26	0.3172
3475.86	0.3157
3484.46	0.3564
3493.05	0.4233
3501.65	0.5942
3510.24	0.6466
3518.84	0.7035
3527.43	0.725
3536.03	0.7429
3544.62	0.7574
3553.22	0.7857
3561.82	0.7959
3570.41	0.8128
3579.01	0.8276
3587.6	0.834
3596.2	0.8437
3604.79	0.8489
3613.39	0.8519
3621.98	0.8559
3630.58	0.86
3639.18	0.86
3647.77	0.8609
3656.37	0.862
3664.96	0.862
3673.56	0.862
3682.15	0.861
3690.75	0.86
3699.34	0.86
3707.94	0.859
3716.54	0.86
3725.13	0.859
3733.73	0.8591
3742.32	0.8551
3750.92	0.8559
3759.51	0.8569
3768.11	0.8572
3776.7	0.862
3785.3	0.8621
3793.9	0.8601
3802.49	0.857
3811.09	0.851
3819.68	0.85
3828.28	0.85
3836.87	0.85
3845.47	0.85
3854.06	0.8481
3862.66	0.848
3871.26	0.846
3879.85	0.846
3888.45	0.8431
3897.04	0.841
3905.64	0.8383
