Infrared Spectrum: Alizarin
Formula: C 14 H 8 O 4
CAS: 72-48-0
State: gas
Instrument: HP-GC/MS/IRD
Origin: NIST Mass Spectrometry Data Center
1/CM	ABSORBANCE
550	0.0004752
562	5.4e-05
574	0.00036
586	0.0003024
598	0.0002376
610	0.0006444
622	0.0005184
634	0.000198
646	0.0003744
658	0.0013212
670	0.0008676
682	0.0006372
694	0.0006444
706	0.001638
718	0.0039204
730	0.002448
742	0.0028044
754	0.004014
766	0.0022032
778	0.0009
790	0.0005724
802	0.0005004
814	0.0015516
826	0.0030708
838	0.0021672
850	0.0018432
862	0.0005904
874	0.0003564
886	0.0007236
898	0.0009756
910	0.0005112
922	0.0003456
934	0.000324
946	0.0002844
958	0.0004176
970	0.0004608
982	0.0005796
994	0.0012348
1006	0.0041724
1018	0.0026676
1030	0.0012528
1042	0.0012492
1054	0.0005256
1066	0.0001224
1078	0.0003168
1090	0.000216
1102	0.0002772
1114	0.0002376
1126	0.0003024
1138	0.0006624
1150	0.001224
1162	0.0017604
1174	0.002016
1186	0.0042984
1198	0.0054828
1210	0.0022284
1222	0.0025344
1234	0.0032112
1246	0.0051696
1258	0.0132948
1270	0.0238644
1282	0.035892
1294	0.021168
1306	0.0160056
1318	0.015498
1330	0.0108144
1342	0.0074232
1354	0.0026136
1366	0.0017172
1378	0.0015084
1390	0.001674
1402	0.0020808
1414	0.0019512
1426	0.0029952
1438	0.0069876
1450	0.0151524
1462	0.0116856
1474	0.0050688
1486	0.0024804
1498	0.0018792
1510	0.0014184
1522	0.0010764
1534	0.0008316
1546	0.0007344
1558	0.0010584
1570	0.001872
1582	0.0034452
1594	0.005688
1606	0.0048276
1618	0.002682
1630	0.0037008
1642	0.0069192
1654	0.0069228
1666	0.0049104
1678	0.0069444
1690	0.005796
1702	0.0014724
1714	0.0005652
1726	0.0004284
1738	0.0002628
1750	0.0001908
1762	0.000216
1774	0.000198
1786	0.0002232
1798	0.00018
1810	0.0001224
1822	5.76e-05
1834	6.12e-05
1846	5.4e-05
1858	0.000126
1870	0.0001044
1882	0.0001584
1894	0.0001584
1906	0.0002196
1918	0.000108
1930	9.36e-05
1942	0.000162
1954	0.000144
1966	0.000126
1978	0.0001224
1990	9.72e-05
2002	3.24e-05
2014	2.88e-05
2026	5.76e-05
2038	7.92e-05
2050	9e-05
2062	8.28e-05
2074	5.76e-05
2086	5.76e-05
2098	7.92e-05
2110	0.0001044
2122	9.36e-05
2134	2.88e-05
2146	5.4e-05
2158	6.48e-05
2170	0.0001044
2182	5.76e-05
2194	5.76e-05
2206	3.24e-05
2218	4.68e-05
2230	6.48e-05
2242	0.0001008
2254	0.0001044
2266	9.36e-05
2278	0.0001152
2290	8.28e-05
2302	0.000126
2314	0.000108
2326	0.0001188
2338	0.0001188
2350	9.36e-05
2362	7.2e-05
2374	8.28e-05
2386	0.0001332
2398	0.000144
2410	0.0001404
2422	0.00018
2434	0.0001692
2446	0.0001872
2458	0.0001944
2470	0.0002088
2482	0.00027
2494	0.000306
2506	0.0003096
2518	0.000288
2530	0.0002988
2542	0.0002952
2554	0.0002088
2566	0.0002268
2578	0.0002592
2590	0.00027
2602	0.0003168
2614	0.0003384
2626	0.0003636
2638	0.000342
2650	0.000324
2662	0.0004104
2674	0.0004392
2686	0.0004536
2698	0.000486
2710	0.00045
2722	0.0004824
2734	0.0005328
2746	0.0004932
2758	0.0004788
2770	0.0004608
2782	0.0004248
2794	0.0005184
2806	0.0004896
2818	0.0004356
2830	0.00045
2842	0.0004572
2854	0.0004752
2866	0.0005436
2878	0.000522
2890	0.0005544
2902	0.0006228
2914	0.0005976
2926	0.000594
2938	0.0006084
2950	0.0006516
2962	0.0006732
2974	0.000774
2986	0.0008172
2998	0.000882
3010	0.0009108
3022	0.0009036
3034	0.0009792
3046	0.0010332
3058	0.0011412
3070	0.0017352
3082	0.002484
3094	0.0010368
3106	0.0008748
3118	0.0007776
3130	0.00072
3142	0.0008532
3154	0.0008244
3166	0.0008712
3178	0.0008028
3190	0.0007884
3202	0.0007776
3214	0.0007272
3226	0.0007812
3238	0.000684
3250	0.0005652
3262	0.0006336
3274	0.0006156
3286	0.0005796
3298	0.000612
3310	0.0005148
3322	0.0005184
3334	0.0004608
3346	0.000522
3358	0.0005076
3370	0.0003996
3382	0.0004068
3394	0.0003672
3406	0.0002808
3418	0.0002484
3430	0.000216
3442	0.00027
3454	0.0002052
3466	0.000306
3478	0.0002628
3490	0.0002016
3502	0.0002196
3514	0.0002484
3526	0.0002988
3538	0.0003204
3550	0.0005868
3562	0.0027972
3574	0.0076464
3586	0.0016848
3598	0.000468
3610	0.0002088
3622	0.000234
3634	0.0001152
3646	0.0002196
3658	0.0001332
3670	5.4e-05
3682	0.0001224
3694	9.72e-05
3706	0.0001332
3718	0.0001548
3730	0.0001368
3742	9e-05
3754	9.72e-05
3766	0.0001548
3778	0.0001872
3790	0.0001728
3802	0.0001368
3814	0.0001656
3826	0.0001368
3838	0.0001476
