Infrared Spectrum: PERTHANE
Formula: C18 H20 Cl2
CAS: 72-56-0
State: THIN FILM FROM C2HCl3 SOLUTION
Melting point: 38 C
Class: COBLENTZ III
Instrument: PERKIN-ELMER 180 (GRATING)
Instrument parameters: GRATINGS: 2000, 1000, 500, 250 CM^-^1; FILTER CHANGE: 2970, 2000, 1485, 1000, 743, 500, 372, 250, 186 CM^-^1.
Sampling: TRANSMISSION
Resolution: 2
Origin: K. K. DEB-NCI FREDERICK CANCER RESEARCH CENTER
1/CM	TRANSMITTANCE
379	0.5398
388	0.5769
397	0.6266
406	0.6762
415	0.7259
424	0.7771
433	0.8115
442	0.8256
451	0.8185
460	0.831
469	0.8594
478	0.8689
487	0.8668
496	0.8579
505	0.7998
514	0.7202
523	0.6364
532	0.716
541	0.7941
550	0.7771
559	0.7294
568	0.663
577	0.6929
586	0.6573
595	0.6519
604	0.689
613	0.7802
622	0.7073
631	0.8425
640	0.845
649	0.8495
658	0.7792
667	0.7682
676	0.8097
685	0.8007
694	0.4905
703	0.3691
712	0.4691
721	0.315
730	0.0512
739	0.1136
748	0.3471
757	0.3707
766	0.5159
775	0.4207
784	0.4377
793	0.625
802	0.6419
811	0.4898
820	0.3675
829	0.4414
838	0.5692
847	0.6617
856	0.4921
865	0.7613
874	0.7922
883	0.5422
892	0.8068
901	0.8628
910	0.8808
919	0.8836
928	0.8899
937	0.8768
946	0.8514
955	0.8709
964	0.7944
973	0.7805
982	0.8514
991	0.8655
1000	0.8527
1009	0.8201
1018	0.6426
1027	0.7813
1036	0.7754
1045	0.7659
1054	0.6753
1063	0.6178
1072	0.7982
1081	0.8506
1090	0.8528
1099	0.842
1108	0.8203
1117	0.7147
1126	0.6493
1135	0.8455
1144	0.8673
1153	0.8605
1162	0.8559
1171	0.848
1180	0.7649
1189	0.7196
1198	0.7078
1207	0.7058
1216	0.6457
1225	0.7356
1234	0.7691
1243	0.7675
1252	0.7919
1261	0.7185
1270	0.7173
1279	0.817
1288	0.8218
1297	0.8128
1306	0.8072
1315	0.7902
1324	0.7763
1333	0.7824
1342	0.7942
1351	0.8032
1360	0.8288
1369	0.755
1378	0.7221
1387	0.7847
1396	0.8208
1405	0.8055
1414	0.6253
1423	0.5016
1432	0.6902
1441	0.5985
1450	0.4355
1459	0.4486
1468	0.7077
1477	0.7806
1486	0.7576
1495	0.7371
1504	0.4967
1513	0.1376
1522	0.7794
1531	0.8573
1540	0.8696
1549	0.8839
1558	0.8843
1567	0.8712
1576	0.8432
1585	0.8744
1594	0.8682
1603	0.8239
1612	0.7978
1621	0.8639
1630	0.8734
1639	0.867
1648	0.8567
1657	0.8563
1666	0.8644
1675	0.8717
1684	0.871
1693	0.8759
1702	0.8944
1711	0.8948
1720	0.8949
1729	0.8997
1738	0.8993
1747	0.896
1756	0.893
1765	0.8902
1774	0.8865
1783	0.8685
1792	0.8586
1801	0.8806
1810	0.8937
1819	0.8975
1828	0.8994
1837	0.9005
1846	0.9003
1855	0.8995
1864	0.897
1873	0.8893
1882	0.8705
1891	0.8214
1900	0.7895
1909	0.8373
1918	0.8716
1927	0.8872
1936	0.8943
1945	0.8965
1954	0.8969
1963	0.8981
1972	0.9009
1981	0.902
1990	0.9022
1999	0.9015
2008	0.8998
2017	0.8975
2026	0.8959
2035	0.8949
2044	0.8956
2053	0.8965
2062	0.8973
2071	0.8979
2080	0.8981
2089	0.8983
2098	0.8988
2107	0.8992
2116	0.8993
2125	0.8987
2134	0.8982
2143	0.8968
2152	0.8956
2161	0.8949
2170	0.8948
2179	0.8942
2188	0.8934
2197	0.8924
2206	0.8913
2215	0.8902
2224	0.8892
2233	0.8898
2242	0.8904
2251	0.8909
2260	0.8912
2269	0.8913
2278	0.8904
2287	0.8871
2296	0.8827
2305	0.8796
2314	0.8809
2323	0.8831
2332	0.8849
2341	0.8865
2350	0.8879
2359	0.8873
2368	0.8866
2377	0.8859
2386	0.8845
2395	0.883
2404	0.8816
2413	0.8806
2422	0.8798
2431	0.8813
2440	0.8835
2449	0.8839
2458	0.884
2467	0.8829
2476	0.8814
2485	0.8801
2494	0.8789
2503	0.8778
2512	0.8771
2521	0.8772
2530	0.8773
2539	0.8783
2548	0.8805
2557	0.8801
2566	0.8792
2575	0.8775
2584	0.8754
2593	0.8732
2602	0.8709
2611	0.8686
2620	0.8674
2629	0.8668
2638	0.8695
2647	0.8728
2656	0.8735
2665	0.8726
2674	0.8711
2683	0.8696
2692	0.8694
2701	0.8699
2710	0.8666
2719	0.8578
2728	0.8589
2737	0.8617
2746	0.8619
2755	0.859
2764	0.8547
2773	0.8497
2782	0.8455
2791	0.844
2800	0.8405
2809	0.8284
2818	0.8132
2827	0.7934
2836	0.7653
2845	0.7107
2854	0.5779
2863	0.4254
2872	0.376
2881	0.5223
2890	0.5084
2899	0.5209
2908	0.4638
2917	0.3347
2926	0.2056
2935	0.3622
2944	0.4483
2953	0.2264
2962	0.0451
2971	0.0846
2980	0.2757
2989	0.4668
2998	0.5538
3007	0.4978
3016	0.5186
3025	0.4561
3034	0.6335
3043	0.5961
3052	0.568
3061	0.7234
3070	0.7636
3079	0.7471
3088	0.7326
3097	0.7809
3106	0.8115
3115	0.8086
3124	0.7992
3133	0.8145
3142	0.8274
3151	0.8293
3160	0.8303
3169	0.831
3178	0.8316
3187	0.8321
3196	0.8326
3205	0.8325
3214	0.8324
3223	0.8323
3232	0.8322
3241	0.832
3250	0.8318
3259	0.8317
3268	0.8314
3277	0.8309
3286	0.8305
3295	0.83
3304	0.8295
3313	0.8287
3322	0.8278
3331	0.8269
3340	0.826
3349	0.8251
3358	0.8241
3367	0.823
3376	0.822
3385	0.8209
3394	0.8198
3403	0.8187
3412	0.8177
3421	0.818
3430	0.8186
3439	0.8192
3448	0.8198
3457	0.8204
3466	0.8211
3475	0.822
3484	0.823
3493	0.824
3502	0.825
3511	0.826
3520	0.8269
3529	0.8276
3538	0.8283
3547	0.8289
3556	0.8296
3565	0.8303
3574	0.831
3583	0.8319
3592	0.833
3601	0.834
3610	0.8351
3619	0.8361
3628	0.8359
3637	0.8352
3646	0.8345
3655	0.8332
3664	0.8317
3673	0.8329
3682	0.8348
3691	0.8373
3700	0.8399
3709	0.8422
3718	0.8419
3727	0.8415
3736	0.8412
3745	0.8408
3754	0.8404
3763	0.8405
3772	0.8407
3781	0.8408
3790	0.841
