Infrared Spectrum: 4,4'-DDD
Formula: C 14 H 10 Cl 4
CAS: 72-54-8
State: gas
Instrument: HP-GC/MS/IRD
Origin: NIST Mass Spectrometry Data Center
1/CM	ABSORBANCE
550	0.001448
562	0.000772
574	0.001082
586	0.001502
598	0.00048
610	0.000568
622	0.001202
634	0.00067
646	0.000828
658	0.00167
670	0.001412
682	0.001022
694	0.001136
706	0.002198
718	0.001292
730	0.00187
742	0.002394
754	0.009116
766	0.01548
778	0.004776
790	0.002582
802	0.00344
814	0.004368
826	0.003398
838	0.002536
850	0.002708
862	0.00148
874	0.00117
886	0.000868
898	0.00027
910	0.000162
922	3.2e-05
934	5.8e-05
946	6.2e-05
958	4e-06
970	5.4e-05
982	0.00016
994	0.000556
1006	0.002586
1018	0.00893
1030	0.0012
1042	0.000596
1054	0.000396
1066	0.000708
1078	0.002246
1090	0.012454
1102	0.010298
1114	0.003468
1126	0.001348
1138	0.000736
1150	0.000538
1162	0.000452
1174	0.000586
1186	0.00066
1198	0.000502
1210	0.00094
1222	0.00118
1234	0.00081
1246	0.000732
1258	0.00057
1270	0.000458
1282	0.00035
1294	0.000334
1306	0.000452
1318	0.00036
1330	0.000356
1342	0.00032
1354	0.000204
1366	0.000136
1378	0.000198
1390	0.000474
1402	0.001326
1414	0.001262
1426	0.00049
1438	0.000668
1450	0.000832
1462	0.001332
1474	0.002132
1486	0.01113
1498	0.014134
1510	0.002134
1522	0.000874
1534	0.000456
1546	0.000322
1558	0.000294
1570	0.000582
1582	0.000918
1594	0.001832
1606	0.000838
1618	0.000558
1630	0.000384
1642	0.000308
1654	0.0002
1666	0.000168
1678	9e-05
1690	4.4e-05
1702	3.8e-05
1714	3e-05
1726	5.4e-05
1738	7.2e-05
1750	0.000126
1762	0.000324
1774	0.000412
1786	0.000142
1798	3.8e-05
1810	3.4e-05
1822	3.4e-05
1834	4e-05
1846	5.2e-05
1858	9.2e-05
1870	0.000162
1882	0.000464
1894	0.000628
1906	0.00026
1918	0.000102
1930	6.4e-05
1942	4.6e-05
1954	5.2e-05
1966	5.2e-05
1978	5.6e-05
1990	1.6e-05
2002	5e-05
2014	4e-05
2026	5e-05
2038	4e-05
2050	5.4e-05
2062	5.4e-05
2074	4.2e-05
2086	5.2e-05
2098	5.2e-05
2110	1.8e-05
2122	1.8e-05
2134	3.2e-05
2146	2.4e-05
2158	2.6e-05
2170	3e-05
2182	2.8e-05
2194	4e-05
2206	2.4e-05
2218	2.4e-05
2230	3.6e-05
2242	3e-05
2254	3.8e-05
2266	6.6e-05
2278	9e-05
2290	8.6e-05
2302	0.000132
2314	8.6e-05
2326	5e-05
2338	2.6e-05
2350	4e-05
2362	6.6e-05
2374	8.2e-05
2386	7.4e-05
2398	5.2e-05
2410	7e-05
2422	7.4e-05
2434	8.6e-05
2446	6.6e-05
2458	7.8e-05
2470	7.8e-05
2482	8.4e-05
2494	8.6e-05
2506	9.6e-05
2518	9.2e-05
2530	0.000124
2542	0.0001
2554	0.000102
2566	8.6e-05
2578	9.4e-05
2590	0.000134
2602	0.000124
2614	0.000112
2626	6.4e-05
2638	5.6e-05
2650	5.2e-05
2662	5.8e-05
2674	6.2e-05
2686	8.4e-05
2698	8e-05
2710	3.2e-05
2722	1.6e-05
2734	1.6e-05
2746	2.6e-05
2758	3.6e-05
2770	6.8e-05
2782	4e-05
2794	2.4e-05
2806	4.4e-05
2818	6.4e-05
2830	3.4e-05
2842	5.8e-05
2854	8.8e-05
2866	5.4e-05
2878	4e-05
2890	0.000198
2902	0.000238
2914	0.000202
2926	0.000252
2938	0.000196
2950	8.4e-05
2962	0.00011
2974	0.000226
2986	0.000366
2998	0.000842
3010	0.000458
3022	0.000722
3034	0.00142
3046	0.000982
3058	0.000738
3070	0.000528
3082	0.000874
3094	0.001192
3106	0.000654
3118	0.00023
3130	0.000132
3142	6.8e-05
3154	5.4e-05
3166	3.2e-05
3178	6.8e-05
3190	4.6e-05
3202	2.8e-05
3214	4e-05
3226	3.2e-05
3238	4.8e-05
3250	5.8e-05
3262	6.8e-05
3274	2e-06
3286	0.000102
3298	5.8e-05
3310	8e-06
3322	8.2e-05
3334	6.6e-05
3346	7.8e-05
3358	9.6e-05
3370	8.4e-05
3382	0.0001
3394	0.000104
3406	0.000108
3418	0.000118
3430	0.000134
3442	0.000114
3454	0.000124
3466	0.000146
3478	0.00013
3490	0.000166
3502	0.000108
3514	0.000116
3526	0.00014
3538	0.000184
3550	0.000124
3562	8.8e-05
3574	0.000138
3586	0.000204
3598	0.000166
3610	0.000104
3622	0.00016
3634	8.2e-05
3646	0.000126
3658	0.000158
3670	0.000176
3682	0.000166
3694	0.000126
3706	0.00016
3718	0.000186
3730	0.00019
3742	0.000156
3754	9.8e-05
3766	0.000178
3778	0.000112
3790	0.000142
3802	0.000122
3814	9.2e-05
3826	0.000102
3838	0.000112
