Infrared Spectrum: 4,4'-DDE
Formula: C 14 H 8 Cl 4
CAS: 72-55-9
State: gas
Instrument: HP-GC/MS/IRD
Origin: NIST Mass Spectrometry Data Center
1/CM	ABSORBANCE
550	0.000456
562	0.00018
574	0.0001224
586	6.72e-05
598	0
610	0.0003696
622	0.0002832
634	0.0002232
646	0.0002256
658	0.0004536
670	0.0005976
682	0.0014496
694	0.0012192
706	0.0005712
718	0.0006624
730	0.0010056
742	0.0004752
754	0.0004752
766	0.0008424
778	0.002316
790	0.0108936
802	0.0055992
814	0.0057792
826	0.0050496
838	0.0027744
850	0.0063792
862	0.0156456
874	0.0023472
886	0.0008568
898	0.000552
910	0.0005088
922	0.0004056
934	0.0005952
946	0.0006672
958	0.0007752
970	0.0039528
982	0.002232
994	0.0007368
1006	0.002088
1018	0.0130248
1030	0.0013776
1042	0.000792
1054	0.0006816
1066	0.0010656
1078	0.0029544
1090	0.0205704
1102	0.0074064
1114	0.0020208
1126	0.001296
1138	0.0007416
1150	0.000516
1162	0.0005544
1174	0.000672
1186	0.0002832
1198	0.0002328
1210	0.0003216
1222	0.0005952
1234	0.0003504
1246	0.0004032
1258	0.0003168
1270	0.0001944
1282	0.0001656
1294	0.0001968
1306	0.0002328
1318	0.0002376
1330	0.0002544
1342	0.0003864
1354	0.0003024
1366	0.0003528
1378	0.0004584
1390	0.0010584
1402	0.0017496
1414	0.000504
1426	0.0004824
1438	0.000744
1450	0.0010392
1462	0.00168
1474	0.0031584
1486	0.0120912
1498	0.0101832
1510	0.0021
1522	0.0010272
1534	0.001044
1546	0.0010392
1558	0.0015264
1570	0.002124
1582	0.0043176
1594	0.0037008
1606	0.0011352
1618	0.0008496
1630	0.0005952
1642	0.0006624
1654	0.0004032
1666	0.0004464
1678	0.0002088
1690	0.0001368
1702	0.0001344
1714	0.0001272
1726	0.0001344
1738	0.0001512
1750	0.0001248
1762	0.0003264
1774	0.0006528
1786	0.0003048
1798	0.000156
1810	0.0001128
1822	0.0001152
1834	0.0001008
1846	8.16e-05
1858	0.000108
1870	0.0001632
1882	0.0003744
1894	0.000888
1906	0.0003744
1918	0.0001752
1930	0.0001416
1942	8.64e-05
1954	0.0001032
1966	8.16e-05
1978	5.04e-05
1990	6e-05
2002	2.88e-05
2014	4.32e-05
2026	4.32e-05
2038	6.48e-05
2050	4.32e-05
2062	4.32e-05
2074	4.56e-05
2086	6.24e-05
2098	6e-05
2110	4.32e-05
2122	3.6e-05
2134	3.6e-05
2146	2.88e-05
2158	2.4e-05
2170	0
2182	2.4e-05
2194	2.4e-05
2206	3.12e-05
2218	3.84e-05
2230	3.12e-05
2242	4.56e-05
2254	5.28e-05
2266	8.64e-05
2278	0.0001008
2290	0.0001296
2302	6.48e-05
2314	7.68e-05
2326	6.48e-05
2338	4.32e-05
2350	2.64e-05
2362	2.88e-05
2374	5.76e-05
2386	5.28e-05
2398	6e-05
2410	5.04e-05
2422	2.64e-05
2434	5.28e-05
2446	4.56e-05
2458	7.2e-05
2470	3.6e-05
2482	6e-05
2494	7.44e-05
2506	8.88e-05
2518	8.16e-05
2530	5.28e-05
2542	5.04e-05
2554	6.24e-05
2566	7.92e-05
2578	0.000108
2590	6e-05
2602	8.88e-05
2614	3.6e-05
2626	2.64e-05
2638	3.12e-05
2650	6.24e-05
2662	8.16e-05
2674	7.2e-05
2686	6.24e-05
2698	5.04e-05
2710	3.12e-05
2722	2.64e-05
2734	3.12e-05
2746	4.32e-05
2758	7.68e-05
2770	5.04e-05
2782	3.84e-05
2794	4.08e-05
2806	4.8e-05
2818	4.56e-05
2830	3.84e-05
2842	2.88e-05
2854	6.72e-05
2866	3.12e-05
2878	7.2e-05
2890	5.28e-05
2902	3.12e-05
2914	2.4e-05
2926	1.68e-05
2938	2.4e-05
2950	4.8e-05
2962	9.84e-05
2974	7.68e-05
2986	6.72e-05
2998	0.0001344
3010	0.0001776
3022	0.00036
3034	0.0009288
3046	0.0007848
3058	0.0006
3070	0.000456
3082	0.001044
3094	0.0013128
3106	0.0005256
3118	0.0002376
3130	0.0001344
3142	9.84e-05
3154	9.12e-05
3166	0.0001008
3178	6.48e-05
3190	7.44e-05
3202	3.36e-05
3214	4.08e-05
3226	3.36e-05
3238	0
3250	6.48e-05
3262	1.44e-05
3274	3.12e-05
3286	4.08e-05
3298	7.44e-05
3310	5.28e-05
3322	5.76e-05
3334	6.72e-05
3346	4.8e-05
3358	5.52e-05
3370	5.76e-05
3382	2.64e-05
3394	8.16e-05
3406	6.48e-05
3418	6.48e-05
3430	4.8e-05
3442	3.12e-05
3454	8.16e-05
3466	5.52e-05
3478	7.2e-05
3490	3.84e-05
3502	8.64e-05
3514	5.04e-05
3526	0.000108
3538	6.96e-05
3550	7.68e-05
3562	0.0001032
3574	6.96e-05
3586	8.16e-05
3598	2.16e-05
3610	5.28e-05
3622	8.16e-05
3634	8.4e-05
3646	7.92e-05
3658	9.12e-05
3670	9.84e-05
3682	0.0001008
3694	6e-05
3706	0.0001152
3718	0.00012
3730	9.6e-05
3742	7.44e-05
3754	0.0001152
3766	0.0001104
3778	7.92e-05
3790	0.0001272
3802	0.0001008
3814	7.68e-05
3826	5.04e-05
3838	0.0001272
