Infrared Spectrum: 4-Methoxybenzhydrol
Formula: C 14 H 14 O 2
CAS: 720-44-5
State: gas
Origin: EPA-IR VAPOR PHASE LIBRARY
1/CM	ABSORBANCE
549.9	0.0012588
559.547	0.0013531
569.193	0.0009884
578.84	0.001089
588.486	0.0010434
598.133	0.001722
607.779	0.0008875
617.426	0.0009222
627.072	0.00064203
636.719	0.0006419
646.365	0.00070199
656.012	0.000655894
665.658	0.00071912
675.305	0.0008625
684.951	0.0010234
694.598	0.003082
704.245	0.001762
713.891	0.0010605
723.538	0.0015599
733.184	0.0011607
742.831	0.0008997
752.477	0.00075113
762.124	0.0008455
771.77	0.001416
781.417	0.0011284
791.063	0.0012707
800.71	0.0015193
810.356	0.0014093
820.003	0.0012044
829.649	0.0010572
839.296	0.001249
848.943	0.0009846
858.589	0.0007991
868.236	0.00066491
877.882	0.00064469
887.529	0.0006313
897.175	0.0005834
906.822	0.00067673
916.468	0.0006049
926.115	0.000536
935.761	0.00054
945.408	0.0005557
955.054	0.000479
964.701	0.000544
974.347	0.0006026
983.994	0.00064906
993.64	0.00068187
1003.29	0.0008612
1012.93	0.0011326
1022.58	0.001423
1032.23	0.002382
1041.87	0.002712
1051.52	0.001832
1061.17	0.0011228
1070.81	0.001
1080.46	0.0007591
1090.11	0.00068167
1099.75	0.0007654
1109.4	0.0008419
1119.05	0.000654705
1128.69	0.000652712
1138.34	0.00068093
1147.99	0.00071802
1157.63	0.0009784
1167.28	0.002062
1176.92	0.004272
1186.57	0.001832
1196.22	0.0012711
1205.86	0.0015214
1215.51	0.0015753
1225.16	0.002142
1234.8	0.003642
1244.45	0.008322
1254.1	0.008232
1263.74	0.004172
1273.39	0.002612
1283.04	0.002212
1292.68	0.002152
1302.33	0.001782
1311.98	0.0011964
1321.62	0.0009818
1331.27	0.0009049
1340.92	0.0008311
1350.56	0.00075109
1360.21	0.00070631
1369.86	0.0006958
1379.5	0.0006242
1389.15	0.0006139
1398.79	0.0006347
1408.44	0.00064538
1418.09	0.0008235
1427.73	0.0008366
1437.38	0.0010697
1447.03	0.0016101
1456.67	0.0014939
1466.32	0.001722
1475.97	0.0015821
1485.61	0.001762
1495.26	0.003062
1504.91	0.006732
1514.55	0.007552
1524.2	0.001912
1533.85	0.0011762
1543.49	0.0009204
1553.14	0.0008303
1562.79	0.0008222
1572.43	0.0009646
1582.08	0.0013667
1591.73	0.0015661
1601.37	0.002372
1611.02	0.002632
1620.67	0.00132
1630.31	0.000883
1639.96	0.00070502
1649.6	0.0006801
1659.25	0.0005782
1668.9	0.0005906
1678.54	0.000551
1688.19	0.0006269
1697.84	0.0005897
1707.48	0.0005753
1717.13	0.000660115
1726.78	0.0005535
1736.42	0.0005635
1746.07	0.0005961
1755.72	0.00064312
1765.36	0.0006249
1775.01	0.0006312
1784.66	0.00068112
1794.3	0.000657034
1803.95	0.0006135
1813.6	0.0005935
1823.24	0.0005919
1832.89	0.0005905
1842.54	0.0005937
1852.18	0.000618
1861.83	0.00065031
1871.47	0.00071039
1881.12	0.000660618
1890.77	0.0006187
1900.41	0.0005856
1910.06	0.000544
1919.71	0.0005989
1929.35	0.0006227
1939	0.0006242
1948.65	0.000651535
1958.29	0.0006071
1967.94	0.000564
1977.59	0.000546
1987.23	0.0005721
1996.88	0.000532
2006.53	0.0005778
2016.17	0.000548
2025.82	0.000611
2035.47	0.0005822
2045.11	0.000598
2054.76	0.0006193
2064.41	0.0005973
2074.05	0.000629
2083.7	0.0005788
2093.35	0.0005981
2102.99	0.000513
2112.64	0.000489
2122.28	0.000506
2131.93	0.000498
2141.58	0.000514
2151.22	0.000455
2160.87	0.000475
2170.52	0.000492
2180.16	0.000483
2189.81	0.000501
2199.46	0.000456
2209.1	0.000475
2218.75	0.000474
2228.4	0.000475
2238.04	0.000492
2247.69	0.000485
2257.34	0.000503
2266.98	0.000512
2276.63	0.0005535
2286.28	0.000499
2295.92	0.000541
2305.57	0.0005784
2315.22	0.0005668
2324.86	0.0005542
2334.51	0.000555
2344.16	0.000518
2353.8	0.0005549
2363.45	0.0005934
2373.09	0.000538
2382.74	0.000495
2392.39	0.000477
2402.03	0.000465
2411.68	0.000531
2421.33	0.000489
2430.97	0.000433
2440.62	0.000484
2450.27	0.000451
2459.91	0.000486
2469.56	0.000453
2479.21	0.000493
2488.85	0.000481
2498.5	0.000501
2508.15	0.00049
2517.79	0.000464
2527.44	0.000421
2537.09	0.000479
2546.73	0.000447
2556.38	0.000418
2566.03	0.000431
2575.67	0.000474
2585.32	0.000461
2594.96	0.000413
2604.61	0.000483
2614.26	0.000391
2623.9	0.000436
2633.55	0.000379
2643.2	0.000417
2652.84	0.000387
2662.49	0.000377
2672.14	0.00035
2681.78	0.000394
2691.43	0.000308
2701.08	0.000364
2710.72	0.000362
2720.37	0.000393
2730.02	0.000325
2739.66	0.000425
2749.31	0.000355
2758.96	0.000377
2768.6	0.000419
2778.25	0.00038
2787.9	0.000426
2797.54	0.000449
2807.19	0.000452
2816.84	0.0005824
2826.48	0.0006046
2836.13	0.0009929
2845.77	0.0013909
2855.42	0.00073409
2865.07	0.0005952
2874.71	0.0005902
2884.36	0.0005892
2894.01	0.0008194
2903.65	0.0011352
2913.3	0.0014058
2922.95	0.0012874
2932.59	0.0012786
2942.24	0.001712
2951.89	0.0014561
2961.53	0.0013131
2971.18	0.0008374
2980.83	0.0008005
2990.47	0.0011026
3000.12	0.001722
3009.77	0.001822
3019.41	0.0013416
3029.06	0.002112
3038.71	0.001722
3048.35	0.0013849
3058	0.0013925
3067.64	0.002362
3077.29	0.0014576
3086.94	0.0012449
3096.58	0.0008761
3106.23	0.00073099
3115.88	0.00044
3125.52	0.000474
3135.17	0.000425
3144.82	0.000265
3154.46	0.000365
3164.11	0.000238
3173.76	0.000149
3183.4	0.000319
3193.05	0.000165
3202.7	0.000233
3212.34	0
3221.99	0.000239
3231.64	0.000248
3241.28	0.000142
3250.93	0.000357
3260.58	0.000325
3270.22	0.000189
3279.87	0.000237
3289.52	0.000291
3299.16	0.000241
3308.81	0.000364
3318.45	0.00029
3328.1	0.000229
3337.75	0.000217
3347.39	5.8e-05
3357.04	0.000118
3366.69	0.000201
3376.33	0.00026
3385.98	0.000232
3395.63	0.000239
3405.27	0.000267
3414.92	0.000261
3424.57	0.00024
3434.21	0.000323
3443.86	0.000277
3453.51	0.000328
3463.15	0.000326
3472.8	0.000246
3482.45	0.000353
3492.09	0.000338
3501.74	0.00027
3511.39	0.000362
3521.03	0.00024
3530.68	0.000293
3540.33	0.00026
3549.97	0.000347
3559.62	0.000306
3569.26	0.000345
3578.91	0.00036
3588.56	0.000327
3598.2	0.000309
3607.85	0.000425
3617.5	0.000384
3627.14	0.000464
3636.79	0.000335
3646.44	0.000449
3656.08	0.000481
3665.73	0.000356
3675.38	0.000378
3685.02	0.000302
3694.67	0.000458
3704.32	0.00038
3713.96	0.000408
3723.61	0.000422
3733.26	0.000413
3742.9	0.000491
3752.55	0.000465
3762.2	0.000392
3771.84	0.000382
3781.49	0.000458
3791.13	0.000323
3800.78	0.00026
3810.43	0.000408
3820.07	0.000422
3829.72	0.000369
3839.37	0.0004
3849.01	0.000432
3858.66	0.000463
3868.31	0.000377
3877.95	0.000415
3887.6	0.00034
3897.25	0.000398
3906.89	0.000463
3916.54	0.000413
3926.19	0.000401
3935.83	0.000374
3945.48	0.000425
3955.13	0.000308
3964.77	0.000276
3974.42	0.000419
3984.07	0.000325
3993.71	0.000373
