Infrared Spectrum: Methyl-p-phneylbenzoate
Formula: C 14 H 12 O 2
CAS: 720-75-2
State: gas
Origin: EPA-IR VAPOR PHASE LIBRARY
1/CM	ABSORBANCE
549.8	0.00346
559.445	0.00244
569.09	0.00121
578.734	9e-05
588.379	0.00024
598.024	0.00088
607.669	0.00132
617.313	0.00091
626.958	0.0016
636.603	0.00176
646.248	0.00286
655.893	0.0032
665.537	0.004803
675.182	0.00839
684.827	0.01805
694.472	0.03366
704.116	0.03312
713.761	0.02137
723.406	0.01573
733.051	0.02702
742.695	0.06214
752.34	0.06415
761.985	0.0305
771.63	0.01471
781.275	0.01146
790.919	0.00834
800.564	0.0063769
810.209	0.00845
819.854	0.01517
829.498	0.01233
839.143	0.01062
848.788	0.01613
858.433	0.01839
868.078	0.00877
877.722	0.00389
887.367	0.00328
897.012	0.00322
906.657	0.0039
916.301	0.00335
925.946	0.00306
935.591	0.00327
945.236	0.00331
954.88	0.004907
964.525	0.0084
974.17	0.0084
983.815	0.005178
993.46	0.0063101
1003.1	0.0202
1012.75	0.03003
1022.39	0.01872
1032.04	0.01013
1041.68	0.00995
1051.33	0.00848
1060.97	0.01076
1070.62	0.01707
1080.26	0.02755
1089.91	0.06204
1099.55	0.12239
1109.2	0.15136
1118.84	0.08623
1128.49	0.04504
1138.13	0.02472
1147.78	0.01741
1157.42	0.01446
1167.07	0.01632
1176.71	0.03559
1186.36	0.06298
1196	0.04442
1205.64	0.02187
1215.29	0.01809
1224.93	0.02894
1234.58	0.04896
1244.22	0.06004
1253.87	0.10783
1263.51	0.21673
1273.16	0.3601
1282.8	0.24056
1292.45	0.10534
1302.09	0.05939
1311.74	0.04729
1321.38	0.02798
1331.03	0.01934
1340.67	0.01513
1350.32	0.01236
1359.96	0.01083
1369.61	0.00921
1379.25	0.00925
1388.9	0.0105
1398.54	0.0168
1408.18	0.01981
1417.83	0.01225
1427.47	0.01637
1437.12	0.05665
1446.76	0.02799
1456.41	0.0143
1466.05	0.01202
1475.7	0.01498
1485.34	0.02792
1494.99	0.0144
1504.63	0.00812
1514.28	0.00733
1523.92	0.00734
1533.57	0.00671
1543.21	0.00648
1552.86	0.00782
1562.5	0.01133
1572.15	0.01002
1581.79	0.01104
1591.44	0.02165
1601.08	0.04026
1610.73	0.04502
1620.37	0.01793
1630.01	0.00814
1639.66	0.00665
1649.3	0.0058882
1658.95	0.0061277
1668.59	0.00709
1678.24	0.00896
1687.88	0.01233
1697.53	0.01527
1707.17	0.01794
1716.82	0.02284
1726.46	0.0481
1736.11	0.15355
1745.75	0.29062
1755.4	0.10418
1765.04	0.02911
1774.69	0.01424
1784.33	0.0118
1793.98	0.01257
1803.62	0.01053
1813.27	0.00671
1822.91	0.005248
1832.55	0.00348
1842.2	0.00275
1851.84	0.00261
1861.49	0.00305
1871.13	0.00345
1880.78	0.0037
1890.42	0.00417
1900.07	0.00349
1909.71	0.00432
1919.36	0.0060424
1929	0.0073
1938.65	0.00684
1948.29	0.0053689
1957.94	0.0043
1967.58	0.00244
1977.23	0.00189
1986.87	0.00195
1996.52	0.00184
2006.16	0.00187
2015.81	0.00198
2025.45	0.0017
2035.1	0.00184
2044.74	0.00203
2054.38	0.00247
2064.03	0.00306
2073.67	0.00346
2083.32	0.0036
2092.96	0.00309
2102.61	0.00246
2112.25	0.00193
2121.9	0.00169
2131.54	0.00143
2141.19	0.00137
2150.83	0.00138
2160.48	0.00126
2170.12	0.00132
2179.77	0.00127
2189.41	0.00121
2199.06	0.0011
2208.7	0.00113
2218.35	0.00117
2227.99	0.00129
2237.64	0.00142
2247.28	0.0014
2256.92	0.00146
2266.57	0.00151
2276.21	0.00125
2285.86	0.00138
2295.5	0.00146
2305.15	0.00138
2314.79	0.00148
2324.44	0.00126
2334.08	0.00144
2343.73	0.00143
2353.37	0.00138
2363.02	0.00123
2372.66	0.00131
2382.31	0.00153
2391.95	0.00143
2401.6	0.0014
2411.24	0.0012
2420.89	0.00109
2430.53	0.00099
2440.18	0.00104
2449.82	0.00092
2459.47	0.00097
2469.11	0.00095
2478.75	0.00094
2488.4	0.00099
2498.04	0.00084
2507.69	0.00106
2517.33	0.0013
2526.98	0.00146
2536.62	0.00187
2546.27	0.00207
2555.91	0.00196
2565.56	0.00176
2575.2	0.00148
2584.85	0.00134
2594.49	0.00133
2604.14	0.00147
2613.78	0.00126
2623.43	0.00125
2633.07	0.0009
2642.72	0.00105
2652.36	0.0009
2662.01	0.00117
2671.65	0.00075
2681.29	0.0006
2690.94	0.00069
2700.58	0.0008
2710.23	0.00087
2719.87	0.00116
2729.52	0.00088
2739.16	0.00059
2748.81	0.00095
2758.45	0.00066
2768.1	0.00094
2777.74	0.00109
2787.39	0.00108
2797.03	0.00126
2806.68	0.00167
2816.32	0.00183
2825.97	0.00198
2835.61	0.00336
2845.26	0.00713
2854.9	0.00828
2864.55	0.0042
2874.19	0.00404
2883.84	0.004873
2893.48	0.0063786
2903.12	0.00719
2912.77	0.00799
2922.41	0.00848
2932.06	0.0074
2941.7	0.00932
2951.35	0.02125
2960.99	0.04923
2970.64	0.01862
2980.28	0.00922
2989.93	0.00975
2999.57	0.01195
3009.22	0.01256
3018.86	0.01433
3028.51	0.02135
3038.15	0.02964
3047.8	0.02077
3057.44	0.02129
3067.09	0.03351
3076.73	0.03051
3086.38	0.02261
3096.02	0.01806
3105.67	0.0112
3115.31	0.0069
3124.95	0.004759
3134.6	0.00316
3144.24	0.00226
3153.89	0.00192
3163.53	0.00171
3173.18	0.00123
3182.82	0.00122
3192.47	0.00065
3202.11	0.00109
3211.76	0.00075
3221.4	0.00038
3231.05	0.00051
3240.69	0.00061
3250.34	0.00068
3259.98	0.00074
3269.63	0.00062
3279.27	0.00037
3288.92	0.0004
3298.56	0.00052
3308.21	0.00076
3317.85	0.00011
3327.49	0.00047
3337.14	0.00101
3346.78	0.0009
3356.43	0.00074
3366.07	0.00075
3375.72	0.00061
3385.36	0.00048
3395.01	0.00044
3404.65	0.00087
3414.3	0.00037
3423.94	0.00067
3433.59	0.00101
3443.23	0.00103
3452.88	0.00138
3462.52	0.00214
3472.17	0.00235
3481.81	0.0024
3491.46	0.0015
3501.1	0.00076
3510.75	0.00079
3520.39	0.00062
3530.04	0.00045
3539.68	0.00034
3549.32	0.00051
3558.97	0.00022
3568.61	0.00022
3578.26	0.00019
3587.9	0.00057
3597.55	0.00034
3607.19	0.00053
3616.84	0.00037
3626.48	0.00045
3636.13	0.00026
3645.77	0.00078
3655.42	0.00075
3665.06	0.00063
3674.71	0.0006
3684.35	0.00059
3694	0.00034
3703.64	0.00103
3713.29	0.00072
3722.93	0.00038
3732.58	0.00018
3742.22	0.0004
3751.86	0.00044
3761.51	0.00033
3771.15	0.00071
3780.8	0.00013
3790.44	0.00037
3800.09	0.00062
3809.73	0.00051
3819.38	0.00093
3829.02	0.00062
3838.67	0.00034
3848.31	2e-05
3857.96	0.00066
3867.6	0.00028
3877.25	0.00035
3886.89	0.00055
3896.54	0.00089
3906.18	0.0003
3915.83	0.00021
3925.47	0.00058
3935.12	0.00043
3944.76	0.00039
3954.41	0.0003
3964.05	0.00051
3973.69	0.00066
3983.34	0.0006
3992.98	0.00077
