Infrared Spectrum: Pyridine, 4-benzyl-, hydrochloride
Formula: C12 H12 Cl N
CAS: 72024-89-6
State: SOLID (KBr DISC, 0.8 WT.)
Class: COBLENTZ III
Instrument: PERKIN-ELMER 157
Sampling: TRANSMISSION
Resolution: 2
Origin: BRITISH PETROLEUM CO. LTD., ENGLAND
1/CM	TRANSMITTANCE
667	0.8521
676	0.7329
685	0.5966
694	0.167
703	0.4549
712	0.748
721	0.5623
730	0.2749
739	0.1459
748	0.1915
757	0.6425
766	0.5513
775	0.2269
784	0.0247
793	0.645
802	0.6867
811	0.567
820	0.5424
829	0.3923
838	0.2702
847	0.0779
856	0.474
865	0.71
874	0.5907
883	0.7451
892	0.7192
901	0.6155
910	0.6306
919	0.6881
928	0.4631
937	0.6437
946	0.6525
955	0.7003
964	0.6914
973	0.6481
982	0.5835
991	0.4795
1000	0.407
1009	0.4985
1018	0.3373
1027	0.3335
1036	0.6695
1045	0.6333
1054	0.4212
1063	0.617
1072	0.5589
1081	0.3591
1090	0.3045
1099	0.5992
1108	0.5893
1117	0.6795
1126	0.6501
1135	0.6121
1144	0.3843
1153	0.576
1162	0.5521
1171	0.4904
1180	0.238
1189	0.1388
1198	0.5532
1207	0.5375
1216	0.5001
1225	0.2845
1234	0.0865
1243	0.4266
1252	0.5744
1261	0.6004
1270	0.5205
1279	0.4761
1288	0.4852
1297	0.5277
1306	0.4288
1315	0.4631
1324	0.4285
1333	0.4496
1342	0.4968
1351	0.4255
1360	0.4851
1369	0.5276
1378	0.4823
1387	0.4771
1396	0.4767
1405	0.4571
1414	0.4184
1423	0.385
1432	0.2876
1441	0.0612
1450	0.3725
1459	0.3521
1468	0.262
1477	0.1241
1486	0.0297
1495	0.0267
1504	0.3893
1513	0.6114
1522	0.6015
1531	0.5145
1540	0.4867
1549	0.4603
1558	0.4148
1567	0.3299
1576	0.2062
1585	0.0372
1594	0.0243
1603	0.322
1612	0.3262
1621	0.1351
1630	0.1082
1639	0.5948
1648	0.6267
1657	0.6493
1666	0.643
1675	0.64
1684	0.6205
1693	0.6072
1702	0.6055
1711	0.5958
1720	0.5985
1729	0.5859
1738	0.5712
1747	0.5557
1756	0.5362
1765	0.5222
1774	0.5212
1783	0.5208
1792	0.5169
1801	0.4975
1810	0.4983
1819	0.5017
1828	0.487
1837	0.4623
1846	0.435
1855	0.44
1864	0.4422
1873	0.4434
1882	0.444
1891	0.4442
1900	0.447
1909	0.4188
1918	0.4105
1927	0.3883
1936	0.3695
1945	0.3517
1954	0.3713
1963	0.3925
1972	0.4027
1981	0.408
1990	0.4057
1999	0.3807
2008	0.3647
2017	0.3524
2026	0.3667
2035	0.3814
2044	0.3915
2053	0.3932
2062	0.3946
2071	0.3951
2080	0.3955
2089	0.3959
2098	0.396
2107	0.3896
2116	0.3818
2125	0.38
2134	0.3784
2143	0.3769
2152	0.3754
2161	0.3738
2170	0.3724
2179	0.3687
2188	0.3621
2197	0.3544
2206	0.3463
2215	0.3387
2224	0.3326
2233	0.3297
2242	0.3284
2251	0.3272
2260	0.3196
2269	0.3139
2278	0.3095
2287	0.3048
2296	0.2955
2305	0.2756
2314	0.27
2323	0.2655
2332	0.2613
2341	0.2564
2350	0.2501
2359	0.2417
2368	0.2345
2377	0.2269
2386	0.2184
2395	0.2092
2404	0.202
2413	0.1935
2422	0.1842
2431	0.1774
2440	0.1706
2449	0.1638
2458	0.1571
2467	0.1499
2476	0.1396
2485	0.1292
2494	0.1189
2503	0.1114
2512	0.1042
2521	0.0958
2530	0.0867
2539	0.0776
2548	0.0688
2557	0.0612
2566	0.056
2575	0.0522
2584	0.0513
2593	0.0499
2602	0.0417
2611	0.036
2620	0.0349
2629	0.0344
2638	0.0343
2647	0.0342
2656	0.0342
2665	0.0341
2674	0.0341
2683	0.0339
2692	0.0337
2701	0.0335
2710	0.0333
2719	0.033
2728	0.0329
2737	0.0327
2746	0.0325
2755	0.0325
2764	0.0326
2773	0.0328
2782	0.033
2791	0.0332
2800	0.0334
2809	0.0336
2818	0.0338
2827	0.0341
2836	0.0344
2845	0.0347
2854	0.0349
2863	0.0349
2872	0.035
2881	0.035
2890	0.0345
2899	0.0338
2908	0.033
2917	0.0323
2926	0.0316
2935	0.0314
2944	0.0314
2953	0.0315
2962	0.0315
2971	0.032
2980	0.0324
2989	0.0341
2998	0.0365
3007	0.0402
3016	0.0477
3025	0.0567
3034	0.0706
3043	0.0842
3052	0.096
3061	0.0983
3070	0.0995
3079	0.1378
3088	0.1644
3097	0.1751
3106	0.1813
3115	0.1823
3124	0.1788
3133	0.1751
3142	0.1718
3151	0.178
3160	0.197
3169	0.2128
3178	0.222
3187	0.2241
3196	0.2244
3205	0.2241
3214	0.2218
3223	0.2177
3232	0.2132
3241	0.2088
3250	0.2055
3259	0.2023
3268	0.1991
3277	0.1949
3286	0.1907
3295	0.1864
3304	0.1825
3313	0.1787
3322	0.1749
3331	0.171
3340	0.167
3349	0.1629
3358	0.1593
3367	0.1566
3376	0.1551
3385	0.1536
3394	0.1529
3403	0.1524
3412	0.1523
3421	0.1522
3430	0.1525
3439	0.1546
3448	0.1596
3457	0.1643
3466	0.1684
3475	0.1706
3484	0.1719
3493	0.1731
3502	0.1769
3511	0.1804
3520	0.1821
3529	0.1829
3538	0.1831
3547	0.1832
3556	0.183
3565	0.1827
3574	0.1822
3583	0.1817
3592	0.1811
3601	0.1801
3610	0.1791
3619	0.178
3628	0.1769
3637	0.1757
3646	0.1744
3655	0.1732
3664	0.1719
3673	0.1704
3682	0.169
3691	0.1676
3700	0.1662
3709	0.1648
3718	0.1633
3727	0.1618
3736	0.1603
3745	0.1589
3754	0.1572
3763	0.155
3772	0.153
3781	0.1508
3790	0.1487
3799	0.1465
3808	0.1444
3817	0.1431
3826	0.1431
3835	0.1429
3844	0.1428
3853	0.1426
3862	0.142
3871	0.1414
3880	0.1408
3889	0.139
3898	0.1369
3907	0.1335
3916	0.1326
3925	0.1321
3934	0.132
3943	0.132
3952	0.1322
3961	0.1323
3970	0.1325
3979	0.1325
3988	0.1327
3997	0.1328
