Infrared Spectrum: cis-6-Dodecene
Formula: C 12 H 24
CAS: 7206-29-3
State: gas
Origin: EPA-IR VAPOR PHASE LIBRARY
1/CM	ABSORBANCE
549.8	0.0005506
559.445	0.0004802
569.09	0.0009749
578.735	0.00156
588.38	0.00183
598.025	0.00161
607.67	0.0012514
617.315	0.0010927
626.96	0.0011944
636.605	0.0012269
646.251	0.00154
655.896	0.00164
665.541	0.00246
675.186	0.0029
684.831	0.00409
694.476	0.00523
704.121	0.00629
713.766	0.00649
723.411	0.00622
733.056	0.00557
742.701	0.00428
752.346	0.00334
761.991	0.00284
771.636	0.00266
781.281	0.00202
790.926	0.00141
800.571	0.0009619
810.216	0.0009125
819.861	0.0010956
829.507	0.001158
839.152	0.0013142
848.797	0.0013644
858.442	0.001148
868.087	0.0010979
877.732	0.001023
887.377	0.0010135
897.022	0.000978
906.667	0.0010153
916.312	0.0008572
925.957	0.0009217
935.602	0.0009379
945.247	0.0011582
954.892	0.0016
964.537	0.00195
974.182	0.00221
983.827	0.0018
993.472	0.00145
1003.12	0.0012976
1012.76	0.001287
1022.41	0.0013337
1032.05	0.00139
1041.7	0.00153
1051.34	0.0011123
1060.99	0.0011652
1070.63	0.0011115
1080.28	0.0011379
1089.92	0.0012062
1099.57	0.00149
1109.21	0.00146
1118.86	0.0009679
1128.5	0.0007084
1138.15	0.0006907
1147.79	0.0005481
1157.44	0.00043799
1167.08	0.00041809
1176.73	0.000598
1186.37	0.0008249
1196.02	0.0009802
1205.66	0.0008935
1215.31	0.0011355
1224.95	0.0011478
1234.6	0.0010421
1244.24	0.0011564
1253.89	0.0013068
1263.53	0.00155
1273.18	0.00188
1282.82	0.00232
1292.47	0.00221
1302.11	0.0024
1311.76	0.00285
1321.4	0.00286
1331.05	0.00289
1340.69	0.00342
1350.34	0.00338
1359.98	0.00302
1369.63	0.00296
1379.27	0.00397
1388.92	0.00414
1398.56	0.00422
1408.21	0.00415
1417.85	0.00285
1427.5	0.0035
1437.14	0.00554
1446.79	0.00832
1456.43	0.01103
1466.08	0.01131
1475.73	0.00765
1485.37	0.00412
1495.02	0.00237
1504.66	0.00168
1514.31	0.0011533
1523.95	0.0008675
1533.6	0.0006739
1543.24	0.0006659
1552.89	0.0005716
1562.53	0.0004863
1572.18	0.00041476
1581.82	0.0004921
1591.47	0.00041674
1601.11	0.0004929
1610.76	0.0005387
1620.4	0.0006022
1630.05	0.0007704
1639.69	0.0010563
1649.34	0.0013334
1658.98	0.0011433
1668.63	0.0009608
1678.27	0.0009198
1687.92	0.0008477
1697.56	0.0006847
1707.21	0.000539
1716.85	0.00040562
1726.5	0.0003293
1736.14	0.0003009
1745.79	0.000164
1755.43	0.000265
1765.08	0.000194
1774.72	0.000124
1784.37	0.000141
1794.01	0.000217
1803.66	0.00015
1813.3	0.000143
1822.95	0.000135
1832.59	0.000122
1842.24	9.7e-05
1851.88	8.3e-05
1861.53	5.7e-05
1871.17	9.2e-05
1880.82	4e-06
1890.46	3.6e-05
1900.11	1.4e-05
1909.75	5.7e-05
1919.4	0.000125
1929.04	0.000108
1938.69	0.000139
1948.33	7.9e-05
1957.98	3.8e-05
1967.62	4.8e-05
1977.27	2e-06
1986.91	4.5e-05
1996.56	6.9e-05
2006.2	0.000123
2015.85	6.7e-05
2025.49	9.2e-05
2035.14	0.000181
2044.78	0.000206
2054.43	0.000162
2064.07	0.000166
2073.72	0.000115
2083.36	0.00012
2093.01	0
2102.65	9.9e-05
2112.3	7.4e-05
2121.94	7.6e-05
2131.59	9.1e-05
2141.23	3.8e-05
2150.88	7.2e-05
2160.52	0.000143
2170.17	5.7e-05
2179.81	9.4e-05
2189.46	0.000101
2199.1	5.3e-05
2208.75	0.000101
2218.39	9e-05
2228.04	2.6e-05
2237.68	0.000153
2247.33	0.000166
2256.97	4.9e-05
2266.62	0.000113
2276.26	8.4e-05
2285.91	0.000175
2295.55	0.000123
2305.2	0.000125
2314.84	0.000131
2324.49	9.1e-05
2334.13	7.1e-05
2343.78	0.000241
2353.42	0.000104
2363.07	9.2e-05
2372.72	6.7e-05
2382.36	0.000212
2392.01	0.000196
2401.65	0.000161
2411.3	0.000244
2420.94	0.000241
2430.59	0.000157
2440.23	0.000129
2449.88	0.000101
2459.52	0.000128
2469.17	6e-05
2478.81	0.000138
2488.46	0.000191
2498.1	0.000149
2507.75	0.000151
2517.39	0.0002755
2527.04	0.0003595
2536.68	0.0003593
2546.33	0.000377893
2555.97	0.00036365
2565.62	0.0005021
2575.26	0.0004727
2584.91	0.0005199
2594.55	0.0006867
2604.2	0.0005667
2613.84	0.0006639
2623.49	0.0008238
2633.13	0.0008081
2642.78	0.0008131
2652.42	0.0009829
2662.07	0.0012504
2671.71	0.0012819
2681.36	0.00117
2691	0.0010943
2700.65	0.0011264
2710.29	0.001177
2719.94	0.0012797
2729.58	0.00147
2739.23	0.00172
2748.87	0.00183
2758.52	0.00183
2768.16	0.00199
2777.81	0.00239
2787.45	0.00288
2797.1	0.00362
2806.74	0.00447
2816.39	0.00572
2826.03	0.00785
2835.68	0.01181
2845.32	0.01936
2854.97	0.03426
2864.61	0.04777
2874.26	0.04777
2883.9	0.04394
2893.55	0.03971
2903.19	0.04484
2912.84	0.06213
2922.48	0.09438
2932.13	0.12024
2941.77	0.10597
2951.42	0.07891
2961.06	0.07746
2970.71	0.07297
2980.35	0.03971
2990	0.02217
2999.64	0.02006
3009.29	0.02595
3018.93	0.02142
3028.58	0.01052
3038.22	0.00581
3047.87	0.00427
3057.51	0.00344
3067.16	0.00322
3076.8	0.00275
3086.45	0.00221
3096.09	0.00202
3105.74	0.00165
3115.38	0.00156
3125.03	0.001345
3134.67	0.0012438
3144.32	0.0012506
3153.96	0.0011207
3163.61	0.0009421
3173.25	0.0009171
3182.9	0.0007582
3192.54	0.0007903
3202.19	0.0005929
3211.83	0.0005702
3221.48	0.0005452
3231.12	0.00046269
3240.77	0.00043754
3250.41	0.00036346
3260.06	0.000234
3269.7	0.00038793
3279.35	0.00042494
3289	0.00044335
3298.64	0.00036124
3308.29	0.00040225
3317.93	0.0004743
3327.58	5.4e-05
3337.22	0.0002893
3346.87	0.00042715
3356.51	0.00041486
3366.16	0.00041006
3375.8	0.0003062
3385.45	0.000304
3395.09	0.000167
3404.74	0.000177
3414.38	0.000193
3424.03	0.0003106
3433.67	0.0003
3443.32	0.000195
3452.96	0.0002778
3462.61	0.000242
3472.25	0.000186
3481.9	0.0003493
3491.54	0.0003134
3501.19	0.000257
3510.83	0.00021
3520.48	0.000233
3530.12	0.000132
3539.77	0.000204
3549.41	0.0003152
3559.06	6.2e-05
3568.7	0.0003165
3578.35	0.0004748
3587.99	0.000185
3597.64	0.0003227
3607.28	0.0003189
3616.93	0.0003974
3626.57	0.0003391
3636.22	0.0006073
3645.86	0.0003144
3655.51	0.0003311
3665.15	0.0003308
3674.8	0.000377035
3684.44	0.00038411
3694.09	0.00043878
3703.73	0.00039012
3713.38	0.0003508
3723.02	0.000369928
3732.67	0.0003185
3742.31	0.0003441
3751.96	0.0004774
3761.6	0.00043664
3771.25	0.0003581
3780.89	0.000268
3790.54	0.00043358
3800.18	0.00041897
3809.83	0.00041013
3819.47	0.0003575
3829.12	0.0003423
3838.76	0.00041406
3848.41	0.00043041
3858.05	0.0004813
3867.7	0.00041384
3877.34	0.0004783
3886.99	0.00038289
3896.63	0.00038087
3906.28	0.0002708
3915.92	0.0002773
3925.57	0.0004703
3935.21	0.000218
3944.86	0.0002721
3954.5	0.00040445
3964.15	0.0004561
3973.79	0.0005452
3983.44	0.0005211
3993.08	0.0005059
