Infrared Spectrum: N-Acryloylsarcosine methyl ester
Formula: C 7 H 11 N O 3
CAS: 72065-23-7
State: gas
Origin: EPA-IR VAPOR PHASE LIBRARY
1/CM	ABSORBANCE
549.8	0.002657
559.445	0.003087
569.09	0.002947
578.735	0.002487
588.38	0.002297
598.025	0.002227
607.67	0.002187
617.315	0.002407
626.96	0.002657
636.605	0.002977
646.251	0.002707
655.896	0.002107
665.541	0.0016264
675.186	0.001747
684.831	0.002097
694.476	0.002517
704.121	0.003167
713.766	0.003197
723.411	0.002597
733.056	0.002007
742.701	0.001847
752.346	0.001937
761.991	0.002447
771.636	0.003867
781.281	0.006817
790.926	0.008547
800.571	0.005587
810.216	0.003027
819.861	0.002317
829.507	0.002867
839.152	0.003477
848.797	0.002727
858.442	0.002067
868.087	0.002247
877.732	0.002927
887.377	0.003207
897.022	0.002907
906.667	0.003167
916.312	0.004177
925.957	0.005867
935.602	0.008117
945.247	0.009627
954.892	0.010887
964.537	0.013217
974.182	0.015977
983.827	0.015587
993.472	0.013667
1003.12	0.014407
1012.76	0.018747
1022.41	0.021427
1032.05	0.017557
1041.7	0.012957
1051.34	0.012557
1060.99	0.012787
1070.63	0.011367
1080.28	0.011757
1089.92	0.015637
1099.57	0.021767
1109.21	0.027597
1118.86	0.028717
1128.5	0.026257
1138.15	0.025067
1147.79	0.027767
1157.44	0.034997
1167.08	0.048617
1176.73	0.067467
1186.37	0.082917
1196.02	0.091777
1205.66	0.083617
1215.31	0.057827
1224.95	0.041437
1234.6	0.036277
1244.24	0.036127
1253.89	0.036317
1263.53	0.034887
1273.18	0.033917
1282.82	0.029247
1292.47	0.021387
1302.11	0.016897
1311.76	0.013397
1321.4	0.011377
1331.05	0.011857
1340.69	0.013927
1350.34	0.019707
1359.98	0.029187
1369.63	0.032307
1379.27	0.027017
1388.92	0.022897
1398.56	0.029787
1408.21	0.047037
1417.85	0.048797
1427.5	0.035567
1437.14	0.035437
1446.79	0.040797
1456.43	0.036817
1466.08	0.026077
1475.73	0.018637
1485.37	0.014257
1495.02	0.011217
1504.66	0.009007
1514.31	0.007437
1523.95	0.006317
1533.6	0.005647
1543.24	0.005367
1552.89	0.005227
1562.53	0.005207
1572.18	0.005457
1581.82	0.005467
1591.47	0.005487
1601.11	0.006147
1610.76	0.007987
1620.4	0.011247
1630.05	0.013107
1639.69	0.012887
1649.34	0.014987
1658.98	0.024187
1668.63	0.050537
1678.27	0.096327
1687.92	0.103507
1697.56	0.050047
1707.21	0.019727
1716.85	0.014197
1726.5	0.014677
1736.14	0.018317
1745.79	0.027927
1755.43	0.054097
1765.08	0.076477
1774.72	0.064167
1784.37	0.036677
1794.01	0.015847
1803.66	0.008057
1813.3	0.005337
1822.95	0.003757
1832.59	0.002777
1842.24	0.002217
1851.88	0.001967
1861.53	0.001857
1871.17	0.001797
1880.82	0.001847
1890.46	0.001877
1900.11	0.001877
1909.75	0.002167
1919.4	0.002357
1929.04	0.002267
1938.69	0.001917
1948.33	0.0015536
1957.98	0.0014569
1967.62	0.0013591
1977.27	0.0013103
1986.91	0.0013024
1996.56	0.0013101
2006.2	0.0012902
2015.85	0.0013138
2025.49	0.0012909
2035.14	0.0012956
2044.78	0.0012425
2054.43	0.0012881
2064.07	0.0013192
2073.72	0.0013648
2083.36	0.0013158
2093.01	0.0011797
2102.65	0.0010331
2112.3	0.0010082
2121.94	0.0008983
2131.59	0.0008439
2141.23	0.00076717
2150.88	0.00075678
2160.52	0.00075096
2170.17	0.0006424
2179.81	0.00070816
2189.46	0.00076377
2199.1	0.000675
2208.75	0.00069407
2218.39	0.0006835
2228.04	0.0006612
2237.68	0.00074043
2247.33	0.0006346
2256.97	0.0006039
2266.62	0.000526
2276.26	0.000546
2285.91	0.000531
2295.55	0.000518
2305.2	0.000544
2314.84	0.000554
2324.49	0.000569
2334.13	0.0006028
2343.78	0.000585
2353.42	0.0006087
2363.07	0.0006523
2372.72	0.0007077
2382.36	0.0006403
2392.01	0.0006543
2401.65	0.0006503
2411.3	0.0006334
2420.94	0.000551
2430.59	0.000535
2440.23	0.0006061
2449.88	0.0006234
2459.52	0.0006165
2469.17	0.00069065
2478.81	0.0006166
2488.46	0.000529
2498.1	0.000473
2507.75	0.000453
2517.39	0.000475
2527.04	0.000413
2536.68	0.000421
2546.33	0.000483
2555.97	0.000465
2565.62	0.000504
2575.26	0.000481
2584.91	0.00058
2594.55	0.0006307
2604.2	0.000484
2613.84	0.00054
2623.49	0.000544
2633.13	0.000446
2642.78	0.000524
2652.42	0.000556
2662.07	0.000563
2671.71	0.000484
2681.36	0.000505
2691	0.000484
2700.65	0.0006032
2710.29	0.0006218
2719.94	0.000553
2729.58	0.000557
2739.23	0.000524
2748.87	0.0006148
2758.52	0.0006592
2768.16	0.00078387
2777.81	0.0008534
2787.45	0.0010958
2797.1	0.0012828
2806.74	0.0015338
2816.39	0.002187
2826.03	0.002857
2835.68	0.003927
2845.32	0.005397
2854.97	0.006017
2864.61	0.005367
2874.26	0.005357
2883.9	0.006117
2893.55	0.007267
2903.19	0.008977
2912.84	0.010937
2922.48	0.013777
2932.13	0.016967
2941.77	0.019307
2951.42	0.022367
2961.06	0.026047
2970.71	0.018647
2980.35	0.010657
2990	0.009017
2999.64	0.008597
3009.29	0.008137
3018.93	0.007697
3028.58	0.008197
3038.22	0.007737
3047.87	0.005917
3057.51	0.004567
3067.16	0.003937
3076.8	0.003637
3086.45	0.003377
3096.09	0.003647
3105.74	0.003937
3115.38	0.002507
3125.03	0.0013494
3134.67	0.0009521
3144.32	0.00074844
3153.96	0.0006339
3163.61	0.000479
3173.25	0.000273
3182.9	0.000142
3192.54	0.000131
3202.19	0.000258
3211.83	8.9e-05
3221.48	9.8e-05
3231.12	9.4e-05
3240.77	0.000166
3250.41	0.000198
3260.06	0.000239
3269.7	0.000185
3279.35	0.000254
3289	0.000179
3298.64	0.000331
3308.29	0.000461
3317.93	0.000525
3327.58	0.000548
3337.22	0.0007122
3346.87	0.0008368
3356.51	0.0008388
3366.16	0.00068966
3375.8	0.000541
3385.45	0.000456
3395.09	0.00031
3404.74	0.000214
3414.38	0.000132
3424.03	0.000299
3433.67	0.000302
3443.32	5.6e-05
3452.96	0.000318
3462.61	0.000322
3472.25	0.000271
3481.9	0.000361
3491.54	0.00075323
3501.19	0.00075877
3510.83	0.0008965
3520.48	0.0008596
3530.12	0.000546
3539.77	0.000565
3549.41	0.000375
3559.06	0.000206
3568.7	0.00022
3578.35	0.000287
3587.99	0.000344
3597.64	0.00036
3607.28	0.000223
3616.93	0.00024
3626.57	0.000172
3636.22	0.000114
3645.86	0.000263
3655.51	0.00038
3665.15	0.000201
3674.8	0.000223
3684.44	0.000304
3694.09	0.000337
3703.73	0.000376
3713.38	0.000273
3723.02	0.0002
3732.67	0.00019
3742.31	0.00027
3751.96	0.000296
3761.6	0.000253
3771.25	0.000265
3780.89	0.000372
3790.54	0.00028
3800.18	0.000381
3809.83	0.000267
3819.47	0.000186
3829.12	0.000293
3838.76	0.000182
3848.41	0.000181
3858.05	0.000401
3867.7	0.000273
3877.34	0.000325
3886.99	0.000289
3896.63	0.000341
3906.28	0.00053
3915.92	0.00037
3925.57	0.000349
3935.21	0.000327
3944.86	0.000396
3954.5	0.000405
3964.15	0.000385
3973.79	0.000507
3983.44	0.000366
3993.08	0.00033
