Infrared Spectrum: PENTANEDIOIC ACID, 2-BROMO-, DIETHYL ESTER
Formula: C9 H15 Br O4
CAS: 7209-00-9
State: LIQUID (NEAT)
Class: COBLENTZ III
Instrument: PERKIN-ELMER 21 (GRATING)
Instrument parameters: NaCl PRISM, FILTER CHANGE AT 1090 CM^-^1
Sampling: TRANSMISSION
Path length: CAPILLARY
Resolution: 2
Origin: SOUTHERN RESEARCH INSTITUTE (W.C. COBURN, JR.)
1/CM	TRANSMITTANCE
617.306	0.648
626.439	0.6508
635.573	0.66
644.706	0.66
653.839	0.658
662.972	0.657
672.106	0.6567
681.239	0.6793
690.372	0.6962
699.505	0.708
708.639	0.714
717.772	0.7234
726.905	0.7307
736.038	0.7513
745.172	0.767
754.305	0.767
763.438	0.767
772.572	0.7827
781.705	0.79
790.838	0.788
799.971	0.791
809.105	0.788
818.238	0.7936
827.371	0.8203
836.504	0.8328
845.638	0.8084
854.771	0.7603
863.904	0.7115
873.038	0.737
882.171	0.7926
891.304	0.81
900.437	0.8092
909.571	0.808
918.704	0.808
927.837	0.808
936.97	0.807
946.104	0.806
955.237	0.8039
964.37	0.8031
973.503	0.803
982.637	0.801
991.77	0.7941
1000.9	0.7806
1010.04	0.7516
1019.17	0.6686
1028.3	0.4769
1037.44	0.4922
1046.57	0.531
1055.7	0.597
1064.84	0.6825
1073.97	0.729
1083.1	0.7236
1092.24	0.6932
1101.37	0.6353
1110.5	0.6231
1119.64	0.6882
1128.77	0.704
1137.9	0.6906
1147.04	0.5332
1156.17	0.4052
1165.3	0.3189
1174.44	0.3442
1183.57	0.329
1192.7	0.3265
1201.84	0.3329
1210.97	0.3387
1220.1	0.3661
1229.24	0.4366
1238.37	0.4895
1247.5	0.4672
1256.63	0.4227
1265.77	0.3736
1274.9	0.339
1284.03	0.3595
1293.17	0.4552
1302.3	0.4698
1311.43	0.4585
1320.57	0.5019
1329.7	0.6091
1338.83	0.631
1347.97	0.6447
1357.1	0.6544
1366.23	0.6878
1375.37	0.6637
1384.5	0.472
1393.63	0.5436
1402.77	0.6032
1411.9	0.646
1421.03	0.7
1430.17	0.6826
1439.3	0.6736
1448.43	0.6619
1457.57	0.6101
1466.7	0.6747
1475.83	0.6652
1484.97	0.6916
1494.1	0.7286
1503.23	0.7902
1512.37	0.813
1521.5	0.819
1530.63	0.8238
1539.77	0.828
1548.9	0.828
1558.03	0.8253
1567.17	0.8347
1576.3	0.8267
1585.43	0.826
1594.57	0.8255
1603.7	0.825
1612.83	0.8246
1621.97	0.822
1631.1	0.816
1640.23	0.815
1649.37	0.8152
1658.5	0.8198
1667.63	0.8129
1676.77	0.8029
1685.9	0.777
1695.03	0.754
1704.16	0.7323
1713.3	0.6777
1722.43	0.5098
1731.56	0.1817
1740.7	0.086
1749.83	0.1349
1758.96	0.3002
1768.1	0.5528
1777.23	0.7141
1786.36	0.7635
1795.5	0.7794
1804.63	0.7991
1813.76	0.8116
1822.9	0.8192
1832.03	0.824
1841.16	0.8292
1850.3	0.834
1859.43	0.833
1868.56	0.83
1877.7	0.83
1886.83	0.8329
1895.96	0.833
1905.1	0.8388
1914.23	0.8416
1923.36	0.8396
1932.5	0.841
1941.63	0.8398
1950.76	0.8375
1959.9	0.841
1969.03	0.841
1978.16	0.841
1987.3	0.8403
1996.43	0.839
2005.56	0.838
2014.7	0.8305
2023.83	0.839
2032.96	0.841
2042.1	0.842
2051.23	0.842
2060.36	0.838
2069.5	0.8395
2078.63	0.842
2087.76	0.843
2096.9	0.846
2106.03	0.846
2115.16	0.842
2124.3	0.844
2133.43	0.844
2142.56	0.844
2151.7	0.844
2160.83	0.844
2169.96	0.844
2179.09	0.844
2188.23	0.843
2197.36	0.8463
2206.49	0.8463
2215.63	0.8395
2224.76	0.844
2233.89	0.846
2243.03	0.844
2252.16	0.8417
2261.29	0.838
2270.43	0.8433
2279.56	0.844
2288.69	0.847
2297.83	0.842
2306.96	0.843
2316.09	0.85
2325.23	0.8513
2334.36	0.8513
2343.49	0.852
2352.63	0.852
2361.76	0.852
2370.89	0.852
2380.03	0.8517
2389.16	0.846
2398.29	0.844
2407.43	0.844
2416.56	0.8455
2425.69	0.847
2434.83	0.8467
2443.96	0.847
2453.09	0.847
2462.23	0.8473
2471.36	0.848
2480.49	0.85
2489.63	0.852
2498.76	0.8517
2507.89	0.851
2517.03	0.851
2526.16	0.8507
2535.29	0.848
2544.43	0.8478
2553.56	0.8553
2562.69	0.856
2571.83	0.8557
2580.96	0.852
2590.09	0.852
2599.23	0.8505
2608.36	0.851
2617.49	0.8525
2626.63	0.854
2635.76	0.852
2644.89	0.857
2654.02	0.8547
2663.16	0.8525
2672.29	0.8553
2681.42	0.856
2690.56	0.857
2699.69	0.857
2708.82	0.857
2717.96	0.8567
2727.09	0.855
2736.22	0.856
2745.36	0.8535
2754.49	0.8477
2763.62	0.8477
2772.76	0.846
2781.89	0.846
2791.02	0.848
2800.16	0.848
2809.29	0.85
2818.42	0.8507
2827.56	0.8455
2836.69	0.842
2845.82	0.8347
2854.96	0.829
2864.09	0.8193
2873.22	0.811
2882.36	0.8067
2891.49	0.8017
2900.62	0.7875
2909.76	0.757
2918.89	0.7445
2928.02	0.7483
2937.16	0.726
2946.29	0.715
2955.42	0.7087
2964.56	0.7015
2973.69	0.6762
2982.82	0.624
2991.96	0.591
3001.09	0.6025
3010.22	0.6511
3019.36	0.7146
3028.49	0.773
3037.62	0.7918
3046.76	0.8123
3055.89	0.8225
3065.02	0.8253
3074.16	0.833
3083.29	0.832
3092.42	0.833
3101.56	0.8355
3110.69	0.8395
3119.82	0.8372
3128.95	0.834
3138.09	0.8413
3147.22	0.842
3156.35	0.842
3165.49	0.842
3174.62	0.8405
3183.75	0.837
3192.89	0.837
3202.02	0.837
3211.15	0.838
3220.29	0.838
3229.42	0.837
3238.55	0.844
3247.69	0.8427
3256.82	0.841
3265.95	0.841
3275.09	0.833
3284.22	0.842
3293.35	0.843
3302.49	0.8412
3311.62	0.8405
3320.75	0.8405
3329.89	0.841
3339.02	0.841
3348.15	0.8365
3357.29	0.833
3366.42	0.834
3375.55	0.832
3384.69	0.841
3393.82	0.842
3402.95	0.838
3412.09	0.838
3421.22	0.8365
3430.35	0.832
3439.49	0.8315
3448.62	0.832
3457.75	0.828
3466.89	0.828
3476.02	0.829
3485.15	0.83
3494.29	0.8305
3503.42	0.833
3512.55	0.833
3521.69	0.833
3530.82	0.833
3539.95	0.833
3549.09	0.832
3558.22	0.832
3567.35	0.834
3576.49	0.834
3585.62	0.832
3594.75	0.833
3603.88	0.833
3613.02	0.8355
3622.15	0.8395
3631.28	0.8377
3640.42	0.837
3649.55	0.839
3658.68	0.8315
3667.82	0.825
3676.95	0.8253
3686.08	0.832
3695.22	0.832
3704.35	0.832
3713.48	0.8333
3722.62	0.8355
3731.75	0.8395
3740.88	0.848
3750.02	0.848
3759.15	0.851
3768.28	0.851
3777.42	0.848
3786.55	0.8412
3795.68	0.829
3804.82	0.833
3813.95	0.835
3823.08	0.8395
3832.22	0.85
3841.35	0.8477
3850.48	0.8463
3859.62	0.8473
3868.75	0.852
3877.88	0.8517
3887.02	0.8477
3896.15	0.8417
3905.28	0.835
3914.42	0.833
3923.55	0.832
3932.68	0.832
3941.82	0.833
3950.95	0.835
3960.08	0.835
3969.22	0.835
3978.35	0.839
3987.48	0.842
3996.62	0.842
4005.75	0.843
4014.88	0.8437
4024.02	0.844
