Infrared Spectrum: Prilocaine
Formula: C 13 H 20 N 2 O
CAS: 721-50-6
State: gas
Instrument: HP-GC/MS/IRD
Origin: NIST Mass Spectrometry Data Center
1/CM	ABSORBANCE
550	0.0009971
562	0.0004758
574	0.0006162
586	0.0005538
598	0.0004524
610	0.0004992
622	0.0004797
634	0.0004758
646	0.0005603
658	0.0006669
670	0.0007644
682	0.0008177
694	0.0008658
706	0.0011752
718	0.0013676
730	0.0020618
742	0.0038532
754	0.0035815
766	0.0011869
778	0.0006656
790	0.0005083
802	0.0003172
814	0.0002223
826	8.32e-05
838	6.76e-05
850	0.0001079
862	0.0001677
874	0.0001482
886	0.0001742
898	0.0002613
910	0.0003549
922	0.0003159
934	0.0003484
946	0.0002587
958	0.0001391
970	0.0001326
982	0.0002821
994	0.0004615
1006	0.0004082
1018	0.0004693
1030	0.0007475
1042	0.0011492
1054	0.0010296
1066	0.0008333
1078	0.0008242
1090	0.0008034
1102	0.0009542
1114	0.0019006
1126	0.0029731
1138	0.0030173
1150	0.0025753
1162	0.0020046
1174	0.0013624
1186	0.0012402
1198	0.0011791
1210	0.0009971
1222	0.0009633
1234	0.0015093
1246	0.0022724
1258	0.001534
1270	0.0013208
1282	0.0019396
1294	0.0032448
1306	0.0024102
1318	0.0016302
1330	0.0012207
1342	0.0009542
1354	0.0009997
1366	0.0014729
1378	0.0020787
1390	0.0017992
1402	0.0014963
1414	0.001859
1426	0.0029094
1438	0.0058227
1450	0.0103272
1462	0.0086801
1474	0.0065754
1486	0.0071773
1498	0.0089908
1510	0.0115739
1522	0.0125203
1534	0.0065897
1546	0.0030784
1558	0.0019487
1570	0.0020202
1582	0.0036777
1594	0.0035035
1606	0.0016757
1618	0.0009178
1630	0.0007098
1642	0.0006227
1654	0.0006851
1666	0.0009321
1678	0.0013806
1690	0.0022334
1702	0.005083
1714	0.0110851
1726	0.0084331
1738	0.0027586
1750	0.0012337
1762	0.0007709
1774	0.0005499
1786	0.0004459
1798	0.0003367
1810	0.0002223
1822	0.0001911
1834	0.0001456
1846	9.88e-05
1858	9.75e-05
1870	9.49e-05
1882	0.0001053
1894	0.0001365
1906	0.0001469
1918	0.0001131
1930	0.0001248
1942	0.0001248
1954	6.37e-05
1966	1.04e-05
1978	3.12e-05
1990	3.38e-05
2002	1.3e-05
2014	3.51e-05
2026	3.38e-05
2038	2.73e-05
2050	7.8e-06
2062	3.9e-06
2074	3.12e-05
2086	4.16e-05
2098	3.9e-05
2110	2.99e-05
2122	3.25e-05
2134	6.76e-05
2146	4.42e-05
2158	3.12e-05
2170	3.25e-05
2182	3.64e-05
2194	5.98e-05
2206	3.64e-05
2218	3.51e-05
2230	4.29e-05
2242	3.38e-05
2254	4.81e-05
2266	6.89e-05
2278	7.28e-05
2290	7.28e-05
2302	5.85e-05
2314	7.41e-05
2326	7.28e-05
2338	5.07e-05
2350	6.76e-05
2362	6.24e-05
2374	5.72e-05
2386	6.37e-05
2398	5.72e-05
2410	5.98e-05
2422	8.32e-05
2434	5.46e-05
2446	8.06e-05
2458	7.02e-05
2470	6.76e-05
2482	4.03e-05
2494	3.12e-05
2506	4.81e-05
2518	2.86e-05
2530	6.37e-05
2542	3.38e-05
2554	9.62e-05
2566	8.32e-05
2578	8.84e-05
2590	0.0001157
2602	0.0001079
2614	7.54e-05
2626	8.06e-05
2638	9.49e-05
2650	0.0001105
2662	6.76e-05
2674	0.0001196
2686	0.0001209
2698	0.0001495
2710	0.000195
2722	0.0002353
2734	0.0002639
2746	0.0002899
2758	0.0002977
2770	0.0003224
2782	0.0003666
2794	0.0004797
2806	0.0006604
2818	0.001001
2830	0.0015522
2842	0.0020384
2854	0.0021047
2866	0.0027625
2878	0.0035516
2890	0.003484
2902	0.0030472
2914	0.0032604
2926	0.0043303
2938	0.0055484
2950	0.004407
2962	0.0050778
2974	0.0060528
2986	0.0036283
2998	0.0020397
3010	0.0012194
3022	0.001339
3034	0.001469
3046	0.0013468
3058	0.0015431
3070	0.0018109
3082	0.0013624
3094	0.0007657
3106	0.0004784
3118	0.0003575
3130	0.0002743
3142	0.0002106
3154	0.0001794
3166	0.000182
3178	0.0001768
3190	0.0001482
3202	0.0001703
3214	0.0001326
3226	0.0001443
3238	0.0001378
3250	0.000208
3262	0.0001885
3274	0.0002717
3286	0.0003224
3298	0.0004082
3310	0.0005707
3322	0.0007735
3334	0.0010751
3346	0.001833
3358	0.0029562
3370	0.002704
3382	0.0016302
3394	0.0010556
3406	0.000741
3418	0.0005096
3430	0.0004095
3442	0.000338
3454	0.0003029
3466	0.0002704
3478	0.000208
3490	0.0001105
3502	9.1e-05
3514	9.23e-05
3526	0.0001079
3538	9.36e-05
3550	5.72e-05
3562	7.02e-05
3574	8.06e-05
3586	7.67e-05
3598	0.0001014
3610	4.55e-05
3622	8.45e-05
3634	0.0001066
3646	5.59e-05
3658	9.49e-05
3670	7.15e-05
3682	8.71e-05
3694	2.6e-05
3706	8.32e-05
3718	7.02e-05
3730	3.9e-05
3742	8.58e-05
3754	8.97e-05
3766	6.5e-05
3778	0.0001209
3790	0.0001157
3802	9.23e-05
3814	7.54e-05
3826	0.0001248
3838	0.000104
