Infrared Spectrum: 3-(Trifluoromethyl)-.alpha.,.alpha.,.alpha.-trifluoroacetophenone
Formula: C 9 H 4 F 6 O
CAS: 721-37-9
State: gas
Origin: EPA-IR VAPOR PHASE LIBRARY
1/CM	ABSORBANCE
549.8	0.0013647
559.445	0.00103095
569.09	0.001687
578.735	0.00251
588.38	0.0024
598.025	0.00226
607.67	0.0029
617.315	0.00208
626.96	0.0012391
636.605	0.00202
646.251	0.00616
655.896	0.00586
665.541	0.0041
675.186	0.0154
684.831	0.05284
694.476	0.04548
704.121	0.01418
713.766	0.00477
723.411	0.00325
733.056	0.00444
742.701	0.0129
752.346	0.01746
761.991	0.01603
771.636	0.00644
781.281	0.00352
790.926	0.0041
800.571	0.0071
810.216	0.01065
819.861	0.00769
829.507	0.00214
839.152	0.0014394
848.797	0.0011468
858.442	0.0011468
868.087	0.0012981
877.732	0.0015926
887.377	0.0018014
897.022	0.00228
906.667	0.004
916.312	0.00598
925.957	0.00663
935.602	0.00627
945.247	0.00976
954.892	0.02847
964.537	0.03224
974.182	0.02384
983.827	0.01463
993.472	0.00451
1003.12	0.00352
1012.76	0.0028
1022.41	0.00258
1032.05	0.00278
1041.7	0.00329
1051.34	0.00448
1060.99	0.00805
1070.63	0.02481
1080.28	0.04174
1089.92	0.02441
1099.57	0.02221
1109.21	0.01624
1118.86	0.01908
1128.5	0.03078
1138.15	0.06731
1147.79	0.17176
1157.44	0.29718
1167.08	0.35046
1176.73	0.35528
1186.37	0.17869
1196.02	0.09608
1205.66	0.12543
1215.31	0.14236
1224.95	0.06691
1234.6	0.03026
1244.24	0.01541
1253.89	0.01137
1263.53	0.01046
1273.18	0.01096
1282.82	0.01478
1292.47	0.02059
1302.11	0.04066
1311.76	0.07414
1321.4	0.08006
1331.05	0.07661
1340.69	0.07833
1350.34	0.03054
1359.98	0.0093
1369.63	0.00531
1379.27	0.00386
1388.92	0.00325
1398.56	0.00309
1408.21	0.00315
1417.85	0.00329
1427.5	0.00586
1437.14	0.01121
1446.79	0.00518
1456.43	0.0019414
1466.08	0.0017213
1475.73	0.0019012
1485.37	0.00251
1495.02	0.00249
1504.66	0.0017963
1514.31	0.0015484
1523.95	0.0012894
1533.6	0.0011605
1543.24	0.0012193
1552.89	0.0012782
1562.53	0.0016372
1572.18	0.00207
1581.82	0.00334
1591.47	0.00564
1601.11	0.00734
1610.76	0.01287
1620.4	0.00955
1630.05	0.00395
1639.69	0.00236
1649.34	0.00205
1658.98	0.00203
1668.63	0.0019211
1678.27	0.00222
1687.92	0.00312
1697.56	0.00442
1707.21	0.00601
1716.85	0.01124
1726.5	0.03035
1736.14	0.07273
1745.79	0.04909
1755.43	0.01606
1765.08	0.00845
1774.72	0.0051
1784.37	0.00315
1794.01	0.00228
1803.66	0.0018807
1813.3	0.00201
1822.95	0.00208
1832.59	0.0017721
1842.24	0.0016981
1851.88	0.001589
1861.53	0.0014213
1871.17	0.0013532
1880.82	0.0012959
1890.46	0.0014008
1900.11	0.0017466
1909.75	0.00241
1919.4	0.0022
1929.04	0.0017179
1938.69	0.0012763
1948.33	0.0012692
1957.98	0.001566
1967.62	0.0017792
1977.27	0.0013903
1986.91	0.0009865
1996.56	0.0009081
2006.2	0.000871
2015.85	0.000842
2025.49	0.000771
2035.14	0.000804
2044.78	0.000822
2054.43	0.000845
2064.07	0.000806
2073.72	0.000871
2083.36	0.000878
2093.01	0.000846
2102.65	0.0009342
2112.3	0.00108442
2121.94	0.0010923
2131.59	0.0011201
2141.23	0.00107418
2150.88	0.00104806
2160.52	0.0009914
2170.17	0.000863
2179.81	0.000882
2189.46	0.0009118
2199.1	0.0009092
2208.75	0.0009096
2218.39	0.0009777
2228.04	0.00106573
2237.68	0.0011526
2247.33	0.0011944
2256.97	0.0013045
2266.62	0.0013334
2276.26	0.0014443
2285.91	0.0015704
2295.55	0.0017405
2305.2	0.0016845
2314.84	0.0015807
2324.49	0.0014511
2334.13	0.0015008
2343.78	0.0014859
2353.42	0.0015672
2363.07	0.0016055
2372.72	0.0015105
2382.36	0.0012949
2392.01	0.0012549
2401.65	0.0011082
2411.3	0.0011111
2420.94	0.0011318
2430.59	0.00105892
2440.23	0.0009691
2449.88	0.000972
2459.52	0.00102561
2469.17	0.0011598
2478.81	0.0012016
2488.46	0.0012204
2498.1	0.0012294
2507.75	0.0012746
2517.39	0.0012479
2527.04	0.0012139
2536.68	0.0011149
2546.33	0.0009834
2555.97	0.0009623
2565.62	0.000832
2575.26	0.00088
2584.91	0.0009031
2594.55	0.0009201
2604.2	0.0009398
2613.84	0.0009654
2623.49	0.000876
2633.13	0.000888
2642.78	0.000786
2652.42	0.000749
2662.07	0.000809
2671.71	0.000788
2681.36	0.000774
2691	0.000709
2700.65	0.000767
2710.29	0.000743
2719.94	0.000794
2729.58	0.000771
2739.23	0.000708
2748.87	0.000753
2758.52	0.000787
2768.16	0.0009064
2777.81	0.000826
2787.45	0.000843
2797.1	0.000769
2806.74	0.000764
2816.39	0.000587
2826.03	0.000662
2835.68	0.000642
2845.32	0.00058
2854.97	0.000557
2864.61	0.000585
2874.26	0.000459
2883.9	0.000625
2893.55	0.000594
2903.19	0.00059
2912.84	0.000786
2922.48	0.000664
2932.13	0.000791
2941.77	0.000748
2951.42	0.000854
2961.06	0.000657
2970.71	0.000639
2980.35	0.000543
2990	0.000548
2999.64	0.000516
3009.29	0.000369
3018.93	0.000494
3028.58	0.000593
3038.22	0.000772
3047.87	0.000862
3057.51	0.0009421
3067.16	0.0014261
3076.8	0.00292
3086.45	0.00384
3096.09	0.00248
3105.74	0.0012659
3115.38	0.000685
3125.03	0.000497
3134.67	0.000396
3144.32	0.000229
3153.96	0.000444
3163.61	0.000471
3173.25	0.000479
3182.9	0.000389
3192.54	0.000342
3202.19	0.000409
3211.83	0.000438
3221.48	0.0003
3231.12	0.000319
3240.77	0.000209
3250.41	0.000287
3260.06	0.000216
3269.7	0.000246
3279.35	0.000325
3289	0.000153
3298.64	0.000129
3308.29	0.000128
3317.93	0.000295
3327.58	0.000221
3337.22	0.000215
3346.87	0.000295
3356.51	0.000211
3366.16	0.000236
3375.8	0.000177
3385.45	0.000186
3395.09	0.000264
3404.74	0.000375
3414.38	0.000356
3424.03	0.000629
3433.67	0.000672
3443.32	0.0009414
3452.96	0.0013212
3462.61	0.0012401
3472.25	0.00084
3481.9	0.000562
3491.54	0.000442
3501.19	0.000432
3510.83	0.000212
3520.48	0.000515
3530.12	0.000296
3539.77	0.000345
3549.41	0.000235
3559.06	0.000192
3568.7	0.000253
3578.35	0.000277
3587.99	0.000335
3597.64	0.000211
3607.28	0.000353
3616.93	0.000151
3626.57	0.000397
3636.22	0.00037
3645.86	0.000208
3655.51	0.000178
3665.15	0.000437
3674.8	0.000261
3684.44	0.000324
3694.09	0.000345
3703.73	0.000554
3713.38	0.000469
3723.02	0.000372
3732.67	0.000358
3742.31	0.000527
3751.96	0.000482
3761.6	0.000541
3771.25	0.000478
3780.89	0.000658
3790.54	0.000622
3800.18	0.000459
3809.83	0.000476
3819.47	0.000517
3829.12	0.000371
3838.76	0.000361
3848.41	0.000489
3858.05	0.000358
3867.7	0.000412
3877.34	0.000564
3886.99	0.000405
3896.63	0.000425
3906.28	0.000598
3915.92	0.000592
3925.57	0.000419
3935.21	0.000515
3944.86	0.000635
3954.5	0.000656
3964.15	0.000551
3973.79	0.000576
3983.44	0.000502
3993.08	0.000792
