Infrared Spectrum: 3-Hydroxy-3,7,11-trimethyl-1,6,10-dodecatriene
Formula: C 15 H 26 O
CAS: 7212-44-4
State: gas
Origin: EPA-IR VAPOR PHASE LIBRARY
1/CM	ABSORBANCE
549.8	0.00832
559.445	0.00848
569.09	0.00824
578.734	0.00796
588.379	0.00746
598.024	0.00734
607.669	0.00539
617.313	0.00454
626.958	0.00368
636.603	0.00356
646.248	0.004
655.893	0.00479
665.537	0.0063
675.182	0.00939
684.827	0.01235
694.472	0.01064
704.116	0.00827
713.761	0.00732
723.406	0.00712
733.051	0.00768
742.695	0.00824
752.34	0.0078
761.985	0.00735
771.63	0.0077
781.275	0.0084
790.919	0.0099
800.564	0.01235
810.209	0.01481
819.854	0.01877
829.498	0.02356
839.143	0.02238
848.788	0.01796
858.433	0.01533
868.078	0.01444
877.722	0.01604
887.367	0.01955
897.012	0.02694
906.657	0.041
916.301	0.06917
925.946	0.07555
935.591	0.04318
945.236	0.03238
954.88	0.02768
964.525	0.02514
974.17	0.02588
983.815	0.03186
993.46	0.04318
1003.1	0.0346
1012.75	0.02645
1022.39	0.02336
1032.04	0.0216
1041.68	0.02095
1051.33	0.02222
1060.97	0.02546
1070.62	0.03075
1080.26	0.03621
1089.91	0.0428
1099.55	0.05132
1109.2	0.05491
1118.84	0.04642
1128.49	0.03831
1138.13	0.03409
1147.78	0.03451
1157.42	0.03564
1167.07	0.03548
1176.71	0.03596
1186.36	0.03583
1196	0.03381
1205.64	0.0317
1215.29	0.02946
1224.93	0.02846
1234.58	0.02771
1244.22	0.02662
1253.87	0.02589
1263.51	0.02568
1273.16	0.02539
1282.8	0.02607
1292.45	0.0276
1302.09	0.02928
1311.74	0.03066
1321.38	0.03046
1331.03	0.02908
1340.67	0.02866
1350.32	0.03161
1359.96	0.03473
1369.61	0.04786
1379.25	0.06098
1388.9	0.04886
1398.54	0.03513
1408.18	0.03693
1417.83	0.03741
1427.47	0.03401
1437.12	0.04132
1446.76	0.04733
1456.41	0.04442
1466.05	0.03189
1475.7	0.02029
1485.34	0.01403
1494.99	0.0108
1504.63	0.0091
1514.28	0.00818
1523.92	0.00769
1533.57	0.00731
1543.21	0.00707
1552.86	0.00669
1562.5	0.00634
1572.15	0.00594
1581.79	0.00591
1591.44	0.006
1601.08	0.00633
1610.73	0.00645
1620.37	0.00703
1630.01	0.00883
1639.66	0.01103
1649.3	0.0104
1658.95	0.00982
1668.59	0.00878
1678.24	0.00594
1687.88	0.00405
1697.53	0.00335
1707.17	0.00277
1716.82	0.0024
1726.46	0.00205
1736.11	0.00197
1745.75	0.00187
1755.4	0.00177
1765.04	0.00176
1774.69	0.00169
1784.33	0.00182
1793.98	0.00188
1803.62	0.00196
1813.27	0.00225
1822.91	0.00275
1832.55	0.00389
1842.2	0.00578
1851.84	0.00554
1861.49	0.00369
1871.13	0.00247
1880.78	0.00194
1890.42	0.00169
1900.07	0.00151
1909.71	0.00156
1919.36	0.00146
1929	0.00138
1938.65	0.00142
1948.29	0.00145
1957.94	0.00145
1967.58	0.00157
1977.23	0.00161
1986.87	0.00147
1996.52	0.00134
2006.16	0.00127
2015.81	0.00128
2025.45	0.00133
2035.1	0.00123
2044.74	0.00128
2054.38	0.00122
2064.03	0.00126
2073.67	0.00129
2083.32	0.0013
2092.96	0.00118
2102.61	0.00115
2112.25	0.00113
2121.9	0.00114
2131.54	0.00123
2141.19	0.00115
2150.83	0.00113
2160.48	0.00111
2170.12	0.00117
2179.77	0.00113
2189.41	0.00114
2199.06	0.00113
2208.7	0.00106
2218.35	0.00101
2227.99	0.0009652
2237.64	0.00103
2247.28	0.00102
2256.92	0.0009635
2266.57	0.00103
2276.21	0.00101
2285.86	0.00111
2295.5	0.00112
2305.15	0.00114
2314.79	0.00111
2324.44	0.0012
2334.08	0.00127
2343.73	0.00118
2353.37	0.00131
2363.02	0.00129
2372.66	0.00138
2382.31	0.00143
2391.95	0.00151
2401.6	0.00149
2411.24	0.00153
2420.89	0.00161
2430.53	0.00152
2440.18	0.00156
2449.82	0.00155
2459.47	0.00157
2469.11	0.00158
2478.75	0.00156
2488.4	0.00154
2498.04	0.00164
2507.69	0.00163
2517.33	0.00143
2526.98	0.00164
2536.62	0.00166
2546.27	0.00165
2555.91	0.00173
2565.56	0.00201
2575.2	0.00208
2584.85	0.00201
2594.49	0.00202
2604.14	0.00204
2613.78	0.00208
2623.43	0.00209
2633.07	0.00223
2642.72	0.00244
2652.36	0.00272
2662.01	0.00268
2671.65	0.00284
2681.29	0.00329
2690.94	0.00351
2700.58	0.00384
2710.23	0.00421
2719.87	0.00518
2729.52	0.00676
2739.16	0.00819
2748.81	0.00735
2758.45	0.00662
2768.1	0.00686
2777.74	0.00722
2787.39	0.00853
2797.03	0.01037
2806.68	0.01324
2816.32	0.01709
2825.97	0.02361
2835.61	0.03637
2845.26	0.0599
2854.9	0.09001
2864.55	0.10784
2874.19	0.10757
2883.84	0.10759
2893.48	0.12109
2903.12	0.1446
2912.77	0.18121
2922.41	0.2215
2932.06	0.22944
2941.7	0.18936
2951.35	0.14279
2960.99	0.13639
2970.64	0.16537
2980.28	0.17608
2989.93	0.13553
2999.57	0.08909
3009.22	0.06798
3018.86	0.05654
3028.51	0.04369
3038.15	0.03557
3047.8	0.03068
3057.44	0.02668
3067.09	0.02346
3076.73	0.02231
3086.38	0.02707
3096.02	0.0276
3105.67	0.01414
3115.31	0.00867
3124.95	0.00642
3134.6	0.00519
3144.24	0.00421
3153.89	0.00358
3163.53	0.00314
3173.18	0.00262
3182.82	0.00252
3192.47	0.00242
3202.11	0.00238
3211.76	0.00224
3221.4	0.00214
3231.05	0.00207
3240.69	0.00177
3250.34	0.00175
3259.98	0.00154
3269.63	0.00147
3279.27	0.0016
3288.92	0.00152
3298.56	0.00159
3308.21	0.00155
3317.85	0.00159
3327.49	0.00165
3337.14	0.00164
3346.78	0.00165
3356.43	0.00166
3366.07	0.00165
3375.72	0.00195
3385.36	0.00187
3395.01	0.00166
3404.65	0.00195
3414.3	0.00172
3423.94	0.0017
3433.59	0.00182
3443.23	0.00142
3452.88	0.0014
3462.52	0.0013
3472.17	0.0014
3481.81	0.00126
3491.46	0.00129
3501.1	0.00134
3510.75	0.00136
3520.39	0.00132
3530.04	0.00164
3539.68	0.00221
3549.32	0.0028
3558.97	0.00422
3568.61	0.00637
3578.26	0.00756
3587.9	0.00783
3597.55	0.00752
3607.19	0.00692
3616.84	0.00758
3626.48	0.012
3636.13	0.01784
3645.77	0.01124
3655.42	0.00521
3665.06	0.00273
3674.71	0.00208
3684.35	0.00157
3694	0.00125
3703.64	0.00136
3713.29	0.00123
3722.93	0.00119
3732.58	0.00109
3742.22	0.00132
3751.86	0.00119
3761.51	0.00134
3771.15	0.00114
3780.8	0.00122
3790.44	0.00135
3800.09	0.00132
3809.73	0.0014
3819.38	0.00142
3829.02	0.0017
3838.67	0.00171
3848.31	0.00177
3857.96	0.00183
3867.6	0.00202
3877.25	0.00211
3886.89	0.00205
3896.54	0.00171
3906.18	0.00176
3915.83	0.00165
3925.47	0.00157
3935.12	0.00166
3944.76	0.00136
3954.41	0.00136
3964.05	0.00154
3973.69	0.00132
3983.34	0.00147
3992.98	0.0015
