Infrared Spectrum: 5-Methyl-1-heptanol
Formula: C 8 H 18 O
CAS: 7212-53-5
State: gas
Instrument: HP-GC/MS/IRD
Origin: NIST Mass Spectrometry Data Center
1/CM	ABSORBANCE
550	0.000279
562	0.0001364
574	2.17e-05
586	0.0001798
598	8.06e-05
610	0.0001395
622	0.0001054
634	7.13e-05
646	0.000124
658	0.0001333
670	5.27e-05
682	0.0001364
694	0.000124
706	0.0001364
718	0.0002976
730	0.0002976
742	0.0003007
754	0.0003131
766	0.0004216
778	0.0004836
790	0.0004588
802	0.0003565
814	0.0003906
826	0.0005704
838	0.0004123
850	0.0004278
862	0.0005146
874	0.0005394
886	0.0006386
898	0.0007347
910	0.0010106
922	0.0012865
934	0.0014198
946	0.0015221
958	0.0017019
970	0.0019561
982	0.0021886
994	0.0027404
1006	0.0038471
1018	0.0054374
1030	0.0072509
1042	0.0084661
1054	0.0079329
1066	0.0059675
1078	0.0041726
1090	0.0026629
1102	0.0019282
1114	0.0016492
1126	0.0013547
1138	0.0012369
1150	0.0012989
1162	0.0012958
1174	0.0012214
1186	0.001271
1198	0.0013082
1210	0.001395
1222	0.0014663
1234	0.0015159
1246	0.0015934
1258	0.0016182
1270	0.0016151
1282	0.0015562
1294	0.0015314
1306	0.0015097
1318	0.0014601
1330	0.0015159
1342	0.0018104
1354	0.0021421
1366	0.0027094
1378	0.0039773
1390	0.0039835
1402	0.0022196
1414	0.0014136
1426	0.0013206
1438	0.0018321
1450	0.0029605
1462	0.004123
1474	0.0033387
1486	0.0017112
1498	0.0008029
1510	0.0004867
1522	0.0003751
1534	0.0002666
1546	0.0002139
1558	0.0002418
1570	0.0001829
1582	0.0001457
1594	0.0001302
1606	0.0001209
1618	0.0001085
1630	0.0001023
1642	8.06e-05
1654	0.0001178
1666	8.68e-05
1678	8.99e-05
1690	6.82e-05
1702	7.13e-05
1714	4.96e-05
1726	1.86e-05
1738	4.65e-05
1750	4.96e-05
1762	2.79e-05
1774	3.41e-05
1786	2.48e-05
1798	2.17e-05
1810	9.3e-06
1822	1.24e-05
1834	6.2e-06
1846	1.55e-05
1858	1.24e-05
1870	1.86e-05
1882	1.24e-05
1894	2.17e-05
1906	1.86e-05
1918	3.41e-05
1930	2.17e-05
1942	3.72e-05
1954	2.48e-05
1966	1.86e-05
1978	3.41e-05
1990	2.48e-05
2002	3.72e-05
2014	2.79e-05
2026	4.65e-05
2038	5.27e-05
2050	8.68e-05
2062	6.82e-05
2074	6.82e-05
2086	3.72e-05
2098	2.79e-05
2110	2.79e-05
2122	9.3e-06
2134	3.1e-06
2146	2.48e-05
2158	2.17e-05
2170	2.79e-05
2182	1.24e-05
2194	1.24e-05
2206	1.24e-05
2218	1.86e-05
2230	2.17e-05
2242	9.3e-06
2254	3.72e-05
2266	3.41e-05
2278	3.72e-05
2290	5.58e-05
2302	4.34e-05
2314	5.58e-05
2326	8.06e-05
2338	9.61e-05
2350	8.37e-05
2362	8.37e-05
2374	0.0001054
2386	9.92e-05
2398	7.13e-05
2410	7.44e-05
2422	8.99e-05
2434	8.99e-05
2446	8.68e-05
2458	7.75e-05
2470	9.92e-05
2482	6.82e-05
2494	7.44e-05
2506	8.99e-05
2518	8.06e-05
2530	8.37e-05
2542	0.0001302
2554	0.0001271
2566	0.0001488
2578	0.0002046
2590	0.000248
2602	0.0002821
2614	0.0002759
2626	0.0002945
2638	0.0003162
2650	0.0003503
2662	0.0003906
2674	0.0004619
2686	0.0005177
2698	0.0005549
2710	0.0006107
2722	0.0006975
2734	0.0008122
2746	0.0009083
2758	0.00093
2770	0.0010044
2782	0.0011501
2794	0.0013795
2806	0.0017019
2818	0.0021483
2830	0.002976
2842	0.0048422
2854	0.0087761
2866	0.0137609
2878	0.0174034
2890	0.0170097
2902	0.0172422
2914	0.0228935
2926	0.0290315
2938	0.0307489
2950	0.0260772
2962	0.0260369
2974	0.0220751
2986	0.0092132
2998	0.0038161
3010	0.0022599
3022	0.0015562
3034	0.001209
3046	0.001023
3058	0.0008587
3070	0.0007688
3082	0.0006789
3094	0.0005704
3106	0.0004743
3118	0.0003999
3130	0.0003689
3142	0.0003348
3154	0.0003286
3166	0.0003193
3178	0.0002573
3190	0.0002325
3202	0.0001395
3214	0.000124
3226	7.75e-05
3238	5.89e-05
3250	4.65e-05
3262	1.86e-05
3274	4.65e-05
3286	6.51e-05
3298	3.1e-05
3310	1.55e-05
3322	1.24e-05
3334	5.27e-05
3346	3.41e-05
3358	2.48e-05
3370	4.34e-05
3382	3.41e-05
3394	2.48e-05
3406	5.27e-05
3418	9.92e-05
3430	0.0001085
3442	0.0001023
3454	0.0001023
3466	0.0001178
3478	9.3e-05
3490	7.13e-05
3502	8.06e-05
3514	5.58e-05
3526	5.27e-05
3538	0.0001085
3550	7.13e-05
3562	0.0001085
3574	9.92e-05
3586	8.68e-05
3598	9.92e-05
3610	0.0001581
3622	0.0002542
3634	0.0004619
3646	0.0009362
3658	0.0018662
3670	0.0022351
3682	0.0013175
3694	0.0005828
3706	0.0003131
3718	0.0002263
3730	0.0001395
3742	0.0001457
3754	0.0001364
3766	9.3e-05
3778	7.13e-05
3790	8.99e-05
3802	0.0001426
3814	0.0001519
3826	0.0001116
3838	0.0001643
