Infrared Spectrum: 3',6'-Diacetoxybenzonorbornadiene
Formula: C 15 H 14 O 4
CAS: 7213-65-2
State: gas
Origin: EPA-IR VAPOR PHASE LIBRARY
1/CM	ABSORBANCE
549.8	0.00337
559.445	0.00788
569.09	0.00762
578.734	0.00828
588.379	0.01324
598.024	0.01347
607.669	0.01312
617.313	0.00887
626.958	0.0123
636.603	0.01929
646.248	0.00681
655.893	0.00249
665.537	0.00197
675.182	0.00209
684.827	0.00261
694.472	0.00541
704.116	0.00723
713.761	0.00745
723.406	0.02667
733.051	0.03951
742.695	0.00916
752.34	0.00392
761.985	0.00311
771.63	0.00257
781.275	0.0036
790.919	0.00637
800.564	0.00896
810.209	0.01599
819.854	0.02767
829.498	0.01205
839.143	0.00667
848.788	0.00661
858.433	0.00917
868.078	0.01489
877.722	0.01994
887.367	0.02947
897.012	0.04115
906.657	0.02898
916.301	0.00916
925.946	0.0066
935.591	0.00794
945.236	0.00987
954.88	0.0163
964.525	0.01161
974.17	0.01091
983.815	0.01828
993.46	0.03262
1003.1	0.05302
1012.75	0.06283
1022.39	0.03348
1032.04	0.0204
1041.68	0.01569
1051.33	0.01521
1060.97	0.01831
1070.62	0.02392
1080.26	0.0241
1089.91	0.02241
1099.55	0.02201
1109.2	0.06212
1118.84	0.06273
1128.49	0.02543
1138.13	0.04048
1147.78	0.14254
1157.42	0.2212
1167.07	0.07885
1176.71	0.11243
1186.36	0.28286
1196	0.648
1205.64	0.46525
1215.29	0.16527
1224.93	0.09078
1234.58	0.05367
1244.22	0.03329
1253.87	0.02907
1263.51	0.02678
1273.16	0.01543
1282.8	0.01165
1292.45	0.01429
1302.09	0.03311
1311.74	0.0157
1321.38	0.0097
1331.03	0.00816
1340.67	0.00917
1350.32	0.01433
1359.96	0.03451
1369.61	0.09218
1379.25	0.06077
1388.9	0.02232
1398.54	0.01358
1408.18	0.01129
1417.83	0.01125
1427.47	0.01222
1437.12	0.01324
1446.76	0.01567
1456.41	0.02102
1466.05	0.04307
1475.7	0.12014
1485.34	0.07045
1494.99	0.01924
1504.63	0.01187
1514.28	0.0094
1523.92	0.0083
1533.57	0.00679
1543.21	0.00595
1552.86	0.00662
1562.5	0.0091
1572.15	0.00807
1581.79	0.00829
1591.44	0.00933
1601.08	0.00788
1610.73	0.00796
1620.37	0.01166
1630.01	0.01237
1639.66	0.00728
1649.3	0.00498
1658.95	0.00456
1668.59	0.00449
1678.24	0.00462
1687.88	0.00518
1697.53	0.00582
1707.17	0.00758
1716.82	0.00991
1726.46	0.01339
1736.11	0.01866
1745.75	0.02625
1755.4	0.04015
1765.04	0.07241
1774.69	0.14866
1784.33	0.19919
1793.98	0.1222
1803.62	0.05227
1813.27	0.02989
1822.91	0.019
1832.55	0.01337
1842.2	0.01028
1851.84	0.00831
1861.49	0.00613
1871.13	0.00433
1880.78	0.00373
1890.42	0.00328
1900.07	0.0029
1909.71	0.00246
1919.36	0.00235
1929	0.00244
1938.65	0.00239
1948.29	0.0024
1957.94	0.00248
1967.58	0.00262
1977.23	0.00282
1986.87	0.00284
1996.52	0.00279
2006.16	0.00256
2015.81	0.0025
2025.45	0.00249
2035.1	0.0024
2044.74	0.00263
2054.38	0.0026
2064.03	0.00324
2073.67	0.00372
2083.32	0.00352
2092.96	0.003
2102.61	0.0026
2112.25	0.00235
2121.9	0.00194
2131.54	0.00157
2141.19	0.00161
2150.83	0.00156
2160.48	0.0016
2170.12	0.0017
2179.77	0.00179
2189.41	0.00165
2199.06	0.0015
2208.7	0.00142
2218.35	0.00141
2227.99	0.00126
2237.64	0.00132
2247.28	0.00137
2256.92	0.00146
2266.57	0.00121
2276.21	0.00107
2285.86	0.0008706
2295.5	0.0009818
2305.15	0.0008879
2314.79	0.0008239
2324.44	0.0009301
2334.08	0.00108
2343.73	0.00132
2353.37	0.00147
2363.02	0.00138
2372.66	0.00159
2382.31	0.00181
2391.95	0.00183
2401.6	0.00175
2411.24	0.00168
2420.89	0.00148
2430.53	0.00142
2440.18	0.00122
2449.82	0.00122
2459.47	0.00116
2469.11	0.0009902
2478.75	0.0008959
2488.4	0.00102
2498.04	0.0009294
2507.69	0.0008112
2517.33	0.0007133
2526.98	0.0008269
2536.62	0.0008734
2546.27	0.0007893
2555.91	0.0007887
2565.56	0.0008096
2575.2	0.0007717
2584.85	0.0005943
2594.49	0.0006112
2604.14	0.0005378
2613.78	0.000449
2623.43	0.0004409
2633.07	0.000392
2642.72	0.0005004
2652.36	0.0005689
2662.01	0.0005232
2671.65	0.000616
2681.29	0.0005529
2690.94	0.0005835
2700.58	0.000509
2710.23	0.0004163
2719.87	0.0005095
2729.52	0.000513
2739.16	0.0004134
2748.81	0.000463
2758.45	0.0004533
2768.1	0.000703
2777.74	0.0005395
2787.39	0.0005321
2797.03	0.0007776
2806.68	0.0007036
2816.32	0.0008076
2825.97	0.0007994
2835.61	0.00102
2845.26	0.00147
2854.9	0.00193
2864.55	0.00345
2874.19	0.00734
2883.84	0.00654
2893.48	0.00291
2903.12	0.00211
2912.77	0.00248
2922.41	0.0038
2932.06	0.00757
2941.7	0.01773
2951.35	0.02281
2960.99	0.01177
2970.64	0.01729
2980.28	0.0358
2989.93	0.01498
2999.57	0.01867
3009.22	0.0465
3018.86	0.01979
3028.51	0.00684
3038.15	0.00606
3047.8	0.00532
3057.44	0.00521
3067.09	0.00841
3076.73	0.01522
3086.38	0.01128
3096.02	0.00454
3105.67	0.00294
3115.31	0.00251
3124.95	0.00299
3134.6	0.00369
3144.24	0.00209
3153.89	0.00111
3163.53	0.0007659
3173.18	0.000761
3182.82	0.000698
3192.47	0.0004937
3202.11	0.0005757
3211.76	0.0004427
3221.4	0.0006219
3231.05	0.0005478
3240.69	0.0004628
3250.34	0.0002562
3259.98	0.0005129
3269.63	0.0002821
3279.27	0.0003841
3288.92	0.0003043
3298.56	0.0002555
3308.21	0.0004061
3317.85	0.0004311
3327.49	6.886e-05
3337.14	0.00014
3346.78	0.0002623
3356.43	0.0002476
3366.07	0.0004928
3375.72	0.0003996
3385.36	0.0004074
3395.01	0.0004457
3404.65	0.0005149
3414.3	0.0002163
3423.94	0.0003022
3433.59	0.0003512
3443.23	0.0004648
3452.88	0.0005289
3462.52	0.0007175
3472.17	0.0006942
3481.81	0.0007698
3491.46	0.0009139
3501.1	0.0009303
3510.75	0.0009031
3520.39	0.00111
3530.04	0.00178
3539.68	0.00255
3549.32	0.00229
3558.97	0.00183
3568.61	0.0015
3578.26	0.0009976
3587.9	0.0007786
3597.55	0.000688
3607.19	0.0005188
3616.84	0.0005959
3626.48	0.0002704
3636.13	0.000306
3645.77	0.0003264
3655.42	0.0002447
3665.06	0.0004011
3674.71	0.0002541
3684.35	0.0002831
3694	0.0003354
3703.64	0.0004431
3713.29	0.000564
3722.93	0.0001602
3732.58	0.0002873
3742.22	0.0003144
3751.86	0.0003763
3761.51	0.000508
3771.15	0.000158
3780.8	0.0005041
3790.44	0.0005037
3800.09	0.000454
3809.73	0.0006316
3819.38	0.0005234
3829.02	0.0007784
3838.67	0.0004547
3848.31	0.0006274
3857.96	0.0005665
3867.6	0.0005089
3877.25	0.0005973
3886.89	0.0004794
3896.54	0.0006246
3906.18	0.000622
3915.83	0.0004845
3925.47	0.0005496
3935.12	0.0007255
3944.76	0.0007753
3954.41	0.000677
3964.05	0.0005731
3973.69	0.0007402
3983.34	0.0005313
3992.98	0.0005701
