Infrared Spectrum: cis-3,5-Dimethylcyclohexanone
Formula: C 8 H 14 O
CAS: 7214-49-5
State: gas
Instrument: HP-GC/MS/IRD
Origin: NIST Mass Spectrometry Data Center
1/CM	ABSORBANCE
550	0.000394
562	0.000244
574	9e-05
586	0.000176
598	0.000112
610	0.000172
622	0.000204
634	0.000132
646	4.6e-05
658	7.6e-05
670	6e-06
682	5.8e-05
694	4e-05
706	4.8e-05
718	8.8e-05
730	8.8e-05
742	8.8e-05
754	9.8e-05
766	8.8e-05
778	0.000114
790	0.000128
802	0.000194
814	0.000336
826	0.000386
838	0.00038
850	0.000346
862	0.000384
874	0.000586
886	0.000446
898	0.000146
910	0.0001
922	7.2e-05
934	0.000124
946	0.000136
958	0.000114
970	0.000114
982	9.4e-05
994	0.000124
1006	0.000168
1018	0.000186
1030	0.000334
1042	0.000568
1054	0.000916
1066	0.00087
1078	0.000522
1090	0.000352
1102	0.00046
1114	0.000616
1126	0.00069
1138	0.000516
1150	0.000392
1162	0.000612
1174	0.000796
1186	0.000838
1198	0.001184
1210	0.002728
1222	0.004078
1234	0.002718
1246	0.001744
1258	0.003188
1270	0.003928
1282	0.002646
1294	0.001102
1306	0.000624
1318	0.000862
1330	0.001742
1342	0.00235
1354	0.002344
1366	0.00211
1378	0.001666
1390	0.001236
1402	0.00076
1414	0.001418
1426	0.002006
1438	0.001782
1450	0.00256
1462	0.00288
1474	0.001556
1486	0.000592
1498	0.000316
1510	0.000212
1522	0.00018
1534	0.000156
1546	0.000124
1558	0.000108
1570	0.000152
1582	0.000192
1594	0.000272
1606	0.000288
1618	0.000324
1630	0.000436
1642	0.000604
1654	0.000662
1666	0.000678
1678	0.000904
1690	0.00151
1702	0.003234
1714	0.00973
1726	0.019038
1738	0.017304
1750	0.007978
1762	0.003808
1774	0.001198
1786	0.000602
1798	0.0005
1810	0.000432
1822	0.00034
1834	0.000224
1846	0.000162
1858	0.000148
1870	0.000154
1882	0.00021
1894	0.000152
1906	9e-05
1918	6.6e-05
1930	5e-05
1942	5e-05
1954	6e-05
1966	5e-05
1978	4.6e-05
1990	4.6e-05
2002	4.2e-05
2014	4.2e-05
2026	4.8e-05
2038	7.2e-05
2050	7.2e-05
2062	7.2e-05
2074	8.4e-05
2086	8.8e-05
2098	7.4e-05
2110	7.2e-05
2122	5e-05
2134	1.6e-05
2146	6.2e-05
2158	6.2e-05
2170	7.2e-05
2182	6.2e-05
2194	7.6e-05
2206	4.4e-05
2218	4.2e-05
2230	3e-05
2242	5.4e-05
2254	8e-06
2266	1.2e-05
2278	4.8e-05
2290	1.2e-05
2302	3e-05
2314	3.6e-05
2326	2e-05
2338	3.8e-05
2350	3e-05
2362	2e-06
2374	8e-06
2386	4.8e-05
2398	4.4e-05
2410	5.8e-05
2422	6.6e-05
2434	4.8e-05
2446	5.6e-05
2458	4e-05
2470	4e-05
2482	3e-05
2494	3.8e-05
2506	3e-05
2518	1.8e-05
2530	4.8e-05
2542	5e-05
2554	4.8e-05
2566	3.6e-05
2578	3e-05
2590	4.6e-05
2602	0.000102
2614	0.000118
2626	9.2e-05
2638	0.000128
2650	9.8e-05
2662	9.8e-05
2674	0.000114
2686	8.6e-05
2698	0.00011
2710	0.00014
2722	0.000204
2734	0.000282
2746	0.000282
2758	0.000236
2770	0.000238
2782	0.000328
2794	0.000426
2806	0.000564
2818	0.000908
2830	0.001696
2842	0.002498
2854	0.00243
2866	0.003076
2878	0.00611
2890	0.008476
2902	0.009118
2914	0.010362
2926	0.01055
2938	0.008788
2950	0.010254
2962	0.018972
2974	0.013384
2986	0.003308
2998	0.001106
3010	0.00063
3022	0.000458
3034	0.000326
3046	0.000356
3058	0.00036
3070	0.000322
3082	0.000322
3094	0.00028
3106	0.000232
3118	0.0002
3130	0.00017
3142	0.000136
3154	0.000218
3166	0.000154
3178	0.000196
3190	0.000198
3202	0.000126
3214	0.000116
3226	8.8e-05
3238	6e-05
3250	2e-06
3262	3.2e-05
3274	8e-05
3286	7e-05
3298	2.2e-05
3310	5.4e-05
3322	3.8e-05
3334	7e-05
3346	0.000106
3358	0.000142
3370	0.000104
3382	7.8e-05
3394	0.000148
3406	0.000176
3418	0.000234
3430	0.000314
3442	0.00038
3454	0.000282
3466	0.000218
3478	0.000126
3490	0.000134
3502	0.000102
3514	8.6e-05
3526	3.8e-05
3538	8.4e-05
3550	7.8e-05
3562	5.2e-05
3574	6e-05
3586	6.8e-05
3598	8.2e-05
3610	8.4e-05
3622	5e-05
3634	9e-05
3646	6.2e-05
3658	9.6e-05
3670	7.6e-05
3682	3.6e-05
3694	3e-05
3706	0.000104
3718	0.000104
3730	3.6e-05
3742	5.8e-05
3754	6e-05
3766	0.0001
3778	9.6e-05
3790	0.000108
3802	5.4e-05
3814	7.4e-05
3826	8.2e-05
3838	0.000132
