Infrared Spectrum: o-Methoxybenzenethiol
Formula: C 7 H 8 O S
CAS: 7217-59-6
State: gas
Origin: EPA-IR VAPOR PHASE LIBRARY
1/CM	ABSORBANCE
549.8	0.0019274
559.445	0.0019174
569.09	0.0029374
578.734	0.0030374
588.379	0.0025174
598.024	0.0012574
607.669	0.0008778
617.313	0.0004964
626.958	0.0003864
636.603	0.0005537
646.248	0.0007029
655.893	0.0013074
665.537	0.0037074
675.182	0.0074374
684.827	0.0088074
694.472	0.0068774
704.116	0.0076574
713.761	0.0120774
723.406	0.0170174
733.051	0.0293474
742.695	0.0509274
752.34	0.0399074
761.985	0.0208374
771.63	0.0090974
781.275	0.0067874
790.919	0.0070974
800.564	0.0059374
810.209	0.0032574
819.854	0.0019774
829.498	0.0016074
839.143	0.0015774
848.788	0.0014474
858.433	0.0012974
868.078	0.0011774
877.722	0.0010774
887.367	0.0011174
897.012	0.0013074
906.657	0.0017774
916.301	0.0025774
925.946	0.0034174
935.591	0.0029874
945.236	0.0026674
954.88	0.0026074
964.525	0.0029174
974.17	0.0040374
983.815	0.0055974
993.46	0.0079374
1003.1	0.0131274
1012.75	0.0234074
1022.39	0.0342774
1032.04	0.0413474
1041.68	0.0352974
1051.33	0.0212674
1060.97	0.0171174
1070.62	0.0274574
1080.26	0.0326274
1089.91	0.0243274
1099.55	0.0132274
1109.2	0.0069974
1118.84	0.0073274
1128.49	0.0098074
1138.13	0.0092074
1147.78	0.0054474
1157.42	0.0047874
1167.07	0.0062574
1176.71	0.0083174
1186.36	0.0097274
1196	0.0092274
1205.64	0.0107574
1215.29	0.0188174
1224.93	0.0430874
1234.58	0.0876074
1244.22	0.107167
1253.87	0.0806574
1263.51	0.0449574
1273.16	0.0360774
1282.8	0.0300374
1292.45	0.0240774
1302.09	0.0178174
1311.74	0.0093274
1321.38	0.0041174
1331.03	0.0028874
1340.67	0.0025574
1350.32	0.0024674
1359.96	0.0026774
1369.61	0.0032674
1379.25	0.0037974
1388.9	0.0038374
1398.54	0.0037274
1408.18	0.0046474
1417.83	0.0085374
1427.47	0.0206774
1437.12	0.0284874
1446.76	0.0311874
1456.41	0.0360174
1466.05	0.0593374
1475.7	0.0888274
1485.34	0.0791374
1494.99	0.0390874
1504.63	0.0146274
1514.28	0.0073974
1523.92	0.0041874
1533.57	0.0034774
1543.21	0.0040374
1552.86	0.0065474
1562.5	0.0133874
1572.15	0.0231274
1581.79	0.0283074
1591.44	0.0201674
1601.08	0.0101574
1610.73	0.0042074
1620.37	0.0023574
1630.01	0.0016774
1639.66	0.0015174
1649.3	0.0015574
1658.95	0.0017874
1668.59	0.0018174
1678.24	0.0017774
1687.88	0.0015274
1697.53	0.0013374
1707.17	0.0013574
1716.82	0.0013574
1726.46	0.0013674
1736.11	0.0013374
1745.75	0.0015874
1755.4	0.0018374
1765.04	0.0017674
1774.69	0.0014974
1784.33	0.0014174
1793.98	0.0014174
1803.62	0.0014774
1813.27	0.0014374
1822.91	0.0013374
1832.55	0.0013674
1842.2	0.0013774
1851.84	0.0014074
1861.49	0.0016074
1871.13	0.0021874
1880.78	0.0023974
1890.42	0.0021074
1900.07	0.0016274
1909.71	0.0018974
1919.36	0.0023074
1929	0.0018574
1938.65	0.0010071
1948.29	0.0005529
1957.94	0.0005506
1967.58	0.0005612
1977.23	0.000584
1986.87	0.0006792
1996.52	0.0008427
2006.16	0.0011274
2015.81	0.0016474
2025.45	0.0022374
2035.1	0.0025474
2044.74	0.0023074
2054.38	0.0020674
2064.03	0.0018874
2073.67	0.0015274
2083.32	0.0011374
2092.96	0.0008868
2102.61	0.0007872
2112.25	0.0007118
2121.9	0.0005681
2131.54	0.0004949
2141.19	0.0004328
2150.83	0.0005116
2160.48	0.0005591
2170.12	0.0004009
2179.77	0.000359
2189.41	0.0002802
2199.06	0.000262
2208.7	0.0003107
2218.35	0.00034
2227.99	0.0003863
2237.64	0.0004723
2247.28	0.0005869
2256.92	0.0007733
2266.57	0.0010274
2276.21	0.0010018
2285.86	0.0008538
2295.5	0.000631
2305.15	0.0005583
2314.79	0.0005202
2324.44	0.0005625
2334.08	0.0004948
2343.73	0.0004133
2353.37	0.0005096
2363.02	0.0005961
2372.66	0.0006516
2382.31	0.0006443
2391.95	0.0004709
2401.6	0.000374
2411.24	0.0004349
2420.89	0.0004206
2430.53	0.0004147
2440.18	0.0004399
2449.82	0.0005466
2459.47	0.0006467
2469.11	0.0008307
2478.75	0.0008153
2488.4	0.0008433
2498.04	0.0007793
2507.69	0.0008754
2517.33	0.0010089
2526.98	0.0012174
2536.62	0.0014774
2546.27	0.0015274
2555.91	0.0013674
2565.56	0.0012674
2575.2	0.0014874
2584.85	0.0021974
2594.49	0.0032774
2604.14	0.0033774
2613.78	0.0022774
2623.43	0.0011674
2633.07	0.0006773
2642.72	0.000555
2652.36	0.0005399
2662.01	0.0004351
2671.65	0.000434
2681.29	0.0004708
2690.94	0.0004489
2700.58	0.0005557
2710.23	0.0005846
2719.87	0.000551
2729.52	0.00059
2739.16	0.0005385
2748.81	0.0006314
2758.45	0.0006296
2768.1	0.0007708
2777.74	0.0009478
2787.39	0.0011074
2797.03	0.0015174
2806.68	0.0022974
2816.32	0.0035074
2825.97	0.0057774
2835.61	0.0114174
2845.26	0.0147074
2854.9	0.0126774
2864.55	0.0075474
2874.19	0.0066674
2883.84	0.0070674
2893.48	0.0079074
2903.12	0.0095974
2912.77	0.0117874
2922.41	0.0135574
2932.06	0.0165074
2941.7	0.0232574
2951.35	0.0261374
2960.99	0.0226474
2970.64	0.0155274
2980.28	0.0114174
2989.93	0.0111074
2999.57	0.0162974
3009.22	0.0196974
3018.86	0.0168374
3028.51	0.0101574
3038.15	0.0075274
3047.8	0.0081174
3057.44	0.0117274
3067.09	0.0202974
3076.73	0.0231774
3086.38	0.0174174
3096.02	0.0085674
3105.67	0.0046774
3115.31	0.0021874
3124.95	0.0016774
3134.6	0.0014674
3144.24	0.0012874
3153.89	0.0012174
3163.53	0.0010174
3173.18	0.0007776
3182.82	0.0005262
3192.47	0.0003375
3202.11	0.0003048
3211.76	0.0003212
3221.4	0.0002946
3231.05	0.0002512
3240.69	0.0003485
3250.34	0.0001747
3259.98	0.0001937
3269.63	0.0002816
3279.27	0.0001916
3288.92	0.0002606
3298.56	0.0001678
3308.21	0.0001892
3317.85	0.0002697
3327.49	0.0002225
3337.14	0.00010649
3346.78	0.00011067
3356.43	0.0001565
3366.07	0
3375.72	2.6e-06
3385.36	0.0001362
3395.01	0.000138
3404.65	0.0001365
3414.3	0.0001245
3423.94	0.0001838
3433.59	0.0003136
3443.23	0.0004325
3452.88	0.0004118
3462.52	0.0003381
3472.17	0.000485
3481.81	0.0007541
3491.46	0.0008498
3501.1	0.0008703
3510.75	0.0007016
3520.39	0.0003374
3530.04	0.0002517
3539.68	0.0001722
3549.32	3.704e-05
3558.97	4.979e-05
3568.61	0.0001371
3578.26	7.704e-05
3587.9	0.0001391
3597.55	0.000209
3607.19	3.165e-05
3616.84	0.0002278
3626.48	9.789e-05
3636.13	9.777e-05
3645.77	0.0001828
3655.42	0.00011456
3665.06	0.0001607
3674.71	0.0002856
3684.35	0.0002259
3694	0.0001965
3703.64	2.7096e-05
3713.29	0.0002095
3722.93	0.0002046
3732.58	0.0001577
3742.22	0.0002733
3751.86	0.0001527
3761.51	0.0001725
3771.15	0.0001693
3780.8	0.0001909
3790.44	0.0002237
3800.09	0.0001376
3809.73	0.0003115
3819.38	0.0002549
3829.02	0.0001839
3838.67	0.000166
3848.31	0.0003515
3857.96	0.0006128
3867.6	0.0006393
3877.25	0.0004366
3886.89	0.0002603
3896.54	0.0001765
3906.18	0.0002449
3915.83	0.0002326
3925.47	0.000193
3935.12	0.0002719
3944.76	0.0002725
3954.41	0.0003701
3964.05	0.0003971
3973.69	0.0003082
3983.34	0.000289
3992.98	0.0002155
