Infrared Spectrum: 4-Aminophenyl disulfide
Formula: C 12 H 12 N 2 S 2
CAS: 722-27-0
State: gas
Instrument: HP-GC/MS/IRD
Origin: NIST Mass Spectrometry Data Center
1/CM	ABSORBANCE
550	0.0005445
562	0.0007799
574	0.0008998
586	0.0008866
598	0.0009922
610	0.0013794
622	0.0025355
634	0.0030525
646	0.002299
658	0.0027577
670	0.0036839
682	0.0036421
694	0.0027786
706	0.0020867
718	0.0016313
730	0.001397
742	0.0012639
754	0.0012309
766	0.0013607
778	0.0015455
790	0.0019217
802	0.0027962
814	0.005005
826	0.0037323
838	0.0018744
850	0.0011814
862	0.0008745
874	0.000748
886	0.0006391
898	0.0005973
910	0.000572
922	0.0005291
934	0.0005511
946	0.0006083
958	0.00066
970	0.0006919
982	0.0005841
994	0.0006061
1006	0.0007513
1018	0.0007249
1030	0.0006006
1042	0.0005808
1054	0.0007381
1066	0.0007722
1078	0.0008239
1090	0.0011473
1102	0.0010351
1114	0.0010428
1126	0.000924
1138	0.000451
1150	0.000275
1162	0.00044
1174	0.0036058
1186	0.0009053
1198	7.59e-05
1210	8.8e-06
1222	0.0001628
1234	0.0004026
1246	0.0012826
1258	0.0036905
1270	0.008338
1282	0.0078969
1294	0.002068
1306	0.0007623
1318	0.0004389
1330	0.0003322
1342	0.0002552
1354	0.0002112
1366	0.0001848
1378	0.0002002
1390	0.0002497
1402	0.0003762
1414	0.0006369
1426	0.0007634
1438	0.0008459
1450	0.0008096
1462	0.0009603
1474	0.0020504
1486	0.0080971
1498	0.0082632
1510	0.0021681
1522	0.0013002
1534	0.0010076
1546	0.0010681
1558	0.00132
1570	0.0017787
1582	0.0032461
1594	0.0067727
1606	0.005291
1618	0.0093676
1630	0.0082214
1642	0.0027324
1654	0.0011847
1666	0.000759
1678	0.0005918
1690	0.0005137
1702	0.000495
1714	0.0003795
1726	0.0002618
1738	0.0002783
1750	0.0002717
1762	0.0001617
1774	0.0001188
1786	0.0001045
1798	0.0001166
1810	0.00011
1822	0.0001254
1834	0.0001595
1846	0.0002156
1858	0.000253
1870	0.0004037
1882	0.0003729
1894	0.0002497
1906	0.0002112
1918	0.0001551
1930	0.0001309
1942	0.0001056
1954	0.0001287
1966	0.0001089
1978	0.0001122
1990	0.0001089
2002	8.8e-05
2014	0.0001199
2026	0.0001353
2038	9.57e-05
2050	0.0001012
2062	0.0001045
2074	0.0001012
2086	9.57e-05
2098	0.00011
2110	8.47e-05
2122	5.94e-05
2134	1.87e-05
2146	4.4e-06
2158	1.21e-05
2170	3.52e-05
2182	4.73e-05
2194	2.64e-05
2206	2.09e-05
2218	1.43e-05
2230	3.63e-05
2242	4.4e-05
2254	4.95e-05
2266	6.27e-05
2278	5.83e-05
2290	5.72e-05
2302	7.04e-05
2314	8.47e-05
2326	5.72e-05
2338	2.75e-05
2350	1.43e-05
2362	4.18e-05
2374	3.41e-05
2386	2.42e-05
2398	5.72e-05
2410	6.71e-05
2422	6.6e-05
2434	4.51e-05
2446	4.07e-05
2458	3.41e-05
2470	2.97e-05
2482	0
2494	4.51e-05
2506	3.08e-05
2518	5.17e-05
2530	9.68e-05
2542	0.0001562
2554	0.0001672
2566	8.91e-05
2578	0.000121
2590	0.0001595
2602	0.000121
2614	7.15e-05
2626	8.47e-05
2638	4.84e-05
2650	6.27e-05
2662	7.7e-05
2674	8.47e-05
2686	0.0001045
2698	9.57e-05
2710	9.24e-05
2722	6.38e-05
2734	6.27e-05
2746	7.59e-05
2758	8.47e-05
2770	7.81e-05
2782	0.0001001
2794	0.0001067
2806	6.38e-05
2818	8.58e-05
2830	9.02e-05
2842	0.0001243
2854	0.0001012
2866	0.000132
2878	0.0001595
2890	0.0001375
2902	0.0001705
2914	0.0001562
2926	0.0001001
2938	9.46e-05
2950	0.0001298
2962	0.0001771
2974	0.0002794
2986	0.000506
2998	0.0005742
3010	0.0006908
3022	0.0016104
3034	0.0023133
3046	0.0014707
3058	0.0015213
3070	0.0009867
3082	0.0009603
3094	0.0005907
3106	0.000352
3118	0.00022
3130	0.000154
3142	0.0001815
3154	0.0001023
3166	0.0001287
3178	0.0001397
3190	0.000143
3202	0.0001925
3214	0.0002948
3226	0.0002332
3238	0.0001771
3250	0.0001518
3262	0.0001188
3274	0.0001122
3286	7.37e-05
3298	8.36e-05
3310	7.26e-05
3322	0.0001133
3334	7.37e-05
3346	0.0001298
3358	0.000165
3370	0.0001683
3382	0.0002695
3394	0.0006072
3406	0.0013123
3418	0.0016236
3430	0.0009713
3442	0.0003619
3454	0.000253
3466	0.0003124
3478	0.0004862
3490	0.0006468
3502	0.0006963
3514	0.0005368
3526	0.0003586
3538	0.0001276
3550	0.0001122
3562	0.0001001
3574	6.16e-05
3586	7.04e-05
3598	3.41e-05
3610	0.0001078
3622	8.25e-05
3634	7.04e-05
3646	5.83e-05
3658	6.6e-05
3670	8.25e-05
3682	0.0001023
3694	5.5e-05
3706	4.51e-05
3718	0.0001133
3730	0.0001012
3742	0.0001254
3754	0.0001617
3766	8.03e-05
3778	0.0001232
3790	7.92e-05
3802	4.18e-05
3814	0.0001177
3826	0.0001617
3838	0.000231
