Infrared Spectrum: Phenothiazine-1-carboxylic acid, 8-trifluoromethyl-
Formula: C14 H8 F3 N O2 S
CAS: 7220-56-6
State: SOLID (OIL MULL)
Class: COBLENTZ III
Instrument: PERKIN-ELMER 21 (GRATING)
Instrument parameters: NaCl PRISM
Sampling: TRANSMISSION
Resolution: 2
Origin: SMITH, KLINE & FRENCH LABS.
1/CM	TRANSMITTANCE
649	0.6026
658	0.5801
667	0.5891
676	0.683
685	0.7009
694	0.6547
703	0.5591
712	0.6924
721	0.7195
730	0.6591
739	0.7704
748	0.745
757	0.608
766	0.7187
775	0.7856
784	0.8071
793	0.8102
802	0.795
811	0.5435
820	0.8164
829	0.8282
838	0.8261
847	0.8204
856	0.8283
865	0.7957
874	0.5481
883	0.7457
892	0.7583
901	0.7196
910	0.6698
919	0.68
928	0.6414
937	0.6007
946	0.7803
955	0.7914
964	0.7918
973	0.7814
982	0.7895
991	0.7873
1000	0.7853
1009	0.7813
1018	0.7677
1027	0.769
1036	0.771
1045	0.7519
1054	0.7021
1063	0.6317
1072	0.6391
1081	0.5349
1090	0.4054
1099	0.6502
1108	0.6338
1117	0.3687
1126	0.2457
1135	0.3487
1144	0.5585
1153	0.4049
1162	0.228
1171	0.6289
1180	0.6914
1189	0.6707
1198	0.6507
1207	0.584
1216	0.4532
1225	0.1639
1234	0.2874
1243	0.1452
1252	0.1964
1261	0.5008
1270	0.2925
1279	0.5605
1288	0.6585
1297	0.6453
1306	0.5116
1315	0.4169
1324	0.2139
1333	0.3268
1342	0.6365
1351	0.708
1360	0.6911
1369	0.6434
1378	0.601
1387	0.6348
1396	0.6556
1405	0.5255
1414	0.1947
1423	0.3776
1432	0.3737
1441	0.138
1450	0.359
1459	0.4924
1468	0.5599
1477	0.5526
1486	0.3885
1495	0.6093
1504	0.5953
1513	0.4219
1522	0.6906
1531	0.7437
1540	0.757
1549	0.7506
1558	0.642
1567	0.559
1576	0.7017
1585	0.6823
1594	0.5368
1603	0.511
1612	0.6138
1621	0.6815
1630	0.6551
1639	0.6258
1648	0.427
1657	0.1804
1666	0.2149
1675	0.5348
1684	0.6718
1693	0.7195
1702	0.7725
1711	0.7775
1720	0.7819
1729	0.7734
1738	0.7723
1747	0.7756
1756	0.7787
1765	0.7834
1774	0.7855
1783	0.7868
1792	0.787
1801	0.7875
1810	0.788
1819	0.7879
1828	0.7897
1837	0.7877
1846	0.7858
1855	0.786
1864	0.7866
1873	0.7869
1882	0.7872
1891	0.7883
1900	0.7947
1909	0.7958
1918	0.7934
1927	0.7887
1936	0.789
1945	0.7911
1954	0.7937
1963	0.7957
1972	0.7971
1981	0.7981
1990	0.799
1999	0.7999
2008	0.8005
2017	0.801
2026	0.8016
2035	0.8021
2044	0.8027
2053	0.8036
2062	0.8043
2071	0.8051
2080	0.806
2089	0.8068
2098	0.8069
2107	0.8062
2116	0.8054
2125	0.8038
2134	0.8027
2143	0.8023
2152	0.802
2161	0.8018
2170	0.8013
2179	0.7992
2188	0.7971
2197	0.795
2206	0.7953
2215	0.7957
2224	0.7952
2233	0.7904
2242	0.7885
2251	0.7883
2260	0.7883
2269	0.7883
2278	0.7882
2287	0.7878
2296	0.7871
2305	0.7862
2314	0.7851
2323	0.7842
2332	0.7839
2341	0.7836
2350	0.7835
2359	0.7837
2368	0.7832
2377	0.7771
2386	0.7717
2395	0.7707
2404	0.7615
2413	0.7581
2422	0.7572
2431	0.7533
2440	0.7434
2449	0.7319
2458	0.7225
2467	0.7175
2476	0.7142
2485	0.7078
2494	0.699
2503	0.6894
2512	0.6801
2521	0.6701
2530	0.6595
2539	0.6551
2548	0.6564
2557	0.6603
2566	0.6634
2575	0.6644
2584	0.6605
2593	0.654
2602	0.6479
2611	0.6458
2620	0.6459
2629	0.6476
2638	0.6502
2647	0.6568
2656	0.6554
2665	0.6503
2674	0.6473
2683	0.6446
2692	0.6412
2701	0.6413
2710	0.6431
2719	0.6454
2728	0.6417
2737	0.6401
2746	0.6396
2755	0.6351
2764	0.6269
2773	0.6118
2782	0.5781
2791	0.5439
2800	0.4954
2809	0.441
2818	0.3785
2827	0.3165
2836	0.2666
2845	0.2682
2854	0.2805
2863	0.2791
2872	0.2399
2881	0.1944
2890	0.1493
2899	0.1312
2908	0.1408
2917	0.175
2926	0.1943
2935	0.2153
2944	0.3021
2953	0.3994
2962	0.4587
2971	0.4768
2980	0.4921
2989	0.504
2998	0.5137
3007	0.5227
3016	0.5307
3025	0.5367
3034	0.5419
3043	0.5474
3052	0.5534
3061	0.5609
3070	0.5688
3079	0.579
3088	0.5893
3097	0.5992
3106	0.6094
3115	0.6191
3124	0.6268
3133	0.6332
3142	0.6388
3151	0.6436
3160	0.6481
3169	0.6547
3178	0.6627
3187	0.666
3196	0.6669
3205	0.6669
3214	0.6659
3223	0.6644
3232	0.6583
3241	0.6485
3250	0.6389
3259	0.6292
3268	0.6189
3277	0.6176
3286	0.6344
3295	0.6839
3304	0.7285
3313	0.7432
3322	0.7533
3331	0.761
3340	0.7653
3349	0.7678
3358	0.7692
3367	0.7703
3376	0.7701
3385	0.7699
3394	0.7698
3403	0.7699
3412	0.7699
3421	0.7704
3430	0.7713
3439	0.7726
3448	0.774
3457	0.776
3466	0.7779
3475	0.7789
3484	0.7799
3493	0.7803
3502	0.7807
3511	0.7809
3520	0.7802
3529	0.7795
3538	0.7789
3547	0.7784
3556	0.7783
3565	0.7786
3574	0.7803
3583	0.7824
3592	0.7851
3601	0.7871
3610	0.7878
3619	0.787
3628	0.7863
3637	0.7854
3646	0.7844
3655	0.7833
3664	0.7827
3673	0.7821
3682	0.7815
3691	0.7811
3700	0.7813
3709	0.7816
3718	0.7821
3727	0.7829
3736	0.7825
3745	0.7812
3754	0.7789
3763	0.7757
3772	0.7728
3781	0.7718
3790	0.7717
3799	0.772
3808	0.7723
3817	0.7727
3826	0.7729
3835	0.773
3844	0.7725
3853	0.7714
3862	0.77
3871	0.7681
3880	0.7665
3889	0.765
3898	0.7635
3907	0.7619
3916	0.7604
3925	0.7588
3934	0.7572
3943	0.7557
3952	0.7541
3961	0.7526
3970	0.7514
3979	0.7508
3988	0.7501
3997	0.7494
