Infrared Spectrum: Aflatoxin B2
Formula: C17 H14 O6
CAS: 7220-81-7
State: THIN FILM; MELT, COOLED RAPIDLY
Class: COBLENTZ III
Instrument: PERKIN-ELMER 180 (GRATING)
Instrument parameters: GRATINGS: 2000, 1000, 500, 250 CM^-^1; FILTER CHANGE: 2970, 2000, 1485, 1000, 743, 500, 372, 250, 186 CM^-^1.
Sampling: TRANSMISSION
Resolution: 2
Origin: K. K. DEB-NCI FREDERICK CANCER RESEARCH CENTER
1/CM	TRANSMITTANCE
383	0.9307
392	0.934
401	0.9423
410	0.9508
419	0.9425
428	0.9351
437	0.9117
446	0.899
455	0.8839
464	0.7973
473	0.8437
482	0.9352
491	0.9581
500	0.9572
509	0.9409
518	0.9568
527	0.9479
536	0.8851
545	0.9409
554	0.9058
563	0.893
572	0.9118
581	0.9545
590	0.8769
599	0.9629
608	0.9652
617	0.9585
626	0.9344
635	0.9593
644	0.932
653	0.9393
662	0.9462
671	0.9189
680	0.8673
689	0.9208
698	0.9148
707	0.9407
716	0.8376
725	0.9353
734	0.9135
743	0.8781
752	0.8771
761	0.907
770	0.9404
779	0.9434
788	0.9291
797	0.8906
806	0.7758
815	0.7052
824	0.748
833	0.7885
842	0.9245
851	0.9127
860	0.7545
869	0.9083
878	0.8919
887	0.7967
896	0.8412
905	0.5577
914	0.4332
923	0.7643
932	0.8072
941	0.7275
950	0.4341
959	0.7104
968	0.8675
977	0.8481
986	0.7124
995	0.8475
1004	0.8389
1013	0.8049
1022	0.7469
1031	0.7149
1040	0.8023
1049	0.7527
1058	0.4654
1067	0.5192
1076	0.5868
1085	0.6863
1094	0.5813
1103	0.7895
1112	0.8477
1121	0.8193
1130	0.4918
1139	0.711
1148	0.6783
1157	0.877
1166	0.8761
1175	0.7955
1184	0.8168
1193	0.8296
1202	0.6575
1211	0.6159
1220	0.8627
1229	0.8592
1238	0.6351
1247	0.7073
1256	0.7671
1265	0.6951
1274	0.6462
1283	0.8593
1292	0.8259
1301	0.7198
1310	0.7744
1319	0.7561
1328	0.8335
1337	0.6915
1346	0.7573
1355	0.6846
1364	0.6278
1373	0.6547
1382	0.5468
1391	0.7787
1400	0.5902
1409	0.8375
1418	0.6355
1427	0.5041
1436	0.4292
1445	0.7343
1454	0.6716
1463	0.7969
1472	0.6969
1481	0.4926
1490	0.3849
1499	0.7053
1508	0.8436
1517	0.8679
1526	0.853
1535	0.8289
1544	0.7757
1553	0.539
1562	0.6192
1571	0.6696
1580	0.4401
1589	0.2175
1598	0.4287
1607	0.6302
1616	0.4852
1625	0.3981
1634	0.4934
1643	0.6911
1652	0.812
1661	0.8565
1670	0.8713
1679	0.8737
1688	0.8287
1697	0.5879
1706	0.5999
1715	0.8287
1724	0.8187
1733	0.7667
1742	0.6808
1751	0.4585
1760	0.0825
1769	0.3243
1778	0.5955
1787	0.7307
1796	0.8025
1805	0.8482
1814	0.8671
1823	0.8901
1832	0.8864
1841	0.879
1850	0.8867
1859	0.9051
1868	0.9205
1877	0.9261
1886	0.9278
1895	0.929
1904	0.9289
1913	0.9281
1922	0.9272
1931	0.9281
1940	0.9305
1949	0.9309
1958	0.9307
1967	0.9298
1976	0.9288
1985	0.9278
1994	0.927
2003	0.9263
2012	0.926
2021	0.9257
2030	0.9254
2039	0.9251
2048	0.9249
2057	0.9246
2066	0.9244
2075	0.9241
2084	0.9234
2093	0.9224
2102	0.9214
2111	0.9198
2120	0.9178
2129	0.9157
2138	0.9156
2147	0.9156
2156	0.9154
2165	0.9148
2174	0.9136
2183	0.9122
2192	0.9111
2201	0.9107
2210	0.9104
2219	0.9125
2228	0.913
2237	0.9129
2246	0.9124
2255	0.9115
2264	0.9107
2273	0.9099
2282	0.9091
2291	0.9082
2300	0.9074
2309	0.9066
2318	0.9058
2327	0.9049
2336	0.904
2345	0.903
2354	0.9021
2363	0.9012
2372	0.9003
2381	0.8992
2390	0.8981
2399	0.8969
2408	0.8958
2417	0.8947
2426	0.8936
2435	0.8925
2444	0.8915
2453	0.8906
2462	0.8896
2471	0.8886
2480	0.8876
2489	0.8869
2498	0.8862
2507	0.8855
2516	0.8849
2525	0.8842
2534	0.884
2543	0.8841
2552	0.8842
2561	0.8839
2570	0.8829
2579	0.8819
2588	0.8808
2597	0.8795
2606	0.8783
2615	0.8773
2624	0.8765
2633	0.8757
2642	0.8749
2651	0.8741
2660	0.8732
2669	0.8724
2678	0.8708
2687	0.8672
2696	0.8633
2705	0.8631
2714	0.8639
2723	0.8645
2732	0.8652
2741	0.865
2750	0.8642
2759	0.8629
2768	0.8611
2777	0.8593
2786	0.8573
2795	0.8549
2804	0.8526
2813	0.8495
2822	0.8451
2831	0.8395
2840	0.8322
2849	0.821
2858	0.8263
2867	0.8249
2876	0.8066
2885	0.7124
2894	0.7683
2903	0.8211
2912	0.8148
2921	0.7995
2930	0.791
2939	0.7858
2948	0.789
2957	0.7611
2966	0.7942
2975	0.8044
2984	0.806
2993	0.8223
3002	0.8087
3011	0.7998
3020	0.8221
3029	0.8278
3038	0.8275
3047	0.8265
3056	0.8247
3065	0.823
3074	0.8218
3083	0.8214
3092	0.8212
3101	0.8211
3110	0.8222
3119	0.8233
3128	0.8243
3137	0.8235
3146	0.8225
3155	0.8205
3164	0.8185
3173	0.8164
3182	0.8142
3191	0.812
3200	0.8098
3209	0.8097
3218	0.8097
3227	0.8089
3236	0.807
3245	0.8052
3254	0.8034
3263	0.8015
3272	0.7994
3281	0.7973
3290	0.7952
3299	0.7932
3308	0.7913
3317	0.7893
3326	0.7874
3335	0.785
3344	0.7819
3353	0.7786
3362	0.7755
3371	0.7692
3380	0.7616
3389	0.7581
3398	0.7612
3407	0.7607
3416	0.7601
3425	0.7593
3434	0.7585
3443	0.7586
3452	0.7587
3461	0.7598
3470	0.7608
3479	0.7614
3488	0.7619
3497	0.7624
3506	0.7602
3515	0.7581
3524	0.7613
3533	0.7679
3542	0.774
3551	0.7798
3560	0.7835
3569	0.7868
3578	0.7901
3587	0.7928
3596	0.7951
3605	0.7972
3614	0.7992
3623	0.8004
3632	0.8016
3641	0.8028
3650	0.8027
3659	0.8012
3668	0.7975
3677	0.7909
3686	0.7964
3695	0.8017
3704	0.8043
3713	0.8044
3722	0.8044
3731	0.8044
3740	0.8044
3749	0.8044
3758	0.8039
3767	0.8032
3776	0.8025
3785	0.8012
3794	0.7999
