Infrared Spectrum: PHENYLPROPIOLAMIDE
Formula: C9 H7 N O
CAS: 7223-30-5
State: SOLUTION (7% IN CHCl3)
Class: COBLENTZ
Instrument: PERKIN-ELMER
Sampling: TRANSMISSION
Path length: 0.010 CM
Resolution: 4
Origin: ABBOTT LABORATORIES - WASHBURN
MICROMETERS	TRANSMITTANCE
2.507	0.905
2.53998	0.91
2.57296	0.913
2.60594	0.9179
2.63892	0.913
2.6719	0.916
2.70488	0.9176
2.73786	0.9112
2.77084	0.9209
2.80382	0.8798
2.8368	0.733
2.86978	0.4159
2.90276	0.5689
2.93574	0.4224
2.96872	0.5015
3.0017	0.467
3.03468	0.4483
3.06766	0.4877
3.10064	0.4988
3.13362	0.4343
3.1666	0.4468
3.19958	0.554
3.23256	0.5955
3.26554	0.62
3.29852	0.6067
3.3315	0.5618
3.36448	0.6889
3.39746	0.7717
3.43044	0.8203
3.46342	0.8482
3.4964	0.8601
3.52938	0.8681
3.56236	0.8752
3.59534	0.8799
3.62832	0.8629
3.6613	0.87
3.69428	0.876
3.72726	0.8851
3.76024	0.8981
3.79322	0.908
3.8262	0.9129
3.85918	0.906
3.89216	0.9099
3.92514	0.908
3.95812	0.9009
3.9911	0.89
4.02408	0.885
4.05706	0.876
4.09004	0.871
4.12302	0.875
4.156	0.885
4.18898	0.893
4.22196	0.906
4.25494	0.898
4.28792	0.898
4.3209	0.8961
4.35388	0.8851
4.38686	0.8007
4.41984	0.6683
4.45282	0.66
4.4858	0.5457
4.51878	0.101
4.55176	0.5643
4.58474	0.759
4.61772	0.8414
4.6507	0.8853
4.68368	0.8882
4.71666	0.88
4.74964	0.8917
4.78262	0.9183
4.8156	0.92
4.84858	0.928
4.88156	0.9282
4.91454	0.9299
4.94752	0.9214
4.9805	0.9247
5.01348	0.908
5.04646	0.8905
5.07944	0.8885
5.11242	0.8825
5.1454	0.9132
5.17838	0.9219
5.21136	0.9092
5.24434	0.8966
5.27732	0.8846
5.3103	0.8917
5.34328	0.9078
5.37626	0.9133
5.40924	0.901
5.44222	0.8967
5.4752	0.8968
5.50818	0.8664
5.54116	0.8668
5.57414	0.8724
5.60712	0.868
5.64009	0.8528
5.67307	0.83
5.70605	0.8327
5.73903	0.8263
5.77201	0.8107
5.80499	0.7813
5.83797	0.7215
5.87095	0.5332
5.90393	0.1921
5.93691	0.0564
5.96989	0.0259
6.00287	0.02
6.03585	0.0347
6.06883	0.1501
6.10181	0.3643
6.13479	0.4588
6.16777	0.4791
6.20075	0.3778
6.23373	0.1946
6.26671	0.1551
6.29969	0.1675
6.33267	0.1129
6.36565	0.5159
6.39863	0.6578
6.43161	0.7304
6.46459	0.7695
6.49757	0.7794
6.53055	0.785
6.56353	0.788
6.59651	0.786
6.62949	0.775
6.66247	0.7148
6.69545	0.4413
6.72843	0.4699
6.76141	0.7224
6.79439	0.7971
6.82737	0.8042
6.86035	0.7936
6.89333	0.76
6.92631	0.484
6.95929	0.6934
6.99227	0.721
7.02525	0.7281
7.05823	0.6829
7.09121	0.6222
7.12419	0.5136
7.15717	0.4001
7.19015	0.2343
7.22313	0.119
7.25611	0.0549
7.28909	0.043
7.32207	0.0446
7.35505	0.0988
7.38803	0.2012
7.42101	0.3926
7.45399	0.5007
7.48697	0.5727
7.51995	0.6016
7.55293	0.6367
7.58591	0.6587
7.61889	0.6681
7.65187	0.675
7.68485	0.6857
7.71783	0.688
7.75081	0.6956
7.78379	0.6969
7.81677	0.6969
7.84975	0.7161
7.88273	0.721
7.91571	0.7309
7.94869	0.731
7.98167	0.7184
8.01465	0.6826
8.04763	0.6208
8.08061	0.572
8.11359	0.5388
8.14657	0.534
8.17955	0.5416
8.21253	0.5502
8.24551	0.5585
8.27849	0.5762
8.31147	0.598
8.34445	0.635
8.37743	0.693
8.41041	0.7289
8.44339	0.7491
8.47637	0.755
8.50935	0.7054
8.54233	0.7367
8.57531	0.7653
8.60829	0.776
8.64127	0.778
8.67425	0.7858
8.70723	0.79
8.74021	0.793
8.77319	0.793
8.80617	0.7893
8.83915	0.7807
8.87213	0.7696
8.90511	0.7527
8.93809	0.7429
8.97107	0.7219
9.00405	0.7112
9.03703	0.6936
9.07001	0.683
9.10299	0.6654
9.13597	0.651
9.16895	0.6905
9.20193	0.7267
9.23491	0.7462
9.26789	0.766
9.30087	0.7683
9.33385	0.7159
9.36683	0.6946
9.39981	0.7456
9.43279	0.7951
9.46577	0.8104
9.49875	0.813
9.53173	0.806
9.56471	0.7974
9.59769	0.79
9.63067	0.791
9.66365	0.796
9.69663	0.8003
9.72961	0.6798
9.76259	0.6659
9.79557	0.7515
9.82855	0.8004
9.86153	0.81
9.89451	0.808
9.92749	0.813
9.96047	0.8101
9.99345	0.7916
10.0264	0.8105
10.0594	0.805
10.0924	0.808
10.1254	0.805
10.1583	0.801
10.1913	0.8
10.2243	0.7977
10.2573	0.796
10.2903	0.798
10.3232	0.795
10.3562	0.7894
10.3892	0.7854
10.4222	0.7855
10.4552	0.7794
10.4881	0.776
10.5211	0.775
10.5541	0.7731
10.5871	0.778
10.6201	0.7712
10.653	0.77
10.686	0.77
10.719	0.765
10.752	0.7621
10.785	0.7488
10.8179	0.7221
10.8509	0.6637
10.8839	0.635
10.9169	0.6603
10.9499	0.6805
10.9828	0.6738
11.0158	0.6466
11.0488	0.6209
11.0818	0.5989
11.1148	0.5989
11.1477	0.61
11.1807	0.6151
11.2137	0.6435
11.2467	0.6778
11.2797	0.7105
11.3126	0.7401
11.3456	0.753
11.3786	0.7665
11.4116	0.7779
11.4446	0.7904
11.4775	0.7953
11.5105	0.798
11.5435	0.798
11.5765	0.798
11.6095	0.795
11.6424	0.791
11.6754	0.793
11.7084	0.8006
11.7414	0.8
11.7744	0.8
11.8073	0.7945
11.8403	0.7909
11.8733	0.7878
11.9063	0.783
11.9393	0.7859
11.9722	0.793
12.0052	0.791
12.0382	0.7855
12.0712	0.785
12.1042	0.79
12.1371	0.793
12.1701	0.7869
12.2031	0.783
12.2361	0.7813
12.2691	0.7901
12.302	0.7815
12.335	0.7844
12.368	0.781
12.401	0.7771
12.434	0.7766
12.4669	0.775
12.4999	0.7797
12.5329	0.7779
12.5659	0.783
12.5989	0.781
12.6318	0.7857
12.6648	0.79
12.6978	0.7905
12.7308	0.7919
12.7638	0.7956
12.7967	0.795
12.8297	0.793
12.8627	0.791
12.8957	0.7948
12.9287	0.791
12.9616	0.795
12.9946	0.7937
13.0276	0.7942
13.0606	0.798
13.0936	0.803
13.1265	0.801
13.1595	0.805
13.1925	0.803
13.2255	0.806
13.2585	0.806
13.2914	0.8053
13.3244	0.805
13.3574	0.81
13.3904	0.8069
13.4234	0.81
13.4563	0.8094
13.4893	0.8082
13.5223	0.81
13.5553	0.8109
13.5883	0.811
13.6212	0.811
13.6542	0.813
13.6872	0.8194
13.7202	0.825
13.7532	0.825
13.7861	0.823
13.8191	0.826
13.8521	0.8249
13.8851	0.8165
13.9181	0.8107
13.951	0.8039
13.984	0.7954
14.017	0.7828
14.05	0.7696
14.083	0.7494
14.1159	0.7325
14.1489	0.7208
14.1819	0.701
14.2149	0.6833
14.2479	0.6585
14.2808	0.6126
14.3138	0.5705
14.3468	0.5297
14.3798	0.5098
14.4128	0.4916
14.4457	0.4645
14.4787	0.3517
14.5117	0.2702
14.5447	0.2153
14.5777	0.205
14.6106	0.2507
14.6436	0.3228
14.6766	0.4031
14.7096	0.4801
14.7426	0.5322
14.7755	0.5641
14.8085	0.5913
14.8415	0.608
14.8745	0.6159
14.9075	0.621
14.9404	0.6272
14.9734	0.6341
15.0064	0.6419
