Infrared Spectrum: 3,4-Difluorobenzylamine
Formula: C 7 H 7 F 2 N
CAS: 72235-53-1
State: gas
Instrument: HP-GC/MS/IRD
Origin: NIST Mass Spectrometry Data Center
1/CM	ABSORBANCE
550	0.0030502
562	0.0030351
574	0.0056172
586	0.0062061
598	0.0051038
610	0.0054813
622	0.0056625
634	0.0053303
646	0.0049981
658	0.0054511
670	0.0069611
682	0.0098754
694	0.0140732
706	0.0176217
718	0.0178029
730	0.016761
742	0.0191921
754	0.0299282
766	0.0547073
778	0.0609436
790	0.0362853
802	0.0335975
814	0.0363457
826	0.0233446
838	0.0116572
850	0.0093469
862	0.0136806
874	0.0151906
886	0.0103888
898	0.0068252
910	0.0065836
922	0.0105247
934	0.0143601
946	0.0105398
958	0.0047112
970	0.0016308
982	0.0005889
994	0.0004228
1006	0.000755
1018	0.0011023
1030	0.0023254
1042	0.0035032
1054	0.0027784
1066	0.0017063
1078	0.0016912
1090	0.0037297
1102	0.0123065
1114	0.0211853
1126	0.016006
1138	0.0091204
1150	0.0067044
1162	0.0032163
1174	0.00151
1186	0.0022046
1198	0.0086976
1210	0.027784
1222	0.0303812
1234	0.0115062
1246	0.0078218
1258	0.0147829
1270	0.0447111
1282	0.1102
1294	0.101351
1306	0.0279048
1318	0.0100264
1330	0.0064175
1342	0.0062967
1354	0.0073386
1366	0.0098754
1378	0.012382
1390	0.0108418
1402	0.0094677
1414	0.0152208
1426	0.0316496
1438	0.0338089
1450	0.0168365
1462	0.0122763
1474	0.0120045
1486	0.0155077
1498	0.0369497
1510	0.104386
1522	0.150472
1534	0.0687805
1546	0.0169724
1558	0.0122914
1570	0.0126538
1582	0.0141034
1594	0.0230275
1606	0.0365873
1618	0.032314
1630	0.0171536
1642	0.0077312
1654	0.0042733
1666	0.002416
1678	0.0013137
1690	0.0008909
1702	0.0008154
1714	0.0010117
1726	0.0014194
1738	0.0017969
1750	0.0015251
1762	0.0009362
1774	0.0006493
1786	0.0006644
1798	0.0008154
1810	0.0007701
1822	0.0005285
1834	0.0004983
1846	0.0007248
1858	0.0014043
1870	0.0018573
1882	0.0012684
1894	0.0006191
1906	0.000302
1918	0.0001661
1930	6.04e-05
1942	1.51e-05
1954	1.51e-05
1966	3.02e-05
1978	0.0001812
1990	0.0003171
2002	0.0002869
2014	0.000302
2026	0.0004077
2038	0.0007248
2050	0.0011174
2062	0.0012835
2074	0.0009966
2086	0.0006342
2098	0.0004832
2110	0.000453
2122	0.0004379
2134	0.000453
2146	0.0004983
2158	0.0005134
2170	0.0004983
2182	0.0004983
2194	0.0005587
2206	0.0005738
2218	0.000604
2230	0.0006493
2242	0.0006493
2254	0.0006493
2266	0.0007248
2278	0.0009362
2290	0.0011325
2302	0.0010872
2314	0.0008154
2326	0.0008003
2338	0.0007701
2350	0.0007399
2362	0.000755
2374	0.0007399
2386	0.0007097
2398	0.0006946
2410	0.0006795
2422	0.0006644
2434	0.0006191
2446	0.000453
2458	0.0004832
2470	0.0005285
2482	0.0006946
2494	0.0007701
2506	0.0008003
2518	0.0008305
2530	0.0009362
2542	0.0010721
2554	0.0010872
2566	0.0011627
2578	0.0011476
2590	0.0009966
2602	0.0008909
2614	0.0007701
2626	0.0008154
2638	0.0008003
2650	0.000755
2662	0.0008154
2674	0.0008607
2686	0.000906
2698	0.0010419
2710	0.0012231
2722	0.0014194
2734	0.001661
2746	0.0017969
2758	0.0019026
2770	0.0018875
2782	0.0020989
2794	0.0025519
2806	0.0032767
2818	0.0042733
2830	0.005889
2842	0.0081993
2854	0.0114005
2866	0.0140128
2878	0.0138618
2890	0.0128954
2902	0.0132276
2914	0.0129256
2926	0.0118384
2938	0.0115968
2950	0.0102831
2962	0.0070668
2974	0.0041676
2986	0.0025066
2998	0.0017818
3010	0.0016761
3022	0.0023405
3034	0.0038807
3046	0.005285
3058	0.0059796
3070	0.0052095
3082	0.0034881
3094	0.0019781
3106	0.0010721
3118	0.0008305
3130	0.0007701
3142	0.0006342
3154	0.0006946
3166	0.0005738
3178	0.0005889
3190	0.0006493
3202	0.0006795
3214	0.0006644
3226	0.0007097
3238	0.0006644
3250	0.0006493
3262	0.0005587
3274	0.0005738
3286	0.0005285
3298	0.0004832
3310	0.0005285
3322	0.000604
3334	0.000755
3346	0.0011023
3358	0.0011929
3370	0.0009664
3382	0.0007097
3394	0.0007399
3406	0.0008607
3418	0.0010721
3430	0.001057
3442	0.0008607
3454	0.0007399
3466	0.0006493
3478	0.0005738
3490	0.0005738
3502	0.0004983
3514	0.0004983
3526	0.0004379
3538	0.0004228
3550	0.000453
3562	0.0005134
3574	0.0004983
3586	0.0004983
3598	0.0004832
3610	0.0005134
3622	0.0004983
3634	0.0005738
3646	0.0005889
3658	0.0005738
3670	0.0005738
3682	0.0005285
3694	0.0006191
3706	0.0005285
3718	0.0006191
3730	0.000604
3742	0.0006191
3754	0.0006644
3766	0.0006795
3778	0.0006493
3790	0.0007097
3802	0.0007097
3814	0.0007097
3826	0.0006946
3838	0.0007248
