Infrared Spectrum: 3-Chloro-4-fluorobenzylamine
Formula: C 7 H 7 Cl F N
CAS: 72235-56-4
State: gas
Origin: EPA-IR VAPOR PHASE LIBRARY
1/CM	ABSORBANCE
549.8	0.01056
559.445	0.0103
569.09	0.01125
578.735	0.0132
588.38	0.01496
598.025	0.01543
607.67	0.0147
617.315	0.01353
626.96	0.01266
636.605	0.01247
646.251	0.0136
655.896	0.01554
665.541	0.01985
675.186	0.02913
684.831	0.03843
694.476	0.03877
704.121	0.04056
713.766	0.04768
723.411	0.05578
733.056	0.06467
742.701	0.07401
752.346	0.06943
761.991	0.05265
771.636	0.0463
781.281	0.0478
790.926	0.04828
800.571	0.05498
810.216	0.07051
819.861	0.06779
829.507	0.04262
839.152	0.02365
848.797	0.01764
858.442	0.02019
868.087	0.03068
877.732	0.03869
887.377	0.03663
897.022	0.02886
906.667	0.02074
916.312	0.01443
925.957	0.0108
935.602	0.00935
945.247	0.00839
954.892	0.00756
964.537	0.00727
974.182	0.00665
983.827	0.00653
993.472	0.00662
1003.12	0.00715
1012.76	0.00782
1022.41	0.00905
1032.05	0.01209
1041.7	0.01943
1051.34	0.03771
1060.99	0.0494
1070.63	0.03944
1080.28	0.01688
1089.92	0.00984
1099.57	0.00756
1109.21	0.00682
1118.86	0.00807
1128.5	0.0096
1138.15	0.00938
1147.79	0.00831
1157.44	0.00714
1167.08	0.00698
1176.73	0.00853
1186.37	0.01324
1196.02	0.02004
1205.66	0.01914
1215.31	0.01334
1224.95	0.01738
1234.6	0.04305
1244.24	0.10204
1253.89	0.14596
1263.53	0.13245
1273.18	0.07698
1282.82	0.02937
1292.47	0.01745
1302.11	0.01256
1311.76	0.01024
1321.4	0.01002
1331.05	0.01142
1340.69	0.01329
1350.34	0.01514
1359.98	0.01869
1369.63	0.02344
1379.27	0.02614
1388.92	0.02689
1398.56	0.03242
1408.21	0.03408
1417.85	0.02407
1427.5	0.01327
1437.14	0.01092
1446.79	0.01301
1456.43	0.02024
1466.08	0.02742
1475.73	0.03534
1485.37	0.07399
1495.02	0.18712
1504.66	0.20508
1514.31	0.07632
1523.95	0.02188
1533.6	0.01223
1543.24	0.00964
1552.89	0.00946
1562.53	0.01101
1572.18	0.01468
1581.82	0.02069
1591.47	0.02646
1601.11	0.0287
1610.76	0.02657
1620.4	0.02298
1630.05	0.01899
1639.69	0.01391
1649.34	0.0102
1658.98	0.00719
1668.63	0.00508
1678.27	0.00369
1687.92	0.00298
1697.56	0.00282
1707.21	0.00277
1716.85	0.0031
1726.5	0.00357
1736.14	0.00478
1745.79	0.00583
1755.43	0.00567
1765.08	0.00459
1774.72	0.00376
1784.37	0.00333
1794.01	0.00305
1803.66	0.00306
1813.3	0.00301
1822.95	0.00267
1832.59	0.0022
1842.24	0.0019905
1851.88	0.0021
1861.53	0.0029
1871.17	0.00434
1880.82	0.00435
1890.46	0.00292
1900.11	0.0017905
1909.75	0.0013016
1919.4	0.0010407
1929.04	0.0010092
1938.69	0.000964
1948.33	0.000986
1957.98	0.000972
1967.62	0.0010005
1977.27	0.00108807
1986.91	0.0013168
1996.56	0.0016271
2006.2	0.0017033
2015.85	0.0017201
2025.49	0.0014067
2035.14	0.00118011
2044.78	0.000981
2054.43	0.00087
2064.07	0.000815
2073.72	0.000759
2083.36	0.000747
2093.01	0.000714
2102.65	0.000732
2112.3	0.000694
2121.94	0.000787
2131.59	0.000934
2141.23	0.000928
2150.88	0.000921
2160.52	0.000809
2170.17	0.000653
2179.81	0.000666
2189.46	0.000658
2199.1	0.0006
2208.75	0.000633
2218.39	0.000636
2228.04	0.000782
2237.68	0.000928
2247.33	0.00115159
2256.97	0.00114779
2266.62	0.0011132
2276.26	0.000903
2285.91	0.000822
2295.55	0.000798
2305.2	0.000756
2314.84	0.000912
2324.49	0.00111829
2334.13	0.00116897
2343.78	0.000819
2353.42	0.000795
2363.07	0.000886
2372.72	0.000808
2382.36	0.000743
2392.01	0.000676
2401.65	0.000553
2411.3	0.000496
2420.94	0.000478
2430.59	0.000519
2440.23	0.000496
2449.88	0.000723
2459.52	0.000795
2469.17	0.000787
2478.81	0.000803
2488.46	0.000941
2498.1	0.0012353
2507.75	0.0014053
2517.39	0.0014511
2527.04	0.001414
2536.68	0.00117795
2546.33	0.0010052
2555.97	0.00109169
2565.62	0.0009957
2575.26	0.000826
2584.91	0.000775
2594.55	0.000657
2604.2	0.000723
2613.84	0.000719
2623.49	0.00071
2633.13	0.000825
2642.78	0.0010095
2652.42	0.000982
2662.07	0.00110759
2671.71	0.00110446
2681.36	0.00110942
2691	0.00116304
2700.65	0.0012621
2710.29	0.0013839
2719.94	0.0016897
2729.58	0.001968
2739.23	0.00226
2748.87	0.00252
2758.52	0.00283
2768.16	0.00292
2777.81	0.00299
2787.45	0.00331
2797.1	0.00382
2806.74	0.0049
2816.39	0.00614
2826.03	0.00833
2835.68	0.01102
2845.32	0.01474
2854.97	0.02049
2864.61	0.02528
2874.26	0.02496
2883.9	0.02186
2893.55	0.02082
2903.19	0.02217
2912.84	0.02193
2922.48	0.01953
2932.13	0.01907
2941.77	0.0194
2951.42	0.01645
2961.06	0.01126
2970.71	0.00721
2980.35	0.00476
2990	0.00346
2999.64	0.00264
3009.29	0.00238
3018.93	0.00264
3028.58	0.00465
3038.22	0.00845
3047.87	0.00962
3057.51	0.00747
3067.16	0.00582
3076.8	0.00471
3086.45	0.00354
3096.09	0.00259
3105.74	0.0017681
3115.38	0.0010498
3125.03	0.000621
3134.67	0.000111
3144.32	0.000163
3153.96	0.000225
3163.61	0.000256
3173.25	0.000359
3182.9	0.000311
3192.54	0.000239
3202.19	0.000248
3211.83	0.000331
3221.48	0.00039
3231.12	0.000254
3240.77	0.00023
3250.41	0.000242
3260.06	0.000272
3269.7	0.000113
3279.35	0
3289	3e-05
3298.64	0.000311
3308.29	0.000352
3317.93	0.000349
3327.58	0.000498
3337.22	0.000754
3346.87	0.0014448
3356.51	0.0014806
3366.16	0.0010124
3375.8	0.000561
3385.45	0.000566
3395.09	0.000549
3404.74	0.000878
3414.38	0.00113145
3424.03	0.0013854
3433.67	0.0010243
3443.32	0.000779
3452.96	0.000614
3462.61	0.000599
3472.25	0.000302
3481.9	0.000387
3491.54	0.000354
3501.19	0.000368
3510.83	0.000344
3520.48	0.000213
3530.12	0.000206
3539.77	0.000196
3549.41	0.000285
3559.06	0.000288
3568.7	0.000147
3578.35	0.000252
3587.99	0.000297
3597.64	0.000312
3607.28	0.000369
3616.93	0.000281
3626.57	0.000156
3636.22	0.000451
3645.86	0.000392
3655.51	0.000272
3665.15	0.000283
3674.8	0.00031
3684.44	0.000251
3694.09	0.000445
3703.73	0.000385
3713.38	0.000405
3723.02	0.00038
3732.67	0.000519
3742.31	0.000443
3751.96	0.000499
3761.6	0.000533
3771.25	0.000392
3780.89	0.000412
3790.54	0.000408
3800.18	0.000471
3809.83	0.000413
3819.47	0.000496
3829.12	0.000388
3838.76	0.000304
3848.41	0.000549
3858.05	0.000317
3867.7	0.000407
3877.34	0.00024
3886.99	0.000255
3896.63	0.00012
3906.28	0.00036
3915.92	0.000579
3925.57	0.000414
3935.21	0.000564
3944.86	0.000488
3954.5	0.000212
3964.15	0.000275
3973.79	0.000288
3983.44	0.000199
3993.08	0.000233
