Infrared Spectrum: VALERIC ACID, 3-HYDROXY-2,2,4-TRIMETHYL, Beta-LACTONE
Formula: C8 H14 O2
CAS: 7227-96-5
Boiling point: 67-84 C AT 5.4-7.0 mmHg
Class: COBLENTZ
Instrument: Not specified, most likely a prism, grating, or hybrid spectrometer.
Sampling: TRANSMISSION
Path length: SMEAR
Resolution: 4
Origin: TENNESSEE EASTMAN COMPANY, RESEARCH LABORATORIES
MICROMETERS	TRANSMITTANCE
2.02	0.996
2.06092	0.996
2.10184	0.994
2.14275	0.993
2.18367	0.993
2.22459	0.984
2.26551	0.967
2.30642	0.967
2.34734	0.969
2.38826	0.967
2.42918	0.969
2.4701	0.976
2.51101	0.976
2.55193	0.972
2.59285	0.97
2.63377	0.965
2.67468	0.962
2.7156	0.923
2.75652	0.909
2.79744	0.919
2.83836	0.924
2.87927	0.926
2.92019	0.924
2.96111	0.919
3.00203	0.917
3.04294	0.919
3.08386	0.916
3.12478	0.912
3.1657	0.911
3.20662	0.917
3.24753	0.917
3.28845	0.899
3.32937	0.632
3.37029	0.429
3.4112	0.632
3.45212	0.598
3.49304	0.851
3.53396	0.902
3.57488	0.926
3.61579	0.924
3.65671	0.923
3.69763	0.935
3.73855	0.938
3.77946	0.938
3.82038	0.936
3.8613	0.923
3.90222	0.935
3.94314	0.941
3.98405	0.943
4.02497	0.945
4.06589	0.945
4.10681	0.945
4.14772	0.943
4.18864	0.941
4.22956	0.948
4.27048	0.929
4.3114	0.926
4.35231	0.928
4.39323	0.943
4.43415	0.935
4.47507	0.938
4.51598	0.931
4.5569	0.94
4.59782	0.94
4.63874	0.94
4.67966	0.94
4.72057	0.94
4.76149	0.935
4.80241	0.938
4.84333	0.938
4.88424	0.931
4.92516	0.929
4.96608	0.921
5.007	0.905
5.04792	0.876
5.08883	0.873
5.12975	0.897
5.17067	0.897
5.21159	0.89
5.2525	0.868
5.29342	0.832
5.33434	0.747
5.37526	0.591
5.41618	0.309
5.45709	0.076
5.49801	0.143
5.53893	0.425
5.57985	0.637
5.62076	0.697
5.66168	0.743
5.7026	0.714
5.74352	0.752
5.78444	0.808
5.82535	0.796
5.86627	0.811
5.90719	0.841
5.94811	0.844
5.98902	0.851
6.02994	0.859
6.07086	0.841
6.11178	0.849
6.1527	0.858
6.19361	0.864
6.23453	0.89
6.27545	0.9
6.31637	0.9
6.35728	0.89
6.3982	0.868
6.43912	0.883
6.48004	0.851
6.52096	0.868
6.56187	0.846
6.60279	0.839
6.64371	0.839
6.68463	0.781
6.72554	0.652
6.76646	0.331
6.80738	0.49
6.8483	0.611
6.88922	0.699
6.93013	0.777
6.97105	0.811
7.01197	0.82
7.05289	0.82
7.0938	0.752
7.13472	0.528
7.17564	0.558
7.21656	0.683
7.25747	0.69
7.29839	0.644
7.33931	0.796
7.38023	0.846
7.42115	0.858
7.46206	0.856
7.50298	0.852
7.5439	0.81
7.58482	0.736
7.62573	0.801
7.66665	0.745
7.70757	0.598
7.74849	0.676
7.78941	0.777
7.83032	0.82
7.87124	0.827
7.91216	0.829
7.95308	0.808
7.99399	0.74
8.03491	0.702
8.07583	0.769
8.11675	0.776
8.15767	0.74
8.19858	0.666
8.2395	0.56
8.28042	0.613
8.32134	0.644
8.36225	0.652
8.40317	0.625
8.44409	0.589
8.48501	0.652
8.52593	0.699
8.56684	0.705
8.60776	0.692
8.64868	0.639
8.6896	0.495
8.73051	0.328
8.77143	0.423
8.81235	0.582
8.85327	0.617
8.89419	0.533
8.9351	0.347
8.97602	0.227
9.01694	0.264
9.05786	0.429
9.09877	0.541
9.13969	0.622
9.18061	0.688
9.22153	0.736
9.26245	0.757
9.30336	0.776
9.34428	0.788
9.3852	0.793
9.42612	0.796
9.46703	0.798
9.50795	0.8
9.54887	0.798
9.58979	0.793
9.63071	0.776
9.67162	0.758
9.71254	0.736
9.75346	0.699
9.79438	0.603
9.83529	0.413
9.87621	0.382
9.91713	0.464
9.95805	0.576
9.99897	0.676
10.0399	0.717
10.0808	0.719
10.1217	0.666
10.1626	0.581
10.2036	0.447
10.2445	0.43
10.2854	0.564
10.3263	0.658
10.3672	0.697
10.4081	0.735
10.4491	0.757
10.49	0.796
10.5309	0.813
10.5718	0.823
10.6127	0.83
10.6537	0.835
10.6946	0.825
10.7355	0.801
10.7764	0.801
10.8173	0.837
10.8582	0.851
10.8992	0.854
10.9401	0.854
10.981	0.842
11.0219	0.829
11.0628	0.798
11.1037	0.733
11.1447	0.623
11.1856	0.456
11.2265	0.348
11.2674	0.423
11.3083	0.596
11.3493	0.692
11.3902	0.745
11.4311	0.758
11.472	0.726
11.5129	0.632
11.5538	0.429
11.5948	0.311
11.6357	0.309
11.6766	0.418
11.7175	0.538
11.7584	0.625
11.7993	0.673
11.8403	0.705
11.8812	0.726
11.9221	0.75
11.963	0.767
12.0039	0.767
12.0449	0.74
12.0858	0.726
12.1267	0.767
12.1676	0.811
12.2085	0.83
12.2494	0.839
12.2904	0.846
12.3313	0.849
12.3722	0.849
12.4131	0.849
12.454	0.847
12.4949	0.841
12.5359	0.83
12.5768	0.815
12.6177	0.781
12.6586	0.724
12.6995	0.654
12.7405	0.668
12.7814	0.735
12.8223	0.791
12.8632	0.81
12.9041	0.825
12.945	0.835
12.986	0.837
13.0269	0.842
13.0678	0.846
13.1087	0.846
13.1496	0.846
13.1906	0.844
13.2315	0.835
13.2724	0.832
13.3133	0.827
13.3542	0.817
13.3951	0.8
13.4361	0.772
13.477	0.747
13.5179	0.74
13.5588	0.765
13.5997	0.784
13.6406	0.798
13.6816	0.805
13.7225	0.805
13.7634	0.805
13.8043	0.803
13.8452	0.801
13.8862	0.798
13.9271	0.8
13.968	0.794
14.0089	0.796
14.0498	0.789
14.0907	0.786
14.1317	0.784
14.1726	0.776
14.2135	0.774
14.2544	0.77
14.2953	0.764
14.3362	0.76
14.3772	0.757
14.4181	0.748
14.459	0.747
14.4999	0.74
14.5408	0.735
14.5818	0.726
14.6227	0.717
14.6636	0.714
14.7045	0.709
14.7454	0.699
14.7863	0.688
14.8273	0.676
14.8682	0.663
14.9091	0.651
14.95	0.642
14.9909	0.639
15.0319	0.639
15.0728	0.641
15.1137	0.634
15.1546	0.629
15.1955	0.625
15.2364	0.617
15.2774	0.615
15.3183	0.605
15.3592	0.601
15.4001	0.598
15.441	0.591
15.4819	0.586
15.5229	0.579
15.5638	0.576
15.6047	0.574
15.6456	0.574
15.6865	0.567
15.7275	0.56
15.7684	0.558
15.8093	0.555
15.8502	0.557
15.8911	0.552
15.932	0.548
15.973	0.548
