Infrared Spectrum: 1-(2-Naphthyl)ethanol
Formula: C 12 H 12 O
CAS: 7228-47-9
State: gas
Origin: EPA-IR VAPOR PHASE LIBRARY
1/CM	ABSORBANCE
549.9	0.003071
559.547	0.002681
569.193	0.002361
578.84	0.002531
588.486	0.002401
598.133	0.0017557
607.779	0.002061
617.426	0.002931
627.072	0.002461
636.719	0.0016775
646.365	0.001981
656.012	0.002481
665.658	0.002311
675.305	0.002081
684.951	0.002281
694.598	0.002731
704.245	0.003481
713.891	0.003221
723.538	0.005851
733.184	0.016811
742.831	0.029261
752.477	0.016321
762.124	0.005691
771.77	0.002971
781.417	0.002501
791.063	0.003731
800.71	0.010031
810.356	0.020001
820.003	0.015811
829.649	0.008061
839.296	0.009331
848.943	0.016461
858.589	0.014471
868.236	0.007781
877.882	0.006291
887.529	0.009341
897.175	0.010671
906.822	0.010741
916.468	0.007591
926.115	0.004881
935.761	0.004921
945.408	0.006041
955.054	0.005801
964.701	0.004281
974.347	0.004271
983.994	0.005971
993.64	0.008721
1003.29	0.010621
1012.93	0.011151
1022.58	0.009191
1032.23	0.007081
1041.87	0.008031
1051.52	0.011931
1061.17	0.015751
1070.81	0.018371
1080.46	0.021921
1090.11	0.021521
1099.75	0.015331
1109.4	0.010191
1119.05	0.012721
1128.69	0.013721
1138.34	0.008491
1147.99	0.006791
1157.63	0.007081
1167.28	0.009391
1176.92	0.008001
1186.57	0.005401
1196.22	0.004671
1205.86	0.004661
1215.51	0.005541
1225.16	0.007021
1234.8	0.009091
1244.45	0.011981
1254.1	0.013051
1263.74	0.013711
1273.39	0.010681
1283.04	0.007481
1292.68	0.006921
1302.33	0.008831
1311.98	0.011801
1321.62	0.012791
1331.27	0.011681
1340.92	0.010741
1350.56	0.011101
1360.21	0.012351
1369.86	0.014381
1379.5	0.015921
1389.15	0.012141
1398.79	0.007641
1408.44	0.005291
1418.09	0.004431
1427.73	0.004081
1437.38	0.004871
1447.03	0.004881
1456.67	0.004811
1466.32	0.004031
1475.97	0.003541
1485.61	0.003171
1495.26	0.004641
1504.91	0.007641
1514.55	0.005451
1524.2	0.002291
1533.85	0.0018798
1543.49	0.0019119
1553.14	0.0018636
1562.79	0.0017349
1572.43	0.0017132
1582.08	0.002301
1591.73	0.003661
1601.37	0.004501
1611.02	0.003211
1620.67	0.002581
1630.31	0.003121
1639.96	0.002601
1649.6	0.0016872
1659.25	0.0017097
1668.9	0.0018348
1678.54	0.002121
1688.19	0.002311
1697.84	0.002301
1707.48	0.001991
1717.13	0.001717
1726.78	0.0016767
1736.42	0.002001
1746.07	0.002341
1755.72	0.002691
1765.36	0.002401
1775.01	0.002361
1784.66	0.002471
1794.3	0.002161
1803.95	0.001971
1813.6	0.002031
1823.24	0.002111
1832.89	0.0015752
1842.54	0.0014448
1852.18	0.0013689
1861.83	0.0012111
1871.47	0.0011095
1881.12	0.0013666
1890.77	0.002011
1900.41	0.002521
1910.06	0.002681
1919.71	0.002401
1929.35	0.002221
1939	0.002591
1948.65	0.0017838
1958.29	0.00100743
1967.94	0.0008962
1977.59	0.0008535
1987.23	0.0008655
1996.88	0.000816
2006.53	0.000808
2016.17	0.000811
2025.82	0.000811
2035.47	0.000776
2045.11	0.000763
2054.76	0.000736
2064.41	0.000749
2074.05	0.000816
2083.7	0.0008258
2093.35	0.000873
2102.99	0.0008614
2112.64	0.000822
2122.28	0.000725
2131.93	0.000799
2141.58	0.000768
2151.22	0.000798
2160.87	0.000843
2170.52	0.0008919
2180.16	0.000815
2189.81	0.000772
2199.46	0.000803
2209.1	0.0008679
2218.75	0.0009098
2228.4	0.0009046
2238.04	0.0008899
2247.69	0.0008723
2257.34	0.0008877
2266.98	0.00093991
2276.63	0.0010391
2286.28	0.0011815
2295.92	0.0011644
2305.57	0.0011383
2315.22	0.0011055
2324.86	0.0009839
2334.51	0.00096499
2344.16	0.00095258
2353.8	0.000903
2363.45	0.0008773
2373.09	0.00093457
2382.74	0.00092465
2392.39	0.00101716
2402.03	0.00098632
2411.68	0.00100688
2421.33	0.00100448
2430.97	0.0010569
2440.62	0.0010327
2450.27	0.0010564
2459.91	0.001056
2469.56	0.00097259
2479.21	0.0009983
2488.85	0.00099982
2498.5	0.00098486
2508.15	0.0010265
2517.79	0.00100091
2527.44	0.00099579
2537.09	0.00091486
2546.73	0.00093901
2556.38	0.00100979
2566.03	0.0010472
2575.67	0.0010678
2585.32	0.0011217
2594.96	0.0011737
2604.61	0.0012307
2614.26	0.0011651
2623.9	0.0011261
2633.55	0.0011969
2643.2	0.001054
2652.84	0.0010823
2662.49	0.00100799
2672.14	0.0010314
2681.78	0.0009922
2691.43	0.0011447
2701.08	0.0010981
2710.72	0.0010863
2720.37	0.0012748
2730.02	0.0012482
2739.66	0.0011458
2749.31	0.0013147
2758.96	0.0012151
2768.6	0.0012083
2778.25	0.001284
2787.9	0.0013429
2797.54	0.0015435
2807.19	0.0017179
2816.84	0.001931
2826.48	0.002161
2836.13	0.002371
2845.77	0.002981
2855.42	0.004091
2865.07	0.006131
2874.71	0.009371
2884.36	0.011211
2894.01	0.010961
2903.65	0.009681
2913.3	0.008311
2922.95	0.008231
2932.59	0.009881
2942.24	0.009381
2951.89	0.007851
2961.53	0.010291
2971.18	0.018091
2980.83	0.028051
2990.47	0.021921
3000.12	0.009831
3009.77	0.008951
3019.41	0.010601
3029.06	0.010941
3038.71	0.011521
3048.35	0.019281
3058	0.031401
3067.64	0.031221
3077.29	0.018411
3086.94	0.010391
3096.58	0.005851
3106.23	0.002961
3115.88	0.001752
3125.52	0.0014022
3135.17	0.0010743
3144.82	0.00100503
3154.46	0.00094734
3164.11	0.000733
3173.76	0.00094186
3183.4	0.0008404
3193.05	0.000736
3202.7	0.000362
3212.34	0.000592
3221.99	0.000647
3231.64	0.000546
3241.28	0.000388
3250.93	0.000243
3260.58	0.000229
3270.22	0.000376
3279.87	0.000263
3289.52	0.000163
3299.16	0.000218
3308.81	0.00031
3318.45	0.000107
3328.1	9.2e-05
3337.75	0.000264
3347.39	0.000159
3357.04	0.000263
3366.69	0.000474
3376.33	0.000328
3385.98	0.00031
3395.63	0.000506
3405.27	0.000474
3414.92	0.000415
3424.57	0.000408
3434.21	0.000313
3443.86	0.000514
3453.51	0.000403
3463.15	0.000435
3472.8	0.0004
3482.45	0.000313
3492.09	0.000385
3501.74	0.000332
3511.39	0.000264
3521.03	0.000488
3530.68	0.000479
3540.33	0.000503
3549.97	0.000438
3559.62	0.000486
3569.26	0.000622
3578.91	0.000653
3588.56	0.000732
3598.2	0.000664
3607.85	0.0010754
3617.5	0.0015175
3627.14	0.002641
3636.79	0.004921
3646.44	0.008061
3656.08	0.006501
3665.73	0.003121
3675.38	0.0018335
3685.02	0.0013443
3694.67	0.0008995
3704.32	0.000638
3713.96	0.00076
3723.61	0.000839
3733.26	0.0008954
3742.9	0.000672
3752.55	0.0008301
3762.2	0.000518
3771.84	0.000613
3781.49	0.000606
3791.13	0.000681
3800.78	0.000771
3810.43	0.000613
3820.07	0.0008318
3829.72	0.000799
3839.37	0.0009008
3849.01	0.0008904
3858.66	0.000776
3868.31	0.00102024
3877.95	0.0008619
3887.6	0.00101358
3897.25	0.0009759
3906.89	0.0010217
3916.54	0.0010239
3926.19	0.0010434
3935.83	0.0010915
3945.48	0.00100877
3955.13	0.00099913
3964.77	0.0010475
3974.42	0.00100684
3984.07	0.0008664
3993.71	0.0008565
