Infrared Spectrum: Triazole-4-carboxamide, (1H)-1,2,3-, 5-[(N-methyl-N-phenyl)-1-triazeno]-
Formula: C10 H11 N7 O
CAS: 7229-14-3
State: SOLID (1 mg / 650 mg KBr DISC)
Class: COBLENTZ III
Instrument: PERKIN-ELMER 221 (GRATING)
Instrument parameters: FILTER AT 2490, 980 CM^-^1. GRATING 4000-1428 CM^-^1, NaCl PRISM 1428-650 CM^-^1
Sampling: TRANSMISSION
Resolution: 2
Origin: SOUTHERN RESEARCH INSTITUTE
1/CM	TRANSMITTANCE
632	0.6879
641	0.6228
650	0.8361
659	0.9067
668	0.8996
677	0.8449
686	0.4598
695	0.6859
704	0.9401
713	0.9534
722	0.9455
731	0.927
740	0.7641
749	0.4849
758	0.771
767	0.9288
776	0.7676
785	0.9417
794	0.9481
803	0.9458
812	0.9356
821	0.912
830	0.9034
839	0.8672
848	0.8122
857	0.6746
866	0.6722
875	0.8219
884	0.824
893	0.6668
902	0.5211
911	0.9404
920	0.9499
929	0.9486
938	0.9457
947	0.9402
956	0.9269
965	0.9005
974	0.8158
983	0.6815
992	0.8011
1001	0.8463
1010	0.9066
1019	0.7724
1028	0.8413
1037	0.8983
1046	0.8906
1055	0.8743
1064	0.8467
1073	0.7769
1082	0.8089
1091	0.7438
1100	0.5173
1109	0.4939
1118	0.6042
1127	0.6892
1136	0.6602
1145	0.8183
1154	0.8224
1163	0.8132
1172	0.7329
1181	0.7318
1190	0.7876
1199	0.7903
1208	0.7619
1217	0.7205
1226	0.6692
1235	0.5364
1244	0.3219
1253	0.5077
1262	0.7648
1271	0.7829
1280	0.6753
1289	0.4845
1298	0.6295
1307	0.544
1316	0.4821
1325	0.3541
1334	0.4319
1343	0.7341
1352	0.7932
1361	0.7762
1370	0.7314
1379	0.597
1388	0.4689
1397	0.6822
1406	0.6244
1415	0.2407
1424	0.184
1433	0.1661
1442	0.4506
1451	0.3197
1460	0.3383
1469	0.3722
1478	0.3183
1487	0.2308
1496	0.4478
1505	0.6788
1514	0.7224
1523	0.7902
1532	0.8091
1541	0.8156
1550	0.8104
1559	0.7704
1568	0.7012
1577	0.6238
1586	0.4787
1595	0.1978
1604	0.4267
1613	0.6777
1622	0.6655
1631	0.5487
1640	0.2202
1649	0.3084
1658	0.363
1667	0.3286
1676	0.1757
1685	0.075
1694	0.3279
1703	0.7712
1712	0.807
1721	0.8254
1730	0.8544
1739	0.8909
1748	0.9073
1757	0.9135
1766	0.917
1775	0.919
1784	0.9186
1793	0.9188
1802	0.9236
1811	0.9382
1820	0.9462
1829	0.9489
1838	0.9482
1847	0.9458
1856	0.944
1865	0.9467
1874	0.9511
1883	0.9527
1892	0.9515
1901	0.9494
1910	0.9449
1919	0.9389
1928	0.9338
1937	0.9312
1946	0.9316
1955	0.9337
1964	0.9358
1973	0.9366
1982	0.9363
1991	0.9347
2000	0.9328
2009	0.9309
2018	0.9284
2027	0.9258
2036	0.9234
2045	0.9211
2054	0.9188
2063	0.9172
2072	0.9156
2081	0.9137
2090	0.9111
2099	0.9084
2108	0.9067
2117	0.9054
2126	0.9051
2135	0.9048
2144	0.9047
2153	0.9057
2162	0.9058
2171	0.9029
2180	0.8985
2189	0.8937
2198	0.8914
2207	0.8896
2216	0.8888
2225	0.8881
2234	0.8866
2243	0.8851
2252	0.8822
2261	0.8779
2270	0.8731
2279	0.8679
2288	0.8632
2297	0.8588
2306	0.8547
2315	0.8511
2324	0.8476
2333	0.8441
2342	0.841
2351	0.8386
2360	0.8376
2369	0.8371
2378	0.8366
2387	0.836
2396	0.8353
2405	0.8341
2414	0.8329
2423	0.8276
2432	0.8215
2441	0.8134
2450	0.8064
2459	0.8
2468	0.7936
2477	0.7872
2486	0.7829
2495	0.7786
2504	0.7744
2513	0.7704
2522	0.764
2531	0.757
2540	0.7501
2549	0.7429
2558	0.7353
2567	0.7277
2576	0.7201
2585	0.7125
2594	0.7049
2603	0.698
2612	0.691
2621	0.6852
2630	0.681
2639	0.6769
2648	0.6737
2657	0.6716
2666	0.6639
2675	0.6444
2684	0.6282
2693	0.618
2702	0.6105
2711	0.6045
2720	0.5995
2729	0.5937
2738	0.5822
2747	0.5631
2756	0.5477
2765	0.5342
2774	0.521
2783	0.5063
2792	0.4934
2801	0.4837
2810	0.4777
2819	0.4708
2828	0.4619
2837	0.45
2846	0.4413
2855	0.4416
2864	0.4489
2873	0.4631
2882	0.4852
2891	0.5046
2900	0.5071
2909	0.5073
2918	0.5095
2927	0.5134
2936	0.5174
2945	0.5221
2954	0.5246
2963	0.5255
2972	0.5251
2981	0.5222
2990	0.5095
2999	0.5025
3008	0.4994
3017	0.4968
3026	0.4939
3035	0.4908
3044	0.4861
3053	0.4854
3062	0.484
3071	0.4831
3080	0.4843
3089	0.4875
3098	0.4957
3107	0.5104
3116	0.5287
3125	0.5346
3134	0.5298
3143	0.5196
3152	0.5058
3161	0.4944
3170	0.4834
3179	0.4725
3188	0.4542
3197	0.4396
3206	0.4314
3215	0.427
3224	0.4252
3233	0.4244
3242	0.4196
3251	0.4128
3260	0.4617
3269	0.5163
3278	0.5231
3287	0.5159
3296	0.5111
3305	0.5126
3314	0.5315
3323	0.5579
3332	0.5549
3341	0.5355
3350	0.4916
3359	0.4357
3368	0.327
3377	0.2299
3386	0.2126
3395	0.239
3404	0.3523
3413	0.4803
3422	0.5654
3431	0.6127
3440	0.6397
3449	0.6596
3458	0.6835
3467	0.7066
3476	0.719
3485	0.7242
3494	0.728
3503	0.7309
3512	0.7331
3521	0.736
3530	0.7422
3539	0.753
3548	0.7586
3557	0.7604
3566	0.7632
3575	0.7661
3584	0.7694
3593	0.7729
3602	0.7759
3611	0.7787
3620	0.78
3629	0.78
3638	0.7787
3647	0.7767
3656	0.7746
3665	0.7707
3674	0.771
3683	0.7738
3692	0.772
3701	0.7697
3710	0.7676
3719	0.7656
3728	0.7644
3737	0.7646
3746	0.7663
3755	0.7689
3764	0.7691
3773	0.7652
3782	0.7589
3791	0.755
3800	0.752
3809	0.7491
3818	0.7464
3827	0.7438
3836	0.743
3845	0.7428
3854	0.7436
3863	0.7444
3872	0.7455
3881	0.7461
3890	0.7465
3899	0.7462
3908	0.746
3917	0.7459
3926	0.7458
3935	0.7457
3944	0.7456
3953	0.7455
3962	0.7454
3971	0.7453
3980	0.7452
3989	0.7451
3998	0.745
