Infrared Spectrum: 1H-1,2,3-TRIAZOLE-4-CARBOXAMIDE, 5-(1-PYRROLIDINYLAZO)-
Formula: C7 H11 N7 O
CAS: 7229-10-9
State: SOLID (1 mg / 650 mg KBr DISC)
Class: COBLENTZ III
Instrument: PERKIN-ELMER 221 (GRATING)
Instrument parameters: FILTER CHANGES AT 2490, 980 CM^-^1, GRATING FOR 4000-1428 CM^-^1, NaCl PRISM FOR 1428-650 CM^-^1
Sampling: TRANSMISSION
Resolution: 4
Origin: SOUTHERN RESEARCH INST.
1/CM	TRANSMITTANCE
603.182	0.895
612.728	0.898
622.273	0.897
631.819	0.892
641.364	0.5552
650.91	0.631
660.455	0.834
670.001	0.9
679.546	0.8761
689.092	0.7851
698.638	0.7171
708.183	0.907
717.729	0.901
727.274	0.884
736.82	0.881
746.365	0.88
755.911	0.885
765.456	0.853
775.002	0.7681
784.548	0.8298
794.093	0.884
803.639	0.873
813.184	0.858
822.73	0.837
832.275	0.811
841.821	0.777
851.366	0.752
860.912	0.755
870.457	0.6651
880.003	0.6
889.549	0.6419
899.094	0.6588
908.64	0.86
918.185	0.8151
927.731	0.795
937.276	0.865
946.822	0.841
956.367	0.804
965.913	0.725
975.459	0.815
985.004	0.758
994.55	0.8119
1004.1	0.827
1013.64	0.792
1023.19	0.762
1032.73	0.816
1042.28	0.81
1051.82	0.8
1061.37	0.781
1070.91	0.765
1080.46	0.742
1090.01	0.7
1099.55	0.661
1109.1	0.7079
1118.64	0.677
1128.19	0.5711
1137.73	0.752
1147.28	0.741
1156.82	0.715
1166.37	0.673
1175.92	0.6301
1185.46	0.717
1195.01	0.665
1204.55	0.6
1214.1	0.665
1223.64	0.661
1233.19	0.614
1242.73	0.578
1252.28	0.572
1261.83	0.55
1271.37	0.4799
1280.92	0.385
1290.46	0.2939
1300.01	0.2309
1309.55	0.684
1319.1	0.6069
1328.64	0.552
1338.19	0.4899
1347.74	0.424
1357.28	0.371
1366.83	0.4541
1376.37	0.546
1385.92	0.3579
1395.46	0.2631
1405.01	0.249
1414.55	0.6301
1424.1	0.72
1433.65	0.746
1443.19	0.705
1452.74	0.618
1462.28	0.5149
1471.83	0.541
1481.37	0.566
1490.92	0.6359
1500.46	0.752
1510.01	0.803
1519.56	0.78
1529.1	0.78
1538.65	0.748
1548.19	0.707
1557.74	0.6699
1567.28	0.595
1576.83	0.4799
1586.37	0.348
1595.92	0.3843
1605.47	0.612
1615.01	0.586
1624.56	0.5109
1634.1	0.3851
1643.65	0.2599
1653.19	0.132
1662.74	0.228
1672.28	0.5033
1681.83	0.742
1691.38	0.845
1700.92	0.87
1710.47	0.892
1720.01	0.901
1729.56	0.918
1739.1	0.937
1748.65	0.944
1758.19	0.957
1767.74	0.957
1777.29	0.957
1786.83	0.956
1796.38	0.957
1805.92	0.961
1815.47	0.967
1825.01	0.968
1834.56	0.968
1844.1	0.967
1853.65	0.965
1863.2	0.962
1872.74	0.96
1882.29	0.957
1891.83	0.954
1901.38	0.952
1910.92	0.948
1920.47	0.944
1930.01	0.939
1939.56	0.936
1949.1	0.933
1958.65	0.93
1968.2	0.924
1977.74	0.92
1987.29	0.917
1996.83	0.915
2006.38	0.914
2015.92	0.911
2025.47	0.9062
2035.01	0.904
2044.56	0.902
2054.11	0.899
2063.65	0.896
2073.2	0.8917
2082.74	0.8868
2092.29	0.8839
2101.83	0.88
2111.38	0.877
2120.92	0.876
2130.47	0.8743
2140.02	0.874
2149.56	0.873
2159.11	0.8701
2168.65	0.865
2178.2	0.861
2187.74	0.8598
2197.29	0.857
2206.83	0.857
2216.38	0.8541
2225.93	0.85
2235.47	0.845
2245.02	0.842
2254.56	0.8395
2264.11	0.8362
2273.65	0.8297
2283.2	0.8268
2292.74	0.827
2302.29	0.827
2311.84	0.8241
2321.38	0.819
2330.93	0.807
2340.47	0.8043
2350.02	0.803
2359.56	0.801
2369.11	0.8
2378.65	0.7977
2388.2	0.79
2397.75	0.7879
2407.29	0.78
2416.84	0.778
2426.38	0.776
2435.93	0.7701
2445.47	0.766
2455.02	0.7625
2464.56	0.761
2474.11	0.7566
2483.66	0.7452
2493.2	0.7365
2502.75	0.7279
2512.29	0.725
2521.84	0.7163
2531.38	0.7084
2540.93	0.7016
2550.47	0.6908
2560.02	0.6825
2569.57	0.6776
2579.11	0.675
2588.66	0.6713
2598.2	0.661
2607.75	0.6569
2617.29	0.65
2626.84	0.6461
2636.38	0.6442
2645.93	0.6373
2655.48	0.6279
2665.02	0.6176
2674.57	0.6056
2684.11	0.6027
2693.66	0.601
2703.2	0.6
2712.75	0.597
2722.29	0.5901
2731.84	0.5765
2741.39	0.5593
2750.93	0.5477
2760.48	0.5385
2770.02	0.5331
2779.57	0.5256
2789.11	0.5227
2798.66	0.519
2808.2	0.5159
2817.75	0.513
2827.3	0.5072
2836.84	0.5042
2846.39	0.503
2855.93	0.5036
2865.48	0.507
2875.02	0.5144
2884.57	0.5583
2894.11	0.567
2903.66	0.565
2913.21	0.564
2922.75	0.564
2932.3	0.565
2941.84	0.5698
2951.39	0.5543
2960.93	0.5304
2970.48	0.5379
2980.02	0.5842
2989.57	0.625
2999.12	0.6218
3008.66	0.6159
3018.21	0.614
3027.75	0.612
3037.3	0.611
3046.84	0.61
3056.39	0.609
3065.93	0.608
3075.48	0.607
3085.03	0.607
3094.57	0.6093
3104.12	0.6272
3113.66	0.633
3123.21	0.631
3132.75	0.628
3142.3	0.6164
3151.84	0.6103
3161.39	0.6024
3170.94	0.6005
3180.48	0.6
3190.03	0.594
3199.57	0.5678
3209.12	0.5479
3218.66	0.547
3228.21	0.554
3237.75	0.5597
3247.3	0.561
3256.85	0.5687
3266.39	0.6169
3275.94	0.623
3285.48	0.6162
3295.03	0.5943
3304.57	0.5964
3314.12	0.5979
3323.66	0.5809
3333.21	0.5515
3342.76	0.5149
3352.3	0.4508
3361.85	0.3746
3371.39	0.351
3380.94	0.3878
3390.48	0.4603
3400.03	0.5682
3409.57	0.6114
3419.12	0.6495
3428.67	0.6829
3438.21	0.7027
3447.76	0.7138
3457.3	0.717
3466.85	0.718
3476.39	0.719
3485.94	0.7204
3495.48	0.722
3505.03	0.723
3514.58	0.7251
3524.12	0.727
3533.67	0.729
3543.21	0.731
3552.76	0.734
3562.3	0.7377
3571.85	0.742
3581.39	0.747
3590.94	0.751
3600.49	0.753
3610.03	0.7562
3619.58	0.757
3629.12	0.758
3638.67	0.758
3648.21	0.7572
3657.76	0.757
3667.3	0.757
3676.85	0.7555
3686.4	0.754
3695.94	0.7516
3705.49	0.7497
3715.03	0.7458
3724.58	0.743
3734.12	0.742
3743.67	0.742
3753.21	0.742
3762.76	0.742
3772.31	0.742
3781.85	0.742
3791.4	0.7376
3800.94	0.73
3810.49	0.7268
3820.03	0.726
3829.58	0.725
3839.12	0.725
3848.67	0.725
3858.22	0.723
3867.76	0.718
3877.31	0.717
3886.85	0.716
3896.4	0.715
3905.94	0.715
3915.49	0.715
3925.03	0.7149
3934.58	0.714
3944.13	0.714
3953.67	0.713
3963.22	0.713
3972.76	0.712
3982.31	0.712
3991.85	0.711
4001.4	0.711
4010.94	0.711
4020.49	0.711
