Infrared Spectrum: 1H-1,2,3-TRIAZOLE-4-CARBOXAMIDE, 5-[3-(p-BROMOPHENYL)-1-TRIAZENO]-
Formula: C9 H8 Br N7 O
CAS: 7229-15-4
State: SOLID (0.7 mg / 500 mg KBr DISC)
Class: COBLENTZ III
Instrument: PERKIN-ELMER 221 (GRATING)
Instrument parameters: FILTER CHANGE AT 980 CM^-^1, GRATING FOR 4000-1428 CM^-^1, NaCl PRISM FOR 1428-650 CM^-^1
Sampling: TRANSMISSION
Resolution: 4
Origin: SOUTHERN RESEARCH INSTITUTE
1/CM	TRANSMITTANCE
621.421	0.722
630.601	0.718
639.782	0.715
648.962	0.715
658.142	0.726
667.323	0.766
676.503	0.739
685.683	0.779
694.864	0.841
704.044	0.878
713.224	0.866
722.405	0.888
731.585	0.946
740.766	0.961
749.946	0.963
759.126	0.961
768.307	0.959
777.487	0.955
786.667	0.915
795.848	0.83
805.028	0.869
814.208	0.919
823.389	0.867
832.569	0.729
841.749	0.651
850.93	0.828
860.11	0.885
869.29	0.889
878.471	0.897
887.651	0.907
896.831	0.917
906.012	0.922
915.192	0.91
924.373	0.872
933.553	0.92
942.733	0.917
951.914	0.905
961.094	0.883
970.274	0.864
979.455	0.763
988.635	0.444
997.815	0.665
1007	0.728
1016.18	0.735
1025.36	0.884
1034.54	0.794
1043.72	0.794
1052.9	0.795
1062.08	0.756
1071.26	0.571
1080.44	0.817
1089.62	0.77
1098.8	0.636
1107.98	0.765
1117.16	0.699
1126.34	0.681
1135.52	0.73
1144.7	0.642
1153.88	0.532
1163.06	0.591
1172.24	0.572
1181.42	0.737
1190.6	0.755
1199.78	0.651
1208.96	0.552
1218.14	0.712
1227.32	0.777
1236.5	0.775
1245.68	0.766
1254.87	0.633
1264.05	0.729
1273.23	0.766
1282.41	0.738
1291.59	0.777
1300.77	0.735
1309.95	0.767
1319.13	0.718
1328.31	0.666
1337.49	0.603
1346.67	0.519
1355.85	0.386
1365.03	0.485
1374.21	0.691
1383.39	0.766
1392.57	0.687
1401.75	0.639
1410.93	0.617
1420.11	0.798
1429.29	0.801
1438.47	0.769
1447.65	0.681
1456.83	0.739
1466.01	0.628
1475.19	0.488
1484.37	0.46
1493.55	0.651
1502.73	0.665
1511.91	0.779
1521.1	0.728
1530.28	0.689
1539.46	0.738
1548.64	0.818
1557.82	0.793
1567	0.613
1576.18	0.444
1585.36	0.321
1594.54	0.204
1603.72	0.249
1612.9	0.406
1622.08	0.621
1631.26	0.546
1640.44	0.463
1649.62	0.427
1658.8	0.308
1667.98	0.181
1677.16	0.127
1686.34	0.364
1695.52	0.478
1704.7	0.68
1713.88	0.86
1723.06	0.916
1732.24	0.936
1741.42	0.952
1750.6	0.954
1759.78	0.955
1768.96	0.957
1778.15	0.958
1787.33	0.959
1796.51	0.961
1805.69	0.963
1814.87	0.964
1824.05	0.964
1833.23	0.965
1842.41	0.965
1851.59	0.964
1860.77	0.964
1869.95	0.962
1879.13	0.958
1888.31	0.95
1897.49	0.941
1906.67	0.939
1915.85	0.944
1925.03	0.947
1934.21	0.945
1943.39	0.945
1952.57	0.943
1961.75	0.941
1970.93	0.939
1980.11	0.936
1989.29	0.935
1998.47	0.934
2007.65	0.932
2016.83	0.93
2026.01	0.929
2035.19	0.927
2044.38	0.926
2053.56	0.926
2062.74	0.925
2071.92	0.925
2081.1	0.924
2090.28	0.923
2099.46	0.922
2108.64	0.916
2117.82	0.911
2127	0.909
2136.18	0.907
2145.36	0.906
2154.54	0.905
2163.72	0.904
2172.9	0.902
2182.08	0.899
2191.26	0.896
2200.44	0.894
2209.62	0.893
2218.8	0.894
2227.98	0.896
2237.16	0.896
2246.34	0.892
2255.52	0.888
2264.7	0.884
2273.88	0.881
2283.06	0.88
2292.24	0.878
2301.42	0.877
2310.61	0.875
2319.79	0.872
2328.97	0.869
2338.15	0.869
2347.33	0.866
2356.51	0.865
2365.69	0.862
2374.87	0.862
2384.05	0.86
2393.23	0.856
2402.41	0.852
2411.59	0.849
2420.77	0.843
2429.95	0.839
2439.13	0.836
2448.31	0.834
2457.49	0.833
2466.67	0.829
2475.85	0.826
2485.03	0.816
2494.21	0.811
2503.39	0.807
2512.57	0.804
2521.75	0.799
2530.93	0.792
2540.11	0.788
2549.29	0.782
2558.47	0.776
2567.66	0.772
2576.84	0.768
2586.02	0.764
2595.2	0.759
2604.38	0.754
2613.56	0.75
2622.74	0.74
2631.92	0.731
2641.1	0.723
2650.28	0.721
2659.46	0.717
2668.64	0.714
2677.82	0.709
2687	0.702
2696.18	0.694
2705.36	0.686
2714.54	0.68
2723.72	0.674
2732.9	0.669
2742.08	0.667
2751.26	0.665
2760.44	0.664
2769.62	0.664
2778.8	0.664
2787.98	0.664
2797.16	0.664
2806.34	0.664
2815.52	0.663
2824.7	0.662
2833.89	0.661
2843.07	0.658
2852.25	0.656
2861.43	0.654
2870.61	0.649
2879.79	0.639
2888.97	0.637
2898.15	0.627
2907.33	0.609
2916.51	0.6
2925.69	0.598
2934.87	0.597
2944.05	0.597
2953.23	0.595
2962.41	0.594
2971.59	0.592
2980.77	0.591
2989.95	0.591
2999.13	0.59
3008.31	0.59
3017.49	0.589
3026.67	0.587
3035.85	0.584
3045.03	0.574
3054.21	0.564
3063.39	0.559
3072.57	0.555
3081.75	0.55
3090.93	0.548
3100.12	0.547
3109.3	0.546
3118.48	0.542
3127.66	0.533
3136.84	0.521
3146.02	0.507
3155.2	0.485
3164.38	0.452
3173.56	0.417
3182.74	0.367
3191.92	0.357
3201.1	0.36
3210.28	0.37
3219.46	0.406
3228.64	0.428
3237.82	0.468
3247	0.479
3256.18	0.48
3265.36	0.473
3274.54	0.454
3283.72	0.437
3292.9	0.413
3302.08	0.373
3311.26	0.322
3320.44	0.341
3329.62	0.383
3338.8	0.402
3347.98	0.402
3357.17	0.401
3366.35	0.399
3375.53	0.408
3384.71	0.424
3393.89	0.481
3403.07	0.552
3412.25	0.601
3421.43	0.632
3430.61	0.649
3439.79	0.656
3448.97	0.66
3458.15	0.676
3467.33	0.693
3476.51	0.706
3485.69	0.715
3494.87	0.724
3504.05	0.731
3513.23	0.738
3522.41	0.743
3531.59	0.744
3540.77	0.747
3549.95	0.752
3559.13	0.757
3568.31	0.76
3577.49	0.765
3586.67	0.768
3595.85	0.772
3605.03	0.775
3614.21	0.776
3623.4	0.778
3632.58	0.779
3641.76	0.78
3650.94	0.78
3660.12	0.779
3669.3	0.779
3678.48	0.778
3687.66	0.776
3696.84	0.774
3706.02	0.774
3715.2	0.774
3724.38	0.773
3733.56	0.771
3742.74	0.769
3751.92	0.767
3761.1	0.767
3770.28	0.766
3779.46	0.766
3788.64	0.764
3797.82	0.762
3807	0.759
3816.18	0.756
3825.36	0.754
3834.54	0.752
3843.72	0.751
3852.9	0.751
3862.08	0.75
3871.26	0.75
3880.45	0.75
3889.63	0.749
3898.81	0.747
3907.99	0.747
3917.17	0.745
3926.35	0.744
3935.53	0.744
3944.71	0.743
3953.89	0.741
3963.07	0.741
3972.25	0.741
3981.43	0.74
3990.61	0.739
3999.79	0.738
4008.97	0.738
