Infrared Spectrum: SULFANILAMIDE, N^1-(5-METHYL-3-ISOXAZOLYL)-
Formula: C10 H11 N3 O3 S
CAS: 723-46-6
State: SOLID (KBr DISC) VS KBr
Class: COBLENTZ III
Instrument: PERKIN-ELMER 21 (GRATING)
Instrument parameters: FILTER AT ABOUT 10 MICRONS
Sampling: TRANSMISSION
Resolution: 2
1/CM	TRANSMITTANCE
4000	0.7606
3991	0.7617
3982	0.7628
3973	0.7646
3964	0.7664
3955	0.7681
3946	0.7698
3937	0.7715
3928	0.7733
3919	0.7745
3910	0.7755
3901	0.7761
3892	0.7761
3883	0.7761
3874	0.7761
3865	0.7761
3856	0.7761
3847	0.7761
3838	0.7761
3829	0.7764
3820	0.7767
3811	0.7771
3802	0.7775
3793	0.7778
3784	0.7782
3775	0.7785
3766	0.7792
3757	0.7805
3748	0.7818
3739	0.7832
3730	0.7844
3721	0.7858
3712	0.7871
3703	0.7887
3694	0.7906
3685	0.7925
3676	0.7945
3667	0.7965
3658	0.7984
3649	0.8004
3640	0.8021
3631	0.8038
3622	0.8054
3613	0.8071
3604	0.8088
3595	0.8104
3586	0.8118
3577	0.8135
3568	0.815
3559	0.8164
3550	0.8175
3541	0.8188
3532	0.8199
3523	0.8206
3514	0.8213
3505	0.8208
3496	0.8165
3487	0.8033
3478	0.7572
3469	0.7134
3460	0.6693
3451	0.6249
3442	0.5914
3433	0.6047
3424	0.6478
3415	0.6911
3406	0.7346
3397	0.7591
3388	0.7081
3379	0.6097
3370	0.5135
3361	0.5097
3352	0.5398
3343	0.5721
3334	0.6045
3325	0.6274
3316	0.5722
3307	0.5115
3298	0.4505
3289	0.391
3280	0.392
3271	0.4544
3262	0.5172
3253	0.5541
3244	0.5651
3235	0.5748
3226	0.5932
3217	0.6123
3208	0.6316
3199	0.6508
3190	0.6703
3181	0.6897
3172	0.6918
3163	0.6656
3154	0.6149
3145	0.564
3136	0.5169
3127	0.5264
3118	0.5629
3109	0.6043
3100	0.631
3091	0.6496
3082	0.6671
3073	0.678
3064	0.6878
3055	0.6974
3046	0.7064
3037	0.7154
3028	0.7243
3019	0.7311
3010	0.7374
3001	0.7438
2992	0.7475
2983	0.7508
2974	0.7541
2965	0.7571
2956	0.76
2947	0.7628
2938	0.7656
2929	0.7682
2920	0.7707
2911	0.7732
2902	0.776
2893	0.7798
2884	0.7833
2875	0.7851
2866	0.7865
2857	0.7874
2848	0.7883
2839	0.7891
2830	0.7901
2821	0.7915
2812	0.793
2803	0.7946
2794	0.7961
2785	0.7976
2776	0.7992
2767	0.8006
2758	0.8021
2749	0.8036
2740	0.8051
2731	0.8068
2722	0.8086
2713	0.8105
2704	0.8122
2695	0.8138
2686	0.8151
2677	0.8146
2668	0.813
2659	0.8115
2650	0.8114
2641	0.8121
2632	0.8128
2623	0.8143
2614	0.8167
2605	0.8208
2596	0.8265
2587	0.8332
2578	0.8396
2569	0.8456
2560	0.8494
2551	0.8531
2542	0.8556
2533	0.8568
2524	0.8577
2515	0.8581
2506	0.8584
2497	0.8588
2488	0.8591
2479	0.8588
2470	0.8584
2461	0.8582
2452	0.8578
2443	0.8575
2434	0.8573
2425	0.8571
2416	0.8574
2407	0.8578
2398	0.8584
2389	0.8589
2380	0.8594
2371	0.8598
2362	0.8603
2353	0.8608
2344	0.8615
2335	0.8621
2326	0.8633
2317	0.8657
2308	0.8681
2299	0.8706
2290	0.8734
2281	0.8763
2272	0.8791
2263	0.8803
2254	0.8811
2245	0.8814
2236	0.882
2227	0.883
2218	0.8855
2209	0.8874
2200	0.8894
2191	0.891
2182	0.8925
2173	0.8943
2164	0.8961
2155	0.8975
2146	0.898
2137	0.8987
2128	0.9006
2119	0.9021
2110	0.9035
2101	0.9047
2092	0.9061
2083	0.9073
2074	0.9086
2065	0.9099
2056	0.9112
2047	0.9125
2038	0.9118
2029	0.9094
2020	0.9092
2011	0.9101
2002	0.911
1993	0.9123
1984	0.9137
1975	0.9152
1966	0.9167
1957	0.9182
1948	0.9195
1939	0.9211
1930	0.9227
1921	0.9206
1912	0.8809
1903	0.8845
1894	0.9095
1885	0.9215
1876	0.9268
1867	0.9305
1858	0.9323
1849	0.9336
1840	0.9338
1831	0.9337
1822	0.9325
1813	0.9318
1804	0.9316
1795	0.931
1786	0.9299
1777	0.9237
1768	0.9147
1759	0.9168
1750	0.9221
1741	0.923
1732	0.9233
1723	0.9213
1714	0.914
1705	0.9078
1696	0.9018
1687	0.8895
1678	0.8716
1669	0.8421
1660	0.7998
1651	0.7731
1642	0.555
1633	0.3412
1624	0.1252
1615	0.2172
1606	0.3502
1597	0.0833
1588	0.3166
1579	0.5914
1570	0.658
1561	0.7512
1552	0.793
1543	0.8121
1534	0.8086
1525	0.7939
1516	0.7111
1507	0.3959
1498	0.3632
1489	0.5968
1480	0.4575
1471	0.2335
1462	0.4378
1453	0.6048
1444	0.6268
1435	0.6135
1426	0.7501
1417	0.7978
1408	0.8178
1399	0.7584
1390	0.6212
1381	0.445
1372	0.3114
1363	0.1631
1354	0.5369
1345	0.6976
1336	0.6871
1327	0.6819
1318	0.4185
1309	0.2237
1300	0.2553
1291	0.6035
1282	0.7208
1273	0.6693
1264	0.3588
1255	0.6628
1246	0.8041
1237	0.8536
1228	0.8617
1219	0.8771
1210	0.8902
1201	0.8857
1192	0.7978
1183	0.6228
1174	0.6571
1165	0.3327
1156	0.0514
1147	0.077
1138	0.0706
1129	0.2861
1120	0.5185
1111	0.6365
1102	0.6935
1093	0.3321
1084	0.4355
1075	0.6575
1066	0.7265
1057	0.7721
1048	0.7734
1039	0.7268
1030	0.7346
1021	0.6326
1012	0.6401
1003	0.7639
994	0.754
985	0.8071
976	0.8259
967	0.8339
958	0.8334
949	0.8207
940	0.7795
931	0.5736
922	0.4231
913	0.7103
904	0.7671
895	0.7408
886	0.4074
877	0.4632
868	0.6575
859	0.7038
850	0.6811
841	0.434
832	0.2827
823	0.4066
814	0.6392
805	0.7067
796	0.7357
787	0.7398
778	0.7111
769	0.7475
760	0.7567
751	0.7624
742	0.7584
733	0.7494
724	0.7124
715	0.6053
706	0.627
697	0.4202
688	0.1879
679	0.231
670	0.6016
661	0.7926
652	0.7894
