Infrared Spectrum: 9-Anthroic acid
Formula: C15 H10 O2
CAS: 723-62-6
State: SOLID (SPLIT MULL), FLUOROLUBE FOR 3800-1330 CM^-^1, NUJOL FOR 1330-450 CM^-^1
Melting point: 217 C
Class: COBLENTZ III
Instrument: DOW KBr FOREPRISM-GRATING
Instrument parameters: BLAZED AT 3.5, 12.0, 20.0 MICRON AND CHANGED AT 5.0, 7.5, 14.9 MICRON
Sampling: TRANSMISSION
Resolution: 2
Origin: DOW CHEMICAL COMPANY
1/CM	TRANSMITTANCE
3798	0.6693
3789	0.6749
3780	0.669
3771	0.6687
3762	0.6712
3753	0.674
3744	0.6787
3735	0.6858
3726	0.6882
3717	0.686
3708	0.6853
3699	0.6838
3690	0.6808
3681	0.6825
3672	0.6871
3663	0.6891
3654	0.6874
3645	0.6878
3636	0.6915
3627	0.686
3618	0.6814
3609	0.6912
3600	0.6911
3591	0.6926
3582	0.6911
3573	0.6917
3564	0.6932
3555	0.6946
3546	0.6943
3537	0.6943
3528	0.6954
3519	0.6965
3510	0.6976
3501	0.6976
3492	0.6974
3483	0.6971
3474	0.6968
3465	0.6975
3456	0.6984
3447	0.6992
3438	0.7001
3429	0.7008
3420	0.7018
3411	0.703
3402	0.704
3393	0.7055
3384	0.7064
3375	0.7061
3366	0.7061
3357	0.7065
3348	0.7071
3339	0.7078
3330	0.7088
3321	0.7103
3312	0.7061
3303	0.7022
3294	0.7025
3285	0.7031
3276	0.7025
3267	0.701
3258	0.6991
3249	0.6971
3240	0.6953
3231	0.6933
3222	0.6897
3213	0.6842
3204	0.6781
3195	0.6718
3186	0.6657
3177	0.6589
3168	0.6511
3159	0.6428
3150	0.6344
3141	0.6259
3132	0.6155
3123	0.6033
3114	0.5902
3105	0.5756
3096	0.5519
3087	0.5331
3078	0.5299
3069	0.5097
3060	0.4795
3051	0.4658
3042	0.4768
3033	0.467
3024	0.471
3015	0.4877
3006	0.4731
2997	0.4788
2988	0.4854
2979	0.4918
2970	0.4978
2961	0.4956
2952	0.4909
2943	0.4919
2934	0.4943
2925	0.4962
2916	0.4984
2907	0.5007
2898	0.5033
2889	0.506
2880	0.5083
2871	0.5103
2862	0.5136
2853	0.521
2844	0.5292
2835	0.5369
2826	0.5393
2817	0.5426
2808	0.5531
2799	0.5639
2790	0.5765
2781	0.5868
2772	0.5899
2763	0.5754
2754	0.5744
2745	0.5839
2736	0.5843
2727	0.5846
2718	0.5864
2709	0.5974
2700	0.6087
2691	0.6148
2682	0.6084
2673	0.5839
2664	0.5802
2655	0.59
2646	0.6001
2637	0.5928
2628	0.5793
2619	0.5787
2610	0.5908
2601	0.6058
2592	0.6085
2583	0.6027
2574	0.5967
2565	0.603
2556	0.6195
2547	0.6346
2538	0.6428
2529	0.6484
2520	0.6548
2511	0.6611
2502	0.6675
2493	0.6748
2484	0.6819
2475	0.6893
2466	0.6965
2457	0.7039
2448	0.7111
2439	0.7185
2430	0.7258
2421	0.7328
2412	0.7384
2403	0.7437
2394	0.7488
2385	0.7537
2376	0.758
2367	0.7611
2358	0.7588
2349	0.7568
2340	0.7565
2331	0.7572
2322	0.7586
2313	0.7639
2304	0.7706
2295	0.7739
2286	0.7768
2277	0.7796
2268	0.7832
2259	0.7874
2250	0.7918
2241	0.7968
2232	0.8021
2223	0.8075
2214	0.8134
2205	0.8165
2196	0.8195
2187	0.8228
2178	0.8261
2169	0.8296
2160	0.8341
2151	0.8386
2142	0.8425
2133	0.8464
2124	0.8501
2115	0.852
2106	0.8534
2097	0.8542
2088	0.8555
2079	0.8571
2070	0.8594
2061	0.8647
2052	0.8697
2043	0.8732
2034	0.8765
2025	0.8788
2016	0.8803
2007	0.8823
1998	0.8652
1989	0.8585
1980	0.8575
1971	0.8566
1962	0.8556
1953	0.8461
1944	0.851
1935	0.8508
1926	0.8375
1917	0.8431
1908	0.8418
1899	0.8418
1890	0.8485
1881	0.8521
1872	0.854
1863	0.8552
1854	0.8534
1845	0.8523
1836	0.8536
1827	0.8577
1818	0.857
1809	0.8539
1800	0.849
1791	0.8449
1782	0.844
1773	0.8574
1764	0.8691
1755	0.8797
1746	0.8827
1737	0.8857
1728	0.8836
1719	0.8739
1710	0.806
1701	0.6571
1692	0.3397
1683	0.0618
1674	0.169
1665	0.4974
1656	0.6228
1647	0.7138
1638	0.7571
1629	0.7425
1620	0.766
1611	0.7996
1602	0.8175
1593	0.8341
1584	0.8449
1575	0.8443
1566	0.8636
1557	0.811
1548	0.8712
1539	0.8802
1530	0.8668
1521	0.8401
1512	0.8705
1503	0.8797
1494	0.8731
1485	0.8175
1476	0.8715
1467	0.8768
1458	0.746
1449	0.6525
1440	0.7861
1431	0.6922
1422	0.6726
1413	0.8171
1404	0.8213
1395	0.8268
1386	0.8314
1377	0.8478
1368	0.8459
1359	0.7837
1350	0.6461
1341	0.6397
1332	0.7467
1323	0.7333
1314	0.7236
1305	0.7146
1296	0.471
1287	0.6894
1278	0.7418
1269	0.3727
1260	0.4004
1251	0.4294
1242	0.6547
1233	0.7078
1224	0.7165
1215	0.7722
1206	0.7856
1197	0.8072
1188	0.8125
1179	0.7444
1170	0.7793
1161	0.7742
1152	0.6472
1143	0.7278
1134	0.789
1125	0.7869
1116	0.7795
1107	0.7655
1098	0.7736
1089	0.7672
1080	0.7558
1071	0.7457
1062	0.7448
1053	0.7468
1044	0.7572
1035	0.76
1026	0.759
1017	0.7301
1008	0.7715
999	0.786
990	0.7626
981	0.7978
972	0.8056
963	0.801
954	0.7968
945	0.7578
936	0.7681
927	0.7145
918	0.6399
909	0.6671
900	0.7094
891	0.4337
882	0.7376
873	0.7974
864	0.8061
855	0.6208
846	0.6703
837	0.8049
828	0.842
819	0.854
810	0.8571
801	0.8539
792	0.6449
783	0.8504
774	0.8558
765	0.8459
756	0.8252
747	0.7918
738	0.5979
729	0.6393
720	0.2324
711	0.7543
702	0.827
693	0.8474
684	0.8509
675	0.8525
666	0.8611
657	0.8842
648	0.8443
639	0.6487
630	0.8564
621	0.8812
612	0.8825
603	0.8717
594	0.8363
585	0.8743
576	0.8756
567	0.8645
558	0.8277
549	0.8553
540	0.8493
531	0.8382
522	0.79
513	0.7374
504	0.8218
495	0.8297
486	0.8125
477	0.8024
468	0.7965
459	0.7721
