Infrared Spectrum: N-Phenylisatin
Formula: C 14 H 9 N O 2
CAS: 723-89-7
State: gas
Origin: EPA-IR VAPOR PHASE LIBRARY
1/CM	ABSORBANCE
549.8	0.00521
559.445	0.00397
569.09	0.001879
578.734	0.001743
588.379	0.001607
598.024	0.0025005
607.669	0.001989
617.313	0.0023277
626.958	0.0086
636.603	0.00534
646.248	0.00269
655.893	0.0032199
665.537	0.00333
675.182	0.00531
684.827	0.01095
694.472	0.02094
704.116	0.01615
713.761	0.00713
723.406	0.00591
733.051	0.00698
742.695	0.02447
752.34	0.04073
761.985	0.01586
771.63	0.00518
781.275	0.00394
790.919	0.0030835
800.564	0.00354
810.209	0.0033
819.854	0.00347
829.498	0.00343
839.143	0.00426
848.788	0.00676
858.433	0.00408
868.078	0.0029202
877.722	0.0028223
887.367	0.00359
897.012	0.00351
906.657	0.00519
916.301	0.0096
925.946	0.01754
935.591	0.00857
945.236	0.00443
954.88	0.00362
964.525	0.00392
974.17	0.0048
983.815	0.0075
993.46	0.00496
1003.1	0.00445
1012.75	0.00408
1022.39	0.00656
1032.04	0.00583
1041.68	0.0031481
1051.33	0.00453
1060.97	0.00541
1070.62	0.00704
1080.26	0.00962
1089.91	0.01582
1099.55	0.01505
1109.2	0.00911
1118.84	0.01287
1128.49	0.02454
1138.13	0.02912
1147.78	0.01528
1157.42	0.0093
1167.07	0.00949
1176.71	0.01736
1186.36	0.02552
1196	0.01777
1205.64	0.00709
1215.29	0.00086
1224.93	6e-05
1234.58	0.001808
1244.22	0.00104
1253.87	0.002049
1263.51	0.002196
1273.16	0.00367
1282.8	0.00821
1292.45	0.02227
1302.09	0.04135
1311.74	0.03084
1321.38	0.01188
1331.03	0.00989
1340.67	0.0154
1350.32	0.03486
1359.96	0.0543
1369.61	0.03223
1379.25	0.01061
1388.9	0.00668
1398.54	0.00573
1408.18	0.00544
1417.83	0.00541
1427.47	0.00542
1437.12	0.00701
1446.76	0.01064
1456.41	0.02532
1466.05	0.06972
1475.7	0.05015
1485.34	0.02466
1494.99	0.03989
1504.63	0.04508
1514.28	0.01392
1523.92	0.00856
1533.57	0.00713
1543.21	0.00587
1552.86	0.00588
1562.5	0.00682
1572.15	0.01042
1581.79	0.02176
1591.44	0.05263
1601.08	0.0765
1610.73	0.08359
1620.37	0.06193
1630.01	0.02201
1639.66	0.01088
1649.3	0.00814
1658.95	0.00629
1668.59	0.00555
1678.24	0.00594
1687.88	0.00648
1697.53	0.00686
1707.17	0.00751
1716.82	0.00927
1726.46	0.01263
1736.11	0.02081
1745.75	0.0647
1755.4	0.15734
1765.04	0.11688
1774.69	0.09836
1784.33	0.03785
1793.98	0.01053
1803.62	0.00702
1813.27	0.0066
1822.91	0.0059
1832.55	0.00597
1842.2	0.00551
1851.84	0.00564
1861.49	0.00511
1871.13	0.0045
1880.78	0.00399
1890.42	0.00384
1900.07	0.00356
1909.71	0.00408
1919.36	0.00422
1929	0.0038
1938.65	0.00419
1948.29	0.00443
1957.94	0.0039
1967.58	0.00342
1977.23	0.0028739
1986.87	0.0030655
1996.52	0.0029394
2006.16	0.0028852
2015.81	0.0025313
2025.45	0.0026385
2035.1	0.0027437
2044.74	0.0030119
2054.38	0.0029039
2064.03	0.0028412
2073.67	0.00278
2083.32	0.0028032
2092.96	0.0029171
2102.61	0.0031208
2112.25	0.0031093
2121.9	0.0029238
2131.54	0.0026502
2141.19	0.0026613
2150.83	0.0027733
2160.48	0.0025566
2170.12	0.0027442
2179.77	0.0029527
2189.41	0.0027437
2199.06	0.0030231
2208.7	0.0030727
2218.35	0.0029245
2227.99	0.0028256
2237.64	0.0028163
2247.28	0.0031637
2256.92	0.00324
2266.57	0.00375
2276.21	0.00334
2285.86	0.00337
2295.5	0.00334
2305.15	0.00324
2314.79	0.00358
2324.44	0.0032179
2334.08	0.00336
2343.73	0.0034
2353.37	0.0029786
2363.02	0.0025441
2372.66	0.0028143
2382.31	0.0026009
2391.95	0.0027583
2401.6	0.0026957
2411.24	0.0028488
2420.89	0.0030854
2430.53	0.0030955
2440.18	0.00327
2449.82	0.0031939
2459.47	0.0031111
2469.11	0.0031283
2478.75	0.0030306
2488.4	0.00345
2498.04	0.00341
2507.69	0.00325
2517.33	0.00334
2526.98	0.0027208
2536.62	0.00363
2546.27	0.00347
2555.91	0.00345
2565.56	0.0032151
2575.2	0.0027683
2584.85	0.002692
2594.49	0.0029387
2604.14	0.0030822
2613.78	0.0029387
2623.43	0.0029907
2633.07	0.0028378
2642.72	0.0029257
2652.36	0.0036
2662.01	0.0030658
2671.65	0.0029826
2681.29	0.0029281
2690.94	0.0028522
2700.58	0.0029176
2710.23	0.0027555
2719.87	0.0029395
2729.52	0.0031618
2739.16	0.0028954
2748.81	0.0031504
2758.45	0.00362
2768.1	0.0031178
2777.74	0.0030426
2787.39	0.0031212
2797.03	0.00358
2806.68	0.0030395
2816.32	0.0027637
2825.97	0.0030569
2835.61	0.0033
2845.26	0.0026708
2854.9	0.0031234
2864.55	0.00339
2874.19	0.0028318
2883.84	0.00322
2893.48	0.0031062
2903.12	0.00327
2912.77	0.0030869
2922.41	0.003133
2932.06	0.0030256
2941.7	0.0031603
2951.35	0.0024686
2960.99	0.0029427
2970.64	0.0027985
2980.28	0.002662
2989.93	0.0028705
2999.57	0.0029678
3009.22	0.00345
3018.86	0.00396
3028.51	0.00504
3038.15	0.00798
3047.8	0.00964
3057.44	0.01
3067.09	0.01277
3076.73	0.01588
3086.38	0.01265
3096.02	0.00906
3105.67	0.00584
3115.31	0.0044
3124.95	0.00358
3134.6	0.0028382
3144.24	0.0024473
3153.89	0.0027421
3163.53	0.001744
3173.18	0.002486
3182.82	0.002083
3192.47	0.0028892
3202.11	0.0031699
3211.76	0.00332
3221.4	0.0026757
3231.05	0.0024961
3240.69	0.002759
3250.34	0.0024855
3259.98	0.0027532
3269.63	0.0027152
3279.27	0.001981
3288.92	0.00224422
3298.56	0.0025378
3308.21	0.001676
3317.85	0.00222866
3327.49	0.0026719
3337.14	0.0022373
3346.78	0.0027076
3356.43	0.0026665
3366.07	0.00197
3375.72	0.0024596
3385.36	0.0024829
3395.01	0.0025823
3404.65	0.0021549
3414.3	0.0027485
3423.94	0.0029385
3433.59	0.002086
3443.23	0.0021742
3452.88	0.0031629
3462.52	0.0028523
3472.17	0.0024532
3481.81	0.00371
3491.46	0.00509
3501.1	0.00465
3510.75	0.00358
3520.39	0.0038
3530.04	0.00365
3539.68	0.0030177
3549.32	0.0030584
3558.97	0.0030567
3568.61	0.001745
3578.26	0.002059
3587.9	0.00195
3597.55	0.001642
3607.19	0.001929
3616.84	0.0021352
3626.48	0.00226828
3636.13	0.0025937
3645.77	0.0025135
3655.42	0.0026633
3665.06	0.00227949
3674.71	0.0028097
3684.35	0.00205
3694	0.0031068
3703.64	0.0026691
3713.29	0.0025879
3722.93	0.0025237
3732.58	0.001979
3742.22	0.001859
3751.86	0.0028217
3761.51	0.002613
3771.15	0.001725
3780.8	0.0026588
3790.44	0.0023607
3800.09	0.002684
3809.73	0.00231642
3819.38	0.0027016
3829.02	0.0024196
3838.67	0.0026797
3848.31	0.0029114
3857.96	0.0026329
3867.6	0.0024782
3877.25	0.0028717
3886.89	0.001865
3896.54	0.0025291
3906.18	0.001807
3915.83	0.0023264
3925.47	0.00201
3935.12	0.0021904
3944.76	0.0026784
3954.41	0.0028176
3964.05	0.002589
3973.69	0.0024884
3983.34	0.0025637
3992.98	0.0023392
