Infrared Spectrum: beta-Carotene
Formula: C 40 H 56
CAS: 7235-40-7
State: solid
Instrument: Bruker Tensor 37 FTIR
Resolution: 0.96450084
Origin: Pacific Northwest National Laboratory Under IARPA Contract
1/cm	Reflectance
7498.99	0.826889
7481.63	0.821296
7464.27	0.812553
7446.91	0.802627
7429.55	0.791317
7412.19	0.778546
7394.84	0.780857
7377.48	0.762958
7360.12	0.763678
7342.76	0.765436
7325.4	0.768108
7308.04	0.766088
7290.68	0.77057
7273.32	0.776993
7255.96	0.78018
7238.6	0.782409
7221.24	0.781963
7203.88	0.785637
7186.52	0.792293
7169.16	0.797663
7151.8	0.798857
7134.44	0.801585
7117.08	0.800923
7099.72	0.808873
7082.36	0.81329
7065	0.812516
7047.64	0.819713
7030.28	0.821236
7012.92	0.823993
6995.56	0.823394
6978.2	0.823391
6960.84	0.82392
6943.48	0.82174
6926.12	0.823299
6908.76	0.819193
6891.4	0.814084
6874.04	0.807469
6856.68	0.801529
6839.32	0.792126
6821.96	0.783124
6804.6	0.77859
6787.24	0.770953
6769.88	0.751297
6752.52	0.728502
6735.16	0.66303
6717.8	0.62676
6700.44	0.57719
6683.08	0.56179
6665.72	0.58688
6648.36	0.60604
6631	0.62146
6613.64	0.63837
6596.28	0.66145
6578.92	0.66226
6561.56	0.65716
6544.2	0.66931
6526.85	0.6882
6509.49	0.71215
6492.13	0.71807
6474.77	0.73115
6457.41	0.73329
6440.05	0.736
6422.69	0.73164
6405.33	0.73249
6387.97	0.74529
6370.61	0.74752
6353.25	0.75244
6335.89	0.75217
6318.53	0.75349
6301.17	0.75562
6283.81	0.75258
6266.45	0.74944
6249.09	0.74219
6231.73	0.72519
6214.37	0.72126
6197.01	0.72648
6179.65	0.71477
6162.29	0.7177
6144.93	0.70987
6127.57	0.70649
6110.21	0.70528
6092.85	0.69843
6075.49	0.67841
6058.13	0.66545
6040.77	0.64608
6023.41	0.62398
6006.05	0.61044
5988.69	0.58941
5971.33	0.54636
5953.97	0.4735
5936.61	0.46148
5919.25	0.40495
5901.89	0.4146
5884.53	0.44911
5867.17	0.48662
5849.81	0.49331
5832.45	0.49697
5815.09	0.49983
5797.73	0.5189
5780.37	0.51861
5763.01	0.52805
5745.65	0.55156
5728.29	0.56683
5710.93	0.54874
5693.57	0.55301
5676.21	0.56398
5658.86	0.58252
5641.5	0.59758
5624.14	0.59837
5606.78	0.63628
5589.42	0.64424
5572.06	0.63986
5554.7	0.62598
5537.34	0.61079
5519.98	0.57735
5502.62	0.5525
5485.26	0.52896
5467.9	0.51953
5450.54	0.52324
5433.18	0.52784
5415.82	0.52157
5398.46	0.51373
5381.1	0.50852
5363.74	0.4834
5346.38	0.45847
5329.02	0.43502
5311.66	0.41595
5294.3	0.36453
5276.94	0.26845
5259.58	0.14605
5242.22	0.10402
5224.86	0.0534
5207.5	0.05556
5190.14	0.08656
5172.78	0.09154
5155.42	0.22369
5138.06	0.35227
5120.7	0.37584
5103.34	0.37074
5085.98	0.40435
5068.62	0.46648
5051.26	0.48208
5033.9	0.48585
5016.54	0.49889
4999.18	0.50668
4981.82	0.47739
4964.46	0.489
4947.1	0.48716
4929.74	0.49969
4912.38	0.53235
4895.02	0.54951
4877.66	0.54476
4860.3	0.53343
4842.94	0.54509
4825.58	0.55447
4808.22	0.55663
4790.86	0.56981
4773.51	0.52678
4756.15	0.56119
4738.79	0.54224
4721.43	0.54263
4704.07	0.4563
4686.71	0.47041
4669.35	0.41342
4651.99	0.27605
4634.63	0.34111
4617.27	0.32787
4599.91	0.25834
4582.55	0.35701
4565.19	0.30073
4547.83	0.3087
4530.47	0.12817
4513.11	0.25806
4495.75	0.2682
4478.39	0.08844
4461.03	0.13687
4443.67	0.11086
4426.31	0.15579
4408.95	0.14353
4391.59	0.25322
4374.23	0.28918
4356.87	0.19996
4339.51	0.16883
4322.15	0.28291
4304.79	0.29995
4287.43	0.2564
4270.07	0.1811
4252.71	0.10921
4235.35	0.03742
4217.99	0.18119
4200.63	0.18685
4183.27	0.26436
4165.91	0.15886
4148.55	0.26659
4131.19	0.35354
4113.83	0.18168
4096.47	0.34774
4079.11	0.19737
4061.75	0.32655
4044.39	0.822433
4027.03	0.816769
4009.67	0.81349
3992.31	0.803927
3974.95	0.791095
3957.59	0.785099
3940.23	0.778025
3922.87	0.765308
3905.52	0.768745
3888.16	0.770514
3870.8	0.770655
3853.44	0.769858
3836.08	0.776513
3818.72	0.782985
3801.36	0.784442
3784	0.786104
3766.64	0.78558
3749.28	0.791643
3731.92	0.795582
3714.56	0.800064
3697.2	0.801932
3679.84	0.799604
3662.48	0.802848
3645.12	0.811082
3627.76	0.814603
3610.4	0.817013
3593.04	0.819819
3575.68	0.823722
3558.32	0.823572
3540.96	0.82498
3523.6	0.826889
3506.24	0.82372
3488.88	0.822366
3471.52	0.821703
3454.16	0.819284
3436.8	0.81431
3419.44	0.807123
3402.08	0.800687
3384.72	0.793152
3367.36	0.784886
3350	0.781188
3332.64	0.772003
3315.28	0.749335
3297.92	0.725067
3280.56	0.66028
3263.2	0.621654
3245.84	0.581815
3228.48	0.58369
3211.12	0.605246
3193.76	0.627556
3176.4	0.633623
3159.04	0.657293
3141.68	0.669215
3124.32	0.670649
3106.96	0.675659
3089.6	0.683389
3072.24	0.699402
3054.88	0.724534
3037.53	0.729562
3020.17	0.739949
3002.81	0.741917
2985.45	0.743856
2968.09	0.734278
2950.73	0.744435
2933.37	0.751991
2916.01	0.756293
2898.65	0.756762
2881.29	0.757994
2863.93	0.759897
2846.57	0.759437
2829.21	0.754896
2811.85	0.753324
2794.49	0.745253
2777.13	0.726189
2759.77	0.729387
2742.41	0.731612
2725.05	0.724396
2707.69	0.724157
2690.33	0.714303
2672.97	0.710075
2655.61	0.711279
2638.25	0.704256
2620.89	0.686827
2603.53	0.665308
2586.17	0.648486
2568.81	0.631545
2551.45	0.616709
2534.09	0.591081
2516.73	0.52929
2499.37	0.483311
2482.01	0.461295
2464.65	0.400047
2447.29	0.44759
2429.93	0.47512
2412.57	0.489295
2395.21	0.506052
2377.85	0.503635
2360.49	0.515024
2343.13	0.527608
2325.77	0.515576
2308.41	0.552574
2291.05	0.567742
2273.69	0.569746
2256.33	0.560379
2238.97	0.560618
2221.61	0.57675
2204.25	0.596569
2186.89	0.614346
2169.53	0.621222
2152.18	0.640765
2134.82	0.643523
2117.46	0.640682
2100.1	0.624412
2082.74	0.605853
2065.38	0.565159
2048.02	0.551333
2030.66	0.531644
2013.3	0.524621
1995.94	0.528509
1978.58	0.526689
1961.22	0.520797
1943.86	0.512248
1926.5	0.506595
1909.14	0.474229
1891.78	0.455771
1874.42	0.435171
1857.06	0.416704
1839.7	0.352008
1822.34	0.158502
1804.98	0.186879
1787.62	0.0868485
1770.26	0.0843022
1752.9	0.0687305
1735.54	0.09309
1718.18	0.169708
1700.82	0.296018
1683.46	0.3702
1666.1	0.385027
1648.74	0.396104
1631.38	0.408964
1614.02	0.465285
1596.66	0.491988
1579.3	0.495031
1561.94	0.504848
1544.58	0.503911
1527.22	0.487171
1509.86	0.485361
1492.5	0.491005
1475.14	0.514748
1457.78	0.549679
1440.42	0.545551
1423.06	0.531919
1405.7	0.548833
1388.34	0.550019
1370.98	0.561601
1353.62	0.559901
1336.26	0.551922
1318.9	0.540128
1301.54	0.555157
1284.19	0.530991
1266.83	0.522644
1249.47	0.496492
1232.11	0.397437
1214.75	0.361734
1197.39	0.298013
1180.03	0.380936
1162.67	0.291064
1145.31	0.339158
1127.95	0.367902
1110.59	0.213876
1093.23	0.316241
1075.87	0.200198
1058.51	0.269085
1041.15	0.238622
1023.79	0.0920605
1006.43	0.184231
989.068	0.137581
971.709	0.206486
954.349	0.24684
936.989	0.256381
919.629	0.321132
902.269	0.176381
884.91	0.169533
867.55	0.246169
850.19	0.309476
832.83	0.214557
815.47	0.148014
798.111	0.145247
780.751	0.0643091
763.391	0.223436
746.031	0.230386
728.671	0.25731
711.312	0.180619
693.952	0.274325
676.592	0.321564
659.232	0.268065
641.872	0.309117
624.513	0.238153
607.153	0.342476
