Infrared Spectrum: N,N-Dimethylisobutylamine
Formula: C 6 H 15 N
CAS: 7239-24-9
State: gas
Origin: EPA-IR VAPOR PHASE LIBRARY
1/CM	ABSORBANCE
501.5	0.0019365
513.074	0.001646
524.648	0.0010231
536.222	0.000615
547.796	0.0003
559.37	0
570.944	8.5e-05
582.518	0.00011
594.092	0.000211
605.666	0.000132
617.24	0.000128
628.814	7e-05
640.388	5.2e-05
651.962	0.000145
663.536	0.000228
675.11	0.000362
686.684	0.000301
698.258	0.000397
709.832	0.000543
721.406	0.000761
732.98	0.000907
744.554	0.0011726
756.128	0.0017188
767.702	0.00235
779.276	0.00293
790.85	0.00424
802.423	0.00831
813.997	0.0169
825.571	0.02967
837.145	0.03815
848.719	0.03051
860.293	0.01447
871.867	0.00666
883.441	0.00477
895.015	0.00464
906.589	0.00547
918.163	0.00674
929.737	0.00712
941.311	0.00655
952.885	0.00657
964.459	0.00645
976.033	0.00623
987.607	0.00781
999.181	0.01226
1010.76	0.02476
1022.33	0.06124
1033.9	0.12432
1045.48	0.14533
1057.05	0.09188
1068.63	0.03942
1080.2	0.02404
1091.77	0.02783
1103.35	0.04153
1114.92	0.0448
1126.49	0.0298
1138.07	0.02356
1149.64	0.02949
1161.22	0.03431
1172.79	0.02776
1184.36	0.01952
1195.94	0.01936
1207.51	0.0241
1219.09	0.02374
1230.66	0.01946
1242.23	0.02268
1253.81	0.04111
1265.38	0.05637
1276.96	0.05075
1288.53	0.0345
1300.1	0.02669
1311.68	0.02284
1323.25	0.02154
1334.83	0.02257
1346.4	0.02544
1357.97	0.03261
1369.55	0.04323
1381.12	0.05457
1392.7	0.05002
1404.27	0.03104
1415.84	0.01979
1427.42	0.02674
1438.99	0.05033
1450.57	0.08695
1462.14	0.11098
1473.71	0.09274
1485.29	0.05387
1496.86	0.02418
1508.44	0.01283
1520.01	0.00873
1531.58	0.00665
1543.16	0.00548
1554.73	0.0048
1566.31	0.00446
1577.88	0.00424
1589.45	0.00413
1601.03	0.00415
1612.6	0.00425
1624.18	0.00441
1635.75	0.00432
1647.32	0.00418
1658.9	0.00407
1670.47	0.00391
1682.05	0.00366
1693.62	0.00333
1705.19	0.00297
1716.77	0.00272
1728.34	0.00255
1739.92	0.00239
1751.49	0.00235
1763.06	0.00236
1774.64	0.00222
1786.21	0.00206
1797.79	0.0019486
1809.36	0.0018296
1820.93	0.0017772
1832.51	0.0018775
1844.08	0.0022
1855.66	0.00271
1867.23	0.00312
1878.8	0.00312
1890.38	0.0026
1901.95	0.0019082
1913.53	0.0016305
1925.1	0.00161
1936.67	0.0018316
1948.25	0.001978
1959.82	0.0018701
1971.4	0.001733
1982.97	0.001806
1994.54	0.0019573
2006.12	0.0019629
2017.69	0.0018961
2029.27	0.0018575
2040.84	0.0019243
2052.41	0.0019873
2063.99	0.00221
2075.56	0.0027
2087.14	0.0032
2098.71	0.00333
2110.28	0.003
2121.86	0.00262
2133.43	0.00231
2145.01	0.00215
2156.58	0.0020433
2168.15	0.0019893
2179.73	0.00217
2191.3	0.0023
2202.88	0.00232
2214.45	0.00221
2226.02	0.0021
2237.6	0.00223
2249.17	0.00247
2260.74	0.0026
2272.32	0.00261
2283.89	0.00267
2295.47	0.00267
2307.04	0.00258
2318.61	0.00244
2330.19	0.00235
2341.76	0.00239
2353.34	0.00255
2364.91	0.00284
2376.48	0.0031
2388.06	0.00325
2399.63	0.00351
2411.21	0.00375
2422.78	0.0038
2434.35	0.00357
2445.93	0.00338
2457.5	0.00359
2469.08	0.00425
2480.65	0.00516
2492.22	0.00609
2503.8	0.00647
2515.37	0.00627
2526.95	0.00608
2538.52	0.00633
2550.09	0.00682
2561.67	0.00726
2573.24	0.00771
2584.82	0.00841
2596.39	0.00946
2607.96	0.01043
2619.54	0.01112
2631.11	0.01174
2642.69	0.01318
2654.26	0.01562
2665.83	0.01822
2677.41	0.02109
2688.98	0.02659
2700.56	0.03639
2712.13	0.04999
2723.7	0.06408
2735.28	0.0784
2746.85	0.10914
2758.43	0.18612
2770	0.27958
2781.57	0.29999
2793.15	0.24351
2804.72	0.1936
2816.3	0.18372
2827.87	0.17267
2839.44	0.13512
2851.02	0.1177
2862.59	0.1396
2874.17	0.17519
2885.74	0.18779
2897.31	0.18914
2908.89	0.21362
2920.46	0.24568
2932.04	0.28445
2943.61	0.34874
2955.18	0.4275
2966.76	0.44714
2978.33	0.34221
2989.91	0.17891
3001.48	0.06573
3013.05	0.03377
3024.63	0.0242
3036.2	0.0197
3047.78	0.01702
3059.35	0.01567
3070.92	0.01473
3082.5	0.0137
3094.07	0.0123
3105.65	0.01112
3117.22	0.01028
3128.79	0.00992
3140.37	0.00953
3151.94	0.00913
3163.52	0.00887
3175.09	0.00863
3186.66	0.00818
3198.24	0.00718
3209.81	0.00591
3221.39	0.00461
3232.96	0.00364
3244.53	0.00291
3256.11	0.00253
3267.68	0.00255
3279.26	0.0026
3290.83	0.0025
3302.4	0.00219
3313.98	0.002002
3325.55	0.0019389
3337.13	0.0018041
3348.7	0.0018626
3360.27	0.001854
3371.85	0.0018984
3383.42	0.0018947
3395	0.0018138
3406.57	0.0016318
3418.14	0.0015721
3429.72	0.0012782
3441.29	0.00108718
3452.86	0.0009744
3464.44	0.0009783
3476.01	0.0009632
3487.59	0.000842
3499.16	0.000787
3510.73	0.000697
3522.31	0.000631
3533.88	0.000656
3545.46	0.000637
3557.03	0.000714
3568.6	0.000767
3580.18	0.000803
3591.75	0.000797
3603.33	0.000891
3614.9	0.000925
3626.47	0.000819
3638.05	0.000826
3649.62	0.00083
3661.2	0.000913
3672.77	0.000883
3684.34	0.0009825
3695.92	0.00105193
3707.49	0.00104606
3719.07	0.00112288
3730.64	0.00104211
3742.21	0.00105611
3753.79	0.001271
3765.36	0.0013376
3776.94	0.0014612
3788.51	0.0017336
3800.08	0.00212
3811.66	0.00242
3823.23	0.00261
3834.81	0.0024
3846.38	0.00213
3857.95	0.0020019
3869.53	0.00208
3881.1	0.00216
3892.68	0.00211
3904.25	0.0020167
3915.82	0.0019778
3927.4	0.00208
3938.97	0.00205
3950.55	0.00219
3962.12	0.00229
3973.69	0.00246
3985.27	0.0027
3996.84	0.00267
