Infrared Spectrum: trans-3-Dodecene
Formula: C 12 H 24
CAS: 7239-23-8
State: gas
Instrument: HP-GC/MS/IRD
Origin: NIST Mass Spectrometry Data Center
1/CM	ABSORBANCE
550	0.0002585
562	8.46e-05
574	1.88e-05
586	0.0001598
598	0.0002209
610	0.0001833
622	0.0001739
634	0.0001974
646	0.0003619
658	0.000282
670	0.0003008
682	0.0002585
694	0.0003995
706	0.000611
718	0.000799
730	0.0007614
742	0.0006862
754	0.000658
766	0.0006674
778	0.0005969
790	0.0005311
802	0.0004418
814	0.0005029
826	0.0003995
838	0.0004606
850	0.0005076
862	0.0004841
874	0.0006298
886	0.0007003
898	0.0009071
910	0.0008742
922	0.0009729
934	0.0012643
946	0.0020727
958	0.0041031
970	0.0044885
982	0.0022607
994	0.0012925
1006	0.0009541
1018	0.0008554
1030	0.0008178
1042	0.0007896
1054	0.0008272
1066	0.000846
1078	0.0008272
1090	0.0006674
1102	0.0005311
1114	0.0005123
1126	0.0004418
1138	0.0003572
1150	0.0003478
1162	0.0003619
1174	0.0003995
1186	0.0003901
1198	0.0003384
1210	0.0003713
1222	0.0003995
1234	0.0004512
1246	0.000611
1258	0.0005922
1270	0.0008225
1282	0.0010481
1294	0.0013677
1306	0.0014241
1318	0.0013536
1330	0.0014476
1342	0.0017155
1354	0.0016685
1366	0.0014147
1378	0.0014241
1390	0.0012737
1402	0.0009823
1414	0.0010058
1426	0.0013724
1438	0.0024064
1450	0.0036613
1462	0.0042723
1474	0.002914
1486	0.0013865
1498	0.0007943
1510	0.0005781
1522	0.0004089
1534	0.0003196
1546	0.0002867
1558	0.0002585
1570	0.0002162
1582	0.0002209
1594	0.0001927
1606	0.000188
1618	0.0001927
1630	0.000188
1642	0.0001692
1654	0.0002115
1666	0.0002115
1678	0.0002162
1690	0.0001833
1702	0.0002256
1714	0.0001739
1726	0.0001786
1738	0.0001833
1750	0.0001645
1762	0.000188
1774	0.0002068
1786	0.0002068
1798	0.0001692
1810	0.0001504
1822	0.0001128
1834	0.0001222
1846	0.0001081
1858	9.4e-05
1870	7.52e-05
1882	6.11e-05
1894	5.64e-05
1906	3.29e-05
1918	4.7e-05
1930	1.88e-05
1942	3.29e-05
1954	1.41e-05
1966	9.4e-06
1978	1.88e-05
1990	4.7e-05
2002	3.29e-05
2014	6.58e-05
2026	7.05e-05
2038	7.52e-05
2050	5.17e-05
2062	6.58e-05
2074	5.64e-05
2086	3.76e-05
2098	4.7e-06
2110	2.35e-05
2122	3.29e-05
2134	2.82e-05
2146	1.41e-05
2158	3.29e-05
2170	9.4e-06
2182	0
2194	2.35e-05
2206	1.41e-05
2218	4.7e-05
2230	2.82e-05
2242	1.41e-05
2254	1.41e-05
2266	2.35e-05
2278	4.23e-05
2290	3.29e-05
2302	3.76e-05
2314	2.82e-05
2326	4.7e-05
2338	7.99e-05
2350	7.99e-05
2362	8.93e-05
2374	7.05e-05
2386	9.4e-05
2398	8.46e-05
2410	7.99e-05
2422	7.52e-05
2434	6.11e-05
2446	6.11e-05
2458	5.17e-05
2470	5.64e-05
2482	5.64e-05
2494	6.11e-05
2506	9.4e-05
2518	0.0001128
2530	0.000141
2542	0.0001598
2554	0.0001645
2566	0.0001927
2578	0.0001927
2590	0.0002068
2602	0.000235
2614	0.0002914
2626	0.0003055
2638	0.000329
2650	0.000376
2662	0.0004371
2674	0.0004982
2686	0.000517
2698	0.0004841
2710	0.0004888
2722	0.0005452
2734	0.0006439
2746	0.0007191
2758	0.0007708
2770	0.000846
2782	0.0010058
2794	0.0013113
2806	0.0016685
2818	0.0022795
2830	0.0034075
2842	0.0062134
2854	0.013348
2866	0.0180198
2878	0.014993
2890	0.0141188
2902	0.0165534
2914	0.024816
2926	0.0417313
2938	0.0441471
2950	0.0274433
2962	0.0235846
2974	0.0230112
2986	0.0113176
2998	0.0067351
3010	0.0048034
3022	0.0039151
3034	0.0029234
3046	0.0019599
3058	0.0014805
3070	0.0011092
3082	0.0009165
3094	0.0007567
3106	0.0007191
3118	0.0006157
3130	0.0005593
3142	0.00047
3154	0.0004747
3166	0.000423
3178	0.0003431
3190	0.0003384
3202	0.0002397
3214	0.0002209
3226	0.0001927
3238	0.0001316
3250	0.0001175
3262	0.0001175
3274	0.0001081
3286	8.93e-05
3298	7.52e-05
3310	0.0001034
3322	0.0001128
3334	8.93e-05
3346	8.93e-05
3358	9.87e-05
3370	8.93e-05
3382	6.11e-05
3394	6.58e-05
3406	8.46e-05
3418	7.05e-05
3430	7.52e-05
3442	7.52e-05
3454	1.41e-05
3466	3.76e-05
3478	2.82e-05
3490	9.4e-05
3502	4.23e-05
3514	4.7e-05
3526	6.11e-05
3538	4.7e-05
3550	2.82e-05
3562	0.0001034
3574	8.93e-05
3586	9.87e-05
3598	8.93e-05
3610	8.46e-05
3622	0.0001222
3634	9.4e-05
3646	0.0001269
3658	0.0001081
3670	9.87e-05
3682	9.4e-05
3694	0.0001504
3706	0.0001175
3718	8.46e-05
3730	0.000141
3742	0.0001081
3754	0.0001316
3766	0.0001363
3778	0.0001128
3790	0.0001974
3802	0.0001598
3814	0.0001316
3826	0.0001739
3838	0.0002068
