Infrared Spectrum: 2-(Phenoxymethyl)benzoic acid
Formula: C 14 H 12 O 3
CAS: 724-98-1
State: gas
Origin: EPA-IR VAPOR PHASE LIBRARY
1/CM	ABSORBANCE
549.8	0.003494
559.445	0.004134
569.09	0.004804
578.734	0.005064
588.379	0.003284
598.024	0.002094
607.669	0.002474
617.313	0.002174
626.958	0.004624
636.603	0.007944
646.248	0.003764
655.893	0.001464
665.537	0.001834
675.182	0.002824
684.827	0.004804
694.472	0.005344
704.116	0.004224
713.761	0.004404
723.406	0.005944
733.051	0.011414
742.695	0.015014
752.34	0.013304
761.985	0.006884
771.63	0.004464
781.275	0.003474
790.919	0.002784
800.564	0.001764
810.209	0.002134
819.854	0.001974
829.498	0.001614
839.143	0.001704
848.788	0.001954
858.433	0.001844
868.078	0.001504
877.722	0.001804
887.367	0.001944
897.012	0.001404
906.657	0.001474
916.301	0.001334
925.946	0.001213
935.591	0.0010575
945.236	0.0012514
954.88	0.001524
964.525	0.001794
974.17	0.001464
983.815	0.002824
993.46	0.003654
1003.1	0.003984
1012.75	0.007114
1022.39	0.010644
1032.04	0.016374
1041.68	0.015504
1051.33	0.012374
1060.97	0.012914
1070.62	0.008434
1080.26	0.006944
1089.91	0.004914
1099.55	0.005244
1109.2	0.007264
1118.84	0.009114
1128.49	0.013604
1138.13	0.008994
1147.78	0.005084
1157.42	0.006714
1167.07	0.012464
1176.71	0.019424
1186.36	0.017764
1196	0.011734
1205.64	0.014134
1215.29	0.020444
1224.93	0.021744
1234.58	0.024154
1244.22	0.022214
1253.87	0.011304
1263.51	0.008424
1273.16	0.007804
1282.8	0.007864
1292.45	0.008184
1302.09	0.009024
1311.74	0.007494
1321.38	0.005934
1331.03	0.006914
1340.67	0.008044
1350.32	0.006414
1359.96	0.004034
1369.61	0.004284
1379.25	0.005154
1388.9	0.003714
1398.54	0.001874
1408.18	0.001264
1417.83	0.0012622
1427.47	0.001604
1437.12	0.002214
1446.76	0.003664
1456.41	0.003834
1466.05	0.004154
1475.7	0.005324
1485.34	0.010684
1494.99	0.021164
1504.63	0.009484
1514.28	0.002764
1523.92	0.001664
1533.57	0.001484
1543.21	0.001644
1552.86	0.001784
1562.5	0.002734
1572.15	0.004604
1581.79	0.007984
1591.44	0.013654
1601.08	0.013894
1610.73	0.004914
1620.37	0.002084
1630.01	0.001414
1639.66	0.0012407
1649.3	0.0011533
1658.95	0.0010597
1668.59	0.0011703
1678.24	0.001264
1687.88	0.001734
1697.53	0.002264
1707.17	0.003034
1716.82	0.004194
1726.46	0.005834
1736.11	0.010064
1745.75	0.028714
1755.4	0.040834
1765.04	0.019874
1774.69	0.008344
1784.33	0.005544
1793.98	0.003984
1803.62	0.002584
1813.27	0.001964
1822.91	0.001544
1832.55	0.0012504
1842.2	0.0010457
1851.84	0.0010784
1861.49	0.0008873
1871.13	0.0008088
1880.78	0.0007292
1890.42	0.0007088
1900.07	0.000817
1909.71	0.0009219
1919.36	0.0011217
1929	0.0012238
1938.65	0.0011659
1948.29	0.000953
1957.94	0.0008995
1967.58	0.0007761
1977.23	0.0007691
1986.87	0.0007184
1996.52	0.0006846
2006.16	0.0006587
2015.81	0.0006133
2025.45	0.0007697
2035.1	0.00072
2044.74	0.0007242
2054.38	0.0006949
2064.03	0.0006417
2073.67	0.0007699
2083.32	0.0006548
2092.96	0.0006293
2102.61	0.000528
2112.25	0.0005115
2121.9	0.0005534
2131.54	0.0005443
2141.19	0.0005122
2150.83	0.0005355
2160.48	0.000489
2170.12	0.0005858
2179.77	0.0004982
2189.41	0.0004485
2199.06	0.0003905
2208.7	0.0005097
2218.35	0.0004706
2227.99	0.0004688
2237.64	0.0005493
2247.28	0.0004031
2256.92	0.0004691
2266.57	0.0005065
2276.21	0.000542
2285.86	0.0005941
2295.5	0.0005119
2305.15	0.0005652
2314.79	0.0006379
2324.44	0.0005721
2334.08	0.0006726
2343.73	0.0007066
2353.37	0.0006474
2363.02	0.0006225
2372.66	0.0006972
2382.31	0.0007487
2391.95	0.0005032
2401.6	0.0004769
2411.24	0.000646
2420.89	0.00067
2430.53	0.0006775
2440.18	0.0006214
2449.82	0.0006552
2459.47	0.0005649
2469.11	0.0005687
2478.75	0.0004791
2488.4	0.0007692
2498.04	0.0003745
2507.69	0.0006305
2517.33	0.0005654
2526.98	0.0004967
2536.62	0.0005405
2546.27	0.000508
2555.91	0.0005446
2565.56	0.0006929
2575.2	0.0003861
2584.85	0.0005051
2594.49	0.00048
2604.14	0.0004718
2613.78	0.0004578
2623.43	0.0005278
2633.07	0.0004143
2642.72	0.0003974
2652.36	0.0004672
2662.01	0.0005018
2671.65	0.00032561
2681.29	0.0004221
2690.94	0.0004277
2700.58	0.0004644
2710.23	0.0004192
2719.87	0.00035868
2729.52	0.0004978
2739.16	0.0004878
2748.81	0.000423
2758.45	0.0002369
2768.1	0.0004806
2777.74	0.0003668
2787.39	0.0005734
2797.03	0.0005762
2806.68	0.0005641
2816.32	0.0005374
2825.97	0.0008115
2835.61	0.0006847
2845.26	0.0005349
2854.9	0.0009065
2864.55	0.0008485
2874.19	0.0011344
2883.84	0.0012605
2893.48	0.0012606
2903.12	0.0012115
2912.77	0.0012445
2922.41	0.001344
2932.06	0.001394
2941.7	0.0012592
2951.35	0.001434
2960.99	0.0012078
2970.64	0.001095
2980.28	0.0007126
2989.93	0.0007819
2999.57	0.0009565
3009.22	0.0011259
3018.86	0.001514
3028.51	0.002484
3038.15	0.003614
3047.8	0.003844
3057.44	0.003614
3067.09	0.004864
3076.73	0.006644
3086.38	0.004544
3096.02	0.002864
3105.67	0.002004
3115.31	0.001304
3124.95	0.0009434
3134.6	0.0005245
3144.24	0.0006374
3153.89	0.0005624
3163.53	0.0007492
3173.18	0.0005257
3182.82	0.0006945
3192.47	0.0006437
3202.11	0.0005545
3211.76	0.0003694
3221.4	0.0003853
3231.05	0.00033321
3240.69	0.0006165
3250.34	0.0005937
3259.98	0.0001725
3269.63	0.0005312
3279.27	0.000553
3288.92	0.0004079
3298.56	0.000605
3308.21	0.000609
3317.85	0.0006367
3327.49	0.0006656
3337.14	0.0007903
3346.78	0.0005226
3356.43	0.0007716
3366.07	0.0004058
3375.72	0.0007485
3385.36	0.0006602
3395.01	0.0005292
3404.65	0.0007206
3414.3	0.0004276
3423.94	0.0004297
3433.59	0.000416
3443.23	0.0005923
3452.88	0.0005147
3462.52	0.0006856
3472.17	0.0006521
3481.81	0.0007967
3491.46	0.0004881
3501.1	0.0007795
3510.75	0.0006275
3520.39	0.0005808
3530.04	0.0006453
3539.68	0.0006566
3549.32	0.0010779
3558.97	0.003194
3568.61	0.008384
3578.26	0.011944
3587.9	0.006154
3597.55	0.001474
3607.19	0.0004876
3616.84	0.0004894
3626.48	0.0008397
3636.13	0.0007544
3645.77	0.0004591
3655.42	0.0004981
3665.06	0.0003881
3674.71	0.000477
3684.35	0.00035924
3694	0.00031728
3703.64	0.000566
3713.29	0.0005133
3722.93	0.0004071
3732.58	0.000471
3742.22	0.0004343
3751.86	0.00033547
3761.51	0.0005726
3771.15	0.000384
3780.8	0.00049
3790.44	0.0005339
3800.09	0.0005508
3809.73	0.0001916
3819.38	0.00027948
3829.02	0.0006545
3838.67	0.000166
3848.31	0.0002516
3857.96	0.00033468
3867.6	0.0006477
3877.25	0.0007035
3886.89	0.0003691
3896.54	0.0007715
3906.18	0.0006489
3915.83	0.0003149
3925.47	0.0005472
3935.12	0.00031354
3944.76	0.0005291
3954.41	0.0005957
3964.05	0.00028042
3973.69	0.0006394
3983.34	0.0004303
3992.98	0
