Infrared Spectrum: Cyclohexanol, 2-(6-amino-9H-purin-9-yl)-, cis-
Formula: C11 H15 N5 O
CAS: 724-13-0
State: SOLID (KBr DISC)
Class: COBLENTZ III
Instrument: PERKIN-ELMER 21 (GRATING)
Instrument parameters: FILTER CHANGE ABOUT 1090 CM^-^1
Sampling: TRANSMISSION
Resolution: 2
Origin: SOUTHERN RESEARCH INSTITUTE
1/CM	TRANSMITTANCE
598	0.4811
607.04	0.6087
616.079	0.5944
625.119	0.5353
634.159	0.3441
643.198	0.2836
652.238	0.4483
661.278	0.5865
670.317	0.6088
679.357	0.5848
688.397	0.6559
697.437	0.6561
706.476	0.645
715.516	0.5465
724.556	0.4107
733.595	0.5832
742.635	0.7152
751.675	0.7239
760.714	0.7057
769.754	0.7039
778.794	0.7268
787.833	0.6556
796.873	0.4528
805.913	0.6821
814.952	0.5333
823.992	0.6407
833.032	0.693
842.071	0.7589
851.111	0.7618
860.151	0.75
869.19	0.7688
878.23	0.7621
887.27	0.7245
896.31	0.5713
905.349	0.6263
914.389	0.6078
923.429	0.7017
932.468	0.754
941.508	0.6938
950.548	0.6588
959.587	0.6874
968.627	0.492
977.667	0.3741
986.706	0.4232
995.746	0.2243
1004.79	0.5353
1013.83	0.6436
1022.87	0.6046
1031.9	0.5811
1040.94	0.6854
1049.98	0.6826
1059.02	0.5559
1068.06	0.4689
1077.1	0.267
1086.14	0.39
1095.18	0.6563
1104.22	0.6584
1113.26	0.5795
1122.3	0.3639
1131.34	0.565
1140.38	0.5651
1149.42	0.6364
1158.46	0.6101
1167.5	0.5395
1176.54	0.5864
1185.58	0.5598
1194.62	0.4952
1203.66	0.3341
1212.7	0.2428
1221.74	0.3582
1230.78	0.452
1239.82	0.4287
1248.86	0.3958
1257.9	0.408
1266.94	0.465
1275.98	0.4127
1285.02	0.2226
1294.06	0.1931
1303.1	0.1627
1312.13	0.3221
1321.17	0.3106
1330.21	0.3402
1339.25	0.3288
1348.29	0.1802
1357.33	0.298
1366.37	0.3277
1375.41	0.3546
1384.45	0.4495
1393.49	0.5472
1402.53	0.4604
1411.57	0.3059
1420.61	0.1877
1429.65	0.3672
1438.69	0.3884
1447.73	0.348
1456.77	0.3828
1465.81	0.3562
1474.85	0.2538
1483.89	0.347
1492.93	0.6025
1501.97	0.5928
1511.01	0.5138
1520.05	0.574
1529.09	0.6131
1538.13	0.5776
1547.17	0.5335
1556.21	0.4577
1565.25	0.1226
1574.29	0.2664
1583.33	0.4336
1592.37	0.2928
1601.4	0.1166
1610.44	0.0896
1619.48	0.2102
1628.52	0.3286
1637.56	0.3275
1646.6	0.321
1655.64	0.3168
1664.68	0.2689
1673.72	0.2326
1682.76	0.0749
1691.8	0.0586
1700.84	0.21
1709.88	0.4171
1718.92	0.6037
1727.96	0.6704
1737	0.7534
1746.04	0.8209
1755.08	0.8563
1764.12	0.8669
1773.16	0.8738
1782.2	0.883
1791.24	0.8863
1800.28	0.8858
1809.32	0.8841
1818.36	0.8784
1827.4	0.8788
1836.44	0.8761
1845.48	0.8839
1854.52	0.8701
1863.56	0.8508
1872.6	0.835
1881.63	0.8374
1890.67	0.8613
1899.71	0.8695
1908.75	0.8701
1917.79	0.8676
1926.83	0.8687
1935.87	0.8639
1944.91	0.8567
1953.95	0.8558
1962.99	0.8551
1972.03	0.8554
1981.07	0.8557
1990.11	0.8551
1999.15	0.8545
2008.19	0.8515
2017.23	0.8419
2026.27	0.8391
2035.31	0.8396
2044.35	0.8379
2053.39	0.8348
2062.43	0.8379
2071.47	0.8377
2080.51	0.8346
2089.55	0.831
2098.59	0.8199
2107.63	0.8258
2116.67	0.8299
2125.71	0.8295
2134.75	0.8247
2143.79	0.8262
2152.83	0.8258
2161.87	0.8234
2170.9	0.8221
2179.94	0.8171
2188.98	0.8106
2198.02	0.8066
2207.06	0.8091
2216.1	0.8073
2225.14	0.7942
2234.18	0.7872
2243.22	0.7823
2252.26	0.7784
2261.3	0.7753
2270.34	0.7738
2279.38	0.7744
2288.42	0.7751
2297.46	0.7713
2306.5	0.7591
2315.54	0.7563
2324.58	0.7497
2333.62	0.7449
2342.66	0.7412
2351.7	0.7405
2360.74	0.7412
2369.78	0.7465
2378.82	0.7495
2387.86	0.7503
2396.9	0.7486
2405.94	0.7446
2414.98	0.7407
2424.02	0.7407
2433.06	0.7381
2442.1	0.7297
2451.13	0.7249
2460.17	0.7225
2469.21	0.7181
2478.25	0.7125
2487.29	0.7076
2496.33	0.7029
2505.37	0.6977
2514.41	0.6923
2523.45	0.6879
2532.49	0.6835
2541.53	0.6735
2550.57	0.6635
2559.61	0.6542
2568.65	0.6437
2577.69	0.6353
2586.73	0.627
2595.77	0.6173
2604.81	0.6082
2613.85	0.5973
2622.89	0.5818
2631.93	0.5653
2640.97	0.5523
2650.01	0.5271
2659.05	0.5176
2668.09	0.5159
2677.13	0.5207
2686.17	0.5296
2695.21	0.5256
2704.25	0.5208
2713.29	0.5159
2722.33	0.5114
2731.37	0.5071
2740.4	0.503
2749.44	0.4991
2758.48	0.4921
2767.52	0.4814
2776.56	0.4658
2785.6	0.4469
2794.64	0.4237
2803.68	0.3944
2812.72	0.3008
2821.76	0.2736
2830.8	0.2768
2839.84	0.2885
2848.88	0.2906
2857.92	0.2872
2866.96	0.2781
2876	0.2605
2885.04	0.224
2894.08	0.1765
2903.12	0.1299
2912.16	0.1144
2921.2	0.1533
2930.24	0.2357
2939.28	0.3181
2948.32	0.3729
2957.36	0.3759
2966.4	0.3644
2975.44	0.3406
2984.48	0.3179
2993.52	0.3005
3002.56	0.2841
3011.6	0.2704
3020.63	0.2589
3029.67	0.2477
3038.71	0.2357
3047.75	0.2226
3056.79	0.1998
3065.83	0.1769
3074.87	0.1582
3083.91	0.1434
3092.95	0.1299
3101.99	0.1174
3111.03	0.1085
3120.07	0.1011
3129.11	0.1014
3138.15	0.1058
3147.19	0.1106
3156.23	0.1115
3165.27	0.1098
3174.31	0.1163
3183.35	0.1244
3192.39	0.1285
3201.43	0.1321
3210.47	0.1361
3219.51	0.132
3228.55	0.1264
3237.59	0.1153
3246.63	0.0968
3255.67	0.083
3264.71	0.0789
3273.75	0.0793
3282.79	0.0814
3291.83	0.0864
3300.87	0.094
3309.9	0.1061
3318.94	0.1212
3327.98	0.1413
3337.02	0.1664
3346.06	0.199
3355.1	0.238
3364.14	0.2861
3373.18	0.3375
3382.22	0.3667
3391.26	0.391
3400.3	0.4157
3409.34	0.4438
3418.38	0.4654
3427.42	0.4893
3436.46	0.5157
3445.5	0.5455
3454.54	0.5774
3463.58	0.6103
3472.62	0.6357
3481.66	0.6601
3490.7	0.6876
3499.74	0.7085
3508.78	0.7151
3517.82	0.7208
3526.86	0.7311
3535.9	0.7407
3544.94	0.7497
3553.98	0.7598
3563.02	0.77
3572.06	0.7799
3581.1	0.7878
3590.13	0.797
3599.17	0.8086
3608.21	0.8168
3617.25	0.8185
3626.29	0.8191
3635.33	0.8203
3644.37	0.8236
3653.41	0.8287
3662.45	0.8299
3671.49	0.8273
3680.53	0.8246
3689.57	0.8214
3698.61	0.818
3707.65	0.8144
3716.69	0.8107
3725.73	0.8075
3734.77	0.8049
3743.81	0.8029
3752.85	0.8014
3761.89	0.8003
3770.93	0.8001
3779.97	0.7976
3789.01	0.7952
3798.05	0.7934
3807.09	0.7916
3816.13	0.7908
3825.17	0.7949
3834.21	0.796
3843.25	0.7954
3852.29	0.7936
3861.33	0.7917
3870.37	0.7897
3879.4	0.7869
3888.44	0.7836
3897.48	0.7798
3906.52	0.7782
3915.56	0.7773
3924.6	0.7767
3933.64	0.7761
3942.68	0.7756
3951.72	0.7752
3960.76	0.7769
3969.8	0.7794
3978.84	0.7909
3987.88	0.7754
3996.92	0.7685
4005.96	0.7673
4015	0.7677
