Infrared Spectrum: Purine, 6-Benzylthio-
Formula: C12 H10 N4 S
CAS: 724-34-5
State: SOLID (0.5 mg / 650 mg KBr DISC)
Class: COBLENTZ III
Instrument: PERKIN-ELMER 21 (GRATING)
Instrument parameters: FILTER CHANGE ABOUT 1075 CM^-^1
Sampling: TRANSMISSION
Resolution: 2
Origin: SOUTHERN RESEARCH INSTITUTE
1/CM	TRANSMITTANCE
614.14	0.9042
623.171	0.893
632.202	0.9116
641.233	0.832
650.264	1.0227
659.295	1.0038
668.326	0.9313
677.357	0.921
686.389	0.7738
695.42	0.805
704.451	0.6482
713.482	0.8348
722.513	0.9499
731.544	0.928
740.575	0.9108
749.606	0.8875
758.637	0.8641
767.668	0.8253
776.699	0.7787
785.73	0.7941
794.761	0.7243
803.792	0.759
812.823	0.7332
821.854	0.7184
830.886	0.5923
839.917	0.5102
848.948	0.5594
857.979	0.7643
867.01	0.7578
876.041	0.7011
885.072	0.6318
894.103	0.536
903.134	0.7224
912.165	0.7129
921.196	0.6771
930.227	0.6039
939.258	0.5231
948.289	0.4488
957.32	0.7909
966.352	0.8465
975.383	0.8459
984.414	0.8227
993.445	0.7717
1002.48	0.803
1011.51	0.8353
1020.54	0.8169
1029.57	0.8235
1038.6	0.8321
1047.63	0.8272
1056.66	0.8017
1065.69	0.7649
1074.72	0.7381
1083.76	0.8006
1092.79	0.7928
1101.82	0.784
1110.85	0.7756
1119.88	0.7629
1128.91	0.7029
1137.94	0.7202
1146.97	0.7561
1156	0.7604
1165.03	0.7585
1174.07	0.7513
1183.1	0.7316
1192.13	0.6939
1201.16	0.7011
1210.19	0.6778
1219.22	0.5822
1228.25	0.3889
1237.28	0.3716
1246.31	0.6154
1255.35	0.7228
1264.38	0.7425
1273.41	0.7893
1282.44	0.7381
1291.47	0.8086
1300.5	0.812
1309.53	0.7963
1318.56	0.723
1327.59	0.4602
1336.63	0.7826
1345.66	0.791
1354.69	0.767
1363.72	0.7217
1372.75	0.6557
1381.78	0.3544
1390.81	0.5828
1399.84	0.8062
1408.87	0.7941
1417.9	0.7341
1426.94	0.579
1435.97	0.6248
1445	0.781
1454.03	0.7079
1463.06	0.7533
1472.09	0.7218
1481.12	0.7628
1490.15	0.7155
1499.18	0.734
1508.22	0.7255
1517.25	0.705
1526.28	0.6816
1535.31	0.6154
1544.34	0.5668
1553.37	0.4042
1562.4	0.239
1571.43	0.2373
1580.46	0.4171
1589.5	0.4691
1598.53	0.6626
1607.56	0.8049
1616.59	0.8235
1625.62	0.8239
1634.65	0.8209
1643.68	0.8123
1652.71	0.8132
1661.74	0.8104
1670.77	0.803
1679.81	0.7949
1688.84	0.7856
1697.87	0.7799
1706.9	0.7729
1715.93	0.7688
1724.96	0.7554
1733.99	0.7469
1743.02	0.7455
1752.05	0.7455
1761.09	0.7451
1770.12	0.7448
1779.15	0.7445
1788.18	0.7454
1797.21	0.7541
1806.24	0.7606
1815.27	0.7646
1824.3	0.7772
1833.33	0.7787
1842.36	0.7789
1851.4	0.778
1860.43	0.7749
1869.46	0.7685
1878.49	0.7619
1887.52	0.7678
1896.55	0.7898
1905.58	0.7893
1914.61	0.7846
1923.64	0.7786
1932.68	0.7754
1941.71	0.7747
1950.74	0.7762
1959.77	0.7772
1968.8	0.7782
1977.83	0.7793
1986.86	0.7792
1995.89	0.7782
2004.92	0.7768
2013.96	0.7748
2022.99	0.7725
2032.02	0.7705
2041.05	0.7686
2050.08	0.766
2059.11	0.7623
2068.14	0.7584
2077.17	0.7547
2086.2	0.7508
2095.23	0.747
2104.27	0.7412
2113.3	0.7367
2122.33	0.7356
2131.36	0.7337
2140.39	0.7325
2149.42	0.7288
2158.45	0.7229
2167.48	0.7169
2176.51	0.7107
2185.55	0.7047
2194.58	0.6996
2203.61	0.6944
2212.64	0.6868
2221.67	0.6792
2230.7	0.6716
2239.73	0.6645
2248.76	0.6575
2257.79	0.6519
2266.82	0.6462
2275.86	0.6391
2284.89	0.6316
2293.92	0.6199
2302.95	0.6051
2311.98	0.5961
2321.01	0.5909
2330.04	0.5875
2339.07	0.5885
2348.1	0.5905
2357.14	0.5909
2366.17	0.5907
2375.2	0.5893
2384.23	0.5843
2393.26	0.5802
2402.29	0.5763
2411.32	0.5737
2420.35	0.5719
2429.38	0.5679
2438.42	0.5611
2447.45	0.5529
2456.48	0.5439
2465.51	0.5365
2474.54	0.5302
2483.57	0.5252
2492.6	0.5207
2501.63	0.517
2510.66	0.5154
2519.69	0.5158
2528.73	0.5142
2537.76	0.5154
2546.79	0.5191
2555.82	0.5261
2564.85	0.5331
2573.88	0.5365
2582.91	0.5352
2591.94	0.5319
2600.97	0.5281
2610.01	0.5245
2619.04	0.522
2628.07	0.5219
2637.1	0.5253
2646.13	0.5312
2655.16	0.5378
2664.19	0.5453
2673.22	0.5545
2682.25	0.5618
2691.28	0.566
2700.32	0.566
2709.35	0.5632
2718.38	0.5528
2727.41	0.5485
2736.44	0.5473
2745.47	0.5483
2754.5	0.5521
2763.53	0.5603
2772.56	0.5757
2781.6	0.5927
2790.63	0.6091
2799.66	0.6231
2808.69	0.638
2817.72	0.6508
2826.75	0.653
2835.78	0.6535
2844.81	0.6534
2853.84	0.6529
2862.88	0.6519
2871.91	0.6497
2880.94	0.6448
2889.97	0.635
2899	0.6238
2908.03	0.6203
2917.06	0.6225
2926.09	0.6273
2935.12	0.6335
2944.15	0.6405
2953.19	0.649
2962.22	0.6558
2971.25	0.6631
2980.28	0.6591
2989.31	0.6545
2998.34	0.6455
3007.37	0.6369
3016.4	0.636
3025.43	0.6358
3034.47	0.6364
3043.5	0.6452
3052.53	0.6588
3061.56	0.6691
3070.59	0.6779
3079.62	0.6867
3088.65	0.7057
3097.68	0.7082
3106.71	0.706
3115.75	0.7036
3124.78	0.7017
3133.81	0.7006
3142.84	0.7
3151.87	0.7018
3160.9	0.7029
3169.93	0.7029
3178.96	0.6987
3187.99	0.6954
3197.02	0.6922
3206.06	0.6905
3215.09	0.6887
3224.12	0.6869
3233.15	0.6847
3242.18	0.6824
3251.21	0.6802
3260.24	0.6782
3269.27	0.6761
3278.3	0.674
3287.34	0.6715
3296.37	0.6686
3305.4	0.6649
3314.43	0.6606
3323.46	0.6558
3332.49	0.6515
3341.52	0.6476
3350.55	0.6444
3359.58	0.6419
3368.61	0.6382
3377.65	0.6295
3386.68	0.6279
3395.71	0.6286
3404.74	0.63
3413.77	0.6319
3422.8	0.6333
3431.83	0.6351
3440.86	0.637
3449.89	0.6388
3458.93	0.6402
3467.96	0.6414
3476.99	0.6424
3486.02	0.6439
3495.05	0.6458
3504.08	0.6465
3513.11	0.6467
3522.14	0.6493
3531.17	0.6557
3540.21	0.6617
3549.24	0.6656
3558.27	0.668
3567.3	0.6698
3576.33	0.6713
3585.36	0.6733
3594.39	0.6757
3603.42	0.677
3612.45	0.6783
3621.48	0.679
3630.52	0.6793
3639.55	0.6797
3648.58	0.6796
3657.61	0.6793
3666.64	0.6789
3675.67	0.6774
3684.7	0.6758
3693.73	0.6746
3702.76	0.674
3711.8	0.6733
3720.83	0.673
3729.86	0.6726
3738.89	0.6721
3747.92	0.6715
3756.95	0.671
3765.98	0.6693
3775.01	0.6674
3784.04	0.6637
3793.07	0.6598
3802.11	0.659
3811.14	0.6587
3820.17	0.6587
3829.2	0.659
3838.23	0.6592
3847.26	0.6594
3856.29	0.659
3865.32	0.6587
3874.35	0.6583
3883.39	0.6581
3892.42	0.6581
3901.45	0.6581
3910.48	0.6581
3919.51	0.6576
3928.54	0.6572
3937.57	0.6567
3946.6	0.6566
3955.63	0.6568
3964.67	0.6573
3973.7	0.6576
3982.73	0.6581
3991.76	0.6587
4000.79	0.6594
4009.82	0.6611
4018.85	0.662
4027.88	0.6634
4036.91	0.6668
4045.94	0.6754
4054.98	0.7199
