Infrared Spectrum: Aflatoxin G2
Formula: C17 H14 O7
CAS: 7241-98-7
State: SOLID (1.4 mg / 350 mg KBr DISC)
Class: COBLENTZ III
Instrument: PERKIN-ELMER 180 (GRATING)
Instrument parameters: GRATINGS: 2000, 1000, 500, 250 CM^-^1; FILTER CHANGE: 2970, 2000, 1485, 1000, 743, 500, 372, 250, 186 CM^-^1.
Sampling: TRANSMISSION
Resolution: 2
Origin: K. K. DEB-NCI FREDERICK CANCER RESEARCH CENTER
1/CM	TRANSMITTANCE
401	0.8669
410	0.8595
419	0.8513
428	0.8329
437	0.8073
446	0.8023
455	0.8444
464	0.8465
473	0.8053
482	0.8518
491	0.8487
500	0.7822
509	0.7254
518	0.8446
527	0.8178
536	0.7341
545	0.7962
554	0.7221
563	0.7607
572	0.7372
581	0.7473
590	0.8277
599	0.7664
608	0.8197
617	0.821
626	0.8003
635	0.8245
644	0.7578
653	0.7934
662	0.7344
671	0.7968
680	0.8203
689	0.7883
698	0.776
707	0.7321
716	0.7532
725	0.723
734	0.685
743	0.5903
752	0.5386
761	0.6628
770	0.6653
779	0.7528
788	0.6379
797	0.5371
806	0.62
815	0.5659
824	0.6233
833	0.6999
842	0.6193
851	0.5631
860	0.6502
869	0.6574
878	0.677
887	0.5654
896	0.4543
905	0.3419
914	0.3483
923	0.4245
932	0.4873
941	0.6303
950	0.4669
959	0.4635
968	0.6858
977	0.511
986	0.7281
995	0.7716
1004	0.7436
1013	0.6801
1022	0.6374
1031	0.5421
1040	0.522
1049	0.3871
1058	0.4761
1067	0.2517
1076	0.4176
1085	0.4802
1094	0.4826
1103	0.5083
1112	0.3217
1121	0.3099
1130	0.7048
1139	0.5843
1148	0.6077
1157	0.4271
1166	0.6574
1175	0.6026
1184	0.6477
1193	0.6398
1202	0.5387
1211	0.4131
1220	0.5656
1229	0.7577
1238	0.7047
1247	0.5077
1256	0.5186
1265	0.5515
1274	0.5358
1283	0.6967
1292	0.6949
1301	0.517
1310	0.276
1319	0.3091
1328	0.7008
1337	0.715
1346	0.6253
1355	0.5711
1364	0.459
1373	0.4057
1382	0.3004
1391	0.6056
1400	0.5721
1409	0.5941
1418	0.6891
1427	0.611
1436	0.3236
1445	0.3656
1454	0.5247
1463	0.5595
1472	0.4013
1481	0.3022
1490	0.3852
1499	0.6919
1508	0.7326
1517	0.6678
1526	0.52
1535	0.3174
1544	0.2211
1553	0.4978
1562	0.7117
1571	0.5922
1580	0.4293
1589	0.2664
1598	0.1747
1607	0.446
1616	0.5005
1625	0.3397
1634	0.233
1643	0.4249
1652	0.6942
1661	0.7761
1670	0.7874
1679	0.7726
1688	0.6325
1697	0.4421
1706	0.375
1715	0.6942
1724	0.6667
1733	0.5286
1742	0.3904
1751	0.2589
1760	0.1545
1769	0.117
1778	0.1074
1787	0.2685
1796	0.4602
1805	0.6047
1814	0.666
1823	0.7257
1832	0.7805
1841	0.8251
1850	0.8524
1859	0.8737
1868	0.8845
1877	0.8903
1886	0.8932
1895	0.9011
1904	0.9038
1913	0.904
1922	0.9049
1931	0.9059
1940	0.9083
1949	0.9103
1958	0.9115
1967	0.9126
1976	0.9108
1985	0.9045
1994	0.9034
2003	0.91
2012	0.9122
2021	0.9108
2030	0.9095
2039	0.9083
2048	0.9068
2057	0.9052
2066	0.9036
2075	0.902
2084	0.9001
2093	0.8977
2102	0.8955
2111	0.8931
2120	0.8909
2129	0.8887
2138	0.8872
2147	0.8857
2156	0.8842
2165	0.8832
2174	0.8825
2183	0.8817
2192	0.8815
2201	0.8816
2210	0.8815
2219	0.8807
2228	0.878
2237	0.8743
2246	0.8698
2255	0.8661
2264	0.8645
2273	0.8643
2282	0.8655
2291	0.8651
2300	0.8633
2309	0.8605
2318	0.86
2327	0.8626
2336	0.8611
2345	0.8592
2354	0.8568
2363	0.8544
2372	0.852
2381	0.8497
2390	0.8476
2399	0.8454
2408	0.8434
2417	0.8413
2426	0.8394
2435	0.8378
2444	0.8363
2453	0.8348
2462	0.8332
2471	0.8315
2480	0.83
2489	0.8284
2498	0.8264
2507	0.8241
2516	0.8219
2525	0.8214
2534	0.8208
2543	0.8196
2552	0.8184
2561	0.8171
2570	0.8157
2579	0.8133
2588	0.8107
2597	0.8082
2606	0.8067
2615	0.8052
2624	0.8037
2633	0.8021
2642	0.8006
2651	0.799
2660	0.7975
2669	0.7953
2678	0.7931
2687	0.7909
2696	0.7889
2705	0.7901
2714	0.7935
2723	0.7954
2732	0.7952
2741	0.7937
2750	0.7913
2759	0.7889
2768	0.7858
2777	0.7825
2786	0.7787
2795	0.7742
2804	0.7698
2813	0.7648
2822	0.7584
2831	0.7441
2840	0.7248
2849	0.7141
2858	0.716
2867	0.7004
2876	0.6656
2885	0.632
2894	0.6612
2903	0.6941
2912	0.6964
2921	0.6914
2930	0.6768
2939	0.6426
2948	0.6368
2957	0.6537
2966	0.672
2975	0.6487
2984	0.6253
2993	0.6207
3002	0.6714
3011	0.6302
3020	0.687
3029	0.7392
3038	0.757
3047	0.7547
3056	0.7427
3065	0.721
3074	0.6923
3083	0.7232
3092	0.7394
3101	0.7398
3110	0.7393
3119	0.7395
3128	0.7428
3137	0.7465
3146	0.7515
3155	0.754
3164	0.7533
3173	0.7513
3182	0.7493
3191	0.747
3200	0.7446
3209	0.7422
3218	0.7397
3227	0.7372
3236	0.7353
3245	0.7334
3254	0.7323
3263	0.731
3272	0.729
3281	0.7268
3290	0.7231
3299	0.7194
3308	0.7159
3317	0.7124
3326	0.709
3335	0.7046
3344	0.6986
3353	0.6926
3362	0.6855
3371	0.6775
3380	0.6689
3389	0.6606
3398	0.6644
3407	0.6649
3416	0.664
3425	0.6629
3434	0.6616
3443	0.6608
3452	0.6603
3461	0.6607
3470	0.6614
3479	0.6614
3488	0.6612
3497	0.6608
3506	0.6607
3515	0.6619
3524	0.6643
3533	0.6718
3542	0.6792
3551	0.6852
3560	0.6896
3569	0.6912
3578	0.6923
3587	0.6923
3596	0.6929
3605	0.6946
3614	0.6968
3623	0.6991
3632	0.7017
3641	0.7041
3650	0.7042
3659	0.7041
3668	0.702
3677	0.7005
3686	0.702
3695	0.7058
3704	0.7081
3713	0.7089
3722	0.7082
3731	0.7071
3740	0.7055
3749	0.7039
3758	0.7022
3767	0.7013
3776	0.6998
3785	0.6983
3794	0.6972
