Infrared Spectrum: 2-AMINO-6-METHYL-4-OXO-1,3,3a,7-TETRAZAINDENE
Formula: C6 H7 N5 O
CAS: 72436-99-8
State: SOLID (KBr PRESSING)
Melting point: ABOVE 320 C
Class: COBLENTZ
Instrument: Not specified, most likely a prism, grating, or hybrid spectrometer.
Sampling: TRANSMISSION
Resolution: 4
Origin: EASTMAN KODAK COMPANY, RESEARCH LABORATORIES, ROCHESTER, N.Y.
MICROMETERS	TRANSMITTANCE
2.051	0.599
2.08616	0.604
2.12132	0.606
2.15648	0.608
2.19165	0.61
2.22681	0.615
2.26197	0.62
2.29713	0.62
2.33229	0.624
2.36745	0.631
2.40262	0.634
2.43778	0.643
2.47294	0.648
2.5081	0.653
2.54326	0.659
2.57842	0.664
2.61358	0.673
2.64875	0.683
2.68391	0.688
2.71907	0.68
2.75423	0.639
2.78939	0.596
2.82455	0.534
2.85972	0.449
2.89488	0.365
2.93004	0.199
2.9652	0.159
3.00036	0.176
3.03552	0.236
3.07068	0.26
3.10585	0.199
3.14101	0.181
3.17617	0.211
3.21133	0.36
3.24649	0.384
3.28165	0.374
3.31682	0.43
3.35198	0.498
3.38714	0.536
3.4223	0.554
3.45746	0.601
3.49262	0.62
3.52779	0.629
3.56295	0.634
3.59811	0.634
3.63327	0.613
3.66843	0.611
3.70359	0.645
3.73875	0.669
3.77392	0.69
3.80908	0.699
3.84424	0.702
3.8794	0.704
3.91456	0.713
3.94972	0.722
3.98489	0.725
4.02005	0.727
4.05521	0.732
4.09037	0.734
4.12553	0.732
4.16069	0.732
4.19585	0.734
4.23102	0.739
4.26618	0.739
4.30134	0.741
4.3365	0.751
4.37166	0.751
4.40682	0.741
4.44199	0.734
4.47715	0.73
4.51231	0.732
4.54747	0.741
4.58263	0.751
4.61779	0.751
4.65295	0.751
4.68812	0.753
4.72328	0.755
4.75844	0.758
4.7936	0.762
4.82876	0.763
4.86392	0.762
4.89909	0.763
4.93425	0.77
4.96941	0.777
5.00457	0.776
5.03973	0.777
5.07489	0.781
5.11005	0.784
5.14522	0.763
5.18038	0.755
5.21554	0.755
5.2507	0.774
5.28586	0.791
5.32102	0.795
5.35619	0.798
5.39135	0.8
5.42651	0.802
5.46167	0.802
5.49683	0.795
5.53199	0.788
5.56716	0.8
5.60232	0.797
5.63748	0.774
5.67264	0.753
5.7078	0.767
5.74296	0.762
5.77812	0.751
5.81329	0.722
5.84845	0.729
5.88361	0.701
5.91877	0.657
5.95393	0.599
5.98909	0.48
6.02426	0.3
6.05942	0.201
6.09458	0.188
6.12974	0.236
6.1649	0.192
6.20006	0.167
6.23522	0.374
6.27039	0.435
6.30555	0.473
6.34071	0.402
6.37587	0.307
6.41103	0.225
6.44619	0.18
6.48136	0.173
6.51652	0.18
6.55168	0.16
6.58684	0.16
6.622	0.153
6.65716	0.187
6.69232	0.267
6.72749	0.333
6.76265	0.414
6.79781	0.458
6.83297	0.487
6.86813	0.473
6.90329	0.37
6.93846	0.361
6.97362	0.365
7.00878	0.365
7.04394	0.363
7.0791	0.347
7.11426	0.267
7.14942	0.195
7.18459	0.176
7.21975	0.246
7.25491	0.349
7.29007	0.398
7.32523	0.484
7.36039	0.533
7.39556	0.545
7.43072	0.552
7.46588	0.548
7.50104	0.531
7.5362	0.44
7.57136	0.288
7.60652	0.466
7.64169	0.545
7.67685	0.582
7.71201	0.594
7.74717	0.61
7.78233	0.608
7.81749	0.597
7.85266	0.61
7.88782	0.62
7.92298	0.622
7.95814	0.611
7.9933	0.611
8.02846	0.62
8.06363	0.622
8.09879	0.622
8.13395	0.622
8.16911	0.613
8.20427	0.571
8.23943	0.519
8.27459	0.346
8.30976	0.279
8.34492	0.316
8.38008	0.225
8.41524	0.208
8.4504	0.25
8.48556	0.291
8.52073	0.377
8.55589	0.451
8.59105	0.475
8.62621	0.496
8.66137	0.501
8.69653	0.506
8.73169	0.506
8.76686	0.501
8.80202	0.489
8.83718	0.47
8.87234	0.417
8.9075	0.41
8.94266	0.452
8.97783	0.463
9.01299	0.479
9.04815	0.48
9.08331	0.484
9.11847	0.496
9.15363	0.524
9.18879	0.533
9.22396	0.536
9.25912	0.555
9.29428	0.561
9.32944	0.569
9.3646	0.573
9.39976	0.557
9.43493	0.491
9.47009	0.36
9.50525	0.363
9.54041	0.412
9.57557	0.459
9.61073	0.486
9.64589	0.501
9.68106	0.506
9.71622	0.51
9.75138	0.54
9.78654	0.548
9.8217	0.566
9.85686	0.571
9.89203	0.587
9.92719	0.604
9.96235	0.617
9.99751	0.62
10.0327	0.62
10.0678	0.629
10.103	0.632
10.1382	0.634
10.1733	0.638
10.2085	0.652
10.2436	0.655
10.2788	0.655
10.314	0.655
10.3491	0.655
10.3843	0.652
10.4194	0.625
10.4546	0.606
10.4898	0.59
10.5249	0.606
10.5601	0.632
10.5953	0.643
10.6304	0.664
10.6656	0.669
10.7007	0.673
10.7359	0.681
10.7711	0.685
10.8062	0.688
10.8414	0.692
10.8765	0.697
10.9117	0.701
10.9469	0.702
10.982	0.702
11.0172	0.701
11.0524	0.697
11.0875	0.701
11.1227	0.701
11.1578	0.701
11.193	0.702
11.2282	0.702
11.2633	0.702
11.2985	0.706
11.3336	0.711
11.3688	0.713
11.404	0.713
11.4391	0.711
11.4743	0.697
11.5095	0.65
11.5446	0.629
11.5798	0.646
11.6149	0.674
11.6501	0.692
11.6853	0.701
11.7204	0.702
11.7556	0.701
11.7907	0.701
11.8259	0.706
11.8611	0.713
11.8962	0.715
11.9314	0.709
11.9666	0.709
12.0017	0.708
12.0369	0.711
12.072	0.711
12.1072	0.704
12.1424	0.704
12.1775	0.704
12.2127	0.701
12.2478	0.692
12.283	0.676
12.3182	0.61
12.3533	0.463
12.3885	0.487
12.4237	0.512
12.4588	0.487
12.494	0.62
12.5291	0.643
12.5643	0.611
12.5995	0.62
12.6346	0.657
12.6698	0.685
12.7049	0.69
12.7401	0.669
12.7753	0.618
12.8104	0.531
12.8456	0.269
12.8808	0.215
12.9159	0.388
12.9511	0.524
12.9862	0.576
13.0214	0.613
13.0566	0.631
13.0917	0.65
13.1269	0.652
13.162	0.66
13.1972	0.664
13.2324	0.667
13.2675	0.667
13.3027	0.662
13.3379	0.641
13.373	0.601
13.4082	0.618
13.4433	0.655
13.4785	0.676
13.5137	0.687
13.5488	0.687
13.584	0.688
13.6191	0.688
13.6543	0.688
13.6895	0.685
13.7246	0.683
13.7598	0.678
13.795	0.674
13.8301	0.664
13.8653	0.657
13.9004	0.641
13.9356	0.617
13.9708	0.599
14.0059	0.573
14.0411	0.533
14.0763	0.519
14.1114	0.522
14.1466	0.555
14.1817	0.587
14.2169	0.597
14.2521	0.596
14.2872	0.583
14.3224	0.58
14.3575	0.578
14.3927	0.582
14.4279	0.597
14.463	0.618
14.4982	0.624
14.5334	0.631
14.5685	0.632
14.6037	0.631
14.6388	0.624
14.674	0.627
14.7092	0.629
14.7443	0.629
14.7795	0.627
14.8146	0.624
14.8498	0.62
14.885	0.617
14.9201	0.617
14.9553	0.617
14.9905	0.62
15.0256	0.615
15.0608	0.611
15.0959	0.608
15.1311	0.608
15.1663	0.61
15.2014	0.61
15.2366	0.61
15.2717	0.61
15.3069	0.611
15.3421	0.611
15.3772	0.611
15.4124	0.611
15.4476	0.611
15.4827	0.611
15.5179	0.611
15.553	0.611
15.5882	0.611
15.6234	0.611
15.6585	0.611
15.6937	0.606
15.7288	0.604
15.764	0.604
15.7992	0.604
15.8343	0.603
15.8695	0.597
15.9047	0.589
15.9398	0.58
15.975	0.58
16.0101	0.582
