Infrared Spectrum: 3-(Propylamino)propionitrile
Formula: C 6 H 12 N 2
CAS: 7249-87-8
State: gas
Origin: EPA-IR VAPOR PHASE LIBRARY
1/CM	ABSORBANCE
549.8	0.0035
559.445	0.00377
569.09	0.00444
578.734	0.00487
588.379	0.00523
598.024	0.0056
607.669	0.0061
617.313	0.00657
626.958	0.00812
636.603	0.00916
646.248	0.01054
655.893	0.01167
665.537	0.0128
675.182	0.01307
684.827	0.01319
694.472	0.01304
704.116	0.01252
713.761	0.01192
723.406	0.01079
733.051	0.00944
742.695	0.00805
752.34	0.00654
761.985	0.00576
771.63	0.00545
781.275	0.00477
790.919	0.00424
800.564	0.00397
810.209	0.00376
819.854	0.0038
829.498	0.00379
839.143	0.0033
848.788	0.00343
858.433	0.0035
868.078	0.00359
877.722	0.00352
887.367	0.00338
897.012	0.00364
906.657	0.00375
916.301	0.00327
925.946	0.0036
935.591	0.00386
945.236	0.00431
954.88	0.00431
964.525	0.00452
974.17	0.00533
983.815	0.00564
993.46	0.00479
1003.1	0.00399
1012.75	0.00377
1022.39	0.00376
1032.04	0.00504
1041.68	0.00625
1051.33	0.00699
1060.97	0.00662
1070.62	0.00578
1080.26	0.00609
1089.91	0.00749
1099.55	0.00941
1109.2	0.01157
1118.84	0.02021
1128.49	0.03462
1138.13	0.042
1147.78	0.03241
1157.42	0.02085
1167.07	0.01249
1176.71	0.00733
1186.36	0.00569
1196	0.00516
1205.64	0.00588
1215.29	0.00589
1224.93	0.00584
1234.58	0.00507
1244.22	0.00484
1253.87	0.00463
1263.51	0.00488
1273.16	0.00481
1282.8	0.00504
1292.45	0.00523
1302.09	0.00588
1311.74	0.00647
1321.38	0.00731
1331.03	0.00986
1340.67	0.0128
1350.32	0.01524
1359.96	0.01565
1369.61	0.01427
1379.25	0.01212
1388.9	0.00997
1398.54	0.00756
1408.18	0.00706
1417.83	0.00941
1427.47	0.01307
1437.12	0.01532
1446.76	0.01727
1456.41	0.02327
1466.05	0.0293
1475.7	0.02729
1485.34	0.01663
1494.99	0.00781
1504.63	0.00474
1514.28	0.00328
1523.92	0.00248
1533.57	0.00204
1543.21	0.00163
1552.86	0.00142
1562.5	0.00129
1572.15	0.00111
1581.79	0.00104
1591.44	0.0009794
1601.08	0.0009377
1610.73	0.0008044
1620.37	0.0008536
1630.01	0.0008074
1639.66	0.0007356
1649.3	0.0006722
1658.95	0.0006172
1668.59	0.0006558
1678.24	0.0006419
1687.88	0.0006418
1697.53	0.0005108
1707.17	0.0005348
1716.82	0.0004481
1726.46	0.0005517
1736.11	0.0004826
1745.75	0.0004602
1755.4	0.0005456
1765.04	0.0005894
1774.69	0.0005894
1784.33	0.000604
1793.98	0.0006868
1803.62	0.0006218
1813.27	0.0006494
1822.91	0.0006777
1832.55	0.0006955
1842.2	0.0006347
1851.84	0.0005425
1861.49	0.0005575
1871.13	0.0005683
1880.78	0.0004597
1890.42	0.0004968
1900.07	0.0004697
1909.71	0.0003391
1919.36	0.0003842
1929	0.0003371
1938.65	0.0002779
1948.29	0.0002937
1957.94	0.0003426
1967.58	0.0003833
1977.23	0.0003192
1986.87	0.0003805
1996.52	0.0003487
2006.16	0.0003638
2015.81	0.0002731
2025.45	0.000387
2035.1	0.000378
2044.74	0.0004347
2054.38	0.0004467
2064.03	0.0004544
2073.67	0.0004343
2083.32	0.0003834
2092.96	0.0003459
2102.61	0.000344
2112.25	0.000346
2121.9	0.0002969
2131.54	0.0003249
2141.19	0.0002553
2150.83	0.0003804
2160.48	0.0003541
2170.12	0.0004547
2179.77	0.0004803
2189.41	0.0004524
2199.06	0.0005496
2208.7	0.0005215
2218.35	0.0004708
2227.99	0.0007963
2237.64	0.00165
2247.28	0.00275
2256.92	0.00274
2266.57	0.00137
2276.21	0.0006407
2285.86	0.0005563
2295.5	0.0005063
2305.15	0.0003336
2314.79	0.000357
2324.44	0.0003172
2334.08	0.0004626
2343.73	0.0003445
2353.37	0.0004127
2363.02	0.000432
2372.66	0.0004403
2382.31	0.0005068
2391.95	0.0004249
2401.6	0.0004745
2411.24	0.0004382
2420.89	0.0005327
2430.53	0.0004766
2440.18	0.0003765
2449.82	0.0004851
2459.47	0.0004499
2469.11	0.0004385
2478.75	0.0004491
2488.4	0.0004858
2498.04	0.0004881
2507.69	0.0004522
2517.33	0.0003685
2526.98	0.0006283
2536.62	0.0005098
2546.27	0.0006153
2555.91	0.0007307
2565.56	0.0008316
2575.2	0.0008714
2584.85	0.0011
2594.49	0.00124
2604.14	0.00139
2613.78	0.00152
2623.43	0.00165
2633.07	0.00169
2642.72	0.00191
2652.36	0.00202
2662.01	0.00244
2671.65	0.00278
2681.29	0.00317
2690.94	0.00352
2700.58	0.00394
2710.23	0.00433
2719.87	0.00482
2729.52	0.00528
2739.16	0.0059
2748.81	0.00652
2758.45	0.00703
2768.1	0.00751
2777.74	0.00857
2787.39	0.01033
2797.03	0.01403
2806.68	0.02009
2816.32	0.02831
2825.97	0.03628
2835.61	0.04109
2845.26	0.04097
2854.9	0.03878
2864.55	0.03773
2874.19	0.03923
2883.84	0.04182
2893.48	0.04134
2903.12	0.03953
2912.77	0.04311
2922.41	0.05324
2932.06	0.0678
2941.7	0.07601
2951.35	0.07196
2960.99	0.0689
2970.64	0.0698
2980.28	0.05431
2989.93	0.02999
2999.57	0.01537
3009.22	0.00919
3018.86	0.00666
3028.51	0.00503
3038.15	0.00385
3047.8	0.00308
3057.44	0.00264
3067.09	0.00227
3076.73	0.0022
3086.38	0.00208
3096.02	0.00185
3105.67	0.00168
3115.31	0.00159
3124.95	0.00153
3134.6	0.0012
3144.24	0.00124
3153.89	0.00101
3163.53	0.00113
3173.18	0.0008728
3182.82	0.00101
3192.47	0.0009956
3202.11	0.0008689
3211.76	0.0007284
3221.4	0.000605
3231.05	0.0006481
3240.69	0.0006074
3250.34	0.0004999
3259.98	0.000357
3269.63	0.0003231
3279.27	0.0002384
3288.92	0.0004013
3298.56	0.0002904
3308.21	0.00013
3317.85	0.0001122
3327.49	0.0005105
3337.14	0.0004859
3346.78	0.0005929
3356.43	0.0006389
3366.07	0.0008476
3375.72	0.0008774
3385.36	0.0008533
3395.01	0.0006789
3404.65	0.0007549
3414.3	0.0005339
3423.94	0.0004485
3433.59	0.0003472
3443.23	0.0003463
3452.88	0.0002949
3462.52	0.0004832
3472.17	0.0003604
3481.81	0.0002008
3491.46	0.0001075
3501.1	0.0003855
3510.75	0.0002587
3520.39	0.0001394
3530.04	9.145e-05
3539.68	0.0001652
3549.32	0.0003603
3558.97	0.0003419
3568.61	0.0003596
3578.26	0.0002896
3587.9	0.0003212
3597.55	0.0003015
3607.19	0.0001375
3616.84	0.0003822
3626.48	0.0002198
3636.13	0.0003229
3645.77	0.0003238
3655.42	0.0002588
3665.06	0.0003439
3674.71	0.0003479
3684.35	0.0003459
3694	0.0001644
3703.64	0.000395
3713.29	0.0002887
3722.93	0.0004362
3732.58	0.0001212
3742.22	0.0001303
3751.86	0.0001988
3761.51	0.0004646
3771.15	0.0003634
3780.8	0.0004436
3790.44	0.0003591
3800.09	0.0002762
3809.73	0.0003673
3819.38	0.0002697
3829.02	0.0003508
3838.67	0.0002109
3848.31	0.0003224
3857.96	0.0002984
3867.6	0.0004444
3877.25	0.0002811
3886.89	0.000419
3896.54	0.0003296
3906.18	0.0002864
3915.83	0.0005771
3925.47	0.0004275
3935.12	0.0004624
3944.76	0.0004562
3954.41	0.0004062
3964.05	0.0006844
3973.69	0.0007466
3983.34	0.0006637
3992.98	0.0007349
