Infrared Spectrum: PROPIONALDEHYDE, 2,4-DINITRO-PHENYL HYDRAZONE
Formula: C9 H10 N4 O4
CAS: 725-00-8
State: SOLID (MINERAL OIL MULL)
Class: COBLENTZ
Instrument: PERKIN-ELMER
Sampling: TRANSMISSION
Resolution: 4
Origin: STANDARD OIL OF OHIO
MICROMETERS	TRANSMITTANCE
2.027	0.25
2.06086	0.265
2.09471	0.28
2.12857	0.29
2.16242	0.304
2.19628	0.319
2.23013	0.329
2.26399	0.341
2.29784	0.348
2.3317	0.357
2.36555	0.369
2.39941	0.38
2.43326	0.397
2.46712	0.409
2.50097	0.426
2.53483	0.438
2.56868	0.455
2.60254	0.469
2.63639	0.481
2.67025	0.496
2.7041	0.51
2.73796	0.52
2.77181	0.535
2.80567	0.549
2.83953	0.557
2.87338	0.568
2.90724	0.579
2.94109	0.59
2.97495	0.595
3.0088	0.593
3.04266	0.301
3.07651	0.467
3.11037	0.559
3.14422	0.578
3.17808	0.581
3.21193	0.462
3.24579	0.474
3.27964	0.525
3.3135	0.539
3.34735	0.479
3.38121	0.197
3.41506	0.074
3.44892	0.017
3.48277	0.035
3.51663	0.064
3.55049	0.297
3.58434	0.54
3.6182	0.619
3.65205	0.661
3.68591	0.67
3.71976	0.681
3.75362	0.692
3.78747	0.7
3.82133	0.709
3.85518	0.726
3.88904	0.734
3.92289	0.755
3.95675	0.767
3.9906	0.778
4.02446	0.794
4.05831	0.799
4.09217	0.797
4.12602	0.79
4.15988	0.789
4.19373	0.792
4.22759	0.801
4.26144	0.807
4.2953	0.814
4.32916	0.833
4.36301	0.846
4.39687	0.852
4.43072	0.852
4.46458	0.853
4.49843	0.865
4.53229	0.875
4.56614	0.875
4.6	0.875
4.63385	0.882
4.66771	0.899
4.70156	0.903
4.73542	0.903
4.76927	0.904
4.80313	0.909
4.83698	0.901
4.87084	0.899
4.90469	0.914
4.93855	0.918
4.9724	0.92
5.00626	0.906
5.04011	0.897
5.07397	0.92
5.10783	0.928
5.14168	0.933
5.17554	0.94
5.20939	0.943
5.24325	0.948
5.2771	0.948
5.31096	0.952
5.34481	0.954
5.37867	0.94
5.41252	0.933
5.44638	0.93
5.48023	0.923
5.51409	0.947
5.54794	0.962
5.5818	0.964
5.61565	0.96
5.64951	0.964
5.68336	0.964
5.71722	0.969
5.75107	0.974
5.78493	0.974
5.81878	0.972
5.85264	0.965
5.8865	0.955
5.92035	0.943
5.95421	0.926
5.98806	0.897
6.02192	0.855
6.05577	0.821
6.08963	0.666
6.12348	0.21
6.15734	0.062
6.19119	0.044
6.22505	0.112
6.2589	0.18
6.29276	0.142
6.32661	0.352
6.36047	0.532
6.39432	0.659
6.42818	0.709
6.46203	0.743
6.49589	0.712
6.52974	0.67
6.5636	0.505
6.59746	0.297
6.63131	0.129
6.66517	0.256
6.69902	0.187
6.73288	0.435
6.76673	0.534
6.80059	0.433
6.83444	0.198
6.8683	0.19
6.90215	0.232
6.93601	0.348
6.96986	0.45
7.00372	0.452
7.03757	0.336
7.07143	0.183
7.10528	0.263
7.13914	0.634
7.17299	0.693
7.20685	0.545
7.2407	0.341
7.27456	0.302
7.30841	0.438
7.34227	0.479
7.37613	0.489
7.40998	0.389
7.44384	0.231
7.47769	0.049
7.51155	0.006
7.5454	0.034
7.57926	0.171
7.61311	0.204
7.64697	0.086
7.68082	0.025
7.71468	0.091
7.74853	0.197
7.78239	0.239
7.81624	0.246
7.8501	0.2
7.88395	0.115
7.91781	0.078
7.95166	0.19
7.98552	0.285
8.01937	0.428
8.05323	0.562
8.08708	0.639
8.12094	0.659
8.1548	0.527
8.18865	0.25
8.22251	0.243
8.25636	0.428
8.29022	0.557
8.32407	0.644
8.35793	0.693
8.39178	0.739
8.42564	0.758
8.45949	0.751
8.49335	0.751
8.5272	0.777
8.56106	0.789
8.59491	0.801
8.62877	0.797
8.66262	0.755
8.69648	0.656
8.73033	0.414
8.76419	0.117
8.79804	0.149
8.8319	0.219
8.86576	0.28
8.89961	0.382
8.93347	0.462
8.96732	0.525
9.00118	0.561
9.03503	0.452
9.06889	0.391
9.10274	0.54
9.1366	0.622
9.17045	0.627
9.20431	0.571
9.23816	0.496
9.27202	0.428
9.30587	0.28
9.33973	0.2
9.37358	0.505
9.40744	0.612
9.44129	0.586
9.47515	0.517
9.509	0.647
9.54286	0.714
9.57671	0.756
9.61057	0.777
9.64443	0.79
9.67828	0.802
9.71214	0.819
9.74599	0.835
9.77985	0.841
9.8137	0.843
9.84756	0.836
9.88141	0.818
9.91527	0.811
9.94912	0.816
9.98298	0.852
10.0168	0.84
10.0507	0.85
10.0845	0.877
10.1184	0.891
10.1523	0.896
10.1861	0.901
10.22	0.901
10.2538	0.899
10.2877	0.899
10.3215	0.899
10.3554	0.901
10.3892	0.903
10.4231	0.904
10.457	0.906
10.4908	0.906
10.5247	0.906
10.5585	0.906
10.5924	0.904
10.6262	0.901
10.6601	0.891
10.6939	0.858
10.7278	0.792
10.7616	0.595
10.7955	0.596
10.8294	0.69
10.8632	0.731
10.8971	0.462
10.9309	0.404
10.9648	0.644
10.9986	0.77
11.0325	0.835
11.0663	0.882
11.1002	0.904
11.1341	0.916
11.1679	0.923
11.2018	0.928
11.2356	0.931
11.2695	0.937
11.3033	0.943
11.3372	0.95
11.371	0.957
11.4049	0.96
11.4388	0.964
11.4726	0.965
11.5065	0.965
11.5403	0.967
11.5742	0.96
11.608	0.942
11.6419	0.904
11.6757	0.818
11.7096	0.448
11.7434	0.333
11.7773	0.613
11.8112	0.799
11.845	0.879
11.8789	0.911
11.9127	0.92
11.9466	0.906
11.9804	0.765
12.0143	0.53
12.0481	0.591
12.082	0.841
12.1159	0.894
12.1497	0.92
12.1836	0.935
12.2174	0.948
12.2513	0.957
12.2851	0.962
12.319	0.965
12.3528	0.971
12.3867	0.972
12.4206	0.972
12.4544	0.974
12.4883	0.974
12.5221	0.974
12.556	0.971
12.5898	0.969
12.6237	0.965
12.6575	0.967
12.6914	0.967
12.7253	0.964
12.7591	0.959
12.793	0.954
12.8268	0.95
12.8607	0.943
12.8945	0.937
12.9284	0.931
12.9622	0.921
12.9961	0.913
13.0299	0.891
13.0638	0.795
13.0977	0.782
13.1315	0.823
13.1654	0.819
13.1992	0.778
13.2331	0.717
13.2669	0.688
13.3008	0.687
13.3346	0.702
13.3685	0.664
13.4024	0.596
13.4362	0.304
13.4701	0.28
13.5039	0.457
13.5378	0.646
13.5716	0.722
13.6055	0.763
13.6393	0.778
13.6732	0.782
13.7071	0.773
13.7409	0.736
13.7748	0.637
13.8086	0.494
13.8425	0.341
13.8763	0.362
13.9102	0.561
13.944	0.654
13.9779	0.751
14.0117	0.801
14.0456	0.829
14.0795	0.852
14.1133	0.865
14.1472	0.874
14.181	0.88
14.2149	0.886
14.2487	0.891
14.2826	0.892
14.3164	0.892
14.3503	0.891
14.3842	0.884
14.418	0.872
14.4519	0.853
14.4857	0.801
14.5196	0.753
14.5534	0.739
14.5873	0.756
14.6211	0.802
14.655	0.829
14.6889	0.84
14.7227	0.846
14.7566	0.848
14.7904	0.843
14.8243	0.836
14.8581	0.824
14.892	0.814
14.9258	0.802
14.9597	0.802
14.9936	0.807
15.0274	0.812
15.0613	0.819
15.0951	0.823
15.129	0.828
15.1628	0.829
15.1967	0.829
15.2305	0.831
15.2644	0.831
15.2982	0.833
15.3321	0.828
15.366	0.807
