Infrared Spectrum: 3,5-Bis(trifluoromethyl)benzoic acid
Formula: C 9 H 4 F 6 O 2
CAS: 725-89-3
State: gas
Origin: EPA-IR VAPOR PHASE LIBRARY
1/CM	ABSORBANCE
549.9	0.0017793
559.547	0.0012322
569.193	0.0013614
578.84	0.0015524
588.486	0.0015864
598.133	0.002145
607.779	0.002485
617.426	0.002145
627.072	0.0015595
636.719	0.002375
646.365	0.006665
656.012	0.002275
665.658	0.001169
675.305	0.002315
684.951	0.005095
694.598	0.001975
704.245	0.002015
713.891	0.0011253
723.538	0.0009817
733.184	0.0010065
742.831	0.00096179
752.477	0.0010838
762.124	0.0017522
771.77	0.003105
781.417	0.0017194
791.063	0.0011308
800.71	0.0010356
810.356	0.0010973
820.003	0.001171
829.649	0.0011463
839.296	0.001965
848.943	0.002435
858.589	0.0016799
868.236	0.0015231
877.882	0.0010173
887.529	0.00093056
897.175	0.0010617
906.822	0.002095
916.468	0.003315
926.115	0.0014207
935.761	0.0011268
945.408	0.0010434
955.054	0.0009989
964.701	0.0009752
974.347	0.0009918
983.994	0.0010458
993.64	0.0010656
1003.29	0.0010328
1012.93	0.0011201
1022.58	0.0010951
1032.23	0.0011155
1041.87	0.0012038
1051.52	0.0013668
1061.17	0.001331
1070.81	0.001419
1080.46	0.0015941
1090.11	0.002365
1099.75	0.003405
1109.4	0.004505
1119.05	0.005245
1128.69	0.003875
1138.34	0.006575
1147.99	0.018395
1157.63	0.039055
1167.28	0.023735
1176.92	0.020135
1186.57	0.028755
1196.22	0.016805
1205.86	0.007135
1215.51	0.004925
1225.16	0.003915
1234.8	0.003515
1244.45	0.002895
1254.1	0.003485
1263.74	0.007175
1273.39	0.023155
1283.04	0.042025
1292.68	0.010615
1302.33	0.008325
1311.98	0.007925
1321.62	0.005575
1331.27	0.005565
1340.92	0.003905
1350.56	0.002905
1360.21	0.002225
1369.86	0.002045
1379.5	0.002015
1389.15	0.001875
1398.79	0.001965
1408.44	0.0015577
1418.09	0.0013136
1427.73	0.0012912
1437.38	0.001383
1447.03	0.0014079
1456.67	0.0015482
1466.32	0.0013371
1475.97	0.0011612
1485.61	0.001114
1495.26	0.0011158
1504.91	0.0011898
1514.55	0.001181
1524.2	0.0011416
1533.85	0.0011619
1543.49	0.0012278
1553.14	0.0011777
1562.79	0.0011004
1572.43	0.001158
1582.08	0.001189
1591.73	0.0011931
1601.37	0.0013098
1611.02	0.001685
1620.67	0.001995
1630.31	0.0015562
1639.96	0.0013717
1649.6	0.0012915
1659.25	0.0011733
1668.9	0.0011774
1678.54	0.0011527
1688.19	0.0011614
1697.84	0.0011949
1707.48	0.0013069
1717.13	0.0017519
1726.78	0.002235
1736.42	0.0018268
1746.07	0.001885
1755.72	0.003295
1765.36	0.013295
1775.01	0.015995
1784.66	0.002745
1794.3	0.0015078
1803.95	0.0014627
1813.6	0.001915
1823.24	0.0017385
1832.89	0.0012406
1842.54	0.0012528
1852.18	0.001213
1861.83	0.0011809
1871.47	0.0011274
1881.12	0.0011052
1890.77	0.0010952
1900.41	0.001016
1910.06	0.000997
1919.71	0.00094856
1929.35	0.00092211
1939	0.0010002
1948.65	0.0009714
1958.29	0.00095551
1967.94	0.00092421
1977.59	0.00091871
1987.23	0.00092975
1996.88	0.00091116
2006.53	0.00093656
2016.17	0.00090366
2025.82	0.0008764
2035.47	0.00091384
2045.11	0.000864204
2054.76	0.00086207
2064.41	0.00086499
2074.05	0.0008397
2083.7	0.0008238
2093.35	0.0007962
2102.99	0.0007838
2112.64	0.0007989
2122.28	0.0008249
2131.93	0.0008055
2141.58	0.0007762
2151.22	0.0007877
2160.87	0.0007954
2170.52	0.0007942
2180.16	0.00075
2189.81	0.0007845
2199.46	0.0007682
2209.1	0.000758
2218.75	0.000789
2228.4	0.0007951
2238.04	0.0008179
2247.69	0.000868695
2257.34	0.0008074
2266.98	0.0008355
2276.63	0.000847
2286.28	0.0007928
2295.92	0.0008281
2305.57	0.0008156
2315.22	0.0007749
2324.86	0.0007807
2334.51	0.0008183
2344.16	0.0008103
2353.8	0.0007766
2363.45	0.000751
2373.09	0.000746
2382.74	0.000727
2392.39	0.000725
2402.03	0.000688
2411.68	0.000719
2421.33	0.000639
2430.97	0.000673
2440.62	0.000667
2450.27	0.000667
2459.91	0.00066
2469.56	0.000664
2479.21	0.000689
2488.85	0.00067
2498.5	0.00061
2508.15	0.000567
2517.79	0.000579
2527.44	0.000593
2537.09	0.00059
2546.73	0.00057
2556.38	0.000563
2566.03	0.000535
2575.67	0.000563
2585.32	0.000525
2594.96	0.0005
2604.61	0.000492
2614.26	0.000482
2623.9	0.000438
2633.55	0.000465
2643.2	0.000441
2652.84	0.0004
2662.49	0.000449
2672.14	0.000377
2681.78	0.000415
2691.43	0.000411
2701.08	0.000378
2710.72	0.000306
2720.37	0.000337
2730.02	0.000351
2739.66	0.00038
2749.31	0.000335
2758.96	0.000311
2768.6	0.000238
2778.25	0.000264
2787.9	0.000271
2797.54	0.000222
2807.19	0.000245
2816.84	0.000219
2826.48	0.000226
2836.13	0.000233
2845.77	0.000246
2855.42	0.000165
2865.07	0.000255
2874.71	0.000213
2884.36	0.000237
2894.01	0.000175
2903.65	0.000227
2913.3	0.000191
2922.95	0.000121
2932.59	0
2942.24	0.000167
2951.89	6.2e-05
2961.53	0.000154
2971.18	0.000107
2980.83	0.00016
2990.47	0.000142
3000.12	0.00014
3009.77	0.000148
3019.41	0.00021
3029.06	0.000152
3038.71	0.000184
3048.35	0.000154
3058	0.000155
3067.64	0.000107
3077.29	0.000128
3086.94	0.000315
3096.58	0.000284
3106.23	0.000314
3115.88	0.0002
3125.52	0.00012
3135.17	0.000178
3144.82	0.000124
3154.46	0.000382
3164.11	0.000331
3173.76	0.000293
3183.4	0.000247
3193.05	0.000444
3202.7	0.000321
3212.34	0.000414
3221.99	0.000432
3231.64	0.000339
3241.28	0.000404
3250.93	0.000401
3260.58	0.000445
3270.22	0.000498
3279.87	0.00059
3289.52	0.00048
3299.16	0.000476
3308.81	0.000613
3318.45	0.000585
3328.1	0.000557
3337.75	0.000673
3347.39	0.000598
3357.04	0.000643
3366.69	0.000668
3376.33	0.0008078
3385.98	0.000688
3395.63	0.000866664
3405.27	0.000733
3414.92	0.0008038
3424.57	0.000706
3434.21	0.000665
3443.86	0.0007787
3453.51	0.0007948
3463.15	0.0007801
3472.8	0.00073
3482.45	0.00075
3492.09	0.0008451
3501.74	0.00090041
3511.39	0.00091424
3521.03	0.00095777
3530.68	0.0010265
3540.33	0.0007902
3549.97	0.0008432
3559.62	0.0010186
3569.26	0.002305
3578.91	0.006995
3588.56	0.004495
3598.2	0.0011253
3607.85	0.0008274
3617.5	0.000870994
3627.14	0.00089223
3636.79	0.000757
3646.44	0.00088464
3656.08	0.0007691
3665.73	0.000733
3675.38	0.000778
3685.02	0.000758
3694.67	0.000762
3704.32	0.000665
3713.96	0.000755
3723.61	0.000689
3733.26	0.000712
3742.9	0.00074
3752.55	0.0008125
3762.2	0.000677
3771.84	0.000659
3781.49	0.000619
3791.13	0.000706
3800.78	0.0008033
3810.43	0.000661
3820.07	0.000742
3829.72	0.000667
3839.37	0.000758
3849.01	0.000719
3858.66	0.00069
3868.31	0.000655
3877.95	0.000728
3887.6	0.000699
3897.25	0.000742
3906.89	0.00061
3916.54	0.000676
3926.19	0.00062
3935.83	0.00068
3945.48	0.00053
3955.13	0.000601
3964.77	0.00066
3974.42	0.000587
3984.07	0.000561
3993.71	0.000573
