Infrared Spectrum: 1,4-PYRONE-2,6-DICARBOXYLIC ACID, DIETHYL ESTER
Formula: C11 H12 O6
CAS: 725-92-8
State: SOLUTION (10% IN CCl4 FOR 5000-1350 CM^-^1, 10% IN CS2 FOR 1350-625 CM^-^1)
Class: COBLENTZ
Instrument: Not specified, most likely a prism, grating, or hybrid spectrometer.
Sampling: TRANSMISSION
Path length: 0.01 CM, 0.01 CM
Resolution: 4
Origin: DOW CHEMICAL COMPANY
MICROMETERS	TRANSMITTANCE
2.025	0.831
2.06425	0.838
2.10351	0.838
2.14276	0.843
2.18202	0.841
2.22127	0.833
2.26053	0.831
2.29978	0.838
2.33904	0.846
2.37829	0.851
2.41755	0.855
2.4568	0.86
2.49606	0.868
2.53531	0.873
2.57457	0.872
2.61382	0.875
2.65308	0.873
2.69233	0.87
2.73158	0.864
2.77084	0.855
2.81009	0.833
2.84935	0.815
2.8886	0.805
2.92786	0.831
2.96711	0.818
3.00637	0.812
3.04562	0.8
3.08488	0.799
3.12413	0.8
3.16339	0.789
3.20264	0.75
3.2419	0.716
3.28115	0.757
3.32041	0.58
3.35966	0.393
3.39892	0.613
3.43817	0.715
3.47742	0.789
3.51668	0.825
3.55593	0.838
3.59519	0.862
3.63444	0.872
3.6737	0.875
3.71295	0.878
3.75221	0.886
3.79146	0.889
3.83072	0.893
3.86997	0.894
3.90923	0.894
3.94848	0.894
3.98774	0.893
4.02699	0.894
4.06625	0.899
4.1055	0.902
4.14475	0.907
4.18401	0.902
4.22326	0.898
4.26252	0.886
4.30177	0.893
4.34103	0.899
4.38028	0.904
4.41954	0.909
4.45879	0.915
4.49805	0.912
4.5373	0.907
4.57656	0.909
4.61581	0.92
4.65507	0.923
4.69432	0.917
4.73358	0.911
4.77283	0.914
4.81208	0.92
4.85134	0.914
4.89059	0.917
4.92985	0.917
4.9691	0.922
5.00836	0.919
5.04761	0.911
5.08687	0.904
5.12612	0.909
5.16538	0.93
5.20463	0.927
5.24389	0.904
5.28314	0.883
5.3224	0.87
5.36165	0.868
5.40091	0.846
5.44016	0.8
5.47942	0.779
5.51867	0.775
5.55792	0.729
5.59718	0.644
5.63643	0.423
5.67569	0.022
5.71494	0.032
5.7542	0.085
5.79345	0.296
5.83271	0.454
5.87196	0.483
5.91122	0.323
5.95047	0.074
5.98973	0.017
6.02898	0.059
6.06824	0.372
6.10749	0.398
6.14675	0.54
6.186	0.503
6.22525	0.365
6.26451	0.527
6.30376	0.533
6.34302	0.517
6.38227	0.477
6.42153	0.417
6.46078	0.43
6.50004	0.543
6.53929	0.574
6.57855	0.624
6.6178	0.686
6.65706	0.724
6.69631	0.679
6.73557	0.524
6.77482	0.44
6.81408	0.488
6.85333	0.503
6.89258	0.475
6.93184	0.653
6.97109	0.624
7.01035	0.511
7.0496	0.304
7.08886	0.163
7.12811	0.111
7.16737	0.118
7.20662	0.177
7.24588	0.076
7.28513	0.124
7.32439	0.411
7.36364	0.208
7.4029	0.071
7.44215	0.309
7.48141	0.521
7.52066	0.542
7.55992	0.506
7.59917	0.422
7.63842	0.313
7.67768	0.245
7.71693	0.279
7.75619	0.194
7.79544	0.074
7.8347	0.025
7.87395	0.016
7.91321	0.032
7.95246	0.038
7.99172	0.022
8.03097	0.014
8.07023	0.011
8.10948	0.04
8.14874	0.122
8.18799	0.22
8.22725	0.367
8.2665	0.53
8.30575	0.608
8.34501	0.669
8.38426	0.694
8.42352	0.689
8.46277	0.624
8.50203	0.588
8.54128	0.681
8.58054	0.699
8.61979	0.716
8.65905	0.75
8.6983	0.76
8.73756	0.749
8.77681	0.705
8.81607	0.601
8.85532	0.475
8.89458	0.299
8.93383	0.182
8.97308	0.108
9.01234	0.058
9.05159	0.046
9.09085	0.04
9.1301	0.1
9.16936	0.27
9.20861	0.467
9.24787	0.626
9.28712	0.721
9.32638	0.77
9.36563	0.799
9.40489	0.81
9.44414	0.812
9.4834	0.8
9.52265	0.779
9.56191	0.742
9.60116	0.669
9.64042	0.571
9.67967	0.44
9.71892	0.254
9.75818	0.156
9.79743	0.163
9.83669	0.254
9.87594	0.373
9.9152	0.542
9.95445	0.669
9.99371	0.745
10.033	0.804
10.0722	0.839
10.1115	0.862
10.1507	0.868
10.19	0.873
10.2292	0.868
10.2685	0.851
10.3077	0.794
10.347	0.66
10.3863	0.478
10.4255	0.213
10.4648	0.118
10.504	0.203
10.5433	0.354
10.5825	0.524
10.6218	0.652
10.661	0.69
10.7003	0.699
10.7395	0.703
10.7788	0.699
10.8181	0.645
10.8573	0.517
10.8966	0.394
10.9358	0.294
10.9751	0.448
11.0143	0.618
11.0536	0.647
11.0928	0.627
11.1321	0.551
11.1713	0.444
11.2106	0.228
11.2499	0.144
11.2891	0.254
11.3284	0.427
11.3676	0.55
11.4069	0.577
11.4461	0.55
11.4854	0.49
11.5246	0.373
11.5639	0.279
11.6032	0.254
11.6424	0.279
11.6817	0.359
11.7209	0.47
11.7602	0.571
11.7994	0.663
11.8387	0.71
11.8779	0.749
11.9172	0.762
11.9564	0.779
11.9957	0.784
12.035	0.789
12.0742	0.781
12.1135	0.773
12.1527	0.766
12.192	0.763
12.2312	0.758
12.2705	0.75
12.3097	0.744
12.349	0.737
12.3882	0.731
12.4275	0.718
12.4668	0.711
12.506	0.708
12.5453	0.699
12.5845	0.674
12.6238	0.627
12.663	0.553
12.7023	0.469
12.7415	0.318
12.7808	0.179
12.82	0.135
12.8593	0.244
12.8986	0.394
12.9378	0.54
12.9771	0.61
13.0163	0.69
13.0556	0.734
13.0948	0.758
13.1341	0.778
13.1733	0.788
13.2126	0.797
13.2518	0.807
13.2911	0.81
13.3304	0.813
13.3696	0.813
13.4089	0.812
13.4481	0.807
13.4874	0.804
13.5266	0.796
13.5659	0.783
13.6051	0.763
13.6444	0.739
13.6837	0.707
13.7229	0.671
13.7622	0.656
13.8014	0.66
13.8407	0.69
13.8799	0.728
13.9192	0.744
13.9584	0.752
13.9977	0.757
14.0369	0.752
14.0762	0.754
14.1155	0.75
14.1547	0.754
14.194	0.747
14.2332	0.749
14.2725	0.742
14.3117	0.737
14.351	0.734
14.3902	0.729
14.4295	0.726
14.4687	0.718
14.508	0.711
14.5473	0.708
14.5865	0.7
14.6258	0.69
14.665	0.684
14.7043	0.676
14.7435	0.669
14.7828	0.663
14.822	0.653
14.8613	0.642
14.9005	0.631
14.9398	0.627
14.9791	0.621
15.0183	0.608
15.0576	0.593
15.0968	0.576
15.1361	0.563
15.1753	0.548
15.2146	0.535
15.2538	0.525
15.2931	0.519
15.3323	0.516
15.3716	0.516
15.4109	0.511
15.4501	0.506
15.4894	0.5
15.5286	0.495
15.5679	0.488
15.6071	0.483
15.6464	0.477
15.6856	0.47
15.7249	0.466
15.7642	0.457
15.8034	0.454
15.8427	0.451
15.8819	0.456
