Infrared Spectrum: 1-(4-CHLOROANILINO)-2-PROPANOL
Formula: C9 H12 Cl N O
CAS: 72506-83-3
State: SOLUTION (10% IN CCl4 FOR 5000-1350 CM^-^1, 10% IN CS2 FOR 1350-625 CM^-^1)
Class: COBLENTZ
Instrument: Not specified, most likely a prism, grating, or hybrid spectrometer.
Sampling: TRANSMISSION
Path length: 0.01 CM, 0.01 CM
Resolution: 4
Origin: DOW CHEMICAL COMPANY
MICROMETERS	TRANSMITTANCE
2.027	0.811
2.06618	0.818
2.10535	0.819
2.14453	0.821
2.1837	0.826
2.22288	0.83
2.26205	0.827
2.30123	0.822
2.3404	0.832
2.37958	0.837
2.41875	0.84
2.45793	0.83
2.49711	0.843
2.53628	0.848
2.57546	0.851
2.61463	0.847
2.65381	0.851
2.69298	0.847
2.73216	0.811
2.77133	0.727
2.81051	0.666
2.84968	0.608
2.88886	0.483
2.92804	0.334
2.96721	0.323
3.00639	0.413
3.04556	0.504
3.08474	0.573
3.12391	0.637
3.16309	0.703
3.20226	0.739
3.24144	0.739
3.28061	0.732
3.31979	0.706
3.35897	0.553
3.39814	0.489
3.43732	0.491
3.47649	0.536
3.51567	0.608
3.55484	0.734
3.59402	0.801
3.63319	0.819
3.67237	0.83
3.71154	0.845
3.75072	0.858
3.7899	0.864
3.82907	0.869
3.86825	0.864
3.90742	0.871
3.9466	0.879
3.98577	0.887
4.02495	0.895
4.06412	0.901
4.1033	0.896
4.14247	0.904
4.18165	0.901
4.22083	0.89
4.26	0.887
4.29918	0.887
4.33835	0.89
4.37753	0.906
4.4167	0.917
4.45588	0.922
4.49505	0.924
4.53423	0.925
4.5734	0.925
4.61258	0.927
4.65176	0.927
4.69093	0.927
4.73011	0.929
4.76928	0.929
4.80846	0.929
4.84763	0.929
4.88681	0.925
4.92598	0.925
4.96516	0.924
5.00433	0.922
5.04351	0.924
5.08269	0.927
5.12186	0.927
5.16104	0.925
5.20021	0.922
5.23939	0.921
5.27856	0.917
5.31774	0.879
5.35691	0.832
5.39609	0.874
5.43526	0.901
5.47444	0.911
5.51362	0.917
5.55279	0.921
5.59197	0.919
5.63114	0.919
5.67032	0.917
5.70949	0.898
5.74867	0.879
5.78784	0.89
5.82702	0.9
5.86619	0.896
5.90537	0.885
5.94455	0.877
5.98372	0.864
6.0229	0.851
6.06207	0.818
6.10125	0.76
6.14042	0.669
6.1796	0.479
6.21877	0.13
6.25795	0.301
6.29712	0.465
6.3363	0.497
6.37548	0.499
6.41465	0.455
6.45383	0.431
6.493	0.45
6.53218	0.449
6.57135	0.339
6.61053	0.165
6.6497	0.053
6.68888	0.098
6.72806	0.426
6.76723	0.452
6.80641	0.42
6.84558	0.455
6.88476	0.574
6.92393	0.634
6.96311	0.648
7.00228	0.631
7.04146	0.618
7.08063	0.553
7.11981	0.476
7.15899	0.536
7.19816	0.512
7.23734	0.454
7.27651	0.552
7.31569	0.602
7.35486	0.605
7.39404	0.607
7.43321	0.539
7.47239	0.438
7.51156	0.351
7.55074	0.268
7.58992	0.241
7.62909	0.322
7.66827	0.4
7.70744	0.373
7.74662	0.428
7.78579	0.476
7.82497	0.473
7.86414	0.409
7.90332	0.328
7.94249	0.26
7.98167	0.249
8.02085	0.314
8.06002	0.444
8.0992	0.508
8.13837	0.558
8.17755	0.602
8.21672	0.644
8.2559	0.677
8.29507	0.706
8.33425	0.681
8.37342	0.655
8.4126	0.594
8.45178	0.431
8.49095	0.458
8.53013	0.652
8.5693	0.666
8.60848	0.631
8.64765	0.565
8.68683	0.478
8.726	0.431
8.76518	0.421
8.80435	0.41
8.84353	0.378
8.88271	0.354
8.92188	0.349
8.96106	0.351
9.00023	0.37
9.03941	0.368
9.07858	0.293
9.11776	0.198
9.15693	0.233
9.19611	0.323
9.23528	0.388
9.27446	0.405
9.31364	0.405
9.35281	0.405
9.39199	0.413
9.43116	0.438
9.47034	0.458
9.50951	0.47
9.54869	0.505
9.58786	0.557
9.62704	0.611
9.66621	0.681
9.70539	0.743
9.74457	0.769
9.78374	0.78
9.82292	0.769
9.86209	0.729
9.90127	0.661
9.94044	0.587
9.97962	0.628
10.0188	0.718
10.058	0.785
10.0971	0.829
10.1363	0.859
10.1755	0.872
10.2147	0.885
10.2538	0.882
10.293	0.879
10.3322	0.871
10.3714	0.859
10.4105	0.827
10.4497	0.795
10.4889	0.758
10.5281	0.729
10.5672	0.697
10.6064	0.666
10.6456	0.637
10.6848	0.619
10.724	0.611
10.7631	0.602
10.8023	0.586
10.8415	0.578
10.8807	0.611
10.9198	0.731
10.959	0.774
10.9982	0.787
11.0374	0.789
11.0765	0.792
11.1157	0.795
11.1549	0.797
11.1941	0.79
11.2332	0.776
11.2724	0.756
11.3116	0.737
11.3508	0.706
11.3899	0.685
11.4291	0.657
11.4683	0.628
11.5075	0.6
11.5466	0.584
11.5858	0.576
11.625	0.578
11.6642	0.579
11.7033	0.578
11.7425	0.581
11.7817	0.586
11.8209	0.579
11.86	0.565
11.8992	0.531
11.9384	0.5
11.9776	0.455
12.0167	0.425
12.0559	0.407
12.0951	0.368
12.1343	0.309
12.1734	0.215
12.2126	0.119
12.2518	0.048
12.291	0.019
12.3301	0.059
12.3693	0.172
12.4085	0.307
12.4477	0.429
12.4868	0.495
12.526	0.552
12.5652	0.602
12.6044	0.637
12.6435	0.66
12.6827	0.684
12.7219	0.695
12.7611	0.703
12.8003	0.711
12.8394	0.714
12.8786	0.716
12.9178	0.718
12.957	0.721
12.9961	0.724
13.0353	0.724
13.0745	0.724
13.1137	0.719
13.1528	0.719
13.192	0.718
13.2312	0.718
13.2704	0.714
13.3095	0.706
13.3487	0.705
13.3879	0.702
13.4271	0.697
13.4662	0.689
13.5054	0.685
13.5446	0.679
13.5838	0.671
13.6229	0.666
13.6621	0.658
13.7013	0.653
13.7405	0.648
13.7796	0.645
13.8188	0.639
13.858	0.632
13.8972	0.628
13.9363	0.624
13.9755	0.616
14.0147	0.608
14.0539	0.599
14.093	0.594
14.1322	0.578
14.1714	0.565
14.2106	0.544
14.2497	0.524
14.2889	0.513
14.3281	0.5
14.3673	0.497
14.4064	0.497
14.4456	0.497
14.4848	0.497
14.524	0.494
14.5631	0.486
14.6023	0.476
14.6415	0.457
14.6807	0.441
14.7198	0.425
14.759	0.404
14.7982	0.394
14.8374	0.383
14.8766	0.371
14.9157	0.367
14.9549	0.371
14.9941	0.375
15.0333	0.367
15.0724	0.359
15.1116	0.351
15.1508	0.342
15.19	0.334
15.2291	0.326
15.2683	0.317
15.3075	0.305
15.3467	0.296
15.3858	0.291
15.425	0.286
15.4642	0.283
15.5034	0.276
15.5425	0.268
15.5817	0.265
15.6209	0.265
15.6601	0.262
15.6992	0.257
15.7384	0.254
15.7776	0.252
15.8168	0.247
15.8559	0.246
15.8951	0.252
