Infrared Spectrum: Glutaric acid, 3-hydroxy-, dimethyl ester
Formula: C7 H12 O5
CAS: 7250-55-7
State: LIQUID (NEAT)
Class: COBLENTZ III
Instrument: DOW KBr FOREPRISM-GRATING
Instrument parameters: BLAZED AT 3.5, 12.0, 20.0 MICRON AND CHANGED AT 5.0, 7.5, 14.9 MICRON
Sampling: TRANSMISSION
Path length: CAPILLARY
Resolution: 2
Origin: DOW CHEMICAL COMPANY
1/CM	TRANSMITTANCE
457	0.5147
466	0.4918
475	0.4742
484	0.474
493	0.4846
502	0.4912
511	0.4832
520	0.479
529	0.486
538	0.5005
547	0.5191
556	0.537
565	0.5544
574	0.5698
583	0.571
592	0.5634
601	0.5531
610	0.5582
619	0.5772
628	0.6002
637	0.6242
646	0.6489
655	0.6791
664	0.7128
673	0.7189
682	0.7283
691	0.7368
700	0.7301
709	0.697
718	0.6506
727	0.6683
736	0.7018
745	0.7392
754	0.7553
763	0.763
772	0.7778
781	0.7911
790	0.7971
799	0.8001
808	0.8004
817	0.797
826	0.7684
835	0.7116
844	0.5994
853	0.5966
862	0.6194
871	0.5907
880	0.6038
889	0.6375
898	0.6756
907	0.7061
916	0.7433
925	0.7791
934	0.7894
943	0.7884
952	0.7703
961	0.7418
970	0.7015
979	0.5159
988	0.2861
997	0.2838
1006	0.3321
1015	0.3637
1024	0.462
1033	0.395
1042	0.2877
1051	0.2556
1060	0.2605
1069	0.2576
1078	0.2793
1087	0.2943
1096	0.3064
1105	0.4001
1114	0.5037
1123	0.537
1132	0.4495
1141	0.2328
1150	0.0987
1159	0.0879
1168	0.0891
1177	0.0817
1186	0.0982
1195	0.0835
1204	0.0713
1213	0.0856
1222	0.1095
1231	0.1331
1240	0.1624
1249	0.1672
1258	0.1414
1267	0.106
1276	0.0846
1285	0.096
1294	0.124
1303	0.1569
1312	0.1692
1321	0.1789
1330	0.2114
1339	0.2537
1348	0.24
1357	0.2448
1366	0.2408
1375	0.2399
1384	0.2989
1393	0.3898
1402	0.3534
1411	0.3151
1420	0.3061
1429	0.2653
1438	0.0621
1447	0.151
1456	0.2955
1465	0.3809
1474	0.5722
1483	0.6753
1492	0.7154
1501	0.7436
1510	0.7585
1519	0.7693
1528	0.7782
1537	0.7849
1546	0.7886
1555	0.7914
1564	0.7914
1573	0.7891
1582	0.7849
1591	0.7776
1600	0.7675
1609	0.7545
1618	0.7402
1627	0.7249
1636	0.7184
1645	0.7161
1654	0.7141
1663	0.6966
1672	0.6514
1681	0.5958
1690	0.4639
1699	0.2778
1708	0.1185
1717	0.0443
1726	0.0188
1735	0.01
1744	0.0054
1753	0.033
1762	0.2216
1771	0.5179
1780	0.6102
1789	0.6738
1798	0.7141
1807	0.7538
1816	0.7864
1825	0.8015
1834	0.8143
1843	0.8223
1852	0.8285
1861	0.8342
1870	0.8368
1879	0.8381
1888	0.8392
1897	0.8406
1906	0.8413
1915	0.8444
1924	0.8443
1933	0.843
1942	0.8417
1951	0.8405
1960	0.8393
1969	0.8378
1978	0.8359
1987	0.8333
1996	0.8326
2005	0.8358
2014	0.8391
2023	0.8372
2032	0.8345
2041	0.8327
2050	0.832
2059	0.8314
2068	0.831
2077	0.8305
2086	0.8302
2095	0.8298
2104	0.8295
2113	0.8295
2122	0.8338
2131	0.8376
2140	0.8411
2149	0.8448
2158	0.8467
2167	0.8482
2176	0.849
2185	0.8489
2194	0.8487
2203	0.8485
2212	0.8482
2221	0.8478
2230	0.8475
2239	0.8467
2248	0.8459
2257	0.8442
2266	0.8423
2275	0.8403
2284	0.8383
2293	0.8361
2302	0.8339
2311	0.8327
2320	0.8349
2329	0.8385
2338	0.8382
2347	0.839
2356	0.8473
2365	0.8467
2374	0.8393
2383	0.8323
2392	0.8294
2401	0.829
2410	0.829
2419	0.8293
2428	0.8294
2437	0.8294
2446	0.8294
2455	0.8298
2464	0.8304
2473	0.8309
2482	0.8313
2491	0.8316
2500	0.832
2509	0.832
2518	0.832
2527	0.8316
2536	0.8311
2545	0.8305
2554	0.8298
2563	0.8289
2572	0.8281
2581	0.825
2590	0.8215
2599	0.817
2608	0.8142
2617	0.8128
2626	0.8125
2635	0.813
2644	0.8138
2653	0.8166
2662	0.8201
2671	0.8227
2680	0.8235
2689	0.8225
2698	0.8213
2707	0.8192
2716	0.817
2725	0.8152
2734	0.815
2743	0.8151
2752	0.8158
2761	0.8171
2770	0.818
2779	0.8182
2788	0.816
2797	0.8119
2806	0.8061
2815	0.7973
2824	0.7855
2833	0.7655
2842	0.7328
2851	0.6777
2860	0.6815
2869	0.7086
2878	0.7268
2887	0.721
2896	0.6909
2905	0.6479
2914	0.6013
2923	0.57
2932	0.5423
2941	0.5221
2950	0.4978
2959	0.2817
2968	0.3135
2977	0.4925
2986	0.5666
2995	0.5705
3004	0.5417
3013	0.5448
3022	0.569
3031	0.6066
3040	0.6446
3049	0.7051
3058	0.737
3067	0.7572
3076	0.7693
3085	0.7753
3094	0.7788
3103	0.7802
3112	0.7811
3121	0.7815
3130	0.7802
3139	0.7787
3148	0.776
3157	0.7727
3166	0.7684
3175	0.7636
3184	0.7586
3193	0.7533
3202	0.7472
3211	0.741
3220	0.733
3229	0.7248
3238	0.716
3247	0.7071
3256	0.6958
3265	0.6847
3274	0.674
3283	0.6631
3292	0.65
3301	0.6366
3310	0.6229
3319	0.6092
3328	0.5933
3337	0.5771
3346	0.5589
3355	0.5381
3364	0.5172
3373	0.4941
3382	0.4704
3391	0.4462
3400	0.4215
3409	0.3975
3418	0.3781
3427	0.3625
3436	0.3474
3445	0.3312
3454	0.3157
3463	0.3029
3472	0.2925
3481	0.2844
3490	0.2776
3499	0.2719
3508	0.2687
3517	0.2692
3526	0.2779
3535	0.2958
3544	0.3179
3553	0.3447
3562	0.3956
3571	0.46
3580	0.5244
3589	0.5749
3598	0.615
3607	0.6527
3616	0.6853
3625	0.7113
3634	0.7319
3643	0.7487
3652	0.7645
3661	0.7774
3670	0.7888
3679	0.7977
3688	0.8055
3697	0.8109
3706	0.8158
3715	0.8186
3724	0.8213
3733	0.8228
3742	0.8244
3751	0.8257
3760	0.826
3769	0.8263
3778	0.8267
3787	0.8271
3796	0.8269
