Infrared Spectrum: 4-(Trifluoromethyl)thiobenzamide
Formula: C8 H6 F3 N S
CAS: 72505-21-6
State: gas
Origin: EPA-IR VAPOR PHASE LIBRARY
1/CM	ABSORBANCE
549.8	0.007911
559.445	0.006461
569.09	0.007701
578.734	0.007921
588.379	0.007441
598.024	0.006851
607.669	0.006971
617.313	0.005531
626.958	0.006391
636.603	0.006541
646.248	0.006351
655.893	0.004951
665.537	0.004161
675.182	0.003871
684.827	0.004051
694.472	0.003411
704.116	0.009771
713.761	0.011341
723.406	0.005041
733.051	0.006181
742.695	0.004891
752.34	0.005031
761.985	0.006031
771.63	0.008101
781.275	0.009081
790.919	0.008941
800.564	0.009961
810.209	0.011391
819.854	0.015571
829.498	0.024911
839.143	0.038701
848.788	0.047191
858.433	0.030661
868.078	0.013791
877.722	0.007421
887.367	0.006881
897.012	0.009151
906.657	0.012541
916.301	0.014151
925.946	0.013961
935.591	0.012041
945.236	0.011821
954.88	0.012311
964.525	0.010111
974.17	0.008871
983.815	0.007791
993.46	0.008631
1003.1	0.010881
1012.75	0.033941
1022.39	0.029231
1032.04	0.009681
1041.68	0.010521
1051.33	0.022131
1060.97	0.068351
1070.62	0.102701
1080.26	0.039741
1089.91	0.024771
1099.55	0.029591
1109.2	0.041381
1118.84	0.050131
1128.49	0.059991
1138.13	0.094441
1147.78	0.166691
1157.42	0.199011
1167.07	0.178951
1176.71	0.170641
1186.36	0.092021
1196	0.039741
1205.64	0.022261
1215.29	0.017141
1224.93	0.017291
1234.58	0.012911
1244.22	0.011231
1253.87	0.013171
1263.51	0.018431
1273.16	0.025921
1282.8	0.030201
1292.45	0.040001
1302.09	0.084221
1311.74	0.230051
1321.38	0.403031
1331.03	0.234601
1340.67	0.101131
1350.32	0.059671
1359.96	0.035151
1369.61	0.018641
1379.25	0.012821
1388.9	0.014911
1398.54	0.023501
1408.18	0.030021
1417.83	0.023631
1427.47	0.011271
1437.12	0.005351
1446.76	0.003801
1456.41	0.003131
1466.05	0.002901
1475.7	0.002621
1485.34	0.002261
1494.99	0.002091
1504.63	0.002641
1514.28	0.002931
1523.92	0.002521
1533.57	0.003351
1543.21	0.004021
1552.86	0.005731
1562.5	0.008971
1572.15	0.016181
1581.79	0.029981
1591.44	0.057691
1601.08	0.068121
1610.73	0.041981
1620.37	0.021991
1630.01	0.010111
1639.66	0.004771
1649.3	0.003701
1658.95	0.003411
1668.59	0.003101
1678.24	0.003171
1687.88	0.002541
1697.53	0.001911
1707.17	0.001701
1716.82	0.001621
1726.46	0.001531
1736.11	0.001861
1745.75	0.001681
1755.4	0.001791
1765.04	0.001891
1774.69	0.001981
1784.33	0.002291
1793.98	0.002951
1803.62	0.002931
1813.27	0.002001
1822.91	0.001671
1832.55	0.0012146
1842.2	0.0013213
1851.84	0.0011571
1861.49	0.001421
1871.13	0.001501
1880.78	0.001861
1890.42	0.001981
1900.07	0.002371
1909.71	0.002681
1919.36	0.002931
1929	0.002531
1938.65	0.002321
1948.29	0.001591
1957.94	0.0012775
1967.58	0.001351
1977.23	0.0012361
1986.87	0.001381
1996.52	0.0010413
2006.16	0.0009149
2015.81	0.0009918
2025.45	0.0009441
2035.1	0.0008543
2044.74	0.0011268
2054.38	0.001163
2064.03	0.0009935
2073.67	0.0010463
2083.32	0.00112
2092.96	0.0012153
2102.61	0.001381
2112.25	0.0013261
2121.9	0.0011104
2131.54	0.0010842
2141.19	0.0011361
2150.83	0.0009827
2160.48	0.0008975
2170.12	0.0008969
2179.77	0.0007667
2189.41	0.0009453
2199.06	0.0010762
2208.7	0.001411
2218.35	0.001361
2227.99	0.001751
2237.64	0.002121
2247.28	0.001401
2256.92	0.001391
2266.57	0.001148
2276.21	0.001631
2285.86	0.001811
2295.5	0.001661
2305.15	0.001651
2314.79	0.001481
2324.44	0.001391
2334.08	0.001351
2343.73	0.0011772
2353.37	0.001351
2363.02	0.001248
2372.66	0.0010348
2382.31	0.0011469
2391.95	0.0008793
2401.6	0.0008596
2411.24	0.000944
2420.89	0.0008351
2430.53	0.0008065
2440.18	0.0011301
2449.82	0.0009872
2459.47	0.0011255
2469.11	0.0008743
2478.75	0.0009623
2488.4	0.000961
2498.04	0.0009596
2507.69	0.0010138
2517.33	0.0007433
2526.98	0.0005756
2536.62	0.0009086
2546.27	0.0007387
2555.91	0.0006535
2565.56	0.0009701
2575.2	0.0007812
2584.85	0.0009137
2594.49	0.0010213
2604.14	0.0011377
2613.78	0.0010496
2623.43	0.0013147
2633.07	0.001471
2642.72	0.0012057
2652.36	0.0012856
2662.01	0.0011814
2671.65	0.0009013
2681.29	0.0005627
2690.94	0.0012987
2700.58	0.001192
2710.23	0.0008814
2719.87	0.0006611
2729.52	0.0007665
2739.16	0.0007026
2748.81	0.0005403
2758.45	0.00036796
2768.1	0.0004841
2777.74	0.0007234
2787.39	0.0006566
2797.03	0.0007077
2806.68	0.0008476
2816.32	0.0006039
2825.97	0.0005859
2835.61	0.000919
2845.26	0.0006918
2854.9	0.0004423
2864.55	0.0006539
2874.19	0.0009683
2883.84	0.000839
2893.48	0.0007159
2903.12	0.0007353
2912.77	0.0009113
2922.41	0.001791
2932.06	0.001781
2941.7	0.002071
2951.35	0.001411
2960.99	0.0009719
2970.64	0.0009381
2980.28	0.0006571
2989.93	0.0006199
2999.57	0.0011611
3009.22	0.000495
3018.86	0.0011808
3028.51	0.001551
3038.15	0.001591
3047.8	0.002511
3057.44	0.002291
3067.09	0.002481
3076.73	0.002371
3086.38	0.002191
3096.02	0.001991
3105.67	0.002041
3115.31	0.0013221
3124.95	0.0013128
3134.6	0.0009313
3144.24	0.0012227
3153.89	0.0012778
3163.53	0.0011457
3173.18	0.001701
3182.82	0.0011208
3192.47	0.0011335
3202.11	0.001351
3211.76	0.0007378
3221.4	0.0007314
3231.05	0.0007784
3240.69	0.0006433
3250.34	0.00039129
3259.98	0.0009404
3269.63	0.0006871
3279.27	0.0005788
3288.92	0.0011467
3298.56	0.001003
3308.21	0.0009827
3317.85	0.000882
3327.49	0.0007149
3337.14	0.0008801
3346.78	0.0011356
3356.43	0.002011
3366.07	0.002371
3375.72	0.003981
3385.36	0.007731
3395.01	0.013281
3404.65	0.018431
3414.3	0.016371
3423.94	0.007891
3433.59	0.003331
3443.23	0.002141
3452.88	0.0012346
3462.52	0.001821
3472.17	0.001671
3481.81	0.002441
3491.46	0.003851
3501.1	0.006651
3510.75	0.008511
3520.39	0.012941
3530.04	0.017111
3539.68	0.005241
3549.32	0.001741
3558.97	0.001351
3568.61	0.0010901
3578.26	0.0005034
3587.9	0.0009037
3597.55	0.001044
3607.19	0.0012391
3616.84	0.0008484
3626.48	0.0005506
3636.13	0.0011735
3645.77	0.0007012
3655.42	0.0007807
3665.06	0.000157
3674.71	0.000143
3684.35	0.0002899
3694	0.000936
3703.64	0.0006489
3713.29	0.00036874
3722.93	0.0005884
3732.58	0.000499
3742.22	0.0011495
3751.86	0.0011581
3761.51	0.000637
3771.15	0.0007216
3780.8	0.0004675
3790.44	0.0008585
3800.09	0.0005195
3809.73	0.0009769
3819.38	0.0009739
3829.02	0.0008359
3838.67	0.0005201
3848.31	0.0007982
3857.96	0.0005591
3867.6	0.0006837
3877.25	0.0005769
3886.89	0.0004874
3896.54	0.001471
3906.18	0.0004547
3915.83	0.0009107
3925.47	0.0004599
3935.12	0.0008541
3944.76	0.0004862
3954.41	0.00038255
3964.05	0.0010701
3973.69	0
3983.34	0.0009892
3992.98	0.0009891
