Infrared Spectrum: QUINOXALINE, 2-(TRIBROMOMETHYL)-
Formula: C9 H5 Br3 N2
CAS: 7251-36-7
State: SOLID (SPLIT MULL)
Melting point: 109 C
Class: COBLENTZ III
Instrument: BECKMAN IR-9 (GRATING)
Instrument parameters: ORDER CHANGES: 670, 1200, 2000 CM^-^1
Sampling: TRANSMISSION
Resolution: 2
Origin: DOW CHEMICAL COMPANY
1/CM	TRANSMITTANCE
401	0.6636
410	0.5684
419	0.4733
428	0.69
437	0.7557
446	0.5748
455	0.8238
464	0.8582
473	0.8878
482	0.8653
491	0.9267
500	0.9431
509	0.8641
518	0.9409
527	0.9639
536	0.8752
545	0.9655
554	0.9988
563	1.0028
572	1.0045
581	1.0037
590	1.001
599	0.992
608	0.7106
617	0.9974
626	0.9735
635	0.6591
644	0.9464
653	0.9739
662	0.9787
671	0.975
680	0.9392
689	0.916
698	0.8778
707	0.7893
716	0.5824
725	0.4849
734	0.1904
743	0.746
752	0.4126
761	0.0513
770	0.6315
779	0.6248
788	0.5508
797	0.8459
806	0.8312
815	0.9275
824	0.9509
833	0.9355
842	0.9544
851	0.9548
860	0.9511
869	0.9447
878	0.9333
887	0.9074
896	0.8766
905	0.8318
914	0.3762
923	0.8994
932	0.9025
941	0.906
950	0.8756
959	0.8518
968	0.8228
977	0.3728
986	0.6088
995	0.9068
1004	0.8292
1013	0.8886
1022	0.9013
1031	0.9039
1040	0.9112
1049	0.9092
1058	0.9045
1067	0.8951
1076	0.8851
1085	0.8802
1094	0.8723
1103	0.8632
1112	0.8433
1121	0.7764
1130	0.4182
1139	0.7854
1148	0.8521
1157	0.8511
1166	0.8491
1175	0.8478
1184	0.8318
1193	0.7445
1202	0.8021
1211	0.65
1220	0.8277
1229	0.8477
1238	0.8468
1247	0.8336
1256	0.8006
1265	0.7996
1274	0.7799
1283	0.7876
1292	0.7898
1301	0.7822
1310	0.76
1319	0.7351
1328	0.5918
1337	0.8345
1346	0.8151
1355	0.8484
1364	0.8161
1373	0.8334
1382	0.9665
1391	0.976
1400	0.9652
1409	0.9531
1418	0.8633
1427	0.9724
1436	0.976
1445	0.9664
1454	0.949
1463	0.8785
1472	0.9321
1481	0.8873
1490	0.5225
1499	0.9832
1508	0.9941
1517	0.9761
1526	0.9886
1535	0.9304
1544	0.9911
1553	0.9856
1562	0.9487
1571	0.9827
1580	0.9803
1589	0.982
1598	0.9724
1607	0.9447
1616	0.9497
1625	0.9546
1634	0.9593
1643	0.9625
1652	0.9505
1661	0.9434
1670	0.943
1679	0.9428
1688	0.936
1697	0.9268
1706	0.9141
1715	0.8978
1724	0.8862
1733	0.8982
1742	0.8937
1751	0.8949
1760	0.8978
1769	0.8858
1778	0.8667
1787	0.8706
1796	0.8824
1805	0.8867
1814	0.8868
1823	0.8796
1832	0.8685
1841	0.8868
1850	0.8748
1859	0.8821
1868	0.8802
1877	0.881
1886	0.8828
1895	0.8836
1904	0.8735
1913	0.8658
1922	0.8682
1931	0.862
1940	0.8542
1949	0.858
1958	0.8475
1967	0.8489
1976	0.8542
1985	0.8525
1994	0.848
2003	0.8502
2012	0.8683
2021	0.8711
2030	0.8686
2039	0.8659
2048	0.8623
2057	0.8584
2066	0.8548
2075	0.8517
2084	0.8471
2093	0.8428
2102	0.8393
2111	0.8357
2120	0.8318
2129	0.8275
2138	0.8225
2147	0.8175
2156	0.8121
2165	0.8058
2174	0.8001
2183	0.7944
2192	0.7889
2201	0.7833
2210	0.7775
2219	0.7715
2228	0.7657
2237	0.7597
2246	0.754
2255	0.7483
2264	0.7426
2273	0.7376
2282	0.7337
2291	0.7303
2300	0.7271
2309	0.7251
2318	0.7245
2327	0.7245
2336	0.7253
2345	0.7274
2354	0.7303
2363	0.7345
2372	0.7254
2381	0.7072
2390	0.7001
2399	0.6999
2408	0.698
2417	0.6962
2426	0.6932
2435	0.6908
2444	0.6887
2453	0.6865
2462	0.6848
2471	0.6825
2480	0.6795
2489	0.6765
2498	0.6737
2507	0.6707
2516	0.6678
2525	0.665
2534	0.6622
2543	0.6597
2552	0.6568
2561	0.6539
2570	0.651
2579	0.6481
2588	0.6458
2597	0.6436
2606	0.6415
2615	0.6392
2624	0.6369
2633	0.6345
2642	0.6322
2651	0.6298
2660	0.6275
2669	0.6252
2678	0.6229
2687	0.6203
2696	0.6175
2705	0.6146
2714	0.6118
2723	0.6086
2732	0.6055
2741	0.6023
2750	0.5992
2759	0.596
2768	0.5931
2777	0.5902
2786	0.5875
2795	0.5847
2804	0.5808
2813	0.5767
2822	0.5728
2831	0.5685
2840	0.5643
2849	0.56
2858	0.5554
2867	0.5522
2876	0.5506
2885	0.5495
2894	0.547
2903	0.5426
2912	0.5371
2921	0.5312
2930	0.5268
2939	0.5238
2948	0.5233
2957	0.5238
2966	0.5247
2975	0.5246
2984	0.5245
2993	0.524
3002	0.5229
3011	0.5206
3020	0.5176
3029	0.5146
3038	0.5115
3047	0.5075
3056	0.4982
3065	0.4959
3074	0.5051
3083	0.5099
3092	0.5085
3101	0.507
3110	0.5051
3119	0.5031
3128	0.5016
3137	0.5003
3146	0.4986
3155	0.4968
3164	0.4949
3173	0.4928
3182	0.4908
3191	0.4886
3200	0.4866
3209	0.4845
3218	0.4824
3227	0.4803
3236	0.4783
3245	0.476
3254	0.4732
3263	0.4703
3272	0.4674
3281	0.4645
3290	0.4619
3299	0.4599
3308	0.4579
3317	0.4558
3326	0.4538
3335	0.4518
3344	0.4499
3353	0.4479
3362	0.446
3371	0.4441
3380	0.4419
3389	0.4397
3398	0.4376
3407	0.4353
3416	0.4334
3425	0.4315
3434	0.4297
3443	0.4282
3452	0.4268
3461	0.4254
3470	0.4241
3479	0.4228
3488	0.4215
3497	0.42
3506	0.4183
3515	0.4166
3524	0.4148
3533	0.413
3542	0.4115
3551	0.4101
3560	0.4087
3569	0.4072
3578	0.4057
3587	0.4042
3596	0.4027
3605	0.401
3614	0.3996
3623	0.398
3632	0.3966
3641	0.395
3650	0.3928
3659	0.39
3668	0.3872
3677	0.3849
3686	0.3832
3695	0.3818
3704	0.3807
3713	0.3803
3722	0.38
3731	0.3792
3740	0.378
3749	0.3764
3758	0.3749
3767	0.3739
3776	0.373
3785	0.3722
3794	0.3712
