Infrared Spectrum: 1-PIPERAZINECARBOXYLIC ACID, 4-(3-CHLOROPROPYL)-, ETHYL ESTER, HYDROCHLORIDE
Formula: C10 H20 Cl2 N2 O2
CAS: 7251-06-1
State: SOLID (OIL MULL)
Class: COBLENTZ III
Instrument: PERKIN-ELMER 21 (GRATING)
Instrument parameters: NaCl PRISM
Sampling: TRANSMISSION
Resolution: 2
Origin: SMITH, KLINE & FRENCH
MICROMETERS	TRANSMITTANCE
1.999	0.552
2.03807	0.554
2.07714	0.555
2.11622	0.561
2.15529	0.567
2.19436	0.572
2.23343	0.572
2.2725	0.571
2.31158	0.575
2.35065	0.579
2.38972	0.583
2.42879	0.59
2.46786	0.602
2.50694	0.609
2.54601	0.609
2.58508	0.611
2.62415	0.611
2.66322	0.612
2.7023	0.614
2.74137	0.619
2.78044	0.624
2.81951	0.623
2.85858	0.629
2.89766	0.628
2.93673	0.626
2.9758	0.629
3.01487	0.629
3.05394	0.629
3.09302	0.631
3.13209	0.637
3.17116	0.64
3.21023	0.64
3.2493	0.639
3.28838	0.626
3.32745	0.496
3.36652	0.19
3.40559	0.121
3.44466	0.143
3.48374	0.189
3.52281	0.424
3.56188	0.572
3.60095	0.612
3.64002	0.616
3.6791	0.608
3.71817	0.578
3.75724	0.582
3.79631	0.583
3.83539	0.541
3.87446	0.392
3.91353	0.336
3.9526	0.363
3.99167	0.383
4.03075	0.328
4.06982	0.342
4.10889	0.398
4.14796	0.496
4.18703	0.55
4.22611	0.55
4.26518	0.565
4.30425	0.605
4.34332	0.658
4.38239	0.67
4.42147	0.687
4.46054	0.699
4.49961	0.735
4.53868	0.736
4.57775	0.742
4.61683	0.752
4.6559	0.753
4.69497	0.764
4.73404	0.765
4.77311	0.767
4.81219	0.769
4.85126	0.772
4.89033	0.775
4.9294	0.777
4.96847	0.78
5.00755	0.781
5.04662	0.781
5.08569	0.783
5.12476	0.788
5.16383	0.791
5.20291	0.792
5.24198	0.793
5.28105	0.794
5.32012	0.798
5.35919	0.798
5.39827	0.799
5.43734	0.8
5.47641	0.8
5.51548	0.8
5.55455	0.799
5.59363	0.797
5.6327	0.791
5.67177	0.778
5.71084	0.726
5.74991	0.5
5.78899	0.232
5.82806	0.241
5.86713	0.486
5.9062	0.641
5.94527	0.709
5.98435	0.736
6.02342	0.759
6.06249	0.775
6.10156	0.777
6.14063	0.781
6.17971	0.783
6.21878	0.788
6.25785	0.791
6.29692	0.789
6.33599	0.789
6.37507	0.789
6.41414	0.791
6.45321	0.781
6.49228	0.784
6.53135	0.784
6.57043	0.784
6.6095	0.783
6.64857	0.784
6.68764	0.753
6.72671	0.541
6.76579	0.573
6.80486	0.46
6.84393	0.377
6.883	0.337
6.92207	0.438
6.96115	0.448
7.00022	0.354
7.03929	0.364
7.07836	0.452
7.11743	0.59
7.15651	0.594
7.19558	0.432
7.23465	0.437
7.27372	0.602
7.3128	0.691
7.35187	0.656
7.39094	0.692
7.43001	0.754
7.46908	0.742
7.50816	0.71
7.54723	0.764
7.5863	0.767
7.62537	0.703
7.66444	0.703
7.70352	0.612
7.74259	0.596
7.78166	0.424
7.82073	0.524
7.8598	0.558
7.89888	0.43
7.93795	0.275
7.97702	0.416
8.01609	0.662
8.05516	0.72
8.09424	0.754
8.13331	0.752
8.17238	0.425
8.21145	0.399
8.25052	0.663
8.2896	0.699
8.32867	0.781
8.36774	0.814
8.40681	0.791
8.44588	0.789
8.48496	0.834
8.52403	0.842
8.5631	0.843
8.60217	0.839
8.64124	0.832
8.68032	0.825
8.71939	0.792
8.75846	0.541
8.79753	0.371
8.8366	0.648
8.87568	0.773
8.91475	0.776
8.95382	0.776
8.99289	0.778
9.03196	0.721
9.07104	0.775
9.11011	0.808
9.14918	0.752
9.18825	0.623
9.22732	0.755
9.2664	0.772
9.30547	0.769
9.34454	0.76
9.38361	0.769
9.42268	0.799
9.46176	0.767
9.50083	0.731
9.5399	0.794
9.57897	0.799
9.61804	0.645
9.65712	0.653
9.69619	0.668
9.73526	0.778
9.77433	0.82
9.8134	0.857
9.85248	0.869
9.89155	0.877
9.93062	0.884
9.96969	0.893
10.0088	0.902
10.0478	0.902
10.0869	0.9
10.126	0.794
10.1651	0.748
10.2041	0.778
10.2432	0.736
10.2823	0.507
10.3213	0.599
10.3604	0.763
10.3995	0.821
10.4386	0.876
10.4776	0.891
10.5167	0.906
10.5558	0.904
10.5948	0.899
10.6339	0.921
10.673	0.934
10.7121	0.94
10.7511	0.945
10.7902	0.948
10.8293	0.951
10.8683	0.957
10.9074	0.961
10.9465	0.962
10.9856	0.968
11.0246	0.969
11.0637	0.972
11.1028	0.967
11.1419	0.968
11.1809	0.97
11.22	0.97
11.2591	0.968
11.2981	0.95
11.3372	0.9
11.3763	0.856
11.4154	0.914
11.4544	0.948
11.4935	0.963
11.5326	0.968
11.5716	0.972
11.6107	0.974
11.6498	0.981
11.6889	0.985
11.7279	0.986
11.767	0.991
11.8061	0.992
11.8451	0.993
11.8842	0.991
11.9233	0.957
11.9624	0.959
12.0014	0.97
12.0405	0.974
12.0796	0.98
12.1187	0.984
12.1577	0.987
12.1968	0.99
12.2359	0.991
12.2749	0.974
12.314	0.863
12.3531	0.765
12.3922	0.88
12.4312	0.947
12.4703	0.962
12.5094	0.978
12.5484	0.978
12.5875	0.974
12.6266	0.975
12.6657	0.984
12.7047	0.989
12.7438	0.987
12.7829	0.984
12.822	0.98
12.861	0.948
12.9001	0.838
12.9392	0.63
12.9782	0.597
13.0173	0.756
13.0564	0.869
13.0955	0.927
13.1345	0.948
13.1736	0.961
13.2127	0.969
13.2517	0.972
13.2908	0.972
13.3299	0.969
13.369	0.97
13.408	0.972
13.4471	0.973
13.4862	0.972
13.5252	0.962
13.5643	0.956
13.6034	0.953
13.6425	0.948
13.6815	0.946
13.7206	0.95
13.7597	0.951
13.7988	0.941
13.8378	0.93
13.8769	0.93
13.916	0.923
13.955	0.925
13.9941	0.94
14.0332	0.944
14.0723	0.948
14.1113	0.948
14.1504	0.958
14.1895	0.959
14.2285	0.958
14.2676	0.961
14.3067	0.967
14.3458	0.965
14.3848	0.967
14.4239	0.963
14.463	0.964
14.502	0.963
14.5411	0.959
14.5802	0.958
14.6193	0.958
14.6583	0.951
14.6974	0.946
14.7365	0.944
14.7756	0.945
14.8146	0.94
14.8537	0.941
14.8928	0.94
14.9318	0.935
14.9709	0.928
15.01	0.918
15.0491	0.91
15.0881	0.904
15.1272	0.899
15.1663	0.896
15.2053	0.889
15.2444	0.883
15.2835	0.865
15.3226	0.823
15.3616	0.765
15.4007	0.678
15.4398	0.609
15.4788	0.614
15.5179	0.66
15.557	0.71
15.5961	0.744
15.6351	0.767
15.6742	0.771
15.7133	0.775
