Infrared Spectrum: N-ISOAMYL(-) BENZOXAZOLONE
Formula: C12 H15 N O2
CAS: 72548-10-8
State: LIQUID
Class: COBLENTZ
Instrument: Not specified, most likely a prism, grating, or hybrid spectrometer.
Sampling: TRANSMISSION
Path length: CAPILLARY
Resolution: 4
MICROMETERS	TRANSMITTANCE
1.986	0.895
2.01985	0.895
2.05371	0.895
2.08756	0.895
2.12142	0.893
2.15527	0.888
2.18913	0.888
2.22298	0.893
2.25683	0.89
2.29069	0.88
2.32454	0.87
2.3584	0.868
2.39225	0.87
2.4261	0.87
2.45996	0.868
2.49381	0.875
2.52767	0.882
2.56152	0.883
2.59538	0.887
2.62923	0.882
2.66308	0.885
2.69694	0.885
2.73079	0.872
2.76465	0.865
2.7985	0.845
2.83236	0.782
2.86621	0.832
2.90006	0.844
2.93392	0.847
2.96777	0.849
3.00163	0.85
3.03548	0.852
3.06933	0.852
3.10319	0.842
3.13704	0.842
3.1709	0.832
3.20475	0.805
3.23861	0.742
3.27246	0.681
3.30631	0.762
3.34017	0.522
3.37402	0.2
3.40788	0.155
3.44173	0.24
3.47559	0.351
3.50944	0.427
3.54329	0.726
3.57715	0.781
3.611	0.824
3.64486	0.834
3.67871	0.825
3.71256	0.82
3.74642	0.834
3.78027	0.844
3.81413	0.847
3.84798	0.852
3.88184	0.857
3.91569	0.859
3.94954	0.865
3.9834	0.862
4.01725	0.857
4.05111	0.852
4.08496	0.852
4.11882	0.852
4.15267	0.852
4.18652	0.857
4.22038	0.867
4.25423	0.882
4.28809	0.88
4.32194	0.877
4.35579	0.857
4.38965	0.854
4.4235	0.855
4.45736	0.862
4.49121	0.86
4.52507	0.86
4.55892	0.862
4.59277	0.864
4.62663	0.855
4.66048	0.847
4.69434	0.835
4.72819	0.839
4.76205	0.842
4.7959	0.849
4.82975	0.852
4.86361	0.852
4.89746	0.852
4.93132	0.852
4.96517	0.852
4.99902	0.852
5.03288	0.852
5.06673	0.852
5.10059	0.84
5.13444	0.82
5.1683	0.791
5.20215	0.791
5.236	0.802
5.26986	0.809
5.30371	0.791
5.33757	0.772
5.37142	0.761
5.40528	0.749
5.43913	0.706
5.47298	0.668
5.50684	0.611
5.54069	0.492
5.57455	0.245
5.6084	0.019
5.64225	0.013
5.67611	0.011
5.70996	0.013
5.74382	0.15
5.77767	0.311
5.81153	0.457
5.84538	0.592
5.87923	0.656
5.91309	0.678
5.94694	0.711
5.9808	0.698
6.01465	0.703
6.04851	0.718
6.08236	0.721
6.11621	0.693
6.15007	0.522
6.18392	0.454
6.21778	0.3
6.25163	0.575
6.28548	0.651
6.31934	0.66
6.35319	0.655
6.38705	0.744
6.4209	0.789
6.45476	0.786
6.48861	0.799
6.52246	0.786
6.55632	0.734
6.59017	0.681
6.62403	0.595
6.65788	0.527
6.69173	0.296
6.72559	0.043
6.75944	0.014
6.7933	0.107
6.82715	0.129
6.86101	0.19
6.89486	0.27
6.92871	0.341
6.96257	0.396
6.99642	0.55
7.03028	0.636
7.06413	0.648
7.09799	0.636
7.13184	0.593
7.16569	0.389
7.19955	0.155
7.2334	0.19
7.26726	0.225
7.30111	0.172
7.33496	0.038
7.36882	0.023
7.40267	0.036
7.43653	0.116
7.47038	0.228
7.50424	0.348
7.53809	0.399
7.57194	0.479
7.6058	0.507
7.63965	0.547
7.67351	0.603
7.70736	0.608
7.74122	0.638
7.77507	0.665
7.80892	0.701
7.84278	0.668
7.87663	0.524
7.91049	0.446
7.94434	0.237
7.97819	0.152
8.01205	0.169
8.0459	0.2
8.07976	0.149
8.11361	0.092
8.14747	0.18
8.18132	0.389
8.21517	0.563
8.24903	0.641
8.28288	0.673
8.31674	0.704
8.35059	0.737
8.38445	0.756
8.4183	0.757
8.45215	0.724
8.48601	0.645
8.51986	0.577
8.55372	0.562
8.58757	0.568
8.62142	0.59
8.65528	0.588
8.68913	0.563
8.72299	0.587
8.75684	0.668
8.7907	0.656
8.82455	0.519
8.8584	0.376
8.89226	0.346
8.92611	0.366
8.95997	0.56
8.99382	0.633
9.02768	0.671
9.06153	0.689
9.09538	0.668
9.12924	0.529
9.16309	0.386
9.19695	0.495
9.2308	0.606
9.26465	0.497
9.29851	0.318
9.33236	0.252
9.36622	0.248
9.40007	0.338
9.43393	0.466
9.46778	0.565
9.50163	0.625
9.53549	0.653
9.56934	0.678
9.6032	0.704
9.63705	0.711
9.67091	0.694
9.70476	0.648
9.73861	0.616
9.77247	0.605
9.80632	0.543
9.84018	0.412
9.87403	0.24
9.90788	0.144
9.94174	0.291
9.97559	0.479
10.0094	0.568
10.0433	0.538
10.0772	0.469
10.111	0.447
10.1449	0.55
10.1787	0.608
10.2126	0.638
10.2464	0.633
10.2803	0.62
10.3141	0.613
10.348	0.595
10.3818	0.545
10.4157	0.5
10.4496	0.527
10.4834	0.57
10.5173	0.6
10.5511	0.585
10.585	0.515
10.6188	0.449
10.6527	0.409
10.6865	0.485
10.7204	0.563
10.7542	0.575
10.7881	0.519
10.8219	0.456
10.8558	0.378
10.8897	0.393
10.9235	0.446
10.9574	0.533
10.9912	0.61
11.0251	0.661
11.0589	0.704
11.0928	0.713
11.1266	0.683
11.1605	0.62
11.1943	0.588
11.2282	0.621
11.2621	0.669
11.2959	0.684
11.3298	0.666
11.3636	0.633
11.3975	0.598
11.4313	0.567
11.4652	0.505
11.499	0.517
11.5329	0.648
11.5667	0.728
11.6006	0.762
11.6344	0.786
11.6683	0.794
11.7022	0.797
11.736	0.796
11.7699	0.794
11.8037	0.787
11.8376	0.781
11.8714	0.782
11.9053	0.787
11.9391	0.796
11.973	0.802
12.0068	0.809
12.0407	0.814
12.0746	0.815
12.1084	0.815
12.1423	0.819
12.1761	0.819
12.21	0.819
12.2438	0.82
12.2777	0.822
12.3115	0.82
12.3454	0.822
12.3792	0.82
12.4131	0.82
12.447	0.819
12.4808	0.814
12.5147	0.814
12.5485	0.814
12.5824	0.815
12.6162	0.807
12.6501	0.802
12.6839	0.797
12.7178	0.781
12.7516	0.767
12.7855	0.754
12.8193	0.724
12.8532	0.694
12.8871	0.666
12.9209	0.635
12.9548	0.6
12.9886	0.548
13.0225	0.479
13.0563	0.383
13.0902	0.265
13.124	0.164
13.1579	0.099
13.1917	0.028
13.2256	0.013
13.2595	0.011
13.2933	0.018
13.3272	0.059
13.361	0.126
13.3949	0.144
13.4287	0.139
13.4626	0.124
13.4964	0.112
13.5303	0.097
13.5641	0.091
13.598	0.096
13.6318	0.107
13.6657	0.15
13.6996	0.238
13.7334	0.353
13.7673	0.446
13.8011	0.527
13.835	0.568
13.8688	0.613
13.9027	0.656
13.9365	0.684
13.9704	0.701
14.0042	0.711
14.0381	0.721
14.072	0.724
14.1058	0.729
14.1397	0.729
14.1735	0.731
14.2074	0.728
14.2412	0.723
14.2751	0.714
14.3089	0.704
14.3428	0.691
14.3766	0.663
14.4105	0.621
14.4443	0.525
14.4782	0.366
14.5121	0.258
14.5459	0.175
14.5798	0.172
14.6136	0.273
14.6475	0.368
14.6813	0.429
14.7152	0.464
14.749	0.484
14.7829	0.489
14.8167	0.482
14.8506	0.472
14.8845	0.492
14.9183	0.53
14.9522	0.56
14.986	0.603
15.0199	0.626
15.0537	0.631
15.0876	0.635
15.1214	0.636
15.1553	0.636
15.1891	0.636
15.223	0.636
15.2568	0.635
15.2907	0.63
15.3246	0.623
15.3584	0.623
15.3923	0.618
15.4261	0.611
15.46	0.608
15.4938	0.6
