Infrared Spectrum: Triazolo [4,5-d]Pyrimidine, 3H-v-, 5,7-diamino-3-ethyl-
Formula: C6 H9 N7
CAS: 7256-20-4
State: SOLID (0.8 mg / 650 mg KBr DISC)
Class: COBLENTZ III
Instrument: PERKIN-ELMER 21 (GRATING)
Instrument parameters: FILTER CHANGE ABOUT 1090 CM^-^1
Sampling: TRANSMISSION
Resolution: 2
Origin: SOUTHERN RESEARCH INSTITUTE
1/CM	TRANSMITTANCE
602.68	0.4913
611.697	0.5066
620.713	0.4945
629.73	0.4626
638.747	0.4339
647.764	0.4376
656.78	0.4438
665.797	0.465
674.814	0.4665
683.831	0.5518
692.847	0.5733
701.864	0.5764
710.881	0.5625
719.898	0.4067
728.914	0.5576
737.931	0.6646
746.948	0.6547
755.965	0.6039
764.981	0.6021
773.998	0.6798
783.015	0.6862
792.032	0.6389
801.048	0.3826
810.065	0.6828
819.082	0.7074
828.098	0.7107
837.115	0.7094
846.132	0.7025
855.149	0.6884
864.165	0.6751
873.182	0.6546
882.199	0.6592
891.216	0.693
900.232	0.6883
909.249	0.6757
918.266	0.6636
927.283	0.6597
936.299	0.6461
945.316	0.6374
954.333	0.6032
963.35	0.4783
972.366	0.4859
981.383	0.4955
990.4	0.3792
999.417	0.5055
1008.43	0.5854
1017.45	0.5827
1026.47	0.5564
1035.48	0.4861
1044.5	0.471
1053.52	0.5103
1062.53	0.5476
1071.55	0.5151
1080.57	0.4732
1089.58	0.1833
1098.6	0.2851
1107.62	0.4223
1116.63	0.4713
1125.65	0.4429
1134.67	0.434
1143.68	0.4231
1152.7	0.3905
1161.72	0.3041
1170.73	0.2043
1179.75	0.2092
1188.77	0.2551
1197.78	0.3731
1206.8	0.4168
1215.82	0.393
1224.84	0.3651
1233.85	0.3412
1242.87	0.2355
1251.89	0.2583
1260.9	0.3731
1269.92	0.3696
1278.94	0.318
1287.95	0.224
1296.97	0.222
1305.99	0.2707
1315	0.2482
1324.02	0.1998
1333.04	0.2052
1342.05	0.2557
1351.07	0.2674
1360.09	0.2302
1369.1	0.1561
1378.12	0.1641
1387.14	0.2798
1396.15	0.2884
1405.17	0.2699
1414.19	0.1876
1423.2	0.0681
1432.22	0.0624
1441.24	0.1485
1450.25	0.24
1459.27	0.2611
1468.29	0.3905
1477.3	0.363
1486.32	0.2781
1495.34	0.1661
1504.35	0.0564
1513.37	0.1018
1522.39	0.1684
1531.4	0.3827
1540.42	0.4736
1549.44	0.4587
1558.45	0.4234
1567.47	0.245
1576.49	0.1317
1585.5	0.02
1594.52	0.0094
1603.54	0.0068
1612.55	0.0124
1621.57	0.0788
1630.59	0.1522
1639.61	0.0985
1648.62	0.028
1657.64	0.0655
1666.66	0.0776
1675.67	0.0664
1684.69	0.0714
1693.71	0.2079
1702.72	0.3153
1711.74	0.4601
1720.76	0.4932
1729.77	0.5473
1738.79	0.6269
1747.81	0.657
1756.82	0.6906
1765.84	0.7042
1774.86	0.7167
1783.87	0.7327
1792.89	0.7413
1801.91	0.7594
1810.92	0.7652
1819.94	0.7701
1828.96	0.7762
1837.97	0.7812
1846.99	0.7862
1856.01	0.7908
1865.02	0.7959
1874.04	0.799
1883.06	0.802
1892.07	0.7987
1901.09	0.7954
1910.11	0.7915
1919.12	0.7876
1928.14	0.785
1937.16	0.7831
1946.17	0.7835
1955.19	0.7841
1964.21	0.7844
1973.22	0.7835
1982.24	0.7814
1991.26	0.7796
2000.27	0.7792
2009.29	0.7796
2018.31	0.7753
2027.32	0.7708
2036.34	0.7679
2045.36	0.769
2054.38	0.7697
2063.39	0.7693
2072.41	0.7668
2081.43	0.7622
2090.44	0.7608
2099.46	0.7606
2108.48	0.7605
2117.49	0.758
2126.51	0.7527
2135.53	0.7455
2144.54	0.7373
2153.56	0.7305
2162.58	0.7309
2171.59	0.7358
2180.61	0.7405
2189.63	0.7405
2198.64	0.7381
2207.66	0.7355
2216.68	0.7327
2225.69	0.7289
2234.71	0.725
2243.73	0.7213
2252.74	0.7175
2261.76	0.7139
2270.78	0.7103
2279.79	0.708
2288.81	0.7073
2297.83	0.7087
2306.84	0.7112
2315.86	0.7185
2324.88	0.7266
2333.89	0.7297
2342.91	0.7291
2351.93	0.7269
2360.94	0.7239
2369.96	0.7209
2378.98	0.7177
2387.99	0.7141
2397.01	0.7096
2406.03	0.7047
2415.04	0.7002
2424.06	0.696
2433.08	0.6927
2442.09	0.6894
2451.11	0.6863
2460.13	0.6835
2469.15	0.6807
2478.16	0.6793
2487.18	0.6785
2496.2	0.6779
2505.21	0.6739
2514.23	0.6698
2523.25	0.6664
2532.26	0.6636
2541.28	0.6582
2550.3	0.6509
2559.31	0.6442
2568.33	0.6378
2577.35	0.6313
2586.36	0.6244
2595.38	0.6176
2604.4	0.6106
2613.41	0.6062
2622.43	0.6047
2631.45	0.606
2640.46	0.6068
2649.48	0.6072
2658.5	0.6073
2667.51	0.6073
2676.53	0.6058
2685.55	0.5965
2694.56	0.5872
2703.58	0.5754
2712.6	0.5642
2721.61	0.55
2730.63	0.5383
2739.65	0.5171
2748.66	0.5175
2757.68	0.5189
2766.7	0.5215
2775.71	0.518
2784.73	0.5044
2793.75	0.4913
2802.76	0.4879
2811.78	0.4876
2820.8	0.4908
2829.81	0.4955
2838.83	0.4938
2847.85	0.4858
2856.86	0.4781
2865.88	0.4709
2874.9	0.4687
2883.92	0.4685
2892.93	0.451
2901.95	0.4317
2910.97	0.4131
2919.98	0.3917
2929	0.3796
2938.02	0.362
2947.03	0.3449
2956.05	0.3328
2965.07	0.3224
2974.08	0.3153
2983.1	0.3113
2992.12	0.3073
3001.13	0.2976
3010.15	0.2823
3019.17	0.2631
3028.18	0.229
3037.2	0.2104
3046.22	0.1908
3055.23	0.171
3064.25	0.1512
3073.27	0.1318
3082.28	0.1133
3091.3	0.0958
3100.32	0.079
3109.33	0.0591
3118.35	0.049
3127.37	0.0425
3136.38	0.0405
3145.4	0.0399
3154.42	0.0419
3163.43	0.0472
3172.45	0.0557
3181.47	0.0718
3190.48	0.0932
3199.5	0.1105
3208.52	0.1226
3217.53	0.1287
3226.55	0.1364
3235.57	0.1365
3244.58	0.1356
3253.6	0.119
3262.62	0.1078
3271.63	0.0878
3280.65	0.0746
3289.67	0.0703
3298.69	0.0711
3307.7	0.0691
3316.72	0.0639
3325.74	0.0624
3334.75	0.0643
3343.77	0.0684
3352.79	0.0784
3361.8	0.0987
3370.82	0.1216
3379.84	0.1508
3388.85	0.1783
3397.87	0.1783
3406.89	0.1747
3415.9	0.1764
3424.92	0.2281
3433.94	0.2888
3442.95	0.3907
3451.97	0.4236
3460.99	0.4719
3470	0.5018
3479.02	0.5201
3488.04	0.5324
3497.05	0.5452
3506.07	0.5724
3515.09	0.5915
3524.1	0.6031
3533.12	0.6091
3542.14	0.6177
3551.15	0.6285
3560.17	0.6399
3569.19	0.6499
3578.2	0.6603
3587.22	0.6707
3596.24	0.6815
3605.25	0.6884
3614.27	0.6923
3623.29	0.6959
3632.3	0.6975
3641.32	0.6985
3650.34	0.6946
3659.35	0.6925
3668.37	0.6961
3677.39	0.7011
3686.4	0.6955
3695.42	0.6895
3704.44	0.6888
3713.46	0.6908
3722.47	0.6936
3731.49	0.6914
3740.51	0.6837
3749.52	0.6833
3758.54	0.6848
3767.56	0.6866
3776.57	0.6855
3785.59	0.6756
3794.61	0.6703
3803.62	0.6676
3812.64	0.664
3821.66	0.6599
3830.67	0.6563
3839.69	0.6558
3848.71	0.6584
3857.72	0.6602
3866.74	0.659
3875.76	0.6547
3884.77	0.6498
3893.79	0.6456
3902.81	0.6476
3911.82	0.6489
3920.84	0.647
3929.86	0.6433
3938.87	0.6401
3947.89	0.6408
3956.91	0.6435
3965.92	0.6443
3974.94	0.641
3983.96	0.6471
3992.97	0.6379
4001.99	0.6332
