Infrared Spectrum: Tetramethyl bicyclo[2.2.2]-7-octene-2,3,5,6-tetracarboxylate
Formula: C 16 H 20 O 8
CAS: 72598-54-0
State: gas
Origin: EPA-IR VAPOR PHASE LIBRARY
1/CM	ABSORBANCE
549.8	0.0009296
559.445	0.0013618
569.09	0.0012937
578.734	0.0006921
588.379	0.0009619
598.024	0.0008024
607.669	0.0009867
617.313	0.0009946
626.958	0.001441
636.603	0.0013209
646.248	0.0013354
655.893	0.001561
665.537	0.001641
675.182	0.002211
684.827	0.002621
694.472	0.003221
704.116	0.004501
713.761	0.003861
723.406	0.003201
733.051	0.003281
742.695	0.003161
752.34	0.002431
761.985	0.002401
771.63	0.002101
781.275	0.001641
790.919	0.002691
800.564	0.002921
810.209	0.002291
819.854	0.002321
829.498	0.002731
839.143	0.002621
848.788	0.001831
858.433	0.001611
868.078	0.002321
877.722	0.003101
887.367	0.002841
897.012	0.002641
906.657	0.002341
916.301	0.003061
925.946	0.004101
935.591	0.002951
945.236	0.002101
954.88	0.001671
964.525	0.001581
974.17	0.001871
983.815	0.002001
993.46	0.002161
1003.1	0.003311
1012.75	0.005871
1022.39	0.010141
1032.04	0.017891
1041.68	0.024441
1051.33	0.017871
1060.97	0.010461
1070.62	0.007711
1080.26	0.009351
1089.91	0.008401
1099.55	0.005671
1109.2	0.006551
1118.84	0.007091
1128.49	0.011061
1138.13	0.017901
1147.78	0.028311
1157.42	0.047741
1167.07	0.071231
1176.71	0.077251
1186.36	0.061091
1196	0.053791
1205.64	0.038701
1215.29	0.030131
1224.93	0.029291
1234.58	0.030861
1244.22	0.029901
1253.87	0.030211
1263.51	0.032701
1273.16	0.030751
1282.8	0.020521
1292.45	0.012181
1302.09	0.010321
1311.74	0.012071
1321.38	0.013981
1331.03	0.011731
1340.67	0.010331
1350.32	0.011941
1359.96	0.013751
1369.61	0.012251
1379.25	0.007861
1388.9	0.004961
1398.54	0.003811
1408.18	0.003671
1417.83	0.003791
1427.47	0.006671
1437.12	0.021481
1446.76	0.008281
1456.41	0.005081
1466.05	0.004461
1475.7	0.003491
1485.34	0.002721
1494.99	0.002251
1504.63	0.001901
1514.28	0.001721
1523.92	0.001681
1533.57	0.001801
1543.21	0.001701
1552.86	0.001671
1562.5	0.001701
1572.15	0.001621
1581.79	0.001611
1591.44	0.001411
1601.08	0.001411
1610.73	0.001441
1620.37	0.001521
1630.01	0.001388
1639.66	0.0013459
1649.3	0.001501
1658.95	0.001691
1668.59	0.001961
1678.24	0.002171
1687.88	0.002491
1697.53	0.003041
1707.17	0.004401
1716.82	0.006371
1726.46	0.010351
1736.11	0.021141
1745.75	0.052511
1755.4	0.065991
1765.04	0.082261
1774.69	0.044961
1784.33	0.014451
1793.98	0.007131
1803.62	0.004071
1813.27	0.002711
1822.91	0.002211
1832.55	0.002021
1842.2	0.001811
1851.84	0.001731
1861.49	0.001411
1871.13	0.0013071
1880.78	0.0011859
1890.42	0.0010232
1900.07	0.0009663
1909.71	0.0009557
1919.36	0.000932
1929	0.0010029
1938.65	0.0009307
1948.29	0.00096
1957.94	0.0010253
1967.58	0.0010682
1977.23	0.001179
1986.87	0.0010468
1996.52	0.0011343
2006.16	0.0011631
2015.81	0.0010995
2025.45	0.0010941
2035.1	0.0010803
2044.74	0.0010815
2054.38	0.0011647
2064.03	0.0011732
2073.67	0.0010521
2083.32	0.0010912
2092.96	0.0009808
2102.61	0.0010446
2112.25	0.0009135
2121.9	0.0008482
2131.54	0.0007993
2141.19	0.0008172
2150.83	0.0007518
2160.48	0.0006846
2170.12	0.0006225
2179.77	0.0005857
2189.41	0.0006077
2199.06	0.00045987
2208.7	0.0005069
2218.35	0.0005196
2227.99	0.00047358
2237.64	0.00042268
2247.28	0.00038423
2256.92	0.0005544
2266.57	0.0005014
2276.21	0.0005811
2285.86	0.00040354
2295.5	0.00048652
2305.15	0.0005835
2314.79	0.00043254
2324.44	0.00047183
2334.08	0.0005011
2343.73	0.0006207
2353.37	0.0005556
2363.02	0.0005769
2372.66	0.0005803
2382.31	0.000559
2391.95	0.0005253
2401.6	0.00047153
2411.24	0.0004265
2420.89	0.0005023
2430.53	0.0005287
2440.18	0.0005287
2449.82	0.00047881
2459.47	0.00046888
2469.11	0.00043613
2478.75	0.0005344
2488.4	0.00044302
2498.04	0.0003708
2507.69	0.0002951
2517.33	0.00042993
2526.98	0.00047007
2536.62	0.00038451
2546.27	0.0004228
2555.91	0.0004077
2565.56	0.0003361
2575.2	0.00043287
2584.85	0.00048546
2594.49	0.0005451
2604.14	0.0005353
2613.78	0.0005521
2623.43	0.0005059
2633.07	0.0003162
2642.72	0.0004178
2652.36	0.0005104
2662.01	0.00044512
2671.65	0.000394925
2681.29	0.00042355
2690.94	0.00041741
2700.58	0.00042641
2710.23	0.0003782
2719.87	0.0003257
2729.52	0.00042776
2739.16	0.00044483
2748.81	0.0003311
2758.45	0.0003492
2768.1	0.0003664
2777.74	0.00049079
2787.39	0.0003618
2797.03	0.0004593
2806.68	0.0004954
2816.32	0.0006831
2825.97	0.0009561
2835.61	0.001781
2845.26	0.003981
2854.9	0.003171
2864.55	0.001691
2874.19	0.001721
2883.84	0.002221
2893.48	0.004291
2903.12	0.006461
2912.77	0.005651
2922.41	0.005191
2932.06	0.005521
2941.7	0.008301
2951.35	0.016561
2960.99	0.029131
2970.64	0.009521
2980.28	0.005841
2989.93	0.005931
2999.57	0.006461
3009.22	0.005491
3018.86	0.004641
3028.51	0.004481
3038.15	0.003221
3047.8	0.002161
3057.44	0.002001
3067.09	0.002341
3076.73	0.003121
3086.38	0.002321
3096.02	0.001561
3105.67	0.0012435
3115.31	0.0012526
3124.95	0.0008528
3134.6	0.0006309
3144.24	0.0006912
3153.89	0.0006428
3163.53	0.00042524
3173.18	0.00047887
3182.82	0.00029
3192.47	0.00047873
3202.11	0.00044074
3211.76	0.0003682
3221.4	0.0005206
3231.05	0.00047655
3240.69	0.00043674
3250.34	0.00019
3259.98	0.0003632
3269.63	0.000205
3279.27	0.000168
3288.92	0.000127
3298.56	0.00029
3308.21	0
3317.85	0.000171
3327.49	0.000192
3337.14	0.0003545
3346.78	0.000231
3356.43	0.00038522
3366.07	0.000400886
3375.72	0.00048967
3385.36	0.0003396
3395.01	0.0003
3404.65	0.000206
3414.3	0.000396688
3423.94	0.00043742
3433.59	0.00043219
3443.23	0.0003706
3452.88	0.0005614
3462.52	0.000391693
3472.17	0.0006325
3481.81	0.0007773
3491.46	0.0009419
3501.1	0.0008641
3510.75	0.0008722
3520.39	0.0008842
3530.04	0.0006237
3539.68	0.00047657
3549.32	0.000248
3558.97	0.00042034
3568.61	0.0003495
3578.26	0.000400671
3587.9	0.000178
3597.55	0.0004975
3607.19	0.000119
3616.84	0.000366
3626.48	0.00046491
3636.13	0.000243
3645.77	0.00042708
3655.42	0.00028
3665.06	0.0003345
3674.71	0.000335
3684.35	0.000253
3694	0.000148
3703.64	0.00024
3713.29	0.0002919
3722.93	0.000109
3732.58	0.0002932
3742.22	0.000227
3751.86	0.00048065
3761.51	0.0005455
3771.15	0.0003549
3780.8	0.0002984
3790.44	0.0003579
3800.09	0.00038886
3809.73	0.00038435
3819.38	0.000314
3829.02	0.000261
3838.67	0.000192
3848.31	0.00046319
3857.96	0.0005836
3867.6	0.000183
3877.25	0.000392003
3886.89	0.0003274
3896.54	0.00045051
3906.18	0.000244
3915.83	0.000542
3925.47	0.00048608
3935.12	0.000257
3944.76	0.00041479
3954.41	0.00047867
3964.05	0.00046434
3973.69	0.00038149
3983.34	0.0003614
3992.98	0.0003346
