Infrared Spectrum: UREA, 1-BENZYL-3-PHENYL-2-THIO-
Formula: C14 H14 N2 S
CAS: 726-25-0
State: SOLID (SPLIT MULL), FLUOROLUBE FOR 3800-1335 CM^-^1, NUJOL FOR 1335-400 CM^-^1
Melting point: 154 C
Class: COBLENTZ III
Instrument: DOW KBr FOREPRISM-GRATING
Instrument parameters: BLAZED AT 3.5, 12.0, 20.0 MICRON AND CHANGED AT 5.0, 7.5, 14.9 MICRON
Sampling: TRANSMISSION
Resolution: 2
Origin: DOW CHEMICAL COMPANY
1/CM	TRANSMITTANCE
386	0.7554
395	0.7628
404	0.7687
413	0.7746
422	0.781
431	0.7857
440	0.7867
449	0.7601
458	0.798
467	0.8092
476	0.8108
485	0.7978
494	0.5272
503	0.8112
512	0.8098
521	0.7925
530	0.7115
539	0.6138
548	0.7628
557	0.7319
566	0.7467
575	0.8257
584	0.8262
593	0.8071
602	0.7528
611	0.758
620	0.8263
629	0.8105
638	0.7037
647	0.8306
656	0.8178
665	0.7801
674	0.788
683	0.7974
692	0.547
701	0.6575
710	0.8178
719	0.7926
728	0.7691
737	0.5247
746	0.3359
755	0.8056
764	0.8345
773	0.8386
782	0.839
791	0.8223
800	0.8437
809	0.8068
818	0.8213
827	0.842
836	0.8351
845	0.7568
854	0.8407
863	0.8377
872	0.8315
881	0.8253
890	0.8175
899	0.7637
908	0.8194
917	0.7971
926	0.8133
935	0.8068
944	0.8004
953	0.7895
962	0.7267
971	0.3686
980	0.7268
989	0.7854
998	0.7712
1007	0.7908
1016	0.7801
1025	0.5873
1034	0.7765
1043	0.7637
1052	0.7401
1061	0.689
1070	0.5858
1079	0.7458
1088	0.7478
1097	0.7489
1106	0.7533
1115	0.7551
1124	0.7361
1133	0.75
1142	0.7355
1151	0.6784
1160	0.6302
1169	0.6078
1178	0.5136
1187	0.5859
1196	0.6715
1205	0.58
1214	0.6683
1223	0.6561
1232	0.5904
1241	0.2574
1250	0.3498
1259	0.5893
1268	0.6389
1277	0.611
1286	0.588
1295	0.437
1304	0.4296
1313	0.5767
1322	0.6594
1331	0.6528
1340	0.6065
1349	0.5271
1358	0.6674
1367	0.7618
1376	0.7321
1385	0.7685
1394	0.7657
1403	0.76
1412	0.7237
1421	0.7243
1430	0.7301
1439	0.7575
1448	0.6964
1457	0.7578
1466	0.7597
1475	0.7181
1484	0.6245
1493	0.4605
1502	0.4771
1511	0.3459
1520	0.5676
1529	0.4228
1538	0.0858
1547	0.1772
1556	0.5219
1565	0.6715
1574	0.7672
1583	0.729
1592	0.676
1601	0.7648
1610	0.8355
1619	0.8367
1628	0.8296
1637	0.8103
1646	0.8011
1655	0.8115
1664	0.8337
1673	0.8385
1682	0.8364
1691	0.8389
1700	0.8371
1709	0.8358
1718	0.8362
1727	0.8365
1736	0.8342
1745	0.8314
1754	0.8299
1763	0.8334
1772	0.8308
1781	0.8292
1790	0.8264
1799	0.8225
1808	0.8224
1817	0.8249
1826	0.8282
1835	0.8294
1844	0.8281
1853	0.8264
1862	0.8218
1871	0.8183
1880	0.8161
1889	0.8181
1898	0.822
1907	0.8233
1916	0.8246
1925	0.8251
1934	0.8255
1943	0.8202
1952	0.8178
1961	0.8154
1970	0.8042
1979	0.8078
1988	0.8044
1997	0.7974
2006	0.8286
2015	0.8449
2024	0.8434
2033	0.8412
2042	0.8378
2051	0.8332
2060	0.8302
2069	0.8288
2078	0.8282
2087	0.8262
2096	0.8228
2105	0.8196
2114	0.8167
2123	0.8138
2132	0.811
2141	0.8084
2150	0.806
2159	0.8035
2168	0.8011
2177	0.799
2186	0.7968
2195	0.7946
2204	0.7925
2213	0.7903
2222	0.7867
2231	0.7825
2240	0.7787
2249	0.7776
2258	0.7782
2267	0.7775
2276	0.7726
2285	0.7699
2294	0.7695
2303	0.7688
2312	0.7672
2321	0.7704
2330	0.7751
2339	0.7686
2348	0.7688
2357	0.7619
2366	0.7596
2375	0.7596
2384	0.7591
2393	0.7585
2402	0.7575
2411	0.7561
2420	0.7551
2429	0.7545
2438	0.7538
2447	0.7521
2456	0.7507
2465	0.7492
2474	0.7478
2483	0.7465
2492	0.7454
2501	0.7444
2510	0.7434
2519	0.7424
2528	0.7414
2537	0.7406
2546	0.7398
2555	0.739
2564	0.7382
2573	0.7371
2582	0.7361
2591	0.735
2600	0.7338
2609	0.7325
2618	0.7314
2627	0.73
2636	0.7275
2645	0.725
2654	0.7228
2663	0.7205
2672	0.7182
2681	0.7158
2690	0.7125
2699	0.7089
2708	0.7038
2717	0.6988
2726	0.6951
2735	0.6938
2744	0.6928
2753	0.6917
2762	0.6905
2771	0.6885
2780	0.6828
2789	0.6739
2798	0.6728
2807	0.6736
2816	0.6738
2825	0.6701
2834	0.663
2843	0.6557
2852	0.654
2861	0.6536
2870	0.6484
2879	0.6441
2888	0.6375
2897	0.6216
2906	0.596
2915	0.5682
2924	0.5384
2933	0.5744
2942	0.5797
2951	0.5664
2960	0.5359
2969	0.505
2978	0.4772
2987	0.5297
2996	0.5742
3005	0.5905
3014	0.5848
3023	0.5634
3032	0.5415
3041	0.5541
3050	0.555
3059	0.5428
3068	0.5409
3077	0.5365
3086	0.5312
3095	0.5238
3104	0.5071
3113	0.4656
3122	0.4117
3131	0.3578
3140	0.3038
3149	0.2915
3158	0.3407
3167	0.3912
3176	0.4419
3185	0.4907
3194	0.5499
3203	0.5834
3212	0.6068
3221	0.6238
3230	0.6312
3239	0.6344
3248	0.6364
3257	0.6403
3266	0.6462
3275	0.6583
3284	0.6648
3293	0.6661
3302	0.6675
3311	0.6661
3320	0.6608
3329	0.6515
3338	0.6364
3347	0.6135
3356	0.4218
3365	0.1704
3374	0.7012
3383	0.7022
3392	0.7015
3401	0.6971
3410	0.6918
3419	0.6875
3428	0.6869
3437	0.6844
3446	0.6828
3455	0.6765
3464	0.6721
3473	0.6715
3482	0.6714
3491	0.6712
3500	0.6686
3509	0.6653
3518	0.6599
3527	0.6591
3536	0.6587
3545	0.6582
3554	0.6581
3563	0.6578
3572	0.6514
3581	0.6521
3590	0.6568
3599	0.656
3608	0.6536
3617	0.6511
3626	0.6488
3635	0.6474
3644	0.6462
3653	0.6449
3662	0.6435
3671	0.6422
3680	0.6431
3689	0.6438
3698	0.6445
3707	0.6438
3716	0.643
3725	0.6411
3734	0.6393
3743	0.6373
3752	0.6351
3761	0.6328
3770	0.6317
3779	0.6306
