Infrared Spectrum: 1,3-DIPHENOXYPROPANE
Formula: C15 H16 O2
CAS: 726-44-3
State: SOLID (MINERAL OIL MULL)
Melting point: 60-62 C
Class: COBLENTZ
Instrument: Not specified, most likely a prism, grating, or hybrid spectrometer.
Sampling: TRANSMISSION
Resolution: 4
Origin: WYANDOTTE CHEMICALS CORP., WYANDOTTE, MICHIGAN, USA
MICROMETERS	TRANSMITTANCE
2.033	0.347
2.07281	0.348
2.11262	0.35
2.15243	0.36
2.19225	0.362
2.23206	0.347
2.27187	0.348
2.31168	0.362
2.35149	0.368
2.3913	0.365
2.43111	0.372
2.47093	0.395
2.51074	0.4
2.55055	0.403
2.59036	0.42
2.63017	0.421
2.66998	0.435
2.7098	0.443
2.74961	0.446
2.78942	0.456
2.82923	0.458
2.86904	0.46
2.90885	0.46
2.94866	0.46
2.98848	0.46
3.02829	0.461
3.0681	0.465
3.10791	0.465
3.14772	0.453
3.18753	0.441
3.22734	0.408
3.26716	0.294
3.30697	0.229
3.34678	0.166
3.38659	0.033
3.4264	0.036
3.46621	0.039
3.50603	0.044
3.54584	0.169
3.58565	0.571
3.62546	0.657
3.66527	0.622
3.70508	0.629
3.74489	0.662
3.78471	0.669
3.82452	0.672
3.86433	0.676
3.90414	0.682
3.94395	0.696
3.98376	0.659
4.02357	0.705
4.06339	0.712
4.1032	0.659
4.14301	0.704
4.18282	0.727
4.22263	0.73
4.26244	0.747
4.30226	0.75
4.34207	0.752
4.38188	0.765
4.42169	0.795
4.4615	0.815
4.50131	0.825
4.54112	0.83
4.58094	0.843
4.62075	0.847
4.66056	0.855
4.70037	0.862
4.74018	0.868
4.77999	0.872
4.8198	0.872
4.85962	0.85
4.89943	0.817
4.93924	0.797
4.97905	0.847
5.01886	0.888
5.05867	0.87
5.09849	0.837
5.1383	0.882
5.17811	0.818
5.21792	0.749
5.25773	0.808
5.29754	0.91
5.33735	0.951
5.37717	0.95
5.41698	0.92
5.45679	0.888
5.4966	0.797
5.53641	0.95
5.57622	0.951
5.61603	0.943
5.65585	0.875
5.69566	0.91
5.73547	0.958
5.77528	0.94
5.81509	0.966
5.8549	0.908
5.89472	0.823
5.93453	0.88
5.97434	0.918
6.01415	0.936
6.05396	0.908
6.09377	0.921
6.13358	0.916
6.1734	0.734
6.21321	0.034
6.25302	0.049
6.29283	0.056
6.33264	0.259
6.37245	0.581
6.41226	0.764
6.45208	0.833
6.49189	0.815
6.5317	0.845
6.57151	0.71
6.61132	0.413
6.65113	0.041
6.69095	0.046
6.73076	0.073
6.77057	0.132
6.81038	0.033
6.85019	0.048
6.89	0.132
6.92981	0.337
6.96963	0.529
7.00944	0.641
7.04925	0.473
7.08906	0.727
7.12887	0.604
7.16868	0.401
7.20849	0.289
7.24831	0.151
7.28812	0.255
7.32793	0.5
7.36774	0.604
7.40755	0.712
7.44736	0.576
7.48718	0.483
7.52699	0.619
7.5668	0.495
7.60661	0.649
7.64642	0.501
7.68623	0.086
7.72604	0.152
7.76586	0.093
7.80567	0.335
7.84548	0.541
7.88529	0.436
7.9251	0.277
7.96491	0.089
8.00472	0.041
8.04454	0.038
8.08435	0.039
8.12416	0.041
8.16397	0.048
8.20378	0.071
8.24359	0.205
8.2834	0.26
8.32322	0.352
8.36303	0.509
8.40284	0.569
8.44265	0.24
8.48246	0.126
8.52227	0.34
8.56209	0.313
8.6019	0.174
8.64171	0.162
8.68152	0.576
8.72133	0.679
8.76114	0.785
8.80095	0.823
8.84077	0.843
8.88058	0.862
8.92039	0.84
8.9602	0.47
9.00001	0.232
9.03982	0.39
9.07963	0.184
9.11945	0.154
9.15926	0.204
9.19907	0.063
9.23888	0.099
9.27869	0.285
9.3185	0.36
9.35832	0.245
9.39813	0.151
9.43794	0.323
9.47775	0.488
9.51756	0.602
9.55737	0.657
9.59718	0.669
9.637	0.684
9.67681	0.574
9.71662	0.224
9.75643	0.141
9.79624	0.318
9.83605	0.588
9.87586	0.652
9.91568	0.606
9.95549	0.421
9.9953	0.159
10.0351	0.086
10.0749	0.313
10.1147	0.252
10.1545	0.101
10.1944	0.132
10.2342	0.2
10.274	0.212
10.3138	0.187
10.3536	0.358
10.3934	0.504
10.4332	0.586
10.473	0.676
10.5128	0.737
10.5527	0.794
10.5925	0.832
10.6323	0.853
10.6721	0.858
10.7119	0.882
10.7517	0.903
10.7915	0.925
10.8313	0.938
10.8712	0.96
10.911	0.978
10.9508	0.986
10.9906	0.998
11.0304	1.003
11.0702	0.97
11.11	0.822
11.1498	0.799
11.1896	0.938
11.2295	0.97
11.2693	0.747
11.3091	0.446
11.3489	0.34
11.3887	0.33
11.4285	0.561
11.4683	0.779
11.5081	0.897
11.5479	0.968
11.5878	1.006
11.6276	1.014
11.6674	1.009
11.7072	1
11.747	0.958
11.7868	0.789
11.8266	0.435
11.8664	0.307
11.9063	0.461
11.9461	0.659
11.9859	0.717
12.0257	0.686
12.0655	0.712
12.1053	0.779
12.1451	0.762
12.1849	0.704
12.2247	0.689
12.2646	0.569
12.3044	0.307
12.3442	0.267
12.384	0.556
12.4238	0.822
12.4636	0.931
12.5034	0.995
12.5432	1.018
12.583	1.019
12.6229	1.019
12.6627	1.018
12.7025	1.016
12.7423	1.016
12.7821	1.009
12.8219	1.001
12.8617	0.976
12.9015	0.926
12.9414	0.878
12.9812	0.799
13.021	0.651
13.0608	0.445
13.1006	0.227
13.1404	0.104
13.1802	0.058
13.22	0.053
13.2598	0.051
13.2997	0.046
13.3395	0.043
13.3793	0.051
13.4191	0.079
13.4589	0.184
13.4987	0.312
13.5385	0.445
13.5783	0.541
13.6181	0.611
13.658	0.662
13.6978	0.705
13.7376	0.747
13.7774	0.78
13.8172	0.81
13.857	0.83
13.8968	0.85
13.9366	0.862
13.9764	0.9
14.0163	0.936
14.0561	0.966
14.0959	0.978
14.1357	0.986
14.1755	0.988
14.2153	0.976
14.2551	0.943
14.2949	0.893
14.3348	0.817
14.3746	0.694
14.4144	0.518
14.4542	0.338
14.494	0.194
14.5338	0.129
14.5736	0.111
14.6134	0.151
14.6532	0.252
14.6931	0.395
14.7329	0.543
14.7727	0.631
14.8125	0.7
14.8523	0.744
14.8921	0.77
14.9319	0.792
14.9717	0.795
15.0115	0.789
15.0514	0.74
15.0912	0.71
15.131	0.732
15.1708	0.772
15.2106	0.792
15.2504	0.794
15.2902	0.785
15.33	0.769
15.3699	0.765
15.4097	0.755
15.4495	0.749
15.4893	0.734
15.5291	0.729
15.5689	0.724
15.6087	0.717
15.6485	0.707
15.6883	0.694
15.7282	0.684
15.768	0.666
15.8078	0.651
15.8476	0.637
15.8874	0.627
15.9272	0.609
15.967	0.593
