Infrared Spectrum: 4-Amino-3,5-dibromobenzotrifluoride
Formula: C 7 H 4 Br 2 F 3 N
CAS: 72678-19-4
State: gas
Origin: EPA-IR VAPOR PHASE LIBRARY
1/CM	ABSORBANCE
549.8	0.006027
559.445	0.006477
569.09	0.005137
578.734	0.005517
588.379	0.005817
598.024	0.006437
607.669	0.005177
617.313	0.007407
626.958	0.010887
636.603	0.020807
646.248	0.066337
655.893	0.074497
665.537	0.018267
675.182	0.006607
684.827	0.008127
694.472	0.011607
704.116	0.017507
713.761	0.026367
723.406	0.042017
733.051	0.073827
742.695	0.058737
752.34	0.032907
761.985	0.021917
771.63	0.013377
781.275	0.011167
790.919	0.009877
800.564	0.009867
810.209	0.009847
819.854	0.010247
829.498	0.010057
839.143	0.006987
848.788	0.005517
858.433	0.008167
868.078	0.020907
877.722	0.031837
887.367	0.062287
897.012	0.019397
906.657	0.008647
916.301	0.006627
925.946	0.006337
935.591	0.005847
945.236	0.005847
954.88	0.005567
964.525	0.005047
974.17	0.005627
983.815	0.005187
993.46	0.005717
1003.1	0.005817
1012.75	0.005507
1022.39	0.005817
1032.04	0.006387
1041.68	0.008657
1051.33	0.013497
1060.97	0.019077
1070.62	0.023077
1080.26	0.020707
1089.91	0.044587
1099.55	0.090647
1109.2	0.034907
1118.84	0.031467
1128.49	0.075897
1138.13	0.257267
1147.78	0.307517
1157.42	0.078617
1167.07	0.158267
1176.71	0.262407
1186.36	0.063887
1196	0.022217
1205.64	0.020607
1215.29	0.018767
1224.93	0.012437
1234.58	0.022997
1244.22	0.023947
1253.87	0.015907
1263.51	0.030927
1273.16	0.134997
1282.8	0.230127
1292.45	0.107607
1302.09	0.110707
1311.74	0.201757
1321.38	0.546117
1331.03	0.303637
1340.67	0.073667
1350.32	0.031097
1359.96	0.017267
1369.61	0.012707
1379.25	0.010777
1388.9	0.012337
1398.54	0.032647
1408.18	0.065887
1417.83	0.020597
1427.47	0.009867
1437.12	0.005467
1446.76	0.005167
1456.41	0.006077
1466.05	0.006637
1475.7	0.014977
1485.34	0.025367
1494.99	0.009697
1504.63	0.003737
1514.28	0.004087
1523.92	0.005757
1533.57	0.008907
1543.21	0.009867
1552.86	0.015817
1562.5	0.014817
1572.15	0.013307
1581.79	0.017027
1591.44	0.021637
1601.08	0.032607
1610.73	0.070457
1620.37	0.151337
1630.01	0.091577
1639.66	0.027577
1649.3	0.013777
1658.95	0.007747
1668.59	0.005257
1678.24	0.003417
1687.88	0.002847
1697.53	0.002887
1707.17	0.003367
1716.82	0.002547
1726.46	0.002017
1736.11	0.001967
1745.75	0.002327
1755.4	0.003487
1765.04	0.007597
1774.69	0.010667
1784.33	0.005317
1793.98	0.002987
1803.62	0.002167
1813.27	0.001727
1822.91	0.0015531
1832.55	0.0016417
1842.2	0.0012122
1851.84	0.0014221
1861.49	0.0014825
1871.13	0.0014305
1880.78	0.0011641
1890.42	0.001022
1900.07	0.0012478
1909.71	0.0013893
1919.36	0.0014599
1929	0.0013152
1938.65	0.0014086
1948.29	0.0013536
1957.94	0.0012438
1967.58	0.0009429
1977.23	0.0010586
1986.87	0.0010098
1996.52	0.0010795
2006.16	0.0011215
2015.81	0.001275
2025.45	0.0013236
2035.1	0.0015587
2044.74	0.0015304
2054.38	0.0013964
2064.03	0.0010357
2073.67	0.0010447
2083.32	0.0010946
2092.96	0.0010915
2102.61	0.0012694
2112.25	0.0014512
2121.9	0.001807
2131.54	0.0016927
2141.19	0.001707
2150.83	0.0013055
2160.48	0.00145
2170.12	0.0012808
2179.77	0.001827
2189.41	0.001907
2199.06	0.0016499
2208.7	0.0015918
2218.35	0.0014664
2227.99	0.0016698
2237.64	0.002077
2247.28	0.001877
2256.92	0.001767
2266.57	0.001997
2276.21	0.002137
2285.86	0.0016835
2295.5	0.0016804
2305.15	0.0016321
2314.79	0.0016865
2324.44	0.001767
2334.08	0.001747
2343.73	0.001797
2353.37	0.001837
2363.02	0.0014287
2372.66	0.0014691
2382.31	0.0010129
2391.95	0.0011107
2401.6	0.00078307
2411.24	0.0012438
2420.89	0.0011345
2430.53	0.0010115
2440.18	0.0010713
2449.82	0.0010056
2459.47	0.0009841
2469.11	0.0010446
2478.75	0.0012171
2488.4	0.0013894
2498.04	0.0013757
2507.69	0.0010611
2517.33	0.0013019
2526.98	0.0014367
2536.62	0.0016426
2546.27	0.002047
2555.91	0.001947
2565.56	0.0015139
2575.2	0.0011701
2584.85	0.001293
2594.49	0.0016368
2604.14	0.002327
2613.78	0.002587
2623.43	0.002257
2633.07	0.001817
2642.72	0.002207
2652.36	0.001707
2662.01	0.0013473
2671.65	0.00076902
2681.29	0.000458
2690.94	0.0006387
2700.58	0.000455
2710.23	0.000525
2719.87	0.00074909
2729.52	0.000587
2739.16	0.000469
2748.81	0.0009125
2758.45	0.001216
2768.1	0.0009071
2777.74	0.0009228
2787.39	0.0012246
2797.03	0.00077226
2806.68	0.00072361
2816.32	0.000477
2825.97	0.0006098
2835.61	0.0010377
2845.26	0.0006502
2854.9	0.0009466
2864.55	0.001444
2874.19	0.0008949
2883.84	0.0008887
2893.48	0.0008012
2903.12	0.001162
2912.77	0.0015043
2922.41	0.0015438
2932.06	0.001757
2941.7	0.001767
2951.35	0.0015381
2960.99	0.0013425
2970.64	0.0006183
2980.28	0.0012396
2989.93	0.000432
2999.57	0.000343
3009.22	0.000563
3018.86	0.000451
3028.51	0.00076899
3038.15	0.00075783
3047.8	0.0011499
3057.44	0.00076422
3067.09	0.001087
3076.73	0.0012697
3086.38	0.0014389
3096.02	0.0016041
3105.67	0.002067
3115.31	0.002107
3124.95	0.0016952
3134.6	0.0010029
3144.24	0.0012634
3153.89	0.000967
3163.53	0.0008358
3173.18	0.0009983
3182.82	0.0014581
3192.47	0.001857
3202.11	0.001707
3211.76	0.0009888
3221.4	0.0008414
3231.05	0.0008109
3240.69	0.0010098
3250.34	0.00078907
3259.98	0.0006212
3269.63	0.0008177
3279.27	0.000638
3288.92	0.000473
3298.56	0.000329
3308.21	0.0009955
3317.85	0.0010594
3327.49	0.0007309
3337.14	0.0006612
3346.78	0.0011355
3356.43	0.0012654
3366.07	0.002077
3375.72	0.003617
3385.36	0.008357
3395.01	0.017157
3404.65	0.023147
3414.3	0.023077
3423.94	0.025607
3433.59	0.009237
3443.23	0.003297
3452.88	0.002987
3462.52	0.004237
3472.17	0.007317
3481.81	0.012997
3491.46	0.019297
3501.1	0.026307
3510.75	0.021497
3520.39	0.024117
3530.04	0.028027
3539.68	0.009417
3549.32	0.002707
3558.97	0.001727
3568.61	0.001547
3578.26	0.00079569
3587.9	0.0014701
3597.55	0.001747
3607.19	0.0008857
3616.84	0.0011648
3626.48	0.000517
3636.13	0.0009534
3645.77	0.0006322
3655.42	0.0008857
3665.06	0.000501
3674.71	0.0011052
3684.35	0.00073659
3694	0.00076008
3703.64	0.000696686
3713.29	0.000595
3722.93	0.00078091
3732.58	0.0006481
3742.22	0.00122
3751.86	0.000552
3761.51	0.00073518
3771.15	0.00032
3780.8	0.0008301
3790.44	0.000547
3800.09	0.000556
3809.73	0.00075882
3819.38	0.0006748
3829.02	0.00074626
3838.67	0.0008416
3848.31	0.0006256
3857.96	0.0011562
3867.6	0.0014141
3877.25	0.0016927
3886.89	0.0015036
3896.54	0.0015106
3906.18	0.001817
3915.83	0.00141
3925.47	0.0012925
3935.12	0.001827
3944.76	0.0011525
3954.41	0.0012687
3964.05	0.0011325
3973.69	0.0007588
3983.34	0.001153
3992.98	0.0014656
