Infrared Spectrum: 2-Trifluoromethylbenzophenone
Formula: C 14 H 9 F 3 O
CAS: 727-99-1
State: gas
Origin: EPA-IR VAPOR PHASE LIBRARY
1/CM	ABSORBANCE
549.8	0.002511
559.445	0.004351
569.09	0.007711
578.734	0.010301
588.379	0.012701
598.024	0.021031
607.669	0.017751
617.313	0.012851
626.958	0.026781
636.603	0.173151
646.248	0.077151
655.893	0.154101
665.537	0.079601
675.182	0.042601
684.827	0.083881
694.472	0.136941
704.116	0.240501
713.761	0.185691
723.406	0.103961
733.051	0.054251
742.695	0.048651
752.34	0.110161
761.985	0.280191
771.63	0.161311
781.275	0.045621
790.919	0.024071
800.564	0.024691
810.209	0.013131
819.854	0.011281
829.498	0.011901
839.143	0.011201
848.788	0.011051
858.433	0.012801
868.078	0.023761
877.722	0.025531
887.367	0.015111
897.012	0.017721
906.657	0.028551
916.301	0.071691
925.946	0.323731
935.591	0.260381
945.236	0.048821
954.88	0.033531
964.525	0.017721
974.17	0.012191
983.815	0.010451
993.46	0.014351
1003.1	0.023271
1012.75	0.018211
1022.39	0.060931
1032.04	0.177781
1041.68	0.143411
1051.33	0.150171
1060.97	0.243041
1070.62	0.108811
1080.26	0.046481
1089.91	0.042651
1099.55	0.071141
1109.2	0.154011
1118.84	0.246631
1128.49	0.245081
1138.13	0.498591
1147.78	0.798111
1157.42	0.688841
1167.07	0.653401
1176.71	0.970041
1186.36	0.613361
1196	0.245261
1205.64	0.111451
1215.29	0.083561
1224.93	0.092341
1234.58	0.158801
1244.22	0.239541
1253.87	0.480491
1263.51	0.735021
1273.16	0.473231
1282.8	0.281471
1292.45	0.264041
1302.09	0.394591
1311.74	0.983831
1321.38	0.890631
1331.03	0.209521
1340.67	0.079511
1350.32	0.048561
1359.96	0.037841
1369.61	0.030921
1379.25	0.026621
1388.9	0.020251
1398.54	0.015761
1408.18	0.015491
1417.83	0.015331
1427.47	0.017491
1437.12	0.040391
1446.76	0.114731
1456.41	0.057321
1466.05	0.016031
1475.7	0.014831
1485.34	0.018091
1494.99	0.019631
1504.63	0.016661
1514.28	0.017681
1523.92	0.018291
1533.57	0.016131
1543.21	0.016641
1552.86	0.017461
1562.5	0.024571
1572.15	0.049471
1581.79	0.082051
1591.44	0.074411
1601.08	0.074661
1610.73	0.036681
1620.37	0.024611
1630.01	0.026211
1639.66	0.029531
1649.3	0.029691
1658.95	0.039351
1668.59	0.066161
1678.24	0.162581
1687.88	0.398441
1697.53	0.511331
1707.17	0.253581
1716.82	0.091321
1726.46	0.045541
1736.11	0.027091
1745.75	0.021081
1755.4	0.020211
1765.04	0.018091
1774.69	0.013401
1784.33	0.008901
1793.98	0.009821
1803.62	0.015501
1813.27	0.017621
1822.91	0.016671
1832.55	0.011831
1842.2	0.007301
1851.84	0.009181
1861.49	0.009111
1871.13	0.006351
1880.78	0.007131
1890.42	0.009781
1900.07	0.013721
1909.71	0.014481
1919.36	0.012101
1929	0.013011
1938.65	0.014221
1948.29	0.012211
1957.94	0.017761
1967.58	0.017521
1977.23	0.009531
1986.87	0.004731
1996.52	0.003391
2006.16	0.002971
2015.81	0.002821
2025.45	0.002951
2035.1	0.002771
2044.74	0.002521
2054.38	0.002411
2064.03	0.002581
2073.67	0.003051
2083.32	0.003501
2092.96	0.003801
2102.61	0.003061
2112.25	0.002321
2121.9	0.002181
2131.54	0.001881
2141.19	0.001711
2150.83	0.001531
2160.48	0.001771
2170.12	0.002431
2179.77	0.003041
2189.41	0.003371
2199.06	0.003761
2208.7	0.004171
2218.35	0.004201
2227.99	0.004311
2237.64	0.004501
2247.28	0.004081
2256.92	0.004231
2266.57	0.004331
2276.21	0.005131
2285.86	0.005481
2295.5	0.005101
2305.15	0.005021
2314.79	0.006481
2324.44	0.007311
2334.08	0.007291
2343.73	0.006391
2353.37	0.004521
2363.02	0.004071
2372.66	0.004081
2382.31	0.003701
2391.95	0.003341
2401.6	0.003611
2411.24	0.003831
2420.89	0.003441
2430.53	0.002511
2440.18	0.002231
2449.82	0.002611
2459.47	0.002711
2469.11	0.002781
2478.75	0.002721
2488.4	0.002561
2498.04	0.002631
2507.69	0.002431
2517.33	0.002421
2526.98	0.002181
2536.62	0.001991
2546.27	0.002041
2555.91	0.002081
2565.56	0.002511
2575.2	0.002701
2584.85	0.002931
2594.49	0.003161
2604.14	0.003091
2613.78	0.003371
2623.43	0.003821
2633.07	0.003931
2642.72	0.002931
2652.36	0.002431
2662.01	0.001891
2671.65	0.0014193
2681.29	0.0013316
2690.94	0.0010609
2700.58	0.0013586
2710.23	0.001561
2719.87	0.001691
2729.52	0.002011
2739.16	0.003021
2748.81	0.003691
2758.45	0.003421
2768.1	0.002511
2777.74	0.001891
2787.39	0.001631
2797.03	0.001971
2806.68	0.001781
2816.32	0.001711
2825.97	0.001961
2835.61	0.002921
2845.26	0.003641
2854.9	0.004451
2864.55	0.004481
2874.19	0.004491
2883.84	0.004911
2893.48	0.004871
2903.12	0.003901
2912.77	0.003471
2922.41	0.003211
2932.06	0.002971
2941.7	0.002411
2951.35	0.002181
2960.99	0.002641
2970.64	0.003151
2980.28	0.003691
2989.93	0.004211
2999.57	0.006531
3009.22	0.009761
3018.86	0.015591
3028.51	0.033371
3038.15	0.048791
3047.8	0.040941
3057.44	0.053471
3067.09	0.113241
3076.73	0.145021
3086.38	0.104511
3096.02	0.056421
3105.67	0.028771
3115.31	0.014411
3124.95	0.008141
3134.6	0.005961
3144.24	0.005681
3153.89	0.006371
3163.53	0.006341
3173.18	0.004401
3182.82	0.002731
3192.47	0.002051
3202.11	0.0014061
3211.76	0.0015158
3221.4	0.0010488
3231.05	0.0009641
3240.69	0.0010171
3250.34	0.0008497
3259.98	0.0009686
3269.63	0.001153
3279.27	0.0011677
3288.92	0.0012513
3298.56	0.0013217
3308.21	0.0009399
3317.85	0.001316
3327.49	0.001631
3337.14	0.002061
3346.78	0.003561
3356.43	0.006471
3366.07	0.009601
3375.72	0.007741
3385.36	0.004601
3395.01	0.003041
3404.65	0.001961
3414.3	0.001611
3423.94	0.0013208
3433.59	0.0011591
3443.23	0.0010807
3452.88	0.0010595
3462.52	0.0009575
3472.17	0.0004456
3481.81	0.00059023
3491.46	0.0007065
3501.1	0.0006709
3510.75	0.0008438
3520.39	0.0004956
3530.04	0.0007384
3539.68	0.0004722
3549.32	0.00056407
3558.97	0.000372
3568.61	0.0004426
3578.26	0.000214
3587.9	0.00060309
3597.55	0.000378
3607.19	0.000412
3616.84	0.0007247
3626.48	0.0004611
3636.13	0.0008896
3645.77	0.001458
3655.42	0.0014471
3665.06	0.0013683
3674.71	0.001561
3684.35	0.0012398
3694	0.0013563
3703.64	0.001931
3713.29	0.001971
3722.93	0.001871
3732.58	0.001831
3742.22	0.001531
3751.86	0.0009609
3761.51	0.0010313
3771.15	0.0012382
3780.8	0.001531
3790.44	0.0014017
3800.09	0.0010339
3809.73	0.0009142
3819.38	0.0006507
3829.02	0.0006313
3838.67	0.0005835
3848.31	0.0014577
3857.96	0.0009034
3867.6	0.0011293
3877.25	0.0010743
3886.89	0.0007067
3896.54	0.0008123
3906.18	0.0007245
3915.83	0.0007394
3925.47	0.0004607
3935.12	0.0010943
3944.76	0.0006163
3954.41	0.0008474
3964.05	0.00055341
3973.69	0.0007024
3983.34	0.001611
3992.98	0.002091
