Infrared Spectrum: 6-Methyl-1,5-heptadiene
Formula: C 8 H 14
CAS: 7270-50-0
State: gas
Instrument: HP-GC/MS/IRD
Origin: NIST Mass Spectrometry Data Center
1/CM	ABSORBANCE
550	0.0007125
562	0.000288
574	0.0002685
586	0.000156
598	0.0002325
610	0.000333
622	0.000582
634	0.0008685
646	0.000633
658	0.000483
670	0.00015
682	0.000117
694	0.00018
706	0.0001155
718	7.5e-05
730	0.0001065
742	0.0002625
754	0.0003945
766	0.0003585
778	0.0002745
790	0.0004755
802	0.0007005
814	0.001224
826	0.0015375
838	0.001215
850	0.001017
862	0.000918
874	0.0010065
886	0.0014685
898	0.0026385
910	0.004605
922	0.004056
934	0.00213
946	0.001461
958	0.0013485
970	0.0016245
982	0.0022245
994	0.002391
1006	0.001806
1018	0.0011985
1030	0.000846
1042	0.000672
1054	0.000543
1066	0.0005175
1078	0.000762
1090	0.0009975
1102	0.001089
1114	0.0010545
1126	0.0007725
1138	0.0003645
1150	0.000288
1162	0.000288
1174	0.0003165
1186	0.000372
1198	0.0003615
1210	0.000429
1222	0.0004965
1234	0.000513
1246	0.000519
1258	0.0004665
1270	0.000339
1282	0.0003975
1294	0.000495
1306	0.000732
1318	0.0008745
1330	0.0007605
1342	0.0006855
1354	0.000861
1366	0.001392
1378	0.002034
1390	0.0019545
1402	0.0014115
1414	0.001386
1426	0.0018585
1438	0.002622
1450	0.0028545
1462	0.002136
1474	0.001389
1486	0.000879
1498	0.000606
1510	0.0004905
1522	0.000474
1534	0.00048
1546	0.0004995
1558	0.0004875
1570	0.00042
1582	0.0003855
1594	0.0003945
1606	0.000549
1618	0.000876
1630	0.001785
1642	0.0023325
1654	0.00132
1666	0.000729
1678	0.000483
1690	0.0002775
1702	0.000237
1714	0.0001695
1726	0.0001335
1738	9.9e-05
1750	9.9e-05
1762	0.0001095
1774	0.0001245
1786	0.00012
1798	0.000168
1810	0.0002655
1822	0.0005115
1834	0.0005805
1846	0.0002985
1858	0.000192
1870	0.000117
1882	0.0001035
1894	9.6e-05
1906	8.4e-05
1918	9.9e-05
1930	6.75e-05
1942	9.6e-05
1954	8.55e-05
1966	0.0001695
1978	0.000129
1990	0.0001035
2002	8.55e-05
2014	6.9e-05
2026	7.2e-05
2038	4.35e-05
2050	6.3e-05
2062	7.05e-05
2074	3.6e-05
2086	7.35e-05
2098	8.25e-05
2110	5.1e-05
2122	5.4e-05
2134	5.7e-05
2146	5.1e-05
2158	6.3e-05
2170	6e-05
2182	4.35e-05
2194	4.05e-05
2206	6.15e-05
2218	4.8e-05
2230	5.25e-05
2242	7.2e-05
2254	8.85e-05
2266	8.4e-05
2278	6.75e-05
2290	5.1e-05
2302	7.8e-05
2314	0.0001005
2326	8.1e-05
2338	0.000105
2350	5.4e-05
2362	0.000108
2374	0.000102
2386	7.05e-05
2398	9.45e-05
2410	0.0001065
2422	0.000105
2434	8.1e-05
2446	0.0001155
2458	0.0001095
2470	9.75e-05
2482	9.75e-05
2494	0.0001035
2506	8.4e-05
2518	0.0001125
2530	0.00012
2542	8.1e-05
2554	0.0001425
2566	0.000105
2578	0.0001005
2590	9.9e-05
2602	0.000102
2614	0.0001305
2626	0.0001545
2638	0.0001095
2650	0.0001185
2662	0.0001065
2674	0.000168
2686	0.0001275
2698	0.000213
2710	0.000258
2722	0.000324
2734	0.000525
2746	0.000576
2758	0.0004785
2770	0.0004725
2782	0.0005235
2794	0.0006315
2806	0.0008955
2818	0.001242
2830	0.0019125
2842	0.0032895
2854	0.00534
2866	0.007119
2878	0.00738
2890	0.0076665
2902	0.009414
2914	0.0126615
2926	0.015
2938	0.0128175
2950	0.0095625
2962	0.0086385
2974	0.0090885
2986	0.0087045
2998	0.0070215
3010	0.0052725
3022	0.003663
3034	0.00288
3046	0.002511
3058	0.002535
3070	0.0029445
3082	0.0039015
3094	0.0030315
3106	0.001341
3118	0.000774
3130	0.0005445
3142	0.000408
3154	0.0002895
3166	0.0002565
3178	0.000186
3190	0.0001725
3202	0.0001035
3214	0.000159
3226	7.65e-05
3238	0.000117
3250	7.2e-05
3262	4.2e-05
3274	0
3286	0.000105
3298	0.000129
3310	9.9e-05
3322	9.45e-05
3334	8.85e-05
3346	8.4e-05
3358	0.000105
3370	6e-05
3382	7.5e-05
3394	0.0001455
3406	7.5e-05
3418	8.85e-05
3430	7.5e-05
3442	6.45e-05
3454	3e-05
3466	7.05e-05
3478	0.000108
3490	6.45e-05
3502	8.55e-05
3514	0.000132
3526	7.8e-05
3538	6.75e-05
3550	5.4e-05
3562	7.35e-05
3574	6.9e-05
3586	6.15e-05
3598	3.75e-05
3610	7.65e-05
3622	5.85e-05
3634	9.15e-05
3646	7.8e-05
3658	9.75e-05
3670	0.000129
3682	9.6e-05
3694	0.0001005
3706	4.05e-05
3718	2.85e-05
3730	0.0001095
3742	0.000144
3754	0.000117
3766	0.000144
3778	9.9e-05
3790	0.000132
3802	0.0001035
3814	0.000135
3826	9.15e-05
3838	9.9e-05
