Infrared Spectrum: 3-(4-Chlorophenoxy)benzyl alcohol
Formula: C 13 H 11 Cl O 2
CAS: 72714-63-7
State: gas
Origin: EPA-IR VAPOR PHASE LIBRARY
1/CM	ABSORBANCE
549.8	0.0006045
559.445	0.0005454
569.09	0.0004632
578.735	0.000303
588.38	0.0005875
598.025	0.0008205
607.67	0.0004641
617.315	0.0008574
626.96	0.000876
636.605	0.00129
646.251	0.00156
655.896	0.0016
665.541	0.00146
675.186	0.00124
684.831	0.00164
694.476	0.00211
704.121	0.00181
713.766	0.00138
723.411	0.00106
733.056	0.00138
742.701	0.0021
752.346	0.00152
761.991	0.00126
771.636	0.00196
781.281	0.00283
790.926	0.00264
800.571	0.0018
810.216	0.00188
819.861	0.00299
829.507	0.00433
839.152	0.00349
848.797	0.00201
858.442	0.00157
868.087	0.00172
877.732	0.00189
887.377	0.00152
897.022	0.00144
906.667	0.00153
916.312	0.00208
925.957	0.00328
935.602	0.00379
945.247	0.00281
954.892	0.00196
964.537	0.00203
974.182	0.002
983.827	0.00182
993.472	0.002
1003.12	0.00314
1012.76	0.00586
1022.41	0.00391
1032.05	0.00375
1041.7	0.00332
1051.34	0.00266
1060.99	0.00237
1070.63	0.00249
1080.28	0.00403
1089.92	0.00814
1099.57	0.00553
1109.21	0.00252
1118.86	0.00193
1128.5	0.00211
1138.15	0.00265
1147.79	0.00224
1157.44	0.0032
1167.08	0.00413
1176.73	0.00218
1186.37	0.00231
1196.02	0.00327
1205.66	0.00569
1215.31	0.01034
1224.95	0.01412
1234.6	0.01472
1244.24	0.02083
1253.89	0.02567
1263.53	0.01755
1273.18	0.01111
1282.82	0.00685
1292.47	0.00463
1302.11	0.00372
1311.76	0.00284
1321.4	0.00215
1331.05	0.00178
1340.69	0.00163
1350.34	0.00152
1359.98	0.00187
1369.63	0.00241
1379.27	0.00266
1388.92	0.00231
1398.56	0.00213
1408.21	0.00216
1417.85	0.00276
1427.5	0.00341
1437.14	0.0053
1446.79	0.00813
1456.43	0.00488
1466.08	0.00576
1475.73	0.01423
1485.37	0.03255
1495.02	0.0132
1504.66	0.00437
1514.31	0.00245
1523.95	0.00177
1533.6	0.0015
1543.24	0.00147
1552.89	0.00162
1562.53	0.0024
1572.18	0.00538
1581.82	0.00976
1591.47	0.00583
1601.11	0.00383
1610.76	0.0038
1620.4	0.00193
1630.05	0.0011
1639.69	0.0008041
1649.34	0.0006249
1658.98	0.0005508
1668.63	0.0005114
1678.27	0.000526
1687.92	0.0004007
1697.56	0.0003887
1707.21	0.0004669
1716.85	0.000489
1726.5	0.0005633
1736.14	0.000521
1745.79	0.0006593
1755.43	0.0006151
1765.08	0.0005076
1774.72	0.0004331
1784.37	0.0004419
1794.01	0.0003898
1803.66	0.0003301
1813.3	0.0003206
1822.95	0.0003435
1832.59	0.0003862
1842.24	0.0004524
1851.88	0.0004569
1861.53	0.0005396
1871.17	0.0007336
1880.82	0.000732
1890.46	0.0004992
1900.11	0.0004643
1909.75	0.0004079
1919.4	0.0004141
1929.04	0.0005217
1938.69	0.0003912
1948.33	0.0003233
1957.98	0.000324
1967.62	0.000296
1977.27	0.0003947
1986.91	0.0004269
1996.56	0.0003537
2006.2	0.0003379
2015.85	0.0003923
2025.49	0.0004018
2035.14	0.0004674
2044.78	0.0004502
2054.43	0.0004195
2064.07	0.0004854
2073.72	0.0004026
2083.36	0.0003594
2093.01	0.0003806
2102.65	0.0003696
2112.3	0.0002177
2121.94	0.0002475
2131.59	0.0002639
2141.23	0.0002295
2150.88	0.0003168
2160.52	0.0002596
2170.17	0.0003033
2179.81	0.0002893
2189.46	0.0002631
2199.1	0.0002348
2208.75	0.0002753
2218.39	0.0002214
2228.04	0.0002579
2237.68	0.0002603
2247.33	0.0002344
2256.97	0.0002867
2266.62	0.0003414
2276.26	0.0003314
2285.91	0.0003181
2295.55	0.0003695
2305.2	0.0003001
2314.84	0.0002856
2324.49	0.0003522
2334.13	0.000309
2343.78	0.0002815
2353.42	0.000325
2363.07	0.0002858
2372.72	0.0003629
2382.36	0.0004821
2392.01	0.0004406
2401.65	0.0004854
2411.3	0.0005159
2420.94	0.0005032
2430.59	0.00054
2440.23	0.0004354
2449.88	0.0004894
2459.52	0.0003891
2469.17	0.0004021
2478.81	0.0004008
2488.46	0.000427
2498.1	0.0003959
2507.75	0.0003985
2517.39	0.0003346
2527.04	0.000287
2536.68	0.0003708
2546.33	0.0002798
2555.97	0.0003449
2565.62	0.0003484
2575.26	0.000284
2584.91	0.0002724
2594.55	0.0003541
2604.2	0.0002678
2613.84	0.0003137
2623.49	0.0003835
2633.13	0.0002454
2642.78	0.0002891
2652.42	0.0002706
2662.07	0.0003898
2671.71	0.0003113
2681.36	0.0003754
2691	0.0002751
2700.65	0.00036
2710.29	0.0004759
2719.94	0.0004332
2729.58	0.0003719
2739.23	0.0003713
2748.87	0.000383
2758.52	0.0003781
2768.16	0.0004205
2777.81	0.0005266
2787.45	0.0004693
2797.1	0.0004411
2806.74	0.0005417
2816.39	0.000555
2826.03	0.0007988
2835.68	0.0008282
2845.32	0.0009567
2854.97	0.00107
2864.61	0.00132
2874.26	0.00161
2883.9	0.00201
2893.55	0.00176
2903.19	0.00158
2912.84	0.00151
2922.48	0.00162
2932.13	0.00156
2941.77	0.00143
2951.42	0.00141
2961.06	0.00115
2970.71	0.0009464
2980.35	0.0007323
2990	0.0006481
2999.64	0.0005724
3009.29	0.00055
3018.93	0.0008524
3028.58	0.00109
3038.22	0.00161
3047.87	0.00152
3057.51	0.00153
3067.16	0.00164
3076.8	0.00176
3086.45	0.00151
3096.09	0.00118
3105.74	0.0008866
3115.38	0.0006489
3125.03	0.0004403
3134.67	0.0004641
3144.32	0.0003863
3153.96	0.0004152
3163.61	0.000413
3173.25	0.0003241
3182.9	0.0005063
3192.54	0.0004289
3202.19	0.000496
3211.83	0.0004285
3221.48	0.0004396
3231.12	0.0004482
3240.77	0.0003907
3250.41	0.0004103
3260.06	0.0002527
3269.7	0.0003952
3279.35	0.0003276
3289	0.0004444
3298.64	0.0004475
3308.29	0.0004216
3317.93	0.0003976
3327.58	0.0004837
3337.22	0.0004668
3346.87	0.0004175
3356.51	0.0003826
3366.16	0.0004016
3375.8	0.0003846
3385.45	0.0006038
3395.09	0.000386
3404.74	0.0005147
3414.38	0.0006177
3424.03	0.0004588
3433.67	0.0004842
3443.32	0.0005226
3452.96	0.0006422
3462.61	0.0005244
3472.25	0.0006392
3481.9	0.0005628
3491.54	0.0005145
3501.19	0.0004291
3510.83	0.0005861
3520.48	0.0004449
3530.12	0.000612
3539.77	0.0006403
3549.41	0.0005034
3559.06	0.0006332
3568.7	0.0004766
3578.35	0.0005343
3587.99	0.0006576
3597.64	0.000694
3607.28	0.0004735
3616.93	0.0006403
3626.57	0.0008289
3636.22	0.00104
3645.86	0.0012
3655.51	0.00157
3665.15	0.0013
3674.8	0.00119
3684.44	0.0007703
3694.09	0.0009088
3703.73	0.0007045
3713.38	0.0004216
3723.02	0.0005348
3732.67	0.0005344
3742.31	0.0004349
3751.96	0.0004582
3761.6	0.0003948
3771.25	0.0006095
3780.89	0.0006341
3790.54	0.000535
3800.18	0.0005395
3809.83	0.0006824
3819.47	0.0007088
3829.12	0.0006155
3838.76	0.0005783
3848.41	0.0005367
3858.05	0.0006756
3867.7	0.0005454
3877.34	0.0006401
3886.99	0.0005771
3896.63	0.0005259
3906.28	0.0005974
3915.92	0.0006715
3925.57	0.0005141
3935.21	0.0005551
3944.86	0.0004494
3954.5	0.0005917
3964.15	0.0006118
3973.79	0.0006055
3983.44	0.000695
3993.08	0.0005099
