Infrared Spectrum: PENTAERYTHRITOL, BIS(CYCLIC HEXADECYL PHOSPHITE)
Formula: C37 H74 O6 P2
CAS: 72732-57-1
Class: COBLENTZ
Instrument: Not specified, most likely a prism, grating, or hybrid spectrometer.
Sampling: TRANSMISSION
Path length: SMEAR
Resolution: 4
Origin: TENNESSEE EASTMAN COMPANY, RESEARCH LABORATORIES
MICROMETERS	TRANSMITTANCE
1.993	0.929
2.0337	0.928
2.0744	0.928
2.11509	0.928
2.15579	0.928
2.19649	0.928
2.23719	0.924
2.27789	0.911
2.31858	0.883
2.35928	0.883
2.39998	0.883
2.44068	0.883
2.48138	0.895
2.52207	0.902
2.56277	0.905
2.60347	0.905
2.64417	0.907
2.68487	0.911
2.72557	0.912
2.76626	0.9
2.80696	0.87
2.84766	0.839
2.88836	0.774
2.92906	0.714
2.96975	0.699
3.01045	0.728
3.05115	0.76
3.09185	0.798
3.13255	0.82
3.17324	0.842
3.21394	0.861
3.25464	0.864
3.29534	0.842
3.33604	0.738
3.37673	0.323
3.41743	0.001
3.45813	0.102
3.49883	0.059
3.53953	0.504
3.58022	0.781
3.62092	0.82
3.66162	0.834
3.70232	0.851
3.74302	0.854
3.78371	0.852
3.82441	0.873
3.86511	0.892
3.90581	0.905
3.94651	0.923
3.9872	0.929
4.0279	0.933
4.0686	0.935
4.1093	0.917
4.15	0.899
4.1907	0.911
4.23139	0.933
4.27209	0.928
4.31279	0.923
4.35349	0.931
4.39419	0.948
4.43488	0.953
4.47558	0.955
4.51628	0.955
4.55698	0.957
4.59768	0.957
4.63837	0.957
4.67907	0.957
4.71977	0.957
4.76047	0.957
4.80117	0.957
4.84186	0.957
4.88256	0.957
4.92326	0.957
4.96396	0.96
5.00466	0.967
5.04535	0.962
5.08605	0.964
5.12675	0.964
5.16745	0.964
5.20815	0.953
5.24884	0.955
5.28954	0.958
5.33024	0.958
5.37094	0.96
5.41164	0.964
5.45233	0.962
5.49303	0.957
5.53373	0.96
5.57443	0.96
5.61513	0.957
5.65583	0.95
5.69652	0.943
5.73722	0.928
5.77792	0.921
5.81862	0.928
5.85932	0.931
5.90001	0.916
5.94071	0.935
5.98141	0.936
6.02211	0.941
6.06281	0.935
6.1035	0.941
6.1442	0.943
6.1849	0.935
6.2256	0.902
6.2663	0.873
6.30699	0.935
6.34769	0.933
6.38839	0.929
6.42909	0.931
6.46979	0.905
6.51048	0.912
6.55118	0.894
6.59188	0.878
6.63258	0.823
6.67328	0.774
6.71397	0.659
6.75467	0.441
6.79537	0.252
6.83607	0.389
6.87677	0.581
6.91747	0.656
6.95816	0.755
6.99886	0.806
7.03956	0.834
7.08026	0.842
7.12096	0.808
7.16165	0.714
7.20235	0.666
7.24305	0.644
7.28375	0.721
7.32445	0.755
7.36514	0.784
7.40584	0.786
7.44654	0.796
7.48724	0.815
7.52794	0.83
7.56863	0.823
7.60933	0.803
7.65003	0.777
7.69073	0.752
7.73143	0.738
7.77212	0.699
7.81282	0.649
7.85352	0.588
7.89422	0.536
7.93492	0.494
7.97561	0.47
8.01631	0.461
8.05701	0.488
8.09771	0.526
8.13841	0.565
8.1791	0.6
8.2198	0.649
8.2605	0.683
8.3012	0.663
8.3419	0.6
8.3826	0.558
8.42329	0.596
8.46399	0.608
8.50469	0.647
8.54539	0.646
8.58609	0.514
8.62678	0.374
8.66748	0.435
8.70818	0.632
8.74888	0.699
8.78958	0.705
8.83027	0.714
8.87097	0.724
8.91167	0.728
8.95237	0.704
8.99307	0.676
9.03376	0.647
9.07446	0.611
9.11516	0.523
9.15586	0.43
9.19656	0.335
9.23725	0.258
9.27795	0.182
9.31865	0.2
9.35935	0.205
9.40005	0.205
9.44074	0.184
9.48144	0.17
9.52214	0.157
9.56284	0.135
9.60354	0.092
9.64423	0.061
9.68493	0.052
9.72563	0.063
9.76633	0.075
9.80703	0.085
9.84773	0.085
9.88842	0.088
9.92912	0.117
9.96982	0.138
10.0105	0.147
10.0512	0.135
10.0919	0.114
10.1326	0.097
10.1733	0.094
10.214	0.116
10.2547	0.128
10.2954	0.155
10.3361	0.179
10.3768	0.203
10.4175	0.28
10.4582	0.357
10.4989	0.42
10.5396	0.487
10.5803	0.547
10.621	0.584
10.6617	0.596
10.7024	0.635
10.7431	0.666
10.7838	0.685
10.8245	0.687
10.8652	0.666
10.9059	0.637
10.9466	0.629
10.9873	0.647
11.028	0.675
11.0687	0.709
11.1094	0.741
11.1501	0.758
11.1908	0.762
11.2315	0.769
11.2722	0.774
11.3129	0.779
11.3536	0.779
11.3943	0.772
11.4349	0.769
11.4756	0.772
11.5163	0.772
11.557	0.755
11.5977	0.728
11.6384	0.646
11.6791	0.519
11.7198	0.5
11.7605	0.603
11.8012	0.668
11.8419	0.705
11.8826	0.724
11.9233	0.735
11.964	0.741
12.0047	0.738
12.0454	0.726
12.0861	0.707
12.1268	0.695
12.1675	0.685
12.2082	0.664
12.2489	0.634
12.2896	0.6
12.3303	0.523
12.371	0.405
12.4117	0.336
12.4524	0.398
12.4931	0.425
12.5338	0.434
12.5745	0.429
12.6152	0.47
12.6559	0.482
12.6966	0.471
12.7373	0.432
12.778	0.367
12.8187	0.341
12.8594	0.341
12.9001	0.348
12.9408	0.323
12.9815	0.305
13.0222	0.333
13.0629	0.37
13.1036	0.386
13.1443	0.391
13.185	0.382
13.2257	0.36
13.2664	0.317
13.3071	0.259
13.3478	0.188
13.3885	0.141
13.4292	0.105
13.4699	0.088
13.5106	0.078
13.5512	0.073
13.5919	0.075
13.6326	0.09
13.6733	0.117
13.714	0.143
13.7547	0.174
13.7954	0.196
13.8361	0.218
13.8768	0.256
13.9175	0.287
13.9582	0.329
13.9989	0.389
14.0396	0.461
14.0803	0.536
14.121	0.582
14.1617	0.622
14.2024	0.647
14.2431	0.67
14.2838	0.682
14.3245	0.688
14.3652	0.69
14.4059	0.69
14.4466	0.692
14.4873	0.7
14.528	0.704
14.5687	0.705
14.6094	0.704
14.6501	0.69
14.6908	0.673
14.7315	0.652
14.7722	0.63
14.8129	0.601
14.8536	0.586
14.8943	0.584
14.935	0.606
14.9757	0.663
15.0164	0.692
15.0571	0.704
15.0978	0.709
15.1385	0.716
15.1792	0.716
15.2199	0.714
15.2606	0.716
15.3013	0.717
15.342	0.719
15.3827	0.716
15.4234	0.716
15.4641	0.712
15.5048	0.714
15.5455	0.709
15.5862	0.702
15.6268	0.704
15.6675	0.704
15.7082	0.702
15.7489	0.699
15.7896	0.695
15.8303	0.694
15.871	0.694
15.9117	0.692
15.9524	0.692
