Infrared Spectrum: 2-Piperidinobenzonitrile
Formula: C 12 H 14 N 2
CAS: 72752-52-4
State: gas
Origin: EPA-IR VAPOR PHASE LIBRARY
1/CM	ABSORBANCE
549.8	0.00279
559.445	0.00403
569.09	0.00308
578.734	0.00231
588.379	0.00227
598.024	0.0012855
607.669	0.0010381
617.313	0.00192
626.958	0.00059476
636.603	0.00174
646.248	0.0010234
655.893	0.00155
665.537	0.0012797
675.182	0.0014422
684.827	0.00203
694.472	0.0034
704.116	0.00514
713.761	0.0044
723.406	0.006
733.051	0.01783
742.695	0.05537
752.34	0.09443
761.985	0.0522
771.63	0.01414
781.275	0.0056
790.919	0.00403
800.564	0.00367
810.209	0.00348
819.854	0.00416
829.498	0.0042
839.143	0.00509
848.788	0.00915
858.433	0.0159
868.078	0.0094
877.722	0.00462
887.367	0.00467
897.012	0.00732
906.657	0.01259
916.301	0.03237
925.946	0.05061
935.591	0.02161
945.236	0.01026
954.88	0.00755
964.525	0.00615
974.17	0.00446
983.815	0.00338
993.46	0.00366
1003.1	0.00578
1012.75	0.0124
1022.39	0.02566
1032.04	0.0254
1041.68	0.02804
1051.33	0.02063
1060.97	0.00933
1070.62	0.00868
1080.26	0.00801
1089.91	0.01317
1099.55	0.02099
1109.2	0.02023
1118.84	0.02735
1128.49	0.03103
1138.13	0.02645
1147.78	0.01436
1157.42	0.02437
1167.07	0.02321
1176.71	0.01235
1186.36	0.01068
1196	0.01208
1205.64	0.02356
1215.29	0.04637
1224.93	0.09123
1234.58	0.13199
1244.22	0.06672
1253.87	0.02512
1263.51	0.02331
1273.16	0.03318
1282.8	0.0379
1292.45	0.02177
1302.09	0.01105
1311.74	0.00942
1321.38	0.01192
1331.03	0.01932
1340.67	0.0332
1350.32	0.03201
1359.96	0.0275
1369.61	0.03997
1379.25	0.06316
1388.9	0.04663
1398.54	0.02151
1408.18	0.01529
1417.83	0.01536
1427.47	0.01913
1437.12	0.05273
1446.76	0.11835
1456.41	0.09553
1466.05	0.05741
1475.7	0.08134
1485.34	0.15237
1494.99	0.1194
1504.63	0.04411
1514.28	0.02462
1523.92	0.01843
1533.57	0.0151
1543.21	0.01335
1552.86	0.01669
1562.5	0.02549
1572.15	0.02848
1581.79	0.03726
1591.44	0.08275
1601.08	0.06826
1610.73	0.02131
1620.37	0.01212
1630.01	0.00985
1639.66	0.0076
1649.3	0.00587
1658.95	0.00418
1668.59	0.00332
1678.24	0.00356
1687.88	0.00421
1697.53	0.00427
1707.17	0.00344
1716.82	0.0032
1726.46	0.00267
1736.11	0.00246
1745.75	0.00237
1755.4	0.00205
1765.04	0.00238
1774.69	0.00238
1784.33	0.00289
1793.98	0.00345
1803.62	0.00296
1813.27	0.00252
1822.91	0.00309
1832.55	0.00257
1842.2	0.00207
1851.84	0.00204
1861.49	0.002
1871.13	0.0028
1880.78	0.00342
1890.42	0.00272
1900.07	0.00332
1909.71	0.00466
1919.36	0.00408
1929	0.0035
1938.65	0.00485
1948.29	0.0044
1957.94	0.00234
1967.58	0.00173
1977.23	0.0017
1986.87	0.0014656
1996.52	0.00177
2006.16	0.00155
2015.81	0.00168
2025.45	0.00176
2035.1	0.00169
2044.74	0.00182
2054.38	0.00187
2064.03	0.00171
2073.67	0.0013709
2083.32	0.00158
2092.96	0.0012544
2102.61	0.0014363
2112.25	0.00153
2121.9	0.00163
2131.54	0.0014887
2141.19	0.00154
2150.83	0.00192
2160.48	0.00216
2170.12	0.00251
2179.77	0.00312
2189.41	0.00339
2199.06	0.00392
2208.7	0.00843
2218.35	0.02001
2227.99	0.02228
2237.64	0.00913
2247.28	0.00323
2256.92	0.00225
2266.57	0.00244
2276.21	0.0023
2285.86	0.00205
2295.5	0.00222
2305.15	0.00236
2314.79	0.00181
2324.44	0.00211
2334.08	0.00228
2343.73	0.00169
2353.37	0.00187
2363.02	0.00173
2372.66	0.00195
2382.31	0.00198
2391.95	0.0023
2401.6	0.00235
2411.24	0.00198
2420.89	0.00195
2430.53	0.00182
2440.18	0.00208
2449.82	0.00201
2459.47	0.00221
2469.11	0.00275
2478.75	0.0025
2488.4	0.00229
2498.04	0.00263
2507.69	0.00289
2517.33	0.00241
2526.98	0.00226
2536.62	0.00213
2546.27	0.0027
2555.91	0.00264
2565.56	0.00317
2575.2	0.00371
2584.85	0.00409
2594.49	0.00413
2604.14	0.00391
2613.78	0.00417
2623.43	0.00402
2633.07	0.00422
2642.72	0.00473
2652.36	0.00576
2662.01	0.00668
2671.65	0.00827
2681.29	0.00971
2690.94	0.01064
2700.58	0.0114
2710.23	0.01042
2719.87	0.00964
2729.52	0.00994
2739.16	0.01246
2748.81	0.01503
2758.45	0.01333
2768.1	0.01271
2777.74	0.01658
2787.39	0.02939
2797.03	0.05367
2806.68	0.0781
2816.32	0.07771
2825.97	0.05178
2835.61	0.03333
2845.26	0.02942
2854.9	0.04254
2864.55	0.06813
2874.19	0.05343
2883.84	0.02925
2893.48	0.02587
2903.12	0.02929
2912.77	0.0373
2922.41	0.06347
2932.06	0.11656
2941.7	0.22588
2951.35	0.2225
2960.99	0.08025
2970.64	0.03403
2980.28	0.02014
2989.93	0.0183
2999.57	0.01451
3009.22	0.00931
3018.86	0.00809
3028.51	0.01021
3038.15	0.01189
3047.8	0.01131
3057.44	0.01268
3067.09	0.01911
3076.73	0.02687
3086.38	0.01802
3096.02	0.0095
3105.67	0.00734
3115.31	0.00492
3124.95	0.00339
3134.6	0.00269
3144.24	0.00238
3153.89	0.00171
3163.53	0.00168
3173.18	0.00209
3182.82	0.0014402
3192.47	0.0011535
3202.11	0.000876
3211.76	0.0011946
3221.4	0.0006239
3231.05	0.0006794
3240.69	0.0008532
3250.34	0.0006648
3259.98	0.0007917
3269.63	0.0007031
3279.27	0.000293
3288.92	0.0008728
3298.56	0.0008496
3308.21	0.0008255
3317.85	0.0006945
3327.49	0.0009239
3337.14	0.0011008
3346.78	0.000527172
3356.43	0.000408
3366.07	0.0011872
3375.72	0.0008039
3385.36	0.0012171
3395.01	0.0013891
3404.65	0.0011417
3414.3	0.000818
3423.94	0.0013676
3433.59	0.0005873
3443.23	0.0007289
3452.88	0.0010394
3462.52	0.0009921
3472.17	0.0007604
3481.81	0.000684
3491.46	0.000399
3501.1	0.0004655
3510.75	0.0006597
3520.39	0.0009558
3530.04	0.000174
3539.68	0.0006719
3549.32	0.000246
3558.97	0.0007405
3568.61	0.0006544
3578.26	0.0007236
3587.9	0.00057209
3597.55	0.0005809
3607.19	0.000768
3616.84	0.0010766
3626.48	0.0004814
3636.13	0.0005018
3645.77	0.0006647
3655.42	0.000355
3665.06	6.6e-05
3674.71	0.0009216
3684.35	0.000721
3694	0.0007666
3703.64	0.0007635
3713.29	0.000199
3722.93	0.0007929
3732.58	0.000839
3742.22	0.0004584
3751.86	0.0008931
3761.51	0.0008742
3771.15	0.0011064
3780.8	0.0013091
3790.44	0.000394
3800.09	0.0012171
3809.73	0.0011853
3819.38	0.0010311
3829.02	0.000949
3838.67	0.0013607
3848.31	0.0008357
3857.96	0.0014127
3867.6	0.00056111
3877.25	0.0009394
3886.89	0.0007951
3896.54	0.0009428
3906.18	0.0007626
3915.83	0.0009202
3925.47	0.0014848
3935.12	0.0012271
3944.76	0.0009045
3954.41	0.00186
3964.05	0.0014901
3973.69	0.00161
3983.34	0.0014259
3992.98	0.0012847
