Infrared Spectrum: 3-Trifluoromethylbenzophenone
Formula: C 14 H 9 F 3 O
CAS: 728-81-4
State: gas
Origin: EPA-IR VAPOR PHASE LIBRARY
1/CM	ABSORBANCE
549.9	0.0020913
559.547	0.00204111
569.193	0.0019571
578.84	0.0022441
588.486	0.0024635
598.133	0.0027511
607.779	0.00485
617.426	0.00919
627.072	0.00884
636.719	0.00994
646.365	0.01014
656.012	0.02296
665.658	0.02941
675.305	0.01038
684.951	0.01484
694.598	0.02961
704.245	0.02912
713.891	0.03052
723.538	0.02853
733.184	0.01308
742.831	0.00634
752.477	0.00466
762.124	0.00434
771.77	0.006
781.417	0.01066
791.063	0.01384
800.71	0.01017
810.356	0.01383
820.003	0.01051
829.649	0.00399
839.296	0.0029359
848.943	0.0025411
858.589	0.0021611
868.236	0.0020549
877.882	0.0022692
887.529	0.0027397
897.175	0.00397
906.822	0.00711
916.468	0.01192
926.115	0.00887
935.761	0.0079
945.408	0.01559
955.054	0.01585
964.701	0.00858
974.347	0.00411
983.994	0.0031
993.64	0.00336
1003.29	0.00425
1012.93	0.0026485
1022.58	0.00423
1032.23	0.00463
1041.87	0.00378
1051.52	0.00522
1061.17	0.01182
1070.81	0.03279
1080.46	0.03395
1090.11	0.02182
1099.75	0.01538
1109.4	0.01121
1119.05	0.01595
1128.69	0.03342
1138.34	0.08816
1147.99	0.16821
1157.63	0.09793
1167.28	0.0731
1176.92	0.09438
1186.57	0.07092
1196.22	0.02381
1205.86	0.01685
1215.51	0.01643
1225.16	0.02364
1234.8	0.0423
1244.45	0.066
1254.1	0.12954
1263.74	0.13998
1273.39	0.05459
1283.04	0.03047
1292.68	0.02983
1302.33	0.03141
1311.98	0.03783
1321.62	0.05266
1331.27	0.11153
1340.92	0.0753
1350.56	0.01645
1360.21	0.00759
1369.86	0.00555
1379.5	0.00466
1389.15	0.00407
1398.79	0.00375
1408.44	0.00403
1418.09	0.00497
1427.73	0.00954
1437.38	0.01154
1447.03	0.00974
1456.67	0.0056
1466.32	0.00348
1475.97	0.00318
1485.61	0.00344
1495.26	0.0029774
1504.91	0.0027127
1514.55	0.0028187
1524.2	0.0026653
1533.85	0.0028023
1543.49	0.00302
1553.14	0.00318
1562.79	0.00379
1572.43	0.0049
1582.08	0.00642
1591.73	0.00903
1601.37	0.01163
1611.02	0.01131
1620.67	0.00706
1630.31	0.00533
1639.96	0.00537
1649.6	0.00618
1659.25	0.00834
1668.9	0.01731
1678.54	0.05205
1688.19	0.06505
1697.84	0.02724
1707.48	0.0124
1717.13	0.00758
1726.78	0.00596
1736.42	0.00473
1746.07	0.00411
1755.72	0.00332
1765.36	0.0028709
1775.01	0.0025296
1784.66	0.002334
1794.3	0.0025807
1803.95	0.00299
1813.6	0.00315
1823.24	0.0027813
1832.89	0.0024646
1842.54	0.0022245
1852.18	0.0022695
1861.83	0.0023056
1871.47	0.0021918
1881.12	0.0023019
1890.77	0.0027048
1900.41	0.00327
1910.06	0.00339
1919.71	0.0025126
1929.35	0.002098
1939	0.0021768
1948.65	0.0026898
1958.29	0.00324
1967.94	0.0029652
1977.59	0.0022557
1987.23	0.00181
1996.88	0.00154
2006.53	0.00145
2016.17	0.001449
2025.82	0.001452
2035.47	0.00142
2045.11	0.001458
2054.76	0.001518
2064.41	0.001504
2074.05	0.00146
2083.7	0.001466
2093.35	0.001481
2102.99	0.001469
2112.64	0.001558
2122.28	0.001609
2131.93	0.001522
2141.58	0.001595
2151.22	0.001604
2160.87	0.001447
2170.52	0.001436
2180.16	0.001393
2189.81	0.001433
2199.46	0.001495
2209.1	0.001575
2218.75	0.001633
2228.4	0.001705
2238.04	0.001641
2247.69	0.001739
2257.34	0.001765
2266.98	0.00184
2276.63	0.001875
2286.28	0.0018939
2295.92	0.001775
2305.57	0.00167
2315.22	0.001787
2324.86	0.00184
2334.51	0.001788
2344.16	0.001909
2353.8	0.001702
2363.45	0.001644
2373.09	0.00162
2382.74	0.001695
2392.39	0.0017
2402.03	0.001825
2411.68	0.001686
2421.33	0.001514
2430.97	0.001392
2440.62	0.001366
2450.27	0.001351
2459.91	0.001398
2469.56	0.001363
2479.21	0.00143
2488.85	0.001365
2498.5	0.001349
2508.15	0.001348
2517.79	0.001435
2527.44	0.001297
2537.09	0.001315
2546.73	0.001325
2556.38	0.001272
2566.03	0.001322
2575.67	0.001395
2585.32	0.00143
2594.96	0.001461
2604.61	0.001411
2614.26	0.001278
2623.9	0.001222
2633.55	0.001251
2643.2	0.001253
2652.84	0.001247
2662.49	0.001121
2672.14	0.00106
2681.78	0.001041
2691.43	0.000996
2701.08	0.001054
2710.72	0.001142
2720.37	0.001239
2730.02	0.001185
2739.66	0.001147
2749.31	0.00131
2758.96	0.001118
2768.6	0.00118
2778.25	0.001033
2787.9	0.00097
2797.54	0.00092
2807.19	0.00096
2816.84	0.00098
2826.48	0.001075
2836.13	0.001023
2845.77	0.001028
2855.42	0.001137
2865.07	0.001063
2874.71	0.001111
2884.36	0.001066
2894.01	0.000984
2903.65	0.0009
2913.3	0.00091
2922.95	0.001038
2932.59	0.001127
2942.24	0.001027
2951.89	0.00091
2961.53	0.00093
2971.18	0.0008
2980.83	0.00074
2990.47	0.001027
3000.12	0.00094
3009.77	0.001376
3019.41	0.0024034
3029.06	0.00402
3038.71	0.00566
3048.35	0.00494
3058	0.00616
3067.64	0.01231
3077.29	0.01458
3086.94	0.01117
3096.58	0.00647
3106.23	0.00376
3115.88	0.001794
3125.52	0.000996
3135.17	0.00072
3144.82	0.00054
3154.46	0.00056
3164.11	0.00042
3173.76	0.0003
3183.4	0.00028
3193.05	0.00025
3202.7	0.00033
3212.34	0.00033
3221.99	0.00033
3231.64	5e-05
3241.28	0.00025
3250.93	0.00036
3260.58	0.00016
3270.22	0.00013
3279.87	0.00022
3289.52	0.00032
3299.16	0.00032
3308.81	0.00042
3318.45	0.00041
3328.1	0.00051
3337.75	0.00076
3347.39	0.001249
3357.04	0.001193
3366.69	0.00074
3376.33	0.00039
3385.98	0.0003
3395.63	0.00038
3405.27	0.00041
3414.92	0.00035
3424.57	0.00055
3434.21	0.00048
3443.86	0.00047
3453.51	0.0006
3463.15	0.00042
3472.8	0.00052
3482.45	0.00035
3492.09	0.00055
3501.74	0.00073
3511.39	0.00068
3521.03	0.00059
3530.68	0.00054
3540.33	0.00058
3549.97	0.00077
3559.62	0.00076
3569.26	0.0008
3578.91	0.00076
3588.56	0.00075
3598.2	0.00082
3607.85	0.00073
3617.5	0.00088
3627.14	0.00084
3636.79	0.00096
3646.44	0.00095
3656.08	0.00095
3665.73	0.00092
3675.38	0.00087
3685.02	0.001099
3694.67	0.001051
3704.32	0.001124
3713.96	0.001145
3723.61	0.001177
3733.26	0.00106
3742.9	0.000986
3752.55	0.000988
3762.2	0.001057
3771.84	0.001105
3781.49	0.001092
3791.13	0.001077
3800.78	0.00089
3810.43	0.001168
3820.07	0.001039
3829.72	0.001098
3839.37	0.001056
3849.01	0.001083
3858.66	0.001077
3868.31	0.001091
3877.95	0.001131
3887.6	0.001156
3897.25	0.001044
3906.89	0.001202
3916.54	0.001124
3926.19	0.001053
3935.83	0.001089
3945.48	0.001049
3955.13	0.001045
3964.77	0.001206
3974.42	0.001099
3984.07	0.001135
3993.71	0.001091
