Infrared Spectrum: 4-Trifluoromethylbenzophenone
Formula: C 14 H 9 F 3 O
CAS: 728-86-9
State: gas
Origin: EPA-IR VAPOR PHASE LIBRARY
1/CM	ABSORBANCE
549.8	0.002308
559.445	0.003268
569.09	0.003138
578.734	0.003688
588.379	0.003348
598.024	0.005478
607.669	0.006408
617.313	0.005158
626.958	0.004478
636.603	0.006368
646.248	0.014418
655.893	0.042888
665.537	0.014068
675.182	0.013398
684.827	0.029798
694.472	0.078158
704.116	0.088228
713.761	0.074028
723.406	0.021468
733.051	0.012138
742.695	0.016218
752.34	0.016918
761.985	0.010728
771.63	0.015438
781.275	0.015518
790.919	0.012908
800.564	0.009428
810.209	0.007028
819.854	0.007438
829.498	0.010508
839.143	0.022448
848.788	0.045628
858.433	0.042228
868.078	0.015768
877.722	0.009808
887.367	0.008688
897.012	0.011118
906.657	0.019468
916.301	0.052188
925.946	0.081348
935.591	0.087548
945.236	0.029708
954.88	0.014118
964.525	0.013038
974.17	0.009798
983.815	0.005458
993.46	0.006528
1003.1	0.014088
1012.75	0.030958
1022.39	0.052318
1032.04	0.014468
1041.68	0.011038
1051.33	0.026888
1060.97	0.120498
1070.62	0.182708
1080.26	0.035828
1089.91	0.023768
1099.55	0.032338
1109.2	0.054648
1118.84	0.057458
1128.49	0.073528
1138.13	0.156388
1147.78	0.294398
1157.42	0.260188
1167.07	0.223438
1176.71	0.258608
1186.36	0.131608
1196	0.047468
1205.64	0.026928
1215.29	0.027008
1224.93	0.036988
1234.58	0.060808
1244.22	0.055948
1253.87	0.071658
1263.51	0.177118
1273.16	0.213288
1282.8	0.097058
1292.45	0.097568
1302.09	0.103538
1311.74	0.240988
1321.38	0.534578
1331.03	0.264078
1340.67	0.057498
1350.32	0.029038
1359.96	0.021518
1369.61	0.014988
1379.25	0.011288
1388.9	0.013218
1398.54	0.024728
1408.18	0.036698
1417.83	0.018038
1427.47	0.009998
1437.12	0.011568
1446.76	0.021428
1456.41	0.011338
1466.05	0.006168
1475.7	0.005368
1485.34	0.005288
1494.99	0.005838
1504.63	0.014498
1514.28	0.018988
1523.92	0.008518
1533.57	0.008708
1543.21	0.009098
1552.86	0.007828
1562.5	0.008528
1572.15	0.012748
1581.79	0.016968
1591.44	0.016618
1601.08	0.016918
1610.73	0.009508
1620.37	0.007928
1630.01	0.008458
1639.66	0.010978
1649.3	0.012678
1658.95	0.016478
1668.59	0.036798
1678.24	0.122558
1687.88	0.167188
1697.53	0.072168
1707.17	0.023378
1716.82	0.013318
1726.46	0.012098
1736.11	0.008718
1745.75	0.005898
1755.4	0.004998
1765.04	0.004568
1774.69	0.004448
1784.33	0.003908
1793.98	0.004528
1803.62	0.007418
1813.27	0.007558
1822.91	0.003378
1832.55	0.002158
1842.2	0.001978
1851.84	0.001828
1861.49	0.001998
1871.13	0.001958
1880.78	0.002088
1890.42	0.002838
1900.07	0.003668
1909.71	0.004148
1919.36	0.004848
1929	0.005398
1938.65	0.004248
1948.29	0.004008
1957.94	0.003978
1967.58	0.003568
1977.23	0.002568
1986.87	0.001648
1996.52	0.001278
2006.16	0.0009288
2015.81	0.0008589
2025.45	0.0008859
2035.1	0.0009976
2044.74	0.001001
2054.38	0.000941
2064.03	0.0009912
2073.67	0.0010918
2083.32	0.0011561
2092.96	0.001578
2102.61	0.001778
2112.25	0.0011271
2121.9	0.0008363
2131.54	0.0007068
2141.19	0.0006183
2150.83	0.0006236
2160.48	0.0006928
2170.12	0.0007742
2179.77	0.0008046
2189.41	0.0010262
2199.06	0.00108
2208.7	0.001268
2218.35	0.001338
2227.99	0.001358
2237.64	0.001358
2247.28	0.001328
2256.92	0.0011746
2266.57	0.001428
2276.21	0.002078
2285.86	0.002378
2295.5	0.002158
2305.15	0.001938
2314.79	0.002168
2324.44	0.002058
2334.08	0.001778
2343.73	0.001828
2353.37	0.001648
2363.02	0.001368
2372.66	0.001208
2382.31	0.0010752
2391.95	0.001268
2401.6	0.001608
2411.24	0.001678
2420.89	0.001388
2430.53	0.0011627
2440.18	0.0008683
2449.82	0.0008895
2459.47	0.0010147
2469.11	0.000954
2478.75	0.0008559
2488.4	0.0008036
2498.04	0.0007572
2507.69	0.000853
2517.33	0.0006218
2526.98	0.0004837
2536.62	0.0007327
2546.27	0.0006323
2555.91	0.0005933
2565.56	0.0005808
2575.2	0.0007944
2584.85	0.0009688
2594.49	0.0011725
2604.14	0.0009104
2613.78	0.000808
2623.43	0.001268
2633.07	0.001648
2642.72	0.001468
2652.36	0.0011457
2662.01	0.0006114
2671.65	0.0006194
2681.29	0.0005583
2690.94	0.0005874
2700.58	0.0006362
2710.23	0.0005713
2719.87	0.000617
2729.52	0.000681
2739.16	0.0010094
2748.81	0.0010024
2758.45	0.0009254
2768.1	0.0009523
2777.74	0.0005532
2787.39	0.0007384
2797.03	0.0008013
2806.68	0.0005483
2816.32	0.0008806
2825.97	0.0008147
2835.61	0.0010276
2845.26	0.0010835
2854.9	0.001268
2864.55	0.001468
2874.19	0.001748
2883.84	0.001508
2893.48	0.001518
2903.12	0.001074
2912.77	0.0010304
2922.41	0.001408
2932.06	0.001908
2941.7	0.001848
2951.35	0.0010424
2960.99	0.0011273
2970.64	0.0009611
2980.28	0.0011773
2989.93	0.001368
2999.57	0.001548
3009.22	0.002388
3018.86	0.004408
3028.51	0.008618
3038.15	0.012268
3047.8	0.010658
3057.44	0.014208
3067.09	0.025728
3076.73	0.027998
3086.38	0.021168
3096.02	0.015338
3105.67	0.009558
3115.31	0.004588
3124.95	0.002528
3134.6	0.002268
3144.24	0.001778
3153.89	0.001598
3163.53	0.0011144
3173.18	0.0010681
3182.82	0.0009895
3192.47	0.0005264
3202.11	0.0008167
3211.76	0.0004524
3221.4	0.000685
3231.05	0.0004958
3240.69	0.0006149
3250.34	0.0004474
3259.98	0.0003815
3269.63	0.0007233
3279.27	0.0005144
3288.92	0.0008533
3298.56	0.0007421
3308.21	0.000582
3317.85	0.0007382
3327.49	0.0010257
3337.14	0.001818
3346.78	0.002728
3356.43	0.002628
3366.07	0.001688
3375.72	0.0011255
3385.36	0.0008136
3395.01	0.000891
3404.65	0.0005897
3414.3	0.0006841
3423.94	0.0005654
3433.59	0.000871
3443.23	0.0004628
3452.88	0.0004021
3462.52	0.000317
3472.17	0.0004904
3481.81	0.00024898
3491.46	0.0007788
3501.1	0.000213753
3510.75	0.0004007
3520.39	0.0001568
3530.04	0.000209725
3539.68	0.0005379
3549.32	0.0002493
3558.97	0.0001851
3568.61	0.00024285
3578.26	0.0002016
3587.9	0.000212456
3597.55	0.0005017
3607.19	0.0002579
3616.84	0.0004583
3626.48	0.0005585
3636.13	0.0004009
3645.77	0.0006037
3655.42	0.0008009
3665.06	0.0006165
3674.71	0.0006359
3684.35	0.0006228
3694	0.000896
3703.64	0.0009244
3713.29	0.0010251
3722.93	0.0008828
3732.58	0.0006095
3742.22	0.0007738
3751.86	0.0004894
3761.51	0.0006839
3771.15	0.0004381
3780.8	0.0006916
3790.44	0.0007469
3800.09	0.0004372
3809.73	0.0003227
3819.38	0.0001165
3829.02	0.0004964
3838.67	0.0004838
3848.31	0.0008744
3857.96	0.0003574
3867.6	0.0005142
3877.25	0.0006132
3886.89	0.0005276
3896.54	0.0003864
3906.18	0.0004135
3915.83	0.0008018
3925.47	0.0005934
3935.12	0.0004016
3944.76	0.0004131
3954.41	0.0004239
3964.05	0.0004595
3973.69	0.0006268
3983.34	0.0006975
3992.98	0.0007794
