Infrared Spectrum: BROMO-DIBENZOYL-METHANE
Formula: C15 H11 Br O2
CAS: 728-84-7
State: SOLID (1.0% IN KBr PELLET)
Class: COBLENTZ
Instrument: Not specified, most likely a prism, grating, or hybrid spectrometer.
Sampling: TRANSMISSION
Path length: 0.0355 CM THICK
Resolution: 4
Origin: ANDERSON PHYSICAL LABORATORY
1/CM	TRANSMITTANCE
671.135	0.529
679.551	0.1722
687.968	0.2629
696.384	0.6298
704.801	0.676
713.217	0.72
721.634	0.745
730.05	0.675
738.467	0.586
746.883	0.693
755.299	0.403
763.716	0.5088
772.132	0.812
780.549	0.7211
788.965	0.6719
797.382	0.6491
805.798	0.4989
814.215	0.8239
822.631	0.945
831.048	0.945
839.464	0.917
847.88	0.89
856.297	0.879
864.713	0.787
873.13	0.918
881.546	0.909
889.963	0.897
898.379	0.884
906.796	0.87
915.212	0.857
923.628	0.828
932.045	0.7471
940.461	0.757
948.878	0.821
957.294	0.8
965.711	0.762
974.127	0.651
982.544	0.538
990.96	0.547
999.377	0.392
1007.79	0.669
1016.21	0.784
1024.63	0.729
1033.04	0.753
1041.46	0.818
1049.88	0.8
1058.29	0.762
1066.71	0.72
1075.12	0.651
1083.54	0.771
1091.96	0.768
1100.37	0.7151
1108.79	0.738
1117.21	0.736
1125.62	0.727
1134.04	0.703
1142.46	0.667
1150.87	0.542
1159.29	0.5
1167.71	0.545
1176.12	0.47
1184.54	0.2941
1192.95	0.2549
1201.37	0.5019
1209.79	0.627
1218.2	0.615
1226.62	0.521
1235.04	0.482
1243.45	0.396
1251.87	0.329
1260.29	0.342
1268.7	0.366
1277.12	0.2791
1285.54	0.142
1293.95	0.2849
1302.37	0.496
1310.79	0.469
1319.2	0.454
1327.62	0.508
1336.03	0.714
1344.45	0.718
1352.87	0.763
1361.28	0.757
1369.7	0.75
1378.12	0.727
1386.53	0.709
1394.95	0.685
1403.37	0.654
1411.78	0.651
1420.2	0.648
1428.62	0.636
1437.03	0.603
1445.45	0.4542
1453.86	0.4008
1462.28	0.587
1470.7	0.575
1479.11	0.566
1487.53	0.55
1495.95	0.569
1504.36	0.589
1512.78	0.532
1521.2	0.488
1529.61	0.479
1538.03	0.437
1546.45	0.428
1554.86	0.404
1563.28	0.38
1571.7	0.342
1580.11	0.281
1588.53	0.323
1596.94	0.231
1605.36	0.377
1613.78	0.443
1622.19	0.458
1630.61	0.454
1639.03	0.439
1647.44	0.401
1655.86	0.347
1664.28	0.162
1672.69	0.079
1681.11	0.172
1689.53	0.153
1697.94	0.184
1706.36	0.3169
1714.77	0.5619
1723.19	0.661
1731.61	0.739
1740.02	0.757
1748.44	0.766
1756.86	0.759
1765.27	0.747
1773.69	0.747
1782.11	0.754
1790.52	0.754
1798.94	0.747
1807.36	0.735
1815.77	0.738
1824.19	0.745
1832.61	0.75
1841.02	0.748
1849.44	0.745
1857.85	0.744
1866.27	0.744
1874.69	0.735
1883.1	0.724
1891.52	0.715
1899.94	0.7
1908.35	0.703
1916.77	0.706
1925.19	0.708
1933.6	0.708
1942.02	0.708
1950.44	0.7
1958.85	0.694
1967.27	0.681
1975.68	0.675
1984.1	0.681
1992.52	0.685
2000.93	0.69
2009.35	0.69
2017.77	0.688
2026.18	0.687
2034.6	0.6835
2043.02	0.6815
2051.43	0.6795
2059.85	0.6761
2068.27	0.673
2076.68	0.6711
2085.1	0.6693
2093.51	0.6661
2101.93	0.66
2110.35	0.658
2118.76	0.657
2127.18	0.655
2135.6	0.6536
2144.01	0.6516
2152.43	0.6496
2160.85	0.6432
2169.26	0.6416
2177.68	0.6396
2186.1	0.6376
2194.51	0.6342
2202.93	0.6327
2211.35	0.6267
2219.76	0.6213
2228.18	0.619
2236.59	0.6145
2245.01	0.6096
2253.43	0.6044
2261.84	0.5982
2270.26	0.5958
2278.68	0.5942
2287.09	0.5831
2295.51	0.5727
2303.93	0.5677
2312.34	0.566
2320.76	0.5686
2329.18	0.569
2337.59	0.5711
2346.01	0.5728
2354.42	0.574
2362.84	0.5723
2371.26	0.5708
2379.67	0.5673
2388.09	0.5638
2396.51	0.562
2404.92	0.559
2413.34	0.557
2421.76	0.5522
2430.17	0.548
2438.59	0.545
2447.01	0.544
2455.42	0.5414
2463.84	0.5393
2472.26	0.536
2480.67	0.5344
2489.09	0.5324
2497.5	0.53
2505.92	0.5269
2514.34	0.5237
2522.75	0.5219
2531.17	0.5184
2539.59	0.5169
2548	0.5111
2556.42	0.5069
2564.84	0.5052
2573.25	0.503
2581.67	0.502
2590.09	0.4995
2598.5	0.499
2606.92	0.497
2615.33	0.497
2623.75	0.497
2632.17	0.497
2640.58	0.497
2649	0.496
2657.42	0.496
2665.83	0.494
2674.25	0.4929
2682.67	0.4895
2691.08	0.486
2699.5	0.484
2707.92	0.479
2716.33	0.4752
2724.75	0.471
2733.17	0.4675
2741.58	0.466
2750	0.4638
2758.41	0.462
2766.83	0.4585
2775.25	0.457
2783.66	0.4548
2792.08	0.453
2800.5	0.4495
2808.91	0.4461
2817.33	0.4428
2825.75	0.4395
2834.16	0.4363
2842.58	0.436
2851	0.434
2859.41	0.4335
2867.83	0.4289
2876.24	0.4251
2884.66	0.4236
2893.08	0.4197
2901.49	0.416
2909.91	0.415
2918.33	0.4128
2926.74	0.4096
2935.16	0.4076
2943.58	0.4061
2951.99	0.4025
2960.41	0.3959
2968.83	0.3874
2977.24	0.3812
2985.66	0.3778
2994.08	0.3746
3002.49	0.3713
3010.91	0.3692
3019.32	0.368
3027.74	0.3698
3036.16	0.372
3044.57	0.3767
3052.99	0.3813
3061.41	0.3852
3069.82	0.389
3078.24	0.39
3086.66	0.39
3095.07	0.3896
3103.49	0.3878
3111.91	0.387
3120.32	0.3839
3128.74	0.3806
3137.15	0.3788
3145.57	0.378
3153.99	0.378
3162.4	0.378
3170.82	0.377
3179.24	0.377
3187.65	0.377
3196.07	0.3763
3204.49	0.375
3212.9	0.3723
3221.32	0.369
3229.74	0.368
3238.15	0.368
3246.57	0.368
3254.99	0.3679
3263.4	0.3657
3271.82	0.3603
3280.23	0.3574
3288.65	0.356
3297.07	0.3554
3305.48	0.3514
3313.9	0.3472
3322.32	0.3449
3330.73	0.341
3339.15	0.339
3347.57	0.338
3355.98	0.336
3364.4	0.3357
3372.82	0.335
3381.23	0.335
3389.65	0.336
3398.06	0.336
3406.48	0.336
3414.9	0.336
3423.31	0.336
3431.73	0.3383
3440.15	0.34
3448.56	0.3418
3456.98	0.344
3465.4	0.345
3473.81	0.345
3482.23	0.345
3490.65	0.345
3499.06	0.3455
3507.48	0.3475
3515.89	0.35
3524.31	0.353
3532.73	0.3545
3541.14	0.3595
3549.56	0.3627
3557.98	0.3649
3566.39	0.368
3574.81	0.369
3583.23	0.369
3591.64	0.3632
3600.06	0.3554
3608.48	0.3521
3616.89	0.351
3625.31	0.3481
3633.73	0.345
3642.14	0.344
3650.56	0.344
3658.97	0.344
3667.39	0.3442
3675.81	0.345
3684.22	0.345
3692.64	0.345
3701.06	0.345
3709.47	0.345
3717.89	0.345
3726.31	0.3441
3734.72	0.3437
3743.14	0.341
3751.56	0.339
3759.97	0.3381
3768.39	0.338
3776.8	0.338
3785.22	0.338
3793.64	0.336
3802.05	0.3347
3810.47	0.3326
3818.89	0.332
3827.3	0.33
3835.72	0.3269
3844.14	0.324
3852.55	0.3234
3860.97	0.3213
3869.39	0.321
3877.8	0.321
3886.22	0.321
3894.64	0.3201
3903.05	0.32
3911.47	0.32
3919.88	0.3188
3928.3	0.318
3936.72	0.318
3945.13	0.318
3953.55	0.3174
3961.97	0.317
3970.38	0.315
3978.8	0.315
