Infrared Spectrum: BENZHYDROL, 4,4'-DIMETHOXY
Formula: C15 H16 O3
CAS: 728-87-0
State: THIN FILM FROM C2HCl3 SOLUTION
Class: COBLENTZ II
Instrument: PERKIN-ELMER 180 (GRATING)
Instrument parameters: GRATINGS: 2000, 1000, 500, 250 CM^-^1; FILTER CHANGE: 2970, 2000, 1485, 1000, 743, 500, 372, 250, 186 CM^-^1.
Sampling: TRANSMISSION
Resolution: 2
Origin: K. K. DEB-NCI FREDERICK CANCER RESEARCH CENTER
1/CM	TRANSMITTANCE
405	0.8749
414	0.8736
423	0.8879
432	0.9073
441	0.8758
450	0.8836
459	0.9095
468	0.8865
477	0.8712
486	0.9099
495	0.893
504	0.8611
513	0.8105
522	0.7485
531	0.7958
540	0.6457
549	0.408
558	0.3289
567	0.3789
576	0.6138
585	0.7951
594	0.7172
603	0.6952
612	0.8233
621	0.8287
630	0.7915
639	0.6502
648	0.7935
657	0.7804
666	0.7816
675	0.7955
684	0.8129
693	0.8308
702	0.8525
711	0.8497
720	0.8491
729	0.8551
738	0.8538
747	0.8738
756	0.863
765	0.835
774	0.5451
783	0.413
792	0.7164
801	0.7774
810	0.3059
819	0.2616
828	0.3346
837	0.4299
846	0.5248
855	0.4968
864	0.4997
873	0.7302
882	0.8738
891	0.8959
900	0.8992
909	0.9018
918	0.9018
927	0.8907
936	0.8495
945	0.819
954	0.8682
963	0.8455
972	0.8545
981	0.805
990	0.7262
999	0.5463
1008	0.4839
1017	0.4
1026	0.2691
1035	0.1173
1044	0.1772
1053	0.5208
1062	0.6853
1071	0.7572
1080	0.7981
1089	0.8194
1098	0.823
1107	0.7674
1116	0.4713
1125	0.6785
1134	0.7524
1143	0.7799
1152	0.7438
1161	0.6583
1170	0.1557
1179	0.1538
1188	0.4932
1197	0.5932
1206	0.6456
1215	0.6951
1224	0.5557
1233	0.3825
1242	0.0922
1251	0.0584
1260	0.0817
1269	0.3113
1278	0.3174
1287	0.2874
1296	0.4259
1305	0.3359
1314	0.5971
1323	0.52
1332	0.5495
1341	0.595
1350	0.6709
1359	0.7439
1368	0.7576
1377	0.7698
1386	0.7669
1395	0.7578
1404	0.7012
1413	0.5959
1422	0.5691
1431	0.6396
1440	0.527
1449	0.4783
1458	0.4624
1467	0.3876
1476	0.5448
1485	0.6766
1494	0.5294
1503	0.2933
1512	0.0953
1521	0.2226
1530	0.6253
1539	0.7569
1548	0.819
1557	0.828
1566	0.8198
1575	0.7874
1584	0.5716
1593	0.5553
1602	0.5293
1611	0.276
1620	0.3634
1629	0.6923
1638	0.7803
1647	0.8118
1656	0.8255
1665	0.8398
1674	0.8434
1683	0.8376
1692	0.8598
1701	0.8717
1710	0.8759
1719	0.876
1728	0.8749
1737	0.8732
1746	0.8714
1755	0.8694
1764	0.8621
1773	0.8515
1782	0.8497
1791	0.8609
1800	0.8643
1809	0.8637
1818	0.868
1827	0.8677
1836	0.865
1845	0.8614
1854	0.8598
1863	0.8558
1872	0.8468
1881	0.8177
1890	0.7721
1899	0.7765
1908	0.8002
1917	0.8431
1926	0.8569
1935	0.856
1944	0.8525
1953	0.8507
1962	0.853
1971	0.8563
1980	0.8542
1989	0.8475
1998	0.8354
2007	0.8095
2016	0.7903
2025	0.7896
2034	0.7995
2043	0.7938
2052	0.7699
2061	0.7523
2070	0.7733
2079	0.7962
2088	0.8181
2097	0.824
2106	0.8246
2115	0.8247
2124	0.8252
2133	0.83
2142	0.8311
2151	0.8304
2160	0.8288
2169	0.8264
2178	0.8238
2187	0.8207
2196	0.8177
2205	0.8159
2214	0.8142
2223	0.8142
2232	0.8156
2241	0.8163
2250	0.8146
2259	0.8131
2268	0.8067
2277	0.7935
2286	0.7797
2295	0.7885
2304	0.7974
2313	0.804
2322	0.8065
2331	0.8061
2340	0.8042
2349	0.8014
2358	0.7991
2367	0.7975
2376	0.7964
2385	0.7967
2394	0.7981
2403	0.7964
2412	0.7908
2421	0.7841
2430	0.7822
2439	0.7826
2448	0.7827
2457	0.7821
2466	0.7774
2475	0.7686
2484	0.7563
2493	0.7539
2502	0.7554
2511	0.7576
2520	0.7586
2529	0.7579
2538	0.7509
2547	0.7397
2556	0.737
2565	0.7466
2574	0.7439
2583	0.7376
2592	0.7322
2601	0.7313
2610	0.7314
2619	0.7292
2628	0.722
2637	0.7132
2646	0.7059
2655	0.703
2664	0.7033
2673	0.7059
2682	0.7085
2691	0.7119
2700	0.7155
2709	0.7174
2718	0.7179
2727	0.7157
2736	0.7132
2745	0.7103
2754	0.708
2763	0.7072
2772	0.7065
2781	0.7059
2790	0.6987
2799	0.687
2808	0.6711
2817	0.6522
2826	0.6225
2835	0.5499
2844	0.3423
2853	0.6082
2862	0.6239
2871	0.6208
2880	0.5571
2889	0.4727
2898	0.4775
2907	0.4571
2916	0.4617
2925	0.4927
2934	0.4608
2943	0.4407
2952	0.4719
2961	0.384
2970	0.3975
2979	0.5095
2988	0.5919
2997	0.5528
3006	0.4909
3015	0.4888
3024	0.5578
3033	0.5543
3042	0.5511
3051	0.5794
3060	0.5615
3069	0.551
3078	0.5735
3087	0.5835
3096	0.58
3105	0.5606
3114	0.5531
3123	0.5356
3132	0.5164
3141	0.497
3150	0.4778
3159	0.4584
3168	0.4349
3177	0.4093
3186	0.3895
3195	0.3702
3204	0.3509
3213	0.3327
3222	0.3162
3231	0.3007
3240	0.2837
3249	0.2687
3258	0.2583
3267	0.2494
3276	0.2437
3285	0.2414
3294	0.2402
3303	0.2412
3312	0.2443
3321	0.2533
3330	0.2661
3339	0.2827
3348	0.2999
3357	0.3197
3366	0.3435
3375	0.3692
3384	0.391
3393	0.416
3402	0.4443
3411	0.4666
3420	0.4849
3429	0.5026
3438	0.522
3447	0.5465
3456	0.5745
3465	0.5995
3474	0.6193
3483	0.6333
3492	0.6466
3501	0.6557
3510	0.6644
3519	0.6731
3528	0.6804
3537	0.6872
3546	0.6941
3555	0.6978
3564	0.7014
3573	0.7038
3582	0.7054
3591	0.7071
3600	0.7115
3609	0.7173
3618	0.7213
3627	0.7237
3636	0.7247
3645	0.7248
3654	0.7212
3663	0.7182
3672	0.7164
3681	0.718
3690	0.7195
3699	0.7208
3708	0.7205
3717	0.7201
3726	0.7198
3735	0.7195
3744	0.7193
3753	0.7191
3762	0.7188
3771	0.7185
3780	0.7182
3789	0.7179
3798	0.7177
