Infrared Spectrum: 1-Benzyl-5-phenylbarbituric acid
Formula: C 17 H 14 N 2 O 3
CAS: 72846-00-5
State: gas
Origin: EPA-IR VAPOR PHASE LIBRARY
1/CM	ABSORBANCE
549.9	0.00076889
559.547	0.00071478
569.193	0.000469
578.84	0.0006678
588.486	0.0012386
598.133	0.0014866
607.779	0.0013964
617.426	0.001766
627.072	0.002076
636.719	0.001866
646.365	0.0013762
656.012	0.0012295
665.658	0.001886
675.305	0.002006
684.951	0.002556
694.598	0.003506
704.245	0.003116
713.891	0.003446
723.538	0.002896
733.184	0.001856
742.831	0.001926
752.477	0.003016
762.124	0.002596
771.77	0.0012818
781.417	0.000929
791.063	0.0009322
800.71	0.00074275
810.356	0.0008215
820.003	0.0008991
829.649	0.0008626
839.296	0.00068833
848.943	0.00073707
858.589	0.00076345
868.236	0.000818
877.882	0.00079322
887.529	0.0008262
897.175	0.0008606
906.822	0.0010308
916.468	0.0011542
926.115	0.0009695
935.761	0.0008621
945.408	0.00078367
955.054	0.00078368
964.701	0.00072472
974.347	0.00072448
983.994	0.00072242
993.64	0.00075644
1003.29	0.0008919
1012.93	0.0008583
1022.58	0.0010288
1032.23	0.0012769
1041.87	0.0008764
1051.52	0.0009369
1061.17	0.0010666
1070.81	0.0011812
1080.46	0.0012083
1090.11	0.0010031
1099.75	0.0009974
1109.4	0.0010074
1119.05	0.0008505
1128.69	0.0008064
1138.34	0.0009103
1147.99	0.000936
1157.63	0.0016221
1167.28	0.002546
1176.92	0.004086
1186.57	0.003376
1196.22	0.002096
1205.86	0.0014446
1215.51	0.0012209
1225.16	0.0013332
1234.8	0.0013813
1244.45	0.001786
1254.1	0.001906
1263.74	0.002356
1273.39	0.002836
1283.04	0.003466
1292.68	0.004456
1302.33	0.005726
1311.98	0.007496
1321.62	0.008056
1331.27	0.008036
1340.92	0.007916
1350.56	0.006776
1360.21	0.005746
1369.86	0.005086
1379.5	0.006646
1389.15	0.009846
1398.79	0.011766
1408.44	0.009836
1418.09	0.006026
1427.73	0.003946
1437.38	0.005786
1447.03	0.004716
1456.67	0.002326
1466.32	0.0016145
1475.97	0.0014367
1485.61	0.0015624
1495.26	0.002696
1504.91	0.001876
1514.55	0.00124
1524.2	0.0011155
1533.85	0.0009752
1543.49	0.0009122
1553.14	0.0008552
1562.79	0.0008728
1572.43	0.0009987
1582.08	0.0011336
1591.73	0.0011997
1601.37	0.0014231
1611.02	0.0012539
1620.67	0.0010381
1630.31	0.0010895
1639.96	0.0011445
1649.6	0.0011807
1659.25	0.0014564
1668.9	0.001796
1678.54	0.002346
1688.19	0.003186
1697.84	0.005136
1707.48	0.011806
1717.13	0.023326
1726.78	0.013726
1736.42	0.011606
1746.07	0.024516
1755.72	0.022686
1765.36	0.009956
1775.01	0.005376
1784.66	0.003226
1794.3	0.002456
1803.95	0.001996
1813.6	0.0016846
1823.24	0.0014367
1832.89	0.0011971
1842.54	0.0011391
1852.18	0.0010707
1861.83	0.0010413
1871.47	0.0009972
1881.12	0.0009798
1890.77	0.0010277
1900.41	0.000991
1910.06	0.0009113
1919.71	0.0009238
1929.35	0.0009233
1939	0.0009441
1948.65	0.0009571
1958.29	0.0009509
1967.94	0.0008674
1977.59	0.00075346
1987.23	0.0008007
1996.88	0.0008007
2006.53	0.00077882
2016.17	0.00078116
2025.82	0.00077178
2035.47	0.00075845
2045.11	0.00078751
2054.76	0.00079301
2064.41	0.00077725
2074.05	0.0008052
2083.7	0.00077295
2093.35	0.00075619
2102.99	0.00074594
2112.64	0.00076244
2122.28	0.00078881
2131.93	0.00077809
2141.58	0.00078504
2151.22	0.00076518
2160.87	0.00077264
2170.52	0.00078585
2180.16	0.0008037
2189.81	0.000808
2199.46	0.0008094
2209.1	0.0008072
2218.75	0.0008237
2228.4	0.00077867
2238.04	0.0008142
2247.69	0.0008161
2257.34	0.0008089
2266.98	0.0008276
2276.63	0.0008634
2286.28	0.0008511
2295.92	0.0008402
2305.57	0.0008157
2315.22	0.0008409
2324.86	0.0008588
2334.51	0.000771
2344.16	0.0008241
2353.8	0.00077364
2363.45	0.00075443
2373.09	0.0008093
2382.74	0.0008162
2392.39	0.0007988
2402.03	0.0007829
2411.68	0.0008027
2421.33	0.00078281
2430.97	0.000801
2440.62	0.00079135
2450.27	0.00077136
2459.91	0.00079534
2469.56	0.0007962
2479.21	0.0007967
2488.85	0.00075213
2498.5	0.00079349
2508.15	0.0008089
2517.79	0.0008135
2527.44	0.00077504
2537.09	0.0008287
2546.73	0.0008218
2556.38	0.0008227
2566.03	0.00077713
2575.67	0.00078762
2585.32	0.0007972
2594.96	0.0008208
2604.61	0.00077
2614.26	0.00075794
2623.9	0.0007995
2633.55	0.00072198
2643.2	0.00075237
2652.84	0.00076584
2662.49	0.00076889
2672.14	0.00070618
2681.78	0.00078054
2691.43	0.00072008
2701.08	0.00078625
2710.72	0.00071783
2720.37	0.0008295
2730.02	0.00077517
2739.66	0.00078341
2749.31	0.00073677
2758.96	0.00076214
2768.6	0.00075588
2778.25	0.00078684
2787.9	0.00071283
2797.54	0.00076361
2807.19	0.00075309
2816.84	0.00068998
2826.48	0.000697108
2836.13	0.00071873
2845.77	0.000703162
2855.42	0.00076438
2865.07	0.0008056
2874.71	0.00071581
2884.36	0.00075374
2894.01	0.000708
2903.65	0.00071331
2913.3	0.00076799
2922.95	0.00079328
2932.59	0.0008667
2942.24	0.0008369
2951.89	0.0008887
2961.53	0.0008812
2971.18	0.0010991
2980.83	0.0009783
2990.47	0.000822
3000.12	0.000672
3009.77	0.00074207
3019.41	0.0009436
3029.06	0.0013472
3038.71	0.001926
3048.35	0.001706
3058	0.0014059
3067.64	0.002196
3077.29	0.002596
3086.94	0.001498
3096.58	0.0013656
3106.23	0.0010242
3115.88	0.00074393
3125.52	0.000502
3135.17	0.000366
3144.82	0.000306
3154.46	0.000475
3164.11	0.000455
3173.76	0.000351
3183.4	0.000337
3193.05	0.000256
3202.7	0.000323
3212.34	0.000258
3221.99	0.000275
3231.64	0.000175
3241.28	0.00018
3250.93	0.000135
3260.58	0.000173
3270.22	0.00018
3279.87	0.000224
3289.52	0.000225
3299.16	0.000196
3308.81	0.000165
3318.45	0.000128
3328.1	0.00012
3337.75	6.9e-05
3347.39	0.000144
3357.04	0.000186
3366.69	0.000118
3376.33	0.000185
3385.98	0.000207
3395.63	0.00015
3405.27	0.000247
3414.92	0.0014048
3424.57	0.003746
3434.21	0.003276
3443.86	0.00077273
3453.51	0.000547
3463.15	0.0006183
3472.8	0.000506
3482.45	0.000436
3492.09	0.000433
3501.74	0.000345
3511.39	0.00034
3521.03	0.000212
3530.68	0.000262
3540.33	0.000274
3549.97	0.000292
3559.62	0.000217
3569.26	0.000269
3578.91	0.000333
3588.56	0.000245
3598.2	0.000241
3607.85	0.000304
3617.5	0.000209
3627.14	0.000272
3636.79	0.000296
3646.44	0.000259
3656.08	0.000216
3665.73	0.000404
3675.38	0.000268
3685.02	0.000278
3694.67	0.000237
3704.32	0.0003
3713.96	0.000368
3723.61	0.000321
3733.26	0.000269
3742.9	0.000209
3752.55	0.00024
3762.2	0.000319
3771.84	0.000377
3781.49	0.000344
3791.13	0.000357
3800.78	0.000336
3810.43	0.000331
3820.07	0.000253
3829.72	0.000329
3839.37	0.000417
3849.01	0.000321
3858.66	0.000476
3868.31	0.000352
3877.95	0.00042
3887.6	0.000415
3897.25	0.000434
3906.89	0.000429
3916.54	0.000423
3926.19	0.000412
3935.83	0.000401
3945.48	0.000442
3955.13	0.000438
3964.77	0.000345
3974.42	0.000406
3984.07	0.000515
3993.71	0.000412
