Infrared Spectrum: Chloramben methyl
Formula: C 8 H 7 Cl 2 N O 2
CAS: 7286-84-2
State: gas
Instrument: HP-GC/MS/IRD
Origin: NIST Mass Spectrometry Data Center
1/CM	ABSORBANCE
550	0.0002112
562	0.0001308
574	0.0001158
586	7.8e-05
598	9.66e-05
610	0.0001122
622	0.0001425
634	5.04e-05
646	4.08e-05
658	0.0001623
670	0.0002292
682	0.0002838
694	0.0002946
706	0.0002124
718	0.0002058
730	0.0002727
742	0.0004143
754	0.0004191
766	0.0002364
778	0.0002748
790	0.0002118
802	0.0002118
814	0.0001398
826	0.0001869
838	0.0003609
850	0.000657
862	0.0003828
874	0.000168
886	0.0001134
898	6.87e-05
910	0.0001227
922	0.0002718
934	0.0005349
946	0.0003993
958	0.0001677
970	5.76e-05
982	0.0001422
994	0.0002802
1006	0.0006207
1018	0.000462
1030	0.0003828
1042	0.0005892
1054	0.0005001
1066	0.0001593
1078	0.0002514
1090	0.0006396
1102	0.0009183
1114	0.000684
1126	0.0004401
1138	0.0002049
1150	0.0002865
1162	0.0005847
1174	0.0015099
1186	0.0017292
1198	0.0014925
1210	0.0006237
1222	0.0002994
1234	0.0007689
1246	0.0017904
1258	0.0012213
1270	0.0007095
1282	0.0011655
1294	0.0012297
1306	0.0020997
1318	0.002901
1330	0.0010803
1342	0.0003342
1354	0.0002091
1366	0.0001161
1378	8.88e-05
1390	9.78e-05
1402	0.0002298
1414	0.0007299
1426	0.00096
1438	0.0009888
1450	0.00087
1462	0.000786
1474	0.0003555
1486	0.0002187
1498	0.0001695
1510	0.0001065
1522	0.0001266
1534	0.0001305
1546	0.000198
1558	0.0003915
1570	0.0008889
1582	0.0008715
1594	0.0006255
1606	0.0012237
1618	0.0017961
1630	0.0009837
1642	0.0003933
1654	0.0002355
1666	0.0001719
1678	0.0001635
1690	0.0001554
1702	0.0002022
1714	0.0003531
1726	0.0006354
1738	0.0011838
1750	0.0023739
1762	0.0019722
1774	0.0009348
1786	0.0004227
1798	0.0001578
1810	7.41e-05
1822	6.57e-05
1834	2.73e-05
1846	1.47e-05
1858	2.25e-05
1870	2.55e-05
1882	1.32e-05
1894	2.22e-05
1906	0
1918	8.4e-06
1930	3.18e-05
1942	2.85e-05
1954	3.54e-05
1966	3.15e-05
1978	2.67e-05
1990	1.47e-05
2002	2.64e-05
2014	3.54e-05
2026	4.32e-05
2038	6.27e-05
2050	4.23e-05
2062	2.79e-05
2074	5.76e-05
2086	3.18e-05
2098	5.31e-05
2110	4.02e-05
2122	2.31e-05
2134	3.72e-05
2146	4.47e-05
2158	2.94e-05
2170	3.09e-05
2182	2.88e-05
2194	2.61e-05
2206	4.29e-05
2218	3.21e-05
2230	2.1e-05
2242	2.79e-05
2254	2.16e-05
2266	1.56e-05
2278	3.45e-05
2290	2.76e-05
2302	3.24e-05
2314	4.71e-05
2326	5.58e-05
2338	2.46e-05
2350	5.58e-05
2362	6.54e-05
2374	3.66e-05
2386	4.35e-05
2398	4.29e-05
2410	3.33e-05
2422	5.91e-05
2434	2.4e-05
2446	4.02e-05
2458	4.35e-05
2470	4.08e-05
2482	2.82e-05
2494	2.94e-05
2506	4.41e-05
2518	6.66e-05
2530	3.27e-05
2542	3.3e-05
2554	6.78e-05
2566	2.25e-05
2578	5.49e-05
2590	6.09e-05
2602	8.01e-05
2614	3.66e-05
2626	7.56e-05
2638	7.08e-05
2650	6.06e-05
2662	4.56e-05
2674	4.23e-05
2686	8.76e-05
2698	5.37e-05
2710	8.16e-05
2722	6.48e-05
2734	8.91e-05
2746	6.75e-05
2758	8.46e-05
2770	5.34e-05
2782	7.38e-05
2794	7.83e-05
2806	7.41e-05
2818	9.69e-05
2830	0.0001008
2842	0.0001419
2854	0.0001437
2866	0.0001362
2878	0.0001224
2890	0.0001143
2902	0.0001569
2914	0.0001056
2926	0.0001392
2938	0.000168
2950	0.0002994
2962	0.0006711
2974	0.0003132
2986	0.000132
2998	0.000174
3010	0.0002187
3022	0.0001515
3034	0.000177
3046	0.000126
3058	0.0001296
3070	0.0001017
3082	9.06e-05
3094	0.0001125
3106	4.5e-05
3118	7.68e-05
3130	5.37e-05
3142	0.0001332
3154	7.02e-05
3166	5.22e-05
3178	8.88e-05
3190	8.61e-05
3202	6.21e-05
3214	9.24e-05
3226	8.07e-05
3238	5.25e-05
3250	7.53e-05
3262	8.52e-05
3274	7.41e-05
3286	7.98e-05
3298	8.58e-05
3310	0.0001146
3322	6.87e-05
3334	5.97e-05
3346	7.83e-05
3358	0.0001029
3370	9.15e-05
3382	9.3e-05
3394	0.0001818
3406	0.0002763
3418	0.0004419
3430	0.0003318
3442	0.0001362
3454	0.0001149
3466	0.0001047
3478	8.76e-05
3490	0.0001632
3502	0.0002973
3514	0.0003303
3526	0.0002124
3538	0.0001281
3550	7.74e-05
3562	4.38e-05
3574	4.65e-05
3586	0.0001371
3598	5.67e-05
3610	3.96e-05
3622	0.0001287
3634	5.28e-05
3646	6.42e-05
3658	5.4e-05
3670	6.24e-05
3682	1.32e-05
3694	2.79e-05
3706	5.52e-05
3718	0.0001095
3730	5.49e-05
3742	6.45e-05
3754	8.7e-06
3766	3.93e-05
3778	0.0001002
3790	8.73e-05
3802	7.59e-05
3814	4.02e-05
3826	4.77e-05
3838	0.000108
