Infrared Spectrum: Prometryne
Formula: C 10 H 19 N 5 S
CAS: 7287-19-6
State: gas
Instrument: HP-GC/MS/IRD
Origin: NIST Mass Spectrometry Data Center
1/CM	ABSORBANCE
550	0.0081532
562	0.0047088
574	0.0021364
586	0.0014824
598	0.0011772
610	0.0009156
622	0.0007412
634	0.0005232
646	0.0002616
658	0.0004796
670	0.0011772
682	0.0007412
694	0.0013516
706	0.0016132
718	0.0011772
730	0.0010028
742	0.0005232
754	0.0001308
766	0.0002616
778	0.0005668
790	0.0010028
802	0.0049268
814	0.0139084
826	0.0060168
838	0.0048832
850	0.003706
862	0.0029212
874	0.0043164
886	0.0073248
898	0.0112924
910	0.01308
922	0.0123824
934	0.0102024
946	0.0075864
958	0.0077172
970	0.0085892
982	0.0073248
994	0.0079352
1006	0.011336
1018	0.01635
1030	0.0078044
1042	0.0035316
1054	0.0026596
1066	0.0027032
1078	0.0033572
1090	0.0044908
1102	0.0060604
1114	0.00981
1126	0.0156088
1138	0.0160884
1150	0.0195764
1162	0.0330924
1174	0.0690188
1186	0.0499656
1198	0.0228464
1210	0.0207536
1222	0.0164372
1234	0.0123388
1246	0.01526
1258	0.0348364
1270	0.030084
1282	0.0196636
1294	0.0296916
1306	0.0508376
1318	0.0487012
1330	0.049922
1342	0.0540204
1354	0.0491808
1366	0.0476548
1378	0.057988
1390	0.05668
1402	0.051884
1414	0.0576392
1426	0.0452132
1438	0.0371036
1450	0.0538024
1462	0.0766488
1474	0.10307
1486	0.145275
1498	0.148981
1510	0.123519
1522	0.112008
1534	0.207318
1546	0.397196
1558	0.410145
1570	0.263998
1582	0.122603
1594	0.0510556
1606	0.0303892
1618	0.0207972
1630	0.014606
1642	0.0105512
1654	0.0081096
1666	0.0066272
1678	0.0049704
1690	0.0037932
1702	0.0032264
1714	0.0025724
1726	0.0021364
1738	0.0018312
1750	0.0016568
1762	0.001526
1774	0.0014824
1786	0.0014824
1798	0.0016132
1810	0.0016568
1822	0.0014388
1834	0.0013516
1846	0.0013952
1858	0.0013516
1870	0.0012208
1882	0.0010028
1894	0.0008284
1906	0.000654
1918	0.000654
1930	0.000654
1942	0.0004796
1954	0.0003924
1966	0.0003052
1978	0.0003052
1990	0.0003488
2002	0.0002616
2014	0.0002616
2026	0.0003924
2038	0.000436
2050	0.000436
2062	0.0002616
2074	0.0001744
2086	0.0002616
2098	0.000218
2110	0.0001744
2122	0.0001744
2134	0.0001308
2146	0.0001744
2158	0.0001308
2170	0.0001308
2182	0.0001744
2194	0.0001744
2206	0.0001308
2218	0.0001744
2230	0.0002616
2242	0.000218
2254	0.0003052
2266	0.0004796
2278	0.000654
2290	0.0008284
2302	0.0009592
2314	0.0009592
2326	0.0007412
2338	0.000654
2350	0.000654
2362	0.0007412
2374	0.0009156
2386	0.0009156
2398	0.000872
2410	0.0008284
2422	0.0007412
2434	0.0006976
2446	0.000872
2458	0.0012208
2470	0.0016132
2482	0.0017876
2494	0.001744
2506	0.001526
2518	0.0012208
2530	0.0009156
2542	0.0005668
2554	0.000436
2566	0.0005232
2578	0.0005668
2590	0.0005232
2602	0.000436
2614	0.0004796
2626	0.0004796
2638	0.0005232
2650	0.0006104
2662	0.0004796
2674	0.0005668
2686	0.000654
2698	0.0006976
2710	0.0007412
2722	0.00109
2734	0.001308
2746	0.0012644
2758	0.0012208
2770	0.0013952
2782	0.0012208
2794	0.0012208
2806	0.0014388
2818	0.0019184
2830	0.002398
2842	0.0031828
2854	0.00436
2866	0.0070632
2878	0.0141264
2890	0.0140392
2902	0.01199
2914	0.0162192
2926	0.0224104
2938	0.0360136
2950	0.0217128
2962	0.0253752
2974	0.0487012
2986	0.0449516
2998	0.0150856
3010	0.0078916
3022	0.0045344
3034	0.0027032
3046	0.001962
3058	0.0016568
3070	0.0014824
3082	0.0016132
3094	0.001744
3106	0.001744
3118	0.0016568
3130	0.0013516
3142	0.0010464
3154	0.0009156
3166	0.0008284
3178	0.0008284
3190	0.0007848
3202	0.000654
3214	0.0005232
3226	0.0003488
3238	0.0001744
3250	8.72e-05
3262	4.36e-05
3274	4.36e-05
3286	0
3298	4.36e-05
3310	0
3322	0
3334	0
3346	0.0001744
3358	0.0001744
3370	0.000218
3382	0.0003052
3394	0.0005668
3406	0.0011336
3418	0.002616
3430	0.0082404
3442	0.0212332
3454	0.0179632
3466	0.0057116
3478	0.00218
3490	0.0012208
3502	0.0007848
3514	0.0005232
3526	0.0004796
3538	0.0003052
3550	0.0002616
3562	0.000218
3574	0.0001744
3586	0.000218
3598	0.0002616
3610	0.000218
3622	0.000218
3634	0.000218
3646	0.0001744
3658	0.0002616
3670	8.72e-05
3682	0.0001308
3694	0.000218
3706	0.000218
3718	0.000218
3730	0.0001744
3742	0.0001308
3754	0.000218
3766	0.000218
3778	0.000218
3790	0.0002616
3802	0.0002616
3814	0.0003052
3826	0.0003488
3838	0.0003488
