Infrared Spectrum: Acetophenone azine
Formula: C 16 H 16 N 2
CAS: 729-43-1
State: gas
Origin: EPA-IR VAPOR PHASE LIBRARY
1/CM	ABSORBANCE
551.7	0.01349
563.274	0.02275
574.848	0.01215
586.421	0.00589
597.995	0.00535
609.569	0.00651
621.143	0.00688
632.717	0.00787
644.291	0.0135
655.864	0.02511
667.438	0.03183
679.012	0.05559
690.586	0.09118
702.16	0.06026
713.734	0.02828
725.307	0.02027
736.881	0.02536
748.455	0.05478
760.029	0.07033
771.603	0.03194
783.177	0.015
794.75	0.00791
806.324	0.00376
817.898	0.00249
829.472	0.00203
841.046	0.002
852.619	0.0022
864.193	0.00282
875.767	0.00389
887.341	0.00491
898.915	0.00615
910.489	0.00813
922.062	0.00624
933.636	0.00479
945.21	0.00454
956.784	0.00471
968.358	0.00594
979.932	0.00634
991.505	0.0059
1003.08	0.00742
1014.65	0.01789
1026.23	0.04633
1037.8	0.01388
1049.37	0.01004
1060.95	0.01239
1072.52	0.02268
1084.1	0.02136
1095.67	0.01185
1107.24	0.00686
1118.82	0.00501
1130.39	0.00398
1141.97	0.00283
1153.54	0.0036
1165.11	0.00424
1176.69	0.016
1188.26	0.0133
1199.83	0.00428
1211.41	0.00456
1222.98	0.0077
1234.56	0.0111
1246.13	0.00902
1257.7	0.01325
1269.28	0.02748
1280.85	0.06365
1292.42	0.06877
1304	0.03665
1315.57	0.01959
1327.15	0.01218
1338.72	0.01126
1350.29	0.01916
1361.87	0.04903
1373.44	0.06217
1385.02	0.02797
1396.59	0.01569
1408.16	0.01357
1419.74	0.01545
1431.31	0.02317
1442.88	0.03441
1454.46	0.02379
1466.03	0.01361
1477.61	0.01297
1489.18	0.02678
1500.75	0.02191
1512.33	0.0117
1523.9	0.01193
1535.48	0.01214
1547.05	0.01351
1558.62	0.0181
1570.2	0.02875
1581.77	0.02833
1593.34	0.03889
1604.92	0.0767
1616.49	0.06346
1628.07	0.02476
1639.64	0.01268
1651.21	0.00956
1662.79	0.00927
1674.36	0.00853
1685.93	0.00477
1697.51	0.0034
1709.08	0.00302
1720.66	0.00337
1732.23	0.00419
1743.8	0.00472
1755.38	0.00373
1766.95	0.00293
1778.53	0.0038
1790.1	0.0064
1801.67	0.00755
1813.25	0.00408
1824.82	0.00353
1836.39	0.00232
1847.97	0.00234
1859.54	0.00316
1871.12	0.00463
1882.69	0.00603
1894.26	0.00569
1905.84	0.00273
1917.41	0.00254
1928.99	0.00401
1940.56	0.00613
1952.13	0.00686
1963.71	0.00499
1975.28	0.00183
1986.85	0.00136
1998.43	0.00117
2010	0.0009172
2021.58	0.0008382
2033.15	0.0008022
2044.72	0.0008443
2056.3	0.0009267
2067.87	0.0008467
2079.44	0.0007661
2091.02	0.0007957
2102.59	0.0008493
2114.17	0.0008381
2125.74	0.000741
2137.31	0.0006679
2148.89	0.000639
2160.46	0.0006202
2172.04	0.0006258
2183.61	0.0006312
2195.18	0.0005514
2206.76	0.0005947
2218.33	0.0006154
2229.9	0.0006907
2241.48	0.0007993
2253.05	0.0009007
2264.63	0.00104
2276.2	0.00116
2287.77	0.00119
2299.35	0.00115
2310.92	0.00187
2322.5	0.00181
2334.07	0.00152
2345.64	0.00146
2357.22	0.00131
2368.79	0.00129
2380.36	0.00112
2391.94	0.00101
2403.51	0.0009348
2415.09	0.0009041
2426.66	0.0009015
2438.23	0.0009033
2449.81	0.0008726
2461.38	0.0008132
2472.96	0.0007923
2484.53	0.0006947
2496.1	0.0006853
2507.68	0.0006736
2519.25	0.0006884
2530.82	0.0007274
2542.4	0.0007787
2553.97	0.000781
2565.55	0.0008872
2577.12	0.00103
2588.69	0.00128
2600.27	0.00132
2611.84	0.00111
2623.41	0.00126
2634.99	0.00129
2646.56	0.0012
2658.14	0.00113
2669.71	0.00113
2681.28	0.00114
2692.86	0.0011
2704.43	0.00106
2716.01	0.00112
2727.58	0.00106
2739.15	0.0009172
2750.73	0.0008478
2762.3	0.0009179
2773.87	0.0011
2785.45	0.00121
2797.02	0.00136
2808.6	0.00161
2820.17	0.00207
2831.74	0.0029
2843.32	0.00452
2854.89	0.00627
2866.47	0.00647
2878.04	0.00708
2889.61	0.00783
2901.19	0.00919
2912.76	0.0135
2924.33	0.02494
2935.91	0.0251
2947.48	0.01888
2959.06	0.01709
2970.63	0.01478
2982.2	0.0134
2993.78	0.01364
3005.35	0.01683
3016.92	0.02257
3028.5	0.03502
3040.07	0.04476
3051.65	0.04518
3063.22	0.07894
3074.79	0.08042
3086.37	0.04751
3097.94	0.03539
3109.52	0.02171
3121.09	0.01007
3132.66	0.00668
3144.24	0.00521
3155.81	0.00403
3167.38	0.00311
3178.96	0.00268
3190.53	0.00258
3202.11	0.00226
3213.68	0.00167
3225.25	0.0011
3236.83	0.0008451
3248.4	0.0007173
3259.98	0.000453
3271.55	0.00039
3283.12	0.000454
3294.7	0.0004571
3306.27	0.0003758
3317.84	0.0002361
3329.42	0.0003257
3340.99	0.0003438
3352.57	0.0002805
3364.14	0.0003139
3375.71	0.0002668
3387.29	0.0003302
3398.86	0.0002892
3410.43	0.0002644
3422.01	0.0003063
3433.58	0.0003296
3445.16	0.0003329
3456.73	0.0003894
3468.3	0.0003961
3479.88	0.0002367
3491.45	0.0003384
3503.03	0.0003299
3514.6	0.0003621
3526.17	0.0002922
3537.75	0.0002263
3549.32	0.0002722
3560.89	0.0001943
3572.47	0.0002753
3584.04	0.0002019
3595.62	0.0003113
3607.19	0.0002322
3618.76	0.0002015
3630.34	0.0003372
3641.91	0.000644
3653.49	0.0007248
3665.06	0.0005815
3676.63	0.0006044
3688.21	0.0005879
3699.78	0.0007734
3711.35	0.0006828
3722.93	0.0004744
3734.5	0.0003458
3746.08	0.0002635
3757.65	0.0004032
3769.22	0.0005018
3780.8	0.0004018
3792.37	0.0004108
3803.94	0.0003682
3815.52	0.0004298
3827.09	0.0003049
3838.67	0.00031
3850.24	0.0003956
3861.81	0.0003832
3873.39	0.0002917
3884.96	0.0003296
3896.54	0.0003646
3908.11	0.0003316
3919.68	0.0003294
3931.26	0.0004373
3942.83	0.0005155
3954.4	0.0005429
3965.98	0.0006102
3977.55	0.0005359
3989.13	0.0006186
4000.7	0.0008998
