Infrared Spectrum: ESTRA-1,3,5(10),6-TETRAENE-3,17Beta-DIOL
Formula: C18 H22 O2
CAS: 7291-41-0
State: SOLID (KBr DISC)
Class: COBLENTZ III
Instrument: BECKMAN IR-4 (HYBRID PRISM-GRATING)
Sampling: TRANSMISSION
Resolution: 4
Origin: THE WORCESTER FOUNDATION FOR EXPERIMENTAL BIOLOGY, Neal L. McNiven
1/CM	TRANSMITTANCE
601.461	0.327
613.146	0.291
624.831	0.263
636.516	0.244
648.201	0.255
659.886	0.303
671.571	0.422
683.256	0.589
694.941	0.64
706.626	0.763
718.31	0.863
729.995	0.893
741.68	0.925
753.365	0.919
765.05	0.89
776.735	0.913
788.42	0.773
800.105	0.816
811.79	0.7391
823.475	0.765
835.16	0.885
846.845	0.92
858.53	0.86
870.215	0.725
881.9	0.827
893.585	0.979
905.27	0.986
916.955	0.883
928.639	0.856
940.324	0.83
952.009	0.882
963.694	0.946
975.379	0.97
987.064	0.922
998.749	0.792
1010.43	0.679
1022.12	0.542
1033.8	0.512
1045.49	0.31
1057.17	0.524
1068.86	0.65
1080.54	0.82
1092.23	0.829
1103.91	0.772
1115.6	0.779
1127.28	0.582
1138.97	0.681
1150.65	0.618
1162.34	0.741
1174.02	0.738
1185.71	0.681
1197.39	0.688
1209.08	0.585
1220.76	0.528
1232.45	0.42
1244.13	0.253
1255.82	0.332
1267.5	0.418
1279.19	0.324
1290.87	0.563
1302.56	0.646
1314.24	0.584
1325.93	0.571
1337.61	0.49
1349.3	0.446
1360.98	0.49
1372.67	0.559
1384.35	0.537
1396.04	0.606
1407.72	0.714
1419.41	0.69
1431.09	0.592
1442.78	0.472
1454.46	0.437
1466.15	0.401
1477.83	0.486
1489.52	0.377
1501.2	0.477
1512.89	0.647
1524.57	0.779
1536.26	0.802
1547.94	0.808
1559.63	0.595
1571.31	0.49
1583	0.593
1594.68	0.596
1606.37	0.545
1618.05	0.595
1629.74	0.692
1641.42	0.71
1653.11	0.72
1664.79	0.778
1676.48	0.819
1688.16	0.855
1699.85	0.872
1711.53	0.881
1723.22	0.889
1734.9	0.895
1746.59	0.904
1758.27	0.922
1769.96	0.923
1781.64	0.925
1793.33	0.922
1805.01	0.922
1816.7	0.926
1828.38	0.915
1840.07	0.907
1851.75	0.906
1863.44	0.896
1875.12	0.907
1886.8	0.904
1898.49	0.903
1910.17	0.902
1921.86	0.904
1933.54	0.895
1945.23	0.892
1956.91	0.89
1968.6	0.893
1980.28	0.888
1991.97	0.875
2003.65	0.88
2015.34	0.88
2027.02	0.8768
2038.71	0.8738
2050.39	0.872
2062.08	0.87
2073.76	0.8688
2085.45	0.866
2097.13	0.865
2108.82	0.864
2120.5	0.864
2132.19	0.864
2143.87	0.863
2155.56	0.8607
2167.24	0.856
2178.93	0.8549
2190.61	0.853
2202.3	0.8529
2213.98	0.851
2225.67	0.851
2237.35	0.848
2249.04	0.8469
2260.72	0.845
2272.41	0.844
2284.09	0.843
2295.78	0.843
2307.46	0.842
2319.15	0.837
2330.83	0.828
2342.52	0.816
2354.2	0.796
2365.89	0.788
2377.57	0.789
2389.26	0.793
2400.94	0.798
2412.63	0.802
2424.31	0.8049
2436	0.805
2447.68	0.803
2459.37	0.8
2471.05	0.797
2482.74	0.792
2494.42	0.7901
2506.11	0.7852
2517.79	0.7763
2529.48	0.7673
2541.16	0.7621
2552.85	0.7592
2564.53	0.7522
2576.22	0.7487
2587.9	0.7373
2599.59	0.7334
2611.27	0.7256
2622.96	0.7166
2634.64	0.7081
2646.33	0.6944
2658.01	0.691
2669.7	0.6892
2681.38	0.6862
2693.07	0.6785
2704.75	0.6708
2716.44	0.6554
2728.12	0.651
2739.81	0.6476
2751.49	0.6433
2763.18	0.64
2774.86	0.6356
2786.55	0.6303
2798.23	0.6156
2809.92	0.5984
2821.6	0.5687
2833.29	0.5372
2844.97	0.4944
2856.66	0.4465
2868.34	0.3857
2880.03	0.33
2891.71	0.2894
2903.4	0.2922
2915.08	0.2944
2926.77	0.2775
2938.45	0.2397
2950.13	0.1995
2961.82	0.1805
2973.5	0.1897
2985.19	0.2112
2996.87	0.2469
3008.56	0.2692
3020.24	0.3211
3031.93	0.3605
3043.61	0.3645
3055.3	0.364
3066.98	0.369
3078.67	0.3731
3090.35	0.3646
3102.04	0.3548
3113.72	0.3396
3125.41	0.3254
3137.09	0.3112
3148.78	0.2992
3160.46	0.2846
3172.15	0.2752
3183.83	0.2616
3195.52	0.2526
3207.2	0.244
3218.89	0.242
3230.57	0.242
3242.26	0.242
3253.94	0.242
3265.63	0.242
3277.31	0.239
3289	0.2354
3300.68	0.2274
3312.37	0.223
3324.05	0.222
3335.74	0.223
3347.42	0.2253
3359.11	0.2257
3370.79	0.2207
3382.48	0.2142
3394.16	0.2088
3405.85	0.1955
3417.53	0.1851
3429.22	0.1708
3440.9	0.1618
3452.59	0.1566
3464.27	0.1476
3475.96	0.143
3487.64	0.14
3499.33	0.1402
3511.01	0.1443
3522.7	0.1512
3534.38	0.1627
3546.07	0.1804
3557.75	0.2103
3569.44	0.2428
3581.12	0.2731
3592.81	0.3108
3604.49	0.3646
3616.18	0.3887
3627.86	0.4336
3639.55	0.4732
3651.23	0.5057
3662.92	0.5393
3674.6	0.5754
3686.29	0.6052
3697.97	0.6323
3709.66	0.6711
3721.34	0.698
3733.03	0.712
3744.71	0.743
3756.4	0.746
3768.08	0.752
3779.77	0.7649
3791.45	0.772
3803.14	0.7788
3814.82	0.7879
3826.51	0.7841
3838.19	0.7712
3849.88	0.763
3861.56	0.7659
3873.25	0.7747
3884.93	0.7905
3896.62	0.793
3908.3	0.793
3919.99	0.793
3931.67	0.792
3943.36	0.7902
3955.04	0.7862
3966.73	0.78
3978.41	0.7772
3990.1	0.7752
4001.78	0.7722
4013.47	0.77
4025.15	0.7718
4036.83	0.772
4048.52	0.771
4060.2	0.771
4071.89	0.7693
4083.57	0.768
4095.26	0.766
4106.94	0.766
4118.63	0.767
4130.31	0.768
4142	0.769
4153.68	0.769
4165.37	0.7663
4177.05	0.7657
4188.74	0.7677
4200.42	0.766
4212.11	0.765
4223.79	0.765
4235.48	0.765
4247.16	0.764
4258.85	0.7624
4270.53	0.76
4282.22	0.76
4293.9	0.7606
4305.59	0.763
4317.27	0.763
4328.96	0.76
4340.64	0.7574
4352.33	0.7564
4364.01	0.756
4375.7	0.755
4387.38	0.754
4399.07	0.7515
4410.75	0.749
4422.44	0.7485
4434.12	0.75
4445.81	0.75
4457.49	0.7475
4469.18	0.7445
4480.86	0.744
4492.55	0.742
4504.23	0.742
4515.92	0.742
4527.6	0.744
4539.29	0.744
4550.97	0.744
4562.66	0.7464
4574.34	0.7456
4586.03	0.7416
4597.71	0.739
4609.4	0.739
4621.08	0.739
4632.77	0.7397
4644.45	0.742
4656.14	0.742
4667.82	0.7417
4679.51	0.7403
4691.19	0.742
4702.88	0.742
4714.56	0.7341
4726.25	0.731
4737.93	0.73
4749.62	0.73
4761.3	0.729
4772.99	0.729
4784.67	0.728
4796.36	0.7268
4808.04	0.7258
4819.73	0.7208
4831.41	0.7198
4843.1	0.72
4854.78	0.722
4866.47	0.7222
4878.15	0.72
4889.84	0.718
4901.52	0.715
4913.21	0.716
4924.89	0.7171
4936.58	0.718
4948.26	0.7169
4959.95	0.7139
4971.63	0.7121
4983.32	0.715
4995	0.7161
5006.69	0.717
