Infrared Spectrum: 2,2,2-Trichloro-N,N-dimethylacetamide
Formula: C 4 H 6 Cl 3 N O
CAS: 7291-33-0
State: gas
Origin: EPA-IR VAPOR PHASE LIBRARY
1/CM	ABSORBANCE
549.8	0.0006878
559.445	0.0007479
569.09	0.00030227
578.734	0.0005417
588.379	0.0005511
598.024	0.0007042
607.669	0.000554
617.313	0.001286
626.958	0.001709
636.603	0.003599
646.248	0.012859
655.893	0.024869
665.537	0.028889
675.182	0.022009
684.827	0.008499
694.472	0.003439
704.116	0.002979
713.761	0.002859
723.406	0.002529
733.051	0.001939
742.695	0.001779
752.34	0.002129
761.985	0.001879
771.63	0.003079
781.275	0.006759
790.919	0.017849
800.564	0.040569
810.209	0.051419
819.854	0.027689
829.498	0.020499
839.143	0.036899
848.788	0.036389
858.433	0.016449
868.078	0.005049
877.722	0.002959
887.367	0.002359
897.012	0.001899
906.657	0.001609
916.301	0.0011976
925.946	0.0010411
935.591	0.001789
945.236	0.003379
954.88	0.007129
964.525	0.010149
974.17	0.007639
983.815	0.002999
993.46	0.001409
1003.1	0.001449
1012.75	0.001389
1022.39	0.001599
1032.04	0.002159
1041.68	0.003419
1051.33	0.005139
1060.97	0.005989
1070.62	0.004599
1080.26	0.003679
1089.91	0.003109
1099.55	0.004599
1109.2	0.005459
1118.84	0.007299
1128.49	0.010819
1138.13	0.014429
1147.78	0.016899
1157.42	0.013249
1167.07	0.008009
1176.71	0.005299
1186.36	0.004569
1196	0.003489
1205.64	0.004439
1215.29	0.004309
1224.93	0.006019
1234.58	0.007909
1244.22	0.011519
1253.87	0.012929
1263.51	0.008809
1273.16	0.004379
1282.8	0.002889
1292.45	0.002809
1302.09	0.003019
1311.74	0.003039
1321.38	0.003449
1331.03	0.004469
1340.67	0.006569
1350.32	0.011319
1359.96	0.020349
1369.61	0.030159
1379.25	0.030199
1388.9	0.020009
1398.54	0.012139
1408.18	0.009869
1417.83	0.008269
1427.47	0.005999
1437.12	0.005879
1446.76	0.008159
1456.41	0.010549
1466.05	0.010829
1475.7	0.010989
1485.34	0.011219
1494.99	0.009329
1504.63	0.006859
1514.28	0.005449
1523.92	0.004459
1533.57	0.003669
1543.21	0.003299
1552.86	0.002999
1562.5	0.002809
1572.15	0.002679
1581.79	0.002849
1591.44	0.002699
1601.08	0.002689
1610.73	0.002579
1620.37	0.002269
1630.01	0.002539
1639.66	0.003139
1649.3	0.004269
1658.95	0.005779
1668.59	0.007909
1678.24	0.011299
1687.88	0.023499
1697.53	0.069529
1707.17	0.116969
1716.82	0.076929
1726.46	0.019139
1736.11	0.006149
1745.75	0.003819
1755.4	0.003319
1765.04	0.002929
1774.69	0.002229
1784.33	0.001409
1793.98	0.0011227
1803.62	0.0009179
1813.27	0.0007244
1822.91	0.0006839
1832.55	0.00058
1842.2	0.000522
1851.84	0.000534
1861.49	0.0005116
1871.13	0.0005027
1880.78	0.000485
1890.42	0.000558
1900.07	0.0004632
1909.71	0.000514
1919.36	0.0005483
1929	0.00057
1938.65	0.0005584
1948.29	0.0005645
1957.94	0.000513
1967.58	0.0004594
1977.23	0.0004414
1986.87	0.0004998
1996.52	0.0005193
2006.16	0.0005253
2015.81	0.0005595
2025.45	0.0005276
2035.1	0.000475
2044.74	0.0004348
2054.38	0.00035473
2064.03	0.00033022
2073.67	0.00039892
2083.32	0.00032404
2092.96	0.00037424
2102.61	0.0004616
2112.25	0.0002978
2121.9	0.0004408
2131.54	0.000441
2141.19	0.0004142
2150.83	0.0005063
2160.48	0.00052
2170.12	0.0006428
2179.77	0.0005287
2189.41	0.0005057
2199.06	0.000465
2208.7	0.0004914
2218.35	0.0005441
2227.99	0.0004336
2237.64	0.00038223
2247.28	0.0004491
2256.92	0.0004466
2266.57	0.0004904
2276.21	0.0004699
2285.86	0.0005648
2295.5	0.0004931
2305.15	0.0005067
2314.79	0.00039013
2324.44	0.00034231
2334.08	0.0004251
2343.73	0.0005332
2353.37	0.0006084
2363.02	0.0005783
2372.66	0.0004829
2382.31	0.0004253
2391.95	0.0004667
2401.6	0.0003482
2411.24	0.0004106
2420.89	0.00039908
2430.53	0.00030123
2440.18	0.0003744
2449.82	0.0004414
2459.47	0.0004899
2469.11	0.0004413
2478.75	0.000416
2488.4	0.0005651
2498.04	0.0005656
2507.69	0.0005302
2517.33	0.0005776
2526.98	0.0005567
2536.62	0.000474
2546.27	0.0004862
2555.91	0.0005577
2565.56	0.0004342
2575.2	0.0005423
2584.85	0.0005193
2594.49	0.0005536
2604.14	0.0005333
2613.78	0.0004399
2623.43	0.0005594
2633.07	0.0005271
2642.72	0.0005492
2652.36	0.0005707
2662.01	0.000513
2671.65	0.0006616
2681.29	0.0005974
2690.94	0.0004684
2700.58	0.0005973
2710.23	0.0006842
2719.87	0.000796
2729.52	0.0007338
2739.16	0.0008506
2748.81	0.0008676
2758.45	0.0008032
2768.1	0.0007713
2777.74	0.000912
2787.39	0.0010968
2797.03	0.001419
2806.68	0.002179
2816.32	0.002559
2825.97	0.002889
2835.61	0.002999
2845.26	0.003399
2854.9	0.003889
2864.55	0.005019
2874.19	0.006279
2883.84	0.006819
2893.48	0.006789
2903.12	0.007449
2912.77	0.008549
2922.41	0.010689
2932.06	0.014329
2941.7	0.017589
2951.35	0.017959
2960.99	0.014869
2970.64	0.009789
2980.28	0.005989
2989.93	0.003959
2999.57	0.003089
3009.22	0.002539
3018.86	0.002519
3028.51	0.002359
3038.15	0.002519
3047.8	0.002359
3057.44	0.002259
3067.09	0.002059
3076.73	0.001829
3086.38	0.001329
3096.02	0.001329
3105.67	0.0008702
3115.31	0.0008188
3124.95	0.0007483
3134.6	0.0004532
3144.24	0.0005807
3153.89	0.0006982
3163.53	0.0005393
3173.18	0.0005297
3182.82	0.0005835
3192.47	0.0006471
3202.11	0.0005663
3211.76	0.0004449
3221.4	0.0004118
3231.05	0.0005885
3240.69	0.00030495
3250.34	0.0002875
3259.98	0.0003234
3269.63	0.00033071
3279.27	0.00038801
3288.92	0.0002366
3298.56	0.0004691
3308.21	0.00032911
3317.85	0.0004662
3327.49	0.0002782
3337.14	0.0004525
3346.78	0.000312535
3356.43	0.0004554
3366.07	0.0007035
3375.72	0.000803
3385.36	0.0011048
3395.01	0.0011604
3404.65	0.0010369
3414.3	0.0008122
3423.94	0.0005198
3433.59	0.00037404
3443.23	0.00038472
3452.88	0.0004591
3462.52	0.0002375
3472.17	0.00036004
3481.81	0.00037446
3491.46	0.0002639
3501.1	0.0002686
3510.75	0.00033617
3520.39	0.000135
3530.04	0.0002736
3539.68	0.0002113
3549.32	0.00034615
3558.97	0.0002111
3568.61	0.0002794
3578.26	0.0002535
3587.9	0.0003606
3597.55	0.00038365
3607.19	0.00035863
3616.84	0.00034844
3626.48	0.0004423
3636.13	0.000191
3645.77	0.00036111
3655.42	0.0002926
3665.06	0.0002668
3674.71	0.0002295
3684.35	0.00032867
3694	0.0002926
3703.64	0.00036023
3713.29	0.00018
3722.93	0.0002849
3732.58	0.0004179
3742.22	6.5e-05
3751.86	0.00037369
3761.51	0.0002
3771.15	0.00030521
3780.8	0.00038377
3790.44	0.000124
3800.09	0.000142
3809.73	0.000128
3819.38	0.00033695
3829.02	0.00037345
3838.67	0.0002519
3848.31	0.0002282
3857.96	0.000196
3867.6	0.000309815
3877.25	0.00035788
3886.89	8.9e-05
3896.54	0.00030399
3906.18	0.00031966
3915.83	0.00040788
3925.47	0.0003079
3935.12	0.000218
3944.76	0.0004463
3954.41	0.00036803
3964.05	0.0004105
3973.69	0.00033995
3983.34	0.0003607
3992.98	0.00031322
