Infrared Spectrum: GLYCOLIC ACID, PHENETHYL ESTER
Formula: C10 H12 O3
CAS: 72928-38-2
State: SOLUTION (10% IN CCl4 FOR 5000-1350 CM^-^1, 10% IN CS2 FOR 1350-625 CM^-^1)
Class: COBLENTZ
Instrument: Not specified, most likely a prism, grating, or hybrid spectrometer.
Sampling: TRANSMISSION
Path length: 0.01 CM, 0.01 CM
Resolution: 4
Origin: DOW CHEMICAL COMPANY
MICROMETERS	TRANSMITTANCE
2.014	0.864
2.05319	0.864
2.09239	0.862
2.13158	0.869
2.17077	0.866
2.20997	0.866
2.24916	0.858
2.28835	0.869
2.32755	0.862
2.36674	0.867
2.40593	0.861
2.44513	0.861
2.48432	0.866
2.52351	0.862
2.56271	0.866
2.6019	0.858
2.64109	0.861
2.68029	0.83
2.71948	0.758
2.75867	0.615
2.79787	0.461
2.83706	0.398
2.87625	0.386
2.91545	0.424
2.95464	0.469
2.99383	0.505
3.03303	0.546
3.07222	0.58
3.11141	0.613
3.15061	0.636
3.1898	0.623
3.22899	0.551
3.26819	0.515
3.30738	0.522
3.34657	0.461
3.38577	0.399
3.42496	0.497
3.46415	0.569
3.50335	0.665
3.54254	0.716
3.58173	0.745
3.62093	0.758
3.66012	0.768
3.69931	0.773
3.73851	0.771
3.7777	0.776
3.81689	0.787
3.85609	0.791
3.89528	0.794
3.93448	0.805
3.97367	0.818
4.01286	0.823
4.05206	0.823
4.09125	0.836
4.13044	0.848
4.16964	0.851
4.20883	0.84
4.24802	0.836
4.28722	0.848
4.32641	0.859
4.3656	0.866
4.4048	0.872
4.44399	0.871
4.48318	0.872
4.52238	0.872
4.56157	0.876
4.60076	0.876
4.63996	0.876
4.67915	0.874
4.71834	0.872
4.75754	0.874
4.79673	0.877
4.83592	0.871
4.87512	0.866
4.91431	0.871
4.9535	0.869
4.9927	0.864
5.03189	0.864
5.07108	0.831
5.11028	0.817
5.14947	0.859
5.18866	0.861
5.22786	0.858
5.26705	0.825
5.30624	0.822
5.34544	0.831
5.38463	0.833
5.42382	0.815
5.46302	0.779
5.50221	0.74
5.5414	0.698
5.5806	0.564
5.61979	0.349
5.65898	0.132
5.69818	0.055
5.73737	0.073
5.77656	0.251
5.81576	0.435
5.85495	0.543
5.89414	0.678
5.93334	0.719
5.97253	0.738
6.01172	0.742
6.05092	0.74
6.09011	0.73
6.1293	0.709
6.1685	0.621
6.20769	0.557
6.24688	0.549
6.28608	0.533
6.32527	0.531
6.36446	0.497
6.40366	0.446
6.44285	0.451
6.48204	0.53
6.52124	0.559
6.56043	0.598
6.59962	0.58
6.63882	0.474
6.67801	0.629
6.7172	0.644
6.7564	0.562
6.79559	0.522
6.83478	0.389
6.87398	0.453
6.91317	0.468
6.95236	0.492
6.99156	0.523
7.03075	0.567
7.06994	0.556
7.10914	0.525
7.14833	0.5
7.18752	0.5
7.22672	0.525
7.26591	0.541
7.3051	0.556
7.3443	0.564
7.38349	0.566
7.42268	0.556
7.46188	0.543
7.50107	0.523
7.54026	0.487
7.57946	0.45
7.61865	0.402
7.65784	0.36
7.69704	0.329
7.73623	0.29
7.77543	0.261
7.81462	0.251
7.85381	0.27
7.89301	0.292
7.9322	0.293
7.97139	0.264
8.01059	0.194
8.04978	0.123
8.08897	0.07
8.12817	0.066
8.16736	0.083
8.20655	0.102
8.24575	0.123
8.28494	0.128
8.32413	0.133
8.36333	0.185
8.40252	0.234
8.44171	0.278
8.48091	0.353
8.5201	0.404
8.55929	0.479
8.59849	0.531
8.63768	0.569
8.67687	0.61
8.71607	0.631
8.75526	0.632
8.79445	0.616
8.83365	0.579
8.87284	0.52
8.91203	0.42
8.95123	0.27
8.99042	0.166
9.02961	0.101
9.06881	0.071
9.108	0.06
9.14719	0.048
9.18639	0.07
9.22558	0.141
9.26477	0.241
9.30397	0.308
9.34316	0.349
9.38235	0.363
9.42155	0.35
9.46074	0.311
9.49993	0.287
9.53913	0.316
9.57832	0.376
9.61751	0.401
9.65671	0.383
9.6959	0.445
9.73509	0.499
9.77429	0.505
9.81348	0.497
9.85267	0.476
9.89187	0.469
9.93106	0.461
9.97025	0.432
10.0094	0.435
10.0486	0.463
10.0878	0.5
10.127	0.52
10.1662	0.525
10.2054	0.517
10.2446	0.517
10.2838	0.556
10.323	0.6
10.3622	0.652
10.4014	0.686
10.4406	0.707
10.4798	0.727
10.519	0.734
10.5582	0.738
10.5973	0.734
10.6365	0.738
10.6757	0.737
10.7149	0.732
10.7541	0.73
10.7933	0.73
10.8325	0.729
10.8717	0.721
10.9109	0.707
10.9501	0.683
10.9893	0.665
11.0285	0.659
11.0677	0.675
11.1069	0.68
11.1461	0.681
11.1852	0.673
11.2244	0.667
11.2636	0.655
11.3028	0.647
11.342	0.637
11.3812	0.628
11.4204	0.621
11.4596	0.611
11.4988	0.601
11.538	0.582
11.5772	0.567
11.6164	0.551
11.6556	0.539
11.6948	0.546
11.734	0.562
11.7731	0.58
11.8123	0.593
11.8515	0.603
11.8907	0.618
11.9299	0.631
11.9691	0.641
12.0083	0.647
12.0475	0.649
12.0867	0.646
12.1259	0.646
12.1651	0.654
12.2043	0.659
12.2435	0.663
12.2827	0.665
12.3219	0.662
12.361	0.66
12.4002	0.659
12.4394	0.659
12.4786	0.66
12.5178	0.655
12.557	0.65
12.5962	0.647
12.6354	0.641
12.6746	0.636
12.7138	0.636
12.753	0.631
12.7922	0.632
12.8314	0.629
12.8706	0.623
12.9098	0.606
12.9489	0.579
12.9881	0.557
13.0273	0.549
13.0665	0.541
13.1057	0.53
13.1449	0.502
13.1841	0.463
13.2233	0.398
13.2625	0.309
13.3017	0.221
13.3409	0.169
13.3801	0.156
13.4193	0.184
13.4585	0.236
13.4977	0.283
13.5369	0.321
13.576	0.345
13.6152	0.362
13.6544	0.365
13.6936	0.37
13.7328	0.378
13.772	0.386
13.8112	0.396
13.8504	0.401
13.8896	0.399
13.9288	0.396
13.968	0.383
14.0072	0.367
14.0464	0.34
14.0856	0.303
14.1248	0.244
14.1639	0.179
14.2031	0.112
14.2423	0.05
14.2815	0.024
14.3207	0.05
14.3599	0.12
14.3991	0.212
14.4383	0.283
14.4775	0.334
14.5167	0.365
14.5559	0.378
14.5951	0.388
14.6343	0.394
14.6735	0.401
14.7127	0.402
14.7518	0.407
14.791	0.411
14.8302	0.412
14.8694	0.407
14.9086	0.402
14.9478	0.404
14.987	0.406
15.0262	0.399
15.0654	0.391
15.1046	0.383
15.1438	0.378
15.183	0.368
15.2222	0.357
15.2614	0.352
15.3006	0.345
15.3397	0.339
15.3789	0.336
15.4181	0.329
15.4573	0.324
15.4965	0.319
15.5357	0.313
15.5749	0.308
15.6141	0.301
15.6533	0.298
15.6925	0.295
15.7317	0.285
15.7709	0.278
15.8101	0.274
15.8493	0.272
15.8885	0.285
15.9276	0.303
15.9668	0.329
