Infrared Spectrum: 2,2,3-Trimethyl-3-pentanol
Formula: C 8 H 18 O
CAS: 7294-05-5
State: gas
Instrument: HP-GC/MS/IRD
Origin: NIST Mass Spectrometry Data Center
1/CM	ABSORBANCE
550	0.000414
562	0.0001748
574	0.000115
586	4.6e-05
598	5.52e-05
610	7.36e-05
622	5.52e-05
634	5.52e-05
646	5.52e-05
658	0.0001748
670	0.0002254
682	0.000161
694	0.0001012
706	2.76e-05
718	6.9e-05
730	4.6e-06
742	1.38e-05
754	5.52e-05
766	0.0001702
778	0.0003772
790	0.0003864
802	0.0004048
814	0.00023
826	0.0002024
838	0.0001748
850	0.0003358
862	0.0006762
874	0.0013984
886	0.0027232
898	0.0048208
910	0.0058236
922	0.0035696
934	0.0016284
946	0.0011408
958	0.0016744
970	0.003197
982	0.0043286
994	0.0035328
1006	0.0025346
1018	0.0022402
1030	0.002691
1042	0.0029854
1054	0.0022126
1066	0.0017388
1078	0.0023
1090	0.0036294
1102	0.0052992
1114	0.0065182
1126	0.0074796
1138	0.0084226
1150	0.009039
1162	0.0072588
1174	0.0041952
1186	0.0029854
1198	0.0030406
1210	0.0031188
1222	0.0028474
1234	0.0025576
1246	0.0024794
1258	0.0026542
1270	0.0027876
1282	0.0027554
1294	0.002783
1306	0.0028474
1318	0.0029072
1330	0.0028106
1342	0.0029532
1354	0.0044896
1366	0.0086848
1378	0.0109112
1390	0.0078844
1402	0.0045678
1414	0.0024748
1426	0.001725
1438	0.0023046
1450	0.0037168
1462	0.0055154
1474	0.0062836
1486	0.004807
1498	0.0024288
1510	0.001104
1522	0.00069
1534	0.0005382
1546	0.0004094
1558	0.0003312
1570	0.000253
1582	0.0002116
1594	0.0001748
1606	0.0001656
1618	0.0001564
1630	0.000161
1642	0.0001702
1654	0.0001702
1666	0.0001564
1678	0.0001518
1690	0.0001334
1702	0.0001288
1714	0.0001058
1726	0.000115
1738	7.82e-05
1750	8.74e-05
1762	7.82e-05
1774	5.98e-05
1786	4.14e-05
1798	5.52e-05
1810	6.44e-05
1822	5.06e-05
1834	2.3e-05
1846	3.68e-05
1858	3.68e-05
1870	4.14e-05
1882	5.06e-05
1894	6.44e-05
1906	4.14e-05
1918	2.3e-05
1930	2.3e-05
1942	2.3e-05
1954	1.38e-05
1966	4.6e-06
1978	4.6e-06
1990	1.38e-05
2002	1.38e-05
2014	2.76e-05
2026	4.6e-05
2038	3.68e-05
2050	1.38e-05
2062	3.68e-05
2074	9.2e-06
2086	4.6e-06
2098	9.2e-06
2110	1.38e-05
2122	1.84e-05
2134	2.3e-05
2146	1.38e-05
2158	1.84e-05
2170	4.14e-05
2182	1.84e-05
2194	4.6e-06
2206	0
2218	0
2230	9.2e-06
2242	1.84e-05
2254	4.6e-06
2266	3.22e-05
2278	1.84e-05
2290	4.14e-05
2302	4.6e-05
2314	1.84e-05
2326	1.84e-05
2338	4.6e-05
2350	5.52e-05
2362	6.44e-05
2374	9.2e-05
2386	7.82e-05
2398	8.28e-05
2410	7.36e-05
2422	6.9e-05
2434	6.9e-05
2446	6.44e-05
2458	4.14e-05
2470	4.14e-05
2482	5.98e-05
2494	4.14e-05
2506	2.76e-05
2518	4.14e-05
2530	3.68e-05
2542	4.14e-05
2554	6.9e-05
2566	7.82e-05
2578	0.0001196
2590	0.0001196
2602	0.0001334
2614	0.0001242
2626	0.0001564
2638	0.000161
2650	0.000184
2662	0.0002116
2674	0.0002208
2686	0.000253
2698	0.0002806
2710	0.000345
2722	0.00046
2734	0.000575
2746	0.0006164
2758	0.0006164
2770	0.0006348
2782	0.000667
2794	0.0008142
2806	0.0009384
2818	0.0011684
2830	0.0014812
2842	0.0019872
2854	0.003013
2866	0.0057086
2878	0.0107042
2890	0.0142646
2902	0.0140162
2914	0.014145
2926	0.0166474
2938	0.0211692
2950	0.0279082
2962	0.037858
2974	0.046
2986	0.0372876
2998	0.019297
3010	0.0078706
3022	0.00368
3034	0.0024656
3046	0.0019182
3058	0.0015456
3070	0.0012512
3082	0.0009982
3094	0.0008648
3106	0.0007774
3118	0.000713
3130	0.0006118
3142	0.0006164
3154	0.0005842
3166	0.0005888
3178	0.000598
3190	0.0006072
3202	0.0005014
3214	0.0004554
3226	0.0003726
3238	0.0002852
3250	0.0002162
3262	0.0001794
3274	0.0001564
3286	0.000115
3298	0.0001012
3310	0.0001104
3322	0.0001058
3334	9.66e-05
3346	0.0001472
3358	9.66e-05
3370	0.0001058
3382	8.28e-05
3394	0.0001334
3406	8.74e-05
3418	9.2e-05
3430	9.2e-05
3442	0.0001242
3454	0.0001794
3466	0.0001058
3478	0.0001012
3490	0.0001104
3502	7.82e-05
3514	6.9e-05
3526	2.3e-05
3538	9.2e-06
3550	9.2e-06
3562	3.22e-05
3574	1.38e-05
3586	2.76e-05
3598	8.28e-05
3610	0.0001242
3622	0.0003266
3634	0.0011178
3646	0.0021436
3658	0.001702
3670	0.0006118
3682	0.000184
3694	6.9e-05
3706	3.22e-05
3718	9.2e-06
3730	5.06e-05
3742	3.68e-05
3754	4.6e-06
3766	5.52e-05
3778	3.22e-05
3790	4.6e-05
3802	3.22e-05
3814	6.9e-05
3826	8.74e-05
3838	7.36e-05
