Infrared Spectrum: p-Bromophenyl heptyl ketone
Formula: C 14 H 19 Br O
CAS: 7295-48-9
State: gas
Origin: EPA-IR VAPOR PHASE LIBRARY
1/CM	ABSORBANCE
549.8	0.0004982
559.445	0.0010827
569.09	0.001635
578.734	0.001465
588.379	0.0008054
598.024	0.0006213
607.669	0.001193
617.313	0.0011104
626.958	0.0004754
636.603	0.0006529
646.248	0.000502
655.893	0.0006982
665.537	0.0008492
675.182	0.000848
684.827	0.0005778
694.472	0.0008431
704.116	0.0009492
713.761	0.001685
723.406	0.002415
733.051	0.003065
742.695	0.002885
752.34	0.003225
761.985	0.003355
771.63	0.003665
781.275	0.003925
790.919	0.004055
800.564	0.005325
810.209	0.006535
819.854	0.005995
829.498	0.005915
839.143	0.005035
848.788	0.002815
858.433	0.001585
868.078	0.0011458
877.722	0.001265
887.367	0.001445
897.012	0.001615
906.657	0.001525
916.301	0.001555
925.946	0.001865
935.591	0.002275
945.236	0.002865
954.88	0.003905
964.525	0.005785
974.17	0.008585
983.815	0.009395
993.46	0.009395
1003.1	0.011325
1012.75	0.016965
1022.39	0.003345
1032.04	0.002745
1041.68	0.002765
1051.33	0.002925
1060.97	0.005425
1070.62	0.018805
1080.26	0.007335
1089.91	0.001495
1099.55	0.0010238
1109.2	0.001525
1118.84	0.001875
1128.49	0.0009474
1138.13	0.0010371
1147.78	0.0008889
1157.42	0.002425
1167.07	0.003965
1176.71	0.007735
1186.36	0.005755
1196	0.008375
1205.64	0.010165
1215.29	0.011545
1224.93	0.009925
1234.58	0.008675
1244.22	0.007895
1253.87	0.009155
1263.51	0.010925
1273.16	0.009925
1282.8	0.008215
1292.45	0.006845
1302.09	0.006205
1311.74	0.006195
1321.38	0.005475
1331.03	0.005155
1340.67	0.005805
1350.32	0.007245
1359.96	0.006465
1369.61	0.004835
1379.25	0.004515
1388.9	0.006805
1398.54	0.008645
1408.18	0.004515
1417.83	0.003645
1427.47	0.003265
1437.12	0.003955
1446.76	0.005225
1456.41	0.006035
1466.05	0.006095
1475.7	0.005875
1485.34	0.006345
1494.99	0.002445
1504.63	0.001415
1514.28	0.0010998
1523.92	0.0010581
1533.57	0.0012108
1543.21	0.001495
1552.86	0.002655
1562.5	0.005495
1572.15	0.008655
1581.79	0.019885
1591.44	0.018245
1601.08	0.004015
1610.73	0.001945
1620.37	0.001405
1630.01	0.001455
1639.66	0.001475
1649.3	0.001675
1658.95	0.002265
1668.59	0.003025
1678.24	0.004895
1687.88	0.013525
1697.53	0.035045
1707.17	0.030005
1716.82	0.009395
1726.46	0.003375
1736.11	0.001825
1745.75	0.001425
1755.4	0.0012284
1765.04	0.0011954
1774.69	0.0010202
1784.33	0.0010578
1793.98	0.000907
1803.62	0.0006379
1813.27	0.000486
1822.91	0.0004312
1832.55	0.0002859
1842.2	0.0003764
1851.84	0.0004215
1861.49	0.0003692
1871.13	0.0004409
1880.78	0.0006598
1890.42	0.0006082
1900.07	0.0006352
1909.71	0.0006444
1919.36	0.0006666
1929	0.0005212
1938.65	0.0005237
1948.29	0.0003787
1957.94	0.000321
1967.58	0.000253
1977.23	0.00022591
1986.87	0.00026199
1996.52	0.0003272
2006.16	0.00032214
2015.81	0.0003472
2025.45	0.0004229
2035.1	0.00033107
2044.74	0.00031337
2054.38	0.0003362
2064.03	0.0003279
2073.67	0.00026913
2083.32	0.00025085
2092.96	0.00030213
2102.61	0.00031245
2112.25	0.0003613
2121.9	0.00032915
2131.54	0.00029125
2141.19	0.0003607
2150.83	0.00030538
2160.48	0.0003362
2170.12	0.00030098
2179.77	0.00025669
2189.41	0.0002818
2199.06	0.00028981
2208.7	0.00032377
2218.35	0.00031517
2227.99	0.000357
2237.64	0.0003935
2247.28	0.0003747
2256.92	0.0003546
2266.57	0.0004135
2276.21	0.0003814
2285.86	0.0004666
2295.5	0.00032225
2305.15	0.0004672
2314.79	0.0005266
2324.44	0.000351
2334.08	0.0004251
2343.73	0.0004285
2353.37	0.0004412
2363.02	0.0003817
2372.66	0.0004764
2382.31	0.0005054
2391.95	0.000457
2401.6	0.0002162
2411.24	0.0004965
2420.89	0.0004901
2430.53	0.0004319
2440.18	0.0003679
2449.82	0.00033036
2459.47	0.0003934
2469.11	0.00034
2478.75	0.0004557
2488.4	0.0004403
2498.04	0.0004336
2507.69	0.00028592
2517.33	0.0005931
2526.98	0.0005866
2536.62	0.0006342
2546.27	0.0006032
2555.91	0.0005979
2565.56	0.000642
2575.2	0.0006694
2584.85	0.0006292
2594.49	0.000733
2604.14	0.0006103
2613.78	0.0005274
2623.43	0.0006321
2633.07	0.0006286
2642.72	0.0005345
2652.36	0.0006864
2662.01	0.0008226
2671.65	0.0007925
2681.29	0.0008359
2690.94	0.0008956
2700.58	0.0007015
2710.23	0.0007717
2719.87	0.0007442
2729.52	0.0007227
2739.16	0.0007158
2748.81	0.0009917
2758.45	0.0009451
2768.1	0.0010389
2777.74	0.0010986
2787.39	0.001305
2797.03	0.001535
2806.68	0.001705
2816.32	0.002175
2825.97	0.002765
2835.61	0.003545
2845.26	0.005295
2854.9	0.010405
2864.55	0.016005
2874.19	0.014845
2883.84	0.013615
2893.48	0.012425
2903.12	0.014835
2912.77	0.019645
2922.41	0.029195
2932.06	0.040355
2941.7	0.036915
2951.35	0.026675
2960.99	0.024805
2970.64	0.023515
2980.28	0.011975
2989.93	0.006315
2999.57	0.004045
3009.22	0.002835
3018.86	0.002135
3028.51	0.002125
3038.15	0.002105
3047.8	0.001765
3057.44	0.001755
3067.09	0.001845
3076.73	0.001875
3086.38	0.002545
3096.02	0.001965
3105.67	0.0010787
3115.31	0.0009697
3124.95	0.0006229
3134.6	0.0006736
3144.24	0.0008399
3153.89	0.0005817
3163.53	0.0005694
3173.18	0.0006209
3182.82	0.000597
3192.47	0.0005706
3202.11	0.0005809
3211.76	0.0004239
3221.4	0.00028855
3231.05	0.00032315
3240.69	0.0001754
3250.34	0.0004454
3259.98	0.0003647
3269.63	0.0003405
3279.27	0.0004966
3288.92	0.0001623
3298.56	0.000424
3308.21	0.0001374
3317.85	0.00023537
3327.49	0.0004046
3337.14	0.000402
3346.78	0.0005501
3356.43	0.0004233
3366.07	0.0004934
3375.72	0.0009236
3385.36	0.0008047
3395.01	0.0004906
3404.65	0.0004378
3414.3	0.0003363
3423.94	0.0004106
3433.59	0.0004374
3443.23	0.0004091
3452.88	0.0004872
3462.52	0.0004486
3472.17	0.0004073
3481.81	0.0001416
3491.46	0.00030672
3501.1	0.000414
3510.75	9.2e-05
3520.39	0.0003231
3530.04	0.0002028
3539.68	0.000240112
3549.32	0.0001966
3558.97	0.00027256
3568.61	0.0001712
3578.26	0.000234466
3587.9	0.0001787
3597.55	0.0002606
3607.19	0.0003409
3616.84	0.000376
3626.48	0.0004259
3636.13	0.000239675
3645.77	0.0005631
3655.42	0.0001797
3665.06	0.0002117
3674.71	0.0002052
3684.35	0.0003935
3694	0.0003368
3703.64	0.0003636
3713.29	0.00028189
3722.93	0.000244944
3732.58	0.000454
3742.22	0.0003442
3751.86	0.000488
3761.51	0.00024731
3771.15	0.0004532
3780.8	0.0003649
3790.44	0.0003351
3800.09	0.0003948
3809.73	0.0004642
3819.38	0.0003821
3829.02	0.0003707
3838.67	2.2e-05
3848.31	0.0003866
3857.96	0.0001518
3867.6	0.0004418
3877.25	0.0004744
3886.89	0.0004746
3896.54	0.0001605
3906.18	0.00028595
3915.83	0
3925.47	0.0004497
3935.12	0.0003773
3944.76	0.00022987
3954.41	0.0004939
3964.05	0.0004381
3973.69	0.0006825
3983.34	0.0003398
3992.98	0.0005643
