Infrared Spectrum: Piperazine, 1-phenethyl-4-(2-propynyl)-,
Formula: C15 H20 N2
CAS: 72955-79-4
State: LIQUID
Class: COBLENTZ III
Instrument: PERKIN-ELMER 21 (GRATING)
Instrument parameters: FILTER AT ABOUT 10 MICRONS
Path length: CAPILLARY
Resolution: 2
Origin: ABBOTT LABORATORIES
1/CM	TRANSMITTANCE
668	0.47
677	0.5212
686	0.4876
695	0.243
704	0.3311
713	0.6208
722	0.5911
731	0.5664
740	0.4688
749	0.3289
758	0.6246
767	0.6715
776	0.6841
785	0.7228
794	0.7231
803	0.6694
812	0.6305
821	0.7361
830	0.7933
839	0.6633
848	0.7605
857	0.8102
866	0.8674
875	0.8634
884	0.8343
893	0.7472
902	0.6267
911	0.738
920	0.8016
929	0.8488
938	0.8749
947	0.8414
956	0.8455
965	0.8545
974	0.8411
983	0.7918
992	0.7582
1001	0.6327
1010	0.1963
1019	0.4537
1028	0.6322
1037	0.7051
1046	0.741
1055	0.792
1064	0.7694
1073	0.7537
1082	0.7277
1091	0.7856
1100	0.7151
1109	0.6503
1118	0.5202
1127	0.2107
1136	0.2262
1145	0.1709
1154	0.2181
1163	0.3908
1172	0.5956
1181	0.7399
1190	0.767
1199	0.7516
1208	0.7778
1217	0.783
1226	0.7751
1235	0.7184
1244	0.6708
1253	0.7011
1262	0.6008
1271	0.5689
1280	0.508
1289	0.4136
1298	0.4849
1307	0.4688
1316	0.3442
1325	0.4182
1334	0.3963
1343	0.3929
1352	0.5239
1361	0.5072
1370	0.5853
1379	0.6282
1388	0.7123
1397	0.7319
1406	0.7738
1415	0.7553
1424	0.6334
1433	0.6285
1442	0.5675
1451	0.3293
1460	0.3766
1469	0.5302
1478	0.7687
1487	0.7567
1496	0.5239
1505	0.7711
1514	0.8676
1523	0.8743
1532	0.8735
1541	0.8724
1550	0.8728
1559	0.8759
1568	0.881
1577	0.8725
1586	0.8377
1595	0.8277
1604	0.7403
1613	0.761
1622	0.8572
1631	0.8714
1640	0.8731
1649	0.8713
1658	0.8677
1667	0.8649
1676	0.8657
1685	0.8702
1694	0.8809
1703	0.8861
1712	0.8902
1721	0.8986
1730	0.9043
1739	0.9032
1748	0.8996
1757	0.8979
1766	0.9014
1775	0.9061
1784	0.9048
1793	0.8983
1802	0.8882
1811	0.8883
1820	0.8951
1829	0.9031
1838	0.9099
1847	0.9098
1856	0.9039
1865	0.8952
1874	0.8872
1883	0.8877
1892	0.8914
1901	0.8947
1910	0.8956
1919	0.8948
1928	0.8905
1937	0.8854
1946	0.8779
1955	0.8795
1964	0.8914
1973	0.8993
1982	0.9017
1991	0.904
2000	0.9096
2009	0.9146
2018	0.914
2027	0.913
2036	0.912
2045	0.9111
2054	0.9102
2063	0.9092
2072	0.9078
2081	0.9043
2090	0.8983
2099	0.8907
2108	0.8908
2117	0.8951
2126	0.9016
2135	0.9087
2144	0.9138
2153	0.9147
2162	0.9146
2171	0.9143
2180	0.9141
2189	0.9139
2198	0.9135
2207	0.913
2216	0.9125
2225	0.9118
2234	0.9112
2243	0.9105
2252	0.9104
2261	0.9103
2270	0.9102
2279	0.9104
2288	0.9111
2297	0.912
2306	0.9126
2315	0.9132
2324	0.9137
2333	0.9143
2342	0.9152
2351	0.9155
2360	0.9153
2369	0.9128
2378	0.9097
2387	0.9085
2396	0.9079
2405	0.9074
2414	0.9066
2423	0.9057
2432	0.9047
2441	0.9037
2450	0.9027
2459	0.9018
2468	0.9007
2477	0.8996
2486	0.8984
2495	0.8971
2504	0.8956
2513	0.8941
2522	0.8916
2531	0.8891
2540	0.8865
2549	0.8839
2558	0.8813
2567	0.8778
2576	0.8742
2585	0.8708
2594	0.8659
2603	0.8607
2612	0.8524
2621	0.843
2630	0.8294
2639	0.8159
2648	0.791
2657	0.7628
2666	0.7348
2675	0.707
2684	0.681
2693	0.6686
2702	0.6623
2711	0.6549
2720	0.6379
2729	0.5938
2738	0.5492
2747	0.5129
2756	0.4596
2765	0.3798
2774	0.3107
2783	0.2715
2792	0.2436
2801	0.2154
2810	0.1874
2819	0.1705
2828	0.1698
2837	0.2291
2846	0.3179
2855	0.4061
2864	0.4768
2873	0.4768
2882	0.4698
2891	0.4377
2900	0.4042
2909	0.371
2918	0.338
2927	0.3052
2936	0.2726
2945	0.259
2954	0.2607
2963	0.2725
2972	0.3627
2981	0.4649
2990	0.5664
2999	0.6673
3008	0.7248
3017	0.724
3026	0.7004
3035	0.6766
3044	0.6529
3053	0.6421
3062	0.6579
3071	0.7041
3080	0.7084
3089	0.7122
3098	0.7209
3107	0.7462
3116	0.7628
3125	0.7647
3134	0.7642
3143	0.7623
3152	0.7561
3161	0.7458
3170	0.734
3179	0.7209
3188	0.7061
3197	0.6929
3206	0.6818
3215	0.6739
3224	0.6696
3233	0.667
3242	0.6643
3251	0.6618
3260	0.6577
3269	0.6461
3278	0.6077
3287	0.5296
3296	0.4804
3305	0.4792
3314	0.4791
3323	0.5272
3332	0.6084
3341	0.6893
3350	0.7697
3359	0.815
3368	0.8321
3377	0.8393
3386	0.8446
3395	0.8493
3404	0.8533
3413	0.8572
3422	0.8607
3431	0.8642
3440	0.8676
3449	0.871
3458	0.8741
3467	0.8772
3476	0.8803
3485	0.883
3494	0.8854
3503	0.8879
3512	0.8903
3521	0.8926
3530	0.8944
3539	0.8961
3548	0.8979
3557	0.8997
3566	0.9014
3575	0.9031
3584	0.9047
3593	0.9062
3602	0.9076
3611	0.9087
3620	0.9097
3629	0.9107
3638	0.9118
3647	0.913
3656	0.9144
3665	0.9158
3674	0.9172
3683	0.9186
3692	0.9197
3701	0.9206
3710	0.9212
3719	0.9215
3728	0.9218
3737	0.9222
3746	0.9221
3755	0.9219
3764	0.9216
3773	0.9209
3782	0.92
3791	0.9192
3800	0.9182
3809	0.9168
3818	0.9154
3827	0.9141
3836	0.9124
3845	0.9108
3854	0.9092
3863	0.9078
3872	0.9064
3881	0.9052
3890	0.9039
3899	0.9026
3908	0.9013
3917	0.9
3926	0.8988
3935	0.8974
3944	0.8969
3953	0.8969
3962	0.8949
3971	0.8967
3980	0.897
3989	0.8976
3998	0.8981
