Infrared Spectrum: Trimesitylborane
Formula: C 27 H 33 B
CAS: 7297-95-2
State: gas
Origin: EPA-IR VAPOR PHASE LIBRARY
1/CM	ABSORBANCE
549.8	0.0012707
559.445	0.003111
569.09	0.002091
578.734	0.003141
588.379	0.0008074
598.024	0.0012078
607.669	0.0009146
617.313	0.000643
626.958	0.00044663
636.603	0.0012166
646.248	0.0009962
655.893	0.002461
665.537	0.010061
675.182	0.004781
684.827	0.003811
694.472	0.004161
704.116	0.004361
713.761	0.010751
723.406	0.024191
733.051	0.004451
742.695	0.002261
752.34	0.002711
761.985	0.002621
771.63	0.002001
781.275	0.002181
790.919	0.002031
800.564	0.002321
810.209	0.003951
819.854	0.007161
829.498	0.032131
839.143	0.079871
848.788	0.029051
858.433	0.010441
868.078	0.004631
877.722	0.005261
887.367	0.003461
897.012	0.002481
906.657	0.002711
916.301	0.002911
925.946	0.004141
935.591	0.003421
945.236	0.004661
954.88	0.009561
964.525	0.006041
974.17	0.002981
983.815	0.003161
993.46	0.003711
1003.1	0.004721
1012.75	0.006181
1022.39	0.008631
1032.04	0.008101
1041.68	0.006761
1051.33	0.005751
1060.97	0.004901
1070.62	0.003081
1080.26	0.002731
1089.91	0.003681
1099.55	0.003941
1109.2	0.004051
1118.84	0.004331
1128.49	0.007011
1138.13	0.012451
1147.78	0.042511
1157.42	0.027701
1167.07	0.007481
1176.71	0.006431
1186.36	0.009461
1196	0.019181
1205.64	0.047721
1215.29	0.053091
1224.93	0.029301
1234.58	0.051631
1244.22	0.043651
1253.87	0.016451
1263.51	0.008501
1273.16	0.008411
1282.8	0.009481
1292.45	0.004961
1302.09	0.004441
1311.74	0.004761
1321.38	0.005291
1331.03	0.005831
1340.67	0.006251
1350.32	0.006891
1359.96	0.008371
1369.61	0.010931
1379.25	0.017831
1388.9	0.018441
1398.54	0.024341
1408.18	0.038931
1417.83	0.050941
1427.47	0.046381
1437.12	0.033331
1446.76	0.026351
1456.41	0.022251
1466.05	0.019991
1475.7	0.017601
1485.34	0.016241
1494.99	0.015851
1504.63	0.016511
1514.28	0.018071
1523.92	0.019851
1533.57	0.022481
1543.21	0.022301
1552.86	0.017051
1562.5	0.014451
1572.15	0.014231
1581.79	0.017761
1591.44	0.035531
1601.08	0.085161
1610.73	0.050321
1620.37	0.011691
1630.01	0.005881
1639.66	0.004011
1649.3	0.003091
1658.95	0.002391
1668.59	0.002241
1678.24	0.001971
1687.88	0.001791
1697.53	0.001981
1707.17	0.002951
1716.82	0.004451
1726.46	0.003281
1736.11	0.002311
1745.75	0.003001
1755.4	0.002781
1765.04	0.001581
1774.69	0.0012399
1784.33	0.0013241
1793.98	0.001511
1803.62	0.001531
1813.27	0.0012848
1822.91	0.001053
1832.55	0.0010813
1842.2	0.0011766
1851.84	0.001063
1861.49	0.0011194
1871.13	0.0012877
1880.78	0.001581
1890.42	0.0014242
1900.07	0.0013914
1909.71	0.001296
1919.36	0.0013115
1929	0.0013972
1938.65	0.001611
1948.29	0.0013469
1957.94	0.0012725
1967.58	0.0010613
1977.23	0.0011147
1986.87	0.000817
1996.52	0.0008846
2006.16	0.0007401
2015.81	0.0008245
2025.45	0.0006959
2035.1	0.0007658
2044.74	0.0009205
2054.38	0.0008089
2064.03	0.0008677
2073.67	0.000797
2083.32	0.0007281
2092.96	0.0008518
2102.61	0.0010011
2112.25	0.0009078
2121.9	0.0009318
2131.54	0.0009561
2141.19	0.0009538
2150.83	0.000989
2160.48	0.0011006
2170.12	0.0011042
2179.77	0.0009849
2189.41	0.0007321
2199.06	0.0008355
2208.7	0.0007252
2218.35	0.000785
2227.99	0.0008835
2237.64	0.0009386
2247.28	0.0009016
2256.92	0.0008057
2266.57	0.0008505
2276.21	0.0008351
2285.86	0.0009894
2295.5	0.0010192
2305.15	0.0010755
2314.79	0.0009498
2324.44	0.0009916
2334.08	0.0009501
2343.73	0.0008892
2353.37	0.0011561
2363.02	0.0012828
2372.66	0.0011829
2382.31	0.0013118
2391.95	0.0013969
2401.6	0.0014291
2411.24	0.001571
2420.89	0.001561
2430.53	0.001481
2440.18	0.001491
2449.82	0.001412
2459.47	0.0014113
2469.11	0.001581
2478.75	0.001471
2488.4	0.0012205
2498.04	0.0012629
2507.69	0.0010473
2517.33	0.0009348
2526.98	0.0011356
2536.62	0.0010104
2546.27	0.0009734
2555.91	0.0008951
2565.56	0.0008775
2575.2	0.0010895
2584.85	0.000977
2594.49	0.0009152
2604.14	0.0008895
2613.78	0.0011796
2623.43	0.0011456
2633.07	0.0012874
2642.72	0.0014265
2652.36	0.001427
2662.01	0.001751
2671.65	0.001481
2681.29	0.0013104
2690.94	0.001491
2700.58	0.001681
2710.23	0.001861
2719.87	0.002001
2729.52	0.003401
2739.16	0.005401
2748.81	0.003261
2758.45	0.002321
2768.1	0.002301
2777.74	0.002331
2787.39	0.002701
2797.03	0.003371
2806.68	0.004041
2816.32	0.005051
2825.97	0.006421
2835.61	0.008521
2845.26	0.012381
2854.9	0.019021
2864.55	0.028371
2874.19	0.029011
2883.84	0.025661
2893.48	0.024661
2903.12	0.027461
2912.77	0.037751
2922.41	0.062091
2932.06	0.078061
2941.7	0.048271
2951.35	0.035811
2960.99	0.036141
2970.64	0.037011
2980.28	0.037361
2989.93	0.037371
2999.57	0.035951
3009.22	0.042621
3018.86	0.040371
3028.51	0.038321
3038.15	0.030301
3047.8	0.018871
3057.44	0.013291
3067.09	0.009891
3076.73	0.007621
3086.38	0.005621
3096.02	0.004431
3105.67	0.003971
3115.31	0.003031
3124.95	0.002201
3134.6	0.001841
3144.24	0.001831
3153.89	0.0011818
3163.53	0.0013262
3173.18	0.0011395
3182.82	0.0008507
3192.47	0.0006906
3202.11	0.000833
3211.76	0.0008058
3221.4	0.00044431
3231.05	0.0006855
3240.69	0.0005851
3250.34	0.0007505
3259.98	0.0005381
3269.63	0.0007277
3279.27	0.0008157
3288.92	0.0007685
3298.56	0.0008903
3308.21	0.0008007
3317.85	0.0007485
3327.49	0.0008487
3337.14	0.0008066
3346.78	0.000272
3356.43	0.0007842
3366.07	0.00037
3375.72	0.0004023
3385.36	0.0005319
3395.01	0.00051352
3404.65	0.0006144
3414.3	0.0006525
3423.94	0.00047166
3433.59	0.00044855
3443.23	0.0009808
3452.88	0.0007903
3462.52	0.0006468
3472.17	0.00049047
3481.81	0.0006923
3491.46	0.00049837
3501.1	0.000406
3510.75	0.000401
3520.39	0.00051975
3530.04	0.00050267
3539.68	0.0006657
3549.32	0.0005825
3558.97	0.0005895
3568.61	0.0006746
3578.26	0.000352
3587.9	0.00048005
3597.55	0.0006588
3607.19	0.000375
3616.84	0.000435462
3626.48	9.1e-05
3636.13	0.000375
3645.77	0.000439571
3655.42	0.000246
3665.06	0.000159
3674.71	5.9e-05
3684.35	0
3694	0.000257
3703.64	0.000319
3713.29	0.000246
3722.93	0.000233
3732.58	0.0004729
3742.22	0.000258
3751.86	0.000312
3761.51	0.00024
3771.15	0.000283
3780.8	0.0003802
3790.44	0.00069
3800.09	0.00028
3809.73	0.000308
3819.38	0.000327
3829.02	0.0005949
3838.67	0.000239
3848.31	0.00046349
3857.96	0.000609
3867.6	0.0007141
3877.25	0.000123
3886.89	0.0006796
3896.54	0.000709
3906.18	0.0009376
3915.83	0.0006277
3925.47	0.0008913
3935.12	0.0006686
3944.76	0.000818
3954.41	0.001062
3964.05	0.0007543
3973.69	0.0007888
3983.34	0.0009853
3992.98	0.0006783
