Infrared Spectrum: p-Menth-8-en-1-ol, cis
Formula: C10 H18 O
CAS: 7299-41-4
State: LIQUID (NEAT)
Class: COBLENTZ III
Instrument: BECKMAN IR-12 (GRATING)
Instrument parameters: GRATING
Sampling: TRANSMISSION
Path length: CAPILLARY
Resolution: 2
Origin: COLGATE-PALMOLIVE COMPANY (KELLENBACH)
1/CM	TRANSMITTANCE
405	0.6803
414	0.7273
423	0.738
432	0.7397
441	0.746
450	0.7619
459	0.7878
468	0.7795
477	0.8078
486	0.8267
495	0.8069
504	0.8133
513	0.8444
522	0.8446
531	0.7836
540	0.6222
549	0.7583
558	0.7879
567	0.7833
576	0.7742
585	0.7685
594	0.7533
603	0.7349
612	0.7241
621	0.7313
630	0.7398
639	0.7347
648	0.7244
657	0.7465
666	0.7553
675	0.7714
684	0.7838
693	0.8026
702	0.8166
711	0.8163
720	0.7757
729	0.7714
738	0.852
747	0.8665
756	0.8744
765	0.8778
774	0.8662
783	0.8804
792	0.8903
801	0.852
810	0.8907
819	0.8557
828	0.9059
837	0.9077
846	0.9059
855	0.8913
864	0.8262
873	0.5006
882	0.2496
891	0.4156
900	0.5482
909	0.3342
918	0.5437
927	0.6963
936	0.7429
945	0.6653
954	0.7859
963	0.8698
972	0.8788
981	0.849
990	0.5495
999	0.4753
1008	0.6606
1017	0.7249
1026	0.7833
1035	0.8542
1044	0.8392
1053	0.8747
1062	0.8731
1071	0.832
1080	0.8275
1089	0.7751
1098	0.6775
1107	0.5963
1116	0.5016
1125	0.4858
1134	0.5691
1143	0.589
1152	0.4606
1161	0.6604
1170	0.6867
1179	0.7363
1188	0.8157
1197	0.813
1206	0.7616
1215	0.5272
1224	0.4762
1233	0.5203
1242	0.6432
1251	0.7484
1260	0.7291
1269	0.7545
1278	0.8056
1287	0.7456
1296	0.6803
1305	0.7241
1314	0.6695
1323	0.7307
1332	0.7583
1341	0.7692
1350	0.7012
1359	0.6679
1368	0.3962
1377	0.4451
1386	0.6127
1395	0.6364
1404	0.6796
1413	0.7189
1422	0.6852
1431	0.5293
1440	0.3925
1449	0.413
1458	0.4472
1467	0.6524
1476	0.7843
1485	0.8394
1494	0.8656
1503	0.8797
1512	0.8843
1521	0.8944
1530	0.9001
1539	0.9026
1548	0.9022
1557	0.9048
1566	0.905
1575	0.9028
1584	0.8991
1593	0.8959
1602	0.8954
1611	0.8834
1620	0.8621
1629	0.8127
1638	0.4895
1647	0.5987
1656	0.8312
1665	0.861
1674	0.8793
1683	0.8933
1692	0.8993
1701	0.9035
1710	0.9068
1719	0.9096
1728	0.9112
1737	0.9125
1746	0.9131
1755	0.9134
1764	0.9119
1773	0.9022
1782	0.8839
1791	0.8914
1800	0.909
1809	0.9152
1818	0.9173
1827	0.9194
1836	0.9205
1845	0.9215
1854	0.922
1863	0.9223
1872	0.9219
1881	0.9211
1890	0.9201
1899	0.9188
1908	0.9183
1917	0.9189
1926	0.9204
1935	0.9218
1944	0.9231
1953	0.9244
1962	0.9246
1971	0.9245
1980	0.9244
1989	0.9236
1998	0.9218
2007	0.9205
2016	0.9196
2025	0.9187
2034	0.9174
2043	0.9153
2052	0.9133
2061	0.9108
2070	0.9083
2079	0.9073
2088	0.9066
2097	0.9058
2106	0.9066
2115	0.9076
2124	0.9076
2133	0.9072
2142	0.9069
2151	0.9064
2160	0.9061
2169	0.9057
2178	0.9054
2187	0.905
2196	0.9046
2205	0.904
2214	0.9033
2223	0.9026
2232	0.902
2241	0.9013
2250	0.9007
2259	0.9
2268	0.8996
2277	0.9003
2286	0.901
2295	0.901
2304	0.9005
2313	0.9
2322	0.8965
2331	0.8923
2340	0.8877
2349	0.8837
2358	0.881
2367	0.8819
2376	0.8865
2385	0.8939
2394	0.8984
2403	0.8982
2412	0.8971
2421	0.8952
2430	0.8933
2439	0.8914
2448	0.8895
2457	0.8869
2466	0.8844
2475	0.885
2484	0.8871
2493	0.8884
2502	0.8865
2511	0.8815
2520	0.8787
2529	0.8779
2538	0.8773
2547	0.8756
2556	0.8726
2565	0.8701
2574	0.8682
2583	0.868
2592	0.8675
2601	0.8626
2610	0.8591
2619	0.8584
2628	0.8588
2637	0.8592
2646	0.8593
2655	0.8587
2664	0.8575
2673	0.8561
2682	0.854
2691	0.8509
2700	0.8467
2709	0.8425
2718	0.8403
2727	0.8428
2736	0.845
2745	0.8459
2754	0.8454
2763	0.8417
2772	0.8304
2781	0.8068
2790	0.7796
2799	0.7377
2808	0.6891
2817	0.5936
2826	0.533
2835	0.4503
2844	0.3936
2853	0.358
2862	0.3485
2871	0.3792
2880	0.4009
2889	0.3945
2898	0.2834
2907	0.1657
2916	0.1365
2925	0.1224
2934	0.1263
2943	0.2041
2952	0.2445
2961	0.1945
2970	0.2846
2979	0.5445
2988	0.6825
2997	0.7324
3006	0.7697
3015	0.7922
3024	0.8066
3033	0.8113
3042	0.8066
3051	0.7862
3060	0.6787
3069	0.6914
3078	0.6717
3087	0.7534
3096	0.8139
3105	0.8286
3114	0.8325
3123	0.8318
3132	0.8291
3141	0.825
3150	0.8179
3159	0.8103
3168	0.8019
3177	0.7926
3186	0.7827
3195	0.7727
3204	0.7589
3213	0.744
3222	0.7255
3231	0.6997
3240	0.6707
3249	0.6431
3258	0.6173
3267	0.5951
3276	0.572
3285	0.5444
3294	0.5093
3303	0.4713
3312	0.4381
3321	0.4119
3330	0.3887
3339	0.3683
3348	0.3518
3357	0.3422
3366	0.3366
3375	0.3336
3384	0.3343
3393	0.338
3402	0.345
3411	0.3552
3420	0.3669
3429	0.3815
3438	0.3952
3447	0.4223
3456	0.4422
3465	0.4642
3474	0.4908
3483	0.5314
3492	0.5668
3501	0.5972
3510	0.6222
3519	0.6509
3528	0.6768
3537	0.701
3546	0.7216
3555	0.7447
3564	0.7714
3573	0.7857
3582	0.7927
3591	0.7963
3600	0.7996
3609	0.8038
3618	0.8223
3627	0.8503
3636	0.8601
3645	0.8654
3654	0.868
3663	0.8695
3672	0.8704
3681	0.871
3690	0.8716
3699	0.8721
3708	0.8724
3717	0.8727
3726	0.8723
3735	0.8713
3744	0.8709
3753	0.8711
3762	0.8729
3771	0.8724
3780	0.8718
3789	0.8708
3798	0.8697
3807	0.8681
3816	0.8663
3825	0.8644
3834	0.863
3843	0.8619
3852	0.8608
3861	0.8602
3870	0.8603
3879	0.8603
3888	0.8604
3897	0.8606
3906	0.8609
3915	0.8611
3924	0.8611
3933	0.8611
3942	0.8611
3951	0.8611
3960	0.8611
3969	0.861
3978	0.8609
3987	0.8612
3996	0.8618
