Infrared Spectrum: 1,2-Benzenedioic acid, bis(2-ethylbutyl) ester
Formula: C20 H30 O4
CAS: 7299-89-0
State: SOLUTION (10% CCl4 FOR 2.7-7.5, CS2 FOR 7.5-26 MICRON) VS SOLVENT
Class: COBLENTZ III
Instrument: DOW KBr FOREPRISM-GRATING
Instrument parameters: BLAZED AT 3.5, 12.0, 20.0 MICRON AND CHANGED AT 5.0, 7.5, 14.9 MICRON
Sampling: TRANSMISSION
Path length: 0.011 CM, 0.011 CM
Resolution: 2
Origin: DOW CHEMICAL COMPANY
1/CM	TRANSMITTANCE
3792	0.8586
3783	0.8587
3774	0.8589
3765	0.8594
3756	0.8602
3747	0.861
3738	0.8618
3729	0.8625
3720	0.8628
3711	0.863
3702	0.8628
3693	0.8627
3684	0.8617
3675	0.8601
3666	0.8578
3657	0.8575
3648	0.8578
3639	0.8586
3630	0.8594
3621	0.8602
3612	0.8615
3603	0.8628
3594	0.8643
3585	0.8656
3576	0.8668
3567	0.8681
3558	0.8694
3549	0.871
3540	0.8728
3531	0.8747
3522	0.8763
3513	0.8778
3504	0.8793
3495	0.8807
3486	0.8821
3477	0.8821
3468	0.8808
3459	0.8767
3450	0.8706
3441	0.8633
3432	0.8584
3423	0.8592
3414	0.8683
3405	0.8758
3396	0.8811
3387	0.8844
3378	0.8867
3369	0.8887
3360	0.8901
3351	0.8914
3342	0.8927
3333	0.8939
3324	0.8951
3315	0.8962
3306	0.8971
3297	0.8982
3288	0.899
3279	0.8994
3270	0.8999
3261	0.9001
3252	0.9003
3243	0.8998
3234	0.8985
3225	0.8949
3216	0.8909
3207	0.8905
3198	0.8896
3189	0.8871
3180	0.8823
3171	0.8794
3162	0.8787
3153	0.879
3144	0.8796
3135	0.8793
3126	0.8782
3117	0.8773
3108	0.8748
3099	0.8663
3090	0.8577
3081	0.8452
3072	0.7781
3063	0.7746
3054	0.7922
3045	0.8158
3036	0.8168
3027	0.8008
3018	0.7933
3009	0.7746
3000	0.6842
2991	0.4162
2982	0.0906
2973	0.0389
2964	0.0332
2955	0.1275
2946	0.155
2937	0.1169
2928	0.1304
2919	0.2088
2910	0.2873
2901	0.3142
2892	0.3672
2883	0.1602
2874	0.2234
2865	0.2934
2856	0.4059
2847	0.6058
2838	0.7005
2829	0.7394
2820	0.7651
2811	0.7871
2802	0.8032
2793	0.8174
2784	0.8291
2775	0.835
2766	0.8384
2757	0.8396
2748	0.8382
2739	0.8345
2730	0.8339
2721	0.8373
2712	0.8423
2703	0.848
2694	0.8523
2685	0.8555
2676	0.8567
2667	0.8571
2658	0.8589
2649	0.8612
2640	0.8641
2631	0.8653
2622	0.8641
2613	0.8616
2604	0.8595
2595	0.8588
2586	0.8591
2577	0.8606
2568	0.8623
2559	0.864
2550	0.8656
2541	0.8671
2532	0.869
2523	0.871
2514	0.8728
2505	0.8746
2496	0.876
2487	0.8768
2478	0.8777
2469	0.8773
2460	0.8765
2451	0.8744
2442	0.871
2433	0.8686
2424	0.8668
2415	0.8658
2406	0.8663
2397	0.8671
2388	0.8683
2379	0.8692
2370	0.8699
2361	0.8704
2352	0.8704
2343	0.8706
2334	0.8714
2325	0.8709
2316	0.8668
2307	0.8668
2298	0.867
2289	0.8668
2280	0.8667
2271	0.8663
2262	0.8659
2253	0.8654
2244	0.8659
2235	0.8666
2226	0.8677
2217	0.8689
2208	0.8702
2199	0.8721
2190	0.8777
2181	0.883
2172	0.8785
2163	0.8754
2154	0.8732
2145	0.8735
2136	0.8738
2127	0.8736
2118	0.8734
2109	0.8732
2100	0.8733
2091	0.8734
2082	0.8736
2073	0.8737
2064	0.8737
2055	0.8737
2046	0.8739
2037	0.8741
2028	0.8736
2019	0.873
2010	0.8728
2001	0.8731
1992	0.8753
1983	0.8767
1974	0.8723
1965	0.8596
1956	0.8668
1947	0.8683
1938	0.8453
1929	0.8534
1920	0.8612
1911	0.8627
1902	0.8634
1893	0.8644
1884	0.8652
1875	0.866
1866	0.8578
1857	0.857
1848	0.8582
1839	0.8495
1830	0.8336
1821	0.8354
1812	0.8362
1803	0.835
1794	0.8267
1785	0.8095
1776	0.774
1767	0.7138
1758	0.5771
1749	0.4276
1740	0.0855
1731	0.0071
1722	0.0028
1713	0.0781
1704	0.4155
1695	0.576
1686	0.6434
1677	0.7198
1668	0.77
1659	0.7911
1650	0.808
1641	0.8183
1632	0.821
1623	0.8211
1614	0.8165
1605	0.7805
1596	0.6983
1587	0.7398
1578	0.6219
1569	0.779
1560	0.818
1551	0.8339
1542	0.836
1533	0.8318
1524	0.8245
1515	0.8128
1506	0.795
1497	0.7592
1488	0.6197
1479	0.6332
1470	0.31
1461	0.2762
1452	0.4122
1443	0.636
1434	0.725
1425	0.7635
1416	0.7654
1407	0.7531
1398	0.605
1389	0.35
1380	0.401
1371	0.6273
1362	0.6373
1353	0.6458
1344	0.6267
1335	0.542
1326	0.5743
1317	0.4605
1308	0.2654
1299	0.0812
1290	0.0176
1281	0.0076
1272	0.0052
1263	0.007
1254	0.0304
1245	0.1667
1236	0.389
1227	0.5567
1218	0.6162
1209	0.6557
1200	0.6831
1191	0.699
1182	0.7045
1173	0.6657
1164	0.459
1155	0.4524
1146	0.2872
1137	0.0893
1128	0.0589
1119	0.0333
1110	0.3512
1101	0.5273
1092	0.5975
1083	0.451
1074	0.0503
1065	0.2484
1056	0.5859
1047	0.6027
1038	0.4151
1029	0.6431
1020	0.7103
1011	0.7036
1002	0.7164
993	0.611
984	0.5752
975	0.6338
966	0.6601
957	0.5734
948	0.5487
939	0.6491
930	0.696
921	0.7565
912	0.7708
903	0.7332
894	0.7883
885	0.7783
876	0.7638
867	0.7624
858	0.7661
849	0.7836
840	0.7858
831	0.7449
822	0.7555
813	0.7574
804	0.7478
795	0.6706
786	0.6242
777	0.5427
768	0.5785
759	0.5336
750	0.3648
741	0.2109
732	0.5235
723	0.6907
714	0.7328
705	0.4836
696	0.6253
687	0.7743
678	0.8267
669	0.846
660	0.8239
651	0.73
642	0.7994
633	0.8399
624	0.8441
615	0.8334
606	0.8248
597	0.8263
588	0.8171
579	0.7849
570	0.7797
561	0.7935
552	0.8033
543	0.8106
534	0.8093
525	0.8087
516	0.8132
507	0.8165
498	0.8018
489	0.786
480	0.7955
471	0.8006
462	0.8036
453	0.8065
444	0.8095
435	0.8122
426	0.8134
417	0.814
408	0.8139
