Infrared Spectrum: L-TRYPTOPHAN
Formula: C11 H12 N2 O2
CAS: 73-22-3
State: SOLID (1 mg / 200 mg KBr DISC)
Melting point: 289 C DECOMP.
Class: COBLENTZ III
Instrument: PERKIN-ELMER 21 (GRATING)
Instrument parameters: FILTER AT ABOUT 10 MICRONS
Sampling: TRANSMISSION
Path length: 0.055 CM (THICKNESS)
Resolution: 2
1/CM	TRANSMITTANCE
4000	0.9582
3991	0.9582
3982	0.9583
3973	0.9584
3964	0.9585
3955	0.9587
3946	0.9588
3937	0.9591
3928	0.9592
3919	0.9593
3910	0.9595
3901	0.9597
3892	0.9599
3883	0.96
3874	0.9599
3865	0.9598
3856	0.9596
3847	0.9595
3838	0.9593
3829	0.9593
3820	0.9593
3811	0.9593
3802	0.9592
3793	0.9593
3784	0.9602
3775	0.961
3766	0.9618
3757	0.9628
3748	0.9637
3739	0.9645
3730	0.9651
3721	0.9659
3712	0.9665
3703	0.9671
3694	0.9678
3685	0.9683
3676	0.9684
3667	0.9684
3658	0.9684
3649	0.9681
3640	0.9678
3631	0.9675
3622	0.9664
3613	0.9645
3604	0.9625
3595	0.9606
3586	0.9568
3577	0.95
3568	0.9302
3559	0.9151
3550	0.9006
3541	0.883
3532	0.8686
3523	0.858
3514	0.8483
3505	0.8406
3496	0.8346
3487	0.8303
3478	0.8236
3469	0.8107
3460	0.7828
3451	0.7203
3442	0.6456
3433	0.5704
3424	0.4949
3415	0.4189
3406	0.3426
3397	0.2659
3388	0.2118
3379	0.2332
3370	0.339
3361	0.4492
3352	0.5601
3343	0.6715
3334	0.7105
3325	0.7258
3316	0.7368
3307	0.7421
3298	0.7444
3289	0.7461
3280	0.746
3271	0.7444
3262	0.7401
3253	0.7332
3244	0.7251
3235	0.7151
3226	0.7051
3217	0.695
3208	0.6835
3199	0.6701
3190	0.6491
3181	0.6271
3172	0.6087
3163	0.5969
3154	0.5851
3145	0.5698
3136	0.5462
3127	0.504
3118	0.4786
3109	0.4669
3100	0.4492
3091	0.4228
3082	0.3868
3073	0.3437
3064	0.3016
3055	0.2851
3046	0.2682
3037	0.2579
3028	0.2538
3019	0.2527
3010	0.2526
3001	0.2543
2992	0.2651
2983	0.2878
2974	0.3047
2965	0.3268
2956	0.358
2947	0.3764
2938	0.393
2929	0.4137
2920	0.4293
2911	0.4444
2902	0.4595
2893	0.4732
2884	0.4842
2875	0.491
2866	0.4949
2857	0.4975
2848	0.4993
2839	0.5025
2830	0.5069
2821	0.5129
2812	0.5198
2803	0.526
2794	0.5321
2785	0.538
2776	0.5436
2767	0.5473
2758	0.549
2749	0.5489
2740	0.546
2731	0.542
2722	0.5387
2713	0.5374
2704	0.5375
2695	0.5434
2686	0.5576
2677	0.5715
2668	0.5857
2659	0.5927
2650	0.5951
2641	0.5947
2632	0.5927
2623	0.5837
2614	0.5717
2605	0.5622
2596	0.5554
2587	0.5503
2578	0.5459
2569	0.5429
2560	0.5408
2551	0.5403
2542	0.5426
2533	0.5451
2524	0.5483
2515	0.551
2506	0.5538
2497	0.5564
2488	0.5607
2479	0.5657
2470	0.571
2461	0.5768
2452	0.5832
2443	0.5903
2434	0.5975
2425	0.605
2416	0.6126
2407	0.6207
2398	0.6276
2389	0.6392
2380	0.6622
2371	0.6714
2362	0.6792
2353	0.6871
2344	0.6951
2335	0.7042
2326	0.7134
2317	0.728
2308	0.7442
2299	0.7605
2290	0.7771
2281	0.7918
2272	0.8024
2263	0.8103
2254	0.8182
2245	0.8278
2236	0.8374
2227	0.8439
2218	0.8499
2209	0.8547
2200	0.8593
2191	0.8641
2182	0.8684
2173	0.8715
2164	0.8744
2155	0.8746
2146	0.872
2137	0.8649
2128	0.8517
2119	0.8368
2110	0.8235
2101	0.8107
2092	0.7999
2083	0.7928
2074	0.7914
2065	0.7971
2056	0.8074
2047	0.8221
2038	0.8338
2029	0.8457
2020	0.8585
2011	0.8713
2002	0.883
1993	0.893
1984	0.9018
1975	0.9093
1966	0.9149
1957	0.9202
1948	0.9251
1939	0.9283
1930	0.9275
1921	0.9241
1912	0.9337
1903	0.9418
1894	0.938
1885	0.9287
1876	0.9333
1867	0.9439
1858	0.9496
1849	0.9506
1840	0.9513
1831	0.9552
1822	0.9571
1813	0.9552
1804	0.952
1795	0.9512
1786	0.9508
1777	0.947
1768	0.9342
1759	0.934
1750	0.9316
1741	0.9218
1732	0.9065
1723	0.8814
1714	0.85
1705	0.8122
1696	0.7591
1687	0.5542
1678	0.3272
1669	0.0946
1660	0.2016
1651	0.339
1642	0.398
1633	0.3828
1624	0.3208
1615	0.2294
1606	0.1473
1597	0.0996
1588	0.1003
1579	0.1585
1570	0.2998
1561	0.3876
1552	0.5038
1543	0.544
1534	0.5717
1525	0.5879
1516	0.5934
1507	0.6202
1498	0.6814
1489	0.6722
1480	0.7257
1471	0.7382
1462	0.5304
1453	0.5395
1444	0.6501
1435	0.6636
1426	0.4309
1417	0.1889
1408	0.2379
1399	0.4188
1390	0.602
1381	0.7326
1372	0.7511
1363	0.395
1354	0.2119
1345	0.442
1336	0.5067
1327	0.6658
1318	0.6315
1309	0.7331
1300	0.7911
1291	0.8097
1282	0.8405
1273	0.8409
1264	0.8753
1255	0.8341
1246	0.8034
1237	0.809
1228	0.7069
1219	0.8616
1210	0.8825
1201	0.8845
1192	0.8985
1183	0.8975
1174	0.8924
1165	0.8447
1156	0.6845
1147	0.6223
1138	0.7837
1129	0.7618
1120	0.7917
1111	0.743
1102	0.6052
1093	0.6825
1084	0.7853
1075	0.7347
1066	0.8001
1057	0.7828
1048	0.7507
1039	0.7911
1030	0.7955
1021	0.7847
1012	0.7575
1003	0.7344
994	0.7848
985	0.7172
976	0.8118
967	0.8639
958	0.8638
949	0.8863
940	0.8907
931	0.8631
922	0.7544
913	0.8314
904	0.8892
895	0.9
886	0.9028
877	0.84
868	0.786
859	0.7669
850	0.7415
841	0.8436
832	0.893
823	0.9059
814	0.9071
805	0.8461
796	0.9002
787	0.9111
778	0.8834
769	0.822
760	0.8261
751	0.281
742	0.2884
733	0.8081
724	0.8771
715	0.8933
706	0.8647
697	0.8901
688	0.8601
679	0.7911
670	0.8687
