Infrared Spectrum: ADENINE
Formula: C5 H5 N5
CAS: 73-24-5
State: SOLID (SPLIT MULL)
Class: COBLENTZ III
Instrument: DOW KBr FOREPRISM-GRATING
Instrument parameters: BLAZED AT 3.5, 12.0, 20.0 MICRON AND CHANGED AT 5.0, 7.5, 14.9 MICRON
Sampling: TRANSMISSION
Resolution: 2
Origin: DOW CHEMICAL COMPANY
1/CM	TRANSMITTANCE
3804	0.6608
3795	0.663
3786	0.6653
3777	0.6675
3768	0.67
3759	0.6726
3750	0.6768
3741	0.6808
3732	0.685
3723	0.689
3714	0.6925
3705	0.6958
3696	0.6992
3687	0.7025
3678	0.706
3669	0.7094
3660	0.7128
3651	0.7167
3642	0.7204
3633	0.7242
3624	0.7284
3615	0.7324
3606	0.7368
3597	0.7415
3588	0.7465
3579	0.7512
3570	0.7558
3561	0.7601
3552	0.7643
3543	0.7681
3534	0.7718
3525	0.7756
3516	0.7787
3507	0.7811
3498	0.7795
3489	0.7751
3480	0.778
3471	0.7828
3462	0.7871
3453	0.791
3444	0.7943
3435	0.7961
3426	0.7968
3417	0.7956
3408	0.7918
3399	0.7825
3390	0.7594
3381	0.7318
3372	0.6856
3363	0.6197
3354	0.5936
3345	0.5826
3336	0.5435
3327	0.4975
3318	0.4547
3309	0.4238
3300	0.4143
3291	0.4232
3282	0.4453
3273	0.4516
3264	0.4665
3255	0.4869
3246	0.5096
3237	0.5109
3228	0.5099
3219	0.4992
3210	0.4812
3201	0.4588
3192	0.4393
3183	0.4214
3174	0.4
3165	0.3514
3156	0.3216
3147	0.2979
3138	0.2733
3129	0.2551
3120	0.2406
3111	0.2384
3102	0.2415
3093	0.2476
3084	0.2563
3075	0.2687
3066	0.2874
3057	0.3145
3048	0.3362
3039	0.3562
3030	0.3796
3021	0.3824
3012	0.38
3003	0.3707
2994	0.3518
2985	0.3398
2976	0.3404
2967	0.348
2958	0.3577
2949	0.3694
2940	0.3894
2931	0.4187
2922	0.4374
2913	0.439
2904	0.439
2895	0.4443
2886	0.4484
2877	0.4395
2868	0.4322
2859	0.431
2850	0.4318
2841	0.4182
2832	0.3999
2823	0.3854
2814	0.3712
2805	0.3576
2796	0.3425
2787	0.3424
2778	0.3471
2769	0.3558
2760	0.3668
2751	0.3698
2742	0.3787
2733	0.392
2724	0.3959
2715	0.3803
2706	0.37
2697	0.363
2688	0.3572
2679	0.3548
2670	0.364
2661	0.3784
2652	0.3987
2643	0.4131
2634	0.4252
2625	0.4347
2616	0.438
2607	0.4258
2598	0.4154
2589	0.422
2580	0.4293
2571	0.4308
2562	0.4383
2553	0.4489
2544	0.4616
2535	0.4712
2526	0.4806
2517	0.4883
2508	0.4951
2499	0.5018
2490	0.5094
2481	0.5174
2472	0.5269
2463	0.5362
2454	0.5456
2445	0.5549
2436	0.5644
2427	0.5678
2418	0.5678
2409	0.5666
2400	0.565
2391	0.5657
2382	0.5696
2373	0.5736
2364	0.5786
2355	0.5846
2346	0.5902
2337	0.5958
2328	0.601
2319	0.606
2310	0.6112
2301	0.6168
2292	0.6242
2283	0.631
2274	0.6379
2265	0.6446
2256	0.6519
2247	0.6594
2238	0.6665
2229	0.6737
2220	0.6808
2211	0.6876
2202	0.6944
2193	0.7008
2184	0.7075
2175	0.7136
2166	0.7196
2157	0.7254
2148	0.7314
2139	0.7378
2130	0.7458
2121	0.7531
2112	0.7588
2103	0.7635
2094	0.7671
2085	0.7668
2076	0.7674
2067	0.7699
2058	0.7734
2049	0.7784
2040	0.7833
2031	0.7945
2022	0.7891
2013	0.7901
2004	0.7898
1995	0.8117
1986	0.8218
1977	0.8311
1968	0.8384
1959	0.8397
1950	0.845
1941	0.8449
1932	0.8488
1923	0.8533
1914	0.856
1905	0.8535
1896	0.8455
1887	0.8487
1878	0.8554
1869	0.861
1860	0.8662
1851	0.8709
1842	0.8749
1833	0.8789
1824	0.8812
1815	0.8827
1806	0.8816
1797	0.8786
1788	0.8765
1779	0.876
1770	0.8778
1761	0.8813
1752	0.8858
1743	0.8915
1734	0.8971
1725	0.8977
1716	0.8916
1707	0.8525
1698	0.7691
1689	0.5625
1680	0.3048
1671	0.1548
1662	0.2534
1653	0.3764
1644	0.5535
1635	0.6077
1626	0.5735
1617	0.3355
1608	0.0692
1599	0.1387
1590	0.2948
1581	0.3875
1572	0.4823
1563	0.571
1554	0.6046
1545	0.6359
1536	0.6611
1527	0.6808
1518	0.68
1509	0.6271
1500	0.6528
1491	0.6569
1482	0.6548
1473	0.6404
1464	0.6417
1455	0.5895
1446	0.6245
1437	0.6974
1428	0.6446
1419	0.36
1410	0.6262
1401	0.6676
1392	0.7025
1383	0.7158
1374	0.6375
1365	0.5402
1356	0.6388
1347	0.6253
1338	0.4186
1329	0.4898
1320	0.5201
1311	0.2495
1302	0.5802
1293	0.6718
1284	0.6821
1275	0.6658
1266	0.6279
1257	0.4529
1248	0.5803
1239	0.6358
1230	0.6749
1221	0.7219
1212	0.7495
1203	0.7675
1194	0.7789
1185	0.7868
1176	0.7882
1167	0.7685
1158	0.7437
1149	0.776
1140	0.788
1131	0.6415
1122	0.6939
1113	0.7869
1104	0.82
1095	0.831
1086	0.8363
1077	0.8375
1068	0.8413
1059	0.845
1050	0.8375
1041	0.8168
1032	0.7718
1023	0.6751
1014	0.7801
1005	0.8471
996	0.8746
987	0.8888
978	0.8982
969	0.903
960	0.8901
951	0.8048
942	0.4433
933	0.6214
924	0.8078
915	0.5918
906	0.7458
897	0.8193
888	0.8336
879	0.8195
870	0.8161
861	0.8324
852	0.7964
843	0.8318
834	0.8678
825	0.8792
816	0.8853
807	0.8858
798	0.7325
789	0.8753
780	0.8686
771	0.8611
762	0.8521
753	0.8416
744	0.8234
735	0.8005
726	0.4421
717	0.7172
708	0.7767
699	0.7656
690	0.7304
681	0.7121
672	0.6851
663	0.6791
654	0.6504
645	0.622
636	0.6812
627	0.6505
618	0.7062
609	0.7551
600	0.773
591	0.7948
582	0.7911
573	0.7968
564	0.7978
555	0.7851
546	0.6494
537	0.7404
528	0.77
519	0.7875
510	0.7821
501	0.7774
492	0.7756
483	0.7754
474	0.7775
465	0.7836
456	0.7917
447	0.8001
438	0.809
429	0.819
420	0.8293
411	0.8398
402	0.8513
393	0.8568
384	0.859
