Infrared Spectrum: L-ISOLEUCINE
Formula: C6 H13 N O2
CAS: 73-32-5
State: SOLID (1 mg / 200 mg KBr DISC) VS KBr
Melting point: 284 C DECOMP.
Class: COBLENTZ III
Instrument: PERKIN-ELMER 21 (GRATING)
Instrument parameters: FILTER AT ABOUT 10 MICRONS
Sampling: TRANSMISSION
Path length: 0.055 CM (THICKNESS)
Resolution: 2
1/CM	TRANSMITTANCE
4000	0.8571
3991	0.8571
3982	0.8574
3973	0.8575
3964	0.8578
3955	0.8583
3946	0.8587
3937	0.8591
3928	0.8605
3919	0.8621
3910	0.8637
3901	0.8653
3892	0.8668
3883	0.8677
3874	0.8682
3865	0.8686
3856	0.8686
3847	0.8685
3838	0.8684
3829	0.8683
3820	0.8681
3811	0.868
3802	0.8678
3793	0.8677
3784	0.8677
3775	0.8674
3766	0.8671
3757	0.867
3748	0.8667
3739	0.8665
3730	0.8662
3721	0.866
3712	0.8658
3703	0.8654
3694	0.865
3685	0.8645
3676	0.864
3667	0.8635
3658	0.863
3649	0.8625
3640	0.862
3631	0.8614
3622	0.8601
3613	0.8586
3604	0.857
3595	0.8556
3586	0.854
3577	0.8512
3568	0.8475
3559	0.8437
3550	0.8399
3541	0.8358
3532	0.8302
3523	0.8247
3514	0.8191
3505	0.8137
3496	0.8091
3487	0.8047
3478	0.8001
3469	0.7956
3460	0.791
3451	0.7865
3442	0.7825
3433	0.7785
3424	0.7744
3415	0.7703
3406	0.7661
3397	0.7621
3388	0.7592
3379	0.7564
3370	0.7542
3361	0.7519
3352	0.7474
3343	0.7425
3334	0.7369
3325	0.7299
3316	0.7226
3307	0.7154
3298	0.7081
3289	0.7001
3280	0.6911
3271	0.664
3262	0.6411
3253	0.6258
3244	0.6062
3235	0.5653
3226	0.5464
3217	0.5306
3208	0.5144
3199	0.4993
3190	0.4818
3181	0.4588
3172	0.4234
3163	0.3687
3154	0.3499
3145	0.3316
3136	0.3135
3127	0.2952
3118	0.2769
3109	0.2442
3100	0.2145
3091	0.2
3082	0.1893
3073	0.1802
3064	0.1752
3055	0.1719
3046	0.1692
3037	0.1666
3028	0.1641
3019	0.1617
3010	0.159
3001	0.1557
2992	0.1508
2983	0.1446
2974	0.1387
2965	0.129
2956	0.106
2947	0.0807
2938	0.077
2929	0.0769
2920	0.0773
2911	0.08
2902	0.085
2893	0.0934
2884	0.1051
2875	0.1196
2866	0.1334
2857	0.1452
2848	0.1571
2839	0.1684
2830	0.1794
2821	0.1926
2812	0.2158
2803	0.2275
2794	0.2391
2785	0.2496
2776	0.2606
2767	0.2735
2758	0.2875
2749	0.2978
2740	0.3038
2731	0.3072
2722	0.3112
2713	0.3152
2704	0.32
2695	0.3254
2686	0.3312
2677	0.3382
2668	0.345
2659	0.3525
2650	0.3658
2641	0.3799
2632	0.3841
2623	0.3786
2614	0.3639
2605	0.355
2596	0.3568
2587	0.3642
2578	0.3791
2569	0.3946
2560	0.4089
2551	0.4233
2542	0.4414
2533	0.4621
2524	0.4826
2515	0.5101
2506	0.5334
2497	0.5547
2488	0.5798
2479	0.6036
2470	0.6242
2461	0.644
2452	0.6615
2443	0.6785
2434	0.6918
2425	0.6951
2416	0.71
2407	0.7261
2398	0.7425
2389	0.7568
2380	0.7705
2371	0.778
2362	0.7795
2353	0.7855
2344	0.7895
2335	0.791
2326	0.796
2317	0.8051
2308	0.8255
2299	0.8467
2290	0.853
2281	0.8532
2272	0.8525
2263	0.8516
2254	0.8533
2245	0.8596
2236	0.8657
2227	0.868
2218	0.8685
2209	0.8673
2200	0.864
2191	0.8501
2182	0.8227
2173	0.8067
2164	0.7971
2155	0.7861
2146	0.7724
2137	0.7525
2128	0.7351
2119	0.7255
2110	0.7221
2101	0.723
2092	0.7403
2083	0.7591
2074	0.7815
2065	0.8005
2056	0.8183
2047	0.8356
2038	0.8521
2029	0.8652
2020	0.8716
2011	0.8763
2002	0.8812
1993	0.8866
1984	0.8905
1975	0.8938
1966	0.8967
1957	0.8986
1948	0.9
1939	0.9008
1930	0.9016
1921	0.9016
1912	0.9014
1903	0.9008
1894	0.8994
1885	0.8978
1876	0.8947
1867	0.8915
1858	0.8878
1849	0.8833
1840	0.8785
1831	0.8724
1822	0.8662
1813	0.8592
1804	0.8518
1795	0.8439
1786	0.8348
1777	0.8255
1768	0.8161
1759	0.8051
1750	0.7928
1741	0.7747
1732	0.7571
1723	0.7393
1714	0.7149
1705	0.6846
1696	0.6496
1687	0.6092
1678	0.5699
1669	0.4994
1660	0.4125
1651	0.2931
1642	0.194
1633	0.1408
1624	0.0942
1615	0.0717
1606	0.0578
1597	0.0632
1588	0.0331
1579	0.0316
1570	0.0737
1561	0.1834
1552	0.2946
1543	0.3484
1534	0.2902
1525	0.1499
1516	0.0267
1507	0.0499
1498	0.1419
1489	0.2406
1480	0.3406
1471	0.3296
1462	0.2743
1453	0.4154
1444	0.4874
1435	0.494
1426	0.3291
1417	0.1856
1408	0.268
1399	0.1595
1390	0.1657
1381	0.2894
1372	0.4426
1363	0.3662
1354	0.2607
1345	0.4218
1336	0.4769
1327	0.1863
1318	0.4145
1309	0.3677
1300	0.4577
1291	0.5847
1282	0.6542
1273	0.6646
1264	0.6751
1255	0.6589
1246	0.6686
1237	0.7731
1228	0.8015
1219	0.8069
1210	0.8071
1201	0.7687
1192	0.621
1183	0.531
1174	0.7118
1165	0.7645
1156	0.765
1147	0.7361
1138	0.6541
1129	0.5645
1120	0.6251
1111	0.7251
1102	0.7684
1093	0.6999
1084	0.586
1075	0.7855
1066	0.8089
1057	0.7985
1048	0.7451
1039	0.7284
1030	0.7626
1021	0.8032
1012	0.8359
1003	0.8559
994	0.7654
985	0.7971
976	0.8441
967	0.7399
958	0.7843
949	0.8753
940	0.8848
931	0.8577
922	0.6692
913	0.8168
904	0.8818
895	0.8935
886	0.8809
877	0.7442
868	0.6839
859	0.8528
850	0.8443
841	0.9003
832	0.8921
823	0.8413
814	0.9113
805	0.8378
796	0.8543
787	0.8624
778	0.868
769	0.7298
760	0.8821
751	0.8071
742	0.8836
733	0.9054
724	0.884
715	0.7093
706	0.646
697	0.8434
688	0.8475
679	0.7125
670	0.7017
661	0.8504
