Infrared Spectrum: Acetamide, N-(2-(5-methoxyindol-3-yl)ethyl)-
Formula: C13 H16 N2 O2
CAS: 73-31-4
State: SOLID (SPLIT MULL), FLUOROLUBE FOR 3800-1330 CM^-^1, NUJOL FOR 1330-400 CM^-^1
Melting point: 117 C
Class: COBLENTZ III
Instrument: BECKMAN IR-9 (GRATING)
Instrument parameters: ORDER CHANGES: 670, 1200, 2000 CM^-^1
Sampling: TRANSMISSION
Resolution: 2
Origin: DOW CHEMICAL COMPANY
1/CM	TRANSMITTANCE
401	0.4845
410	0.4796
419	0.5612
428	0.612
437	0.6471
446	0.706
455	0.592
464	0.774
473	0.7996
482	0.8076
491	0.8096
500	0.8083
509	0.7907
518	0.8111
527	0.8028
536	0.75
545	0.7993
554	0.7734
563	0.6518
572	0.601
581	0.7349
590	0.6212
599	0.5897
608	0.7296
617	0.7951
626	0.4666
635	0.7906
644	0.7786
653	0.6744
662	0.624
671	0.6665
680	0.7264
689	0.7455
698	0.7418
707	0.7205
716	0.5541
725	0.7808
734	0.8274
743	0.8398
752	0.8524
761	0.7764
770	0.7175
779	0.8387
788	0.8617
797	0.6049
806	0.6797
815	0.7715
824	0.7978
833	0.6493
842	0.7255
851	0.8532
860	0.8657
869	0.866
878	0.8705
887	0.8685
896	0.8638
905	0.859
914	0.8392
923	0.7037
932	0.8001
941	0.7595
950	0.7478
959	0.6865
968	0.8248
977	0.8299
986	0.8258
995	0.8011
1004	0.7271
1013	0.8001
1022	0.5872
1031	0.6964
1040	0.3234
1049	0.6044
1058	0.7708
1067	0.7811
1076	0.7545
1085	0.7157
1094	0.7255
1103	0.4503
1112	0.5631
1121	0.7345
1130	0.746
1139	0.5944
1148	0.7395
1157	0.7331
1166	0.7168
1175	0.4254
1184	0.6601
1193	0.7176
1202	0.5716
1211	0.1861
1220	0.1284
1229	0.2991
1238	0.6758
1247	0.7399
1256	0.7346
1265	0.7144
1274	0.5272
1283	0.6771
1292	0.6392
1301	0.5254
1310	0.5496
1319	0.5898
1328	0.5149
1337	0.5445
1346	0.5301
1355	0.4706
1364	0.5472
1373	0.4564
1382	0.5636
1391	0.5975
1400	0.5844
1409	0.5701
1418	0.5224
1427	0.4222
1436	0.448
1445	0.3849
1454	0.4953
1463	0.3337
1472	0.4026
1481	0.4225
1490	0.0736
1499	0.6037
1508	0.6174
1517	0.5786
1526	0.5075
1535	0.3962
1544	0.2804
1553	0.0681
1562	0.0839
1571	0.4395
1580	0.395
1589	0.2308
1598	0.4995
1607	0.3294
1616	0.1332
1625	0.1369
1634	0.1553
1643	0.3436
1652	0.6662
1661	0.756
1670	0.8385
1679	0.854
1688	0.8638
1697	0.8654
1706	0.8552
1715	0.8417
1724	0.8332
1733	0.8299
1742	0.8176
1751	0.8315
1760	0.8274
1769	0.8236
1778	0.8168
1787	0.8132
1796	0.8107
1805	0.8087
1814	0.8061
1823	0.8033
1832	0.8004
1841	0.7964
1850	0.7899
1859	0.7808
1868	0.7711
1877	0.7704
1886	0.7917
1895	0.7889
1904	0.7878
1913	0.7843
1922	0.7811
1931	0.779
1940	0.7768
1949	0.7724
1958	0.7675
1967	0.7631
1976	0.7643
1985	0.7626
1994	0.7568
2003	0.7508
2012	0.7471
2021	0.7454
2030	0.7436
2039	0.7418
2048	0.7389
2057	0.7321
2066	0.7256
2075	0.7258
2084	0.7258
2093	0.7248
2102	0.7219
2111	0.719
2120	0.716
2129	0.7108
2138	0.7065
2147	0.7025
2156	0.6983
2165	0.6945
2174	0.6915
2183	0.6888
2192	0.6858
2201	0.6821
2210	0.6784
2219	0.6745
2228	0.6706
2237	0.6665
2246	0.6619
2255	0.6575
2264	0.6533
2273	0.6504
2282	0.6475
2291	0.6451
2300	0.6445
2309	0.6439
2318	0.6433
2327	0.6428
2336	0.6425
2345	0.6422
2354	0.6424
2363	0.6432
2372	0.6436
2381	0.6394
2390	0.6253
2399	0.6205
2408	0.6185
2417	0.6176
2426	0.617
2435	0.616
2444	0.6162
2453	0.6153
2462	0.6137
2471	0.6121
2480	0.6105
2489	0.6084
2498	0.6057
2507	0.6029
2516	0.5994
2525	0.5957
2534	0.5927
2543	0.5897
2552	0.5862
2561	0.5834
2570	0.583
2579	0.5834
2588	0.5821
2597	0.5809
2606	0.5832
2615	0.5837
2624	0.58
2633	0.5756
2642	0.5712
2651	0.5676
2660	0.5634
2669	0.5587
2678	0.555
2687	0.5519
2696	0.5486
2705	0.5451
2714	0.5427
2723	0.541
2732	0.5388
2741	0.5354
2750	0.5321
2759	0.529
2768	0.526
2777	0.5225
2786	0.5182
2795	0.5097
2804	0.4971
2813	0.4768
2822	0.4125
2831	0.437
2840	0.4779
2849	0.4628
2858	0.4375
2867	0.4062
2876	0.3729
2885	0.4421
2894	0.4154
2903	0.417
2912	0.4268
2921	0.3662
2930	0.3475
2939	0.4066
2948	0.4166
2957	0.4279
2966	0.4677
2975	0.461
2984	0.4052
2993	0.3726
3002	0.4849
3011	0.4851
3020	0.4767
3029	0.4666
3038	0.4545
3047	0.4401
3056	0.4332
3065	0.4269
3074	0.3998
3083	0.3829
3092	0.403
3101	0.4222
3110	0.425
3119	0.423
3128	0.4158
3137	0.4037
3146	0.3914
3155	0.378
3164	0.362
3173	0.3462
3182	0.3314
3191	0.3164
3200	0.2983
3209	0.276
3218	0.2512
3227	0.2263
3236	0.2021
3245	0.1782
3254	0.1544
3263	0.1317
3272	0.1099
3281	0.0869
3290	0.0858
3299	0.0849
3308	0.0811
3317	0.1235
3326	0.2015
3335	0.2866
3344	0.3705
3353	0.4102
3362	0.457
3371	0.4871
3380	0.5119
3389	0.5287
3398	0.5391
3407	0.5432
3416	0.5446
3425	0.5442
3434	0.5415
3443	0.5386
3452	0.5356
3461	0.5319
3470	0.5278
3479	0.5234
3488	0.5187
3497	0.514
3506	0.5097
3515	0.506
3524	0.5021
3533	0.4976
3542	0.4943
3551	0.4916
3560	0.4889
3569	0.4859
3578	0.4829
3587	0.4798
3596	0.477
3605	0.4741
3614	0.4714
3623	0.4688
3632	0.4665
3641	0.4637
3650	0.461
3659	0.459
3668	0.4569
3677	0.4552
3686	0.4536
3695	0.4519
3704	0.4502
3713	0.4484
3722	0.4465
3731	0.4446
3740	0.4428
3749	0.441
3758	0.4419
3767	0.4373
3776	0.4355
3785	0.4342
3794	0.4329
