Infrared Spectrum: Guanine
Formula: C5 H5 N5 O
CAS: 73-40-5
State: SOLID (SPLIT MULL), FLUOROLUBE FOR 3800-1330 CM^-^1, NUJOL FOR 1330-400 CM^-^1
Class: COBLENTZ II
Instrument: BECKMAN IR-9 (GRATING)
Instrument parameters: ORDER CHANGES: 670, 1200, 2000 CM^-^1
Sampling: TRANSMISSION
Resolution: 2
Origin: DOW CHEMICAL COMPANY
1/CM	TRANSMITTANCE
3800	0.7967
3791	0.7956
3782	0.7944
3773	0.7964
3764	0.7983
3755	0.8001
3746	0.8018
3737	0.8035
3728	0.8051
3719	0.8061
3710	0.8071
3701	0.8081
3692	0.809
3683	0.81
3674	0.8108
3665	0.8118
3656	0.8128
3647	0.8141
3638	0.8151
3629	0.8157
3620	0.8161
3611	0.8161
3602	0.8153
3593	0.8103
3584	0.8051
3575	0.8107
3566	0.8128
3557	0.8122
3548	0.8118
3539	0.8118
3530	0.8117
3521	0.8117
3512	0.8117
3503	0.8118
3494	0.8114
3485	0.8108
3476	0.8101
3467	0.8092
3458	0.8081
3449	0.8064
3440	0.8035
3431	0.7996
3422	0.7948
3413	0.7888
3404	0.7775
3395	0.7515
3386	0.7165
3377	0.6754
3368	0.5562
3359	0.4276
3350	0.2882
3341	0.2288
3332	0.239
3323	0.2462
3314	0.2565
3305	0.2846
3296	0.3584
3287	0.3887
3278	0.4043
3269	0.4228
3260	0.446
3251	0.4778
3242	0.5034
3233	0.4964
3224	0.4812
3215	0.4749
3206	0.4581
3197	0.4101
3188	0.3675
3179	0.3516
3170	0.351
3161	0.3494
3152	0.343
3143	0.3332
3134	0.2988
3125	0.2683
3116	0.2479
3107	0.248
3098	0.2618
3089	0.2839
3080	0.3018
3071	0.3073
3062	0.3156
3053	0.3399
3044	0.3668
3035	0.3939
3026	0.4158
3017	0.4178
3008	0.4149
2999	0.3997
2990	0.3932
2981	0.4014
2972	0.4469
2963	0.4879
2954	0.529
2945	0.5328
2936	0.5197
2927	0.4467
2918	0.3746
2909	0.3107
2900	0.3097
2891	0.3259
2882	0.348
2873	0.355
2864	0.353
2855	0.3532
2846	0.3574
2837	0.3714
2828	0.3934
2819	0.4497
2810	0.4592
2801	0.4543
2792	0.4316
2783	0.4044
2774	0.3991
2765	0.399
2756	0.3954
2747	0.3868
2738	0.3774
2729	0.3703
2720	0.3644
2711	0.3603
2702	0.3571
2693	0.3608
2684	0.3782
2675	0.396
2666	0.4104
2657	0.4236
2648	0.436
2639	0.4495
2630	0.4657
2621	0.4893
2612	0.5202
2603	0.5362
2594	0.5482
2585	0.5584
2576	0.5693
2567	0.5801
2558	0.5909
2549	0.6017
2540	0.6125
2531	0.6234
2522	0.6342
2513	0.645
2504	0.6558
2495	0.6665
2486	0.6774
2477	0.6845
2468	0.6822
2459	0.6794
2450	0.6807
2441	0.6888
2432	0.6997
2423	0.71
2414	0.7201
2405	0.7295
2396	0.7385
2387	0.7468
2378	0.755
2369	0.7746
2360	0.7778
2351	0.7775
2342	0.7771
2333	0.7761
2324	0.7757
2315	0.7761
2306	0.7786
2297	0.7819
2288	0.7858
2279	0.7898
2270	0.794
2261	0.7981
2252	0.8025
2243	0.8071
2234	0.8117
2225	0.8162
2216	0.8208
2207	0.8251
2198	0.8292
2189	0.8333
2180	0.8375
2171	0.8415
2162	0.8459
2153	0.8504
2144	0.855
2135	0.8568
2126	0.8552
2117	0.8537
2108	0.8533
2099	0.8584
2090	0.8644
2081	0.8699
2072	0.872
2063	0.8742
2054	0.8774
2045	0.8846
2036	0.8908
2027	0.8946
2018	0.8966
2009	0.898
2000	0.8974
1991	0.9052
1982	0.9067
1973	0.9073
1964	0.908
1955	0.9086
1946	0.9093
1937	0.9099
1928	0.909
1919	0.9039
1910	0.9051
1901	0.9067
1892	0.9071
1883	0.907
1874	0.9074
1865	0.908
1856	0.9097
1847	0.9102
1838	0.908
1829	0.9012
1820	0.8934
1811	0.8828
1802	0.8816
1793	0.8771
1784	0.856
1775	0.8254
1766	0.7975
1757	0.765
1748	0.7211
1739	0.6607
1730	0.5705
1721	0.3239
1712	0.0764
1703	0.0282
1694	0.0399
1685	0.1092
1676	0.0561
1667	0.0766
1658	0.3025
1649	0.4629
1640	0.4858
1631	0.5072
1622	0.5722
1613	0.6383
1604	0.6738
1595	0.6878
1586	0.693
1577	0.689
1568	0.4786
1559	0.4741
1550	0.5007
1541	0.6942
1532	0.7414
1523	0.7801
1514	0.8041
1505	0.8108
1496	0.7969
1487	0.6846
1478	0.2967
1469	0.5567
1460	0.6471
1451	0.7298
1442	0.7765
1433	0.7858
1424	0.5969
1415	0.5937
1406	0.7275
1397	0.6594
1388	0.3796
1379	0.317
1370	0.4093
1361	0.5284
1352	0.6831
1343	0.7056
1334	0.754
1325	0.7928
1316	0.7971
1307	0.8015
1298	0.8107
1289	0.8133
1280	0.8081
1271	0.7749
1262	0.5078
1253	0.686
1244	0.769
1235	0.7868
1226	0.7355
1217	0.6147
1208	0.6798
1199	0.7598
1190	0.771
1181	0.7351
1172	0.5577
1163	0.791
1154	0.7588
1145	0.7565
1136	0.7501
1127	0.6665
1118	0.6177
1109	0.8042
1100	0.8208
1091	0.8288
1082	0.8323
1073	0.8383
1064	0.8404
1055	0.8378
1046	0.8221
1037	0.8449
1028	0.8558
1019	0.8594
1010	0.8617
1001	0.8652
992	0.8657
983	0.862
974	0.8563
965	0.8402
956	0.7726
947	0.7126
938	0.8433
929	0.854
920	0.848
911	0.8334
902	0.7875
893	0.7084
884	0.5941
875	0.6521
866	0.776
857	0.7693
848	0.6828
839	0.7474
830	0.8072
821	0.8012
812	0.7828
803	0.7405
794	0.6515
785	0.6338
776	0.6435
767	0.8459
758	0.8611
749	0.8614
740	0.8521
731	0.8275
722	0.8271
713	0.8691
704	0.7068
695	0.8609
686	0.874
677	0.8838
668	0.8613
659	0.8325
650	0.7808
641	0.8253
632	0.8371
623	0.8292
614	0.7845
605	0.6119
596	0.7618
587	0.7536
578	0.7481
569	0.7704
560	0.6712
551	0.7733
542	0.7081
533	0.8
524	0.7954
515	0.7461
506	0.7074
497	0.7378
488	0.7499
479	0.7567
470	0.7615
461	0.7643
452	0.7549
443	0.7392
434	0.6954
425	0.6352
416	0.613
407	0.6168
