Infrared Spectrum: 3-Methyl-3-heptene (c,t)
Formula: C 8 H 16
CAS: 7300-03-0
State: gas
Instrument: HP-GC/MS/IRD
Origin: NIST Mass Spectrometry Data Center
1/CM	ABSORBANCE
550	0.0005184
562	0.0004284
574	0.0001962
586	9.54e-05
598	0.0001116
610	9e-05
622	0.0001134
634	3.42e-05
646	0.0001278
658	7.92e-05
670	6.66e-05
682	0.0001476
694	0.000135
706	0.0001746
718	0.000162
730	0.000288
742	0.0002286
754	0.0002952
766	0.000297
778	0.000441
790	0.0004968
802	0.0004464
814	0.0005094
826	0.0005112
838	0.0005454
850	0.0004986
862	0.0006372
874	0.0008388
886	0.0009432
898	0.000774
910	0.0004356
922	0.0002898
934	0.0002376
946	0.0002214
958	0.0002628
970	0.000288
982	0.0003798
994	0.000486
1006	0.0005454
1018	0.0005148
1030	0.000414
1042	0.000432
1054	0.000576
1066	0.000819
1078	0.0007974
1090	0.0005634
1102	0.0004554
1114	0.0005706
1126	0.0006426
1138	0.0003456
1150	0.0002178
1162	0.0002268
1174	0.000171
1186	0.0002934
1198	0.0002844
1210	0.0002592
1222	0.0002898
1234	0.0002862
1246	0.000252
1258	0.0003222
1270	0.0003834
1282	0.0003852
1294	0.0003294
1306	0.0005184
1318	0.000801
1330	0.0008856
1342	0.0006588
1354	0.0006642
1366	0.0010152
1378	0.0016236
1390	0.0016758
1402	0.0010764
1414	0.000846
1426	0.000999
1438	0.0015066
1450	0.002142
1462	0.0024084
1474	0.0018414
1486	0.0010242
1498	0.000666
1510	0.0004644
1522	0.0004032
1534	0.00036
1546	0.0003042
1558	0.0002826
1570	0.000234
1582	0.0002502
1594	0.0002196
1606	0.000234
1618	0.0002106
1630	0.0001908
1642	0.0002088
1654	0.0002808
1666	0.000288
1678	0.0001998
1690	0.0001314
1702	0.0001044
1714	6.84e-05
1726	8.64e-05
1738	5.04e-05
1750	9.72e-05
1762	7.38e-05
1774	6.66e-05
1786	5.76e-05
1798	5.04e-05
1810	3.6e-05
1822	4.14e-05
1834	3.96e-05
1846	4.5e-05
1858	5.76e-05
1870	5.94e-05
1882	7.02e-05
1894	7.56e-05
1906	4.14e-05
1918	5.94e-05
1930	5.94e-05
1942	2.52e-05
1954	4.5e-05
1966	3.06e-05
1978	4.68e-05
1990	4.32e-05
2002	1.08e-05
2014	3.78e-05
2026	3.06e-05
2038	6.66e-05
2050	3.24e-05
2062	2.34e-05
2074	4.68e-05
2086	3.42e-05
2098	3.06e-05
2110	4.14e-05
2122	3.96e-05
2134	2.52e-05
2146	4.86e-05
2158	3.96e-05
2170	2.7e-05
2182	3.42e-05
2194	3.78e-05
2206	3.24e-05
2218	3.42e-05
2230	5.58e-05
2242	3.96e-05
2254	4.86e-05
2266	4.14e-05
2278	3.24e-05
2290	4.5e-05
2302	2.34e-05
2314	1.98e-05
2326	4.14e-05
2338	3.96e-05
2350	6.3e-05
2362	7.92e-05
2374	6.48e-05
2386	9.54e-05
2398	5.22e-05
2410	8.46e-05
2422	5.76e-05
2434	3.78e-05
2446	5.76e-05
2458	5.22e-05
2470	7.56e-05
2482	7.56e-05
2494	6.3e-05
2506	8.28e-05
2518	9.9e-05
2530	8.28e-05
2542	0.0001008
2554	0.0001062
2566	8.1e-05
2578	8.64e-05
2590	0.0001098
2602	0.0001458
2614	0.0001584
2626	0.0001224
2638	0.0001584
2650	0.0001818
2662	0.0001728
2674	0.0002034
2686	0.0002034
2698	0.0002052
2710	0.000243
2722	0.0003672
2734	0.0004428
2746	0.0004482
2758	0.0004824
2770	0.0005076
2782	0.0005958
2794	0.0007236
2806	0.0009072
2818	0.0012528
2830	0.0019224
2842	0.0032454
2854	0.0052038
2866	0.0072324
2878	0.0090378
2890	0.009225
2902	0.0088578
2914	0.0101232
2926	0.0126756
2938	0.0144576
2950	0.0138276
2962	0.0166032
2974	0.017217
2986	0.0097488
2998	0.0053784
3010	0.0035136
3022	0.0025434
3034	0.0020538
3046	0.0016002
3058	0.0012294
3070	0.0009684
3082	0.0007488
3094	0.0006804
3106	0.000549
3118	0.000432
3130	0.0004212
3142	0.0003366
3154	0.0003384
3166	0.0002448
3178	0.0003222
3190	0.0002556
3202	0.0001944
3214	0.0001674
3226	0.0001872
3238	7.74e-05
3250	0.0001656
3262	0.0001242
3274	0.000117
3286	0.0001152
3298	0.0002178
3310	0.0001116
3322	7.92e-05
3334	0.000108
3346	1.62e-05
3358	7.74e-05
3370	0.0001476
3382	8.46e-05
3394	0.0001404
3406	9.72e-05
3418	0.000144
3430	7.92e-05
3442	8.64e-05
3454	0.000117
3466	0.0001458
3478	8.1e-05
3490	0.000126
3502	0.0001314
3514	0.0001854
3526	8.46e-05
3538	0.000135
3550	0.0001386
3562	3.06e-05
3574	7.2e-05
3586	7.2e-05
3598	0.0001224
3610	0.0001458
3622	0.000117
3634	0.0001008
3646	0.000135
3658	0.0001062
3670	0.0001026
3682	0.0001746
3694	0.0001044
3706	0.0001224
3718	0.0001638
3730	0.0001314
3742	0.0001458
3754	0.0002268
3766	0.0001638
3778	0.000135
3790	0.00018
3802	0.000153
3814	0.000153
3826	0.0001674
3838	9.54e-05
