Infrared Spectrum: PROPYLAMINE, 3,3'-(TETRAMETHYLENEDIOXY)BIS-
Formula: C10 H24 N2 O2
CAS: 7300-34-7
State: LIQUID
Boiling point: 1 C AT 1.1-1.22 mmHg
Class: COBLENTZ
Instrument: Not specified, most likely a prism, grating, or hybrid spectrometer.
Sampling: TRANSMISSION
Path length: SMEAR
Resolution: 4
Origin: TENNESSEE EASTMAN COMPANY, RESEARCH LABORATORIES
MICROMETERS	TRANSMITTANCE
2.041	0.979
2.08189	0.986
2.12279	0.988
2.16368	0.989
2.20458	0.991
2.24547	0.986
2.28637	0.917
2.32726	0.912
2.36815	0.916
2.40905	0.929
2.44994	0.941
2.49084	0.941
2.53173	0.94
2.57263	0.953
2.61352	0.962
2.65441	0.969
2.69531	0.972
2.7362	0.972
2.7771	0.957
2.81799	0.929
2.85889	0.886
2.89978	0.808
2.94067	0.606
2.98157	0.321
3.02246	0.39
3.06336	0.356
3.10425	0.407
3.14515	0.424
3.18604	0.5
3.22693	0.611
3.26783	0.659
3.30872	0.647
3.34962	0.462
3.39051	0.02
3.43141	0.044
3.4723	0.023
3.51319	0.08
3.55409	0.172
3.59498	0.304
3.63588	0.385
3.67677	0.462
3.71767	0.539
3.75856	0.655
3.79945	0.748
3.84035	0.799
3.88124	0.833
3.92214	0.861
3.96303	0.9
4.00393	0.924
4.04482	0.945
4.08571	0.952
4.12661	0.96
4.1675	0.97
4.2084	0.974
4.24929	0.974
4.29019	0.974
4.33108	0.977
4.37197	0.981
4.41287	0.982
4.45376	0.982
4.49466	0.976
4.53555	0.97
4.57645	0.974
4.61734	0.976
4.65823	0.969
4.69913	0.962
4.74002	0.958
4.78092	0.948
4.82181	0.943
4.86271	0.938
4.9036	0.933
4.94449	0.938
4.98539	0.945
5.02628	0.948
5.06718	0.943
5.10807	0.941
5.14897	0.945
5.18986	0.948
5.23075	0.952
5.27165	0.952
5.31254	0.952
5.35344	0.953
5.39433	0.957
5.43523	0.962
5.47612	0.976
5.51701	0.984
5.55791	0.986
5.5988	0.984
5.6397	0.984
5.68059	0.984
5.72149	0.979
5.76238	0.97
5.80327	0.953
5.84417	0.94
5.88506	0.916
5.92596	0.89
5.96685	0.837
6.00775	0.779
6.04864	0.731
6.08953	0.66
6.13043	0.571
6.17132	0.484
6.21222	0.422
6.25311	0.38
6.29401	0.414
6.3349	0.479
6.37579	0.58
6.41669	0.667
6.45758	0.702
6.49848	0.746
6.53937	0.761
6.58027	0.777
6.62116	0.767
6.66205	0.695
6.70295	0.452
6.74384	0.364
6.78474	0.342
6.82563	0.361
6.86653	0.393
6.90742	0.378
6.94831	0.397
6.98921	0.407
7.0301	0.535
7.071	0.558
7.11189	0.551
7.15279	0.455
7.19368	0.349
7.23457	0.267
7.27547	0.179
7.31636	0.147
7.35726	0.183
7.39815	0.26
7.43905	0.335
7.47994	0.464
7.52083	0.597
7.56173	0.602
7.60262	0.57
7.64352	0.532
7.68441	0.505
7.72531	0.496
7.7662	0.523
7.80709	0.549
7.84799	0.573
7.88888	0.582
7.92978	0.589
7.97067	0.573
8.01157	0.52
8.05246	0.464
8.09335	0.441
8.13425	0.453
8.17514	0.489
8.21604	0.5
8.25693	0.472
8.29783	0.4
8.33872	0.4
8.37961	0.525
8.42051	0.539
8.4614	0.501
8.5023	0.47
8.54319	0.428
8.58409	0.409
8.62498	0.398
8.66587	0.361
8.70677	0.285
8.74766	0.188
8.78856	0.111
8.82945	0.053
8.87035	0.029
8.91124	0.02
8.95213	0.018
8.99303	0.015
9.03392	0.013
9.07482	0.015
9.11571	0.022
9.15661	0.032
9.1975	0.049
9.2384	0.071
9.27929	0.089
9.32018	0.106
9.36108	0.119
9.40197	0.14
9.44287	0.159
9.48376	0.188
9.52466	0.207
9.56555	0.22
9.60644	0.229
9.64734	0.234
9.68823	0.234
9.72913	0.232
9.77002	0.243
9.81092	0.248
9.85181	0.273
9.8927	0.292
9.9336	0.309
9.97449	0.321
10.0154	0.323
10.0563	0.325
10.0972	0.321
10.1381	0.316
10.179	0.313
10.2199	0.308
10.2608	0.306
10.3016	0.306
10.3425	0.306
10.3834	0.304
10.4243	0.303
10.4652	0.301
10.5061	0.299
10.547	0.297
10.5879	0.291
10.6288	0.285
10.6697	0.277
10.7106	0.268
10.7515	0.256
10.7924	0.25
10.8333	0.243
10.8742	0.234
10.9151	0.226
10.956	0.22
10.9968	0.214
11.0377	0.207
11.0786	0.2
11.1195	0.193
11.1604	0.188
11.2013	0.184
11.2422	0.181
11.2831	0.181
11.324	0.183
11.3649	0.183
11.4058	0.186
11.4467	0.188
11.4876	0.188
11.5285	0.188
11.5694	0.183
11.6103	0.178
11.6512	0.171
11.6921	0.164
11.7329	0.157
11.7738	0.152
11.8147	0.148
11.8556	0.143
11.8965	0.143
11.9374	0.14
11.9783	0.14
12.0192	0.14
12.0601	0.14
12.101	0.14
12.1419	0.142
12.1828	0.145
12.2237	0.152
12.2646	0.16
12.3055	0.169
12.3464	0.179
12.3873	0.191
12.4281	0.205
12.469	0.217
12.5099	0.224
12.5508	0.236
12.5917	0.248
12.6326	0.261
12.6735	0.273
12.7144	0.284
12.7553	0.289
12.7962	0.292
12.8371	0.292
12.878	0.294
12.9189	0.299
12.9598	0.306
13.0007	0.315
13.0416	0.325
13.0825	0.335
13.1234	0.349
13.1642	0.371
13.2051	0.392
13.246	0.404
13.2869	0.429
13.3278	0.443
13.3687	0.458
13.4096	0.477
13.4505	0.489
13.4914	0.51
13.5323	0.525
13.5732	0.539
13.6141	0.561
13.655	0.578
13.6959	0.589
13.7368	0.601
13.7777	0.613
13.8186	0.621
13.8594	0.628
13.9003	0.635
13.9412	0.643
13.9821	0.648
14.023	0.654
14.0639	0.657
14.1048	0.662
14.1457	0.666
14.1866	0.669
14.2275	0.671
14.2684	0.674
14.3093	0.678
14.3502	0.679
14.3911	0.681
14.432	0.679
14.4729	0.683
14.5138	0.681
14.5547	0.681
14.5955	0.683
14.6364	0.683
14.6773	0.683
14.7182	0.683
14.7591	0.683
14.8	0.683
14.8409	0.683
14.8818	0.683
14.9227	0.681
14.9636	0.679
15.0045	0.678
15.0454	0.672
15.0863	0.671
15.1272	0.669
15.1681	0.666
15.209	0.662
15.2499	0.66
15.2907	0.659
15.3316	0.659
15.3725	0.655
15.4134	0.652
15.4543	0.647
15.4952	0.647
15.5361	0.647
15.577	0.647
15.6179	0.645
15.6588	0.642
15.6997	0.636
15.7406	0.636
15.7815	0.635
15.8224	0.636
15.8633	0.635
15.9042	0.635
15.9451	0.633
15.986	0.63
