Infrared Spectrum: Pentafluorophenyl-tert-butylmethylsilyl chloride
Formula: C 11 H 12 Cl F 5 Si
CAS: 73000-03-0
State: gas
Origin: EPA-IR VAPOR PHASE LIBRARY
1/CM	ABSORBANCE
549.8	0.016644
559.445	0.009194
569.09	0.008744
578.734	0.015344
588.379	0.029934
598.024	0.035714
607.669	0.020274
617.313	0.014594
626.958	0.025704
636.603	0.015504
646.248	0.006634
655.893	0.004344
665.537	0.004104
675.182	0.004074
684.827	0.004734
694.472	0.007724
704.116	0.017634
713.761	0.054444
723.406	0.057704
733.051	0.029994
742.695	0.029124
752.34	0.040524
761.985	0.022044
771.63	0.019934
781.275	0.036314
790.919	0.094654
800.564	0.132224
810.209	0.091004
819.854	0.091034
829.498	0.044664
839.143	0.036174
848.788	0.017314
858.433	0.010044
868.078	0.007504
877.722	0.006434
887.367	0.005564
897.012	0.005314
906.657	0.005194
916.301	0.006224
925.946	0.010534
935.591	0.018484
945.236	0.019644
954.88	0.035644
964.525	0.106424
974.17	0.225284
983.815	0.108094
993.46	0.029914
1003.1	0.026824
1012.75	0.028584
1022.39	0.021274
1032.04	0.014084
1041.68	0.014264
1051.33	0.014454
1060.97	0.016194
1070.62	0.034804
1080.26	0.111424
1089.91	0.410204
1099.55	0.210094
1109.2	0.052254
1118.84	0.030264
1128.49	0.030084
1138.13	0.026644
1147.78	0.009964
1157.42	0.004644
1167.07	0.004304
1176.71	0.005274
1186.36	0.005164
1196	0.004624
1205.64	0.004594
1215.29	0.004334
1224.93	0.005194
1234.58	0.005654
1244.22	0.010234
1253.87	0.018374
1263.51	0.048824
1273.16	0.057734
1282.8	0.058324
1292.45	0.097164
1302.09	0.019844
1311.74	0.006694
1321.38	0.006164
1331.03	0.005454
1340.67	0.005964
1350.32	0.009564
1359.96	0.021514
1369.61	0.065634
1379.25	0.064464
1388.9	0.038604
1398.54	0.034014
1408.18	0.027104
1417.83	0.028174
1427.47	0.033464
1437.12	0.077454
1446.76	0.240114
1456.41	0.481454
1466.05	0.467114
1475.7	0.205444
1485.34	0.061444
1494.99	0.056084
1504.63	0.122604
1514.28	0.254424
1523.92	0.186844
1533.57	0.048374
1543.21	0.021354
1552.86	0.018784
1562.5	0.018444
1572.15	0.018884
1581.79	0.021804
1591.44	0.016694
1601.08	0.014214
1610.73	0.018724
1620.37	0.035124
1630.01	0.077554
1639.66	0.093754
1649.3	0.031634
1658.95	0.014004
1668.59	0.010244
1678.24	0.009884
1687.88	0.005844
1697.53	0.004294
1707.17	0.003204
1716.82	0.003894
1726.46	0.004614
1736.11	0.003014
1745.75	0.002164
1755.4	0.001804
1765.04	0.001704
1774.69	0.002054
1784.33	0.002174
1793.98	0.001874
1803.62	0.001814
1813.27	0.001614
1822.91	0.001464
1832.55	0.001534
1842.2	0.001644
1851.84	0.001764
1861.49	0.001834
1871.13	0.001654
1880.78	0.001554
1890.42	0.001334
1900.07	0.0010626
1909.71	0.0010059
1919.36	0.0008586
1929	0.0010336
1938.65	0.001278
1948.29	0.001344
1957.94	0.001464
1967.58	0.001854
1977.23	0.002654
1986.87	0.002634
1996.52	0.002004
2006.16	0.001354
2015.81	0.001221
2025.45	0.0010201
2035.1	0.001324
2044.74	0.001594
2054.38	0.001334
2064.03	0.0011522
2073.67	0.0010803
2083.32	0.0008323
2092.96	0.0011709
2102.61	0.001504
2112.25	0.001554
2121.9	0.0010058
2131.54	0.0008401
2141.19	0.0007608
2150.83	0.0007923
2160.48	0.0007973
2170.12	0.001414
2179.77	0.001694
2189.41	0.001574
2199.06	0.0012825
2208.7	0.0012407
2218.35	0.001764
2227.99	0.0013018
2237.64	0.0008811
2247.28	0.0006073
2256.92	0.0008476
2266.57	0.0008306
2276.21	0.0006833
2285.86	0.0007034
2295.5	0.0008802
2305.15	0.0010587
2314.79	0.001334
2324.44	0.001714
2334.08	0.002464
2343.73	0.003014
2353.37	0.002744
2363.02	0.002114
2372.66	0.002094
2382.31	0.002324
2391.95	0.001944
2401.6	0.001904
2411.24	0.001934
2420.89	0.002504
2430.53	0.002574
2440.18	0.001394
2449.82	0.0012235
2459.47	0.001414
2469.11	0.001764
2478.75	0.001944
2488.4	0.001984
2498.04	0.002284
2507.69	0.002074
2517.33	0.002224
2526.98	0.001794
2536.62	0.001784
2546.27	0.002264
2555.91	0.002454
2565.56	0.002314
2575.2	0.002974
2584.85	0.003614
2594.49	0.003234
2604.14	0.003684
2613.78	0.002934
2623.43	0.002064
2633.07	0.001944
2642.72	0.002224
2652.36	0.002554
2662.01	0.001994
2671.65	0.001694
2681.29	0.001414
2690.94	0.0013039
2700.58	0.001614
2710.23	0.001934
2719.87	0.002904
2729.52	0.004184
2739.16	0.003104
2748.81	0.002904
2758.45	0.003354
2768.1	0.002634
2777.74	0.002804
2787.39	0.003324
2797.03	0.004184
2806.68	0.004134
2816.32	0.005234
2825.97	0.005874
2835.61	0.007424
2845.26	0.009254
2854.9	0.016194
2864.55	0.038524
2874.19	0.069354
2883.84	0.052804
2893.48	0.047484
2903.12	0.053994
2912.77	0.048164
2922.41	0.043014
2932.06	0.059134
2941.7	0.101454
2951.35	0.096514
2960.99	0.084874
2970.64	0.074254
2980.28	0.046704
2989.93	0.023834
2999.57	0.015124
3009.22	0.008534
3018.86	0.005264
3028.51	0.004044
3038.15	0.003524
3047.8	0.002724
3057.44	0.002454
3067.09	0.002724
3076.73	0.002794
3086.38	0.002744
3096.02	0.002444
3105.67	0.002434
3115.31	0.002424
3124.95	0.002484
3134.6	0.002254
3144.24	0.002124
3153.89	0.002394
3163.53	0.002274
3173.18	0.002154
3182.82	0.002274
3192.47	0.002044
3202.11	0.001854
3211.76	0.001804
3221.4	0.001564
3231.05	0.001714
3240.69	0.0012921
3250.34	0.0010255
3259.98	0.0010043
3269.63	0.0009351
3279.27	0.0008538
3288.92	0.0008482
3298.56	0.000913
3308.21	0.0004785
3317.85	0.0006125
3327.49	0.000585
3337.14	0.0008638
3346.78	0.0008959
3356.43	0.0009511
3366.07	0.0008481
3375.72	0.0009165
3385.36	0.0004421
3395.01	0.0007155
3404.65	0.00036145
3414.3	0.0004972
3423.94	0.000182
3433.59	0.000281
3443.23	0.0005517
3452.88	0.0004318
3462.52	0.0005471
3472.17	0.0004518
3481.81	0.000574
3491.46	0.00037428
3501.1	0.000112
3510.75	0.0005143
3520.39	0.0004159
3530.04	0.0002331
3539.68	0.000184
3549.32	0.0002322
3558.97	0.0004455
3568.61	0.0005216
3578.26	0.00037411
3587.9	0.00011
3597.55	0.0002456
3607.19	0.000473
3616.84	0.0009716
3626.48	0.000641
3636.13	0.0005572
3645.77	0.0009348
3655.42	0.0009406
3665.06	0.0004155
3674.71	0.0005468
3684.35	0.0006664
3694	0.000579
3703.64	0.0011815
3713.29	0.001041
3722.93	0.0008609
3732.58	0.0006953
3742.22	0.0005437
3751.86	0.0006915
3761.51	0.0005782
3771.15	0.0006691
3780.8	0.0007652
3790.44	0.0011038
3800.09	0.0007825
3809.73	0.0007549
3819.38	0.0009118
3829.02	0.0005054
3838.67	0.0007053
3848.31	0.0004679
3857.96	0.0005135
3867.6	0.0005455
3877.25	0.0005874
3886.89	0.0008564
3896.54	0.000422
3906.18	0.0005507
3915.83	0.0007501
3925.47	0.000591
3935.12	0.00036591
3944.76	0.0004718
3954.41	0.0004076
3964.05	6.9e-05
3973.69	0.00040022
3983.34	0.000447
3992.98	0.0006588
