Infrared Spectrum: 2-Amino-5-methylthiazole
Formula: C 4 H 6 N 2 S
CAS: 7305-71-7
State: gas
Origin: EPA-IR VAPOR PHASE LIBRARY
1/CM	ABSORBANCE
549.8	0.00537
559.445	0.00507
569.09	0.00501
578.734	0.0046
588.379	0.00464
598.024	0.00467
607.669	0.00682
617.313	0.00655
626.958	0.00669
636.603	0.00597
646.248	0.00598
655.893	0.00725
665.537	0.00609
675.182	0.00709
684.827	0.00473
694.472	0.00543
704.116	0.00557
713.761	0.00577
723.406	0.00604
733.051	0.00639
742.695	0.00571
752.34	0.00551
761.985	0.00579
771.63	0.00563
781.275	0.00531
790.919	0.00483
800.564	0.00395
810.209	0.00416
819.854	0.00485
829.498	0.00436
839.143	0.00753
848.788	0.00426
858.433	0.00358
868.078	0.00369
877.722	0.0018956
887.367	0.00348
897.012	0.00261
906.657	0.00338
916.301	0.00236
925.946	0.00306
935.591	0.00311
945.236	0.0020179
954.88	0.00256
964.525	0.0017738
974.17	0.0019517
983.815	0.00323
993.46	0.00326
1003.1	0.00282
1012.75	0.0037
1022.39	0.00427
1032.04	0.00568
1041.68	0.00913
1051.33	0.01025
1060.97	0.00902
1070.62	0.00459
1080.26	0.00459
1089.91	0.00233
1099.55	0.001005
1109.2	0.0017887
1118.84	0.00579
1128.49	0.0020637
1138.13	0.00341
1147.78	0.00322
1157.42	0.00401
1167.07	0.00518
1176.71	0.00471
1186.36	0.00288
1196	0.00273
1205.64	0.00517
1215.29	0.00407
1224.93	0.00526
1234.58	0.00595
1244.22	0.00727
1253.87	0.00993
1263.51	0.01008
1273.16	0.00631
1282.8	0.00634
1292.45	0.00844
1302.09	0.0117
1311.74	0.0128
1321.38	0.01227
1331.03	0.01107
1340.67	0.00913
1350.32	0.00625
1359.96	0.00317
1369.61	0.00255
1379.25	0.0021404
1388.9	0.0020701
1398.54	0.0020412
1408.18	0.0020414
1417.83	0.00241
1427.47	0.00251
1437.12	0.003
1446.76	0.00385
1456.41	0.00397
1466.05	0.00416
1475.7	0.00426
1485.34	0.00493
1494.99	0.00868
1504.63	0.01606
1514.28	0.02244
1523.92	0.02173
1533.57	0.0171
1543.21	0.01089
1552.86	0.00869
1562.5	0.0086
1572.15	0.00862
1581.79	0.01012
1591.44	0.01514
1601.08	0.019
1610.73	0.01788
1620.37	0.01189
1630.01	0.00635
1639.66	0.00425
1649.3	0.00349
1658.95	0.00339
1668.59	0.00349
1678.24	0.00312
1687.88	0.00254
1697.53	0.00233
1707.17	0.0021978
1716.82	0.00235
1726.46	0.0022218
1736.11	0.0021849
1745.75	0.0018569
1755.4	0.0016985
1765.04	0.0018198
1774.69	0.001854
1784.33	0.0019265
1793.98	0.0020115
1803.62	0.0017155
1813.27	0.0017134
1822.91	0.0017351
1832.55	0.0016679
1842.2	0.0015902
1851.84	0.0016504
1861.49	0.0014148
1871.13	0.0017752
1880.78	0.0017502
1890.42	0.0014782
1900.07	0.0015478
1909.71	0.0016819
1919.36	0.0015045
1929	0.0015148
1938.65	0.0014957
1948.29	0.0016518
1957.94	0.0017366
1967.58	0.0014388
1977.23	0.00135913
1986.87	0.001275
1996.52	0.001596
2006.16	0.0016135
2015.81	0.0014277
2025.45	0.0016753
2035.1	0.001193
2044.74	0.001535
2054.38	0.0014038
2064.03	0.0015405
2073.67	0.00130511
2083.32	0.0015468
2092.96	0.0012588
2102.61	0.0014533
2112.25	0.001097
2121.9	0.00131853
2131.54	0.00137253
2141.19	0.0013325
2150.83	0.0014625
2160.48	0.0012241
2170.12	0.0015152
2179.77	0.0012186
2189.41	0.0016063
2199.06	0.0015278
2208.7	0.0014368
2218.35	0.0012737
2227.99	0.0014763
2237.64	0.0016673
2247.28	0.0014613
2256.92	0.0014795
2266.57	0.0014712
2276.21	0.00131813
2285.86	0.0018975
2295.5	0.0012367
2305.15	0.00131505
2314.79	0.0014014
2324.44	0.001095
2334.08	0.0014888
2343.73	0.0015805
2353.37	0.001197
2363.02	0.0015074
2372.66	0.0012523
2382.31	0.001124
2391.95	0.00136121
2401.6	0.0012423
2411.24	0.0016252
2420.89	0.0015842
2430.53	0.0015677
2440.18	0.00134114
2449.82	0.001557
2459.47	0.001121
2469.11	0.00139281
2478.75	0.0012601
2488.4	0.001266
2498.04	0.000972
2507.69	0.0014961
2517.33	0.0014059
2526.98	0.001656
2536.62	0.0016428
2546.27	0.0018675
2555.91	0.00138286
2565.56	0.00154
2575.2	0.0012123
2584.85	0.0015688
2594.49	0.0015819
2604.14	0.000944
2613.78	0.000997
2623.43	0.0015134
2633.07	0.001022
2642.72	0.0015935
2652.36	0.000971
2662.01	0.00138265
2671.65	0.001005
2681.29	0.0014279
2690.94	0.0014598
2700.58	0.0015153
2710.23	0.00135016
2719.87	0.0015157
2729.52	0.001286
2739.16	0.000815
2748.81	0.001451
2758.45	0.00139916
2768.1	0.0015683
2777.74	0.0014231
2787.39	0.0015242
2797.03	0.00129397
2806.68	0.00118
2816.32	0.0016323
2825.97	0.0021732
2835.61	0.0015586
2845.26	0.001947
2854.9	0.0025
2864.55	0.00326
2874.19	0.00362
2883.84	0.00384
2893.48	0.00364
2903.12	0.00284
2912.77	0.00236
2922.41	0.00471
2932.06	0.00601
2941.7	0.00626
2951.35	0.00464
2960.99	0.00413
2970.64	0.00419
2980.28	0.00274
2989.93	0.00313
2999.57	0.0020713
3009.22	0.0016423
3018.86	0.0018916
3028.51	0.0016388
3038.15	0.0022815
3047.8	0.00254
3057.44	0.00253
3067.09	0.00262
3076.73	0.00295
3086.38	0.00266
3096.02	0.0022088
3105.67	0.001587
3115.31	0.0018517
3124.95	0.000876
3134.6	0.0013895
3144.24	0.000778
3153.89	0.000971
3163.53	0.0014516
3173.18	0.0017634
3182.82	0.001019
3192.47	0.0016352
3202.11	0.000935
3211.76	0.0012797
3221.4	0.00138833
3231.05	0.001016
3240.69	0.0017307
3250.34	0.0012536
3259.98	0.0014242
3269.63	0.0017323
3279.27	0.000982
3288.92	0.000509
3298.56	0.000963
3308.21	0.0012112
3317.85	0.000569
3327.49	0.000761
3337.14	0.0014088
3346.78	0.001037
3356.43	0.0014554
3366.07	0.001089
3375.72	0.0017667
3385.36	0.00385
3395.01	0.00617
3404.65	0.00704
3414.3	0.00594
3423.94	0.00283
3433.59	0.0022453
3443.23	0.000808
3452.88	0.0020969
3462.52	0.00137379
3472.17	0.0021902
3481.81	0.00364
3491.46	0.0046
3501.1	0.00472
3510.75	0.00457
3520.39	0.00258
3530.04	0.0019428
3539.68	0.0015959
3549.32	0.0012738
3558.97	0.000991
3568.61	0.000963
3578.26	0.0014571
3587.9	0.001059
3597.55	0.00065
3607.19	0.0017218
3616.84	0.00093
3626.48	0.000896
3636.13	0.0018144
3645.77	0.001097
3655.42	0.001187
3665.06	0.001189
3674.71	0.0014307
3684.35	0.001066
3694	0.000933
3703.64	0.0015174
3713.29	0.0014105
3722.93	0.000717
3732.58	0.000619
3742.22	0.000983
3751.86	0.000777
3761.51	0.000659
3771.15	0.001512
3780.8	0.000466
3790.44	0.00074
3800.09	0.001214
3809.73	0.0015989
3819.38	0.001023
3829.02	0.000995
3838.67	0.0015773
3848.31	0.0015101
3857.96	0.0006
3867.6	0.000386
3877.25	0.001103
3886.89	0.000947
3896.54	0.000834
3906.18	0.000428
3915.83	0.001194
3925.47	0.001112
3935.12	0.001184
3944.76	0.001171
3954.41	0.000926
3964.05	0.00074
3973.69	0.000805
3983.34	0.000952
3992.98	0
