Infrared Spectrum: p-CHLOROPHENYL-N,N-DIMETHYL CARBAMATE
Formula: C9 H10 Cl N O2
CAS: 7305-03-5
State: SOLUTION (10% CCl4 FOR 5000-1330, 10% CS2 FOR 1330-625 CM^-^1)
Class: COBLENTZ
Instrument: Not specified, most likely a prism, grating, or hybrid spectrometer.
Sampling: TRANSMISSION
Path length: 0.0118 CM, 0.0114 CM
Resolution: 4
Origin: DOW CHEMICAL COMPANY
MICROMETERS	TRANSMITTANCE
2.082	0.878
2.12318	0.871
2.16435	0.859
2.20553	0.859
2.24671	0.867
2.28788	0.871
2.32906	0.871
2.37023	0.871
2.41141	0.883
2.45259	0.883
2.49376	0.89
2.53494	0.89
2.57612	0.893
2.61729	0.891
2.65847	0.885
2.69964	0.874
2.74082	0.864
2.782	0.84
2.82317	0.795
2.86435	0.785
2.90553	0.783
2.9467	0.828
2.98788	0.84
3.02905	0.852
3.07023	0.855
3.11141	0.835
3.15258	0.814
3.19376	0.795
3.23494	0.78
3.27611	0.722
3.31729	0.495
3.35846	0.536
3.39964	0.665
3.44082	0.773
3.48199	0.823
3.52317	0.862
3.56435	0.879
3.60552	0.888
3.6467	0.888
3.68787	0.89
3.72905	0.898
3.77023	0.893
3.8114	0.886
3.85258	0.883
3.89376	0.89
3.93493	0.895
3.97611	0.895
4.01728	0.888
4.05846	0.881
4.09964	0.888
4.14081	0.89
4.18199	0.886
4.22317	0.886
4.26434	0.883
4.30552	0.881
4.34669	0.888
4.38787	0.9
4.42905	0.902
4.47022	0.902
4.5114	0.898
4.55258	0.89
4.59375	0.897
4.63493	0.902
4.6761	0.898
4.71728	0.897
4.75846	0.885
4.79963	0.879
4.84081	0.878
4.88199	0.869
4.92316	0.862
4.96434	0.881
5.00551	0.893
5.04669	0.891
5.08787	0.9
5.12904	0.905
5.17022	0.9
5.2114	0.874
5.25257	0.806
5.29375	0.806
5.33493	0.876
5.3761	0.879
5.41728	0.873
5.45845	0.842
5.49963	0.814
5.54081	0.79
5.58198	0.716
5.62316	0.593
5.66434	0.353
5.70551	0.036
5.74669	0.027
5.78786	0.075
5.82904	0.259
5.87022	0.54
5.91139	0.686
5.95257	0.734
5.99375	0.768
6.03492	0.783
6.0761	0.775
6.11727	0.751
6.15845	0.715
6.19963	0.665
6.2408	0.538
6.28198	0.542
6.32316	0.531
6.36433	0.461
6.40551	0.396
6.44668	0.401
6.48786	0.439
6.52904	0.435
6.57021	0.394
6.61139	0.336
6.65257	0.149
6.69374	0.03
6.73492	0.104
6.77609	0.24
6.81727	0.243
6.85845	0.2
6.89962	0.26
6.9408	0.514
6.98198	0.554
7.02315	0.391
7.06433	0.271
7.1055	0.178
7.14668	0.049
7.18786	0.036
7.22903	0.169
7.27021	0.437
7.31139	0.59
7.35256	0.677
7.39374	0.725
7.43491	0.753
7.47609	0.783
7.51727	0.79
7.55844	0.792
7.59962	0.79
7.6408	0.77
7.68197	0.711
7.72315	0.66
7.76432	0.531
7.8055	0.471
7.84668	0.516
7.88785	0.602
7.92903	0.622
7.97021	0.584
8.01138	0.518
8.05256	0.375
8.09373	0.212
8.13491	0.054
8.17609	0.018
8.21726	0.01
8.25844	0.032
8.29962	0.156
8.34079	0.229
8.38197	0.216
8.42314	0.15
8.46432	0.07
8.5055	0.029
8.54667	0.01
8.58785	0.01
8.62903	0.022
8.6702	0.092
8.71138	0.219
8.75256	0.353
8.79373	0.456
8.83491	0.509
8.87608	0.545
8.91726	0.572
8.95844	0.59
8.99961	0.572
9.04079	0.478
9.08197	0.344
9.12314	0.217
9.16432	0.097
9.20549	0.066
9.24667	0.415
9.28785	0.579
9.32902	0.586
9.3702	0.55
9.41138	0.562
9.45255	0.651
9.49373	0.73
9.5349	0.761
9.57608	0.783
9.61726	0.792
9.65843	0.783
9.69961	0.756
9.74079	0.699
9.78196	0.569
9.82314	0.32
9.86431	0.202
9.90549	0.411
9.94667	0.475
9.98784	0.638
10.029	0.766
10.0702	0.813
10.1114	0.83
10.1525	0.85
10.1937	0.861
10.2349	0.864
10.2761	0.873
10.3173	0.876
10.3584	0.879
10.3996	0.879
10.4408	0.871
10.482	0.861
10.5231	0.857
10.5643	0.857
10.6055	0.861
10.6467	0.857
10.6878	0.85
10.729	0.854
10.7702	0.867
10.8114	0.874
10.8525	0.879
10.8937	0.881
10.9349	0.879
10.9761	0.879
11.0172	0.874
11.0584	0.866
11.0996	0.857
11.1408	0.847
11.182	0.833
11.2231	0.813
11.2643	0.787
11.3055	0.749
11.3467	0.698
11.3878	0.65
11.429	0.574
11.4702	0.451
11.5114	0.332
11.5525	0.229
11.5937	0.228
11.6349	0.305
11.6761	0.401
11.7172	0.481
11.7584	0.535
11.7996	0.572
11.8408	0.605
11.882	0.646
11.9231	0.66
11.9643	0.662
12.0055	0.634
12.0467	0.578
12.0878	0.53
12.129	0.555
12.1702	0.593
12.2114	0.581
12.2525	0.533
12.2937	0.469
12.3349	0.367
12.3761	0.269
12.4172	0.188
12.4584	0.197
12.4996	0.427
12.5408	0.571
12.5819	0.658
12.6231	0.73
12.6643	0.759
12.7055	0.773
12.7467	0.789
12.7878	0.799
12.829	0.801
12.8702	0.795
12.9114	0.79
12.9525	0.777
12.9937	0.763
13.0349	0.742
13.0761	0.706
13.1172	0.656
13.1584	0.581
13.1996	0.473
13.2408	0.353
13.2819	0.296
13.3231	0.317
13.3643	0.478
13.4055	0.571
13.4466	0.665
13.4878	0.71
13.529	0.728
13.5702	0.742
13.6114	0.751
13.6525	0.751
13.6937	0.751
13.7349	0.749
13.7761	0.751
13.8172	0.746
13.8584	0.737
13.8996	0.73
13.9408	0.722
13.9819	0.706
14.0231	0.682
14.0643	0.638
14.1055	0.574
14.1466	0.507
14.1878	0.49
14.229	0.528
14.2702	0.583
14.3114	0.614
14.3525	0.629
14.3937	0.638
14.4349	0.626
14.4761	0.603
14.5172	0.571
14.5584	0.506
14.5996	0.44
14.6408	0.392
14.6819	0.391
14.7231	0.423
14.7643	0.481
14.8055	0.516
14.8466	0.531
14.8878	0.54
14.929	0.542
14.9702	0.542
15.0113	0.536
15.0525	0.524
15.0937	0.516
15.1349	0.504
15.1761	0.49
15.2172	0.476
15.2584	0.466
15.2996	0.461
15.3408	0.456
15.3819	0.452
15.4231	0.442
15.4643	0.43
15.5055	0.418
15.5466	0.404
15.5878	0.397
15.629	0.392
15.6702	0.391
15.7113	0.391
15.7525	0.391
15.7937	0.391
15.8349	0.391
15.876	0.392
