Infrared Spectrum: 5,5-Dimethylhexane-2,4-dione
Formula: C 8 H 14 O 2
CAS: 7307-04-2
State: gas
Origin: EPA-IR VAPOR PHASE LIBRARY
1/CM	ABSORBANCE
549.8	0.008
559.445	0.00543
569.09	0.00506
578.734	0.00602
588.379	0.00603
598.024	0.0048
607.669	0.00499
617.313	0.00443
626.958	0.00307
636.603	0.00302
646.248	0.00324
655.893	0.00328
665.537	0.0025
675.182	0.00236
684.827	0.00306
694.472	0.00332
704.116	0.00281
713.761	0.00345
723.406	0.00605
733.051	0.00822
742.695	0.0101
752.34	0.00998
761.985	0.01167
771.63	0.01517
781.275	0.01818
790.919	0.01417
800.564	0.01007
810.209	0.0088
819.854	0.00804
829.498	0.00765
839.143	0.00821
848.788	0.00933
858.433	0.01214
868.078	0.02067
877.722	0.03516
887.367	0.03541
897.012	0.02063
906.657	0.01587
916.301	0.01628
925.946	0.01826
935.591	0.02009
945.236	0.02132
954.88	0.0203
964.525	0.01998
974.17	0.01995
983.815	0.01989
993.46	0.01808
1003.1	0.01592
1012.75	0.01447
1022.39	0.01519
1032.04	0.01622
1041.68	0.01745
1051.33	0.02127
1060.97	0.02788
1070.62	0.03558
1080.26	0.03599
1089.91	0.03063
1099.55	0.02595
1109.2	0.03008
1118.84	0.03923
1128.49	0.04286
1138.13	0.04053
1147.78	0.03378
1157.42	0.02928
1167.07	0.02838
1176.71	0.02889
1186.36	0.03677
1196	0.04631
1205.64	0.05224
1215.29	0.054
1224.93	0.04819
1234.58	0.04131
1244.22	0.03853
1253.87	0.03916
1263.51	0.04369
1273.16	0.0484
1282.8	0.05118
1292.45	0.05058
1302.09	0.04654
1311.74	0.04063
1321.38	0.03619
1331.03	0.03496
1340.67	0.03815
1350.32	0.04947
1359.96	0.06688
1369.61	0.07312
1379.25	0.05921
1388.9	0.04917
1398.54	0.04941
1408.18	0.05012
1417.83	0.05079
1427.47	0.05327
1437.12	0.05448
1446.76	0.05646
1456.41	0.05953
1466.05	0.06259
1475.7	0.06734
1485.34	0.06673
1494.99	0.05609
1504.63	0.04955
1514.28	0.04921
1523.92	0.05172
1533.57	0.05701
1543.21	0.06511
1552.86	0.07501
1562.5	0.08857
1572.15	0.1087
1581.79	0.1361
1591.44	0.16525
1601.08	0.1855
1610.73	0.1851
1620.37	0.16716
1630.01	0.14371
1639.66	0.11874
1649.3	0.09279
1658.95	0.07141
1668.59	0.05783
1678.24	0.05195
1687.88	0.05359
1697.53	0.06538
1707.17	0.08011
1716.82	0.08117
1726.46	0.06866
1736.11	0.05601
1745.75	0.0423
1755.4	0.03005
1765.04	0.02175
1774.69	0.01699
1784.33	0.01367
1793.98	0.01167
1803.62	0.01059
1813.27	0.0096
1822.91	0.00901
1832.55	0.00846
1842.2	0.0084
1851.84	0.00829
1861.49	0.00795
1871.13	0.00792
1880.78	0.00788
1890.42	0.00782
1900.07	0.00779
1909.71	0.00749
1919.36	0.00719
1929	0.00708
1938.65	0.00685
1948.29	0.00651
1957.94	0.00656
1967.58	0.00635
1977.23	0.00621
1986.87	0.0061
1996.52	0.00626
2006.16	0.00608
2015.81	0.00588
2025.45	0.00602
2035.1	0.00575
2044.74	0.00588
2054.38	0.00562
2064.03	0.00585
2073.67	0.00566
2083.32	0.0057
2092.96	0.00562
2102.61	0.0056
2112.25	0.00578
2121.9	0.00557
2131.54	0.00574
2141.19	0.00578
2150.83	0.0059
2160.48	0.00588
2170.12	0.0056
2179.77	0.00546
2189.41	0.0055
2199.06	0.00524
2208.7	0.0053
2218.35	0.00538
2227.99	0.00565
2237.64	0.00567
2247.28	0.00586
2256.92	0.00561
2266.57	0.00559
2276.21	0.00554
2285.86	0.00554
2295.5	0.00583
2305.15	0.0059
2314.79	0.0057
2324.44	0.00578
2334.08	0.00587
2343.73	0.00594
2353.37	0.00595
2363.02	0.00594
2372.66	0.00627
2382.31	0.00631
2391.95	0.00617
2401.6	0.00645
2411.24	0.00634
2420.89	0.00636
2430.53	0.00627
2440.18	0.00647
2449.82	0.00649
2459.47	0.00626
2469.11	0.00688
2478.75	0.00667
2488.4	0.00656
2498.04	0.007
2507.69	0.00709
2517.33	0.00719
2526.98	0.00704
2536.62	0.00699
2546.27	0.00705
2555.91	0.00722
2565.56	0.00714
2575.2	0.00756
2584.85	0.0072
2594.49	0.00738
2604.14	0.00725
2613.78	0.00738
2623.43	0.0074
2633.07	0.00732
2642.72	0.00757
2652.36	0.00768
2662.01	0.00811
2671.65	0.00797
2681.29	0.00846
2690.94	0.00856
2700.58	0.00853
2710.23	0.00862
2719.87	0.0091
2729.52	0.00904
2739.16	0.00924
2748.81	0.00893
2758.45	0.00927
2768.1	0.009
2777.74	0.00926
2787.39	0.0098
2797.03	0.00993
2806.68	0.01003
2816.32	0.01065
2825.97	0.01121
2835.61	0.01173
2845.26	0.01335
2854.9	0.01622
2864.55	0.02334
2874.19	0.03261
2883.84	0.03695
2893.48	0.03633
2903.12	0.03797
2912.77	0.04463
2922.41	0.04993
2932.06	0.0545
2941.7	0.05869
2951.35	0.06989
2960.99	0.10299
2970.64	0.13635
2980.28	0.11877
2989.93	0.07042
2999.57	0.0401
3009.22	0.02396
3018.86	0.01695
3028.51	0.01386
3038.15	0.01197
3047.8	0.01085
3057.44	0.00973
3067.09	0.00968
3076.73	0.00983
3086.38	0.00977
3096.02	0.00923
3105.67	0.00863
3115.31	0.00801
3124.95	0.00785
3134.6	0.00723
3144.24	0.00704
3153.89	0.00674
3163.53	0.00687
3173.18	0.00634
3182.82	0.00685
3192.47	0.00676
3202.11	0.00651
3211.76	0.00604
3221.4	0.0059
3231.05	0.00599
3240.69	0.00565
3250.34	0.00524
3259.98	0.00493
3269.63	0.00443
3279.27	0.00459
3288.92	0.00396
3298.56	0.00384
3308.21	0.0031
3317.85	0.00349
3327.49	0.00288
3337.14	0.00326
3346.78	0.00319
3356.43	0.00328
3366.07	0.0026
3375.72	0.00291
3385.36	0.00348
3395.01	0.00318
3404.65	0.00236
3414.3	0.00325
3423.94	0.00273
3433.59	0.00285
3443.23	0.00306
3452.88	0.00296
3462.52	0.00206
3472.17	0.00223
3481.81	0.00224
3491.46	0.00138
3501.1	0.00156
3510.75	0.00162
3520.39	0.0012
3530.04	0.0009259
3539.68	0.0015
3549.32	0.00144
3558.97	0.00154
3568.61	0.00156
3578.26	0.00173
3587.9	0.00122
3597.55	0.00119
3607.19	0.00132
3616.84	0.00104
3626.48	0.00136
3636.13	0.00117
3645.77	0.00184
3655.42	0.00117
3665.06	0.00145
3674.71	0.0007378
3684.35	0.00109
3694	0.00115
3703.64	0.00161
3713.29	0.00178
3722.93	0.00115
3732.58	0.0009903
3742.22	0.0009914
3751.86	0.00122
3761.51	0.00103
3771.15	0.00141
3780.8	0.00177
3790.44	0.00119
3800.09	0.00119
3809.73	0.0007232
3819.38	0.00116
3829.02	0.00138
3838.67	0.0014
3848.31	0.00138
3857.96	0.00162
3867.6	0.00163
3877.25	0.00139
3886.89	0.00143
3896.54	0.00196
3906.18	0.00225
3915.83	0.00202
3925.47	0.00119
3935.12	0.00171
3944.76	0.00198
3954.41	0.00142
3964.05	0.0009235
3973.69	0.00225
3983.34	0.00189
3992.98	0.00153
