Infrared Spectrum: ETHER, BUTYL p-(1,1-DIMETHYLPROPYL)PHENYL
Formula: C15 H24 O
CAS: 73090-62-7
State: LIQUID (NEAT)
Class: COBLENTZ III
Instrument: BAIRD (PRISM)
Instrument parameters: NaCl PRISM
Sampling: TRANSMISSION
Path length: 0.003 CM
Resolution: 2
Origin: WYANDOTTE CHEMICALS CORP.
MICROMETERS	TRANSMITTANCE
1.978	0.885
2.01714	0.883
2.05627	0.874
2.09541	0.887
2.13454	0.88
2.17368	0.854
2.21281	0.822
2.25195	0.834
2.29108	0.846
2.33022	0.846
2.36936	0.854
2.40849	0.85
2.44763	0.862
2.48676	0.883
2.5259	0.888
2.56503	0.885
2.60417	0.906
2.6433	0.896
2.68244	0.902
2.72158	0.893
2.76071	0.9
2.79985	0.897
2.83898	0.895
2.87812	0.891
2.91725	0.888
2.95639	0.885
2.99553	0.89
3.03466	0.896
3.0738	0.882
3.11293	0.865
3.15207	0.859
3.1912	0.845
3.23034	0.708
3.26947	0.535
3.30861	0.528
3.34775	0.193
3.38688	0.006
3.42602	0.011
3.46515	0.034
3.50429	0.128
3.54342	0.511
3.58256	0.727
3.62169	0.783
3.66083	0.797
3.69997	0.845
3.7391	0.883
3.77824	0.887
3.81737	0.893
3.85651	0.891
3.89564	0.887
3.93478	0.897
3.97391	0.888
4.01305	0.906
4.05219	0.892
4.09132	0.908
4.13046	0.909
4.16959	0.9
4.20873	0.918
4.24786	0.951
4.287	0.948
4.32614	0.937
4.36527	0.924
4.40441	0.925
4.44354	0.941
4.48268	0.948
4.52181	0.955
4.56095	0.951
4.60008	0.96
4.63922	0.962
4.67836	0.96
4.71749	0.955
4.75663	0.95
4.79576	0.937
4.8349	0.933
4.87403	0.928
4.91317	0.908
4.9523	0.902
4.99144	0.919
5.03058	0.94
5.06971	0.944
5.10885	0.949
5.14798	0.949
5.18712	0.953
5.22625	0.95
5.26539	0.938
5.30452	0.912
5.34366	0.871
5.3828	0.895
5.42193	0.922
5.46107	0.945
5.5002	0.951
5.53934	0.966
5.57847	0.959
5.61761	0.95
5.65675	0.94
5.69588	0.924
5.73502	0.928
5.77415	0.946
5.81329	0.941
5.85242	0.937
5.89156	0.935
5.93069	0.932
5.96983	0.9
6.00897	0.861
6.0481	0.807
6.08724	0.729
6.12637	0.376
6.16551	0.18
6.20464	0.451
6.24378	0.585
6.28291	0.474
6.32205	0.745
6.36119	0.79
6.40032	0.787
6.43946	0.769
6.47859	0.606
6.51773	0.341
6.55686	0.028
6.596	0.138
6.63513	0.295
6.67427	0.348
6.71341	0.14
6.75254	0.064
6.79168	0.072
6.83081	0.141
6.86995	0.28
6.90908	0.46
6.94822	0.55
6.98736	0.667
7.02649	0.65
7.06563	0.635
7.10476	0.63
7.1439	0.42
7.18303	0.223
7.22217	0.19
7.2613	0.364
7.30044	0.338
7.33958	0.553
7.37871	0.716
7.41785	0.711
7.45698	0.644
7.49612	0.6
7.53525	0.585
7.57439	0.423
7.61352	0.214
7.65266	0.14
7.6918	0.123
7.73093	0.107
7.77007	0.165
7.8092	0.293
7.84834	0.296
7.88747	0.169
7.92661	0.024
7.96574	0.006
8.00488	0.006
8.04402	0.013
8.08315	0.028
8.12229	0.05
8.16142	0.113
8.20056	0.265
8.23969	0.443
8.27883	0.511
8.31797	0.481
8.3571	0.348
8.39624	0.07
8.43537	0.023
8.47451	0.225
8.51364	0.438
8.55278	0.516
8.59191	0.655
8.63105	0.709
8.67019	0.687
8.70932	0.614
8.74846	0.688
8.78759	0.72
8.82673	0.598
8.86586	0.425
8.905	0.381
8.94413	0.5
8.98327	0.64
9.02241	0.744
9.06154	0.78
9.10068	0.812
9.13981	0.777
9.17895	0.719
9.21808	0.538
9.25722	0.381
9.29635	0.244
9.33549	0.267
9.37463	0.393
9.41376	0.465
9.4529	0.485
9.49203	0.456
9.53117	0.343
9.5703	0.279
9.60944	0.261
9.64858	0.259
9.68771	0.23
9.72685	0.255
9.76598	0.356
9.80512	0.351
9.84425	0.218
9.88339	0.167
9.92252	0.265
9.96166	0.437
10.0008	0.548
10.0399	0.624
10.0791	0.619
10.1182	0.617
10.1573	0.571
10.1965	0.522
10.2356	0.397
10.2747	0.361
10.3139	0.492
10.353	0.567
10.3922	0.662
10.4313	0.717
10.4704	0.739
10.5096	0.765
10.5487	0.819
10.5878	0.854
10.627	0.881
10.6661	0.875
10.7052	0.862
10.7444	0.861
10.7835	0.896
10.8226	0.914
10.8618	0.928
10.9009	0.928
10.94	0.902
10.9792	0.846
11.0183	0.787
11.0575	0.803
11.0966	0.858
11.1357	0.892
11.1749	0.903
11.214	0.891
11.2531	0.875
11.2923	0.839
11.3314	0.793
11.3705	0.735
11.4097	0.639
11.4488	0.634
11.4879	0.697
11.5271	0.793
11.5662	0.835
11.6054	0.867
11.6445	0.871
11.6836	0.874
11.7228	0.86
11.7619	0.825
11.801	0.746
11.8402	0.667
11.8793	0.546
11.9184	0.471
11.9576	0.381
11.9967	0.261
12.0358	0.122
12.075	0.056
12.1141	0.027
12.1533	0.037
12.1924	0.119
12.2315	0.281
12.2707	0.427
12.3098	0.516
12.3489	0.54
12.3881	0.511
12.4272	0.45
12.4663	0.423
12.5055	0.467
12.5446	0.559
12.5837	0.641
12.6229	0.682
12.662	0.706
12.7012	0.719
12.7403	0.712
12.7794	0.653
12.8186	0.574
12.8577	0.492
12.8968	0.511
12.936	0.619
12.9751	0.718
13.0142	0.793
13.0534	0.832
13.0925	0.851
13.1316	0.841
13.1708	0.829
13.2099	0.834
13.249	0.849
13.2882	0.851
13.3273	0.855
13.3665	0.854
13.4056	0.838
13.4447	0.817
13.4839	0.801
13.523	0.772
13.5621	0.758
13.6013	0.77
13.6404	0.804
13.6795	0.835
13.7187	0.798
13.7578	0.817
13.7969	0.865
13.8361	0.924
13.8752	0.956
13.9144	0.966
13.9535	0.982
13.9926	0.986
14.0318	0.986
14.0709	0.983
14.11	0.981
14.1492	0.983
14.1883	0.983
14.2274	0.987
14.2666	0.982
14.3057	0.97
14.3448	0.974
14.384	0.981
14.4231	0.98
14.4623	0.979
14.5014	0.985
14.5405	0.98
14.5797	0.979
14.6188	0.976
14.6579	0.972
14.6971	0.977
14.7362	0.962
14.7753	0.95
14.8145	0.923
14.8536	0.903
14.8927	0.881
14.9319	0.866
14.971	0.835
15.0102	0.792
15.0493	0.754
15.0884	0.76
15.1276	0.775
15.1667	0.82
15.2058	0.844
15.245	0.89
15.2841	0.903
15.3232	0.928
15.3624	0.932
15.4015	0.928
15.4406	0.925
15.4798	0.924
15.5189	0.929
15.558	0.929
15.5972	0.924
15.6363	0.918
15.6755	0.924
15.7146	0.925
15.7537	0.92
15.7929	0.918
15.832	0.917
15.8711	0.917
15.9103	0.917
15.9494	0.923
15.9885	0.928
