Infrared Spectrum: 2-Hydroxy-5-methylisophthalaldehyde
Formula: C 9 H 8 O 3
CAS: 7310-95-4
State: gas
Origin: EPA-IR VAPOR PHASE LIBRARY
1/CM	ABSORBANCE
549.8	0.0038966
559.445	0.0046966
569.09	0.0028666
578.734	0.0026366
588.379	0.0042466
598.024	0.0077266
607.669	0.0092466
617.313	0.0085266
626.958	0.0138266
636.603	0.0212466
646.248	0.0162766
655.893	0.0077466
665.537	0.0040466
675.182	0.0034266
684.827	0.0042466
694.472	0.0058566
704.116	0.0083866
713.761	0.0115366
723.406	0.0134366
733.051	0.0122766
742.695	0.0106666
752.34	0.0117166
761.985	0.0110466
771.63	0.0066666
781.275	0.0027666
790.919	0.0026566
800.564	0.0041166
810.209	0.0033666
819.854	0.0014966
829.498	0.0009368
839.143	0.0009955
848.788	0.0015866
858.433	0.0024766
868.078	0.0049766
877.722	0.0064766
887.367	0.0029066
897.012	0.0016666
906.657	0.0021966
916.301	0.0028566
925.946	0.0036966
935.591	0.0067166
945.236	0.0174466
954.88	0.0345466
964.525	0.0283766
974.17	0.0097466
983.815	0.0061466
993.46	0.0062266
1003.1	0.0070566
1012.75	0.0075166
1022.39	0.0055666
1032.04	0.0031966
1041.68	0.0019866
1051.33	0.0017266
1060.97	0.0015366
1070.62	0.0020666
1080.26	0.0017766
1089.91	0.0019066
1099.55	0.0012466
1109.2	0.0016066
1118.84	0.0021366
1128.49	0.0027866
1138.13	0.0031966
1147.78	0.0059466
1157.42	0.0091866
1167.07	0.0055866
1176.71	0.0032466
1186.36	0.0043366
1196	0.0082166
1205.64	0.0201066
1215.29	0.0267466
1224.93	0.0158966
1234.58	0.0092466
1244.22	0.0080566
1253.87	0.0125866
1263.51	0.0223266
1273.16	0.0207566
1282.8	0.0127266
1292.45	0.0176666
1302.09	0.0271466
1311.74	0.0237766
1321.38	0.0125766
1331.03	0.0108566
1340.67	0.0118866
1350.32	0.0120566
1359.96	0.0132366
1369.61	0.0171766
1379.25	0.0197866
1388.9	0.0220466
1398.54	0.0236066
1408.18	0.0196866
1417.83	0.0175366
1427.47	0.0188266
1437.12	0.0205566
1446.76	0.0280666
1456.41	0.0443566
1466.05	0.0406566
1475.7	0.0178566
1485.34	0.0091366
1494.99	0.0067966
1504.63	0.0052166
1514.28	0.0040666
1523.92	0.0039466
1533.57	0.0037866
1543.21	0.0035766
1552.86	0.0038766
1562.5	0.0051266
1572.15	0.0083566
1581.79	0.0155866
1591.44	0.0272666
1601.08	0.0374066
1610.73	0.0316566
1620.37	0.0169066
1630.01	0.0105766
1639.66	0.0096466
1649.3	0.0134866
1658.95	0.0335366
1668.59	0.0805566
1678.24	0.0967966
1687.88	0.0613066
1697.53	0.0633566
1707.17	0.0855366
1716.82	0.0468966
1726.46	0.0172966
1736.11	0.0108766
1745.75	0.0061366
1755.4	0.0038766
1765.04	0.0031066
1774.69	0.0026866
1784.33	0.0027966
1793.98	0.0024366
1803.62	0.0021866
1813.27	0.0015766
1822.91	0.0011366
1832.55	0.0010166
1842.2	0.0011066
1851.84	0.0011266
1861.49	0.0010666
1871.13	0.000969
1880.78	0.0010266
1890.42	0.0009583
1900.07	0.0008825
1909.71	0.0010046
1919.36	0.0011566
1929	0.0011166
1938.65	0.0009918
1948.29	0.0007719
1957.94	0.0007041
1967.58	0.0006393
1977.23	0.0007519
1986.87	0.0005516
1996.52	0.000603
2006.16	0.0004251
2015.81	0.0003996
2025.45	0.0003182
2035.1	0.000263
2044.74	0.0003317
2054.38	0.0003727
2064.03	0.0004345
2073.67	0.0005035
2083.32	0.0004449
2092.96	0.0004463
2102.61	0.000541
2112.25	0.0005687
2121.9	0.0004986
2131.54	0.0003544
2141.19	0.0003717
2150.83	0.000297
2160.48	0.0002954
2170.12	0.0002623
2179.77	0.0002413
2189.41	0.0002544
2199.06	0.0002716
2208.7	0.0003197
2218.35	0.0004785
2227.99	0.000452
2237.64	0.0004314
2247.28	0.0005465
2256.92	0.0007574
2266.57	0.0007215
2276.21	0.0004945
2285.86	0.0003106
2295.5	0.0001921
2305.15	0.0003244
2314.79	0.0004081
2324.44	0.00043
2334.08	0.0004044
2343.73	0.0003766
2353.37	0.0004759
2363.02	0.000506
2372.66	0.0005379
2382.31	0.0005487
2391.95	0.0006045
2401.6	0.0006163
2411.24	0.0006839
2420.89	0.0006786
2430.53	0.0005803
2440.18	0.0004634
2449.82	0.000363
2459.47	0.0003997
2469.11	0.0006362
2478.75	0.0006484
2488.4	0.0006375
2498.04	0.0005658
2507.69	0.0008763
2517.33	0.0009818
2526.98	0.0011866
2536.62	0.0010666
2546.27	0.0007075
2555.91	0.0006349
2565.56	0.0007197
2575.2	0.0007766
2584.85	0.0007192
2594.49	0.0008476
2604.14	0.000862
2613.78	0.0010366
2623.43	0.0009604
2633.07	0.0011266
2642.72	0.0012266
2652.36	0.0013266
2662.01	0.0013366
2671.65	0.0015166
2681.29	0.0016866
2690.94	0.0022666
2700.58	0.0028266
2710.23	0.0032666
2719.87	0.0040666
2729.52	0.0058366
2739.16	0.0063966
2748.81	0.0058166
2758.45	0.0059166
2768.1	0.0054866
2777.74	0.0046866
2787.39	0.0041766
2797.03	0.0043666
2806.68	0.0049666
2816.32	0.0072966
2825.97	0.0132266
2835.61	0.0222366
2845.26	0.0211166
2854.9	0.0141466
2864.55	0.0164566
2874.19	0.0167166
2883.84	0.0099366
2893.48	0.0054966
2903.12	0.0045766
2912.77	0.0049466
2922.41	0.0061066
2932.06	0.0086866
2941.7	0.0085366
2951.35	0.0056766
2960.99	0.0043566
2970.64	0.0040066
2980.28	0.0038866
2989.93	0.0039866
2999.57	0.0046966
3009.22	0.0061766
3018.86	0.0069266
3028.51	0.0060866
3038.15	0.0049166
3047.8	0.0047566
3057.44	0.0043766
3067.09	0.0043566
3076.73	0.0042566
3086.38	0.0039266
3096.02	0.0043566
3105.67	0.0046966
3115.31	0.0048666
3124.95	0.0053966
3134.6	0.0057866
3144.24	0.0061166
3153.89	0.0065566
3163.53	0.0066766
3173.18	0.0067066
3182.82	0.0068066
3192.47	0.0064766
3202.11	0.0063466
3211.76	0.0063866
3221.4	0.0063466
3231.05	0.0060066
3240.69	0.0059266
3250.34	0.0058666
3259.98	0.0056166
3269.63	0.0057166
3279.27	0.0056566
3288.92	0.0056166
3298.56	0.0055966
3308.21	0.0054066
3317.85	0.0054666
3327.49	0.0057666
3337.14	0.0056666
3346.78	0.0055366
3356.43	0.0045466
3366.07	0.0042066
3375.72	0.0039466
3385.36	0.0044966
3395.01	0.0047066
3404.65	0.0040666
3414.3	0.0030166
3423.94	0.0027166
3433.59	0.0024966
3443.23	0.0023066
3452.88	0.0022866
3462.52	0.0020366
3472.17	0.0021166
3481.81	0.0021066
3491.46	0.0016166
3501.1	0.0013666
3510.75	0.0013166
3520.39	0.0013066
3530.04	0.0012066
3539.68	0.0011466
3549.32	0.0011666
3558.97	0.0011266
3568.61	0.0009477
3578.26	0.0007943
3587.9	0.0008573
3597.55	0.0003809
3607.19	0.000456
3616.84	0.0006535
3626.48	0.0006706
3636.13	0.0005887
3645.77	0.0003171
3655.42	0.00051
3665.06	0.0003406
3674.71	0.0005527
3684.35	0.0003482
3694	0.0003895
3703.64	0.0001625
3713.29	0.0002759
3722.93	0.0003719
3732.58	0.0004349
3742.22	0.0003034
3751.86	0.0003835
3761.51	0.0003911
3771.15	0.0002302
3780.8	0.000493
3790.44	0.0005183
3800.09	0.0004683
3809.73	0.0003319
3819.38	0.0001409
3829.02	0.0002321
3838.67	0.0002824
3848.31	0.0003637
3857.96	0.0003078
3867.6	0.0002538
3877.25	0.0002675
3886.89	0.000531
3896.54	0.0002553
3906.18	0.0003727
3915.83	0.0002112
3925.47	0.0001484
3935.12	0.00010784
3944.76	0.000194
3954.41	0.000154
3964.05	0.0003579
3973.69	0.000466
3983.34	0.0004808
3992.98	0.0002427
