Infrared Spectrum: N-Dodecylmethylamine
Formula: C 13 H 29 N
CAS: 7311-30-0
State: gas
Origin: EPA-IR VAPOR PHASE LIBRARY
1/CM	ABSORBANCE
549.9	0.0006504
559.547	0.00052649
569.193	0.0006941
578.84	0.0006907
588.486	0.0007249
598.133	0.0006729
607.779	0.0006586
617.426	0.0008354
627.072	0.0007579
636.719	0.0008799
646.365	0.0009776
656.012	0.0010679
665.658	0.0011795
675.305	0.0012956
684.951	0.0014113
694.598	0.001577
704.245	0.001657
713.891	0.001747
723.538	0.001697
733.184	0.001537
742.831	0.0012635
752.477	0.0010521
762.124	0.000978
771.77	0.0008365
781.417	0.0008118
791.063	0.0007546
800.71	0.0007168
810.356	0.00060119
820.003	0.0006189
829.649	0.00057871
839.296	0.000592
848.943	0.0006215
858.589	0.00058679
868.236	0.00052945
877.882	0.00059844
887.529	0.00059704
897.175	0.0005869
906.822	0.0006283
916.468	0.0006041
926.115	0.0006506
935.761	0.0006395
945.408	0.0006497
955.054	0.0006395
964.701	0.0007128
974.347	0.0006567
983.994	0.0006312
993.64	0.0007253
1003.29	0.0007028
1012.93	0.0007187
1022.58	0.0007252
1032.23	0.000817
1041.87	0.0008229
1051.52	0.0008448
1061.17	0.0009472
1070.81	0.0008852
1080.46	0.0008945
1090.11	0.0009729
1099.75	0.001021
1109.4	0.0012442
1119.05	0.001597
1128.69	0.001827
1138.34	0.001857
1147.99	0.001797
1157.63	0.001547
1167.28	0.0011598
1176.92	0.0008724
1186.57	0.0006334
1196.22	0.000371
1205.86	0.000194
1215.51	0
1225.16	0.000238
1234.8	0.000512416
1244.45	0.0004707
1254.1	0.000387
1263.74	0.000353
1273.39	0.000352
1283.04	0.0004746
1292.68	0.00059079
1302.33	0.0006393
1311.98	0.0007658
1321.62	0.0007583
1331.27	0.0008138
1340.92	0.0010961
1350.56	0.0013795
1360.21	0.0014361
1369.86	0.0013073
1379.5	0.0011155
1389.15	0.0008938
1398.79	0.0007173
1408.44	0.0007538
1418.09	0.0007963
1427.73	0.001057
1437.38	0.001617
1447.03	0.002467
1456.67	0.003017
1466.32	0.003067
1475.97	0.002317
1485.61	0.0014059
1495.26	0.0009276
1504.91	0.000615
1514.55	0.00059957
1524.2	0.000514396
1533.85	0.0004676
1543.49	0.0004218
1553.14	0.0004224
1562.79	0.0004194
1572.43	0.000424
1582.08	0.0004248
1591.73	0.000385
1601.37	0.000392
1611.02	0.000398
1620.67	0.00039
1630.31	0.000369
1639.96	0.000374
1649.6	0.000397
1659.25	0.0004523
1668.9	0.0004341
1678.54	0.00049855
1688.19	0.000386
1697.84	0.000359
1707.48	0.000369
1717.13	0.000331
1726.78	0.000389
1736.42	0.000362
1746.07	0.00037
1755.72	0.000369
1765.36	0.000404
1775.01	0.000406
1784.66	0.000369
1794.3	0.000392
1803.95	0.000394
1813.6	0.000376
1823.24	0.000361
1832.89	0.000355
1842.54	0.000381
1852.18	0.00036
1861.83	0.000379
1871.47	0.000329
1881.12	0.000364
1890.77	0.00033
1900.41	0.000367
1910.06	0.000335
1919.71	0.000378
1929.35	0.000378
1939	0.000381
1948.65	0.000362
1958.29	0.000378
1967.94	0.000401
1977.59	0.00038
1987.23	0.000395
1996.88	0.000406
2006.53	0.0004294
2016.17	0.0004089
2025.82	0.000422
2035.47	0.000445
2045.11	0.0004519
2054.76	0.00046
2064.41	0.0004538
2074.05	0.0004363
2083.7	0.0004161
2093.35	0.0004377
2102.99	0.0004737
2112.64	0.0004512
2122.28	0.0004493
2131.93	0.0004545
2141.58	0.000471
2151.22	0.000424
2160.87	0.0004623
2170.52	0.0004604
2180.16	0.0004693
2189.81	0.0004533
2199.46	0.0004728
2209.1	0.0004676
2218.75	0.000441
2228.4	0.0004713
2238.04	0.0004836
2247.69	0.0004733
2257.34	0.0004739
2266.98	0.000481
2276.63	0.0004707
2286.28	0.0004719
2295.92	0.000516697
2305.57	0.0005045
2315.22	0.00050272
2324.86	0.0004886
2334.51	0.00050013
2344.16	0.0004751
2353.8	0.0004673
2363.45	0.0004916
2373.09	0.0004736
2382.74	0.0005188
2392.39	0.00054429
2402.03	0.00054458
2411.68	0.00052714
2421.33	0.00050349
2430.97	0.00056758
2440.62	0.00051794
2450.27	0.0005267
2459.91	0.00054765
2469.56	0.00055792
2479.21	0.00052388
2488.85	0.00059729
2498.5	0.00056215
2508.15	0.00057233
2517.79	0.0006085
2527.44	0.0006164
2537.09	0.0006743
2546.73	0.0006634
2556.38	0.0006938
2566.03	0.0006625
2575.67	0.0007009
2585.32	0.0007151
2594.96	0.0007636
2604.61	0.0008084
2614.26	0.0007959
2623.9	0.0008165
2633.55	0.0008533
2643.2	0.0008931
2652.84	0.0009382
2662.49	0.0010032
2672.14	0.0010683
2681.78	0.0011112
2691.43	0.001225
2701.08	0.0012452
2710.72	0.0012296
2720.37	0.0012682
2730.02	0.0014063
2739.66	0.0014317
2749.31	0.001627
2758.96	0.001897
2768.6	0.002447
2778.25	0.003087
2787.9	0.004017
2797.54	0.004947
2807.19	0.004757
2816.84	0.004447
2826.48	0.004407
2836.13	0.004777
2845.77	0.006447
2855.42	0.010767
2865.07	0.012877
2874.71	0.010047
2884.36	0.008547
2894.01	0.008567
2903.65	0.010577
2913.3	0.014837
2922.95	0.023867
2932.59	0.031767
2942.24	0.024537
2951.89	0.014857
2961.53	0.011157
2971.18	0.009527
2980.83	0.005997
2990.47	0.003607
3000.12	0.002597
3009.77	0.001967
3019.41	0.001677
3029.06	0.0015029
3038.71	0.0013698
3048.35	0.0013261
3058	0.0011634
3067.64	0.0010784
3077.29	0.0010353
3086.94	0.0010112
3096.58	0.000997
3106.23	0.0009825
3115.88	0.000948
3125.52	0.0009005
3135.17	0.000941
3144.82	0.0007739
3154.46	0.0008203
3164.11	0.0008529
3173.76	0.0006904
3183.4	0.0007266
3193.05	0.0007844
3202.7	0.000671
3212.34	0.0007931
3221.99	0.0006719
3231.64	0.000703
3241.28	0.00067
3250.93	0.0006285
3260.58	0.0006324
3270.22	0.00057221
3279.87	0.0006813
3289.52	0.0006679
3299.16	0.00056911
3308.81	0.00059168
3318.45	0.0006258
3328.1	0.0006315
3337.75	0.0006731
3347.39	0.00054801
3357.04	0.00057963
3366.69	0.0006147
3376.33	0.00052355
3385.98	0.0006459
3395.63	0.0004605
3405.27	0.00054672
3414.92	0.00050279
3424.57	0.0004865
3434.21	0.0004718
3443.86	0.00051781
3453.51	0.00055503
3463.15	0.0004555
3472.8	0.0004248
3482.45	0.0004909
3492.09	0.0004188
3501.74	0.0004912
3511.39	0.000376
3521.03	0.000353
3530.68	0.0004148
3540.33	0.0004262
3549.97	0.0004572
3559.62	0.0004816
3569.26	0.0004749
3578.91	0.000438
3588.56	0.000386
3598.2	0.00051799
3607.85	0.000516608
3617.5	0.0004951
3627.14	0.0004427
3636.79	0.00052221
3646.44	0.0004913
3656.08	0.0004526
3665.73	0.0004802
3675.38	0.0004725
3685.02	0.0005665
3694.67	0.00053795
3704.32	0.00049829
3713.96	0.0004872
3723.61	0.0004811
3733.26	0.00054064
3742.9	0.00050612
3752.55	0.00053415
3762.2	0.00052163
3771.84	0.00054845
3781.49	0.00054099
3791.13	0.00049901
3800.78	0.0004848
3810.43	0.00052514
3820.07	0.0004967
3829.72	0.00055346
3839.37	0.0004798
3849.01	0.00054144
3858.66	0.00058748
3868.31	0.00050583
3877.95	0.00055929
3887.6	0.00052917
3897.25	0.00051781
3906.89	0.00054842
3916.54	0.00052911
3926.19	0.00058414
3935.83	0.0006544
3945.48	0.00050455
3955.13	0.0006215
3964.77	0.00060196
3974.42	0.0006358
3984.07	0.00061
3993.71	0.00058188
