Infrared Spectrum: 1-Diethylamino-2-pentyne
Formula: C 9 H 17 N
CAS: 73117-10-9
State: gas
Origin: EPA-IR VAPOR PHASE LIBRARY
1/CM	ABSORBANCE
549.8	0.0015398
559.445	0.001171
569.09	0.00313
578.734	0.0019428
588.379	0.0017424
598.024	0.00307
607.669	0.0017237
617.313	0.001079
626.958	0.00259
636.603	0.00158387
646.248	0.0019042
655.893	0.0019433
665.537	0.0023598
675.182	0.0019328
684.827	0.0017053
694.472	0.0019712
704.116	0.0020432
713.761	0.0024299
723.406	0.0019585
733.051	0.00258
742.695	0.00415
752.34	0.00408
761.985	0.00428
771.63	0.00445
781.275	0.0023454
790.919	0.00351
800.564	0.00308
810.209	0.00386
819.854	0.00398
829.498	0.0023125
839.143	0.0020721
848.788	0.0021279
858.433	0.0024483
868.078	0.0017278
877.722	0.0021136
887.367	0.00289
897.012	0.00264
906.657	0.00274
916.301	0.0021353
925.946	0.0025303
935.591	0.00285
945.236	0.0021163
954.88	0.00367
964.525	0.00315
974.17	0.00358
983.815	0.00437
993.46	0.00317
1003.1	0.00386
1012.75	0.00345
1022.39	0.0036
1032.04	0.00428
1041.68	0.00486
1051.33	0.00813
1060.97	0.01043
1070.62	0.00826
1080.26	0.01016
1089.91	0.00699
1099.55	0.00736
1109.2	0.00841
1118.84	0.01155
1128.49	0.0076
1138.13	0.00525
1147.78	0.00539
1157.42	0.00498
1167.07	0.0071
1176.71	0.00289
1186.36	0.00294
1196	0.00367
1205.64	0.0036
1215.29	0.00016
1224.93	0.000652
1234.58	0
1244.22	0.00326
1253.87	0.00331
1263.51	0.00498
1273.16	0.0056
1282.8	0.00676
1292.45	0.00817
1302.09	0.01079
1311.74	0.0178
1321.38	0.02055
1331.03	0.01335
1340.67	0.00959
1350.32	0.00998
1359.96	0.01046
1369.61	0.01088
1379.25	0.01181
1388.9	0.01023
1398.54	0.00696
1408.18	0.00463
1417.83	0.00431
1427.47	0.00507
1437.12	0.00617
1446.76	0.00799
1456.41	0.00851
1466.05	0.0081
1475.7	0.00633
1485.34	0.00438
1494.99	0.00308
1504.63	0.0021597
1514.28	0.00264
1523.92	0.0024677
1533.57	0.0023492
1543.21	0.0018483
1552.86	0.0021012
1562.5	0.0022023
1572.15	0.0021379
1581.79	0.002097
1591.44	0.0022827
1601.08	0.0020484
1610.73	0.00283
1620.37	0.00267
1630.01	0.0024676
1639.66	0.0021522
1649.3	0.0021859
1658.95	0.002418
1668.59	0.0022153
1678.24	0.0020605
1687.88	0.0020081
1697.53	0.0018532
1707.17	0.0021053
1716.82	0.0018402
1726.46	0.0015463
1736.11	0.0019226
1745.75	0.0019477
1755.4	0.0018591
1765.04	0.0016865
1774.69	0.0022617
1784.33	0.0019759
1793.98	0.0017485
1803.62	0.0019368
1813.27	0.0017209
1822.91	0.00165854
1832.55	0.0016908
1842.2	0.00163144
1851.84	0.0018583
1861.49	0.0018936
1871.13	0.001947
1880.78	0.0021157
1890.42	0.0018533
1900.07	0.0020396
1909.71	0.0018253
1919.36	0.0019439
1929	0.0020852
1938.65	0.0021512
1948.29	0.0021004
1957.94	0.0020938
1967.58	0.0020578
1977.23	0.0018704
1986.87	0.0018694
1996.52	0.0020174
2006.16	0.0020896
2015.81	0.0019404
2025.45	0.0023107
2035.1	0.002245
2044.74	0.0019692
2054.38	0.0022819
2064.03	0.0022596
2073.67	0.0024277
2083.32	0.0021671
2092.96	0.002163
2102.61	0.0021111
2112.25	0.0020525
2121.9	0.0021399
2131.54	0.0020122
2141.19	0.0020715
2150.83	0.0024376
2160.48	0.0022006
2170.12	0.0020424
2179.77	0.0025041
2189.41	0.0023755
2199.06	0.0024809
2208.7	0.00258
2218.35	0.0027
2227.99	0.0023384
2237.64	0.00269
2247.28	0.00292
2256.92	0.00275
2266.57	0.00272
2276.21	0.0022285
2285.86	0.0021563
2295.5	0.0025283
2305.15	0.0024292
2314.79	0.00261
2324.44	0.0019203
2334.08	0.0021829
2343.73	0.0024533
2353.37	0.0022751
2363.02	0.0024863
2372.66	0.00271
2382.31	0.0021674
2391.95	0.0025353
2401.6	0.0023445
2411.24	0.002138
2420.89	0.00267
2430.53	0.00276
2440.18	0.0023518
2449.82	0.0019621
2459.47	0.0023276
2469.11	0.0019152
2478.75	0.0020826
2488.4	0.0022427
2498.04	0.0024311
2507.69	0.0021532
2517.33	0.0023887
2526.98	0.0021429
2536.62	0.0019423
2546.27	0.00297
2555.91	0.00275
2565.56	0.0022315
2575.2	0.00314
2584.85	0.00264
2594.49	0.00278
2604.14	0.0025443
2613.78	0.00323
2623.43	0.00298
2633.07	0.00297
2642.72	0.0035
2652.36	0.00351
2662.01	0.003
2671.65	0.00293
2681.29	0.00363
2690.94	0.00362
2700.58	0.00423
2710.23	0.0048
2719.87	0.00449
2729.52	0.00476
2739.16	0.00579
2748.81	0.00575
2758.45	0.00705
2768.1	0.0076
2777.74	0.0092
2787.39	0.01158
2797.03	0.01335
2806.68	0.01483
2816.32	0.01628
2825.97	0.01824
2835.61	0.0168
2845.26	0.01357
2854.9	0.0126
2864.55	0.01241
2874.19	0.01492
2883.84	0.01767
2893.48	0.01822
2903.12	0.01874
2912.77	0.02048
2922.41	0.02523
2932.06	0.03206
2941.7	0.03627
2951.35	0.03353
2960.99	0.03013
2970.64	0.04053
2980.28	0.04708
2989.93	0.0291
2999.57	0.01451
3009.22	0.00949
3018.86	0.00679
3028.51	0.00535
3038.15	0.00436
3047.8	0.0044
3057.44	0.00434
3067.09	0.00383
3076.73	0.00318
3086.38	0.00258
3096.02	0.00351
3105.67	0.00272
3115.31	0.00341
3124.95	0.00282
3134.6	0.00268
3144.24	0.00384
3153.89	0.00266
3163.53	0.00365
3173.18	0.0023687
3182.82	0.0027
3192.47	0.0025156
3202.11	0.0022008
3211.76	0.0023732
3221.4	0.0023885
3231.05	0.00328
3240.69	0.0020959
3250.34	0.0022775
3259.98	0.00279
3269.63	0.0019443
3279.27	0.002282
3288.92	0.0021321
3298.56	0.0023398
3308.21	0.0027
3317.85	0.0020908
3327.49	0.0025124
3337.14	0.0021072
3346.78	0.0018242
3356.43	0.0017085
3366.07	0.0016701
3375.72	0.0020903
3385.36	0.0018917
3395.01	0.0023399
3404.65	0.0017534
3414.3	0.00258
3423.94	0.00266
3433.59	0.00291
3443.23	0.0020759
3452.88	0.002391
3462.52	0.001807
3472.17	0.0023013
3481.81	0.00156275
3491.46	0.0019889
3501.1	0.0019603
3510.75	0.0020508
3520.39	0.0018676
3530.04	0.0021046
3539.68	0.002008
3549.32	0.0014888
3558.97	0.0016909
3568.61	0.0017282
3578.26	0.0017733
3587.9	0.002015
3597.55	0.00263
3607.19	0.001364
3616.84	0.00265
3626.48	0.0017902
3636.13	0.0023569
3645.77	0.0021621
3655.42	0.0022713
3665.06	0.00283
3674.71	0.0018984
3684.35	0.0023566
3694	0.0022531
3703.64	0.0024229
3713.29	0.0017975
3722.93	0.0019637
3732.58	0.0023344
3742.22	0.00342
3751.86	0.0022932
3761.51	0.0031
3771.15	0.0024455
3780.8	0.001256
3790.44	0.0021609
3800.09	0.00257
3809.73	0.0021722
3819.38	0.0019943
3829.02	0.0022721
3838.67	0.0024478
3848.31	0.0022461
3857.96	0.00286
3867.6	0.0016707
3877.25	0.0021113
3886.89	0.0020007
3896.54	0.0023617
3906.18	0.0024825
3915.83	0.0021307
3925.47	0.0025308
3935.12	0.00285
3944.76	0.00304
3954.41	0.0018141
3964.05	0.0021055
3973.69	0.0024942
3983.34	0.00258
3992.98	0.0021883
