Infrared Spectrum: 2,4-Dimethoxybenzyl alcohol
Formula: C 9 H 12 O 3
CAS: 7314-44-5
State: gas
Origin: EPA-IR VAPOR PHASE LIBRARY
1/CM	ABSORBANCE
549.9	0.002456
559.547	0.002446
569.193	0.002246
578.84	0.001856
588.486	0.0015219
598.133	0.0012932
607.779	0.0013392
617.426	0.0012503
627.072	0.001433
636.719	0.0015441
646.365	0.0014777
656.012	0.001287
665.658	0.0010504
675.305	0.0009931
684.951	0.0009761
694.598	0.0010472
704.245	0.0012576
713.891	0.0012841
723.538	0.0010418
733.184	0.0009565
742.831	0.0009193
752.477	0.001053
762.124	0.0013741
771.77	0.002156
781.417	0.002706
791.063	0.002716
800.71	0.002726
810.356	0.003056
820.003	0.003846
829.649	0.004896
839.296	0.005506
848.943	0.004026
858.589	0.002526
868.236	0.001756
877.882	0.0014251
887.529	0.0014497
897.175	0.001656
906.822	0.002396
916.468	0.004316
926.115	0.005706
935.761	0.004906
945.408	0.003856
955.054	0.003926
964.701	0.004086
974.347	0.004426
983.994	0.005616
993.64	0.008106
1003.29	0.011706
1012.93	0.015426
1022.58	0.017806
1032.23	0.019736
1041.87	0.020136
1051.52	0.014476
1061.17	0.007226
1070.81	0.004326
1080.46	0.003646
1090.11	0.004126
1099.75	0.006356
1109.4	0.011166
1119.05	0.014536
1128.69	0.013136
1138.34	0.011806
1147.99	0.020276
1157.63	0.027626
1167.28	0.018716
1176.92	0.012376
1186.57	0.012776
1196.22	0.018526
1205.86	0.026586
1215.51	0.019886
1225.16	0.009486
1234.8	0.007486
1244.45	0.008986
1254.1	0.012526
1263.74	0.014616
1273.39	0.017076
1283.04	0.022426
1292.68	0.020686
1302.33	0.013396
1311.98	0.009236
1321.62	0.006856
1331.27	0.005036
1340.92	0.003946
1350.56	0.003326
1360.21	0.003436
1369.86	0.004206
1379.5	0.005696
1389.15	0.006886
1398.79	0.006996
1408.44	0.007666
1418.09	0.008076
1427.73	0.007036
1437.38	0.008186
1447.03	0.009386
1456.67	0.010696
1466.32	0.013686
1475.97	0.011906
1485.61	0.010586
1495.26	0.017096
1504.91	0.023376
1514.55	0.014476
1524.2	0.004996
1533.85	0.003016
1543.49	0.002826
1553.14	0.003246
1562.79	0.004846
1572.43	0.008396
1582.08	0.013706
1591.73	0.017286
1601.37	0.021036
1611.02	0.024956
1620.67	0.017386
1630.31	0.007396
1639.96	0.003736
1649.6	0.002416
1659.25	0.001806
1668.9	0.0015794
1678.54	0.0013113
1688.19	0.0012723
1697.84	0.0013154
1707.48	0.0012051
1717.13	0.001036
1726.78	0.0009788
1736.42	0.0009196
1746.07	0.0008969
1755.72	0.0007892
1765.36	0.000757
1775.01	0.0007393
1784.66	0.0007502
1794.3	0.00064012
1803.95	0.00064264
1813.6	0.00066218
1823.24	0.00066161
1832.89	0.00067981
1842.54	0.0007711
1852.18	0.0008237
1861.83	0.0008772
1871.47	0.0008473
1881.12	0.0007961
1890.77	0.0007087
1900.41	0.00068445
1910.06	0.0007027
1919.71	0.00069584
1929.35	0.00065184
1939	0.00068108
1948.65	0.00068131
1958.29	0.0007326
1967.94	0.000762
1977.59	0.0007574
1987.23	0.0007056
1996.88	0.0007559
2006.53	0.0007527
2016.17	0.0007569
2025.82	0.0007627
2035.47	0.0008236
2045.11	0.0008471
2054.76	0.0008659
2064.41	0.0009473
2074.05	0.0008989
2083.7	0.0009186
2093.35	0.0008053
2102.99	0.00062862
2112.64	0.0005775
2122.28	0.0005738
2131.93	0.0005846
2141.58	0.0006062
2151.22	0.00063706
2160.87	0.00063278
2170.52	0.00066535
2180.16	0.00068987
2189.81	0.0007062
2199.46	0.0007894
2209.1	0.0007354
2218.75	0.00062216
2228.4	0.0005773
2238.04	0.0005065
2247.69	0.000492
2257.34	0.000476
2266.98	0.000458
2276.63	0.000452
2286.28	0.000484
2295.92	0.000436
2305.57	0.000558
2315.22	0.0005164
2324.86	0.000551
2334.51	0.0005295
2344.16	0.0005204
2353.8	0.000522
2363.45	0.0005309
2373.09	0.000496
2382.74	0.000558
2392.39	0.0005512
2402.03	0.0005408
2411.68	0.0005483
2421.33	0.0005564
2430.97	0.00056
2440.62	0.0005745
2450.27	0.0005397
2459.91	0.000544
2469.56	0.0005404
2479.21	0.000503
2488.85	0.00064008
2498.5	0.0005483
2508.15	0.0005188
2517.79	0.000452
2527.44	0.000473
2537.09	0.000422
2546.73	0.000495
2556.38	0.000447
2566.03	0.000455
2575.67	0.000451
2585.32	0.000496
2594.96	0.0005534
2604.61	0.0005432
2614.26	0.0005199
2623.9	0.00045
2633.55	0.000423
2643.2	0.000496
2652.84	0.000381
2662.49	0.00045
2672.14	0.000441
2681.78	0.000415
2691.43	0.000444
2701.08	0.000399
2710.72	0.000391
2720.37	0.000475
2730.02	0.000448
2739.66	0.0005036
2749.31	0.0005375
2758.96	0.00063439
2768.6	0.0007401
2778.25	0.0008555
2787.9	0.0009271
2797.54	0.0011929
2807.19	0.0014105
2816.84	0.002086
2826.48	0.003296
2836.13	0.006026
2845.77	0.007676
2855.42	0.006346
2865.07	0.005506
2874.71	0.006186
2884.36	0.007016
2894.01	0.006996
2903.65	0.007046
2913.3	0.007736
2922.95	0.008426
2932.59	0.009496
2942.24	0.012956
2951.89	0.014406
2961.53	0.012186
2971.18	0.008546
2980.83	0.005896
2990.47	0.005746
3000.12	0.008776
3009.77	0.009226
3019.41	0.005046
3029.06	0.003316
3038.71	0.002926
3048.35	0.002096
3058	0.0015219
3067.64	0.0015253
3077.29	0.001716
3086.94	0.001846
3096.58	0.001706
3106.23	0.0013822
3115.88	0.0008433
3125.52	0.0007255
3135.17	0.000482
3144.82	0.000349
3154.46	0.000363
3164.11	0.000337
3173.76	0.000158
3183.4	0.000284
3193.05	0.000121
3202.7	0.000334
3212.34	0.000312
3221.99	0.000465
3231.64	0.000173
3241.28	0.000344
3250.93	7.2e-05
3260.58	0.000189
3270.22	0.000214
3279.87	0.00024
3289.52	0.000253
3299.16	0.000214
3308.81	0.000182
3318.45	0.000293
3328.1	0.000323
3337.75	0.000408
3347.39	0.000453
3357.04	0.000436
3366.69	0.000222
3376.33	0.000389
3385.98	0.000332
3395.63	0.000552
3405.27	0.000368
3414.92	0.000372
3424.57	0.000325
3434.21	0.000361
3443.86	0.000441
3453.51	0.000385
3463.15	0.000393
3472.8	0.0005245
3482.45	0.0005781
3492.09	0.00063592
3501.74	0.00058889
3511.39	0.00065913
3521.03	0.000602568
3530.68	0.0005624
3540.33	0.0005658
3549.97	0.00068043
3559.62	0.0005504
3569.26	0.0007199
3578.91	0.0007354
3588.56	0.0008585
3598.2	0.0009085
3607.85	0.0010647
3617.5	0.001231
3627.14	0.001856
3636.79	0.002386
3646.44	0.002596
3656.08	0.002166
3665.73	0.001666
3675.38	0.0013823
3685.02	0.0011827
3694.67	0.0009273
3704.32	0.0007976
3713.96	0.0007982
3723.61	0.0005807
3733.26	0.00067984
3742.9	0.0007041
3752.55	0.00062657
3762.2	0.0005077
3771.84	0.0005818
3781.49	0.0005237
3791.13	0.0005711
3800.78	0.0005483
3810.43	0.000374
3820.07	0.000508
3829.72	0.0005575
3839.37	0.0005572
3849.01	0.0005549
3858.66	0.0005268
3868.31	0.00067717
3877.95	0.0007152
3887.6	0.0005757
3897.25	0.0005003
3906.89	0.00061028
3916.54	0.00047
3926.19	0.0005444
3935.83	0.00064636
3945.48	0.0005539
3955.13	0.00062255
3964.77	0.00056
3974.42	0.00059532
3984.07	0.000443
3993.71	0.0006356
