Infrared Spectrum: 2-Methyl-1-phenyl-1-pentanol
Formula: C 12 H 18 O
CAS: 73177-67-0
State: gas
Instrument: HP-GC/MS/IRD
Origin: NIST Mass Spectrometry Data Center
1/CM	ABSORBANCE
550	0.0014718
562	0.0006072
574	0.00022
586	1.1e-05
598	0.0001012
610	0.0004554
622	0.000561
634	0.0007656
646	0.0007832
658	0.0012936
670	0.0014652
682	0.0021098
694	0.0079134
706	0.0085074
718	0.0032934
730	0.0033198
742	0.0038962
754	0.0043648
766	0.0029194
778	0.0009724
790	0.0005676
802	0.0004752
814	0.0004532
826	0.0003542
838	0.0004092
850	0.0004532
862	0.0004532
874	0.0005258
886	0.0006204
898	0.0008778
910	0.001254
922	0.0012672
934	0.0016434
946	0.0016632
958	0.0013178
970	0.0019998
982	0.0034276
994	0.0042768
1006	0.0065296
1018	0.0084084
1030	0.007656
1042	0.004972
1054	0.0030558
1066	0.0023606
1078	0.0018458
1090	0.0014476
1102	0.0014916
1114	0.0015356
1126	0.0015312
1138	0.0014388
1150	0.0018172
1162	0.0020988
1174	0.0021406
1186	0.0022132
1198	0.0022352
1210	0.0022836
1222	0.0024046
1234	0.0023034
1246	0.0021736
1258	0.0022594
1270	0.0026818
1282	0.002838
1294	0.0027632
1306	0.002651
1318	0.0023606
1330	0.0022462
1342	0.0021208
1354	0.0024002
1366	0.0030294
1378	0.0040634
1390	0.003388
1402	0.0017578
1414	0.0012496
1426	0.0011946
1438	0.0018986
1450	0.0039974
1462	0.0045166
1474	0.0032142
1486	0.0025256
1498	0.0022132
1510	0.000759
1522	0.00044
1534	0.000418
1546	0.0003432
1558	0.0002244
1570	0.0002178
1582	0.0004026
1594	0.0008096
1606	0.0008734
1618	0.000264
1630	0.00011
1642	0.0001276
1654	0.0001518
1666	0.0001276
1678	0.0001078
1690	6.38e-05
1702	2.64e-05
1714	4.4e-05
1726	3.74e-05
1738	0.00011
1750	0.0001694
1762	9.24e-05
1774	8.14e-05
1786	0.0001848
1798	0.0004444
1810	0.0002904
1822	0.0001298
1834	4.62e-05
1846	7.26e-05
1858	0.0001342
1870	0.0002662
1882	0.0003278
1894	0.000231
1906	8.58e-05
1918	9.46e-05
1930	0.0002574
1942	0.000473
1954	0.000418
1966	0.0001826
1978	6.16e-05
1990	1.76e-05
2002	5.06e-05
2014	3.96e-05
2026	5.28e-05
2038	2.86e-05
2050	5.5e-05
2062	4.62e-05
2074	5.28e-05
2086	1.76e-05
2098	6.6e-06
2110	1.32e-05
2122	6.6e-06
2134	3.08e-05
2146	4.18e-05
2158	2.2e-05
2170	1.98e-05
2182	4.18e-05
2194	3.08e-05
2206	1.76e-05
2218	3.74e-05
2230	2.86e-05
2242	4.4e-06
2254	1.54e-05
2266	2.2e-05
2278	2.42e-05
2290	3.3e-05
2302	1.98e-05
2314	8.58e-05
2326	9.68e-05
2338	9.46e-05
2350	9.24e-05
2362	7.48e-05
2374	8.8e-05
2386	8.8e-05
2398	5.28e-05
2410	9.02e-05
2422	7.92e-05
2434	6.38e-05
2446	3.08e-05
2458	5.94e-05
2470	5.72e-05
2482	3.08e-05
2494	7.7e-05
2506	8.8e-05
2518	7.7e-05
2530	0.00011
2542	0.00011
2554	0.0001386
2566	0.000176
2578	0.0002068
2590	0.0002156
2602	0.0002222
2614	0.0002288
2626	0.000231
2638	0.0002288
2650	0.0002618
2662	0.0002464
2674	0.0002772
2686	0.0003036
2698	0.0003102
2710	0.0003146
2722	0.0003872
2734	0.0004796
2746	0.0005456
2758	0.000539
2770	0.0005588
2782	0.00066
2794	0.0008316
2806	0.0010164
2818	0.0013068
2830	0.0018084
2842	0.0026862
2854	0.0048752
2866	0.0082478
2878	0.011847
2890	0.012045
2902	0.011033
2914	0.0118756
2926	0.0139612
2938	0.0162096
2950	0.0143088
2962	0.0194194
2974	0.0198946
2986	0.008987
2998	0.0040282
3010	0.0029942
3022	0.004048
3034	0.0058256
3046	0.004092
3058	0.0038632
3070	0.0062106
3082	0.0046156
3094	0.0030756
3106	0.0017358
3118	0.0010164
3130	0.0006006
3142	0.000451
3154	0.0004334
3166	0.0003894
3178	0.000297
3190	0.0002882
3202	0.0001936
3214	0.0001518
3226	0.0001232
3238	6.6e-05
3250	9.24e-05
3262	8.36e-05
3274	5.5e-05
3286	8.14e-05
3298	6.82e-05
3310	4.18e-05
3322	9.46e-05
3334	0.0001166
3346	9.02e-05
3358	6.38e-05
3370	0.00011
3382	0.0001034
3394	0.0001188
3406	4.62e-05
3418	0.0001276
3430	9.68e-05
3442	7.26e-05
3454	6.16e-05
3466	4.18e-05
3478	3.96e-05
3490	8.58e-05
3502	9.02e-05
3514	6.38e-05
3526	5.06e-05
3538	6.6e-05
3550	5.28e-05
3562	8.36e-05
3574	0.0001452
3586	9.02e-05
3598	9.24e-05
3610	0.000154
3622	0.0003256
3634	0.0011858
3646	0.0029788
3658	0.0021824
3670	0.0008272
3682	0.000308
3694	0.0002398
3706	0.0001892
3718	0.000165
3730	0.0001342
3742	0.0001034
3754	0.0001166
3766	0.0001276
3778	0.0001958
3790	0.0001188
3802	0.0001386
3814	0.0001496
3826	0.0001474
3838	0.0001056
