Infrared Spectrum: 1-Fluorotetradecane
Formula: C 14 H 29 F
CAS: 73180-09-3
State: gas
Origin: EPA-IR VAPOR PHASE LIBRARY
1/CM	ABSORBANCE
549.8	0.000715384
559.445	0.000477
569.09	0.000566
578.735	0.000566
588.38	0.000225
598.025	0.000398
607.67	9.1e-05
617.315	0.000368
626.96	0.000292
636.605	0.000222
646.251	0.000188
655.896	0.000387
665.541	0.000428
675.186	0.000589
684.831	0.0012007
694.476	0.0015305
704.121	0.002608
713.766	0.003838
723.411	0.004228
733.056	0.003478
742.701	0.002808
752.346	0.002388
761.991	0.002118
771.636	0.001928
781.281	0.001748
790.926	0.0016824
800.571	0.001768
810.216	0.0015309
819.861	0.0014894
829.507	0.0015984
839.152	0.001838
848.797	0.002118
858.442	0.002398
868.087	0.002658
877.732	0.003118
887.377	0.003488
897.022	0.003628
906.667	0.003798
916.312	0.003818
925.957	0.003978
935.602	0.004498
945.247	0.005218
954.892	0.005498
964.537	0.005868
974.182	0.006848
983.827	0.008268
993.472	0.010468
1003.12	0.013098
1012.76	0.017328
1022.41	0.023638
1032.05	0.026898
1041.7	0.024988
1051.34	0.022568
1060.99	0.018918
1070.63	0.015368
1080.28	0.011188
1089.92	0.007598
1099.57	0.005078
1109.21	0.003778
1118.86	0.003218
1128.5	0.002778
1138.15	0.002158
1147.79	0.001948
1157.44	0.002048
1167.08	0.001988
1176.73	0.002018
1186.37	0.002018
1196.02	0.001998
1205.66	0.001998
1215.31	0.002108
1224.95	0.002158
1234.6	0.002278
1244.24	0.002638
1253.89	0.002658
1263.53	0.002828
1273.18	0.003118
1282.82	0.003428
1292.47	0.003838
1302.11	0.004428
1311.76	0.004478
1321.4	0.004068
1331.05	0.004478
1340.69	0.006018
1350.34	0.007788
1359.98	0.007728
1369.63	0.007308
1379.27	0.008118
1388.92	0.010238
1398.56	0.007918
1408.21	0.004848
1417.85	0.004308
1427.5	0.005328
1437.14	0.008138
1446.79	0.013118
1456.43	0.019098
1466.08	0.019448
1475.73	0.012358
1485.37	0.006568
1495.02	0.003718
1504.66	0.002518
1514.31	0.001948
1523.95	0.0015091
1533.6	0.0013505
1543.24	0.0011353
1552.89	0.0010548
1562.53	0.0009743
1572.18	0.000955
1581.82	0.0009187
1591.47	0.0008642
1601.11	0.00078103
1610.76	0.0008279
1620.4	0.000717717
1630.05	0.0008088
1639.69	0.00075821
1649.34	0.0006938
1658.98	0.00077807
1668.63	0.0006753
1678.27	0.0006516
1687.92	0.000713227
1697.56	0.000583
1707.21	0.0006655
1716.85	0.000599
1726.5	0.0006926
1736.14	0.0006673
1745.79	0.000584
1755.43	0.000669
1765.08	0.000604
1774.72	0.0006253
1784.37	0.0006083
1794.01	0.000608
1803.66	0.0006188
1813.3	0.000607
1822.95	0.0006911
1832.59	0.0006609
1842.24	0.0006382
1851.88	0.0006896
1861.53	0.00076945
1871.17	0.0006713
1880.82	0.0006793
1890.46	0.0006825
1900.11	0.00072912
1909.75	0.0006579
1919.4	0.0006123
1929.04	0.000714124
1938.69	0.00069
1948.33	0.000714056
1957.98	0.00075535
1967.62	0.0007544
1977.27	0.00072758
1986.91	0.00079783
1996.56	0.00075419
2006.2	0.0009121
2015.85	0.0009424
2025.49	0.0010821
2035.14	0.0010958
2044.78	0.0011329
2054.43	0.0011122
2064.07	0.0009604
2073.72	0.0008262
2083.36	0.0009359
2093.01	0.0009066
2102.65	0.0008353
2112.3	0.0008412
2121.94	0.0008612
2131.59	0.0008304
2141.23	0.0008959
2150.88	0.0008796
2160.52	0.0009521
2170.17	0.0009302
2179.81	0.000869
2189.46	0.0009186
2199.1	0.0008638
2208.75	0.0009319
2218.39	0.00079352
2228.04	0.0008496
2237.68	0.0008455
2247.33	0.0008507
2256.97	0.0009183
2266.62	0.0008561
2276.26	0.0008968
2285.91	0.0009404
2295.55	0.000882
2305.2	0.0009854
2314.84	0.000946
2324.49	0.0009116
2334.13	0.00077061
2343.78	0.0008534
2353.42	0.0009125
2363.07	0.0008709
2372.72	0.0008751
2382.36	0.0009337
2392.01	0.0010085
2401.65	0.0009963
2411.3	0.0009429
2420.94	0.000945
2430.59	0.0009307
2440.23	0.0009785
2449.88	0.0008755
2459.52	0.0009367
2469.17	0.0008767
2478.81	0.0008589
2488.46	0.0010214
2498.1	0.0010653
2507.75	0.0010676
2517.39	0.0011232
2527.04	0.0012397
2536.68	0.0013606
2546.33	0.001291
2555.97	0.0014439
2565.62	0.0013835
2575.26	0.0015204
2584.91	0.0015991
2594.55	0.001758
2604.2	0.001748
2613.84	0.001888
2623.49	0.002028
2633.13	0.002178
2642.78	0.002368
2652.42	0.002558
2662.07	0.002818
2671.71	0.003128
2681.36	0.003228
2691	0.003248
2700.65	0.003168
2710.29	0.002918
2719.94	0.003028
2729.58	0.003268
2739.23	0.003728
2748.87	0.004008
2758.52	0.004188
2768.16	0.004398
2777.81	0.004898
2787.45	0.005508
2797.1	0.006658
2806.74	0.008038
2816.39	0.010328
2826.03	0.013598
2835.68	0.019428
2845.32	0.033988
2854.97	0.073658
2864.61	0.103728
2874.26	0.077978
2883.9	0.061128
2893.55	0.060688
2903.19	0.083848
2912.84	0.122728
2922.48	0.200918
2932.13	0.285358
2941.77	0.222868
2951.42	0.138138
2961.06	0.117068
2970.71	0.094778
2980.35	0.047418
2990	0.025978
2999.64	0.016708
3009.29	0.011768
3018.93	0.008878
3028.58	0.007098
3038.22	0.005768
3047.87	0.004758
3057.51	0.003908
3067.16	0.003298
3076.8	0.002688
3086.45	0.002478
3096.09	0.002148
3105.74	0.002008
3115.38	0.001928
3125.03	0.001768
3134.67	0.0016684
3144.32	0.0015006
3153.96	0.0014024
3163.61	0.0013863
3173.25	0.0013238
3182.9	0.0012565
3192.54	0.0011786
3202.19	0.0010406
3211.83	0.001115
3221.48	0.0009594
3231.12	0.00076515
3240.77	0.0006978
3250.41	0.000472
3260.06	0.000559
3269.7	0.000519
3279.35	0.000519
3289	0.000473
3298.64	0.000548
3308.29	0.00039
3317.93	0.000424
3327.58	0.000368
3337.22	0.00032
3346.87	0.00055
3356.51	0.00054
3366.16	0.000423
3375.8	0.000485
3385.45	0.000265
3395.09	0.000369
3404.74	0.000379
3414.38	0.000412
3424.03	0.000495
3433.67	0.0006225
3443.32	0.000444
3452.96	0.000472
3462.61	0.000299
3472.25	0.000303
3481.9	0.000316
3491.54	0.000367
3501.19	0.000246
3510.83	8e-05
3520.48	0.000587
3530.12	0.000252
3539.77	0.00015
3549.41	0.000246
3559.06	0.000161
3568.7	0.000247
3578.35	0.000251
3587.99	0.000217
3597.64	0.000458
3607.28	0.000456
3616.93	0.000527
3626.57	0.000451
3636.22	0.000426
3645.86	0.000343
3655.51	0.000381
3665.15	0.000551
3674.8	0.0006167
3684.44	0.0006491
3694.09	0.000574
3703.73	0.00057
3713.38	0.0006245
3723.02	0.000442
3732.67	0.000429
3742.31	0.000364
3751.96	0.000508
3761.6	0.0006261
3771.25	0.000466
3780.89	0.0006514
3790.54	0.000477
3800.18	0.000575
3809.83	0.000524
3819.47	0.000683
3829.12	0.000555
3838.76	0.000488
3848.41	0.00058
3858.05	0.000494
3867.7	0.000524
3877.34	0.000608
3886.99	0.00049
3896.63	0.000541
3906.28	0.00074188
3915.92	0.000646
3925.57	0.0006362
3935.21	0.00080692
3944.86	0.0006386
3954.5	0.0006481
3964.15	0.0009019
3973.79	0.0008603
3983.44	0.0010768
3993.08	0.0009025
