Infrared Spectrum: ETHYLDIMETHOXYBORANE
Formula: C4 H11 O2 B
CAS: 7318-82-3
State: VAPOR AT 20 mmHg PRESSURE;
Class: COBLENTZ
Instrument: Not specified, most likely a prism, grating, or hybrid spectrometer.
Sampling: TRANSMISSION
Path length: 5 CM
Resolution: 4
Origin: KALLERY CHEMICAL COMPANY
MICROMETERS	TRANSMITTANCE
2.014	0.979
2.04857	0.984
2.08315	0.984
2.11772	0.987
2.15229	0.986
2.18687	0.984
2.22144	0.981
2.25601	0.972
2.29059	0.963
2.32516	0.963
2.35973	0.965
2.39431	0.963
2.42888	0.963
2.46345	0.965
2.49803	0.967
2.5326	0.968
2.56717	0.972
2.60175	0.975
2.63632	0.982
2.67089	0.984
2.70547	0.984
2.74004	0.984
2.77461	0.984
2.80919	0.984
2.84376	0.984
2.87834	0.981
2.91291	0.975
2.94748	0.974
2.98206	0.974
3.01663	0.977
3.0512	0.975
3.08578	0.975
3.12035	0.97
3.15492	0.965
3.1895	0.955
3.22407	0.937
3.25864	0.896
3.29322	0.746
3.32779	0.588
3.36236	0.215
3.39694	0.398
3.43151	0.431
3.46608	0.414
3.50066	0.699
3.53523	0.877
3.5698	0.898
3.60438	0.934
3.63895	0.941
3.67352	0.944
3.7081	0.946
3.74267	0.951
3.77724	0.956
3.81182	0.96
3.84639	0.96
3.88096	0.963
3.91554	0.968
3.95011	0.968
3.98468	0.97
4.01926	0.974
4.05383	0.975
4.0884	0.975
4.12298	0.977
4.15755	0.975
4.19212	0.975
4.2267	0.975
4.26127	0.975
4.29584	0.975
4.33042	0.975
4.36499	0.975
4.39957	0.975
4.43414	0.977
4.46871	0.974
4.50329	0.97
4.53786	0.967
4.57243	0.965
4.60701	0.965
4.64158	0.963
4.67615	0.958
4.71073	0.955
4.7453	0.956
4.77987	0.949
4.81445	0.939
4.84902	0.93
4.88359	0.924
4.91817	0.922
4.95274	0.925
4.98731	0.932
5.02189	0.939
5.05646	0.949
5.09103	0.949
5.12561	0.953
5.16018	0.953
5.19475	0.953
5.22933	0.953
5.2639	0.955
5.29847	0.953
5.33305	0.953
5.36762	0.955
5.40219	0.955
5.43677	0.955
5.47134	0.955
5.50591	0.955
5.54049	0.955
5.57506	0.955
5.60963	0.956
5.64421	0.956
5.67878	0.956
5.71335	0.955
5.74793	0.955
5.7825	0.949
5.81707	0.943
5.85165	0.939
5.88622	0.939
5.92079	0.939
5.95537	0.939
5.98994	0.941
6.02452	0.943
6.05909	0.943
6.09366	0.941
6.12824	0.937
6.16281	0.934
6.19738	0.93
6.23196	0.924
6.26653	0.917
6.3011	0.908
6.33568	0.905
6.37025	0.899
6.40482	0.891
6.4394	0.879
6.47397	0.863
6.50854	0.844
6.54312	0.822
6.57769	0.799
6.61226	0.751
6.64684	0.367
6.68141	0.245
6.71598	0.129
6.75056	0.103
6.78513	0.203
6.8197	0.324
6.85428	0.443
6.88885	0.552
6.92342	0.673
6.958	0.72
6.99257	0.735
7.02714	0.742
7.06172	0.728
7.09629	0.656
7.13086	0.485
7.16544	0.284
7.20001	0.169
7.23458	0.081
7.26916	0.037
7.30373	0.017
7.3383	0.01
7.37288	0.006
7.40745	0.005
7.44202	0.005
7.4766	0.008
7.51117	0.024
7.54575	0.279
7.58032	0.374
7.61489	0.421
7.64947	0.481
7.68404	0.55
7.71861	0.602
7.75319	0.671
7.78776	0.702
7.82233	0.718
7.85691	0.709
7.89148	0.675
7.92605	0.561
7.96063	0.345
7.9952	0.293
8.02977	0.29
8.06435	0.314
8.09892	0.374
8.13349	0.443
8.16807	0.502
8.20264	0.542
8.23721	0.564
8.27179	0.578
8.30636	0.587
8.34093	0.59
8.37551	0.588
8.41008	0.582
8.44465	0.573
8.47923	0.557
8.5138	0.544
8.54837	0.531
8.58295	0.53
8.61752	0.55
8.65209	0.601
8.68667	0.633
8.72124	0.678
8.75581	0.715
8.79039	0.739
8.82496	0.754
8.85953	0.772
8.89411	0.787
8.92868	0.797
8.96325	0.804
8.99783	0.813
9.0324	0.818
9.06697	0.82
9.10155	0.82
9.13612	0.82
9.1707	0.816
9.20527	0.796
9.23984	0.773
9.27442	0.68
9.30899	0.442
9.34356	0.39
9.37814	0.367
9.41271	0.357
9.44728	0.357
9.48186	0.381
9.51643	0.473
9.551	0.514
9.58558	0.58
9.62015	0.614
9.65472	0.671
9.6893	0.708
9.72387	0.734
9.75844	0.728
9.79302	0.675
9.82759	0.606
9.86216	0.587
9.89674	0.587
9.93131	0.595
9.96588	0.623
10.0005	0.69
10.035	0.775
10.0696	0.797
10.1042	0.822
10.1388	0.837
10.1733	0.846
10.2079	0.853
10.2425	0.853
10.277	0.849
10.3116	0.846
10.3462	0.841
10.3808	0.841
10.4153	0.844
10.4499	0.848
10.4845	0.853
10.5191	0.861
10.5536	0.87
10.5882	0.879
10.6228	0.886
10.6574	0.892
10.6919	0.901
10.7265	0.908
10.7611	0.908
10.7956	0.911
10.8302	0.913
10.8648	0.915
10.8994	0.917
10.9339	0.918
10.9685	0.918
11.0031	0.92
11.0377	0.922
11.0722	0.922
11.1068	0.922
11.1414	0.924
11.176	0.924
11.2105	0.924
11.2451	0.924
11.2797	0.924
11.3142	0.925
11.3488	0.925
11.3834	0.925
11.418	0.925
11.4525	0.925
11.4871	0.925
11.5217	0.925
11.5563	0.925
11.5908	0.925
11.6254	0.925
11.66	0.925
11.6946	0.925
11.7291	0.925
11.7637	0.925
11.7983	0.925
11.8328	0.925
11.8674	0.925
11.902	0.925
11.9366	0.925
11.9711	0.925
12.0057	0.925
12.0403	0.927
12.0749	0.925
12.1094	0.927
12.144	0.927
12.1786	0.927
12.2132	0.927
12.2477	0.927
12.2823	0.925
12.3169	0.925
12.3514	0.925
12.386	0.925
12.4206	0.924
12.4552	0.924
12.4897	0.922
12.5243	0.922
12.5589	0.922
12.5935	0.918
12.628	0.911
12.6626	0.901
12.6972	0.889
12.7318	0.879
12.7663	0.856
12.8009	0.834
12.8355	0.808
12.87	0.787
12.9046	0.775
12.9392	0.775
12.9738	0.777
13.0083	0.772
13.0429	0.746
13.0775	0.725
13.1121	0.742
13.1466	0.782
13.1812	0.794
13.2158	0.806
13.2504	0.816
13.2849	0.825
13.3195	0.835
13.3541	0.844
13.3887	0.853
13.4232	0.858
13.4578	0.863
13.4924	0.872
13.5269	0.875
13.5615	0.879
13.5961	0.879
13.6307	0.879
13.6652	0.88
13.6998	0.88
13.7344	0.88
13.769	0.879
13.8035	0.879
13.8381	0.877
13.8727	0.877
13.9073	0.877
13.9418	0.875
13.9764	0.87
14.011	0.867
14.0455	0.865
14.0801	0.863
14.1147	0.86
14.1493	0.858
14.1838	0.856
14.2184	0.856
14.253	0.851
14.2876	0.848
14.3221	0.841
14.3567	0.835
14.3913	0.83
14.4259	0.823
14.4604	0.818
14.495	0.815
14.5296	0.815
14.5641	0.811
14.5987	0.806
14.6333	0.797
14.6679	0.791
14.7024	0.785
14.737	0.784
14.7716	0.782
14.8062	0.78
14.8407	0.777
14.8753	0.775
14.9099	0.772
14.9445	0.77
14.979	0.77
15.0136	0.768
15.0482	0.759
15.0827	0.753
15.1173	0.744
15.1519	0.737
15.1865	0.728
15.221	0.723
