Infrared Spectrum: trans-1,4-Hexadiene
Formula: C 6 H 10
CAS: 7319-00-8
State: gas
Instrument: HP-GC/MS/IRD
Origin: NIST Mass Spectrometry Data Center
1/CM	ABSORBANCE
550	0.0009705
562	7.2e-05
574	3.45e-05
586	7.5e-05
598	0.000378
610	0.000612
622	0.001023
634	0.0011565
646	0.000945
658	0.0007665
670	0.0006615
682	0.0004185
694	0.0005235
706	0.000432
718	0.0002865
730	0.0002295
742	0.000282
754	0.0002505
766	0.0002325
778	0.000288
790	0.000255
802	0.000237
814	0.0004725
826	0.000486
838	0.0008925
850	0.0012045
862	0.0016305
874	0.002322
886	0.00387
898	0.006621
910	0.0098985
922	0.010551
934	0.0094155
946	0.0099675
958	0.011067
970	0.0111645
982	0.0098895
994	0.007851
1006	0.005541
1018	0.003627
1030	0.002811
1042	0.002556
1054	0.002286
1066	0.001758
1078	0.0014805
1090	0.0012795
1102	0.00123
1114	0.0010755
1126	0.000888
1138	0.000621
1150	0.000516
1162	0.0003855
1174	0.0002985
1186	0.0003225
1198	0.0004425
1210	0.0004635
1222	0.0005025
1234	0.0005025
1246	0.0006195
1258	0.0012165
1270	0.0016365
1282	0.0014985
1294	0.001206
1306	0.0010455
1318	0.000933
1330	0.0008865
1342	0.000807
1354	0.0009135
1366	0.001104
1378	0.001461
1390	0.001866
1402	0.002256
1414	0.002802
1426	0.003459
1438	0.00366
1450	0.0033945
1462	0.0026295
1474	0.001962
1486	0.001395
1498	0.0010335
1510	0.0008445
1522	0.000696
1534	0.0005865
1546	0.000498
1558	0.00051
1570	0.000504
1582	0.0005505
1594	0.000657
1606	0.000969
1618	0.001923
1630	0.0037665
1642	0.0040635
1654	0.0025785
1666	0.0011595
1678	0.000735
1690	0.000525
1702	0.00057
1714	0.000555
1726	0.0005505
1738	0.000384
1750	0.0002325
1762	0.000216
1774	0.0002415
1786	0.0002745
1798	0.000453
1810	0.0006465
1822	0.001017
1834	0.0011355
1846	0.0007995
1858	0.000414
1870	0.000276
1882	0.0001755
1894	0.0001905
1906	0.00012
1918	0.0001395
1930	0.0001215
1942	0.0001245
1954	0.000174
1966	0.0002265
1978	0.000237
1990	0.000204
2002	0.000192
2014	0.000129
2026	9e-05
2038	8.1e-05
2050	2.55e-05
2062	3.15e-05
2074	2.7e-05
2086	6e-05
2098	3e-06
2110	1.95e-05
2122	4.05e-05
2134	1.95e-05
2146	3.6e-05
2158	3.45e-05
2170	4.35e-05
2182	4.35e-05
2194	5.85e-05
2206	3.3e-05
2218	7.2e-05
2230	3.9e-05
2242	3.6e-05
2254	3.3e-05
2266	5.1e-05
2278	3.45e-05
2290	5.85e-05
2302	4.95e-05
2314	6e-05
2326	0.00012
2338	4.35e-05
2350	9.15e-05
2362	1.8e-05
2374	0.000129
2386	0.00015
2398	0.0001335
2410	0.0001275
2422	0.0001725
2434	0.000111
2446	0.0001035
2458	0.000147
2470	0.000174
2482	0.0001605
2494	0.000126
2506	0.000114
2518	0.0001275
2530	0.0001575
2542	0.000147
2554	0.0001815
2566	0.0001665
2578	0.000135
2590	0.000156
2602	0.00018
2614	0.000177
2626	0.000165
2638	0.000144
2650	0.000201
2662	0.0002175
2674	0.0002595
2686	0.000264
2698	0.0003645
2710	0.0004035
2722	0.000516
2734	0.0006315
2746	0.0008295
2758	0.0007035
2770	0.0005625
2782	0.0006
2794	0.000804
2806	0.0012315
2818	0.001935
2830	0.002799
2842	0.0035385
2854	0.0046995
2866	0.0069645
2878	0.008754
2890	0.009993
2902	0.0113055
2914	0.0128805
2926	0.015
2938	0.01437
2950	0.011367
2962	0.010785
2974	0.010971
2986	0.010863
2998	0.010866
3010	0.0108135
3022	0.010155
3034	0.008262
3046	0.006741
3058	0.0057825
3070	0.0058545
3082	0.00702
3094	0.006315
3106	0.0037035
3118	0.0020385
3130	0.0013065
3142	0.000951
3154	0.0007755
3166	0.0005535
3178	0.000492
3190	0.0003585
3202	0.0003615
3214	0.000288
3226	0.00027
3238	0.000219
3250	0.0002025
3262	0.00018
3274	0.000177
3286	0.0001275
3298	0.000153
3310	8.55e-05
3322	0.0001605
3334	0.000135
3346	0.0001725
3358	0.00012
3370	0.0001185
3382	0.000147
3394	0.0001275
3406	6.6e-05
3418	0.000108
3430	0.0001725
3442	0.0001845
3454	0.000129
3466	9.75e-05
3478	0.000123
3490	6.6e-05
3502	0.000135
3514	8.1e-05
3526	7.95e-05
3538	6.75e-05
3550	2.4e-05
3562	0.0001665
3574	9.15e-05
3586	8.7e-05
3598	2.85e-05
3610	3.3e-05
3622	1.95e-05
3634	7.2e-05
3646	7.8e-05
3658	4.95e-05
3670	4.35e-05
3682	3.75e-05
3694	4.35e-05
3706	0.0001515
3718	0.000144
3730	8.25e-05
3742	1.5e-06
3754	7.5e-05
3766	7.8e-05
3778	1.95e-05
3790	0.0001365
3802	5.4e-05
3814	0.000108
3826	0.0001125
3838	0.00012
