Infrared Spectrum: Imidan
Formula: C 11 H 12 N O 4 P S 2
CAS: 732-11-6
State: gas
Instrument: HP-GC/MS/IRD
Origin: NIST Mass Spectrometry Data Center
1/CM	ABSORBANCE
550	0.002058
562	0.0002009
574	0.0001127
586	0.0006419
598	0.0014406
610	0.0022883
622	0.001029
634	0.0017836
646	0.0064925
658	0.0176155
670	0.0067277
682	0.0024059
694	0.0019012
706	0.0028812
718	0.0081095
730	0.0055762
742	0.0016758
754	0.0010682
766	0.0013475
778	0.0023324
790	0.0046354
802	0.007399
814	0.0095109
826	0.0091042
838	0.0064778
850	0.0031115
862	0.0014357
874	0.0010486
886	0.000931
898	0.0013573
910	0.0041895
922	0.003871
934	0.001225
946	0.0009702
958	0.0011858
970	0.0015239
982	0.0017346
994	0.0025872
1006	0.0052528
1018	0.0124411
1030	0.0232309
1042	0.0215306
1054	0.0162876
1066	0.0125587
1078	0.0102753
1090	0.0054733
1102	0.0031801
1114	0.0022393
1126	0.0016758
1138	0.0013377
1150	0.0013622
1162	0.0016807
1174	0.0023961
1186	0.0023422
1198	0.0012544
1210	0.0007938
1222	0.0006517
1234	0.0008428
1246	0.0014063
1258	0.0026362
1270	0.0070168
1282	0.0144256
1294	0.0066934
1306	0.0048804
1318	0.002744
1330	0.0023471
1342	0.0032242
1354	0.0074382
1366	0.0201733
1378	0.0237846
1390	0.0081144
1402	0.0045374
1414	0.0069776
1426	0.0059094
1438	0.0027538
1450	0.0023863
1462	0.0024843
1474	0.0022589
1486	0.0011711
1498	0.0009163
1510	0.0008134
1522	0.0008281
1534	0.0007546
1546	0.0007595
1558	0.0007595
1570	0.0008036
1582	0.0008771
1594	0.000833
1606	0.0009849
1618	0.0010878
1630	0.0005929
1642	0.0004361
1654	0.000539
1666	0.000637
1678	0.0007791
1690	0.0010584
1702	0.0017836
1714	0.0032585
1726	0.0085701
1738	0.0424585
1750	0.0252007
1762	0.0048706
1774	0.0039004
1786	0.0064876
1798	0.0035476
1810	0.0012446
1822	0.0008722
1834	0.0008722
1846	0.0007742
1858	0.0005439
1870	0.0005537
1882	0.0006762
1894	0.0005635
1906	0.0003773
1918	0.0002597
1930	0.0003038
1942	0.0003577
1954	0.0002058
1966	0.0002352
1978	0.0002352
1990	0.0001372
2002	0.0001225
2014	8.82e-05
2026	6.37e-05
2038	7.35e-05
2050	8.33e-05
2062	6.86e-05
2074	0.0001029
2086	0.0001029
2098	0.0001029
2110	6.86e-05
2122	9.8e-05
2134	9.8e-05
2146	0.0001029
2158	0.0001225
2170	7.35e-05
2182	6.86e-05
2194	6.86e-05
2206	6.86e-05
2218	7.35e-05
2230	6.86e-05
2242	0.0001225
2254	0.0001029
2266	9.31e-05
2278	6.86e-05
2290	0.0001225
2302	7.35e-05
2314	8.82e-05
2326	8.82e-05
2338	0.0001225
2350	0.0001421
2362	5.39e-05
2374	4.9e-05
2386	6.86e-05
2398	4.41e-05
2410	3.43e-05
2422	7.35e-05
2434	0.0001274
2446	0.000147
2458	0.0001029
2470	5.88e-05
2482	0
2494	3.92e-05
2506	6.86e-05
2518	4.9e-05
2530	5.88e-05
2542	4.9e-05
2554	7.35e-05
2566	4.41e-05
2578	3.43e-05
2590	5.39e-05
2602	4.9e-05
2614	8.33e-05
2626	8.33e-05
2638	0.0001568
2650	0.0001274
2662	0.000147
2674	0.0001519
2686	0.000147
2698	0.0001862
2710	6.37e-05
2722	4.41e-05
2734	7.84e-05
2746	7.35e-05
2758	8.33e-05
2770	0.0001617
2782	0.0001862
2794	0.0002646
2806	0.0002548
2818	0.0003136
2830	0.0004557
2842	0.0008183
2854	0.0014896
2866	0.0007693
2878	0.0005194
2890	0.0005684
2902	0.0006713
2914	0.0008281
2926	0.0009996
2938	0.001617
2950	0.0038563
2962	0.0040866
2974	0.0016268
2986	0.0012103
2998	0.0013279
3010	0.0012593
3022	0.0012054
3034	0.0009702
3046	0.0008722
3058	0.0010143
3070	0.001029
3082	0.0013524
3094	0.0011564
3106	0.0005341
3118	0.000294
3130	0.0002107
3142	0.0001617
3154	0.0002352
3166	0.0001911
3178	0.0001323
3190	0.0001568
3202	0.0002009
3214	0.0001568
3226	0.0001372
3238	0.0001323
3250	8.33e-05
3262	0.0001029
3274	0.0001421
3286	8.82e-05
3298	9.8e-05
3310	0.0001617
3322	6.37e-05
3334	0.0001176
3346	6.86e-05
3358	8.82e-05
3370	5.39e-05
3382	0.0001176
3394	0.0001274
3406	6.86e-05
3418	6.37e-05
3430	0.0001274
3442	6.86e-05
3454	4.9e-05
3466	0.0001519
3478	0.0002744
3490	0.0003479
3502	0.0003381
3514	0.0005243
3526	0.0003675
3538	0.0001029
3550	0.0001666
3562	0.0001029
3574	0.0001176
3586	0.0001862
3598	0.0001519
3610	0.0002009
3622	0.0002009
3634	0.0001519
3646	0.0001029
3658	0.0002205
3670	0.0001323
3682	0.0001372
3694	0.0001519
3706	0.0001764
3718	0.0002842
3730	0.0002793
3742	0.0002401
3754	0.0001666
3766	0.0002156
3778	0.0002156
3790	0.0002009
3802	0.0001274
3814	0.0002205
3826	0.0002058
3838	0.0001764
