Infrared Spectrum: 2,4,6-Tri-tert-butylphenol
Formula: C 18 H 30 O
CAS: 732-26-3
State: gas
Instrument: HP-GC/MS/IRD
Origin: NIST Mass Spectrometry Data Center
1/CM	ABSORBANCE
550	0.0006726
562	0.0003933
574	0.0002622
586	0.0002508
598	0.0002166
610	0.0002508
622	0.0004674
634	0.0007524
646	0.0009576
658	0.0004389
670	2.85e-05
682	0.0001254
694	0.0002907
706	0.0006327
718	0.0017499
730	0.0005073
742	0.0003021
754	0.0006612
766	0.0013737
778	0.0003705
790	0.0003876
802	0.0017898
814	0.0015618
826	0.0007068
838	0.0001995
850	0.0001539
862	0.0005187
874	0.0026562
886	0.0024339
898	0.0008379
910	0.0007068
922	0.0009348
934	0.0008436
946	0.0003477
958	0.0002223
970	0.0001653
982	0.0002109
994	0.0002679
1006	0.0003648
1018	0.0005985
1030	0.0005187
1042	0.0003363
1054	0.0002508
1066	0.0003192
1078	0.0004161
1090	0.0005928
1102	0.001197
1114	0.0037962
1126	0.003534
1138	0.0031293
1150	0.0049419
1162	0.0073416
1174	0.0053124
1186	0.0051813
1198	0.0060876
1210	0.0065892
1222	0.0102201
1234	0.0157263
1246	0.0100662
1258	0.0050844
1270	0.0036366
1282	0.0026961
1294	0.0029697
1306	0.0029412
1318	0.0031692
1330	0.0018012
1342	0.0017271
1354	0.0036252
1366	0.0089034
1378	0.0056088
1390	0.0061218
1402	0.0066177
1414	0.004617
1426	0.0075069
1438	0.0142215
1450	0.0104937
1462	0.0084303
1474	0.0087837
1486	0.0067203
1498	0.0023142
1510	0.0011001
1522	0.000741
1534	0.000513
1546	0.0003933
1558	0.000342
1570	0.0003648
1582	0.0005301
1594	0.0008778
1606	0.0006042
1618	0.0002508
1630	0.0002052
1642	0.0002109
1654	0.0001824
1666	0.0001311
1678	0.0001254
1690	0.0001083
1702	0.0001197
1714	0.0001425
1726	0.0001596
1738	0.0002394
1750	0.0004503
1762	0.0005985
1774	0.0004104
1786	0.0001881
1798	0.0001425
1810	0.0001083
1822	9.12e-05
1834	9.12e-05
1846	6.27e-05
1858	6.27e-05
1870	3.99e-05
1882	1.71e-05
1894	6.27e-05
1906	7.98e-05
1918	7.98e-05
1930	9.69e-05
1942	0.0001026
1954	8.55e-05
1966	6.84e-05
1978	5.7e-05
1990	5.7e-05
2002	7.98e-05
2014	5.7e-05
2026	5.13e-05
2038	5.7e-05
2050	5.13e-05
2062	4.56e-05
2074	2.28e-05
2086	3.42e-05
2098	2.28e-05
2110	2.85e-05
2122	5.13e-05
2134	2.85e-05
2146	3.99e-05
2158	3.99e-05
2170	3.99e-05
2182	6.27e-05
2194	2.85e-05
2206	1.14e-05
2218	1.14e-05
2230	0
2242	1.14e-05
2254	4.56e-05
2266	3.99e-05
2278	7.98e-05
2290	9.12e-05
2302	8.55e-05
2314	5.13e-05
2326	2.85e-05
2338	2.28e-05
2350	5.7e-05
2362	4.56e-05
2374	9.69e-05
2386	0.0001653
2398	0.0001368
2410	9.12e-05
2422	7.98e-05
2434	3.99e-05
2446	2.85e-05
2458	5.13e-05
2470	3.42e-05
2482	7.98e-05
2494	3.42e-05
2506	1.71e-05
2518	2.28e-05
2530	2.85e-05
2542	6.84e-05
2554	0.000114
2566	0.0001254
2578	6.27e-05
2590	7.41e-05
2602	6.84e-05
2614	5.7e-05
2626	9.69e-05
2638	0.0001254
2650	0.0001368
2662	0.0001938
2674	0.0001995
2686	0.0001881
2698	0.0002337
2710	0.000342
2722	0.0005073
2734	0.0004617
2746	0.0004959
2758	0.0004902
2770	0.0004617
2782	0.0006441
2794	0.0007239
2806	0.0008835
2818	0.0012084
2830	0.0015618
2842	0.002223
2854	0.0039615
2866	0.0086355
2878	0.014535
2890	0.0146319
2902	0.0151392
2914	0.0189924
2926	0.0191463
2938	0.0202407
2950	0.0316179
2962	0.054093
2974	0.0443688
2986	0.0150879
2998	0.0071193
3010	0.0047823
3022	0.0023598
3034	0.0015276
3046	0.0011115
3058	0.0009462
3070	0.0009234
3082	0.0009975
3094	0.001311
3106	0.0012996
3118	0.0008949
3130	0.0005814
3142	0.000456
3154	0.0004389
3166	0.0004389
3178	0.0004503
3190	0.0004674
3202	0.0003876
3214	0.0003135
3226	0.000285
3238	0.0002451
3250	0.0002109
3262	0.0001824
3274	0.0001539
3286	0.0001881
3298	0.0001881
3310	0.0001368
3322	0.0001368
3334	9.12e-05
3346	5.7e-05
3358	4.56e-05
3370	0.0001026
3382	8.55e-05
3394	0.0001254
3406	0.0001083
3418	0.000114
3430	0.0001197
3442	0.0001368
3454	9.12e-05
3466	5.13e-05
3478	2.85e-05
3490	3.42e-05
3502	1.14e-05
3514	2.85e-05
3526	4.56e-05
3538	3.42e-05
3550	1.71e-05
3562	0.0001083
3574	9.69e-05
3586	0.0001539
3598	0.000228
3610	0.0003876
3622	0.0006498
3634	0.0012597
3646	0.0031521
3658	0.0087552
3670	0.0115881
3682	0.0056202
3694	0.0022515
3706	0.0010089
3718	0.0005244
3730	0.0003192
3742	0.0001938
3754	0.000114
3766	0.0001368
3778	7.41e-05
3790	0.0001368
3802	0.0001482
3814	0.0001653
3826	0.0001539
3838	0.000114
