Infrared Spectrum: MALONONITRILE, DIMETHYL-
Formula: C5 H6 N2
CAS: 7321-55-3
State: LIQUID (MELT)
Melting point: 33 C
Class: COBLENTZ III
Instrument: DOW KBr FOREPRISM-GRATING
Instrument parameters: BLAZED AT 3.5, 12.0, 20.0 MICRON AND CHANGED AT 5.0, 7.5, 14.9 MICRON
Sampling: TRANSMISSION
Path length: CAPILLARY
Resolution: 2
Origin: DOW CHEMICAL COMPANY
1/CM	TRANSMITTANCE
384	0.7668
393	0.7825
402	0.7988
411	0.8124
420	0.8242
429	0.8362
438	0.845
447	0.8483
456	0.8375
465	0.7143
474	0.8432
483	0.88
492	0.8902
501	0.8952
510	0.898
519	0.9007
528	0.9038
537	0.9118
546	0.9187
555	0.9194
564	0.9121
573	0.8978
582	0.9205
591	0.9431
600	0.9494
609	0.9549
618	0.9613
627	0.9647
636	0.9684
645	0.9564
654	0.9036
663	0.7491
672	0.9592
681	0.9785
690	0.9812
699	0.9759
708	0.9803
717	0.9905
726	1.0011
735	1.0092
744	1.0075
753	1.0025
762	0.9967
771	0.9888
780	0.9804
789	0.9845
798	0.9928
807	0.9853
816	0.9895
825	1.0068
834	1.0183
843	1.0142
852	1.0093
861	1.0039
870	0.9971
879	0.974
888	0.9984
897	0.9994
906	0.9975
915	0.9943
924	0.9895
933	0.9824
942	0.9565
951	0.8366
960	0.9818
969	0.9881
978	0.9853
987	0.9821
996	0.9771
1005	0.9716
1014	0.9643
1023	0.96
1032	0.9614
1041	0.9378
1050	0.9083
1059	0.9087
1068	0.9259
1077	0.9598
1086	0.9589
1095	0.924
1104	0.95
1113	0.9497
1122	0.902
1131	0.8662
1140	0.8799
1149	0.9048
1158	0.9198
1167	0.9095
1176	0.843
1185	0.7901
1194	0.5672
1203	0.506
1212	0.6066
1221	0.3044
1230	0.2593
1239	0.7724
1248	0.8699
1257	0.8982
1266	0.9182
1275	0.9285
1284	0.9366
1293	0.9363
1302	0.9314
1311	0.9291
1320	0.9425
1329	0.958
1338	0.9567
1347	0.9491
1356	0.9349
1365	0.906
1374	0.6918
1383	0.8537
1392	0.8568
1401	0.6847
1410	0.8823
1419	0.8761
1428	0.866
1437	0.7864
1446	0.581
1455	0.5049
1464	0.4345
1473	0.5081
1482	0.6156
1491	0.856
1500	0.9011
1509	0.9267
1518	0.9367
1527	0.9445
1536	0.9478
1545	0.9515
1554	0.9565
1563	0.9587
1572	0.9613
1581	0.9616
1590	0.9602
1599	0.9545
1608	0.9491
1617	0.9423
1626	0.9355
1635	0.9416
1644	0.95
1653	0.9505
1662	0.9464
1671	0.9405
1680	0.9338
1689	0.9253
1698	0.9152
1707	0.8912
1716	0.8786
1725	0.9218
1734	0.9382
1743	0.9401
1752	0.9435
1761	0.9506
1770	0.955
1779	0.9575
1788	0.9599
1797	0.9628
1806	0.9634
1815	0.9662
1824	0.9671
1833	0.9668
1842	0.9644
1851	0.9624
1860	0.9606
1869	0.9625
1878	0.9575
1887	0.9578
1896	0.9586
1905	0.9632
1914	0.9658
1923	0.9657
1932	0.9657
1941	0.9666
1950	0.9712
1959	0.9718
1968	0.9628
1977	0.9634
1986	0.969
1995	0.9802
2004	0.9813
2013	0.981
2022	0.9795
2031	0.977
2040	0.9744
2049	0.9715
2058	0.9705
2067	0.9718
2076	0.9746
2085	0.976
2094	0.9767
2103	0.9771
2112	0.9768
2121	0.9758
2130	0.9746
2139	0.9749
2148	0.9788
2157	0.9798
2166	0.9798
2175	0.9795
2184	0.9785
2193	0.9775
2202	0.9765
2211	0.974
2220	0.97
2229	0.964
2238	0.9477
2247	0.8756
2256	0.6951
2265	0.9294
2274	0.9666
2283	0.9743
2292	0.9786
2301	0.9654
2310	0.987
2319	0.9578
2328	0.9718
2337	0.975
2346	0.9787
2355	0.9834
2364	0.9866
2373	0.9854
2382	0.9771
2391	0.967
2400	0.9587
2409	0.9541
2418	0.9583
2427	0.9624
2436	0.9618
2445	0.9641
2454	0.971
2463	0.9733
2472	0.973
2481	0.9721
2490	0.9707
2499	0.9685
2508	0.9656
2517	0.964
2526	0.9646
2535	0.9714
2544	0.9737
2553	0.9721
2562	0.9686
2571	0.964
2580	0.9595
2589	0.9571
2598	0.9656
2607	0.9682
2616	0.9692
2625	0.97
2634	0.9705
2643	0.9696
2652	0.968
2661	0.9674
2670	0.968
2679	0.9698
2688	0.9682
2697	0.965
2706	0.9614
2715	0.9623
2724	0.9637
2733	0.9606
2742	0.9566
2751	0.9544
2760	0.9575
2769	0.9607
2778	0.961
2787	0.9578
2796	0.9521
2805	0.9458
2814	0.9382
2823	0.9314
2832	0.9328
2841	0.9365
2850	0.9337
2859	0.9167
2868	0.8864
2877	0.8663
2886	0.8813
2895	0.8877
2904	0.8816
2913	0.8781
2922	0.8721
2931	0.861
2940	0.8215
2949	0.7839
2958	0.867
2967	0.8709
2976	0.8599
2985	0.8318
2994	0.7606
3003	0.6411
3012	0.7717
3021	0.8954
3030	0.9163
3039	0.9223
3048	0.9262
3057	0.9295
3066	0.9318
3075	0.9334
3084	0.9344
3093	0.9356
3102	0.935
3111	0.9328
3120	0.9303
3129	0.9311
3138	0.9384
3147	0.9435
3156	0.9436
3165	0.9421
3174	0.9389
3183	0.933
3192	0.9243
3201	0.9266
3210	0.9332
3219	0.9339
3228	0.9344
3237	0.9347
3246	0.9354
3255	0.9362
3264	0.9371
3273	0.938
3282	0.939
3291	0.9393
3300	0.9397
3309	0.9398
3318	0.9398
3327	0.9392
3336	0.938
3345	0.9367
3354	0.9355
3363	0.9351
3372	0.9353
3381	0.936
3390	0.9364
3399	0.9365
3408	0.9365
3417	0.9364
3426	0.9363
3435	0.9349
3444	0.9333
3453	0.9378
3462	0.939
3471	0.9396
3480	0.9401
3489	0.9407
3498	0.9412
3507	0.9415
3516	0.9418
3525	0.9418
3534	0.9417
3543	0.9415
3552	0.9415
3561	0.9415
3570	0.9418
3579	0.943
3588	0.9446
3597	0.9466
3606	0.9475
3615	0.9464
3624	0.9448
3633	0.9414
3642	0.9381
3651	0.9368
3660	0.9397
3669	0.9437
3678	0.9495
3687	0.9543
3696	0.9533
3705	0.9651
3714	0.9655
3723	0.9664
3732	0.9671
3741	0.9678
3750	0.9687
3759	0.9688
3768	0.969
3777	0.9698
3786	0.9709
3795	0.972
