Infrared Spectrum: 1,4-Di-t-Butyl-2,5-dimethoxybenzene
Formula: C 16 H 26 O 2
CAS: 7323-63-9
State: gas
Origin: EPA-IR VAPOR PHASE LIBRARY
1/CM	ABSORBANCE
551.7	0.001484
563.274	0.00095
574.848	0.00067
586.421	0.00092
597.995	0.0023272
609.569	0.00378
621.143	0.00202246
632.717	0.001295
644.291	0.00084
655.864	0.00078
667.438	0.00097
679.012	0.001264
690.586	0.001359
702.16	0.0019563
713.734	0.002872
725.307	0.00308
736.881	0.00488
748.455	0.01127
760.029	0.02861
771.603	0.0224
783.177	0.00716
794.75	0.00392
806.324	0.0025416
817.898	0.002655
829.472	0.00597
841.046	0.02251
852.619	0.02319
864.193	0.01961
875.767	0.01666
887.341	0.00606
898.915	0.00346
910.489	0.00313
922.062	0.00399
933.636	0.00399
945.21	0.0031
956.784	0.00318
968.358	0.00385
979.932	0.00518
991.505	0.00721
1003.08	0.0119
1014.65	0.02518
1026.23	0.04517
1037.8	0.08973
1049.37	0.07291
1060.95	0.02652
1072.52	0.0147
1084.1	0.01182
1095.67	0.00925
1107.24	0.01464
1118.82	0.04541
1130.39	0.04411
1141.97	0.02108
1153.54	0.01607
1165.11	0.01801
1176.69	0.0325
1188.26	0.07382
1199.83	0.16954
1211.41	0.19894
1222.98	0.08857
1234.56	0.06496
1246.13	0.06381
1257.7	0.03535
1269.28	0.01838
1280.85	0.01086
1292.42	0.00799
1304	0.00719
1315.57	0.00762
1327.15	0.00947
1338.72	0.01471
1350.29	0.0328
1361.87	0.09783
1373.44	0.13448
1385.02	0.06229
1396.59	0.04545
1408.16	0.02398
1419.74	0.01618
1431.31	0.01795
1442.88	0.02996
1454.46	0.05609
1466.03	0.07002
1477.61	0.0693
1489.18	0.08273
1500.75	0.12203
1512.33	0.06984
1523.9	0.02336
1535.48	0.01252
1547.05	0.00883
1558.62	0.00781
1570.2	0.00719
1581.77	0.00588
1593.34	0.00478
1604.92	0.00426
1616.49	0.00363
1628.07	0.00314
1639.64	0.00322
1651.21	0.0029106
1662.79	0.0028474
1674.36	0.0028823
1685.93	0.0029487
1697.51	0.00322
1709.08	0.00343
1720.66	0.00332
1732.23	0.0028004
1743.8	0.0021055
1755.38	0.001572
1766.95	0.001431
1778.53	0.001274
1790.1	0.001258
1801.67	0.001287
1813.25	0.001473
1824.82	0.00159
1836.39	0.001497
1847.97	0.001249
1859.54	0.001011
1871.12	0.00097
1882.69	0.001124
1894.26	0.001334
1905.84	0.001579
1917.41	0.001457
1928.99	0.001175
1940.56	0.001078
1952.13	0.001089
1963.71	0.00131
1975.28	0.001871
1986.85	0.0027636
1998.43	0.00336
2010	0.0027655
2021.58	0.0021591
2033.15	0.0019557
2044.72	0.0021019
2056.3	0.0020741
2067.87	0.0022492
2079.44	0.002639
2091.02	0.0027274
2102.59	0.0024016
2114.17	0.001844
2125.74	0.001389
2137.31	0.001154
2148.89	0.00122
2160.46	0.001595
2172.04	0.001885
2183.61	0.001458
2195.18	0.00113
2206.76	0.001175
2218.33	0.00097
2229.9	0.0007
2241.48	0.00063
2253.05	0.0005
2264.63	0.00056
2276.2	0.00071
2287.77	0.00082
2299.35	0.00081
2310.92	0.00077
2322.5	0.00093
2334.07	0.00091
2345.64	0.00069
2357.22	0.00063
2368.79	0.00082
2380.36	0.001102
2391.94	0.001178
2403.51	0.001125
2415.09	0.001283
2426.66	0.001473
2438.23	0.001527
2449.81	0.001297
2461.38	0.001221
2472.96	0.001345
2484.53	0.001535
2496.1	0.001331
2507.68	0.001158
2519.25	0.0009
2530.82	0.0009
2542.4	0.001061
2553.97	0.001275
2565.55	0.0014
2577.12	0.001327
2588.69	0.001567
2600.27	0.001635
2611.84	0.001518
2623.41	0.001573
2634.99	0.00184
2646.56	0.00201373
2658.14	0.0020479
2669.71	0.001849
2681.28	0.001742
2692.86	0.0019029
2704.43	0.0024584
2716.01	0.00363
2727.58	0.00334
2739.15	0.00315
2750.73	0.00369
2762.3	0.00395
2773.87	0.00482
2785.45	0.00667
2797.02	0.00859
2808.6	0.01275
2820.17	0.0182
2831.74	0.03084
2843.32	0.04721
2854.89	0.04258
2866.47	0.0552
2878.04	0.07629
2889.61	0.07592
2901.19	0.08302
2912.76	0.11085
2924.33	0.12755
2935.91	0.13423
2947.48	0.1609
2959.06	0.21747
2970.63	0.20376
2982.2	0.0851
2993.78	0.08143
3005.35	0.06446
3016.92	0.02656
3028.5	0.01478
3040.07	0.01181
3051.65	0.01063
3063.22	0.00955
3074.79	0.00896
3086.37	0.00767
3097.94	0.00638
3109.52	0.00606
3121.09	0.00619
3132.66	0.00601
3144.24	0.0048
3155.81	0.00395
3167.38	0.00336
3178.96	0.00308
3190.53	0.0027695
3202.11	0.0025116
3213.68	0.0021162
3225.25	0.0018
3236.83	0.001747
3248.4	0.001548
3259.98	0.001559
3271.55	0.001489
3283.12	0.001402
3294.7	0.001368
3306.27	0.001173
3317.84	0.00091
3329.42	0.0007
3340.99	0.00069
3352.57	0.0007
3364.14	0.00072
3375.71	0.00073
3387.29	0.0006
3398.86	0.00062
3410.43	0.0007
3422.01	0.0005
3433.58	0.00056
3445.16	0.00038
3456.73	0.00031
3468.3	0.00033
3479.88	0.00026
3491.45	0.00033
3503.03	0.00023
3514.6	0.00033
3526.17	0.00022
3537.75	6e-05
3549.32	0.00018
3560.89	0.00011
3572.47	0.00011
3584.04	6e-05
3595.62	0.00018
3607.19	0.0001
3618.76	0.00011
3630.34	0.00014
3641.91	0.0001
3653.49	0.00013
3665.06	0.00013
3676.63	4e-05
3688.21	8e-05
3699.78	0.00012
3711.35	8e-05
3722.93	7e-05
3734.5	9e-05
3746.08	0.00024
3757.65	0.00021
3769.22	0.00021
3780.8	0.00038
3792.37	0.00033
3803.94	0.00043
3815.52	0.00033
3827.09	0.00043
3838.67	0.00042
3850.24	0.00035
3861.81	0.0004
3873.39	0.0006
3884.96	0.00088
3896.54	0.00092
3908.11	0.0007
3919.68	0.00069
3931.26	0.00069
3942.83	0.00072
3954.4	0.0007
3965.98	0.00081
3977.55	0.00074
3989.13	0.00081
4000.7	0.00079
