Infrared Spectrum: p-Phenylenediacetic acid
Formula: C10 H10 O4
CAS: 7325-46-4
State: gas
Origin: EPA-IR VAPOR PHASE LIBRARY
1/CM	ABSORBANCE
549.8	0.0017091
559.445	0.0014078
569.09	0.0017703
578.734	0.002229
588.379	0.002519
598.024	0.003289
607.669	0.003679
617.313	0.003429
626.958	0.003319
636.603	0.003199
646.248	0.002889
655.893	0.002879
665.537	0.002799
675.182	0.002859
684.827	0.002389
694.472	0.0019233
704.116	0.0015235
713.761	0.0013939
723.406	0.0012089
733.051	0.0011543
742.695	0.0009155
752.34	0.0011552
761.985	0.001182
771.63	0.0010913
781.275	0.0013763
790.919	0.0014917
800.564	0.0011994
810.209	0.0008961
819.854	0.000789
829.498	0.0008788
839.143	0.000842
848.788	0.000754
858.433	0.0008939
868.078	0.0011551
877.722	0.0011551
887.367	0.0011476
897.012	0.00099145
906.657	0.00099141
916.301	0.000787
925.946	0.000699
935.591	0.00100956
945.236	0.00096867
954.88	0.0011292
964.525	0.000738
974.17	0.0010914
983.815	0.00102268
993.46	0.000676
1003.1	0.0011906
1012.75	0.00096078
1022.39	0.0014785
1032.04	0.0009376
1041.68	0.000807
1051.33	0.0009084
1060.97	0.00103924
1070.62	0.0014612
1080.26	0.002829
1089.91	0.004389
1099.55	0.006779
1109.2	0.010679
1118.84	0.010169
1128.49	0.006759
1138.13	0.004939
1147.78	0.003159
1157.42	0.002659
1167.07	0.002489
1176.71	0.002419
1186.36	0.002759
1196	0.002499
1205.64	0.003159
1215.29	0.002959
1224.93	0.002209
1234.58	0.001999
1244.22	0.001578
1253.87	0.0018142
1263.51	0.0012212
1273.16	0.00098184
1282.8	0.001301
1292.45	0.0013631
1302.09	0.0016495
1311.74	0.001616
1321.38	0.0017676
1331.03	0.001999
1340.67	0.002379
1350.32	0.002869
1359.96	0.003079
1369.61	0.002869
1379.25	0.002269
1388.9	0.001767
1398.54	0.001475
1408.18	0.0014591
1417.83	0.0015109
1427.47	0.0016967
1437.12	0.0016822
1446.76	0.0014575
1456.41	0.001325
1466.05	0.0012677
1475.7	0.0012045
1485.34	0.0011295
1494.99	0.0012665
1504.63	0.0017492
1514.28	0.002689
1523.92	0.0018951
1533.57	0.0013094
1543.21	0.0011617
1552.86	0.0011435
1562.5	0.0011968
1572.15	0.0013098
1581.79	0.0013087
1591.44	0.000975885
1601.08	0.000387
1610.73	9e-06
1620.37	0.000245
1630.01	0.000581
1639.66	0.0008988
1649.3	0.00095969
1658.95	0.0010702
1668.59	0.00102927
1678.24	0.00102501
1687.88	0.0011467
1697.53	0.0014255
1707.17	0.0016119
1716.82	0.0018276
1726.46	0.002179
1736.11	0.002709
1745.75	0.004369
1755.4	0.006989
1765.04	0.009589
1774.69	0.012579
1784.33	0.012769
1793.98	0.009699
1803.62	0.006499
1813.27	0.003819
1822.91	0.002389
1832.55	0.0017461
1842.2	0.001464
1851.84	0.0012461
1861.49	0.001144
1871.13	0.0011413
1880.78	0.0011448
1890.42	0.0011471
1900.07	0.0011854
1909.71	0.0011239
1919.36	0.0011225
1929	0.00101097
1938.65	0.00103666
1948.29	0.0011022
1957.94	0.00103476
1967.58	0.00103064
1977.23	0.0011355
1986.87	0.00106233
1996.52	0.00102493
2006.16	0.00104822
2015.81	0.00104684
2025.45	0.0009962
2035.1	0.00102019
2044.74	0.00098003
2054.38	0.000974783
2064.03	0.00098834
2073.67	0.00103429
2083.32	0.00102158
2092.96	0.00100687
2102.61	0.00101507
2112.25	0.0010516
2121.9	0.0010953
2131.54	0.0010136
2141.19	0.0010918
2150.83	0.00102131
2160.48	0.00098341
2170.12	0.00099665
2179.77	0.00106051
2189.41	0.00105826
2199.06	0.00103088
2208.7	0.0011165
2218.35	0.0010959
2227.99	0.00096657
2237.64	0.00099067
2247.28	0.00104452
2256.92	0.00102521
2266.57	0.0011089
2276.21	0.0011144
2285.86	0.0010175
2295.5	0.00103594
2305.15	0.0011218
2314.79	0.0010371
2324.44	0.0009295
2334.08	0.00099186
2343.73	0.0010748
2353.37	0.0009298
2363.02	0.00099865
2372.66	0.0010831
2382.31	0.00104508
2391.95	0.0010779
2401.6	0.0010756
2411.24	0.00101692
2420.89	0.0011386
2430.53	0.00102959
2440.18	0.0011104
2449.82	0.00101693
2459.47	0.00097915
2469.11	0.00100271
2478.75	0.0010812
2488.4	0.0011303
2498.04	0.00102917
2507.69	0.0011083
2517.33	0.0010863
2526.98	0.0010939
2536.62	0.00099591
2546.27	0.00106879
2555.91	0.0012193
2565.56	0.00104075
2575.2	0.0011558
2584.85	0.0011196
2594.49	0.00106111
2604.14	0.00101018
2613.78	0.0011917
2623.43	0.00105548
2633.07	0.00102349
2642.72	0.001086
2652.36	0.0010839
2662.01	0.0010908
2671.65	0.0010367
2681.29	0.00105366
2690.94	0.0010837
2700.58	0.00105357
2710.23	0.0010495
2719.87	0.00100937
2729.52	0.0010976
2739.16	0.0011854
2748.81	0.00101382
2758.45	0.0010719
2768.1	0.00105039
2777.74	0.0010506
2787.39	0.00102811
2797.03	0.0010734
2806.68	0.00106887
2816.32	0.00099557
2825.97	0.00101007
2835.61	0.0011309
2845.26	0.0011704
2854.9	0.0012063
2864.55	0.001074
2874.19	0.0012394
2883.84	0.0011979
2893.48	0.0012244
2903.12	0.0011909
2912.77	0.0014038
2922.41	0.0013439
2932.06	0.0015037
2941.7	0.0014597
2951.35	0.0015916
2960.99	0.0014181
2970.64	0.0013781
2980.28	0.0013184
2989.93	0.0014546
2999.57	0.0013584
3009.22	0.001457
3018.86	0.0015246
3028.51	0.0017535
3038.15	0.0018089
3047.8	0.0012993
3057.44	0.001325
3067.09	0.001588
3076.73	0.0012368
3086.38	0.0012469
3096.02	0.0012489
3105.67	0.0011699
3115.31	0.00106063
3124.95	0.0010838
3134.6	0.001132
3144.24	0.0011546
3153.89	0.00105901
3163.53	0.0012042
3173.18	0.00098659
3182.82	0.00104237
3192.47	0.0009362
3202.11	0.0010905
3211.76	0.0011295
3221.4	0.00101694
3231.05	0.00096711
3240.69	0.000863
3250.34	0.0010889
3259.98	0.00097988
3269.63	0.0010763
3279.27	0.00105555
3288.92	0.0010876
3298.56	0.0009468
3308.21	0.0011399
3317.85	0.00096716
3327.49	0.0009349
3337.14	0.00103627
3346.78	0.001133
3356.43	0.0008728
3366.07	0.00100223
3375.72	0.000838
3385.36	0.00098584
3395.01	0.000828
3404.65	0.0008779
3414.3	0.0009161
3423.94	0.0009477
3433.59	0.0008898
3443.23	0.00101916
3452.88	0.0008834
3462.52	0.0009026
3472.17	0.00103763
3481.81	0.0011948
3491.46	0.001151
3501.1	0.0011488
3510.75	0.0009185
3520.39	0.0011582
3530.04	0.001096
3539.68	0.0012899
3549.32	0.0014506
3558.97	0.002299
3568.61	0.005089
3578.26	0.006069
3587.9	0.002429
3597.55	0.0016331
3607.19	0.0011712
3616.84	0.0013519
3626.48	0.00103531
3636.13	0.00102126
3645.77	0.000972225
3655.42	0.0009084
3665.06	0.000975052
3674.71	0.0010967
3684.35	0.000785
3694	0.0008832
3703.64	0.000718
3713.29	0.000812
3722.93	0.0009261
3732.58	0.000837
3742.22	0.000607
3751.86	0.000952
3761.51	0.000796
3771.15	0.0008781
3780.8	0.000777
3790.44	0.000801
3800.09	0.0008942
3809.73	0.0008985
3819.38	0.0008886
3829.02	0.0010067
3838.67	0.0009535
3848.31	0.0011951
3857.96	0.0009392
3867.6	0.000777
3877.25	0.0008816
3886.89	0.000807
3896.54	0.000972467
3906.18	0.00105978
3915.83	0.000683
3925.47	0.000842
3935.12	0.000853
3944.76	0.000626
3954.41	0.000977613
3964.05	0.00096449
3973.69	0.0011319
3983.34	0.000864
3992.98	0.00097946
