Infrared Spectrum: 2,6-DIALLYL-4-CHLOROPHENOL
Formula: C12 H13 Cl O
CAS: 73267-76-2
State: SOLUTION (10% CCl4 FOR 5000-1330, 10% CS2 FOR 1330-625 CM^-^1)
Class: COBLENTZ
Instrument: Not specified, most likely a prism, grating, or hybrid spectrometer.
Sampling: TRANSMISSION
Path length: 0.0117 CM, 0.0115 CM
Resolution: 4
Origin: DOW CHEMICAL COMPANY
MICROMETERS	TRANSMITTANCE
2.055	0.889
2.09603	0.889
2.13707	0.887
2.1781	0.885
2.21914	0.885
2.26017	0.878
2.30121	0.875
2.34224	0.872
2.38328	0.877
2.42431	0.882
2.46535	0.889
2.50638	0.89
2.54742	0.89
2.58845	0.887
2.62949	0.887
2.67052	0.895
2.71156	0.892
2.75259	0.885
2.79363	0.798
2.83466	0.583
2.8757	0.418
2.91673	0.744
2.95777	0.841
2.9988	0.858
3.03984	0.87
3.08087	0.877
3.12191	0.878
3.16294	0.878
3.20398	0.877
3.24501	0.846
3.28605	0.73
3.32708	0.75
3.36812	0.74
3.40915	0.697
3.45018	0.699
3.49122	0.703
3.53225	0.788
3.57329	0.825
3.61432	0.889
3.65536	0.895
3.69639	0.894
3.73743	0.897
3.77846	0.899
3.8195	0.901
3.86053	0.907
3.90157	0.902
3.9426	0.902
3.98364	0.899
4.02467	0.89
4.06571	0.894
4.10674	0.899
4.14778	0.907
4.18881	0.899
4.22985	0.89
4.27088	0.887
4.31192	0.889
4.35295	0.89
4.39399	0.89
4.43502	0.899
4.47606	0.906
4.51709	0.907
4.55813	0.907
4.59916	0.907
4.6402	0.909
4.68123	0.912
4.72227	0.914
4.7633	0.912
4.80433	0.912
4.84537	0.912
4.8864	0.914
4.92744	0.914
4.96847	0.909
5.00951	0.904
5.05054	0.897
5.09158	0.894
5.13261	0.907
5.17365	0.909
5.21468	0.909
5.25572	0.909
5.29675	0.909
5.33779	0.901
5.37882	0.882
5.41986	0.86
5.46089	0.853
5.50193	0.861
5.54296	0.889
5.584	0.892
5.62503	0.895
5.66607	0.889
5.7071	0.887
5.74814	0.878
5.78917	0.872
5.83021	0.863
5.87124	0.861
5.91228	0.887
5.95331	0.889
5.99435	0.887
6.03538	0.882
6.07642	0.824
6.11745	0.597
6.15848	0.631
6.19952	0.793
6.24055	0.738
6.28159	0.675
6.32262	0.612
6.36366	0.605
6.40469	0.587
6.44573	0.539
6.48676	0.489
6.5278	0.525
6.56883	0.602
6.60987	0.638
6.6509	0.675
6.69194	0.709
6.73297	0.694
6.77401	0.564
6.81504	0.288
6.85608	0.042
6.89711	0.36
6.93815	0.455
6.97918	0.334
7.02022	0.3
7.06125	0.477
7.10229	0.605
7.14332	0.675
7.18436	0.805
7.22539	0.822
7.26643	0.807
7.30746	0.82
7.3485	0.851
7.38953	0.846
7.43056	0.813
7.4716	0.771
7.51263	0.575
7.55367	0.431
7.5947	0.477
7.63574	0.602
7.67677	0.648
7.71781	0.631
7.75884	0.609
7.79988	0.59
7.84091	0.595
7.88195	0.602
7.92298	0.51
7.96402	0.354
8.00505	0.308
8.04609	0.505
8.08712	0.578
8.12816	0.457
8.16919	0.322
8.21023	0.44
8.25126	0.462
8.2923	0.341
8.33333	0.191
8.37437	0.131
8.4154	0.129
8.45644	0.184
8.49747	0.264
8.53851	0.395
8.57954	0.554
8.62058	0.662
8.66161	0.723
8.70265	0.759
8.74368	0.781
8.78471	0.796
8.82575	0.805
8.86678	0.81
8.90782	0.812
8.94885	0.812
8.98989	0.802
9.03092	0.778
9.07196	0.764
9.11299	0.759
9.15403	0.757
9.19506	0.745
9.2361	0.735
9.27713	0.735
9.31817	0.754
9.3592	0.766
9.40024	0.769
9.44127	0.774
9.48231	0.796
9.52334	0.808
9.56438	0.81
9.60541	0.796
9.64645	0.776
9.68748	0.779
9.72852	0.798
9.76955	0.81
9.81059	0.813
9.85162	0.812
9.89266	0.79
9.93369	0.74
9.97473	0.668
10.0158	0.47
10.0568	0.276
10.0978	0.29
10.1389	0.409
10.1799	0.484
10.2209	0.549
10.262	0.621
10.303	0.692
10.344	0.73
10.3851	0.747
10.4261	0.755
10.4671	0.767
10.5082	0.767
10.5492	0.764
10.5902	0.744
10.6313	0.684
10.6723	0.595
10.7134	0.455
10.7544	0.392
10.7954	0.308
10.8365	0.206
10.8775	0.158
10.9185	0.143
10.9596	0.139
11.0006	0.148
11.0416	0.264
11.0827	0.406
11.1237	0.5
11.1647	0.517
11.2058	0.53
11.2468	0.547
11.2878	0.534
11.3289	0.51
11.3699	0.52
11.4109	0.564
11.452	0.564
11.493	0.505
11.534	0.404
11.5751	0.305
11.6161	0.191
11.6572	0.192
11.6982	0.37
11.7392	0.534
11.7803	0.61
11.8213	0.672
11.8623	0.715
11.9034	0.744
11.9444	0.759
11.9854	0.761
12.0265	0.745
12.0675	0.73
12.1085	0.747
12.1496	0.781
12.1906	0.8
12.2316	0.805
12.2727	0.807
12.3137	0.807
12.3547	0.807
12.3958	0.807
12.4368	0.807
12.4779	0.807
12.5189	0.807
12.5599	0.798
12.601	0.788
12.642	0.771
12.683	0.754
12.7241	0.737
12.7651	0.718
12.8061	0.699
12.8472	0.686
12.8882	0.67
12.9292	0.667
12.9703	0.665
13.0113	0.674
13.0523	0.686
13.0934	0.689
13.1344	0.686
13.1754	0.679
13.2165	0.674
13.2575	0.67
13.2985	0.667
13.3396	0.66
13.3806	0.645
13.4217	0.626
13.4627	0.61
13.5037	0.602
13.5448	0.598
13.5858	0.59
13.6268	0.564
13.6679	0.539
13.7089	0.537
13.7499	0.568
13.791	0.609
13.832	0.639
13.873	0.653
13.9141	0.663
13.9551	0.665
13.9961	0.667
14.0372	0.663
14.0782	0.655
14.1192	0.648
14.1603	0.636
14.2013	0.622
14.2423	0.609
14.2834	0.585
14.3244	0.558
14.3655	0.529
14.4065	0.503
14.4475	0.481
14.4886	0.467
14.5296	0.455
14.5706	0.452
14.6117	0.448
14.6527	0.44
14.6937	0.435
14.7348	0.426
14.7758	0.419
14.8168	0.412
14.8579	0.406
14.8989	0.399
14.9399	0.389
14.981	0.382
15.022	0.366
15.063	0.354
15.1041	0.343
15.1451	0.339
15.1862	0.337
15.2272	0.332
15.2682	0.332
15.3093	0.334
15.3503	0.339
15.3913	0.346
15.4324	0.348
15.4734	0.351
15.5144	0.353
15.5555	0.354
15.5965	0.356
15.6375	0.356
15.6786	0.358
15.7196	0.358
15.7606	0.358
15.8017	0.358
15.8427	0.356
15.8837	0.354
