Infrared Spectrum: Acetonitrile, nitrilotri-
Formula: C6 H6 N4
CAS: 7327-60-8
State: SOLID (OIL MULL)
Class: COBLENTZ III
Instrument: PERKIN-ELMER 521 (GRATING)
Instrument parameters: FILTERS AT 3150, 2500, 2000, 1150, 700, 410. GRATING CHANGES: 2000, 630
Path length: CsBr PLATES
Resolution: 2
Origin: STANDARD OIL OF OHIO
1/CM	TRANSMITTANCE
246	0.9921
256	0.9904
266	0.9744
276	0.9646
286	0.9595
296	0.9214
306	0.8454
316	0.4812
326	0.9172
336	0.7931
346	0.95
356	0.9518
366	0.9504
376	0.946
386	0.9025
396	0.8681
406	0.9316
416	0.929
426	0.9258
436	0.921
446	0.9179
456	0.9188
466	0.9184
476	0.9162
486	0.9149
496	0.9139
506	0.9147
516	0.9155
526	0.9159
536	0.9102
546	0.8918
556	0.8329
566	0.905
576	0.9086
586	0.8863
596	0.8468
606	0.8952
616	0.9086
626	0.9117
636	0.8919
646	0.8979
656	0.9173
666	0.914
676	0.8935
686	0.8731
696	0.8908
706	0.8242
716	0.6725
726	0.7755
736	0.7905
746	0.834
756	0.8496
766	0.8445
776	0.822
786	0.8001
796	0.8444
806	0.8572
816	0.8522
826	0.8416
836	0.8185
846	0.7598
856	0.533
866	0.2409
876	0.3574
886	0.7326
896	0.7591
906	0.7804
916	0.8083
926	0.8097
936	0.8036
946	0.7972
956	0.7669
966	0.6046
976	0.197
986	0.7555
996	0.8253
1006	0.8341
1016	0.8339
1026	0.833
1036	0.8318
1046	0.8306
1056	0.8293
1066	0.8239
1076	0.8186
1086	0.8115
1096	0.7985
1106	0.7735
1116	0.7502
1126	0.6908
1136	0.4734
1146	0.1586
1156	0.4111
1166	0.7305
1176	0.7525
1186	0.7883
1196	0.7965
1206	0.8016
1216	0.8146
1226	0.8126
1236	0.801
1246	0.7995
1256	0.7935
1266	0.7828
1276	0.7742
1286	0.7628
1296	0.7502
1306	0.7438
1316	0.7205
1326	0.682
1336	0.5794
1346	0.5386
1356	0.4818
1366	0.4762
1376	0.471
1386	0.7309
1396	0.7235
1406	0.2938
1416	0.3557
1426	0.377
1436	0.3965
1446	0.3259
1456	0.262
1466	0.4306
1476	0.6865
1486	0.7829
1496	0.816
1506	0.8342
1516	0.848
1526	0.8591
1536	0.8656
1546	0.8705
1556	0.87
1566	0.867
1576	0.8659
1586	0.8704
1596	0.8726
1606	0.8726
1616	0.8719
1626	0.8703
1636	0.8689
1646	0.8681
1656	0.8695
1666	0.8724
1676	0.8765
1686	0.8817
1696	0.8846
1706	0.8823
1716	0.8802
1726	0.8733
1736	0.8632
1746	0.866
1756	0.8818
1766	0.8828
1776	0.8843
1786	0.8871
1796	0.8828
1806	0.8723
1816	0.8682
1826	0.8663
1836	0.8754
1846	0.8793
1856	0.8907
1866	0.8905
1876	0.8897
1886	0.8884
1896	0.8883
1906	0.8875
1916	0.8861
1926	0.8845
1936	0.8828
1946	0.8771
1956	0.8768
1966	0.8784
1976	0.878
1986	0.8762
1996	0.8734
2006	0.8669
2016	0.8495
2026	0.8588
2036	0.8763
2046	0.8775
2056	0.8784
2066	0.8788
2076	0.8787
2086	0.8785
2096	0.8776
2106	0.8766
2116	0.8751
2126	0.8727
2136	0.8705
2146	0.8688
2156	0.867
2166	0.8652
2176	0.8632
2186	0.8611
2196	0.8574
2206	0.8532
2216	0.8418
2226	0.8223
2236	0.6614
2246	0.7633
2256	0.8499
2266	0.8505
2276	0.8372
2286	0.8329
2296	0.8325
2306	0.835
2316	0.8385
2326	0.8193
2336	0.8189
2346	0.8302
2356	0.8447
2366	0.847
2376	0.842
2386	0.8108
2396	0.7956
2406	0.8122
2416	0.8271
2426	0.8451
2436	0.8494
2446	0.8498
2456	0.8501
2466	0.8468
2476	0.8385
2486	0.8215
2496	0.7853
2506	0.7851
2516	0.8271
2526	0.8307
2536	0.8291
2546	0.8246
2556	0.8197
2566	0.8095
2576	0.7945
2586	0.7874
2596	0.7864
2606	0.7861
2616	0.7853
2626	0.7817
2636	0.7773
2646	0.7724
2656	0.7566
2666	0.747
2676	0.7457
2686	0.741
2696	0.7456
2706	0.7479
2716	0.7415
2726	0.7448
2736	0.7603
2746	0.7668
2756	0.762
2766	0.7502
2776	0.7253
2786	0.6975
2796	0.6643
2806	0.6195
2816	0.5641
2826	0.4558
2836	0.1907
2846	0.0871
2856	0.0732
2866	0.109
2876	0.1468
2886	0.1368
2896	0.0903
2906	0.0581
2916	0.035
2926	0.0261
2936	0.0327
2946	0.0443
2956	0.0599
2966	0.0611
2976	0.2492
2986	0.3467
2996	0.4245
3006	0.4814
3016	0.5407
3026	0.5886
3036	0.6137
3046	0.6362
3056	0.6565
3066	0.6733
3076	0.6875
3086	0.6972
3096	0.6989
3106	0.6979
3116	0.7033
3126	0.7198
3136	0.7266
3146	0.7301
3156	0.7333
3166	0.7414
3176	0.7478
3186	0.7541
3196	0.7577
3206	0.76
3216	0.7611
3226	0.7656
3236	0.7695
3246	0.7696
3256	0.7692
3266	0.7686
3276	0.7681
3286	0.767
3296	0.7659
3306	0.7647
3316	0.7628
3326	0.7607
3336	0.7566
3346	0.7554
3356	0.7556
3366	0.7543
3376	0.7545
3386	0.7555
3396	0.7572
3406	0.7595
3416	0.7622
3426	0.7648
3436	0.7666
3446	0.7676
3456	0.7683
3466	0.7694
3476	0.7714
3486	0.7734
3496	0.775
3506	0.7763
3516	0.7776
3526	0.7789
3536	0.7797
3546	0.7803
3556	0.7808
3566	0.7813
3576	0.7812
3586	0.7812
3596	0.7811
3606	0.7806
3616	0.7794
3626	0.7783
3636	0.7772
3646	0.7761
3656	0.7754
3666	0.7751
3676	0.7748
3686	0.7745
3696	0.7742
3706	0.7739
3716	0.7739
3726	0.7739
3736	0.7738
3746	0.7738
3756	0.7732
3766	0.7718
3776	0.7703
3786	0.7674
3796	0.764
3806	0.7626
3816	0.7611
3826	0.7607
3836	0.7603
3846	0.7598
3856	0.7593
3866	0.758
3876	0.7566
3886	0.7563
3896	0.756
3906	0.7557
