Infrared Spectrum: Dimesitylmethane
Formula: C 19 H 24
CAS: 733-07-3
State: gas
Origin: EPA-IR VAPOR PHASE LIBRARY
1/CM	ABSORBANCE
549.8	0.00288
559.445	0.00136
569.09	0.0014
578.735	0.0010507
588.38	0.00136
598.025	0.0006373
607.67	0.0004612
617.315	0.00024627
626.96	0.00021503
636.605	0.0003558
646.251	0.0006281
655.896	0.0007575
665.541	0.0007363
675.186	0.0011246
684.831	0.00311
694.476	0.0068
704.121	0.00728
713.766	0.0025
723.411	0.00129
733.056	0.00134
742.701	0.00135
752.346	0.0008929
761.991	0.001021
771.636	0.00127
781.281	0.00325
790.926	0.00325
800.571	0.00214
810.216	0.00198
819.861	0.00222
829.507	0.00387
839.152	0.01748
848.797	0.03087
858.442	0.0122
868.087	0.00539
877.732	0.0026
887.377	0.00194
897.022	0.00172
906.667	0.0015
916.312	0.00165
925.957	0.00187
935.602	0.00258
945.247	0.00392
954.892	0.00379
964.537	0.00296
974.182	0.00264
983.827	0.00318
993.472	0.00453
1003.12	0.0073
1012.76	0.01138
1022.41	0.00903
1032.05	0.00749
1041.7	0.0057
1051.34	0.00376
1060.99	0.0027
1070.63	0.00201
1080.28	0.00149
1089.92	0.00131
1099.57	0.00129
1109.21	0.00136
1118.86	0.00144
1128.5	0.00203
1138.15	0.00311
1147.79	0.00441
1157.44	0.00218
1167.08	0.00159
1176.73	0.00152
1186.37	0.00184
1196.02	0.00318
1205.66	0.00839
1215.31	0.00606
1224.95	0.00307
1234.6	0.0027
1244.24	0.00272
1253.89	0.00268
1263.53	0.00248
1273.18	0.00224
1282.82	0.0023
1292.47	0.00236
1302.11	0.00273
1311.76	0.00385
1321.4	0.00454
1331.05	0.00367
1340.69	0.00352
1350.34	0.00374
1359.98	0.0044
1369.63	0.00594
1379.27	0.01191
1388.92	0.01208
1398.56	0.00756
1408.21	0.00814
1417.85	0.0116
1427.5	0.01556
1437.14	0.01967
1446.79	0.0258
1456.43	0.02977
1466.08	0.03329
1475.73	0.04498
1485.37	0.03872
1495.02	0.02096
1504.66	0.01507
1514.31	0.01297
1523.95	0.01197
1533.6	0.01077
1543.24	0.01043
1552.89	0.01143
1562.53	0.01274
1572.18	0.01269
1581.82	0.01045
1591.47	0.00949
1601.11	0.01436
1610.76	0.02178
1620.4	0.00919
1630.05	0.00318
1639.69	0.00205
1649.34	0.00176
1658.98	0.00145
1668.63	0.00119
1678.27	0.00119
1687.92	0.00143
1697.56	0.00165
1707.21	0.00277
1716.85	0.00482
1726.5	0.00358
1736.14	0.00233
1745.79	0.00279
1755.43	0.00221
1765.08	0.0009957
1774.72	0.000715
1784.37	0.0006911
1794.01	0.0005856
1803.66	0.0005654
1813.3	0.0005622
1822.95	0.0005464
1832.59	0.0005437
1842.24	0.0005378
1851.88	0.0005838
1861.53	0.0006676
1871.17	0.0007937
1880.82	0.0009672
1890.46	0.0010903
1900.11	0.0010228
1909.75	0.0009351
1919.4	0.0007448
1929.04	0.0005324
1938.69	0.0005692
1948.33	0.0005797
1957.98	0.0004772
1967.62	0.0004398
1977.27	0.0003492
1986.91	0.0003128
1996.56	0.0002549
2006.2	0.00017421
2015.85	0.0001304
2025.49	0.00019185
2035.14	0.000157556
2044.78	0.00020357
2054.43	0.00024711
2064.07	0.00022414
2073.72	0.00021256
2083.36	0.00014609
2093.01	0.0001309
2102.65	0.0001183
2112.3	0.0001209
2121.94	0.000159696
2131.59	0.00017992
2141.23	0.00023651
2150.88	0.0003029
2160.52	0.0003569
2170.17	0.0003242
2179.81	0.0002853
2189.46	0.00016789
2199.1	0.0001231
2208.75	0.0001077
2218.39	0.0001307
2228.04	9.26e-05
2237.68	0.0001398
2247.33	0.00017595
2256.97	0.0001111
2266.62	0.0001276
2276.26	0.0001029
2285.91	4.8e-05
2295.55	8.01e-05
2305.2	0.0001282
2314.84	7.17e-05
2324.49	0.00020561
2334.13	0.0003384
2343.78	0.0002596
2353.42	0.00020102
2363.07	0.0002816
2372.72	0.0003589
2382.36	0.0004529
2392.01	0.0005753
2401.65	0.0006931
2411.3	0.000717
2420.94	0.0006849
2430.59	0.0006111
2440.23	0.0007047
2449.88	0.0006474
2459.52	0.0006406
2469.17	0.0007015
2478.81	0.0005828
2488.46	0.0005997
2498.1	0.0005923
2507.75	0.0004321
2517.39	0.0003246
2527.04	0.0003385
2536.68	0.000269
2546.33	0.000156003
2555.97	0.0001364
2565.62	0.0001028
2575.26	0.00020954
2584.91	0.000152078
2594.55	0.00018375
2604.2	0.0002564
2613.84	0.0003065
2623.49	0.00023757
2633.13	0.0003174
2642.78	0.0003277
2652.42	0.0003785
2662.07	0.0005565
2671.71	0.000626
2681.36	0.000648
2691	0.0007499
2700.65	0.0008522
2710.29	0.0009999
2719.94	0.0015
2729.58	0.00277
2739.23	0.00531
2748.87	0.00437
2758.52	0.00237
2768.16	0.00203
2777.81	0.00214
2787.45	0.00248
2797.1	0.00316
2806.74	0.0041
2816.39	0.00507
2826.03	0.00666
2835.68	0.00928
2845.32	0.01385
2854.97	0.02222
2864.61	0.03619
2874.26	0.04285
2883.9	0.03514
2893.55	0.03307
2903.19	0.03734
2912.84	0.05126
2922.48	0.07965
2932.13	0.09515
2941.77	0.07987
2951.42	0.06307
2961.06	0.05194
2970.71	0.05355
2980.35	0.05028
2990	0.04571
2999.64	0.04907
3009.29	0.05596
3018.93	0.05244
3028.58	0.03706
3038.22	0.02959
3047.87	0.02206
3057.51	0.0151
3067.16	0.01084
3076.8	0.00853
3086.45	0.00681
3096.09	0.00564
3105.74	0.00431
3115.38	0.00358
3125.03	0.00286
3134.67	0.00216
3144.32	0.00182
3153.96	0.00154
3163.61	0.00117
3173.25	0.0010349
3182.9	0.0008087
3192.54	0.0008963
3202.19	0.0006058
3211.83	0.0006022
3221.48	0.0006173
3231.12	0.0005469
3240.77	0.0004302
3250.41	0.0005019
3260.06	0.0005559
3269.7	0.0005156
3279.35	0.0006315
3289	0.0005224
3298.64	0.0005077
3308.29	0.0003574
3317.93	0.0002835
3327.58	0.0004321
3337.22	0.0004416
3346.87	0.0003008
3356.51	0.0002581
3366.16	0.000311
3375.8	0.00014113
3385.45	0.0003733
3395.09	0.0002948
3404.74	0.0004567
3414.38	0.0003146
3424.03	0.0003083
3433.67	0.0004691
3443.32	0.0003241
3452.96	0.0004914
3462.61	0.0002917
3472.25	0.0002969
3481.9	0.0003606
3491.54	0.0006802
3501.19	0.0003275
3510.83	0.0003226
3520.48	0.0003654
3530.12	0.0003213
3539.77	0.0002962
3549.41	0.00018403
3559.06	0.0002736
3568.7	0.00024244
3578.35	0.00020526
3587.99	0.00024332
3597.64	0.00014412
3607.28	8.23e-05
3616.93	0.0003175
3626.57	0.0003921
3636.22	0.0002503
3645.86	2.9e-05
3655.51	0.000152706
3665.15	0.000157262
3674.8	2.8e-05
3684.44	0.00021929
3694.09	0.00015278
3703.73	0.00024887
3713.38	0.0001307
3723.02	0.00019691
3732.67	0.00016507
3742.31	0.0003752
3751.96	0.0001123
3761.6	0.00015596
3771.25	0.00019759
3780.89	0.0002708
3790.54	0.00024719
3800.18	0.0002662
3809.83	0.000153408
3819.47	0.0003761
3829.12	0.00020394
3838.76	0.0003127
3848.41	0.0003576
3858.05	0.0004701
3867.7	0.0003302
3877.34	0.0003719
3886.99	0.0004299
3896.63	0.0005695
3906.28	0.0004777
3915.92	0.0005698
3925.57	0.0006837
3935.21	0.0006014
3944.86	0.0005257
3954.5	0.0006455
3964.15	0.0006404
3973.79	0.0007058
3983.44	0.0005526
3993.08	0.0005602
