Infrared Spectrum: 10,12-Octadecadiynoic acid
Formula: C 18 H 28 O 2
CAS: 7333-25-7
State: gas
Origin: EPA-IR VAPOR PHASE LIBRARY
1/CM	ABSORBANCE
549.8	0.005562
559.445	0.005472
569.09	0.005752
578.734	0.006082
588.379	0.006552
598.024	0.006712
607.669	0.006402
617.313	0.005772
626.958	0.005542
636.603	0.004652
646.248	0.003602
655.893	0.003332
665.537	0.002542
675.182	0.002592
684.827	0.003022
694.472	0.002522
704.116	0.002602
713.761	0.002542
723.406	0.003242
733.051	0.002992
742.695	0.002982
752.34	0.002132
761.985	0.002102
771.63	0.0015434
781.275	0.0015603
790.919	0.0015032
800.564	0.0011584
810.209	0.0015903
819.854	0.0012084
829.498	0.0012559
839.143	0.000687716
848.788	0.0011521
858.433	0.0014507
868.078	0.001323
877.722	0.0014414
887.367	0.0012527
897.012	0.0014717
906.657	0.0014249
916.301	0.001902
925.946	0.001722
935.591	0.001742
945.236	0.0015517
954.88	0.0013525
964.525	0.0015284
974.17	0.001882
983.815	0.001832
993.46	0.001932
1003.1	0.002032
1012.75	0.002562
1022.39	0.002522
1032.04	0.002702
1041.68	0.003782
1051.33	0.004522
1060.97	0.006172
1070.62	0.007462
1080.26	0.009502
1089.91	0.010272
1099.55	0.011432
1109.2	0.012872
1118.84	0.018022
1128.49	0.015972
1138.13	0.012502
1147.78	0.009412
1157.42	0.009142
1167.07	0.008202
1176.71	0.006672
1186.36	0.006402
1196	0.005172
1205.64	0.003352
1215.29	0.003712
1224.93	0.003402
1234.58	0.003012
1244.22	0.002752
1253.87	0.003712
1263.51	0.004382
1273.16	0.004572
1282.8	0.005422
1292.45	0.005592
1302.09	0.005662
1311.74	0.006312
1321.38	0.007982
1331.03	0.007382
1340.67	0.006362
1350.32	0.006842
1359.96	0.006772
1369.61	0.006652
1379.25	0.006152
1388.9	0.005212
1398.54	0.003832
1408.18	0.003232
1417.83	0.003202
1427.47	0.004802
1437.12	0.006802
1446.76	0.005712
1456.41	0.006782
1466.05	0.006092
1475.7	0.003812
1485.34	0.002292
1494.99	0.0016063
1504.63	0.0014183
1514.28	0.0012272
1523.92	0.0011087
1533.57	0.0012031
1543.21	0.0009576
1552.86	0.0011371
1562.5	0.0008163
1572.15	0.0008497
1581.79	0.0007887
1591.44	0.0013112
1601.08	0.0009989
1610.73	0.0008119
1620.37	0.0012433
1630.01	0.0012345
1639.66	0.0010667
1649.3	0.0010259
1658.95	0.000851
1668.59	0.0010805
1678.24	0.0010852
1687.88	0.0012945
1697.53	0.0014503
1707.17	0.001822
1716.82	0.002452
1726.46	0.004022
1736.11	0.006302
1745.75	0.009742
1755.4	0.014992
1765.04	0.022732
1774.69	0.031382
1784.33	0.026312
1793.98	0.016642
1803.62	0.010132
1813.27	0.005772
1822.91	0.003152
1832.55	0.001992
1842.2	0.0015878
1851.84	0.0015955
1861.49	0.001091
1871.13	0.0010014
1880.78	0.0009306
1890.42	0.0010185
1900.07	0.0008187
1909.71	0.001068
1919.36	0.00073358
1929	0.00073873
1938.65	0.0010244
1948.29	0.0010219
1957.94	0.0008355
1967.58	0.0009433
1977.23	0.0008696
1986.87	0.0010827
1996.52	0.0006232
2006.16	0.0007847
2015.81	0.00078164
2025.45	0.0010336
2035.1	0.0009457
2044.74	0.0008026
2054.38	0.0009621
2064.03	0.0008794
2073.67	0.0009363
2083.32	0.000863
2092.96	0.00076084
2102.61	0.00076426
2112.25	0.0008734
2121.9	0.00075205
2131.54	0.00074493
2141.19	0.0009607
2150.83	0.001157
2160.48	0.0009377
2170.12	0.0009668
2179.77	0.0008473
2189.41	0.0011712
2199.06	0.0009189
2208.7	0.0010391
2218.35	0.0010787
2227.99	0.0010488
2237.64	0.0010782
2247.28	0.0008861
2256.92	0.0010433
2266.57	0.0008263
2276.21	0.0008972
2285.86	0.000948
2295.5	0.0009813
2305.15	0.0009126
2314.79	0.0008671
2324.44	0.0008813
2334.08	0.0009107
2343.73	0.0009683
2353.37	0.0009592
2363.02	0.0010377
2372.66	0.0011753
2382.31	0.0009962
2391.95	0.0011231
2401.6	0.00073379
2411.24	0.0009195
2420.89	0.0010478
2430.53	0.0009882
2440.18	0.0010977
2449.82	0.0007841
2459.47	0.0009352
2469.11	0.0006615
2478.75	0.000557
2488.4	0.000535
2498.04	0.0009021
2507.69	0.0008371
2517.33	0.0009834
2526.98	0.0009132
2536.62	0.0010737
2546.27	0.000942
2555.91	0.0008465
2565.56	0.0008694
2575.2	0.0009373
2584.85	0.00121
2594.49	0.0007958
2604.14	0.0006487
2613.78	0.0011709
2623.43	0.0015997
2633.07	0.0011666
2642.72	0.0010867
2652.36	0.0010418
2662.01	0.0011273
2671.65	0.0015567
2681.29	0.0014715
2690.94	0.0011451
2700.58	0.0013514
2710.23	0.0012904
2719.87	0.001742
2729.52	0.0013868
2739.16	0.0014907
2748.81	0.0012225
2758.45	0.0014558
2768.1	0.001682
2777.74	0.001832
2787.39	0.002032
2797.03	0.002042
2806.68	0.002502
2816.32	0.002512
2825.97	0.003622
2835.61	0.005062
2845.26	0.007942
2854.9	0.012792
2864.55	0.020312
2874.19	0.018672
2883.84	0.014392
2893.48	0.012752
2903.12	0.015882
2912.77	0.024192
2922.41	0.034312
2932.06	0.051582
2941.7	0.057782
2951.35	0.039442
2960.99	0.024872
2970.64	0.019812
2980.28	0.011692
2989.93	0.007212
2999.57	0.004922
3009.22	0.003112
3018.86	0.002502
3028.51	0.002392
3038.15	0.002312
3047.8	0.00157
3057.44	0.0012374
3067.09	0.0013513
3076.73	0.0012848
3086.38	0.0009874
3096.02	0.0010015
3105.67	0.0007981
3115.31	0.0008979
3124.95	0.0009841
3134.6	0.0013416
3144.24	0.00072759
3153.89	0.0009146
3163.53	0.00077836
3173.18	0.0009209
3182.82	0.0014691
3192.47	0.0014235
3202.11	0.0009748
3211.76	0.0015307
3221.4	0.00077961
3231.05	0.00055
3240.69	0.0009166
3250.34	0.0009059
3259.98	0.0005823
3269.63	0.000478
3279.27	0.0006083
3288.92	0.0009346
3298.56	0.0006589
3308.21	0.0009953
3317.85	0.0006687
3327.49	0.00076202
3337.14	0.0013616
3346.78	0.00072384
3356.43	0.0008269
3366.07	0.0008838
3375.72	0.000944
3385.36	0.0011107
3395.01	0.00077921
3404.65	0.00076338
3414.3	0.00070968
3423.94	0.00077157
3433.59	0.0014043
3443.23	0.0006446
3452.88	0.0007924
3462.52	0.000279
3472.17	0.0005946
3481.81	0.0010583
3491.46	0.00055
3501.1	0.0009443
3510.75	0.0009998
3520.39	0.001026
3530.04	0.0011043
3539.68	0.0014786
3549.32	0.002132
3558.97	0.003452
3568.61	0.009402
3578.26	0.012012
3587.9	0.003752
3597.55	0.001952
3607.19	0.0012615
3616.84	0.0013715
3626.48	0.0012014
3636.13	0.0014213
3645.77	0.000299
3655.42	0.0008176
3665.06	0.0009199
3674.71	0.00070766
3684.35	0.0007836
3694	0.0007563
3703.64	0.000206
3713.29	0.0009882
3722.93	0.0009365
3732.58	0.0008561
3742.22	0.0010378
3751.86	0.000902
3761.51	0.0006247
3771.15	0.000387
3780.8	0.0009644
3790.44	0.0008725
3800.09	0.0009923
3809.73	0.00077861
3819.38	0.0010951
3829.02	0.0009323
3838.67	0.000547
3848.31	0.000828
3857.96	0.0006372
3867.6	0.0006565
3877.25	0.00052
3886.89	0.000534
3896.54	0.0009636
3906.18	0.0009726
3915.83	0.0012058
3925.47	0.0011437
3935.12	0.0010143
3944.76	0.0009376
3954.41	0.000577
3964.05	0.0013888
3973.69	0.0006713
3983.34	0.0009866
3992.98	0.0009416
