Infrared Spectrum: TRIPHENYL-DIPHENYLMETHYL-PHOSPHONIUM-BROMIDE
Formula: C31 H26 Br P
CAS: 7333-65-5
State: SOLID (1.0% IN KBr PELLET)
Class: COBLENTZ
Instrument: Not specified, most likely a prism, grating, or hybrid spectrometer.
Sampling: TRANSMISSION
Path length: 0.0355 CM THICK
Resolution: 4
Origin: ANDERSON PHYSICAL LABORATORY
1/CM	TRANSMITTANCE
666.563	0.659
674.985	0.5472
683.406	0.3951
691.828	0.241
700.25	0.3639
708.672	0.346
717.093	0.5001
725.515	0.6349
733.937	0.74
742.358	0.54
750.78	0.531
759.202	0.5577
767.624	0.64
776.045	0.7219
784.467	0.922
792.889	0.926
801.31	0.919
809.732	0.91
818.154	0.904
826.576	0.898
834.997	0.873
843.419	0.808
851.841	0.829
860.263	0.835
868.684	0.885
877.106	0.88
885.528	0.876
893.949	0.874
902.371	0.867
910.793	0.862
919.215	0.816
927.636	0.797
936.058	0.792
944.48	0.84
952.901	0.835
961.323	0.829
969.745	0.805
978.167	0.797
986.588	0.77
995.01	0.635
1003.43	0.726
1011.85	0.786
1020.28	0.768
1028.7	0.707
1037.12	0.72
1045.54	0.762
1053.96	0.752
1062.38	0.743
1070.81	0.708
1079.23	0.661
1087.65	0.646
1096.07	0.5621
1104.49	0.2503
1112.91	0.4468
1121.34	0.7199
1129.76	0.782
1138.18	0.779
1146.6	0.774
1155.02	0.741
1163.44	0.735
1171.87	0.746
1180.29	0.756
1188.71	0.726
1197.13	0.72
1205.55	0.737
1213.97	0.743
1222.4	0.74
1230.82	0.764
1239.24	0.74
1247.66	0.755
1256.08	0.758
1264.5	0.753
1272.93	0.749
1281.35	0.74
1289.77	0.731
1298.19	0.726
1306.61	0.72
1315.04	0.698
1323.46	0.665
1331.88	0.671
1340.3	0.677
1348.72	0.679
1357.14	0.704
1365.57	0.714
1373.99	0.705
1382.41	0.689
1390.83	0.68
1399.25	0.661
1407.67	0.635
1416.1	0.625
1424.52	0.585
1432.94	0.5081
1441.36	0.334
1449.78	0.5399
1458.2	0.662
1466.63	0.705
1475.05	0.689
1483.47	0.595
1491.89	0.494
1500.31	0.5611
1508.73	0.725
1517.16	0.734
1525.58	0.723
1534	0.716
1542.42	0.708
1550.84	0.7
1559.27	0.683
1567.69	0.679
1576.11	0.637
1584.53	0.592
1592.95	0.57
1601.37	0.641
1609.8	0.644
1618.22	0.64
1626.64	0.64
1635.06	0.641
1643.48	0.649
1651.9	0.658
1660.33	0.661
1668.75	0.661
1677.17	0.658
1685.59	0.655
1694.01	0.656
1702.43	0.658
1710.86	0.658
1719.28	0.659
1727.7	0.659
1736.12	0.658
1744.54	0.655
1752.96	0.649
1761.39	0.637
1769.81	0.631
1778.23	0.631
1786.65	0.631
1795.07	0.629
1803.49	0.619
1811.92	0.613
1820.34	0.617
1828.76	0.617
1837.18	0.62
1845.6	0.622
1854.03	0.622
1862.45	0.622
1870.87	0.62
1879.29	0.613
1887.71	0.605
1896.13	0.6
1904.56	0.597
1912.98	0.598
1921.4	0.598
1929.82	0.601
1938.24	0.601
1946.66	0.601
1955.09	0.594
1963.51	0.585
1971.93	0.585
1980.35	0.588
1988.77	0.588
1997.19	0.588
2005.62	0.588
2014.04	0.5882
2022.46	0.588
2030.88	0.589
2039.3	0.589
2047.72	0.589
2056.15	0.586
2064.57	0.585
2072.99	0.5839
2081.41	0.583
2089.83	0.582
2098.26	0.5784
2106.68	0.5749
2115.1	0.573
2123.52	0.5698
2131.94	0.5676
2140.36	0.5658
2148.79	0.564
2157.21	0.561
2165.63	0.5586
2174.05	0.5537
2182.47	0.5502
2190.89	0.5498
2199.32	0.549
2207.74	0.547
2216.16	0.5461
2224.58	0.544
2233	0.5436
2241.42	0.54
2249.85	0.538
2258.27	0.537
2266.69	0.5345
2275.11	0.532
2283.53	0.531
2291.95	0.5275
2300.38	0.52
2308.8	0.5145
2317.22	0.51
2325.64	0.5077
2334.06	0.5045
2342.48	0.502
2350.91	0.504
2359.33	0.5056
2367.75	0.507
2376.17	0.5078
2384.59	0.508
2393.02	0.508
2401.44	0.507
2409.86	0.505
2418.28	0.5038
2426.7	0.5017
2435.12	0.5004
2443.55	0.498
2451.97	0.497
2460.39	0.4946
2468.81	0.4927
2477.23	0.491
2485.65	0.488
2494.08	0.4856
2502.5	0.485
2510.92	0.4821
2519.34	0.4787
2527.76	0.4766
2536.18	0.474
2544.61	0.474
2553.03	0.473
2561.45	0.473
2569.87	0.4716
2578.29	0.4651
2586.71	0.4635
2595.14	0.462
2603.56	0.4595
2611.98	0.458
2620.4	0.458
2628.82	0.456
2637.25	0.4529
2645.67	0.449
2654.09	0.4467
2662.51	0.446
2670.93	0.446
2679.35	0.4439
2687.78	0.443
2696.2	0.443
2704.62	0.443
2713.04	0.4428
2721.46	0.44
2729.88	0.4344
2738.31	0.4286
2746.73	0.4188
2755.15	0.4095
2763.57	0.4031
2771.99	0.4
2780.41	0.3997
2788.84	0.3964
2797.26	0.3913
2805.68	0.391
2814.1	0.3953
2822.52	0.4009
2830.94	0.4098
2839.37	0.411
2847.79	0.41
2856.21	0.4075
2864.63	0.4056
2873.05	0.404
2881.47	0.4018
2889.9	0.4005
2898.32	0.3985
2906.74	0.397
2915.16	0.3935
2923.58	0.3844
2932.01	0.3728
2940.43	0.3619
2948.85	0.3557
2957.27	0.3495
2965.69	0.349
2974.11	0.352
2982.54	0.3569
2990.96	0.361
2999.38	0.3636
3007.8	0.3641
3016.22	0.3657
3024.64	0.367
3033.07	0.3697
3041.49	0.3748
3049.91	0.3939
3058.33	0.398
3066.75	0.4009
3075.17	0.4023
3083.6	0.4032
3092.02	0.402
3100.44	0.4
3108.86	0.3978
3117.28	0.395
3125.7	0.394
3134.13	0.3911
3142.55	0.3884
3150.97	0.3817
3159.39	0.3793
3167.81	0.3771
3176.24	0.377
3184.66	0.377
3193.08	0.3763
3201.5	0.371
3209.92	0.3642
3218.34	0.3585
3226.77	0.355
3235.19	0.353
3243.61	0.3514
3252.03	0.35
3260.45	0.347
3268.87	0.3438
3277.3	0.338
3285.72	0.3359
3294.14	0.3312
3302.56	0.3279
3310.98	0.3213
3319.4	0.3178
3327.83	0.3143
3336.25	0.3097
3344.67	0.3013
3353.09	0.2974
3361.51	0.2952
3369.93	0.289
3378.36	0.289
3386.78	0.2883
3395.2	0.288
3403.62	0.286
3412.04	0.286
3420.46	0.2874
3428.89	0.2889
3437.31	0.2912
3445.73	0.2944
3454.15	0.297
3462.57	0.298
3471	0.2984
3479.42	0.3038
3487.84	0.3095
3496.26	0.316
3504.68	0.32
3513.1	0.322
3521.53	0.3253
3529.95	0.331
3538.37	0.332
3546.79	0.334
3555.21	0.3348
3563.63	0.337
3572.06	0.3403
3580.48	0.3421
3588.9	0.3438
3597.32	0.346
3605.74	0.3477
3614.16	0.349
3622.59	0.3473
3631.01	0.3439
3639.43	0.343
3647.85	0.3452
3656.27	0.3469
3664.69	0.347
3673.12	0.347
3681.54	0.346
3689.96	0.344
3698.38	0.344
3706.8	0.341
3715.23	0.3403
3723.65	0.34
3732.07	0.34
3740.49	0.34
3748.91	0.3386
3757.33	0.338
3765.76	0.3378
3774.18	0.337
3782.6	0.337
3791.02	0.337
3799.44	0.335
3807.86	0.335
3816.29	0.334
3824.71	0.334
3833.13	0.3317
3841.55	0.329
3849.97	0.3257
3858.39	0.32
3866.82	0.32
3875.24	0.32
3883.66	0.32
3892.08	0.32
3900.5	0.32
3908.92	0.32
3917.35	0.32
3925.77	0.32
3934.19	0.32
3942.61	0.3194
3951.03	0.3161
3959.45	0.314
3967.88	0.314
3976.3	0.314
3984.72	0.316
