Infrared Spectrum: Ethyl 2-Chlorobenzoate
Formula: C 9 H 9 Cl O 2
CAS: 7335-25-3
State: gas
Origin: EPA-IR VAPOR PHASE LIBRARY
1/CM	ABSORBANCE
549.9	0.0021814
559.547	0.0018231
569.193	0.00158
578.84	0.001665
588.486	0.001359
598.133	0.00142
607.779	0.001206
617.426	0.001393
627.072	0.00146
636.719	0.0022329
646.365	0.00591
656.012	0.00646
665.658	0.0026717
675.305	0.0026481
684.951	0.00349
694.598	0.00522
704.245	0.00596
713.891	0.00876
723.538	0.01294
733.184	0.02366
742.831	0.04534
752.477	0.02932
762.124	0.01074
771.77	0.00538
781.417	0.00424
791.063	0.00363
800.71	0.00298
810.356	0.0027282
820.003	0.0026701
829.649	0.00313
839.296	0.00449
848.943	0.00605
858.589	0.00602
868.236	0.00491
877.882	0.00403
887.529	0.0026157
897.175	0.0019135
906.822	0.0017453
916.468	0.001658
926.115	0.0017465
935.761	0.0021035
945.408	0.0026127
955.054	0.0027002
964.701	0.0024717
974.347	0.0026162
983.994	0.00317
993.64	0.00478
1003.29	0.00791
1012.93	0.01105
1022.58	0.0121
1032.23	0.01976
1041.87	0.03797
1051.52	0.05523
1061.17	0.03577
1070.81	0.01277
1080.46	0.01107
1090.11	0.0155
1099.75	0.03144
1109.4	0.06778
1119.05	0.09306
1128.69	0.07636
1138.34	0.04645
1147.99	0.0243
1157.63	0.01961
1167.28	0.01795
1176.92	0.01345
1186.57	0.0103
1196.22	0.00854
1205.86	0.00954
1215.51	0.01308
1225.16	0.02221
1234.8	0.05145
1244.45	0.09839
1254.1	0.07369
1263.74	0.04041
1273.39	0.06973
1283.04	0.1151
1292.68	0.11133
1302.33	0.05349
1311.98	0.02362
1321.62	0.01254
1331.27	0.00744
1340.92	0.00538
1350.56	0.00519
1360.21	0.0091
1369.86	0.01415
1379.5	0.00901
1389.15	0.00659
1398.79	0.00673
1408.44	0.00712
1418.09	0.00923
1427.73	0.01609
1437.38	0.0213
1447.03	0.01661
1456.67	0.01223
1466.32	0.01586
1475.97	0.01582
1485.61	0.009
1495.26	0.00468
1504.91	0.00311
1514.55	0.0026505
1524.2	0.0024167
1533.85	0.002459
1543.49	0.0025413
1553.14	0.00327
1562.79	0.00487
1572.43	0.00666
1582.08	0.00898
1591.73	0.01322
1601.37	0.01032
1611.02	0.00478
1620.67	0.00305
1630.31	0.0023864
1639.96	0.002256
1649.6	0.002401
1659.25	0.0025468
1668.9	0.00306
1678.54	0.00409
1688.19	0.00606
1697.84	0.00882
1707.48	0.01403
1717.13	0.02448
1726.78	0.04463
1736.42	0.0702
1746.07	0.08106
1755.72	0.07144
1765.36	0.04525
1775.01	0.02024
1784.66	0.00939
1794.3	0.0054
1803.95	0.00416
1813.6	0.00355
1823.24	0.00286
1832.89	0.002587
1842.54	0.0023891
1852.18	0.0019725
1861.83	0.0017587
1871.47	0.0018005
1881.12	0.00184436
1890.77	0.0019704
1900.41	0.0019444
1910.06	0.0021615
1919.71	0.0026626
1929.35	0.0023864
1939	0.0019599
1948.65	0.0021829
1958.29	0.0021048
1967.94	0.001673
1977.59	0.001503
1987.23	0.001518
1996.88	0.001425
2006.53	0.00129
2016.17	0.001271
2025.82	0.001213
2035.47	0.001129
2045.11	0.001099
2054.76	0.001091
2064.41	0.001112
2074.05	0.001222
2083.7	0.00131
2093.35	0.001329
2102.99	0.001371
2112.64	0.001312
2122.28	0.001345
2131.93	0.001292
2141.58	0.001284
2151.22	0.00128
2160.87	0.001137
2170.52	0.00111
2180.16	0.001048
2189.81	0.001027
2199.46	0.000995
2209.1	0.000959
2218.75	0.001029
2228.4	0.001031
2238.04	0.001087
2247.69	0.001126
2257.34	0.001168
2266.98	0.00113
2276.63	0.001125
2286.28	0.001204
2295.92	0.001216
2305.57	0.001168
2315.22	0.001185
2324.86	0.001275
2334.51	0.001168
2344.16	0.001132
2353.8	0.00108
2363.45	0.001088
2373.09	0.001193
2382.74	0.001197
2392.39	0.0013
2402.03	0.001303
2411.68	0.001257
2421.33	0.001126
2430.97	0.001101
2440.62	0.001061
2450.27	0.000936
2459.91	0.001047
2469.56	0.000951
2479.21	0.000965
2488.85	0.000935
2498.5	0.001006
2508.15	0.000967
2517.79	0.000983
2527.44	0.001034
2537.09	0.001031
2546.73	0.001006
2556.38	0.001106
2566.03	0.001047
2575.67	0.001012
2585.32	0.000984
2594.96	0.001024
2604.61	0.001107
2614.26	0.001004
2623.9	0.001002
2633.55	0.00101
2643.2	0.000919
2652.84	0.000943
2662.49	0.000927
2672.14	0.000873
2681.78	0.00075
2691.43	0.000941
2701.08	0.000872
2710.72	0.000945
2720.37	0.001071
2730.02	0.001099
2739.66	0.001046
2749.31	0.00105
2758.96	0.001105
2768.6	0.001207
2778.25	0.001201
2787.9	0.001175
2797.54	0.001187
2807.19	0.001289
2816.84	0.001435
2826.48	0.001605
2836.13	0.001641
2845.77	0.0017833
2855.42	0.0019778
2865.07	0.0025623
2874.71	0.00351
2884.36	0.00467
2894.01	0.00497
2903.65	0.00551
2913.3	0.00613
2922.95	0.00625
2932.59	0.00793
2942.24	0.01172
2951.89	0.01139
2961.53	0.01026
2971.18	0.01365
2980.83	0.02157
2990.47	0.02288
3000.12	0.01472
3009.77	0.01004
3019.41	0.00663
3029.06	0.00456
3038.71	0.00347
3048.35	0.00323
3058	0.00505
3067.64	0.0089
3077.29	0.01073
3086.94	0.00777
3096.58	0.00363
3106.23	0.0020465
3115.88	0.001341
3125.52	0.00131
3135.17	0.001477
3144.82	0.001128
3154.46	0.000968
3164.11	0.00073
3173.76	0.00049
3183.4	0.00055
3193.05	0.00053
3202.7	0.00048
3212.34	0.00036
3221.99	0.00011
3231.64	0.00029
3241.28	0.00017
3250.93	9e-05
3260.58	0.0002
3270.22	0.00013
3279.87	3e-05
3289.52	8e-05
3299.16	0.00016
3308.81	9e-05
3318.45	0.00037
3328.1	0.00011
3337.75	0.0002
3347.39	0.00022
3357.04	0.00032
3366.69	0.00028
3376.33	0.00045
3385.98	0.00031
3395.63	0.00019
3405.27	0.00051
3414.92	0.00045
3424.57	0.00057
3434.21	0.00074
3443.86	0.00078
3453.51	0.001013
3463.15	0.001086
3472.8	0.000965
3482.45	0.001179
3492.09	0.00126
3501.74	0.000987
3511.39	0.000856
3521.03	0.00067
3530.68	0.00068
3540.33	0.00076
3549.97	0.00071
3559.62	0.00077
3569.26	0.00075
3578.91	0.00062
3588.56	0.0008
3598.2	0.00077
3607.85	0.00078
3617.5	0.0006
3627.14	0.00081
3636.79	0.00071
3646.44	0.0008
3656.08	0.00081
3665.73	0.000968
3675.38	0.000956
3685.02	0.00083
3694.67	0.000884
3704.32	0.000952
3713.96	0.000946
3723.61	0.000992
3733.26	0.001007
3742.9	0.001114
3752.55	0.000971
3762.2	0.001132
3771.84	0.001057
3781.49	0.001142
3791.13	0.001193
3800.78	0.001126
3810.43	0.0011
3820.07	0.001079
3829.72	0.001134
3839.37	0.001242
3849.01	0.001168
3858.66	0.001093
3868.31	0.001138
3877.95	0.001127
3887.6	0.001145
3897.25	0.001125
3906.89	0.001096
3916.54	0.001244
3926.19	0.001198
3935.83	0.001138
3945.48	0.001148
3955.13	0.001345
3964.77	0.001278
3974.42	0.001177
3984.07	0.001251
3993.71	0.001145
