Infrared Spectrum: Ethyl p-chloro benzoate
Formula: C 9 H 9 Cl O 2
CAS: 7335-27-5
State: gas
Origin: EPA-IR VAPOR PHASE LIBRARY
1/CM	ABSORBANCE
501.5	0.00838
513.074	0.02008
524.648	0.03187
536.222	0.01559
547.796	0.0051
559.37	0.00209
570.944	0.00124
582.518	0.0009811
594.092	0.0005226
605.666	0.000637
617.24	0.00121
628.814	0.00252
640.388	0.00172
651.962	0.00115
663.536	0.0028
675.11	0.00855
686.684	0.01302
698.258	0.00764
709.832	0.00399
721.406	0.01151
732.98	0.00968
744.554	0.02279
756.128	0.06016
767.702	0.06005
779.276	0.02742
790.85	0.01484
802.423	0.01161
813.997	0.011
825.571	0.01457
837.145	0.03078
848.719	0.05201
860.293	0.02977
871.867	0.01195
883.441	0.00767
895.015	0.0061
906.589	0.00408
918.163	0.00321
929.737	0.00314
941.311	0.00389
952.885	0.00505
964.459	0.0058
976.033	0.0071
987.607	0.0103
999.181	0.01868
1010.76	0.08172
1022.33	0.11042
1033.9	0.03048
1045.48	0.01845
1057.05	0.02003
1068.63	0.03539
1080.2	0.09876
1091.77	0.3178
1103.35	0.41942
1114.92	0.25283
1126.49	0.10571
1138.07	0.04782
1149.64	0.0339
1161.22	0.04263
1172.79	0.08765
1184.36	0.03346
1195.94	0.0215
1207.51	0.02758
1219.09	0.05589
1230.66	0.08897
1242.23	0.09147
1253.81	0.22005
1265.38	0.55463
1276.96	0.52421
1288.53	0.15628
1300.1	0.06399
1311.68	0.05306
1323.25	0.02924
1334.83	0.01975
1346.4	0.01989
1357.97	0.02959
1369.55	0.05392
1381.12	0.03768
1392.7	0.04086
1404.27	0.05069
1415.84	0.02699
1427.42	0.01637
1438.99	0.01718
1450.57	0.02099
1462.14	0.02694
1473.71	0.04053
1485.29	0.06599
1496.86	0.03589
1508.44	0.0121
1520.01	0.00923
1531.58	0.00833
1543.16	0.00777
1554.73	0.00974
1566.31	0.01789
1577.88	0.03284
1589.45	0.08245
1601.03	0.08848
1612.6	0.02903
1624.18	0.01338
1635.75	0.00847
1647.32	0.00794
1658.9	0.00973
1670.47	0.01249
1682.05	0.01401
1693.62	0.01818
1705.19	0.02606
1716.77	0.05843
1728.34	0.18666
1739.92	0.37021
1751.49	0.22516
1763.06	0.0603
1774.64	0.02195
1786.21	0.01871
1797.79	0.01516
1809.36	0.01003
1820.93	0.00699
1832.51	0.00449
1844.08	0.00347
1855.66	0.00327
1867.23	0.00347
1878.8	0.00368
1890.38	0.00387
1901.95	0.0047
1913.53	0.00624
1925.1	0.00589
1936.67	0.00402
1948.25	0.00339
1959.82	0.00351
1971.4	0.00326
1982.97	0.00245
1994.54	0.00185
2006.12	0.00168
2017.69	0.00167
2029.27	0.00163
2040.84	0.00129
2052.41	0.00124
2063.99	0.00126
2075.56	0.00134
2087.14	0.00157
2098.71	0.00186
2110.28	0.00241
2121.86	0.00257
2133.43	0.0017
2145.01	0.0009907
2156.58	0.0006192
2168.15	0.0004694
2179.73	0.0004619
2191.3	0.0005811
2202.88	0.0006383
2214.45	0.000689
2226.02	0.0007793
2237.6	0.0008686
2249.17	0.0009459
2260.74	0.0012
2272.32	0.00147
2283.89	0.00144
2295.47	0.001
2307.04	0.0007979
2318.61	0.0009074
2330.19	0.0008266
2341.76	0.0009393
2353.34	0.00132
2364.91	0.00169
2376.48	0.00178
2388.06	0.00167
2399.63	0.00142
2411.21	0.00106
2422.78	0.0007642
2434.35	0.0006074
2445.93	0.0005571
2457.5	0.0005978
2469.08	0.0005966
2480.65	0.0005494
2492.22	0.0005991
2503.8	0.0007549
2515.37	0.001
2526.95	0.00149
2538.52	0.0022
2550.09	0.00223
2561.67	0.00168
2573.24	0.0016
2584.82	0.0014
2596.39	0.00101
2607.96	0.0007888
2619.54	0.000541
2631.11	0.00041
2642.69	0.0003447
2654.26	0.0003512
2665.83	0.0003725
2677.41	0.0003749
2688.98	0.0003137
2700.56	0.0002799
2712.13	0.0003189
2723.7	0.0005498
2735.28	0.0008082
2746.85	0.00109
2758.43	0.00154
2770	0.00167
2781.57	0.00159
2793.15	0.00143
2804.72	0.00156
2816.3	0.00208
2827.87	0.00269
2839.44	0.00331
2851.02	0.00445
2862.59	0.00606
2874.17	0.00848
2885.74	0.01231
2897.31	0.01265
2908.89	0.01597
2920.46	0.01781
2932.04	0.02084
2943.61	0.03321
2955.18	0.02991
2966.76	0.03358
2978.33	0.05417
2989.91	0.06796
3001.48	0.039
3013.05	0.02311
3024.63	0.01246
3036.2	0.00789
3047.78	0.00604
3059.35	0.00502
3070.92	0.00529
3082.5	0.0075
3094.07	0.00736
3105.65	0.00584
3117.22	0.00313
3128.79	0.00214
3140.37	0.00191
3151.94	0.00147
3163.52	0.00105
3175.09	0.0009434
3186.66	0.0009471
3198.24	0.0008825
3209.81	0.0006591
3221.39	0.0005198
3232.96	0.0003478
3244.53	0.0001716
3256.11	0.0001373
3267.68	0.000134
3279.26	0.0001227
3290.83	0.0001255
3302.4	0.0001676
3313.98	0.0002564
3325.55	0.0003562
3337.13	0.0005164
3348.7	0.0004004
3360.27	0.0003122
3371.85	0.000374
3383.42	0.0003006
3395	0.0002962
3406.57	0.0002459
3418.14	0.000332
3429.72	0.0005963
3441.29	0.00125
3452.86	0.00276
3464.44	0.0037
3476.01	0.00227
3487.59	0.0011
3499.16	0.0006048
3510.73	0.0003953
3522.31	0.0002432
3533.88	0.0001622
3545.46	0.0001153
3557.03	8.714e-05
3568.6	0.0001097
3580.18	0.0001077
3591.75	0.0001325
3603.33	0.0001474
3614.9	0.000146
3626.47	2.76e-05
3638.05	5.821e-05
3649.62	6.504e-05
3661.2	0.0001215
3672.77	0.0001856
3684.34	0.0002116
3695.92	0.0001546
3707.49	0.0001864
3719.07	0.0004169
3730.64	0.0004104
3742.21	0.0002631
3753.79	0.0002545
3765.36	0.000283
3776.94	0.0003433
3788.51	0.0002451
3800.08	0.0003908
3811.66	0.000525
3823.23	0.0005176
3834.81	0.0003349
3846.38	0.0002627
3857.95	0.0002672
3869.53	0.0002635
3881.1	0.0002301
3892.68	0.0002253
3904.25	0.0002352
3915.82	0.0001963
3927.4	0.0002723
3938.97	0.0002604
3950.55	0.0002729
3962.12	0.0002904
3973.69	0.0003417
3985.27	0.0003653
3996.84	0.0003858
