Infrared Spectrum: THIAZOLE, 2-ACETAMIDO-5-BROMO-
Formula: C5 H5 Br N2 O S
CAS: 7336-54-1
State: SOLID (KBr PELLET)
Melting point: 213-214 C
Class: COBLENTZ
Instrument: Not specified, most likely a prism, grating, or hybrid spectrometer.
Sampling: TRANSMISSION
Resolution: 4
Origin: TENNESSEE EASTMAN COMPANY, RESEARCH LABORATORIES
MICROMETERS	TRANSMITTANCE
2.068	0.938
2.1089	0.94
2.14979	0.94
2.19069	0.94
2.23159	0.94
2.27249	0.941
2.31338	0.943
2.35428	0.945
2.39518	0.948
2.43607	0.948
2.47697	0.95
2.51787	0.95
2.55877	0.95
2.59966	0.952
2.64056	0.952
2.68146	0.95
2.72235	0.933
2.76325	0.846
2.80415	0.781
2.84505	0.752
2.88594	0.723
2.92684	0.721
2.96774	0.779
3.00863	0.8
3.04953	0.733
3.09043	0.704
3.13133	0.513
3.17222	0.421
3.21312	0.643
3.25402	0.505
3.29491	0.392
3.33581	0.298
3.37671	0.191
3.41761	0.226
3.4585	0.365
3.4994	0.365
3.5403	0.368
3.5812	0.44
3.62209	0.571
3.66299	0.595
3.70389	0.67
3.74478	0.726
3.78568	0.769
3.82658	0.815
3.86748	0.829
3.90837	0.831
3.94927	0.858
3.99017	0.875
4.03106	0.901
4.07196	0.911
4.11286	0.914
4.15376	0.916
4.19465	0.923
4.23555	0.93
4.27645	0.916
4.31734	0.912
4.35824	0.928
4.39914	0.938
4.44004	0.94
4.48093	0.943
4.52183	0.948
4.56273	0.95
4.60362	0.95
4.64452	0.952
4.68542	0.953
4.72632	0.953
4.76721	0.953
4.80811	0.952
4.84901	0.952
4.8899	0.952
4.9308	0.952
4.9717	0.952
5.0126	0.959
5.05349	0.95
5.09439	0.947
5.13529	0.948
5.17618	0.95
5.21708	0.955
5.25798	0.959
5.29888	0.959
5.33977	0.957
5.38067	0.952
5.42157	0.95
5.46246	0.94
5.50336	0.938
5.54426	0.943
5.58516	0.941
5.62605	0.941
5.66695	0.919
5.70785	0.883
5.74874	0.832
5.78964	0.807
5.83054	0.271
5.87144	0.107
5.91233	0.419
5.95323	0.59
5.99413	0.578
6.03502	0.653
6.07592	0.68
6.11682	0.684
6.15772	0.677
6.19861	0.663
6.23951	0.6
6.28041	0.389
6.3213	0.175
6.3622	0.087
6.4031	0.042
6.444	0.059
6.48489	0.245
6.52579	0.436
6.56669	0.598
6.60759	0.648
6.64848	0.645
6.68938	0.704
6.73028	0.738
6.77117	0.742
6.81207	0.708
6.85297	0.58
6.89387	0.558
6.93476	0.619
6.97566	0.508
7.01656	0.534
7.05745	0.675
7.09835	0.725
7.13925	0.726
7.18015	0.604
7.22104	0.3
7.26194	0.163
7.30284	0.39
7.34373	0.645
7.38463	0.771
7.42553	0.812
7.46643	0.813
7.50732	0.807
7.54822	0.808
7.58912	0.781
7.63001	0.715
7.67091	0.498
7.71181	0.124
7.75271	0.03
7.7936	0.156
7.8345	0.127
7.8754	0.303
7.91629	0.431
7.95719	0.307
7.99809	0.467
8.03899	0.656
8.07988	0.436
8.12078	0.341
8.16168	0.583
8.20257	0.692
8.24347	0.79
8.28437	0.808
8.32527	0.815
8.36616	0.824
8.40706	0.805
8.44796	0.778
8.48885	0.725
8.52975	0.699
8.57065	0.529
8.61155	0.146
8.65244	0.445
8.69334	0.704
8.73424	0.783
8.77513	0.812
8.81603	0.819
8.85693	0.824
8.89783	0.827
8.93872	0.827
8.97962	0.817
9.02052	0.815
9.06141	0.82
9.10231	0.824
9.14321	0.825
9.18411	0.829
9.225	0.829
9.2659	0.827
9.3068	0.827
9.34769	0.831
9.38859	0.829
9.42949	0.827
9.47039	0.825
9.51128	0.8
9.55218	0.744
9.59308	0.687
9.63398	0.749
9.67487	0.781
9.71577	0.769
9.75667	0.783
9.79756	0.791
9.83846	0.757
9.87936	0.663
9.92026	0.436
9.96115	0.254
10.002	0.242
10.0429	0.447
10.0838	0.612
10.1247	0.696
10.1656	0.738
10.2065	0.716
10.2474	0.542
10.2883	0.438
10.3292	0.604
10.3701	0.735
10.411	0.824
10.4519	0.844
10.4928	0.851
10.5337	0.853
10.5746	0.866
10.6155	0.885
10.6564	0.892
10.6973	0.892
10.7382	0.89
10.7791	0.889
10.82	0.895
10.8609	0.901
10.9018	0.902
10.9427	0.897
10.9836	0.899
11.0245	0.906
11.0654	0.911
11.1063	0.907
11.1472	0.904
11.1881	0.902
11.229	0.904
11.2699	0.906
11.3108	0.906
11.3517	0.894
11.3926	0.887
11.4335	0.885
11.4743	0.887
11.5152	0.887
11.5561	0.882
11.597	0.863
11.6379	0.853
11.6788	0.839
11.7197	0.825
11.7606	0.8
11.8015	0.762
11.8424	0.697
11.8833	0.506
11.9242	0.324
11.9651	0.44
12.006	0.621
12.0469	0.667
12.0878	0.682
12.1287	0.679
12.1696	0.656
12.2105	0.627
12.2514	0.612
12.2923	0.607
12.3332	0.605
12.3741	0.612
12.415	0.638
12.4559	0.66
12.4968	0.684
12.5377	0.694
12.5786	0.696
12.6195	0.691
12.6604	0.638
12.7013	0.488
12.7422	0.267
12.7831	0.305
12.824	0.469
12.8649	0.617
12.9057	0.679
12.9466	0.718
12.9875	0.749
13.0284	0.788
13.0693	0.8
13.1102	0.813
13.1511	0.819
13.192	0.822
13.2329	0.827
13.2738	0.829
13.3147	0.836
13.3556	0.843
13.3965	0.846
13.4374	0.849
13.4783	0.849
13.5192	0.849
13.5601	0.848
13.601	0.848
13.6419	0.849
13.6828	0.851
13.7237	0.851
13.7646	0.851
13.8055	0.853
13.8464	0.851
13.8873	0.849
13.9282	0.849
13.9691	0.849
14.01	0.848
14.0509	0.846
14.0918	0.841
14.1327	0.831
14.1736	0.815
14.2145	0.79
14.2554	0.752
14.2963	0.696
14.3371	0.651
14.378	0.648
14.4189	0.672
14.4598	0.709
14.5007	0.735
14.5416	0.757
14.5825	0.761
14.6234	0.762
14.6643	0.755
14.7052	0.738
14.7461	0.721
14.787	0.701
14.8279	0.675
14.8688	0.641
14.9097	0.602
14.9506	0.552
14.9915	0.498
15.0324	0.46
15.0733	0.472
15.1142	0.539
15.1551	0.598
15.196	0.636
15.2369	0.656
15.2778	0.665
15.3187	0.668
15.3596	0.67
15.4005	0.668
15.4414	0.665
15.4823	0.66
15.5232	0.655
15.5641	0.648
15.605	0.639
15.6459	0.631
15.6868	0.626
15.7277	0.621
15.7685	0.609
15.8094	0.602
15.8503	0.583
15.8912	0.561
15.9321	0.54
15.973	0.525
