Infrared Spectrum: 5Alpha-ANDROSTA-1-ENE-3,11,17-TRIONE
Formula: C19 H24 O3
CAS: 7339-06-2
State: SOLID (KBr DISC)
Class: COBLENTZ III
Instrument: BECKMAN IR-7
Sampling: TRANSMISSION
Resolution: 4
Origin: N. L. McNIVEN- THE WORCESTER FOUNDATION FOR EXPERIMENTAL BIOLOGY
1/CM	TRANSMITTANCE
606.48	0.661
615.102	0.528
623.725	0.41
632.347	0.5139
640.97	0.738
649.592	0.755
658.215	0.787
666.837	0.696
675.46	0.727
684.082	0.777
692.705	0.713
701.327	0.5969
709.95	0.745
718.572	0.765
727.194	0.757
735.817	0.742
744.439	0.6131
753.062	0.681
761.684	0.376
770.307	0.581
778.929	0.524
787.552	0.176
796.174	0.3329
804.797	0.425
813.419	0.525
822.041	0.256
830.664	0.4189
839.286	0.617
847.909	0.544
856.531	0.2929
865.154	0.646
873.776	0.678
882.399	0.571
891.021	0.3511
899.644	0.477
908.266	0.593
916.889	0.591
925.511	0.565
934.133	0.189
942.756	0.343
951.378	0.325
960.001	0.456
968.623	0.473
977.246	0.569
985.868	0.403
994.491	0.252
1003.11	0.2681
1011.74	0.282
1020.36	0.286
1028.98	0.382
1037.6	0.359
1046.23	0.122
1054.85	0.173
1063.47	0.406
1072.09	0.386
1080.72	0.226
1089.34	0.2069
1097.96	0.387
1106.58	0.252
1115.21	0.171
1123.83	0.326
1132.45	0.299
1141.07	0.322
1149.69	0.329
1158.32	0.318
1166.94	0.175
1175.56	0.449
1184.18	0.433
1192.81	0.272
1201.43	0.167
1210.05	0.201
1218.67	0.264
1227.3	0.076
1235.92	0.1409
1244.54	0.211
1253.16	0.116
1261.79	0.274
1270.41	0.275
1279.03	0.415
1287.65	0.2831
1296.28	0.34
1304.9	0.435
1313.52	0.483
1322.14	0.3221
1330.77	0.287
1339.39	0.447
1348.01	0.414
1356.63	0.366
1365.26	0.171
1373.88	0.239
1382.5	0.062
1391.12	0.201
1399.75	0.245
1408.37	0.2841
1416.99	0.331
1425.61	0.38
1434.24	0.2979
1442.86	0.189
1451.48	0.132
1460.1	0.245
1468.73	0.239
1477.35	0.462
1485.97	0.577
1494.59	0.6
1503.22	0.608
1511.84	0.603
1520.46	0.607
1529.08	0.597
1537.71	0.591
1546.33	0.564
1554.95	0.554
1563.57	0.509
1572.2	0.462
1580.82	0.437
1589.44	0.376
1598.06	0.249
1606.69	0.278
1615.31	0.307
1623.93	0.236
1632.55	0.199
1641.18	0.121
1649.8	0.1
1658.42	0.029
1667.04	0.02
1675.67	0.025
1684.29	0.058
1692.91	0.063
1701.53	0.035
1710.15	0.018
1718.78	0.092
1727.4	0.076
1736.02	0.026
1744.64	0.02
1753.27	0.157
1761.89	0.302
1770.51	0.388
1779.13	0.462
1787.76	0.54
1796.38	0.639
1805	0.675
1813.62	0.675
1822.25	0.704
1830.87	0.719
1839.49	0.717
1848.11	0.721
1856.74	0.728
1865.36	0.729
1873.98	0.731
1882.6	0.739
1891.23	0.735
1899.85	0.74
1908.47	0.746
1917.09	0.746
1925.72	0.736
1934.34	0.734
1942.96	0.736
1951.58	0.733
1960.21	0.729
1968.83	0.721
1977.45	0.715
1986.07	0.72
1994.7	0.73
2003.32	0.733
2011.94	0.731
2020.56	0.7293
2029.19	0.728
2037.81	0.7236
2046.43	0.7151
2055.05	0.713
2063.68	0.712
2072.3	0.7118
2080.92	0.7106
2089.54	0.7086
2098.17	0.7003
2106.79	0.6928
2115.41	0.691
2124.03	0.69
2132.66	0.689
2141.28	0.688
2149.9	0.6884
2158.52	0.69
2167.15	0.69
2175.77	0.6898
2184.39	0.6836
2193.01	0.6768
2201.64	0.6731
2210.26	0.6677
2218.88	0.6606
2227.5	0.656
2236.12	0.6568
2244.75	0.6582
2253.37	0.66
2261.99	0.6594
2270.61	0.6564
2279.24	0.6499
2287.86	0.6467
2296.48	0.646
2305.1	0.6442
2313.73	0.643
2322.35	0.641
2330.97	0.6395
2339.59	0.639
2348.22	0.639
2356.84	0.6463
2365.46	0.6555
2374.08	0.653
2382.71	0.6441
2391.33	0.6319
2399.95	0.6141
2408.57	0.6043
2417.2	0.6079
2425.82	0.61
2434.44	0.611
2443.06	0.611
2451.69	0.609
2460.31	0.6058
2468.93	0.6026
2477.55	0.601
2486.18	0.6
2494.8	0.5968
2503.42	0.5946
2512.04	0.593
2520.67	0.592
2529.29	0.591
2537.91	0.59
2546.53	0.589
2555.16	0.589
2563.78	0.5889
2572.4	0.5839
2581.02	0.5742
2589.65	0.5681
2598.27	0.5659
2606.89	0.5623
2615.51	0.5584
2624.14	0.5552
2632.76	0.554
2641.38	0.5537
2650	0.552
2658.63	0.5466
2667.25	0.5298
2675.87	0.5161
2684.49	0.5135
2693.12	0.5259
2701.74	0.536
2710.36	0.54
2718.98	0.537
2727.61	0.5262
2736.23	0.518
2744.85	0.516
2753.47	0.514
2762.09	0.512
2770.72	0.511
2779.34	0.5023
2787.96	0.4882
2796.58	0.4687
2805.21	0.4454
2813.83	0.4236
2822.45	0.4034
2831.07	0.3435
2839.7	0.2971
2848.32	0.1953
2856.94	0.1243
2865.56	0.0873
2874.19	0.1099
2882.81	0.1248
2891.43	0.1583
2900.05	0.1181
2908.68	0.0815
2917.3	0.0769
2925.92	0.0681
2934.54	0.0546
2943.17	0.0722
2951.79	0.0996
2960.41	0.1111
2969.03	0.0699
2977.66	0.0758
2986.28	0.166
2994.9	0.2467
3003.52	0.3573
3012.15	0.408
3020.77	0.4263
3029.39	0.4367
3038.01	0.4275
3046.64	0.3716
3055.26	0.3433
3063.88	0.375
3072.5	0.4111
3081.13	0.4412
3089.75	0.4691
3098.37	0.4805
3106.99	0.4845
3115.62	0.487
3124.24	0.487
3132.86	0.4848
3141.48	0.483
3150.11	0.4854
3158.73	0.49
3167.35	0.4922
3175.97	0.4945
3184.6	0.4967
3193.22	0.4989
3201.84	0.5
3210.46	0.502
3219.09	0.5047
3227.71	0.506
3236.33	0.5058
3244.95	0.5036
3253.58	0.502
3262.2	0.5
3270.82	0.4963
3279.44	0.4836
3288.07	0.4814
3296.69	0.4783
3305.31	0.4666
3313.93	0.4546
3322.55	0.4382
3331.18	0.4367
3339.8	0.4434
3348.42	0.4533
3357.04	0.4696
3365.67	0.476
3374.29	0.4603
3382.91	0.4128
3391.53	0.396
3400.16	0.4308
3408.78	0.4561
3417.4	0.4629
3426.02	0.468
3434.65	0.4581
3443.27	0.4357
3451.89	0.3967
3460.51	0.4091
3469.14	0.4408
3477.76	0.461
3486.38	0.4715
3495	0.479
3503.63	0.481
3512.25	0.485
3520.87	0.4882
3529.49	0.4919
3538.12	0.4937
3546.74	0.495
3555.36	0.495
3563.98	0.496
3572.61	0.497
3581.23	0.4989
3589.85	0.5002
3598.47	0.5038
3607.1	0.5077
3615.72	0.5099
3624.34	0.51
3632.96	0.51
3641.59	0.508
3650.21	0.5071
3658.83	0.506
3667.45	0.505
3676.08	0.504
3684.7	0.504
3693.32	0.505
3701.94	0.506
3710.57	0.506
3719.19	0.505
3727.81	0.504
3736.43	0.5027
3745.06	0.5014
3753.68	0.5
3762.3	0.4949
3770.92	0.4864
3779.55	0.4809
3788.17	0.479
3796.79	0.477
3805.41	0.4757
3814.04	0.4745
3822.66	0.473
3831.28	0.471
3839.9	0.469
3848.52	0.4675
3857.15	0.4653
3865.77	0.462
3874.39	0.4588
3883.01	0.457
3891.64	0.456
3900.26	0.455
3908.88	0.454
3917.5	0.453
3926.13	0.451
3934.75	0.449
3943.37	0.4468
3951.99	0.4446
3960.62	0.4423
3969.24	0.44
3977.86	0.4378
3986.48	0.4356
3995.11	0.434
