Infrared Spectrum: 1,4-Bis[(trimethylsilyl)ethynyl]benzene
Formula: C16 H22 Si2
CAS: 73392-23-1
State: gas
Origin: EPA-IR VAPOR PHASE LIBRARY
1/CM	ABSORBANCE
549.8	0.0129
559.445	0.00976
569.09	0.0058
578.734	0.00326
588.379	0.00275
598.024	0.00277
607.669	0.00466
617.313	0.02642
626.958	0.03152
636.603	0.0105
646.248	0.00762
655.893	0.00855
665.537	0.01074
675.182	0.01137
684.827	0.01506
694.472	0.02249
704.116	0.02898
713.761	0.02753
723.406	0.02098
733.051	0.01768
742.695	0.02121
752.34	0.0349
761.985	0.05746
771.63	0.05642
781.275	0.04927
790.919	0.03606
800.564	0.03083
810.209	0.04143
819.854	0.07172
829.498	0.1426
839.143	0.27185
848.788	0.3633
858.433	0.36199
868.078	0.3718
877.722	0.18944
887.367	0.11435
897.012	0.07659
906.657	0.04898
916.301	0.03277
925.946	0.02216
935.591	0.01454
945.236	0.00955
954.88	0.00634
964.525	0.00605
974.17	0.00437
983.815	0.00429
993.46	0.00467
1003.1	0.0055
1012.75	0.00685
1022.39	0.01023
1032.04	0.00438
1041.68	0.00449
1051.33	0.00659
1060.97	0.00486
1070.62	0.00409
1080.26	0.0039
1089.91	0.00513
1099.55	0.00336
1109.2	0.00402
1118.84	0.00292
1128.49	0.0017835
1138.13	0.0020089
1147.78	0.0015391
1157.42	0.00516
1167.07	0.0018179
1176.71	0.0017671
1186.36	0.00216
1196	0.00417
1205.64	0.01319
1215.29	0.02636
1224.93	0.02919
1234.58	0.07054
1244.22	0.05782
1253.87	0.08094
1263.51	0.07483
1273.16	0.04108
1282.8	0.017
1292.45	0.00855
1302.09	0.00629
1311.74	0.00599
1321.38	0.00646
1331.03	0.00547
1340.67	0.00453
1350.32	0.00377
1359.96	0.00345
1369.61	0.00361
1379.25	0.00435
1388.9	0.00556
1398.54	0.00739
1408.18	0.00808
1417.83	0.00711
1427.47	0.00524
1437.12	0.00414
1446.76	0.00393
1456.41	0.00417
1466.05	0.00425
1475.7	0.00623
1485.34	0.02916
1494.99	0.06664
1504.63	0.04414
1514.28	0.01449
1523.92	0.00576
1533.57	0.00449
1543.21	0.00363
1552.86	0.00308
1562.5	0.00262
1572.15	0.0026
1581.79	0.00236
1591.44	0.0019096
1601.08	0.0018028
1610.73	0.0018278
1620.37	0.0017751
1630.01	0.0012782
1639.66	0.0014561
1649.3	0.00207
1658.95	0.00234
1668.59	0.0018752
1678.24	0.00102399
1687.88	0.000689
1697.53	0.000711
1707.17	0.00074
1716.82	0.000441
1726.46	0.000358
1736.11	0.000151
1745.75	0.000712
1755.4	0.000713
1765.04	0.000681
1774.69	0.0015089
1784.33	0.0020004
1793.98	0.0017302
1803.62	0.0016919
1813.27	0.001204
1822.91	0.00110695
1832.55	0.00107978
1842.2	0.0011856
1851.84	0.0013828
1861.49	0.0016475
1871.13	0.0018066
1880.78	0.00206
1890.42	0.00271
1900.07	0.00334
1909.71	0.0035
1919.36	0.00305
1929	0.00238
1938.65	0.00242
1948.29	0.00306
1957.94	0.00296
1967.58	0.00257
1977.23	0.00232
1986.87	0.00228
1996.52	0.00277
2006.16	0.00325
2015.81	0.0036
2025.45	0.00291
2035.1	0.00244
2044.74	0.00274
2054.38	0.00313
2064.03	0.00367
2073.67	0.00407
2083.32	0.00434
2092.96	0.00478
2102.61	0.00598
2112.25	0.00765
2121.9	0.00861
2131.54	0.01378
2141.19	0.04527
2150.83	0.13099
2160.48	0.1018
2170.12	0.01505
2179.77	0.00518
2189.41	0.00304
2199.06	0.00236
2208.7	0.0018664
2218.35	0.0017734
2227.99	0.0015467
2237.64	0.0014764
2247.28	0.0018243
2256.92	0.0016467
2266.57	0.001563
2276.21	0.0017054
2285.86	0.00227
2295.5	0.00376
2305.15	0.00302
2314.79	0.0018504
2324.44	0.0014048
2334.08	0.0013888
2343.73	0.0015641
2353.37	0.0010889
2363.02	0.00111165
2372.66	0.001287
2382.31	0.0013448
2391.95	0.0012169
2401.6	0.00107436
2411.24	0.00109833
2420.89	0.0015483
2430.53	0.00229
2440.18	0.00228
2449.82	0.00215
2459.47	0.0018898
2469.11	0.0018514
2478.75	0.0014809
2488.4	0.0015916
2498.04	0.0017628
2507.69	0.0017906
2517.33	0.001661
2526.98	0.0016251
2536.62	0.0018434
2546.27	0.00217
2555.91	0.00218
2565.56	0.00203
2575.2	0.0014505
2584.85	0.0016967
2594.49	0.0013424
2604.14	0.0015438
2613.78	0.0017026
2623.43	0.0013285
2633.07	0.0012527
2642.72	0.0015034
2652.36	0.0016564
2662.01	0.0016493
2671.65	0.0013315
2681.29	0.001259
2690.94	0.0011515
2700.58	0.0016028
2710.23	0.0013864
2719.87	0.0017977
2729.52	0.0017854
2739.16	0.0018273
2748.81	0.00259
2758.45	0.00239
2768.1	0.00266
2777.74	0.0033
2787.39	0.00418
2797.03	0.00498
2806.68	0.00575
2816.32	0.00548
2825.97	0.00579
2835.61	0.0059
2845.26	0.00653
2854.9	0.00715
2864.55	0.00828
2874.19	0.00872
2883.84	0.01056
2893.48	0.01581
2903.12	0.02561
2912.77	0.02326
2922.41	0.01413
2932.06	0.01193
2941.7	0.01488
2951.35	0.02836
2960.99	0.07455
2970.64	0.06537
2980.28	0.03162
2989.93	0.01597
2999.57	0.0088
3009.22	0.00736
3018.86	0.00743
3028.51	0.0076
3038.15	0.01177
3047.8	0.01147
3057.44	0.00895
3067.09	0.01073
3076.73	0.01216
3086.38	0.01299
3096.02	0.0106
3105.67	0.00831
3115.31	0.00747
3124.95	0.00536
3134.6	0.00426
3144.24	0.00305
3153.89	0.00243
3163.53	0.00258
3173.18	0.00268
3182.82	0.00255
3192.47	0.00256
3202.11	0.0020167
3211.76	0.0013411
3221.4	0.0009641
3231.05	0.0012809
3240.69	0.001502
3250.34	0.0015169
3259.98	0.0019071
3269.63	0.0015996
3279.27	0.0017928
3288.92	0.0016773
3298.56	0.0016901
3308.21	0.00109141
3317.85	0.00107281
3327.49	0.000867
3337.14	0.0011375
3346.78	0.000917
3356.43	0.00109367
3366.07	0.000895
3375.72	0.001144
3385.36	0.001387
3395.01	0.000641
3404.65	0.001178
3414.3	0.00105751
3423.94	0.000707
3433.59	0.000372
3443.23	0.00110923
3452.88	0.000742
3462.52	0.000857
3472.17	0.000879
3481.81	0.000766
3491.46	0.00106791
3501.1	0.000608
3510.75	0.000558
3520.39	0.000716
3530.04	0.000894
3539.68	0.0012699
3549.32	0.0011648
3558.97	0.00106993
3568.61	0.0015481
3578.26	0.0012999
3587.9	0.0018045
3597.55	0.0011784
3607.19	0.0016025
3616.84	0.0019217
3626.48	0.0016043
3636.13	0.0018986
3645.77	0.00227
3655.42	0.0018855
3665.06	0.00288
3674.71	0.00267
3684.35	0.00239
3694	0.0015605
3703.64	0.0017733
3713.29	0.0023
3722.93	0.00248
3732.58	0.00279
3742.22	0.00221
3751.86	0.0020119
3761.51	0.00272
3771.15	0.00205
3780.8	0.00213
3790.44	0.0018089
3800.09	0.00222
3809.73	0.0017418
3819.38	0.0016772
3829.02	0.0015934
3838.67	0.0012862
3848.31	0.0013707
3857.96	0.0014288
3867.6	0.000772
3877.25	0.0017166
3886.89	0.0013141
3896.54	0.0012401
3906.18	0.000738
3915.83	0.0016641
3925.47	0.0009879
3935.12	0.0012347
3944.76	0.0013922
3954.41	0.000804
3964.05	0.0011909
3973.69	0.00108655
3983.34	0.000324
3992.98	0.0014831
