Infrared Spectrum: TERT-DODECYL MERCAPTAN
Formula: C12 H26 S
CAS: 7341-22-2
State: LIQUID
Class: COBLENTZ
Instrument: Not specified, most likely a prism, grating, or hybrid spectrometer.
Sampling: TRANSMISSION
Path length: 0.003 CM
Resolution: 4
Origin: WYANDOTTE CHEMICALS CORP., WYANDOTTE, MICHIGAN, USA
MICROMETERS	TRANSMITTANCE
2.014	0.965
2.05487	0.96
2.09575	0.962
2.13662	0.965
2.17749	0.957
2.21837	0.938
2.25924	0.936
2.30011	0.931
2.34099	0.93
2.38186	0.928
2.42273	0.928
2.46361	0.928
2.50448	0.935
2.54536	0.94
2.58623	0.943
2.6271	0.957
2.66798	0.964
2.70885	0.964
2.74972	0.962
2.7906	0.952
2.83147	0.938
2.87234	0.931
2.91322	0.919
2.95409	0.906
2.99496	0.897
3.03584	0.88
3.07671	0.861
3.11758	0.834
3.15846	0.813
3.19933	0.817
3.2402	0.805
3.28108	0.757
3.32195	0.53
3.36283	0.192
3.4037	0.1
3.44457	0.092
3.48545	0.098
3.52632	0.302
3.56719	0.614
3.60807	0.73
3.64894	0.759
3.68981	0.773
3.73069	0.8
3.77156	0.813
3.81243	0.819
3.85331	0.819
3.89418	0.817
3.93505	0.831
3.97593	0.851
4.0168	0.86
4.05767	0.863
4.09855	0.87
4.13942	0.865
4.1803	0.87
4.22117	0.868
4.26204	0.875
4.30292	0.889
4.34379	0.899
4.38466	0.899
4.42554	0.899
4.46641	0.899
4.50728	0.902
4.54816	0.911
4.58903	0.918
4.6299	0.921
4.67078	0.921
4.71165	0.919
4.75252	0.918
4.7934	0.912
4.83427	0.918
4.87514	0.921
4.91602	0.923
4.95689	0.926
4.99777	0.926
5.03864	0.923
5.07951	0.923
5.12039	0.918
5.16126	0.921
5.20213	0.919
5.24301	0.916
5.28388	0.912
5.32475	0.912
5.36563	0.909
5.4065	0.909
5.44737	0.912
5.48825	0.909
5.52912	0.909
5.56999	0.902
5.61087	0.901
5.65174	0.902
5.69261	0.897
5.73349	0.89
5.77436	0.87
5.81524	0.86
5.85611	0.843
5.89698	0.822
5.93786	0.805
5.97873	0.807
6.0196	0.807
6.06048	0.808
6.10135	0.81
6.14222	0.81
6.1831	0.81
6.22397	0.812
6.26484	0.822
6.30572	0.829
6.34659	0.829
6.38746	0.832
6.42834	0.834
6.46921	0.827
6.51008	0.815
6.55096	0.812
6.59183	0.805
6.63271	0.771
6.67358	0.725
6.71445	0.583
6.75533	0.39
6.7962	0.175
6.83707	0.155
6.87795	0.252
6.91882	0.431
6.95969	0.59
7.00057	0.689
7.04144	0.723
7.08231	0.732
7.12319	0.72
7.16406	0.602
7.20493	0.373
7.24581	0.22
7.28668	0.315
7.32755	0.431
7.36843	0.655
7.4093	0.704
7.45018	0.715
7.49105	0.711
7.53192	0.721
7.5728	0.737
7.61367	0.737
7.65454	0.726
7.69542	0.72
7.73629	0.72
7.77716	0.721
7.81804	0.73
7.85891	0.73
7.89978	0.725
7.94066	0.721
7.98153	0.711
8.0224	0.706
8.06328	0.703
8.10415	0.699
8.14502	0.697
8.1859	0.691
8.22677	0.687
8.26765	0.672
8.30852	0.68
8.34939	0.699
8.39027	0.699
8.43114	0.696
8.47201	0.692
8.51289	0.667
8.55376	0.651
8.59463	0.636
8.63551	0.6
8.67638	0.569
8.71725	0.559
8.75813	0.558
8.799	0.561
8.83987	0.568
8.88075	0.592
8.92162	0.597
8.96249	0.59
9.00337	0.609
9.04424	0.622
9.08512	0.648
9.12599	0.656
9.16686	0.672
9.20774	0.686
9.24861	0.696
9.28948	0.701
9.33036	0.709
9.37123	0.716
9.4121	0.72
9.45298	0.723
9.49385	0.721
9.53472	0.711
9.5756	0.716
9.61647	0.708
9.65734	0.708
9.69822	0.709
9.73909	0.709
9.77996	0.708
9.82084	0.701
9.86171	0.699
9.90259	0.696
9.94346	0.699
9.98433	0.715
10.0252	0.728
10.0661	0.749
10.107	0.755
10.1478	0.752
10.1887	0.75
10.2296	0.75
10.2704	0.749
10.3113	0.749
10.3522	0.74
10.3931	0.744
10.4339	0.749
10.4748	0.759
10.5157	0.762
10.5566	0.767
10.5974	0.769
10.6383	0.769
10.6792	0.771
10.7201	0.771
10.7609	0.769
10.8018	0.767
10.8427	0.766
10.8835	0.75
10.9244	0.755
10.9653	0.769
11.0062	0.771
11.047	0.773
11.0879	0.779
11.1288	0.793
11.1697	0.79
11.2105	0.793
11.2514	0.796
11.2923	0.8
11.3332	0.802
11.374	0.803
11.4149	0.803
11.4558	0.798
11.4967	0.793
11.5375	0.781
11.5784	0.779
11.6193	0.779
11.6601	0.778
11.701	0.776
11.7419	0.781
11.7828	0.783
11.8236	0.784
11.8645	0.786
11.9054	0.79
11.9463	0.8
11.9871	0.798
12.028	0.798
12.0689	0.796
12.1098	0.784
12.1506	0.788
12.1915	0.786
12.2324	0.786
12.2732	0.778
12.3141	0.779
12.355	0.786
12.3959	0.79
12.4367	0.791
12.4776	0.795
12.5185	0.796
12.5594	0.798
12.6002	0.798
12.6411	0.798
12.682	0.798
12.7229	0.796
12.7637	0.781
12.8046	0.779
12.8455	0.776
12.8864	0.778
12.9272	0.779
12.9681	0.781
13.009	0.779
13.0498	0.783
13.0907	0.793
13.1316	0.802
13.1725	0.802
13.2133	0.8
13.2542	0.802
13.2951	0.802
13.336	0.802
13.3768	0.798
13.4177	0.796
13.4586	0.79
13.4995	0.781
13.5403	0.779
13.5812	0.778
13.6221	0.783
13.6629	0.795
13.7038	0.798
13.7447	0.802
13.7856	0.805
13.8264	0.812
13.8673	0.81
13.9082	0.817
13.9491	0.827
13.9899	0.827
14.0308	0.829
14.0717	0.831
14.1126	0.837
14.1534	0.843
14.1943	0.844
14.2352	0.846
14.276	0.846
14.3169	0.848
14.3578	0.849
14.3987	0.843
14.4395	0.844
14.4804	0.851
14.5213	0.848
14.5622	0.849
14.603	0.844
14.6439	0.831
14.6848	0.832
14.7257	0.839
14.7665	0.832
14.8074	0.832
14.8483	0.829
14.8892	0.829
14.93	0.822
14.9709	0.82
15.0118	0.824
15.0526	0.81
15.0935	0.82
15.1344	0.822
15.1753	0.81
15.2161	0.805
15.257	0.802
15.2979	0.798
15.3388	0.796
15.3796	0.798
15.4205	0.788
15.4614	0.786
15.5023	0.783
15.5431	0.778
15.584	0.776
15.6249	0.774
15.6657	0.769
15.7066	0.769
15.7475	0.767
15.7884	0.762
15.8292	0.755
15.8701	0.757
15.911	0.752
15.9519	0.755
