Infrared Spectrum: TERT-OCTYL MERCAPTAN
Formula: C8 H18 S
CAS: 7341-16-4
State: LIQUID
Class: COBLENTZ
Instrument: Not specified, most likely a prism, grating, or hybrid spectrometer.
Sampling: TRANSMISSION
Path length: 0.003 CM
Resolution: 4
Origin: WYANDOTTE CHEMICALS CORP., WYANDOTTE, MICHIGAN, USA
MICROMETERS	TRANSMITTANCE
2.027	0.969
2.06786	0.976
2.10871	0.974
2.14957	0.96
2.19042	0.95
2.23128	0.948
2.27213	0.948
2.31299	0.943
2.35384	0.94
2.3947	0.94
2.43556	0.953
2.47641	0.959
2.51727	0.959
2.55812	0.96
2.59898	0.96
2.63983	0.967
2.68069	0.977
2.72155	0.977
2.7624	0.969
2.80326	0.955
2.84411	0.947
2.88497	0.933
2.92582	0.911
2.96668	0.901
3.00753	0.892
3.04839	0.895
3.08925	0.868
3.1301	0.843
3.17096	0.843
3.21181	0.836
3.25267	0.805
3.29352	0.624
3.33438	0.189
3.37524	0.078
3.41609	0.083
3.45695	0.107
3.4978	0.331
3.53866	0.622
3.57951	0.747
3.62037	0.793
3.66122	0.808
3.70208	0.829
3.74294	0.839
3.78379	0.856
3.82465	0.861
3.8655	0.851
3.90636	0.858
3.94721	0.868
3.98807	0.878
4.02892	0.885
4.06978	0.895
4.11064	0.901
4.15149	0.902
4.19235	0.899
4.2332	0.899
4.27406	0.93
4.31491	0.94
4.35577	0.943
4.39663	0.924
4.43748	0.921
4.47834	0.923
4.51919	0.93
4.56005	0.926
4.6009	0.928
4.64176	0.93
4.68261	0.93
4.72347	0.935
4.76433	0.95
4.80518	0.945
4.84604	0.947
4.88689	0.95
4.92775	0.945
4.9686	0.941
5.00946	0.948
5.05032	0.95
5.09117	0.952
5.13203	0.95
5.17288	0.938
5.21374	0.935
5.25459	0.933
5.29545	0.931
5.3363	0.928
5.37716	0.931
5.41802	0.933
5.45887	0.933
5.49973	0.931
5.54058	0.93
5.58144	0.924
5.62229	0.921
5.66315	0.912
5.704	0.904
5.74486	0.904
5.78572	0.854
5.82657	0.812
5.86743	0.822
5.90828	0.81
5.94914	0.805
5.98999	0.813
6.03085	0.819
6.07171	0.819
6.11256	0.82
6.15342	0.824
6.19427	0.82
6.23513	0.832
6.27598	0.849
6.31684	0.853
6.35769	0.851
6.39855	0.851
6.43941	0.87
6.48026	0.843
6.52112	0.843
6.56197	0.822
6.60283	0.791
6.64368	0.732
6.68454	0.539
6.7254	0.319
6.76625	0.192
6.80711	0.165
6.84796	0.215
6.88882	0.353
6.92967	0.508
6.97053	0.626
7.01138	0.691
7.05224	0.713
7.0931	0.701
7.13395	0.537
7.17481	0.402
7.21566	0.279
7.25652	0.291
7.29737	0.179
7.33823	0.464
7.37908	0.655
7.41994	0.674
7.4608	0.723
7.50165	0.752
7.54251	0.755
7.58336	0.761
7.62422	0.766
7.66507	0.773
7.70593	0.776
7.74679	0.784
7.78764	0.793
7.8285	0.807
7.86935	0.805
7.91021	0.79
7.95106	0.757
7.99192	0.687
8.03277	0.65
8.07363	0.66
8.11449	0.65
8.15534	0.61
8.1962	0.605
8.23705	0.585
8.27791	0.52
8.31876	0.503
8.35962	0.573
8.40048	0.634
8.44133	0.668
8.48219	0.691
8.52304	0.694
8.5639	0.682
8.60475	0.616
8.64561	0.547
8.68646	0.53
8.72732	0.53
8.76818	0.539
8.80903	0.534
8.84989	0.532
8.89074	0.484
8.9316	0.39
8.97245	0.428
9.01331	0.501
9.05416	0.544
9.09502	0.587
9.13588	0.653
9.17673	0.675
9.21759	0.689
9.25844	0.697
9.2993	0.706
9.34015	0.684
9.38101	0.701
9.42187	0.725
9.46272	0.73
9.50358	0.732
9.54443	0.733
9.58529	0.74
9.62614	0.733
9.667	0.733
9.70785	0.74
9.74871	0.732
9.78957	0.733
9.83042	0.732
9.87128	0.737
9.91213	0.733
9.95299	0.745
9.99384	0.752
10.0347	0.752
10.0756	0.74
10.1164	0.718
10.1573	0.668
10.1981	0.704
10.239	0.754
10.2798	0.776
10.3207	0.783
10.3615	0.783
10.4024	0.784
10.4433	0.798
10.4841	0.805
10.525	0.813
10.5658	0.815
10.6067	0.813
10.6475	0.802
10.6884	0.795
10.7292	0.786
10.7701	0.793
10.811	0.79
10.8518	0.783
10.8927	0.783
10.9335	0.79
10.9744	0.8
11.0152	0.808
11.0561	0.813
11.0969	0.815
11.1378	0.812
11.1787	0.822
11.2195	0.82
11.2604	0.824
11.3012	0.829
11.3421	0.831
11.3829	0.827
11.4238	0.824
11.4646	0.808
11.5055	0.802
11.5464	0.79
11.5872	0.781
11.6281	0.776
11.6689	0.776
11.7098	0.784
11.7506	0.8
11.7915	0.813
11.8323	0.825
11.8732	0.836
11.9141	0.834
11.9549	0.843
11.9958	0.839
12.0366	0.831
12.0775	0.824
12.1183	0.822
12.1592	0.81
12.2	0.807
12.2409	0.8
12.2818	0.798
12.3226	0.798
12.3635	0.802
12.4043	0.803
12.4452	0.805
12.486	0.802
12.5269	0.8
12.5677	0.786
12.6086	0.773
12.6495	0.779
12.6903	0.791
12.7312	0.8
12.772	0.798
12.8129	0.798
12.8537	0.798
12.8946	0.803
12.9354	0.803
12.9763	0.805
13.0172	0.813
13.058	0.817
13.0989	0.817
13.1397	0.817
13.1806	0.834
13.2214	0.836
13.2623	0.834
13.3031	0.839
13.344	0.839
13.3849	0.841
13.4257	0.841
13.4666	0.843
13.5074	0.839
13.5483	0.839
13.5891	0.844
13.63	0.853
13.6708	0.849
13.7117	0.846
13.7526	0.848
13.7934	0.853
13.8343	0.86
13.8751	0.858
13.916	0.863
13.9568	0.858
13.9977	0.86
14.0385	0.863
14.0794	0.868
14.1203	0.872
14.1611	0.872
14.202	0.877
14.2428	0.872
14.2837	0.872
14.3245	0.872
14.3654	0.865
14.4062	0.861
14.4471	0.86
14.488	0.865
14.5288	0.86
14.5697	0.865
14.6105	0.863
14.6514	0.858
14.6922	0.854
14.7331	0.86
14.774	0.861
14.8148	0.854
14.8557	0.853
14.8965	0.853
14.9374	0.849
14.9782	0.843
15.0191	0.829
15.0599	0.827
15.1008	0.822
15.1417	0.817
15.1825	0.822
15.2234	0.815
15.2642	0.81
15.3051	0.81
15.3459	0.81
15.3868	0.8
15.4276	0.783
15.4685	0.781
15.5094	0.783
15.5502	0.781
15.5911	0.771
15.6319	0.766
15.6728	0.766
15.7136	0.773
15.7545	0.776
15.7953	0.778
15.8362	0.774
15.8771	0.769
15.9179	0.762
15.9588	0.757
