Infrared Spectrum: 2,4-DINITROPHENYLHYDRAZONE OF Delta^3-CYCLOHEXENYLMETHYLKETONE
Formula: C14 H16 N4 O4
CAS: 7350-34-7
State: SOLID (OIL MULL)
Class: COBLENTZ
Instrument: Not specified, most likely a prism, grating, or hybrid spectrometer.
Sampling: TRANSMISSION
Resolution: 4
MICROMETERS	TRANSMITTANCE
2.04	0.338
2.08019	0.35
2.12037	0.361
2.16056	0.37
2.20074	0.378
2.24093	0.388
2.28111	0.398
2.3213	0.399
2.36148	0.404
2.40167	0.414
2.44185	0.422
2.48204	0.427
2.52222	0.437
2.56241	0.449
2.60259	0.46
2.64278	0.468
2.68296	0.476
2.72315	0.48
2.76333	0.48
2.80352	0.49
2.8437	0.495
2.88389	0.493
2.92407	0.491
2.96426	0.496
3.00444	0.47
3.04463	0.384
3.08481	0.481
3.125	0.5
3.16518	0.503
3.20537	0.49
3.24555	0.411
3.28574	0.468
3.32592	0.409
3.36611	0.238
3.40629	0.095
3.44648	0.044
3.48666	0.06
3.52685	0.092
3.56703	0.437
3.60722	0.524
3.6474	0.56
3.68759	0.57
3.72777	0.578
3.76796	0.582
3.80814	0.587
3.84833	0.597
3.88851	0.615
3.9287	0.618
3.96888	0.629
4.00907	0.636
4.04925	0.634
4.08944	0.639
4.12962	0.643
4.16981	0.643
4.20999	0.644
4.25018	0.649
4.29036	0.657
4.33055	0.662
4.37073	0.662
4.41092	0.666
4.4511	0.671
4.49129	0.679
4.53147	0.685
4.57166	0.68
4.61184	0.692
4.65203	0.695
4.69221	0.699
4.7324	0.699
4.77258	0.705
4.81277	0.707
4.85295	0.708
4.89314	0.715
4.93332	0.717
4.97351	0.718
5.01369	0.726
5.05388	0.715
5.09406	0.699
5.13425	0.725
5.17443	0.735
5.21462	0.738
5.2548	0.743
5.29499	0.746
5.33517	0.746
5.37536	0.748
5.41555	0.75
5.45573	0.746
5.49592	0.725
5.5361	0.748
5.57629	0.761
5.61647	0.758
5.65666	0.758
5.69684	0.758
5.73703	0.761
5.77721	0.758
5.8174	0.758
5.85758	0.748
5.89777	0.731
5.93795	0.7
5.97814	0.705
6.01832	0.68
6.05851	0.634
6.09869	0.501
6.13888	0.162
6.17906	0.157
6.21925	0.328
6.25943	0.156
6.29962	0.141
6.3398	0.325
6.37999	0.514
6.42017	0.595
6.46036	0.618
6.50054	0.583
6.54073	0.386
6.58091	0.281
6.6211	0.259
6.66128	0.199
6.70147	0.233
6.74165	0.425
6.78184	0.43
6.82202	0.268
6.86221	0.212
6.90239	0.22
6.94258	0.258
6.98276	0.277
7.02295	0.238
7.06313	0.139
7.10332	0.279
7.1435	0.496
7.18369	0.56
7.22387	0.488
7.26406	0.35
7.30424	0.292
7.34443	0.231
7.38461	0.297
7.4248	0.348
7.46498	0.138
7.50517	0.131
7.54535	0.246
7.58554	0.236
7.62572	0.138
7.66591	0.139
7.70609	0.125
7.74628	0.166
7.78646	0.245
7.82665	0.199
7.86683	0.126
7.90702	0.072
7.9472	0.062
7.98739	0.118
8.02757	0.256
8.06776	0.366
8.10794	0.445
8.14813	0.409
8.18831	0.177
8.2285	0.171
8.26868	0.315
8.30887	0.432
8.34905	0.452
8.38924	0.508
8.42942	0.526
8.46961	0.577
8.50979	0.62
8.54998	0.628
8.59016	0.638
8.63035	0.629
8.67053	0.536
8.71072	0.348
8.7509	0.21
8.79109	0.22
8.83128	0.195
8.87146	0.251
8.91165	0.351
8.95183	0.414
8.99202	0.44
9.0322	0.46
9.07239	0.437
9.11257	0.48
9.15276	0.529
9.19294	0.541
9.23313	0.511
9.27331	0.43
9.3135	0.363
9.35368	0.368
9.39387	0.452
9.43405	0.467
9.47424	0.427
9.51442	0.472
9.55461	0.5
9.59479	0.534
9.63498	0.583
9.67516	0.628
9.71535	0.639
9.75553	0.644
9.79572	0.634
9.8359	0.631
9.87609	0.657
9.91627	0.667
9.95646	0.674
9.99664	0.672
10.0368	0.649
10.077	0.646
10.1172	0.669
10.1574	0.684
10.1976	0.692
10.2378	0.685
10.2779	0.644
10.3181	0.646
10.3583	0.674
10.3985	0.687
10.4387	0.703
10.4789	0.7
10.519	0.71
10.5592	0.708
10.5994	0.712
10.6396	0.713
10.6798	0.708
10.72	0.671
10.7602	0.532
10.8003	0.376
10.8405	0.46
10.8807	0.534
10.9209	0.391
10.9611	0.36
11.0013	0.578
11.0415	0.659
11.0816	0.652
11.1218	0.664
11.162	0.702
11.2022	0.712
11.2424	0.722
11.2826	0.733
11.3227	0.735
11.3629	0.745
11.4031	0.746
11.4433	0.746
11.4835	0.745
11.5237	0.73
11.5639	0.733
11.604	0.733
11.6442	0.735
11.6844	0.712
11.7246	0.667
11.7648	0.516
11.805	0.276
11.8452	0.35
11.8853	0.593
11.9255	0.694
11.9657	0.715
12.0059	0.618
12.0461	0.562
12.0863	0.707
12.1264	0.743
12.1666	0.759
12.2068	0.768
12.247	0.768
12.2872	0.771
12.3274	0.773
12.3676	0.769
12.4077	0.763
12.4479	0.761
12.4881	0.745
12.5283	0.748
12.5685	0.763
12.6087	0.763
12.6489	0.763
12.689	0.761
12.7292	0.759
12.7694	0.758
12.8096	0.761
12.8498	0.758
12.89	0.756
12.9302	0.748
12.9703	0.743
13.0105	0.649
13.0507	0.59
13.0909	0.651
13.1311	0.705
13.1713	0.708
13.2114	0.705
13.2516	0.695
13.2918	0.659
13.332	0.583
13.3722	0.399
13.4124	0.304
13.4526	0.335
13.4927	0.304
13.5329	0.467
13.5731	0.569
13.6133	0.629
13.6535	0.646
13.6937	0.648
13.7339	0.649
13.774	0.654
13.8142	0.646
13.8544	0.633
13.8946	0.616
13.9348	0.587
13.975	0.434
14.0151	0.345
14.0553	0.398
14.0955	0.516
14.1357	0.593
14.1759	0.629
14.2161	0.654
14.2563	0.659
14.2964	0.661
14.3366	0.661
14.3768	0.656
14.417	0.646
14.4572	0.616
14.4974	0.578
14.5376	0.562
14.5777	0.577
14.6179	0.601
14.6581	0.615
14.6983	0.608
14.7385	0.6
14.7787	0.574
14.8188	0.516
14.859	0.437
14.8992	0.36
14.9394	0.342
14.9796	0.373
15.0198	0.439
15.06	0.463
15.1001	0.462
15.1403	0.467
15.1805	0.47
15.2207	0.455
15.2609	0.427
15.3011	0.406
15.3413	0.429
15.3814	0.449
15.4216	0.473
15.4618	0.493
