Infrared Spectrum: 5-Bromo-2,4-dihydroxybenzoic acid
Formula: C 7 H 5 Br O 4
CAS: 7355-22-8
State: gas
Instrument: HP-GC/MS/IRD
Origin: NIST Mass Spectrometry Data Center
1/CM	ABSORBANCE
550	0.0047866
562	0.0116753
574	0.0080626
586	0.0158886
598	0.0082901
610	0.0024206
622	0.0022386
634	0.0024024
646	0.0036673
658	0.0119847
670	0.010101
682	0.0058331
694	0.0060515
706	0.0048594
718	0.0036946
730	0.0019292
742	0.0019292
754	0.0026936
766	0.0049777
778	0.0068432
790	0.0094913
802	0.0033488
814	0.0010465
826	0.0012558
838	0.0020202
850	0.0044135
862	0.0057148
874	0.0013832
886	0.0012012
898	0.0023023
910	0.0011375
922	0.000182
934	0.0001092
946	0.0003276
958	0.0002821
970	0.0003549
982	6.37e-05
994	0.0003003
1006	0.0009828
1018	0.0010556
1030	0.0010283
1042	0.0015197
1054	0.0026117
1066	0.0078533
1078	0.0211302
1090	0.0174447
1102	0.0094731
1114	0.0074074
1126	0.0091546
1138	0.012467
1150	0.0229502
1162	0.063063
1174	0.0823732
1186	0.0350714
1198	0.0184275
1210	0.0155701
1222	0.0168714
1234	0.018746
1246	0.0141505
1258	0.0085813
1270	0.0069797
1282	0.0109655
1294	0.024115
1306	0.0312039
1318	0.0137046
1330	0.008645
1342	0.0106834
1354	0.0087997
1366	0.0072527
1378	0.0136045
1390	0.0259259
1402	0.0308399
1414	0.0236145
1426	0.0110747
1438	0.0083629
1450	0.01183
1462	0.0140049
1474	0.0240058
1486	0.0267813
1498	0.0090909
1510	0.004641
1522	0.0031304
1534	0.0027846
1546	0.0036127
1558	0.0054509
1570	0.0108199
1582	0.0171353
1594	0.0156611
1606	0.0173719
1618	0.0216671
1630	0.0146601
1642	0.0062881
1654	0.0039403
1666	0.0048867
1678	0.0070616
1690	0.0124852
1702	0.0493038
1714	0.0887796
1726	0.0248703
1738	0.0078806
1750	0.0058604
1762	0.0074802
1774	0.0051506
1786	0.0024388
1798	0.0013923
1810	0.0009646
1822	0.0007007
1834	0.0003913
1846	0.0003276
1858	0.0003822
1870	0.0001729
1882	0.0001638
1894	0.0003276
1906	0.0003458
1918	0.0002548
1930	0.0003549
1942	0.0003731
1954	0.0002457
1966	0.0001729
1978	0.0001092
1990	5.46e-05
2002	2.73e-05
2014	0
2026	0
2038	3.64e-05
2050	7.28e-05
2062	1.82e-05
2074	4.55e-05
2086	0.0001729
2098	0.0001729
2110	6.37e-05
2122	2.73e-05
2134	6.37e-05
2146	0.0001274
2158	0.000182
2170	0.0001547
2182	7.28e-05
2194	4.55e-05
2206	4.55e-05
2218	6.37e-05
2230	5.46e-05
2242	5.46e-05
2254	7.28e-05
2266	6.37e-05
2278	0.0002184
2290	0.0005733
2302	0.0010829
2314	0.0017654
2326	0.0022204
2338	0.0021112
2350	0.0017017
2362	0.0028119
2374	0.0020657
2386	0.0005551
2398	0.0001729
2410	0.0001638
2422	0.0001092
2434	8.19e-05
2446	0.000182
2458	0.0003276
2470	0.0003731
2482	0.0003458
2494	0.0002457
2506	0.000273
2518	0.0004186
2530	0.0004004
2542	0.0003276
2554	0.0002366
2566	0.0002184
2578	0.0001911
2590	0.0001729
2602	0.0002912
2614	0.0003458
2626	0.0004641
2638	0.0004732
2650	0.0004004
2662	0.0003367
2674	0.0002457
2686	0.0002912
2698	0.0002548
2710	0.0002184
2722	0.0001456
2734	0.000182
2746	0.0001547
2758	0.0001456
2770	0.0001456
2782	0.0002457
2794	0.0003003
2806	0.0002457
2818	0.000273
2830	0.0002548
2842	0.0003458
2854	0.0005005
2866	0.0006006
2878	0.0006006
2890	0.0005733
2902	0.0005733
2914	0.0005187
2926	0.0005096
2938	0.0005642
2950	0.0005824
2962	0.000637
2974	0.0006552
2986	0.0006643
2998	0.0006279
3010	0.0005915
3022	0.0006916
3034	0.0006916
3046	0.0007098
3058	0.0007644
3070	0.0009009
3082	0.0010647
3094	0.0011739
3106	0.0010374
3118	0.0009373
3130	0.0009282
3142	0.0009282
3154	0.0011284
3166	0.0013286
3178	0.00182
3190	0.0026481
3202	0.00364
3214	0.0050414
3226	0.0065793
3238	0.0077987
3250	0.0080444
3262	0.0074347
3274	0.0065156
3286	0.0055328
3298	0.0048048
3310	0.0045045
3322	0.0040222
3334	0.0037037
3346	0.003276
3358	0.0028847
3370	0.0025207
3382	0.0022659
3394	0.0021567
3406	0.0020566
3418	0.0018655
3430	0.0014742
3442	0.0012922
3454	0.0011557
3466	0.0011102
3478	0.0011193
3490	0.0012285
3502	0.001638
3514	0.0029393
3526	0.0063973
3538	0.0257712
3550	0.0178269
3562	0.0064246
3574	0.0177086
3586	0.0257257
3598	0.0032487
3610	0.0008463
3622	0.0006552
3634	0.001547
3646	0.0018746
3658	0.000728
3670	0.000182
3682	0.0001092
3694	0.0001001
3706	0
3718	1.82e-05
3730	0
3742	0
3754	0
3766	0
3778	0
3790	0
3802	0
3814	0
3826	0
3838	0
