Infrared Spectrum: 2,5-Dimethylphenoxyacetic acid
Formula: C 10 H 12 O 3
CAS: 7356-41-4
State: gas
Origin: EPA-IR VAPOR PHASE LIBRARY
1/CM	ABSORBANCE
549.9	0.02952
559.547	0.03485
569.193	0.03874
578.84	0.03917
588.486	0.03932
598.133	0.04081
607.779	0.04417
617.426	0.04619
627.072	0.0451
636.719	0.04019
646.365	0.03491
656.012	0.03021
665.658	0.02581
675.305	0.02165
684.951	0.01763
694.598	0.01469
704.245	0.01267
713.891	0.01233
723.538	0.01302
733.184	0.01113
742.831	0.00962
752.477	0.0109
762.124	0.01357
771.77	0.01399
781.417	0.01223
791.063	0.02261
800.71	0.04818
810.356	0.03709
820.003	0.01592
829.649	0.0128
839.296	0.01683
848.943	0.0184
858.589	0.01643
868.236	0.01454
877.882	0.01269
887.529	0.0107
897.175	0.00971
906.822	0.01081
916.468	0.01478
926.115	0.01654
935.761	0.01431
945.408	0.01112
955.054	0.01041
964.701	0.01233
974.347	0.01617
983.994	0.02121
993.64	0.02362
1003.29	0.02232
1012.93	0.02317
1022.58	0.02724
1032.23	0.03564
1041.87	0.05292
1051.52	0.07287
1061.17	0.08723
1070.81	0.09253
1080.46	0.07193
1090.11	0.05287
1099.75	0.07712
1109.4	0.15377
1119.05	0.21915
1128.69	0.19536
1138.34	0.13048
1147.99	0.11985
1157.63	0.11988
1167.28	0.08886
1176.92	0.0616
1186.57	0.04502
1196.22	0.03809
1205.86	0.03674
1215.51	0.03724
1225.16	0.04547
1234.8	0.07321
1244.45	0.10482
1254.1	0.11809
1263.74	0.12419
1273.39	0.09814
1283.04	0.07574
1292.68	0.05783
1302.33	0.04629
1311.98	0.04481
1321.62	0.05141
1331.27	0.06384
1340.92	0.06855
1350.56	0.06442
1360.21	0.05839
1369.86	0.04808
1379.5	0.0392
1389.15	0.03431
1398.79	0.03723
1408.44	0.05695
1418.09	0.06641
1427.73	0.04989
1437.38	0.04101
1447.03	0.03991
1456.67	0.03363
1466.32	0.02761
1475.97	0.02535
1485.61	0.02828
1495.26	0.04634
1504.91	0.09477
1514.55	0.09115
1524.2	0.03737
1533.85	0.02208
1543.49	0.01922
1553.14	0.02016
1562.79	0.02464
1572.43	0.03373
1582.08	0.04111
1591.73	0.03382
1601.37	0.02696
1611.02	0.03184
1620.67	0.03101
1630.31	0.01669
1639.96	0.00923
1649.6	0.00737
1659.25	0.00688
1668.9	0.00703
1678.54	0.00747
1688.19	0.00807
1697.84	0.00879
1707.48	0.01001
1717.13	0.01221
1726.78	0.01671
1736.42	0.02454
1746.07	0.03461
1755.72	0.04944
1765.36	0.07789
1775.01	0.13577
1784.66	0.15289
1794.3	0.14188
1803.95	0.19298
1813.6	0.17981
1823.24	0.09385
1832.89	0.04368
1842.54	0.02672
1852.18	0.01828
1861.83	0.01388
1871.47	0.01159
1881.12	0.00903
1890.77	0.00671
1900.41	0.0054478
1910.06	0.0047617
1919.71	0.004392
1929.35	0.004105
1939	0.00388
1948.65	0.003861
1958.29	0.00391
1967.94	0.004017
1977.59	0.003972
1987.23	0.003901
1996.88	0.003911
2006.53	0.003777
2016.17	0.003769
2025.82	0.003738
2035.47	0.003654
2045.11	0.00355
2054.76	0.00346
2064.41	0.0034
2074.05	0.0034
2083.7	0.00351
2093.35	0.00353
2102.99	0.00354
2112.64	0.0035
2122.28	0.0035
2131.93	0.00361
2141.58	0.003688
2151.22	0.003772
2160.87	0.003801
2170.52	0.003903
2180.16	0.004109
2189.81	0.004193
2199.46	0.004209
2209.1	0.004096
2218.75	0.003973
2228.4	0.00381
2238.04	0.00363
2247.69	0.0034
2257.34	0.00329
2266.98	0.00323
2276.63	0.00326
2286.28	0.00331
2295.92	0.00341
2305.57	0.00356
2315.22	0.00361
2324.86	0.003668
2334.51	0.003687
2344.16	0.003663
2353.8	0.00361
2363.45	0.00361
2373.09	0.0036
2382.74	0.00334
2392.39	0.0033
2402.03	0.00341
2411.68	0.00344
2421.33	0.0034
2430.97	0.00327
2440.62	0.00323
2450.27	0.00314
2459.91	0.00308
2469.56	0.00303
2479.21	0.00296
2488.85	0.00305
2498.5	0.00305
2508.15	0.00307
2517.79	0.00308
2527.44	0.0031
2537.09	0.00315
2546.73	0.00309
2556.38	0.0029
2566.03	0.00276
2575.67	0.00261
2585.32	0.00245
2594.96	0.00226
2604.61	0.00213
2614.26	0.00204
2623.9	0.00207
2633.55	0.00201
2643.2	0.00209
2652.84	0.00213
2662.49	0.00213
2672.14	0.00217
2681.78	0.00223
2691.43	0.00238
2701.08	0.00246
2710.72	0.00244
2720.37	0.00249
2730.02	0.00295
2739.66	0.00396
2749.31	0.003966
2758.96	0.00294
2768.6	0.00263
2778.25	0.00268
2787.9	0.00293
2797.54	0.00333
2807.19	0.00355
2816.84	0.004137
2826.48	0.0050689
2836.13	0.00673
2845.77	0.00966
2855.42	0.01488
2865.07	0.02383
2874.71	0.03025
2884.36	0.02869
2894.01	0.02673
2903.65	0.02887
2913.3	0.03661
2922.95	0.0548
2932.59	0.07525
2942.24	0.06801
2951.89	0.04562
2961.53	0.03477
2971.18	0.02872
2980.83	0.0262
2990.47	0.02497
3000.12	0.02482
3009.77	0.02695
3019.41	0.03058
3029.06	0.03427
3038.71	0.03074
3048.35	0.02986
3058	0.03051
3067.64	0.02097
3077.29	0.0132
3086.94	0.00947
3096.58	0.00683
3106.23	0.00471968
3115.88	0.00334
3125.52	0.00267
3135.17	0.00201
3144.82	0.00117
3154.46	0.00061
3164.11	0.00042
3173.76	0.00035
3183.4	0.00019
3193.05	7e-05
3202.7	7e-05
3212.34	0
3221.99	0.00021
3231.64	7e-05
3241.28	0.0002
3250.93	0.00023
3260.58	0.00033
3270.22	0.00024
3279.87	0.00052
3289.52	0.00051
3299.16	0.00072
3308.81	0.00078
3318.45	0.00061
3328.1	0.00059
3337.75	0.0005
3347.39	0.00059
3357.04	0.00068
3366.69	0.00071
3376.33	0.00078
3385.98	0.0009
3395.63	0.00092
3405.27	0.00121
3414.92	0.0015
3424.57	0.00189
3434.21	0.00219
3443.86	0.00243
3453.51	0.00249
3463.15	0.00298
3472.8	0.004026
3482.45	0.0065
3492.09	0.01141
3501.74	0.01988
3511.39	0.03216
3521.03	0.03528
3530.68	0.02451
3540.33	0.01757
3549.97	0.01627
3559.62	0.02427
3569.26	0.06543
3578.91	0.08051
3588.56	0.0332
3598.2	0.01169
3607.85	0.00722
3617.5	0.0052025
3627.14	0.003958
3636.79	0.00299
3646.44	0.00251
3656.08	0.00228
3665.73	0.00213
3675.38	0.00204
3685.02	0.00204
3694.67	0.00209
3704.32	0.002
3713.96	0.00197
3723.61	0.00211
3733.26	0.00213
3742.9	0.00225
3752.55	0.00211
3762.2	0.00218
3771.84	0.00208
3781.49	0.00209
3791.13	0.00213
3800.78	0.00201
3810.43	0.00204
3820.07	0.00211
3829.72	0.00217
3839.37	0.00214
3849.01	0.00213
3858.66	0.00208
3868.31	0.00208
3877.95	0.00222
3887.6	0.00216
3897.25	0.00225
3906.89	0.00229
3916.54	0.00229
3926.19	0.00234
3935.83	0.00241
3945.48	0.00251
3955.13	0.0025
3964.77	0.00259
3974.42	0.00263
3984.07	0.00257
3993.71	0.00261
