Infrared Spectrum: Bis(2-aminopropyl)amine
Formula: C 6 H 17 N 3
CAS: 7356-00-5
State: gas
Instrument: HP-GC/MS/IRD
Origin: NIST Mass Spectrometry Data Center
1/CM	ABSORBANCE
550	0.0037596
562	0.0008502
574	0.000858
586	0.001092
598	0.0017394
610	0.002379
622	0.0032058
634	0.004407
646	0.00585
658	0.0074646
670	0.0094302
682	0.0112164
694	0.0131898
706	0.0154206
718	0.0182052
730	0.0219804
742	0.0271752
754	0.0316446
766	0.033306
778	0.0323856
790	0.0271674
802	0.0195234
814	0.0140478
826	0.0106548
838	0.008463
850	0.0071292
862	0.0059202
874	0.0049218
886	0.0040638
898	0.003432
910	0.0031434
922	0.0029562
934	0.0027612
946	0.002145
958	0.0023088
970	0.0025662
982	0.0022932
994	0.002535
1006	0.0031122
1018	0.0039078
1030	0.004914
1042	0.0056706
1054	0.0072072
1066	0.0097422
1078	0.0108342
1090	0.0107796
1102	0.011739
1114	0.016029
1126	0.0227058
1138	0.0193986
1150	0.0106236
1162	0.0063102
1174	0.0039858
1186	0.0025116
1198	0.0018252
1210	0.0014976
1222	0.0013494
1234	0.0013026
1246	0.0012792
1258	0.001521
1270	0.001716
1282	0.0018954
1294	0.0024258
1306	0.0029328
1318	0.003471
1330	0.0051402
1342	0.007995
1354	0.0091884
1366	0.0091104
1378	0.0083772
1390	0.0068874
1402	0.004563
1414	0.003549
1426	0.0054522
1438	0.0084708
1450	0.0111228
1462	0.0145002
1474	0.0123786
1486	0.0060996
1498	0.0027768
1510	0.0016926
1522	0.001248
1534	0.0010998
1546	0.0011622
1558	0.0014196
1570	0.0017394
1582	0.0025584
1594	0.004017
1606	0.0065988
1618	0.0098436
1630	0.0093444
1642	0.0055458
1654	0.0028938
1666	0.0014898
1678	0.0007956
1690	0.0004602
1702	0.0003744
1714	0.000234
1726	0.0001638
1738	0.000234
1750	0.0002184
1762	0.0002184
1774	0.0002808
1786	0.0003042
1798	0.0004056
1810	0.0003978
1822	0.0004602
1834	0.0004836
1846	0.000468
1858	0.000351
1870	0.0002574
1882	0.0001248
1894	6.24e-05
1906	3.12e-05
1918	3.9e-05
1930	0
1942	3.12e-05
1954	3.9e-05
1966	6.24e-05
1978	0.0001092
1990	0.0001404
2002	0.0001716
2014	0.0002262
2026	0.0002808
2038	0.0003354
2050	0.0003744
2062	0.0004056
2074	0.0004368
2086	0.0004836
2098	0.000507
2110	0.0005382
2122	0.000585
2134	0.0006162
2146	0.0006474
2158	0.0006552
2170	0.0007098
2182	0.0007332
2194	0.00078
2206	0.0007722
2218	0.0007644
2230	0.0007644
2242	0.0007488
2254	0.0007566
2266	0.0007566
2278	0.00078
2290	0.00078
2302	0.000819
2314	0.0008424
2326	0.0008502
2338	0.0008502
2350	0.0008268
2362	0.0008736
2374	0.0008502
2386	0.0008112
2398	0.0008112
2410	0.000819
2422	0.0008502
2434	0.000858
2446	0.000897
2458	0.000897
2470	0.0009282
2482	0.0009828
2494	0.001014
2506	0.0010842
2518	0.001131
2530	0.0012012
2542	0.0012714
2554	0.0013728
2566	0.0014898
2578	0.0016302
2590	0.001794
2602	0.001989
2614	0.0022464
2626	0.0025038
2638	0.0028158
2650	0.0032448
2662	0.0037908
2674	0.0044304
2686	0.005031
2698	0.005616
2710	0.006162
2722	0.0069186
2734	0.0078078
2746	0.0088296
2758	0.0098514
2770	0.0111072
2782	0.0135252
2794	0.018525
2806	0.0262548
2818	0.0335556
2830	0.0370734
2842	0.0394992
2854	0.0428688
2866	0.0434694
2878	0.0407082
2890	0.0393588
2902	0.0453804
2914	0.0604032
2926	0.075504
2938	0.0753636
2950	0.0540228
2962	0.0307008
2974	0.0161694
2986	0.0089544
2998	0.0056082
3010	0.0039312
3022	0.002925
3034	0.002262
3046	0.0018408
3058	0.0015912
3070	0.001404
3082	0.001287
3094	0.0012246
3106	0.00117
3118	0.0011544
3130	0.0010374
3142	0.0010452
3154	0.0010296
3166	0.001014
3178	0.000975
3190	0.0010296
3202	0.0009906
3214	0.0010452
3226	0.0010062
3238	0.0009672
3250	0.0009516
3262	0.0009984
3274	0.0009906
3286	0.0010608
3298	0.0011466
3310	0.001287
3322	0.0018096
3334	0.0027144
3346	0.003003
3358	0.002418
3370	0.0017862
3382	0.0014898
3394	0.001599
3406	0.0018252
3418	0.0016068
3430	0.0012636
3442	0.0010686
3454	0.0009828
3466	0.0009594
3478	0.0008814
3490	0.000897
3502	0.0009204
3514	0.0008268
3526	0.0008502
3538	0.0008346
3550	0.0008658
3562	0.0007878
3574	0.0008034
3586	0.000819
3598	0.0008268
3610	0.000858
3622	0.0008424
3634	0.0007956
3646	0.0008268
3658	0.0008346
3670	0.0007956
3682	0.0007488
3694	0.0007332
3706	0.0007176
3718	0.0007098
3730	0.000819
3742	0.0008346
3754	0.0007878
3766	0.000702
3778	0.0006708
3790	0.000663
3802	0.0007098
3814	0.0006942
3826	0.0007176
3838	0.0007722
