Infrared Spectrum: 2-Ethyl-3-methyl-1-butene
Formula: C 7 H 14
CAS: 7357-93-9
State: gas
Instrument: HP-GC/MS/IRD
Origin: NIST Mass Spectrometry Data Center
1/CM	ABSORBANCE
550	0.000266
562	0.0002709
574	0.0002205
586	7.35e-05
598	0.0002667
610	0.0002184
622	0.0003094
634	0.0003052
646	0.0003094
658	7.91e-05
670	8.75e-05
682	0.0001351
694	3.92e-05
706	0.0001638
718	0.0001582
730	0.0001526
742	8.82e-05
754	8.47e-05
766	0.000168
778	9.38e-05
790	1.82e-05
802	0.0002219
814	0.0002443
826	0.0001953
838	0.0001498
850	0.000175
862	0.0003157
874	0.000728
886	0.0014658
898	0.0016667
910	0.0009457
922	0.0004641
934	0.0003584
946	0.0002303
958	0.000203
970	0.0002639
982	0.0002163
994	0.0003248
1006	0.000301
1018	0.0003185
1030	0.0003388
1042	0.0003164
1054	0.0003066
1066	0.0003185
1078	0.0003178
1090	0.0005096
1102	0.00049
1114	0.0004375
1126	0.000301
1138	0.0002415
1150	0.0002926
1162	0.0002751
1174	6.72e-05
1186	5.11e-05
1198	4.41e-05
1210	0.0001176
1222	0.000126
1234	0.0001386
1246	0.0001099
1258	0.0001757
1270	0.0001498
1282	0.0001337
1294	0.000175
1306	0.0002289
1318	0.00021
1330	0.0002114
1342	0.0001813
1354	0.0002695
1366	0.0005166
1378	0.0006475
1390	0.0006216
1402	0.0004746
1414	0.0004522
1426	0.0005152
1438	0.000686
1450	0.0009457
1462	0.0011431
1474	0.0009975
1486	0.0006027
1498	0.0003535
1510	0.0002184
1522	0.0001708
1534	0.0001561
1546	0.0001575
1558	0.0001274
1570	0.0001561
1582	0.0001435
1594	0.0001827
1606	0.0002044
1618	0.0003423
1630	0.0006048
1642	0.0007266
1654	0.0005348
1666	0.0002289
1678	0.0001169
1690	9.73e-05
1702	6.51e-05
1714	5.88e-05
1726	5.74e-05
1738	4.27e-05
1750	6.86e-05
1762	8.12e-05
1774	0.0001008
1786	0.0001316
1798	0.0001141
1810	0.000126
1822	9.03e-05
1834	8.4e-05
1846	8.75e-05
1858	5.67e-05
1870	8.12e-05
1882	8.33e-05
1894	5.95e-05
1906	7.7e-05
1918	3.99e-05
1930	8.19e-05
1942	0.0001064
1954	9.31e-05
1966	4.69e-05
1978	6.79e-05
1990	6.79e-05
2002	0.0001057
2014	3.92e-05
2026	7.84e-05
2038	2.87e-05
2050	5.53e-05
2062	4.27e-05
2074	5.88e-05
2086	2.45e-05
2098	3.43e-05
2110	4.9e-05
2122	7.49e-05
2134	2.52e-05
2146	5.95e-05
2158	7.7e-05
2170	7.63e-05
2182	5.67e-05
2194	7.21e-05
2206	2.52e-05
2218	5.25e-05
2230	5.53e-05
2242	7.77e-05
2254	4.9e-05
2266	4.69e-05
2278	4.34e-05
2290	5.46e-05
2302	5.88e-05
2314	6.65e-05
2326	5.67e-05
2338	4.27e-05
2350	5.95e-05
2362	3.15e-05
2374	6.93e-05
2386	1.12e-05
2398	6.79e-05
2410	8.82e-05
2422	6.09e-05
2434	5.46e-05
2446	4.62e-05
2458	3.29e-05
2470	7e-05
2482	9.1e-06
2494	3.57e-05
2506	3.5e-05
2518	4.9e-05
2530	3.99e-05
2542	6.09e-05
2554	5.81e-05
2566	5.25e-05
2578	5.53e-05
2590	5.53e-05
2602	6.16e-05
2614	6.16e-05
2626	4.97e-05
2638	9.52e-05
2650	8.05e-05
2662	9.59e-05
2674	4.55e-05
2686	9.38e-05
2698	8.54e-05
2710	0.0001197
2722	0.0001365
2734	0.0001323
2746	0.0001533
2758	0.0001813
2770	0.0001946
2782	0.0001918
2794	0.0002226
2806	0.0002611
2818	0.0003213
2830	0.000441
2842	0.0005677
2854	0.000805
2866	0.0013909
2878	0.0022365
2890	0.002681
2902	0.002681
2914	0.0025928
2926	0.0029057
2938	0.0034867
2950	0.0042875
2962	0.0062678
2974	0.0068964
2986	0.004326
2998	0.0018746
3010	0.0009674
3022	0.0005663
3034	0.0004711
3046	0.0003605
3058	0.000392
3070	0.000616
3082	0.0008134
3094	0.000728
3106	0.0003927
3118	0.0001953
3130	0.0001806
3142	0.0001155
3154	0.0001351
3166	0.0001253
3178	0.0001673
3190	7.91e-05
3202	0.0001575
3214	9.17e-05
3226	0.0001596
3238	7.91e-05
3250	0.000105
3262	6.23e-05
3274	0.0001337
3286	0.0001708
3298	0.0001351
3310	7.98e-05
3322	7.35e-05
3334	8.75e-05
3346	2.24e-05
3358	9.24e-05
3370	4.9e-05
3382	1.26e-05
3394	7.49e-05
3406	8.12e-05
3418	6.16e-05
3430	9.73e-05
3442	2.1e-05
3454	0.0001036
3466	0.0001036
3478	0.0001141
3490	9.1e-05
3502	1.05e-05
3514	2.52e-05
3526	2.1e-06
3538	9.87e-05
3550	0.000119
3562	0.0001022
3574	0.0001036
3586	2.17e-05
3598	0.0001078
3610	7.07e-05
3622	0.0001442
3634	7.35e-05
3646	4.27e-05
3658	8.82e-05
3670	5.46e-05
3682	0.0001155
3694	0.0001519
3706	0.0001162
3718	2.8e-05
3730	0.0001659
3742	0.0001015
3754	0.0001918
3766	8.61e-05
3778	8.68e-05
3790	0.0001176
3802	0.0001092
3814	8.96e-05
3826	0.0001064
3838	8.82e-05
