Infrared Spectrum: 2,3,4-Trichlorotoluene
Formula: C 7 H 5 Cl 3
CAS: 7359-72-0
State: gas
Origin: EPA-IR VAPOR PHASE LIBRARY
1/CM	ABSORBANCE
549.8	0.006029
559.445	0.006209
569.09	0.002589
578.734	0.001047
588.379	0.0009059
598.024	0.001569
607.669	0.0013141
617.313	0.0012804
626.958	0.001188
636.603	0.0014384
646.248	0.0009429
655.893	0.003379
665.537	0.016769
675.182	0.016869
684.827	0.002769
694.472	0.0011019
704.116	0.000999
713.761	0.0008293
723.406	0.0014253
733.051	0.002309
742.695	0.004489
752.34	0.006939
761.985	0.018549
771.63	0.060519
781.275	0.071449
790.919	0.037949
800.564	0.054639
810.209	0.036829
819.854	0.011849
829.498	0.003839
839.143	0.003109
848.788	0.005979
858.433	0.009169
868.078	0.011969
877.722	0.035999
887.367	0.041519
897.012	0.013709
906.657	0.003229
916.301	0.001949
925.946	0.001889
935.591	0.002379
945.236	0.002329
954.88	0.002299
964.525	0.002669
974.17	0.003319
983.815	0.004509
993.46	0.006449
1003.1	0.011819
1012.75	0.016249
1022.39	0.012449
1032.04	0.006729
1041.68	0.004829
1051.33	0.003419
1060.97	0.003629
1070.62	0.003629
1080.26	0.005879
1089.91	0.008969
1099.55	0.006669
1109.2	0.003369
1118.84	0.002569
1128.49	0.002249
1138.13	0.005129
1147.78	0.020139
1157.42	0.027189
1167.07	0.042979
1176.71	0.050069
1186.36	0.020899
1196	0.006529
1205.64	0.004179
1215.29	0.005849
1224.93	0.012469
1234.58	0.020419
1244.22	0.018349
1253.87	0.010249
1263.51	0.004049
1273.16	0.002199
1282.8	0.001619
1292.45	0.001959
1302.09	0.002179
1311.74	0.002239
1321.38	0.002429
1331.03	0.003769
1340.67	0.009119
1350.32	0.026919
1359.96	0.054339
1369.61	0.053949
1379.25	0.027169
1388.9	0.015549
1398.54	0.010379
1408.18	0.008469
1417.83	0.014479
1427.47	0.046709
1437.12	0.114809
1446.76	0.124819
1456.41	0.066479
1466.05	0.027379
1475.7	0.009679
1485.34	0.007189
1494.99	0.006699
1504.63	0.004849
1514.28	0.003989
1523.92	0.003649
1533.57	0.003309
1543.21	0.003939
1552.86	0.006259
1562.5	0.008889
1572.15	0.012369
1581.79	0.013309
1591.44	0.008189
1601.08	0.005369
1610.73	0.004189
1620.37	0.002439
1630.01	0.001649
1639.66	0.001509
1649.3	0.0013726
1658.95	0.0012449
1668.59	0.0013306
1678.24	0.0013143
1687.88	0.0011815
1697.53	0.0010953
1707.17	0.000784
1716.82	0.0010009
1726.46	0.001889
1736.11	0.002919
1745.75	0.002159
1755.4	0.0012852
1765.04	0.0009229
1774.69	0.0008422
1784.33	0.0006989
1793.98	0.0007068
1803.62	0.0006367
1813.27	0.0007881
1822.91	0.0009541
1832.55	0.0011308
1842.2	0.0014204
1851.84	0.001719
1861.49	0.003019
1871.13	0.005039
1880.78	0.003879
1890.42	0.001569
1900.07	0.0008276
1909.71	0.000808
1919.36	0.000773
1929	0.0008452
1938.65	0.0010577
1948.29	0.0010765
1957.94	0.0010439
1967.58	0.0008713
1977.23	0.0007764
1986.87	0.0006716
1996.52	0.0006233
2006.16	0.0005787
2015.81	0.0006358
2025.45	0.0007457
2035.1	0.0008051
2044.74	0.0008435
2054.38	0.0007689
2064.03	0.0008144
2073.67	0.0006573
2083.32	0.0006416
2092.96	0.0006076
2102.61	0.0006687
2112.25	0.0007531
2121.9	0.0007316
2131.54	0.0007034
2141.19	0.0006312
2150.83	0.0006482
2160.48	0.0005742
2170.12	0.00055377
2179.77	0.000613
2189.41	0.000461039
2199.06	0.0006032
2208.7	0.0005811
2218.35	0.0007287
2227.99	0.0006589
2237.64	0.0007195
2247.28	0.0008502
2256.92	0.0007319
2266.57	0.0008098
2276.21	0.0007707
2285.86	0.000634
2295.5	0.0007115
2305.15	0.0007059
2314.79	0.0008545
2324.44	0.0010589
2334.08	0.0009381
2343.73	0.0007113
2353.37	0.0005665
2363.02	0.0006853
2372.66	0.0005815
2382.31	0.0007997
2391.95	0.0008892
2401.6	0.0007892
2411.24	0.0008762
2420.89	0.0008466
2430.53	0.0007683
2440.18	0.000701
2449.82	0.0009069
2459.47	0.0008618
2469.11	0.0010975
2478.75	0.0012462
2488.4	0.0012174
2498.04	0.0012292
2507.69	0.0010677
2517.33	0.0008587
2526.98	0.0007774
2536.62	0.0007371
2546.27	0.0007019
2555.91	0.0006813
2565.56	0.0005678
2575.2	0.00045416
2584.85	0.0006102
2594.49	0.0005876
2604.14	0.0008092
2613.78	0.0009748
2623.43	0.0010306
2633.07	0.0009587
2642.72	0.000862
2652.36	0.0007295
2662.01	0.0006412
2671.65	0.0007641
2681.29	0.0007617
2690.94	0.00053913
2700.58	0.0006637
2710.23	0.0005693
2719.87	0.0007
2729.52	0.0007585
2739.16	0.0009513
2748.81	0.001262
2758.45	0.001599
2768.1	0.0008969
2777.74	0.0009479
2787.39	0.0010015
2797.03	0.0009722
2806.68	0.0012778
2816.32	0.0014024
2825.97	0.001689
2835.61	0.001979
2845.26	0.002489
2854.9	0.003389
2864.55	0.005679
2874.19	0.006729
2883.84	0.005689
2893.48	0.005079
2903.12	0.005099
2912.77	0.005509
2922.41	0.008629
2932.06	0.019159
2941.7	0.021369
2951.35	0.011869
2960.99	0.010259
2970.64	0.012179
2980.28	0.012129
2989.93	0.013299
2999.57	0.010939
3009.22	0.007319
3018.86	0.005379
3028.51	0.004479
3038.15	0.004979
3047.8	0.008149
3057.44	0.011789
3067.09	0.009139
3076.73	0.005399
3086.38	0.003859
3096.02	0.002549
3105.67	0.001869
3115.31	0.001589
3124.95	0.001599
3134.6	0.0012888
3144.24	0.0014512
3153.89	0.0009415
3163.53	0.0007737
3173.18	0.00049028
3182.82	0.0005174
3192.47	0.000671
3202.11	0.00047046
3211.76	0.00051037
3221.4	0.000357
3231.05	0.000245
3240.69	0.0004071
3250.34	0.000459453
3259.98	0.0007259
3269.63	0.000295
3279.27	0.0004046
3288.92	0.000253
3298.56	0.0005809
3308.21	0.000231
3317.85	0.00027
3327.49	0.0004003
3337.14	0.0003736
3346.78	0.000309
3356.43	0.000336
3366.07	0.000285
3375.72	0.00048783
3385.36	0.000326
3395.01	0.00045046
3404.65	0.0004331
3414.3	0.000219
3423.94	0.000168
3433.59	0.000187
3443.23	0.000351
3452.88	0.000146
3462.52	0.0003904
3472.17	0.000201
3481.81	0.000364
3491.46	0.0005595
3501.1	0.000162
3510.75	0.00053322
3520.39	0.000354
3530.04	0.0004435
3539.68	0.000292
3549.32	0.000188
3558.97	0.00047338
3568.61	0.0004198
3578.26	0.000106
3587.9	0.000264
3597.55	0.0003779
3607.19	0.000149
3616.84	0.000253
3626.48	0.000233
3636.13	8.2e-05
3645.77	0.000231
3655.42	0.000298
3665.06	0.000322
3674.71	0.000223
3684.35	0.000245
3694	0.0004209
3703.64	0.000305
3713.29	0.0004058
3722.93	0.0004252
3732.58	0.0003795
3742.22	0.0003666
3751.86	0.000165
3761.51	0.0004474
3771.15	0.000166
3780.8	0.000268
3790.44	0.0003971
3800.09	0.00047694
3809.73	0.0005841
3819.38	0.0003591
3829.02	0.000317
3838.67	0.000395
3848.31	0.000324
3857.96	0.0005718
3867.6	0.00053546
3877.25	0.0003596
3886.89	0.000306
3896.54	0.0005973
3906.18	0.000337
3915.83	0.00047255
3925.47	0.000281
3935.12	0.00048208
3944.76	0.00049282
3954.41	0.00051177
3964.05	0.00045731
3973.69	0.0005766
3983.34	0.000299
3992.98	0.0005365
