Infrared Spectrum: 4,4'-Dinitrobibenzyl
Formula: C 14 H 12 N 2 O 4
CAS: 736-30-1
State: gas
Origin: EPA-IR VAPOR PHASE LIBRARY
1/CM	ABSORBANCE
549.8	0.00050031
559.445	0.00056596
569.09	0.000448
578.734	0.000247
588.379	0.0006142
598.024	0.0007463
607.669	0.0004221
617.313	0.0008575
626.958	0.0010514
636.603	0.0006
646.248	0.0006418
655.893	0.0006032
665.537	0.00053138
675.182	0.0006725
684.827	0.0012646
694.472	0.0014069
704.116	0.0011919
713.761	0.0010892
723.406	0.0011556
733.051	0.0011718
742.695	0.001743
752.34	0.0012765
761.985	0.001005
771.63	0.000915
781.275	0.0009865
790.919	0.0007704
800.564	0.0005877
810.209	0.0009254
819.854	0.0013437
829.498	0.001523
839.143	0.003033
848.788	0.004463
858.433	0.007423
868.078	0.001613
877.722	0.000478979
887.367	0.00052037
897.012	0.00046982
906.657	0.0008253
916.301	0.0007571
925.946	0.0007313
935.591	0.0007392
945.236	0.0006243
954.88	0.00056296
964.525	0.0006307
974.17	0.0008649
983.815	0.0009472
993.46	0.0008271
1003.1	0.00050251
1012.75	0.0011924
1022.39	0.0009196
1032.04	0.00048976
1041.68	0.000204
1051.33	0.0006847
1060.97	0.0003918
1070.62	0.0006641
1080.26	0.0007533
1089.91	0.0009005
1099.55	0.0008708
1109.2	0.002003
1118.84	0.001513
1128.49	0.0008608
1138.13	0.0009406
1147.78	0.0008493
1157.42	0.0005129
1167.07	0.000666
1176.71	0.0011958
1186.36	0.0012372
1196	0.0008441
1205.64	0.0007262
1215.29	0.0006237
1224.93	0.0006945
1234.58	0.0005246
1244.22	0.00046862
1253.87	0.0009475
1263.51	0.0006718
1273.16	0.0010063
1282.8	0.001016
1292.45	0.0010342
1302.09	0.0014027
1311.74	0.001623
1321.38	0.002213
1331.03	0.004013
1340.67	0.010993
1350.32	0.021473
1359.96	0.009443
1369.61	0.003263
1379.25	0.001893
1388.9	0.0014393
1398.54	0.0009951
1408.18	0.0009285
1417.83	0.0008505
1427.47	0.0007864
1437.12	0.0009703
1446.76	0.0012399
1456.41	0.0013563
1466.05	0.0012597
1475.7	0.001473
1485.34	0.002043
1494.99	0.003453
1504.63	0.003043
1514.28	0.003973
1523.92	0.007073
1533.57	0.013543
1543.21	0.013823
1552.86	0.006763
1562.5	0.004163
1572.15	0.002883
1581.79	0.002743
1591.44	0.003643
1601.08	0.005563
1610.73	0.003803
1620.37	0.001793
1630.01	0.0010628
1639.66	0.0007
1649.3	0.0007894
1658.95	0.0007679
1668.59	0.0007678
1678.24	0.0005919
1687.88	0.0005929
1697.53	0.0005756
1707.17	0.00052437
1716.82	0.00050754
1726.46	0.00048714
1736.11	0.00051034
1745.75	0.00053043
1755.4	0.00055411
1765.04	0.00048075
1774.69	0.0005522
1784.33	0.0006323
1793.98	0.0007065
1803.62	0.0004076
1813.27	0.00048438
1822.91	0.0004356
1832.55	0.0004602
1842.2	0.000335
1851.84	0.0003819
1861.49	0.0004347
1871.13	0.00049399
1880.78	0.0003986
1890.42	0.0004625
1900.07	0.000577
1909.71	0.0006151
1919.36	0.0006627
1929	0.00057201
1938.65	0.0003798
1948.29	0.0004413
1957.94	0.00049896
1967.58	0.0004517
1977.23	0.0004263
1986.87	0.000474644
1996.52	0.00046785
2006.16	0.0004295
2015.81	0.0004254
2025.45	0.000397
2035.1	0.00049928
2044.74	0.00056656
2054.38	0.0004261
2064.03	0.0003914
2073.67	0.000453
2083.32	0.0004462
2092.96	0.000436
2102.61	0.000472021
2112.25	0.00052355
2121.9	0.0004207
2131.54	0.0004043
2141.19	0.0004121
2150.83	0.000371
2160.48	0.0004025
2170.12	0.000347
2179.77	0.00046308
2189.41	0.0003778
2199.06	0.000475717
2208.7	0.0004609
2218.35	0.0003797
2227.99	0.00049612
2237.64	0.00052447
2247.28	0.000432
2256.92	0.00054604
2266.57	0.0003994
2276.21	0.00052191
2285.86	0.00051963
2295.5	0.00048397
2305.15	0.0004558
2314.79	0.00051179
2324.44	0.0004405
2334.08	0.0004205
2343.73	0.0003896
2353.37	0.0003967
2363.02	0.00051168
2372.66	0.00046373
2382.31	0.00051831
2391.95	0.0004353
2401.6	0.00053243
2411.24	0.000480619
2420.89	0.0003906
2430.53	0.00050713
2440.18	0.00050034
2449.82	0.0006196
2459.47	0.0005314
2469.11	0.0004949
2478.75	0.0004164
2488.4	0.0004586
2498.04	0.0004556
2507.69	0.0004188
2517.33	0.000334
2526.98	0.0005759
2536.62	0.0004611
2546.27	0.0004073
2555.91	0.00048436
2565.56	0.00051411
2575.2	0.000459
2584.85	0.00053959
2594.49	0.0005757
2604.14	0.000481662
2613.78	0.00053101
2623.43	0.0003974
2633.07	0.000335
2642.72	0.0003853
2652.36	0.0004306
2662.01	0.0005972
2671.65	0.0003766
2681.29	0.0003952
2690.94	0.0004528
2700.58	0.0003954
2710.23	0.0005514
2719.87	0.00057016
2729.52	0.0004193
2739.16	0.0004504
2748.81	0.0003988
2758.45	0.000337
2768.1	0.0004071
2777.74	0.0006637
2787.39	0.000598
2797.03	0.00050854
2806.68	0.0004451
2816.32	0.00053738
2825.97	0.000749
2835.61	0.00053885
2845.26	0.0006639
2854.9	0.0006877
2864.55	0.0010242
2874.19	0.0013011
2883.84	0.0010187
2893.48	0.0007714
2903.12	0.0007692
2912.77	0.0007591
2922.41	0.0010112
2932.06	0.001633
2941.7	0.002153
2951.35	0.002203
2960.99	0.0013543
2970.64	0.0007055
2980.28	0.0005902
2989.93	0.00053776
2999.57	0.0007279
3009.22	0.0006119
3018.86	0.0007199
3028.51	0.0008028
3038.15	0.0010427
3047.8	0.0013022
3057.44	0.0013094
3067.09	0.0008088
3076.73	0.0008465
3086.38	0.0010928
3096.02	0.00053344
3105.67	0.00049002
3115.31	0.00051062
3124.95	0.000558
3134.6	0.0004031
3144.24	0.00050108
3153.89	0.00049864
3163.53	0.00052963
3173.18	0.000328
3182.82	0.0003803
3192.47	0.0004594
3202.11	0.0004066
3211.76	0.0004064
3221.4	0.0006062
3231.05	0.0006734
3240.69	0.000339
3250.34	0.0004512
3259.98	0.000473271
3269.63	0.0003976
3279.27	0.0005744
3288.92	0.0004072
3298.56	0.000367
3308.21	0.0004596
3317.85	0.000294
3327.49	0.0003824
3337.14	0.0004486
3346.78	0.0003747
3356.43	0.00052944
3366.07	0.000324
3375.72	0.00053348
3385.36	0.0003953
3395.01	0.0004534
3404.65	0.00055814
3414.3	0.0004501
3423.94	0.0003813
3433.59	0.00055004
3443.23	0.00049263
3452.88	0.00050277
3462.52	0.000185
3472.17	0.00054541
3481.81	0.000309
3491.46	0.000259
3501.1	0.0003788
3510.75	0.00049131
3520.39	0.0003747
3530.04	0.000307
3539.68	0.000632
3549.32	0.00055967
3558.97	0.000139
3568.61	0.00051292
3578.26	0.00049405
3587.9	0.0004306
3597.55	0.0006535
3607.19	0.00035
3616.84	0.000342
3626.48	0.000323
3636.13	0.00053765
3645.77	0.0004375
3655.42	0.000353
3665.06	0.0006711
3674.71	0.00048084
3684.35	0.000476562
3694	0.0005862
3703.64	0.00049273
3713.29	0.0004619
3722.93	0.00055856
3732.58	0.0005925
3742.22	0.000401
3751.86	0.0004429
3761.51	0.000359
3771.15	0.0006882
3780.8	0.0004379
3790.44	0.0004555
3800.09	0.0004274
3809.73	0.000347
3819.38	0.000347
3829.02	0.00051183
3838.67	0.00055979
3848.31	0.0004209
3857.96	0.0006709
3867.6	0.0004315
3877.25	0.00049564
3886.89	0.00056497
3896.54	0.0004843
3906.18	0.0006013
3915.83	0.0006244
3925.47	0.0006256
3935.12	0.0004304
3944.76	0.000372
3954.41	0.000585
3964.05	0.000477254
3973.69	0.0004464
3983.34	0.00054675
3992.98	0.0003982
