Infrared Spectrum: N-(1,4-DIMETHYLPENTYL) ACETOACETAMIDE
Formula: C11 H21 N O2
CAS: 73622-68-1
State: SOLUTION (10% IN CCl4 FOR 3800-1330 CM^-^1, 10% IN CS2 FOR 1330-450 CM^-^1)
Class: COBLENTZ III
Instrument: DOW KBr FOREPRISM-GRATING
Instrument parameters: GRATING BLAZED AT 3.5, 12.0, 20.0 MICRONS AND CHANGED AT 5.0, 7.5, 14.9 MICRONS
Sampling: TRANSMISSION
Path length: 0.011 CM, 0.011 CM
Resolution: 4
Origin: DOW CHEMICAL COMPANY
1/CM	TRANSMITTANCE
458.933	0.853
467.729	0.852
476.525	0.851
485.321	0.852
494.117	0.862
502.913	0.874
511.709	0.882
520.505	0.885
529.301	0.862
538.097	0.797
546.893	0.747
555.69	0.805
564.486	0.849
573.282	0.818
582.078	0.785
590.874	0.849
599.67	0.871
608.466	0.873
617.262	0.871
626.058	0.914
634.854	0.94
643.65	0.914
652.446	0.866
661.242	0.84
670.038	0.855
678.834	0.851
687.63	0.852
696.426	0.853
705.222	0.87
714.018	0.899
722.814	0.926
731.61	0.891
740.406	0.929
749.203	0.911
757.999	0.902
766.795	0.933
775.591	0.946
784.387	0.933
793.183	0.926
801.979	0.947
810.775	1.001
819.571	1.03
828.367	1.035
837.163	1.026
845.959	0.982
854.755	0.878
863.551	0.871
872.347	0.893
881.143	0.911
889.939	0.943
898.735	0.958
907.531	0.95
916.327	0.869
925.123	0.862
933.919	0.936
942.716	0.954
951.512	0.965
960.308	0.973
969.104	0.966
977.9	0.979
986.696	1.011
995.492	0.988
1004.29	0.961
1013.08	0.994
1021.88	0.96
1030.68	0.852
1039.47	0.933
1048.27	0.972
1057.06	1
1065.86	1.028
1074.66	1.005
1083.45	0.946
1092.25	1.023
1101.04	1.044
1109.84	1.008
1118.64	0.929
1127.43	0.738
1136.23	0.723
1145.02	0.597
1153.82	0.345
1162.62	0.34
1171.41	0.426
1180.21	0.537
1189	0.705
1197.8	0.692
1206.6	0.561
1215.39	0.487
1224.19	0.482
1232.99	0.604
1241.78	0.561
1250.58	0.465
1259.37	0.431
1268.17	0.424
1276.97	0.535
1285.76	0.606
1294.56	0.522
1303.35	0.49
1312.15	0.418
1320.95	0.388
1329.74	0.451
1338.54	0.444
1347.33	0.406
1356.13	0.298
1364.93	0.183
1373.72	0.325
1382.52	0.318
1391.31	0.326
1400.11	0.527
1408.91	0.356
1417.7	0.367
1426.5	0.433
1435.29	0.454
1444.09	0.443
1452.89	0.256
1461.68	0.282
1470.48	0.246
1479.27	0.577
1488.07	0.592
1496.87	0.519
1505.66	0.371
1514.46	0.227
1523.25	0.111
1532.05	0.06
1540.85	0.031
1549.64	0.028
1558.44	0.055
1567.23	0.154
1576.03	0.287
1584.83	0.385
1593.62	0.433
1602.42	0.451
1611.21	0.396
1620.01	0.337
1628.81	0.238
1637.6	0.039
1646.4	0.005
1655.2	0.008
1663.99	0.024
1672.79	0.03
1681.58	0.075
1690.38	0.289
1699.18	0.396
1707.97	0.14
1716.77	0.045
1725.56	0.1
1734.36	0.264
1743.16	0.537
1751.95	0.646
1760.75	0.731
1769.54	0.815
1778.34	0.87
1787.14	0.9
1795.93	0.918
1804.73	0.931
1813.52	0.94
1822.32	0.947
1831.12	0.953
1839.91	0.954
1848.71	0.957
1857.5	0.96
1866.3	0.961
1875.1	0.965
1883.89	0.966
1892.69	0.968
1901.48	0.969
1910.28	0.971
1919.08	0.972
1927.87	0.973
1936.67	0.975
1945.46	0.976
1954.26	0.976
1963.06	0.977
1971.85	0.979
1980.65	0.98
1989.44	0.982
1998.24	0.983
2007.04	0.986
2015.83	0.986
2024.63	0.987
2033.43	0.987
2042.22	0.988
2051.02	0.988
2059.81	0.988
2068.61	0.99
2077.41	0.99
2086.2	0.99
2095	0.991
2103.79	0.991
2112.59	0.991
2121.39	0.99
2130.18	0.99
2138.98	0.99
2147.77	0.988
2156.57	0.9861
2165.37	0.986
2174.16	0.9841
2182.96	0.984
2191.75	0.984
2200.55	0.984
2209.35	0.9831
2218.14	0.983
2226.94	0.982
2235.73	0.98
2244.53	0.98
2253.33	0.9761
2262.12	0.975
2270.92	0.9681
2279.71	0.9651
2288.51	0.9582
2297.31	0.9568
2306.1	0.96
2314.9	0.962
2323.69	0.965
2332.49	0.9708
2341.29	0.9681
2350.08	0.971
2358.88	0.973
2367.67	0.973
2376.47	0.9681
2385.27	0.9651
2394.06	0.9623
2402.86	0.9637
2411.66	0.965
2420.45	0.965
2429.25	0.9641
2438.04	0.962
2446.84	0.962
2455.64	0.9611
2464.43	0.96
2473.23	0.957
2482.02	0.955
2490.82	0.9542
2499.62	0.9532
2508.41	0.953
2517.21	0.951
2526	0.951
2534.8	0.951
2543.6	0.95
2552.39	0.9462
2561.19	0.9392
2569.98	0.9352
2578.78	0.9294
2587.58	0.9226
2596.37	0.921
2605.17	0.92
2613.96	0.92
2622.76	0.9218
2631.56	0.922
2640.35	0.924
2649.15	0.922
2657.94	0.922
2666.74	0.921
2675.54	0.921
2684.33	0.918
2693.13	0.9117
2701.92	0.9045
2710.72	0.8957
2719.52	0.8857
2728.31	0.88
2737.11	0.8878
2745.9	0.8945
2754.7	0.8922
2763.5	0.8882
2772.29	0.885
2781.09	0.881
2789.89	0.869
2798.68	0.8543
2807.48	0.834
2816.27	0.8043
2825.07	0.7819
2833.87	0.7643
2842.66	0.7308
2851.46	0.4597
2860.25	0.3891
2869.05	0.2989
2877.85	0.2441
2886.64	0.4147
2895.44	0.3713
2904.23	0.2518
2913.03	0.2078
2921.83	0.1501
2930.62	0.1073
2939.42	0.1278
2948.21	0.1356
2957.01	0.0523
2965.81	0.0541
2974.6	0.1467
2983.4	0.307
2992.19	0.4772
3000.99	0.6436
3009.79	0.6858
3018.58	0.7524
3027.38	0.7924
3036.17	0.7963
3044.97	0.7836
3053.77	0.7584
3062.56	0.7247
3071.36	0.697
3080.15	0.685
3088.95	0.698
3097.75	0.7269
3106.54	0.7655
3115.34	0.7966
3124.13	0.8139
3132.93	0.8303
3141.73	0.8336
3150.52	0.8317
3159.32	0.829
3168.12	0.8131
3176.91	0.7975
3185.71	0.7795
3194.5	0.7549
3203.3	0.737
3212.1	0.7215
3220.89	0.7058
3229.69	0.6892
3238.48	0.6501
3247.28	0.5924
3256.08	0.5149
3264.87	0.454
3273.67	0.4062
3282.46	0.3659
3291.26	0.331
3300.06	0.3092
3308.85	0.301
3317.65	0.3046
3326.44	0.3163
3335.24	0.3416
3344.04	0.382
3352.83	0.4233
3361.63	0.4653
3370.42	0.5223
3379.22	0.5882
3388.02	0.6467
3396.81	0.7136
3405.61	0.7625
3414.4	0.7931
3423.2	0.8045
3432	0.7953
3440.79	0.7897
3449.59	0.8354
3458.38	0.8941
3467.18	0.9105
3475.98	0.9161
3484.77	0.9231
3493.57	0.9285
3502.36	0.932
3511.16	0.9355
3519.96	0.941
3528.75	0.945
3537.55	0.953
3546.35	0.955
3555.14	0.9605
3563.94	0.962
3572.73	0.956
3581.53	0.9565
3590.33	0.97
3599.12	0.9725
3607.92	0.978
3616.71	0.982
3625.51	0.983
3634.31	0.985
3643.1	0.9845
3651.9	0.979
3660.69	0.9711
3669.49	0.9596
3678.29	0.9629
3687.08	0.9814
3695.88	0.9919
3704.67	0.9975
3713.47	1.0005
3722.27	1.001
3731.06	1.001
3739.86	1.001
3748.65	1.0006
3757.45	1
3766.25	0.9991
3775.04	0.997
3783.84	0.997
3792.63	0.997
3801.43	1
