Infrared Spectrum: 1-t-Butyl-4-ethylbenzene
Formula: C 12 H 18
CAS: 7364-19-4
State: gas
Instrument: HP-GC/MS/IRD
Origin: NIST Mass Spectrometry Data Center
1/CM	ABSORBANCE
550	0.0017102
562	0.0027132
574	0.002023
586	0.0009622
598	0.0003978
610	0.0002516
622	0.0001088
634	0.0001938
646	0.0001088
658	0.0003094
670	0.0001802
682	0.0001258
694	0.0001156
706	0.000119
718	0.0002278
730	0.0002482
742	0.0001428
754	0.0001598
766	0.0003026
778	0.0005474
790	0.0006018
802	0.0011288
814	0.002465
826	0.0041786
838	0.0035802
850	0.0014382
862	0.0004998
874	0.0002142
886	0.0002312
898	0.0002142
910	0.0002176
922	0.000238
934	0.0002176
946	0.000187
958	0.0003128
970	0.000476
982	0.0002924
994	0.000323
1006	0.0007106
1018	0.0018088
1030	0.0008364
1042	0.0004454
1054	0.0006494
1066	0.0006936
1078	0.0003944
1090	0.0005678
1102	0.0016762
1114	0.0018326
1126	0.0009146
1138	0.0005882
1150	0.0003332
1162	0.0002482
1174	0.0003366
1186	0.00085
1198	0.0013906
1210	0.0006936
1222	0.000748
1234	0.0007752
1246	0.0009554
1258	0.0025228
1270	0.0028152
1282	0.0011458
1294	0.0008432
1306	0.0007038
1318	0.0010948
1330	0.0012036
1342	0.0009554
1354	0.0017714
1366	0.003162
1378	0.0028322
1390	0.0023698
1402	0.0022746
1414	0.0014994
1426	0.0012546
1438	0.0013294
1450	0.0020638
1462	0.0030294
1474	0.0033252
1486	0.0031212
1498	0.0032844
1510	0.0044778
1522	0.003689
1534	0.0009384
1546	0.0004658
1558	0.0003332
1570	0.0002482
1582	0.0001802
1594	0.0001564
1606	0.0001598
1618	0.0001768
1630	0.0002516
1642	0.0003332
1654	0.000408
1666	0.000306
1678	0.0001734
1690	0.0001258
1702	0.000119
1714	9.52e-05
1726	0.0001122
1738	0.0001292
1750	0.0001632
1762	0.0003094
1774	0.0004318
1786	0.000323
1798	0.0001598
1810	8.16e-05
1822	7.48e-05
1834	8.84e-05
1846	9.52e-05
1858	0.0001292
1870	0.0001802
1882	0.000357
1894	0.0004692
1906	0.0003604
1918	0.0001462
1930	6.8e-05
1942	8.5e-05
1954	4.08e-05
1966	5.78e-05
1978	6.12e-05
1990	6.8e-05
2002	7.14e-05
2014	6.12e-05
2026	4.08e-05
2038	4.76e-05
2050	4.42e-05
2062	2.38e-05
2074	0
2086	1.02e-05
2098	1.02e-05
2110	4.76e-05
2122	2.04e-05
2134	4.76e-05
2146	4.42e-05
2158	4.08e-05
2170	2.38e-05
2182	2.38e-05
2194	5.1e-05
2206	6.8e-05
2218	6.8e-05
2230	6.46e-05
2242	6.12e-05
2254	4.42e-05
2266	5.44e-05
2278	3.74e-05
2290	7.14e-05
2302	7.14e-05
2314	5.78e-05
2326	9.18e-05
2338	0.0001088
2350	8.84e-05
2362	8.84e-05
2374	0.0001122
2386	8.5e-05
2398	9.18e-05
2410	0.0001054
2422	8.16e-05
2434	6.46e-05
2446	6.8e-05
2458	5.44e-05
2470	4.76e-05
2482	5.78e-05
2494	7.82e-05
2506	7.14e-05
2518	8.5e-05
2530	8.84e-05
2542	0.000102
2554	0.0001088
2566	0.0001326
2578	0.0001326
2590	0.0001632
2602	0.0001462
2614	0.0001598
2626	0.0001666
2638	0.0002176
2650	0.0002142
2662	0.0002006
2674	0.0002176
2686	0.000187
2698	0.0002516
2710	0.0003026
2722	0.0004114
2734	0.000408
2746	0.0004352
2758	0.0004284
2770	0.0004488
2782	0.0005474
2794	0.0006222
2806	0.000697
2818	0.0008806
2830	0.001139
2842	0.0016354
2854	0.0028424
2866	0.0057596
2878	0.0083198
2890	0.0085374
2902	0.0086122
2914	0.0101864
2926	0.010336
2938	0.0124984
2950	0.0171122
2962	0.0292026
2974	0.0306578
2986	0.0123658
2998	0.0057188
3010	0.0042296
3022	0.0050626
3034	0.0044642
3046	0.0027948
3058	0.002601
3070	0.0024786
3082	0.002329
3094	0.0021182
3106	0.0014654
3118	0.000952
3130	0.0008194
3142	0.0006664
3154	0.0005474
3166	0.000493
3178	0.000476
3190	0.0004318
3202	0.000357
3214	0.0003604
3226	0.0003332
3238	0.000306
3250	0.0002618
3262	0.0002652
3274	0.0002618
3286	0.0001972
3298	0.0001938
3310	0.000136
3322	0.0001598
3334	0.0001598
3346	0.0001156
3358	0.0001428
3370	0.000119
3382	0.0001054
3394	0.000119
3406	0.0001428
3418	0.000136
3430	0.0001088
3442	9.86e-05
3454	8.5e-05
3466	4.08e-05
3478	8.84e-05
3490	8.5e-05
3502	9.18e-05
3514	5.78e-05
3526	7.82e-05
3538	5.1e-05
3550	8.16e-05
3562	8.5e-05
3574	9.52e-05
3586	6.8e-05
3598	7.82e-05
3610	7.48e-05
3622	0.000102
3634	0.0001054
3646	0.0001224
3658	0.0001122
3670	0.0001054
3682	0.0001224
3694	0.0001224
3706	9.18e-05
3718	8.16e-05
3730	0.0001428
3742	0.0001632
3754	5.78e-05
3766	9.52e-05
3778	0.0001088
3790	0.0001938
3802	0.0001598
3814	0.0001292
3826	0.0001156
3838	0.0001496
