Infrared Spectrum: PURINE, 6-(o-METHOXYANILINO)-
Formula: C12 H11 N5 O
CAS: 73663-97-5
State: SOLID (1.0 mg / 650 mg KBr DISC)
Class: COBLENTZ III
Instrument: PERKIN-ELMER 21 (GRATING)
Instrument parameters: FILTER CHANGE AT 1090 CM^-^1
Sampling: TRANSMISSION
Resolution: 2
Origin: SOUTHERN RESEARCH INSTITUTE
1/CM	TRANSMITTANCE
607.699	0.39
616.588	0.3851
625.477	0.3685
634.366	0.2932
643.255	0.2273
652.143	0.3602
661.032	0.5064
669.921	0.4015
678.81	0.4169
687.699	0.5557
696.588	0.5497
705.477	0.5344
714.366	0.5171
723.254	0.498
732.143	0.4741
741.032	0.446
749.921	0.3462
758.81	0.1802
767.699	0.3642
776.588	0.5749
785.477	0.5977
794.366	0.5517
803.254	0.584
812.143	0.5764
821.032	0.5525
829.921	0.5196
838.81	0.4381
847.699	0.4618
856.588	0.4069
865.477	0.4462
874.365	0.4164
883.254	0.4843
892.143	0.536
901.032	0.5098
909.921	0.4203
918.81	0.4974
927.699	0.4109
936.588	0.2162
945.477	0.5551
954.365	0.6028
963.254	0.592
972.143	0.592
981.032	0.5821
989.921	0.5683
998.81	0.5564
1007.7	0.5326
1016.59	0.4909
1025.48	0.3729
1034.37	0.3546
1043.25	0.4512
1052.14	0.5823
1061.03	0.5716
1069.92	0.5494
1078.81	0.5291
1087.7	0.4189
1096.59	0.4116
1105.48	0.4921
1114.37	0.3477
1123.25	0.4491
1132.14	0.5038
1141.03	0.5294
1149.92	0.5128
1158.81	0.4728
1167.7	0.4638
1176.59	0.4431
1185.48	0.3316
1194.37	0.4878
1203.25	0.4589
1212.14	0.4115
1221.03	0.3098
1229.92	0.3876
1238.81	0.3026
1247.7	0.1848
1256.59	0.173
1265.48	0.247
1274.37	0.507
1283.25	0.458
1292.14	0.3754
1301.03	0.3273
1309.92	0.2378
1318.81	0.425
1327.7	0.3683
1336.59	0.258
1345.48	0.4031
1354.37	0.4823
1363.25	0.4209
1372.14	0.2667
1381.03	0.4506
1389.92	0.5047
1398.81	0.456
1407.7	0.3949
1416.59	0.3756
1425.48	0.3455
1434.37	0.283
1443.25	0.176
1452.14	0.2673
1461.03	0.1754
1469.92	0.1076
1478.81	0.285
1487.7	0.1543
1496.59	0.1362
1505.48	0.3502
1514.36	0.4045
1523.25	0.3587
1532.14	0.2396
1541.03	0.1474
1549.92	0.2256
1558.81	0.412
1567.7	0.3715
1576.59	0.2739
1585.48	0.1223
1594.36	0.0662
1603.25	0.1212
1612.14	0.1528
1621.03	0.0746
1629.92	0.0458
1638.81	0.0775
1647.7	0.2306
1656.59	0.409
1665.48	0.4986
1674.36	0.5626
1683.25	0.606
1692.14	0.6261
1701.03	0.6461
1709.92	0.655
1718.81	0.6569
1727.7	0.678
1736.59	0.675
1745.48	0.6501
1754.36	0.6556
1763.25	0.682
1772.14	0.685
1781.03	0.6819
1789.92	0.6803
1798.81	0.685
1807.7	0.68
1816.59	0.679
1825.48	0.674
1834.36	0.669
1843.25	0.662
1852.14	0.6562
1861.03	0.656
1869.92	0.6596
1878.81	0.6694
1887.7	0.659
1896.59	0.652
1905.48	0.6563
1914.36	0.6585
1923.25	0.654
1932.14	0.648
1941.03	0.645
1949.92	0.642
1958.81	0.642
1967.7	0.642
1976.59	0.642
1985.48	0.64
1994.36	0.6358
2003.25	0.631
2012.14	0.6259
2021.03	0.621
2029.92	0.6186
2038.81	0.626
2047.7	0.617
2056.59	0.6114
2065.48	0.603
2074.36	0.6086
2083.25	0.613
2092.14	0.613
2101.03	0.611
2109.92	0.6074
2118.81	0.6014
2127.7	0.5974
2136.59	0.597
2145.48	0.597
2154.36	0.5909
2163.25	0.59
2172.14	0.589
2181.03	0.5834
2189.92	0.5846
2198.81	0.5818
2207.7	0.571
2216.59	0.574
2225.48	0.573
2234.36	0.568
2243.25	0.5644
2252.14	0.563
2261.03	0.563
2269.92	0.561
2278.81	0.5554
2287.7	0.5521
2296.59	0.558
2305.48	0.5534
2314.36	0.5454
2323.25	0.55
2332.14	0.5444
2341.03	0.544
2349.92	0.542
2358.81	0.5446
2367.7	0.547
2376.59	0.539
2385.48	0.5239
2394.36	0.5104
2403.25	0.508
2412.14	0.506
2421.03	0.503
2429.92	0.4964
2438.81	0.491
2447.7	0.4879
2456.59	0.4703
2465.48	0.4659
2474.36	0.462
2483.25	0.4584
2492.14	0.4524
2501.03	0.4454
2509.92	0.443
2518.81	0.439
2527.7	0.435
2536.59	0.4304
2545.48	0.4144
2554.36	0.4079
2563.25	0.4106
2572.14	0.416
2581.03	0.416
2589.92	0.416
2598.81	0.4038
2607.7	0.397
2616.59	0.397
2625.48	0.395
2634.36	0.3924
2643.25	0.3874
2652.14	0.382
2661.03	0.3739
2669.92	0.363
2678.81	0.361
2687.7	0.3584
2696.59	0.356
2705.48	0.358
2714.36	0.359
2723.25	0.354
2732.14	0.354
2741.03	0.348
2749.92	0.345
2758.81	0.3459
2767.7	0.344
2776.59	0.34
2785.48	0.3426
2794.36	0.344
2803.25	0.3461
2812.14	0.3486
2821.03	0.3536
2829.92	0.3601
2838.81	0.3756
2847.7	0.3797
2856.59	0.4027
2865.48	0.406
2874.36	0.406
2883.25	0.4044
2892.14	0.3954
2901.03	0.3839
2909.92	0.3789
2918.81	0.3733
2927.7	0.371
2936.59	0.368
2945.47	0.363
2954.36	0.362
2963.25	0.361
2972.14	0.361
2981.03	0.361
2989.92	0.3616
2998.81	0.3651
3007.7	0.3726
3016.59	0.3806
3025.47	0.392
3034.36	0.402
3043.25	0.3989
3052.14	0.3954
3061.03	0.39
3069.92	0.3741
3078.81	0.375
3087.7	0.3766
3096.59	0.3806
3105.47	0.386
3114.36	0.386
3123.25	0.4118
3132.14	0.4486
3141.03	0.469
3149.92	0.4797
3158.81	0.4886
3167.7	0.494
3176.59	0.496
3185.47	0.497
3194.36	0.497
3203.25	0.497
3212.14	0.497
3221.03	0.497
3229.92	0.497
3238.81	0.4934
3247.7	0.492
3256.59	0.489
3265.47	0.481
3274.36	0.478
3283.25	0.478
3292.14	0.479
3301.03	0.476
3309.92	0.465
3318.81	0.463
3327.7	0.458
3336.59	0.4489
3345.47	0.4384
3354.36	0.4294
3363.25	0.4154
3372.14	0.4072
3381.03	0.3679
3389.92	0.328
3398.81	0.2818
3407.7	0.2787
3416.59	0.3295
3425.47	0.356
3434.36	0.356
3443.25	0.354
3452.14	0.354
3461.03	0.3566
3469.92	0.354
3478.81	0.354
3487.7	0.356
3496.59	0.359
3505.47	0.369
3514.36	0.372
3523.25	0.373
3532.14	0.3791
3541.03	0.385
3549.92	0.3906
3558.81	0.3966
3567.7	0.404
3576.59	0.4106
3585.47	0.4196
3594.36	0.4271
3603.25	0.4356
3612.14	0.443
3621.03	0.4471
3629.92	0.4536
3638.81	0.4636
3647.7	0.4726
3656.59	0.4852
3665.47	0.4849
3674.36	0.487
3683.25	0.4976
3692.14	0.503
3701.03	0.506
3709.92	0.506
3718.81	0.506
3727.7	0.506
3736.59	0.5106
3745.47	0.512
3754.36	0.513
3763.25	0.5206
3772.14	0.53
3781.03	0.5279
3789.92	0.5169
3798.81	0.5064
3807.7	0.5
3816.59	0.494
3825.47	0.5006
3834.36	0.5091
3843.25	0.516
3852.14	0.515
3861.03	0.5114
3869.92	0.51
3878.81	0.508
3887.7	0.508
3896.59	0.507
3905.47	0.5004
3914.36	0.4964
3923.25	0.496
3932.14	0.498
3941.03	0.4949
3949.92	0.493
3958.81	0.492
3967.7	0.493
3976.59	0.496
3985.47	0.4976
3994.36	0.5
4003.25	0.4901
4012.14	0.493
