Infrared Spectrum: Butyl sorbate
Formula: C 10 H 16 O 2
CAS: 7367-78-4
State: gas
Origin: EPA-IR VAPOR PHASE LIBRARY
1/CM	ABSORBANCE
549.8	0.0007267
559.445	0.001308
569.09	0.001448
578.734	0.002168
588.379	0.001268
598.024	0.0008174
607.669	0.0005305
617.313	0.0005263
626.958	0.0007602
636.603	0.0004815
646.248	0.0004149
655.893	0.000571
665.537	0.000671
675.182	0.0007265
684.827	0.001608
694.472	0.002038
704.116	0.002238
713.761	0.002548
723.406	0.002298
733.051	0.001988
742.695	0.001778
752.34	0.001838
761.985	0.001548
771.63	0.001928
781.275	0.001938
790.919	0.003038
800.564	0.003198
810.209	0.002848
819.854	0.002388
829.498	0.002598
839.143	0.002958
848.788	0.003238
858.433	0.003998
868.078	0.005538
877.722	0.005318
887.367	0.004588
897.012	0.004978
906.657	0.004968
916.301	0.005888
925.946	0.007468
935.591	0.008788
945.236	0.009318
954.88	0.009618
964.525	0.011668
974.17	0.016428
983.815	0.023408
993.46	0.027488
1003.1	0.022758
1012.75	0.019778
1022.39	0.020018
1032.04	0.016398
1041.68	0.011438
1051.33	0.010858
1060.97	0.014408
1070.62	0.016678
1080.26	0.017098
1089.91	0.012318
1099.55	0.011248
1109.2	0.012708
1118.84	0.022728
1128.49	0.057978
1138.13	0.077308
1147.78	0.036178
1157.42	0.030478
1167.07	0.043078
1176.71	0.056618
1186.36	0.044938
1196	0.021918
1205.64	0.019688
1215.29	0.028998
1224.93	0.035998
1234.58	0.066438
1244.22	0.123158
1253.87	0.095898
1263.51	0.059488
1273.16	0.033128
1282.8	0.022768
1292.45	0.023288
1302.09	0.026098
1311.74	0.031608
1321.38	0.049768
1331.03	0.036778
1340.67	0.014678
1350.32	0.009318
1359.96	0.007498
1369.61	0.007118
1379.25	0.009558
1388.9	0.012398
1398.54	0.008258
1408.18	0.005778
1417.83	0.005308
1427.47	0.005678
1437.12	0.006798
1446.76	0.008308
1456.41	0.010058
1466.05	0.010118
1475.7	0.008018
1485.34	0.005198
1494.99	0.003498
1504.63	0.002818
1514.28	0.002398
1523.92	0.002188
1533.57	0.001998
1543.21	0.001868
1552.86	0.001828
1562.5	0.002078
1572.15	0.002518
1581.79	0.003018
1591.44	0.004258
1601.08	0.007478
1610.73	0.014698
1620.37	0.020208
1630.01	0.016578
1639.66	0.021568
1649.3	0.032318
1658.95	0.016048
1668.59	0.006918
1678.24	0.005948
1687.88	0.007318
1697.53	0.010178
1707.17	0.015788
1716.82	0.032988
1726.46	0.079418
1736.11	0.104258
1745.75	0.059408
1755.4	0.023148
1765.04	0.010018
1774.69	0.006008
1784.33	0.004098
1793.98	0.002958
1803.62	0.002378
1813.27	0.002158
1822.91	0.002058
1832.55	0.002028
1842.2	0.001908
1851.84	0.001848
1861.49	0.001688
1871.13	0.001528
1880.78	0.001278
1890.42	0.0011933
1900.07	0.0011583
1909.71	0.0011706
1919.36	0.0011127
1929	0.0010583
1938.65	0.0010551
1948.29	0.0009771
1957.94	0.0010262
1967.58	0.001012
1977.23	0.0012219
1986.87	0.0011372
1996.52	0.0011741
2006.16	0.0009652
2015.81	0.0010226
2025.45	0.0010745
2035.1	0.0009531
2044.74	0.0009014
2054.38	0.000953
2064.03	0.000923
2073.67	0.0009205
2083.32	0.0009568
2092.96	0.0010101
2102.61	0.0008853
2112.25	0.0009118
2121.9	0.0008195
2131.54	0.0007657
2141.19	0.0007771
2150.83	0.0007687
2160.48	0.0007251
2170.12	0.0006345
2179.77	0.0006367
2189.41	0.0006555
2199.06	0.0006273
2208.7	0.0006419
2218.35	0.0006607
2227.99	0.0005987
2237.64	0.0006132
2247.28	0.0006235
2256.92	0.0005309
2266.57	0.0006005
2276.21	0.0005781
2285.86	0.0006639
2295.5	0.0006495
2305.15	0.0006715
2314.79	0.0006847
2324.44	0.0006776
2334.08	0.0006837
2343.73	0.0006692
2353.37	0.0006205
2363.02	0.0005627
2372.66	0.000663
2382.31	0.0006307
2391.95	0.0006065
2401.6	0.0004931
2411.24	0.0005261
2420.89	0.0005412
2430.53	0.0005597
2440.18	0.0005389
2449.82	0.0006477
2459.47	0.0006634
2469.11	0.000617
2478.75	0.0006891
2488.4	0.0005033
2498.04	0.0005565
2507.69	0.0004476
2517.33	0.0005335
2526.98	0.0004988
2536.62	0.0004817
2546.27	0.0004551
2555.91	0.0003864
2565.56	0.0005606
2575.2	0.0005489
2584.85	0.0007151
2594.49	0.0006143
2604.14	0.0005786
2613.78	0.000606
2623.43	0.0005101
2633.07	0.0005174
2642.72	0.0005603
2652.36	0.0005622
2662.01	0.0006631
2671.65	0.0005913
2681.29	0.000704
2690.94	0.000757
2700.58	0.0007119
2710.23	0.0008035
2719.87	0.0009013
2729.52	0.0009992
2739.16	0.001378
2748.81	0.001728
2758.45	0.001348
2768.1	0.001338
2777.74	0.001338
2787.39	0.001468
2797.03	0.001488
2806.68	0.001798
2816.32	0.002068
2825.97	0.002688
2835.61	0.003418
2845.26	0.004988
2854.9	0.008058
2864.55	0.012318
2874.19	0.016038
2883.84	0.018708
2893.48	0.017838
2903.12	0.017088
2912.77	0.020068
2922.41	0.027608
2932.06	0.033118
2941.7	0.034868
2951.35	0.036338
2960.99	0.041918
2970.64	0.045638
2980.28	0.030398
2989.93	0.017048
2999.57	0.011168
3009.22	0.009718
3018.86	0.011478
3028.51	0.012278
3038.15	0.008948
3047.8	0.006278
3057.44	0.005468
3067.09	0.004188
3076.73	0.002768
3086.38	0.002388
3096.02	0.002068
3105.67	0.001618
3115.31	0.001408
3124.95	0.0011752
3134.6	0.0011533
3144.24	0.0009072
3153.89	0.000933
3163.53	0.0007647
3173.18	0.0005882
3182.82	0.0005772
3192.47	0.0006777
3202.11	0.0005927
3211.76	0.0005538
3221.4	0.000465
3231.05	0.0004785
3240.69	0.0004401
3250.34	0.0004369
3259.98	0.00024164
3269.63	0.0005882
3279.27	0.0004992
3288.92	0.000227
3298.56	0.0002126
3308.21	0.0003877
3317.85	0.0003523
3327.49	0.00024536
3337.14	0.0004418
3346.78	0.0004676
3356.43	0.0005116
3366.07	0.0003515
3375.72	0.0005341
3385.36	0.0004085
3395.01	0.0003748
3404.65	0.0004729
3414.3	0.00029102
3423.94	0.0004429
3433.59	0.0007611
3443.23	0.0009451
3452.88	0.0012078
3462.52	0.0008843
3472.17	0.0006595
3481.81	0.0004369
3491.46	0.00030673
3501.1	0.00030756
3510.75	0.00031759
3520.39	0.000184
3530.04	0.00030224
3539.68	0.0002216
3549.32	0.0001617
3558.97	0.0001509
3568.61	0.000234
3578.26	0.000249008
3587.9	0.00033053
3597.55	0.00028894
3607.19	0.00025951
3616.84	0.0001715
3626.48	0.0002054
3636.13	0.0003731
3645.77	0.0002096
3655.42	0.0002307
3665.06	0.00032189
3674.71	0.00030489
3684.35	0.00032404
3694	0.0002218
3703.64	0.000116
3713.29	0.0001796
3722.93	0.0002126
3732.58	2.5e-05
3742.22	0.0003782
3751.86	0.0004603
3761.51	0.0004714
3771.15	0.0002623
3780.8	0.0004521
3790.44	0.000221
3800.09	0.000251823
3809.73	0.0002183
3819.38	0.00031357
3829.02	0.00027227
3838.67	0.0002141
3848.31	0.00026443
3857.96	0.0004228
3867.6	0.0004536
3877.25	0.0002189
3886.89	0.0001755
3896.54	0.0001992
3906.18	0.00032488
3915.83	0.00032304
3925.47	0.0004225
3935.12	0.0005237
3944.76	0.00031139
3954.41	0.00028094
3964.05	0.00027379
3973.69	0.0003004
3983.34	0.0005396
3992.98	0.0006873
