Infrared Spectrum: N-METHYL-N-B-HYDROXYETHYL-P-VINYLOXYETHYL AMINE
Formula: C7 H15 N O2
CAS: 7368-62-9
State: LIQUID
Class: COBLENTZ
Instrument: Not specified, most likely a prism, grating, or hybrid spectrometer.
Sampling: TRANSMISSION
Path length: 0.00125 CM (CAPILLARY)
Resolution: 4
MICROMETERS	TRANSMITTANCE
2.015	0.883
2.05127	0.883
2.08754	0.883
2.12381	0.883
2.16008	0.883
2.19635	0.881
2.23262	0.869
2.26889	0.851
2.30516	0.851
2.34143	0.851
2.3777	0.853
2.41397	0.853
2.45024	0.853
2.48652	0.854
2.52279	0.854
2.55906	0.862
2.59533	0.867
2.6316	0.869
2.66787	0.86
2.70414	0.836
2.74041	0.752
2.77668	0.614
2.81295	0.437
2.84922	0.322
2.88549	0.24
2.92176	0.227
2.95803	0.24
2.9943	0.268
3.03057	0.301
3.06684	0.329
3.10311	0.363
3.13938	0.399
3.17565	0.417
3.21192	0.464
3.24819	0.491
3.28446	0.519
3.32073	0.336
3.357	0.148
3.39327	0.121
3.42955	0.137
3.46582	0.134
3.50209	0.132
3.53836	0.136
3.57463	0.132
3.6109	0.256
3.64717	0.448
3.68344	0.501
3.71971	0.594
3.75598	0.646
3.79225	0.681
3.82852	0.704
3.86479	0.725
3.90106	0.747
3.93733	0.761
3.9736	0.765
4.00987	0.781
4.04614	0.795
4.08241	0.802
4.11868	0.811
4.15495	0.815
4.19122	0.818
4.22749	0.827
4.26376	0.831
4.30003	0.831
4.33631	0.831
4.37258	0.833
4.40885	0.838
4.44512	0.844
4.48139	0.845
4.51766	0.844
4.55393	0.844
4.5902	0.844
4.62647	0.835
4.66274	0.831
4.69901	0.831
4.73528	0.833
4.77155	0.84
4.80782	0.844
4.84409	0.844
4.88036	0.844
4.91663	0.842
4.9529	0.844
4.98917	0.844
5.02544	0.845
5.06171	0.845
5.09798	0.844
5.13425	0.842
5.17052	0.831
5.20679	0.826
5.24307	0.826
5.27934	0.827
5.31561	0.833
5.35188	0.84
5.38815	0.844
5.42442	0.845
5.46069	0.847
5.49696	0.845
5.53323	0.845
5.5695	0.845
5.60577	0.845
5.64204	0.847
5.67831	0.847
5.71458	0.847
5.75085	0.845
5.78712	0.844
5.82339	0.842
5.85966	0.817
5.89593	0.804
5.9322	0.734
5.96847	0.629
6.00474	0.498
6.04101	0.353
6.07728	0.261
6.11355	0.134
6.14982	0.118
6.1861	0.048
6.22237	0.08
6.25864	0.277
6.29491	0.505
6.33118	0.607
6.36745	0.681
6.40372	0.707
6.43999	0.722
6.47626	0.722
6.51253	0.722
6.5488	0.706
6.58507	0.7
6.62134	0.689
6.65761	0.681
6.69388	0.666
6.73015	0.611
6.76642	0.439
6.80269	0.324
6.83896	0.22
6.87523	0.193
6.9115	0.215
6.94777	0.362
6.98404	0.417
7.02031	0.444
7.05658	0.433
7.09286	0.394
7.12913	0.379
7.1654	0.396
7.20167	0.424
7.23794	0.456
7.27421	0.458
7.31048	0.451
7.34675	0.37
7.38302	0.356
7.41929	0.394
7.45556	0.444
7.49183	0.453
7.5281	0.347
7.56437	0.243
7.60064	0.1
7.63691	0.15
7.67318	0.263
7.70945	0.327
7.74572	0.36
7.78199	0.374
7.81826	0.378
7.85453	0.381
7.8908	0.397
7.92707	0.405
7.96334	0.406
7.99962	0.41
8.03589	0.415
8.07216	0.422
8.10843	0.424
8.1447	0.412
8.18097	0.369
8.21724	0.311
8.25351	0.209
8.28978	0.087
8.32605	0.008
8.36232	0.007
8.39859	0.007
8.43486	0.016
8.47113	0.062
8.5074	0.132
8.54367	0.184
8.57994	0.238
8.61621	0.267
8.65248	0.288
8.68875	0.301
8.72502	0.308
8.76129	0.317
8.79756	0.326
8.83383	0.338
8.8701	0.347
8.90637	0.399
8.94265	0.48
8.97892	0.53
9.01519	0.551
9.05146	0.53
9.08773	0.43
9.124	0.338
9.16027	0.245
9.19654	0.188
9.23281	0.137
9.26908	0.121
9.30535	0.116
9.34162	0.118
9.37789	0.125
9.41416	0.13
9.45043	0.13
9.4867	0.132
9.52297	0.13
9.55924	0.12
9.59551	0.111
9.63178	0.094
9.66805	0.087
9.70432	0.093
9.74059	0.107
9.77686	0.136
9.81313	0.159
9.84941	0.189
9.88568	0.234
9.92195	0.274
9.95822	0.29
9.99449	0.254
10.0308	0.225
10.067	0.225
10.1033	0.241
10.1396	0.252
10.1758	0.258
10.2121	0.272
10.2484	0.281
10.2846	0.268
10.3209	0.245
10.3572	0.211
10.3935	0.198
10.4297	0.2
10.466	0.252
10.5023	0.302
10.5385	0.326
10.5748	0.345
10.6111	0.392
10.6474	0.449
10.6836	0.487
10.7199	0.512
10.7562	0.521
10.7924	0.528
10.8287	0.537
10.865	0.55
10.9012	0.564
10.9375	0.575
10.9738	0.575
11.0101	0.571
11.0463	0.569
11.0826	0.571
11.1189	0.575
11.1551	0.582
11.1914	0.584
11.2277	0.591
11.264	0.596
11.3002	0.596
11.3365	0.578
11.3728	0.532
11.409	0.456
11.4453	0.41
11.4816	0.397
11.5178	0.408
11.5541	0.448
11.5904	0.478
11.6267	0.492
11.6629	0.5
11.6992	0.505
11.7355	0.5
11.7717	0.487
11.808	0.451
11.8443	0.399
11.8805	0.367
11.9168	0.338
11.9531	0.308
11.9894	0.277
12.0256	0.25
12.0619	0.234
12.0982	0.222
12.1344	0.206
12.1707	0.195
12.207	0.186
12.2433	0.184
12.2795	0.184
12.3158	0.191
12.3521	0.204
12.3883	0.225
12.4246	0.258
12.4609	0.295
12.4971	0.347
12.5334	0.388
12.5697	0.424
12.606	0.455
12.6422	0.487
12.6785	0.51
12.7148	0.53
12.751	0.546
12.7873	0.559
12.8236	0.575
12.8598	0.58
12.8961	0.587
12.9324	0.587
12.9687	0.589
13.0049	0.589
13.0412	0.589
13.0775	0.587
13.1137	0.586
13.15	0.58
13.1863	0.573
13.2226	0.569
13.2588	0.568
13.2951	0.571
13.3314	0.578
13.3676	0.586
13.4039	0.594
13.4402	0.602
13.4764	0.612
13.5127	0.623
13.549	0.63
13.5853	0.637
13.6215	0.646
13.6578	0.646
13.6941	0.646
13.7303	0.646
13.7666	0.646
13.8029	0.645
13.8391	0.637
13.8754	0.627
13.9117	0.616
13.948	0.609
13.9842	0.6
14.0205	0.596
14.0568	0.586
14.093	0.577
14.1293	0.571
14.1656	0.564
14.2019	0.557
14.2381	0.551
14.2744	0.55
14.3107	0.55
14.3469	0.553
14.3832	0.559
14.4195	0.564
14.4557	0.569
14.492	0.575
14.5283	0.577
14.5646	0.577
14.6008	0.577
14.6371	0.577
14.6734	0.577
14.7096	0.577
14.7459	0.575
14.7822	0.571
14.8184	0.568
14.8547	0.562
14.891	0.56
14.9273	0.56
14.9635	0.56
14.9998	0.553
15.0361	0.541
15.0723	0.53
15.1086	0.528
15.1449	0.525
15.1812	0.519
15.2174	0.519
15.2537	0.514
15.29	0.507
15.3262	0.501
15.3625	0.5
15.3988	0.492
15.435	0.483
