Infrared Spectrum: 2,4-Diacetoxypentane
Formula: C 9 H 16 O 4
CAS: 7371-86-0
State: gas
Origin: EPA-IR VAPOR PHASE LIBRARY
1/CM	ABSORBANCE
549.8	0.000283
559.445	0.000123
569.09	0.000205
578.734	0.0009507
588.379	0.0011844
598.024	0.002988
607.669	0.006468
617.313	0.004178
626.958	0.004058
636.603	0.004248
646.248	0.003338
655.893	0.001708
665.537	0.0009499
675.182	0.0008793
684.827	0.0007876
694.472	0.00061222
704.116	0.00057235
713.761	0.0006312
723.406	0.0007622
733.051	0.0005557
742.695	0.0004946
752.34	0.0007021
761.985	0.0008468
771.63	0.0010597
781.275	0.0012373
790.919	0.001738
800.564	0.002408
810.209	0.002608
819.854	0.002268
829.498	0.001938
839.143	0.002308
848.788	0.002818
858.433	0.003388
868.078	0.003358
877.722	0.002968
887.367	0.002798
897.012	0.003048
906.657	0.003948
916.301	0.005908
925.946	0.006828
935.591	0.007448
945.236	0.012368
954.88	0.016848
964.525	0.012378
974.17	0.007758
983.815	0.008718
993.46	0.012438
1003.1	0.019238
1012.75	0.027468
1022.39	0.030608
1032.04	0.028668
1041.68	0.027288
1051.33	0.020508
1060.97	0.016328
1070.62	0.017678
1080.26	0.022088
1089.91	0.030778
1099.55	0.038598
1109.2	0.038508
1118.84	0.032528
1128.49	0.028388
1138.13	0.025878
1147.78	0.023108
1157.42	0.017818
1167.07	0.012518
1176.71	0.009948
1186.36	0.012098
1196	0.017968
1205.64	0.032848
1215.29	0.069138
1224.93	0.145928
1234.58	0.207308
1244.22	0.165038
1253.87	0.089398
1263.51	0.043658
1273.16	0.025108
1282.8	0.017128
1292.45	0.012068
1302.09	0.008528
1311.74	0.006658
1321.38	0.005608
1331.03	0.005728
1340.67	0.007658
1350.32	0.013008
1359.96	0.026638
1369.61	0.049808
1379.25	0.049598
1388.9	0.028628
1398.54	0.013628
1408.18	0.007738
1417.83	0.006498
1427.47	0.006938
1437.12	0.007878
1446.76	0.008938
1456.41	0.009468
1466.05	0.008468
1475.7	0.005908
1485.34	0.004218
1494.99	0.003558
1504.63	0.003398
1514.28	0.003228
1523.92	0.003118
1533.57	0.002958
1543.21	0.002798
1552.86	0.002868
1562.5	0.002828
1572.15	0.002728
1581.79	0.002608
1591.44	0.002568
1601.08	0.002318
1610.73	0.002208
1620.37	0.002128
1630.01	0.001988
1639.66	0.002318
1649.3	0.002628
1658.95	0.002988
1668.59	0.003378
1678.24	0.004008
1687.88	0.004968
1697.53	0.006618
1707.17	0.009978
1716.82	0.014198
1726.46	0.019668
1736.11	0.035358
1745.75	0.087998
1755.4	0.157598
1765.04	0.099548
1774.69	0.035938
1784.33	0.018998
1793.98	0.013318
1803.62	0.009128
1813.27	0.006118
1822.91	0.004698
1832.55	0.003828
1842.2	0.003318
1851.84	0.002888
1861.49	0.002538
1871.13	0.002368
1880.78	0.002118
1890.42	0.001838
1900.07	0.001698
1909.71	0.0015062
1919.36	0.0014796
1929	0.0013212
1938.65	0.0012885
1948.29	0.0012746
1957.94	0.0011711
1967.58	0.0010818
1977.23	0.0010729
1986.87	0.0010022
1996.52	0.0011774
2006.16	0.0011457
2015.81	0.0011692
2025.45	0.0011905
2035.1	0.0012661
2044.74	0.0012444
2054.38	0.0012785
2064.03	0.001235
2073.67	0.0012492
2083.32	0.0013
2092.96	0.0012821
2102.61	0.001185
2112.25	0.0009961
2121.9	0.0009891
2131.54	0.0009044
2141.19	0.0009957
2150.83	0.0010454
2160.48	0.0010401
2170.12	0.0009791
2179.77	0.0009623
2189.41	0.0008583
2199.06	0.0009048
2208.7	0.0009213
2218.35	0.0007863
2227.99	0.0009115
2237.64	0.0007946
2247.28	0.0009131
2256.92	0.000856
2266.57	0.0008394
2276.21	0.0007614
2285.86	0.0008198
2295.5	0.0008552
2305.15	0.0008474
2314.79	0.0008133
2324.44	0.0008729
2334.08	0.0008473
2343.73	0.0007515
2353.37	0.000748
2363.02	0.0007398
2372.66	0.0007597
2382.31	0.0008426
2391.95	0.000872
2401.6	0.0008482
2411.24	0.0007902
2420.89	0.0007702
2430.53	0.0008669
2440.18	0.0009642
2449.82	0.0009051
2459.47	0.0010273
2469.11	0.0011556
2478.75	0.0009621
2488.4	0.0008953
2498.04	0.0007647
2507.69	0.0008059
2517.33	0.0007349
2526.98	0.00058519
2536.62	0.0006363
2546.27	0.00057141
2555.91	0.0006605
2565.56	0.00060196
2575.2	0.0006406
2584.85	0.000848
2594.49	0.0007905
2604.14	0.0007581
2613.78	0.0007388
2623.43	0.0007441
2633.07	0.0006985
2642.72	0.0006751
2652.36	0.0007277
2662.01	0.0007731
2671.65	0.0007642
2681.29	0.0008142
2690.94	0.0009057
2700.58	0.0010237
2710.23	0.0009179
2719.87	0.0009525
2729.52	0.0009787
2739.16	0.00117
2748.81	0.0012392
2758.45	0.0011348
2768.1	0.0009758
2777.74	0.0010338
2787.39	0.0010894
2797.03	0.0009211
2806.68	0.0012054
2816.32	0.0012661
2825.97	0.001538
2835.61	0.001618
2845.26	0.002048
2854.9	0.002648
2864.55	0.002958
2874.19	0.003698
2883.84	0.004648
2893.48	0.004628
2903.12	0.004868
2912.77	0.006288
2922.41	0.009518
2932.06	0.013028
2941.7	0.016278
2951.35	0.015728
2960.99	0.012378
2970.64	0.014148
2980.28	0.023408
2989.93	0.027418
2999.57	0.015808
3009.22	0.006808
3018.86	0.004178
3028.51	0.003398
3038.15	0.003118
3047.8	0.002858
3057.44	0.002508
3067.09	0.002438
3076.73	0.002278
3086.38	0.002078
3096.02	0.001988
3105.67	0.001788
3115.31	0.001608
3124.95	0.0014123
3134.6	0.001265
3144.24	0.0011032
3153.89	0.0011684
3163.53	0.0010873
3173.18	0.0008481
3182.82	0.000927
3192.47	0.0009663
3202.11	0.000811
3211.76	0.0008207
3221.4	0.0006593
3231.05	0.00055122
3240.69	0.0007196
3250.34	0.00056633
3259.98	0.0004785
3269.63	0.00055605
3279.27	0.000517418
3288.92	0.000396
3298.56	0.0004469
3308.21	0.0006591
3317.85	0.000256
3327.49	0.00060337
3337.14	0.00055428
3346.78	0.000346
3356.43	0.00056097
3366.07	0.0006033
3375.72	0.00051087
3385.36	0.000398
3395.01	0.0006059
3404.65	0.0006256
3414.3	0.00055555
3423.94	0.00058732
3433.59	0.0006716
3443.23	0.0007274
3452.88	0.0007804
3462.52	0.000763
3472.17	0.0011814
3481.81	0.001588
3491.46	0.002048
3501.1	0.001698
3510.75	0.0011897
3520.39	0.0008595
3530.04	0.0007292
3539.68	0.0004728
3549.32	0.00057162
3558.97	0.0004298
3568.61	0.000376
3578.26	0.00054515
3587.9	0.000383
3597.55	0.000255
3607.19	0.000348
3616.84	0.00055902
3626.48	0.00035
3636.13	0.0004837
3645.77	0.00059128
3655.42	0.0004819
3665.06	0.000286
3674.71	0.0005014
3684.35	0.0004628
3694	0.000406
3703.64	0.000324
3713.29	0.00033
3722.93	0.000369
3732.58	0.00053775
3742.22	0.00053638
3751.86	0.000417
3761.51	0.0004644
3771.15	0.0007316
3780.8	0.0004375
3790.44	0.0004803
3800.09	0.000417
3809.73	0.000525482
3819.38	0.00068
3829.02	0.00061422
3838.67	0.0004309
3848.31	0.000292
3857.96	0.000455
3867.6	0.0006442
3877.25	0.00053827
3886.89	0.00061014
3896.54	0.00056924
3906.18	0.00061654
3915.83	0.00054718
3925.47	0.0004859
3935.12	0.0006422
3944.76	0.0006262
3954.41	0.0007803
3964.05	0.000411
3973.69	0.000748
3983.34	0.0004282
3992.98	0.00051036
