Infrared Spectrum: trans-1,2-Cyclobutanedicarboxylic acid, dimethyl ester
Formula: C8 H12 O4
CAS: 7371-67-7
State: SOLUTION (10% CCl4 FOR 3800-1330, 10% CS2 FOR 1330-400 CM^-^1)
Boiling point: 225 C
Class: COBLENTZ III
Instrument: BECKMAN IR-9 (GRATING)
Instrument parameters: ORDER CHANGES: 670, 1200, 2000 CM^-^1
Sampling: TRANSMISSION
Path length: 0.012 CM, 0.011 CM
Resolution: 2
Origin: DOW CHEMICAL COMPANY
1/CM	TRANSMITTANCE
3800	0.9417
3791	0.9435
3782	0.9421
3773	0.9439
3764	0.9446
3755	0.9443
3746	0.9441
3737	0.9455
3728	0.9452
3719	0.9427
3710	0.9429
3701	0.9419
3692	0.9395
3683	0.9378
3674	0.9384
3665	0.9386
3656	0.9382
3647	0.9379
3638	0.9375
3629	0.9371
3620	0.9387
3611	0.9374
3602	0.9323
3593	0.9229
3584	0.9262
3575	0.9278
3566	0.9245
3557	0.9203
3548	0.92
3539	0.9183
3530	0.9178
3521	0.9158
3512	0.9154
3503	0.9128
3494	0.9049
3485	0.8885
3476	0.8688
3467	0.8505
3458	0.8412
3449	0.8505
3440	0.8655
3431	0.884
3422	0.8933
3413	0.8968
3404	0.8977
3395	0.8961
3386	0.894
3377	0.8901
3368	0.8861
3359	0.8818
3350	0.8766
3341	0.8711
3332	0.8665
3323	0.8649
3314	0.8636
3305	0.8637
3296	0.8609
3287	0.8613
3278	0.8639
3269	0.8656
3260	0.867
3251	0.8681
3242	0.8692
3233	0.8701
3224	0.8709
3215	0.8715
3206	0.8697
3197	0.8704
3188	0.8704
3179	0.8686
3170	0.8684
3161	0.8687
3152	0.8681
3143	0.8651
3134	0.8646
3125	0.8611
3116	0.8568
3107	0.8515
3098	0.8466
3089	0.8403
3080	0.8283
3071	0.8196
3062	0.8027
3053	0.7763
3044	0.72
3035	0.634
3026	0.5405
3017	0.5208
3008	0.4376
2999	0.2295
2990	0.3126
2981	0.413
2972	0.3723
2963	0.1712
2954	0.0874
2945	0.3171
2936	0.5665
2927	0.669
2918	0.6701
2909	0.6266
2900	0.6873
2891	0.6981
2882	0.6769
2873	0.6721
2864	0.7475
2855	0.7597
2846	0.6464
2837	0.7448
2828	0.8417
2819	0.8737
2810	0.8954
2801	0.9041
2792	0.9069
2783	0.9087
2774	0.912
2765	0.9138
2756	0.9155
2747	0.917
2738	0.9178
2729	0.9185
2720	0.9193
2711	0.9193
2702	0.9194
2693	0.9189
2684	0.9178
2675	0.9167
2666	0.9156
2657	0.9161
2648	0.9147
2639	0.9133
2630	0.9131
2621	0.9141
2612	0.9138
2603	0.9137
2594	0.9142
2585	0.9146
2576	0.9157
2567	0.917
2558	0.9184
2549	0.9199
2540	0.9217
2531	0.9236
2522	0.9255
2513	0.9272
2504	0.929
2495	0.9305
2486	0.9306
2477	0.931
2468	0.9298
2459	0.9278
2450	0.9247
2441	0.9238
2432	0.9216
2423	0.9197
2414	0.9176
2405	0.9166
2396	0.9136
2387	0.9133
2378	0.9168
2369	0.918
2360	0.9191
2351	0.9228
2342	0.9235
2333	0.9256
2324	0.934
2315	0.9341
2306	0.9341
2297	0.9354
2288	0.9352
2279	0.9349
2270	0.9348
2261	0.9349
2252	0.9359
2243	0.9348
2234	0.933
2225	0.9332
2216	0.9317
2207	0.9315
2198	0.9305
2189	0.926
2180	0.9221
2171	0.9191
2162	0.9134
2153	0.9111
2144	0.9094
2135	0.908
2126	0.9077
2117	0.9038
2108	0.8993
2099	0.8949
2090	0.8916
2081	0.8888
2072	0.8899
2063	0.8914
2054	0.8951
2045	0.8954
2036	0.8959
2027	0.8969
2018	0.8979
2009	0.8981
2000	0.8946
1991	0.8944
1982	0.9015
1973	0.9041
1964	0.9078
1955	0.9112
1946	0.909
1937	0.9097
1928	0.91
1919	0.9093
1910	0.9075
1901	0.906
1892	0.9021
1883	0.8972
1874	0.8945
1865	0.8897
1856	0.8841
1847	0.8749
1838	0.864
1829	0.8456
1820	0.8216
1811	0.7948
1802	0.7436
1793	0.6829
1784	0.6245
1775	0.5503
1766	0.415
1757	0.0409
1748	0
1739	0.0001
1730	0.0003
1721	0.0943
1712	0.2098
1703	0.3145
1694	0.4944
1685	0.6236
1676	0.7556
1667	0.8046
1658	0.8214
1649	0.8385
1640	0.8497
1631	0.8582
1622	0.859
1613	0.8604
1604	0.8496
1595	0.7868
1586	0.797
1577	0.7911
1568	0.7568
1559	0.7148
1550	0.7729
1541	0.8154
1532	0.803
1523	0.8005
1514	0.7984
1505	0.7886
1496	0.7781
1487	0.7405
1478	0.653
1469	0.4597
1460	0.3528
1451	0.3015
1442	0.1083
1433	0.1159
1424	0.592
1415	0.6376
1406	0.4393
1397	0.4931
1388	0.3877
1379	0.2568
1370	0.2916
1361	0.3181
1352	0.4196
1343	0.3205
1334	0.2085
1325	0.1834
1316	0.2201
1307	0.3344
1298	0.4627
1289	0.4582
1280	0.3543
1271	0.1878
1262	0.1213
1253	0.0793
1244	0.0074
1235	0.1304
1226	0.0556
1217	0.0096
1208	0.0068
1199	0.0173
1190	0.0467
1181	0.032
1172	0.0169
1163	0.0276
1154	0.1396
1145	0.3867
1136	0.5731
1127	0.68
1118	0.6992
1109	0.6531
1100	0.5315
1091	0.5367
1082	0.5496
1073	0.5329
1064	0.4893
1055	0.3533
1046	0.4351
1037	0.3833
1028	0.1823
1019	0.3691
1010	0.5802
1001	0.5998
992	0.53
983	0.6404
974	0.7709
965	0.7695
956	0.817
947	0.8332
938	0.7457
929	0.6583
920	0.714
911	0.7867
902	0.7317
893	0.7056
884	0.7588
875	0.8015
866	0.8275
857	0.8583
848	0.8367
839	0.7628
830	0.593
821	0.4786
812	0.7314
803	0.8253
794	0.8375
785	0.8457
776	0.8353
767	0.7619
758	0.6675
749	0.7034
740	0.7551
731	0.7688
722	0.7231
713	0.7125
704	0.7805
695	0.8569
686	0.8917
677	0.9118
668	0.9266
659	0.8771
650	0.895
641	0.9042
632	0.9052
623	0.9063
614	0.9098
605	0.9015
596	0.8753
587	0.8883
578	0.8885
569	0.852
560	0.8545
551	0.8502
542	0.8493
533	0.8545
524	0.8489
515	0.8478
506	0.8023
497	0.8233
488	0.8223
479	0.8029
470	0.7788
461	0.7496
452	0.714
443	0.6669
434	0.595
425	0.4757
416	0.2779
407	0.114
