Infrared Spectrum: Hydrazine, 1-benzoyl-2-(m-bromobenzoyl)-
Formula: C14 H11 Br N2 O2
CAS: 73713-56-1
State: SOLID (SPLIT MULL), FLUOROLUBE FOR 3800-1335 CM^-^1, NUJOL FOR 1335-400 CM^-^1
Class: COBLENTZ III
Instrument: DOW KBr FOREPRISM-GRATING
Instrument parameters: BLAZED AT 3.5, 12.0, 20.0 MICRON AND CHANGED AT 5.0, 7.5, 14.9 MICRON
Sampling: TRANSMISSION
Resolution: 2
Origin: DOW CHEMICAL COMPANY
1/CM	TRANSMITTANCE
3802	0.7532
3793	0.7534
3784	0.7537
3775	0.7543
3766	0.7558
3757	0.7576
3748	0.7618
3739	0.7646
3730	0.7664
3721	0.7658
3712	0.7638
3703	0.7597
3694	0.7586
3685	0.7632
3676	0.764
3667	0.7647
3658	0.7656
3649	0.7665
3640	0.7675
3631	0.7689
3622	0.7696
3613	0.7701
3604	0.7703
3595	0.7676
3586	0.7621
3577	0.7634
3568	0.7669
3559	0.7696
3550	0.7695
3541	0.7694
3532	0.7691
3523	0.7695
3514	0.77
3505	0.7705
3496	0.7714
3487	0.7722
3478	0.7732
3469	0.774
3460	0.7747
3451	0.7753
3442	0.776
3433	0.7764
3424	0.7768
3415	0.7772
3406	0.7778
3397	0.7778
3388	0.7781
3379	0.7776
3370	0.7768
3361	0.7757
3352	0.7741
3343	0.7718
3334	0.7691
3325	0.7646
3316	0.7595
3307	0.7536
3298	0.7461
3289	0.7378
3280	0.7284
3271	0.7125
3262	0.6937
3253	0.6707
3244	0.6411
3235	0.602
3226	0.5609
3217	0.5196
3208	0.4859
3199	0.476
3190	0.4785
3181	0.4812
3172	0.48
3163	0.4719
3154	0.4657
3145	0.4683
3136	0.4974
3127	0.5208
3118	0.544
3109	0.5658
3100	0.5782
3091	0.5793
3082	0.5766
3073	0.5543
3064	0.5276
3055	0.5105
3046	0.4959
3037	0.4878
3028	0.4749
3019	0.4584
3010	0.4422
3001	0.4337
2992	0.4467
2983	0.4721
2974	0.4977
2965	0.5202
2956	0.5406
2947	0.5593
2938	0.5766
2929	0.5925
2920	0.6081
2911	0.6262
2902	0.6388
2893	0.6456
2884	0.6499
2875	0.6569
2866	0.6671
2857	0.6731
2848	0.6758
2839	0.6782
2830	0.6847
2821	0.6931
2812	0.7076
2803	0.7238
2794	0.7381
2785	0.7471
2776	0.7551
2767	0.7626
2758	0.77
2749	0.7761
2740	0.78
2731	0.7838
2722	0.7867
2713	0.7892
2704	0.7917
2695	0.7932
2686	0.7946
2677	0.7961
2668	0.7976
2659	0.7993
2650	0.8012
2641	0.8037
2632	0.8061
2623	0.8085
2614	0.8105
2605	0.8121
2596	0.8139
2587	0.8156
2578	0.8174
2569	0.8194
2560	0.8215
2551	0.8232
2542	0.8246
2533	0.8258
2524	0.8266
2515	0.8271
2506	0.827
2497	0.8268
2488	0.8268
2479	0.8268
2470	0.8268
2461	0.8268
2452	0.8268
2443	0.8267
2434	0.8266
2425	0.827
2416	0.8278
2407	0.8289
2398	0.83
2389	0.8317
2380	0.8337
2371	0.8358
2362	0.8373
2353	0.836
2344	0.8327
2335	0.8321
2326	0.8336
2317	0.8387
2308	0.8456
2299	0.843
2290	0.8371
2281	0.8363
2272	0.8373
2263	0.8391
2254	0.8409
2245	0.8427
2236	0.8445
2227	0.8461
2218	0.8477
2209	0.8492
2200	0.8507
2191	0.8521
2182	0.8539
2173	0.8556
2164	0.8575
2155	0.8596
2146	0.8618
2137	0.8636
2128	0.8647
2119	0.8656
2110	0.8664
2101	0.8671
2092	0.868
2083	0.8689
2074	0.8697
2065	0.8702
2056	0.8707
2047	0.8713
2038	0.8716
2029	0.8718
2020	0.8721
2011	0.8715
2002	0.8415
1993	0.8546
1984	0.8502
1975	0.8503
1966	0.854
1957	0.851
1948	0.8528
1939	0.8542
1930	0.854
1921	0.8551
1912	0.8556
1903	0.8518
1894	0.8531
1885	0.8547
1876	0.8547
1867	0.8585
1858	0.8618
1849	0.8643
1840	0.864
1831	0.8614
1822	0.8568
1813	0.8485
1804	0.8468
1795	0.8584
1786	0.8655
1777	0.8633
1768	0.8618
1759	0.8635
1750	0.8662
1741	0.8659
1732	0.8647
1723	0.8614
1714	0.8562
1705	0.8502
1696	0.8424
1687	0.814
1678	0.7071
1669	0.5514
1660	0.6771
1651	0.5737
1642	0.2412
1633	0.0872
1624	0.4747
1615	0.5782
1606	0.6166
1597	0.7315
1588	0.7346
1579	0.51
1570	0.4905
1561	0.5252
1552	0.5354
1543	0.3768
1534	0.35
1525	0.446
1516	0.5371
1507	0.6254
1498	0.6976
1489	0.5269
1480	0.6348
1471	0.4955
1462	0.6512
1453	0.7065
1444	0.7242
1435	0.7386
1426	0.7314
1417	0.7345
1408	0.7449
1399	0.751
1390	0.7557
1381	0.7568
1372	0.751
1363	0.7408
1354	0.7114
1345	0.6664
1336	0.6518
1327	0.6405
1318	0.5725
1309	0.4078
1300	0.4772
1291	0.3878
1282	0.5259
1273	0.4714
1264	0.6378
1255	0.73
1246	0.7468
1237	0.7533
1228	0.7671
1219	0.7751
1210	0.7775
1201	0.7664
1192	0.7871
1183	0.7878
1174	0.7786
1165	0.7815
1156	0.7728
1147	0.7999
1138	0.8028
1129	0.7765
1120	0.7984
1111	0.8062
1102	0.7982
1093	0.7998
1084	0.8046
1075	0.7311
1066	0.7711
1057	0.8101
1048	0.8264
1039	0.83
1030	0.7715
1021	0.8267
1012	0.8294
1003	0.8294
994	0.8278
985	0.8354
976	0.8345
967	0.8253
958	0.8378
949	0.8399
940	0.835
931	0.7878
922	0.7901
913	0.8151
904	0.8038
895	0.8216
886	0.786
877	0.7754
868	0.83
859	0.8609
850	0.8621
841	0.8631
832	0.8711
823	0.8712
814	0.8678
805	0.8274
796	0.8535
787	0.8818
778	0.8746
769	0.8692
760	0.8494
751	0.7717
742	0.6055
733	0.6424
724	0.7297
715	0.8011
706	0.7275
697	0.7639
688	0.5489
679	0.6976
670	0.8395
661	0.8734
652	0.8836
643	0.8913
634	0.8651
625	0.8161
616	0.7839
607	0.7651
598	0.7705
589	0.7985
580	0.8305
571	0.8521
562	0.8633
553	0.7937
544	0.7853
535	0.845
526	0.8828
517	0.895
508	0.9021
499	0.8938
490	0.8878
481	0.8827
472	0.8707
463	0.8762
454	0.8805
445	0.8778
436	0.8699
427	0.8604
418	0.8495
409	0.838
400	0.8263
391	0.8156
