Infrared Spectrum: Indole, 1-propionyl-
Formula: C11 H11 N O
CAS: 73747-53-2
State: SOLUTION (5% CCl4 FOR 3800-1330, 5% CS2 FOR 1330-400 CM^-^1)
Melting point: 64-65 C
Class: COBLENTZ III
Instrument: BECKMAN IR-9 (GRATING)
Instrument parameters: ORDER CHANGES: 670, 1200, 2000 CM^-^1
Sampling: TRANSMISSION
Path length: 0.011 CM, 0.011 CM
Resolution: 2
Origin: DOW CHEMICAL COMPANY
1/CM	TRANSMITTANCE
3800	0.9049
3791	0.9074
3782	0.9065
3773	0.9081
3764	0.9073
3755	0.907
3746	0.9069
3737	0.9083
3728	0.9073
3719	0.9044
3710	0.9066
3701	0.9084
3692	0.908
3683	0.9072
3674	0.9082
3665	0.9076
3656	0.9068
3647	0.9055
3638	0.904
3629	0.9022
3620	0.9014
3611	0.9022
3602	0.9017
3593	0.8973
3584	0.8941
3575	0.8964
3566	0.8956
3557	0.8947
3548	0.8949
3539	0.8926
3530	0.8917
3521	0.8882
3512	0.8862
3503	0.8838
3494	0.8815
3485	0.8795
3476	0.8775
3467	0.8751
3458	0.8725
3449	0.8687
3440	0.8615
3431	0.8536
3422	0.8487
3413	0.8481
3404	0.8521
3395	0.856
3386	0.8588
3377	0.8612
3368	0.8628
3359	0.8637
3350	0.8644
3341	0.8655
3332	0.8671
3323	0.8689
3314	0.8713
3305	0.8752
3296	0.8756
3287	0.8776
3278	0.8808
3269	0.8828
3260	0.8839
3251	0.8851
3242	0.8863
3233	0.8865
3224	0.8866
3215	0.8862
3206	0.8838
3197	0.8846
3188	0.8839
3179	0.881
3170	0.8782
3161	0.8672
3152	0.8662
3143	0.877
3134	0.878
3125	0.8524
3116	0.851
3107	0.8706
3098	0.8776
3089	0.8548
3080	0.7908
3071	0.7578
3062	0.7731
3053	0.7422
3044	0.8185
3035	0.8023
3026	0.8477
3017	0.8516
3008	0.8147
2999	0.7308
2990	0.6306
2981	0.6276
2972	0.7653
2963	0.8274
2954	0.8231
2945	0.6301
2936	0.761
2927	0.8074
2918	0.7894
2909	0.8264
2900	0.8564
2891	0.8318
2882	0.8223
2873	0.8795
2864	0.9031
2855	0.9054
2846	0.8958
2837	0.8944
2828	0.8975
2819	0.9035
2810	0.9053
2801	0.9096
2792	0.9102
2783	0.909
2774	0.9082
2765	0.9071
2756	0.9063
2747	0.9079
2738	0.9099
2729	0.912
2720	0.9142
2711	0.9165
2702	0.9179
2693	0.9182
2684	0.9171
2675	0.9167
2666	0.9179
2657	0.9238
2648	0.9235
2639	0.9226
2630	0.9227
2621	0.9242
2612	0.9241
2603	0.9244
2594	0.9247
2585	0.925
2576	0.9252
2567	0.9254
2558	0.9256
2549	0.9257
2540	0.9252
2531	0.9243
2522	0.9225
2513	0.915
2504	0.9183
2495	0.9245
2486	0.9277
2477	0.9323
2468	0.933
2459	0.9306
2450	0.9255
2441	0.9266
2432	0.9273
2423	0.9286
2414	0.9292
2405	0.9314
2396	0.931
2387	0.9311
2378	0.935
2369	0.9356
2360	0.9349
2351	0.9379
2342	0.9373
2333	0.9372
2324	0.9415
2315	0.9392
2306	0.9375
2297	0.9387
2288	0.9378
2279	0.9429
2270	0.9415
2261	0.9399
2252	0.9387
2243	0.9377
2234	0.9377
2225	0.9392
2216	0.939
2207	0.9405
2198	0.9416
2189	0.9407
2180	0.9418
2171	0.9445
2162	0.9438
2153	0.9449
2144	0.9451
2135	0.9447
2126	0.9434
2117	0.9409
2108	0.9398
2099	0.9395
2090	0.9394
2081	0.9393
2072	0.9392
2063	0.9393
2054	0.9406
2045	0.9376
2036	0.9341
2027	0.9329
2018	0.9314
2009	0.9292
2000	0.926
1991	0.929
1982	0.9282
1973	0.9262
1964	0.9276
1955	0.9277
1946	0.9033
1937	0.906
1928	0.9226
1919	0.914
1910	0.8764
1901	0.9046
1892	0.9163
1883	0.9119
1874	0.9097
1865	0.9186
1856	0.918
1847	0.9105
1838	0.9028
1829	0.8915
1820	0.8907
1811	0.8934
1802	0.8675
1793	0.8554
1784	0.879
1775	0.8845
1766	0.878
1757	0.8672
1748	0.8248
1739	0.7151
1730	0.4612
1721	0.0461
1712	0.0305
1703	0.2417
1694	0.6746
1685	0.7885
1676	0.8007
1667	0.8451
1658	0.8552
1649	0.8519
1640	0.8459
1631	0.8243
1622	0.8335
1613	0.843
1604	0.7768
1595	0.8191
1586	0.7358
1577	0.7231
1568	0.7139
1559	0.7403
1550	0.7779
1541	0.4331
1532	0.6325
1523	0.8756
1514	0.8821
1505	0.8737
1496	0.8528
1487	0.8106
1478	0.7623
1469	0.5367
1460	0.4243
1451	0.0107
1442	0.355
1433	0.5971
1424	0.5792
1415	0.71
1406	0.7319
1397	0.4848
1388	0.3244
1379	0.261
1370	0.5561
1361	0.1694
1352	0.241
1343	0.159
1334	0.4938
1325	0.6456
1316	0.693
1307	0.3639
1298	0.2561
1289	0.2048
1280	0.7216
1271	0.7924
1262	0.8736
1253	0.8705
1244	0.847
1235	0.7942
1226	0.6488
1217	0.5462
1208	0.0115
1199	0.5077
1190	0.721
1181	0.8402
1172	0.7681
1163	0.7914
1154	0.6221
1145	0.7539
1136	0.8837
1127	0.859
1118	0.8801
1109	0.6902
1100	0.8882
1091	0.8578
1082	0.7217
1073	0.4825
1064	0.7587
1055	0.8315
1046	0.8762
1037	0.8707
1028	0.8495
1019	0.8226
1010	0.7888
1001	0.8298
992	0.8572
983	0.8839
974	0.8944
965	0.9059
956	0.9154
947	0.8895
938	0.7851
929	0.8999
920	0.8496
911	0.6947
902	0.3433
893	0.8581
884	0.897
875	0.9085
866	0.879
857	0.8827
848	0.9044
839	0.9428
830	0.9415
821	0.907
812	0.7973
803	0.9249
794	0.951
785	0.9393
776	0.9013
767	0.4665
758	0.6886
749	0.0195
740	0.5692
731	0.8244
722	0.6932
713	0.3379
704	0.7117
695	0.9318
686	0.9675
677	0.9784
668	0.9834
659	0.9386
650	0.9528
641	0.9695
632	0.9536
623	0.8953
614	0.9513
605	0.9128
596	0.9
587	0.9324
578	0.8201
569	0.957
560	0.974
551	0.958
542	0.9592
533	0.9568
524	0.962
515	0.9502
506	0.8451
497	0.9125
488	0.903
479	0.89
470	0.8677
461	0.8307
452	0.7886
443	0.7393
434	0.6605
425	0.4707
416	0.4628
