Infrared Spectrum: 2,2-Diphenyl-4-mercaptobutyric acid
Formula: C16 H16 O2 S
CAS: 73758-57-3
State: SOLUTION (10% CCl4 FOR 3800-1330, 2% CCl4 FOR 1850-1500, AND 10% CS2 FOR 1330-400 CM^-^1)
Melting point: 121 C
Class: COBLENTZ II
Instrument: DOW KBr FOREPRISM-GRATING
Instrument parameters: BLAZED AT 3.5, 12.0, 20.0 MICRON AND CHANGED AT 5.0, 7.5, 14.9 MICRON
Sampling: TRANSMISSION
Path length: 0.011 CM, 0.011 CM, 0.011 CM
Resolution: 2
Origin: DOW CHEMICAL COMPANY
1/CM	TRANSMITTANCE
3800	0.871
3791	0.8707
3782	0.8704
3773	0.8701
3764	0.8698
3755	0.8692
3746	0.8686
3737	0.8678
3728	0.8666
3719	0.8652
3710	0.8639
3701	0.8625
3692	0.8611
3683	0.8598
3674	0.8587
3665	0.8577
3656	0.8575
3647	0.8585
3638	0.8607
3629	0.8613
3620	0.8601
3611	0.858
3602	0.8558
3593	0.8554
3584	0.8578
3575	0.8589
3566	0.8545
3557	0.8491
3548	0.8416
3539	0.8313
3530	0.819
3521	0.809
3512	0.8088
3503	0.8183
3494	0.8262
3485	0.8295
3476	0.8303
3467	0.8296
3458	0.8274
3449	0.8241
3440	0.8207
3431	0.8171
3422	0.813
3413	0.8086
3404	0.8026
3395	0.7958
3386	0.7884
3377	0.7806
3368	0.7717
3359	0.7607
3350	0.7478
3341	0.7367
3332	0.7258
3323	0.7191
3314	0.7076
3305	0.6958
3296	0.6825
3287	0.6685
3278	0.6538
3269	0.6386
3260	0.6193
3251	0.6001
3242	0.582
3233	0.5642
3224	0.5496
3215	0.5346
3206	0.5171
3197	0.4998
3188	0.4826
3179	0.4657
3170	0.4488
3161	0.4298
3152	0.4147
3143	0.4012
3134	0.3922
3125	0.3791
3116	0.3644
3107	0.3425
3098	0.3039
3089	0.2677
3080	0.266
3071	0.2046
3062	0.1983
3053	0.2438
3044	0.2768
3035	0.2425
3026	0.242
3017	0.2637
3008	0.2763
2999	0.2658
2990	0.2449
2981	0.222
2972	0.2025
2963	0.2305
2954	0.2756
2945	0.2769
2936	0.2403
2927	0.2267
2918	0.2878
2909	0.3087
2900	0.3104
2891	0.2978
2882	0.2892
2873	0.2623
2864	0.2723
2855	0.2945
2846	0.3172
2837	0.3337
2828	0.348
2819	0.3627
2810	0.3718
2801	0.375
2792	0.3786
2783	0.3903
2774	0.4042
2765	0.4194
2756	0.4359
2747	0.4526
2738	0.469
2729	0.484
2720	0.4967
2711	0.5047
2702	0.5101
2693	0.5123
2684	0.5099
2675	0.501
2666	0.4914
2657	0.4823
2648	0.4731
2639	0.4609
2630	0.4422
2621	0.4257
2612	0.4319
2603	0.4467
2594	0.4605
2585	0.4741
2576	0.4908
2567	0.511
2558	0.5277
2549	0.54
2540	0.5495
2531	0.5553
2522	0.5568
2513	0.5557
2504	0.5557
2495	0.5619
2486	0.5797
2477	0.5954
2468	0.6105
2459	0.6298
2450	0.65
2441	0.664
2432	0.6755
2423	0.6881
2414	0.7
2405	0.7107
2396	0.7208
2387	0.7298
2378	0.751
2369	0.7761
2360	0.8042
2351	0.8199
2342	0.7981
2333	0.8101
2324	0.8093
2315	0.7868
2306	0.7796
2297	0.7762
2288	0.7739
2279	0.7738
2270	0.7751
2261	0.7767
2252	0.7778
2243	0.7776
2234	0.7775
2225	0.7775
2216	0.7788
2207	0.78
2198	0.7807
2189	0.7812
2180	0.7818
2171	0.7824
2162	0.7831
2153	0.7847
2144	0.7862
2135	0.7874
2126	0.788
2117	0.7884
2108	0.7871
2099	0.7851
2090	0.7846
2081	0.7851
2072	0.7867
2063	0.7883
2054	0.7883
2045	0.7867
2036	0.7836
2027	0.7822
2018	0.7836
2009	0.786
2000	0.8037
1991	0.8176
1982	0.8118
1973	0.8024
1964	0.7787
1955	0.763
1946	0.7596
1937	0.7942
1928	0.8081
1919	0.8092
1910	0.8047
1901	0.7971
1892	0.781
1883	0.7786
1874	0.7758
1865	0.7896
1856	0.7922
1847	0.7925
1838	0.7918
1829	0.7892
1820	0.7744
1811	0.7618
1802	0.7351
1793	0.7394
1784	0.7585
1775	0.7525
1766	0.7084
1757	0.6631
1748	0.61
1739	0.6029
1730	0.5671
1721	0.4766
1712	0.1373
1703	0.0048
1694	0.03
1685	0.228
1676	0.5022
1667	0.5682
1658	0.6144
1649	0.6611
1640	0.7056
1631	0.7344
1622	0.7505
1613	0.7567
1604	0.7126
1595	0.6551
1586	0.7458
1577	0.7858
1568	0.8212
1559	0.8362
1550	0.8442
1541	0.8365
1532	0.8237
1523	0.8199
1514	0.8026
1505	0.658
1496	0.3241
1487	0.4839
1478	0.6798
1469	0.7449
1460	0.7168
1451	0.4541
1442	0.4846
1433	0.6848
1424	0.6784
1415	0.5981
1406	0.4259
1397	0.398
1388	0.4839
1379	0.5495
1370	0.6665
1361	0.6948
1352	0.7035
1343	0.7074
1334	0.6915
1325	0.6772
1316	0.6771
1307	0.6553
1298	0.6246
1289	0.5334
1280	0.36
1271	0.1578
1262	0.108
1253	0.1616
1244	0.3032
1235	0.4593
1226	0.6021
1217	0.6501
1208	0.6478
1199	0.5856
1190	0.5948
1181	0.5946
1172	0.6342
1163	0.6837
1154	0.7094
1145	0.7861
1136	0.7967
1127	0.8164
1118	0.8718
1109	0.8724
1100	0.8693
1091	0.8652
1082	0.7907
1073	0.8189
1064	0.8509
1055	0.8055
1046	0.801
1037	0.5368
1028	0.7261
1019	0.7655
1010	0.7761
1001	0.6531
992	0.7671
983	0.7351
974	0.6532
965	0.6329
956	0.6617
947	0.6245
938	0.5752
929	0.5258
920	0.5286
911	0.5431
902	0.5778
893	0.6154
884	0.6271
875	0.641
866	0.6725
857	0.7362
848	0.7565
839	0.7544
830	0.7769
821	0.7978
812	0.8124
803	0.8218
794	0.8275
785	0.8036
776	0.7428
767	0.5724
758	0.4352
749	0.3866
740	0.5052
731	0.32
722	0.4277
713	0.3275
704	0.189
695	0.0732
686	0.5426
677	0.7018
668	0.7821
659	0.7646
650	0.7008
641	0.6102
632	0.6532
623	0.7908
614	0.8338
605	0.8709
596	0.8849
587	0.8859
578	0.8899
569	0.9221
560	0.9268
551	0.9305
542	0.9315
533	0.9325
524	0.9142
515	0.8553
506	0.8411
497	0.7988
488	0.888
479	0.9003
470	0.8921
461	0.8541
452	0.7786
443	0.7608
434	0.7865
425	0.8192
416	0.8414
407	0.8543
398	0.8631
389	0.8663
