Infrared Spectrum: N,N-Dimethyl-N-octylamine
Formula: C 10 H 23 N
CAS: 7378-99-6
State: gas
Origin: EPA-IR VAPOR PHASE LIBRARY
1/CM	ABSORBANCE
549.9	0.00055
559.547	0.00054
569.193	0.00012
578.84	0.0002
588.486	8e-05
598.133	2e-05
607.779	5e-05
617.426	0.0003
627.072	0.00017
636.719	0.00021
646.365	0.00037
656.012	0.00046
665.658	0.00048
675.305	0.00072
684.951	0.00105
694.598	0.00158
704.245	0.0026171
713.891	0.00413
723.538	0.00477
733.184	0.00451
742.831	0.00413
752.477	0.00392
762.124	0.00398
771.77	0.00388
781.417	0.00379
791.063	0.00408
800.71	0.00457
810.356	0.00492
820.003	0.00561
829.649	0.00657
839.296	0.00695
848.943	0.00613
858.589	0.00479
868.236	0.00391
877.882	0.00342
887.529	0.00321
897.175	0.0031282
906.822	0.00332
916.468	0.00349
926.115	0.00339
935.761	0.00319
945.408	0.00332
955.054	0.00385
964.701	0.00492
974.347	0.00643
983.994	0.00737
993.64	0.00877
1003.29	0.01085
1012.93	0.01404
1022.58	0.01889
1032.23	0.02475
1041.87	0.02992
1051.52	0.02812
1061.17	0.02321
1070.81	0.01852
1080.46	0.01406
1090.11	0.01153
1099.75	0.01084
1109.4	0.01121
1119.05	0.00942
1128.69	0.00718
1138.34	0.00832
1147.99	0.01243
1157.63	0.01401
1167.28	0.01145
1176.92	0.00883
1186.57	0.00736
1196.22	0.00726
1205.86	0.00767
1215.51	0.00808
1225.16	0.00839
1234.8	0.00948
1244.45	0.01184
1254.1	0.0156
1263.74	0.01936
1273.39	0.0188
1283.04	0.01644
1292.68	0.01467
1302.33	0.01353
1311.98	0.01191
1321.62	0.01
1331.27	0.00987
1340.92	0.01163
1350.56	0.01333
1360.21	0.0146
1369.86	0.01749
1379.5	0.01797
1389.15	0.01228
1398.79	0.00812
1408.44	0.00733
1418.09	0.00796
1427.73	0.01134
1437.38	0.01937
1447.03	0.03083
1456.67	0.04386
1466.32	0.04501
1475.97	0.02912
1485.61	0.01564
1495.26	0.00926
1504.91	0.00638
1514.55	0.00479
1524.2	0.00383
1533.85	0.0032
1543.49	0.00277
1553.14	0.0025038
1562.79	0.0022999
1572.43	0.0021601
1582.08	0.00204
1591.73	0.002001
1601.37	0.001944
1611.02	0.001965
1620.67	0.002052
1630.31	0.0021603
1639.96	0.0024456
1649.6	0.0027754
1659.25	0.0026646
1668.9	0.00219895
1678.54	0.00201
1688.19	0.001909
1697.84	0.001853
1707.48	0.001749
1717.13	0.001655
1726.78	0.001544
1736.42	0.001497
1746.07	0.001473
1755.72	0.001368
1765.36	0.0014
1775.01	0.001365
1784.66	0.001366
1794.3	0.001337
1803.95	0.001351
1813.6	0.001351
1823.24	0.001365
1832.89	0.001344
1842.54	0.00132
1852.18	0.001364
1861.83	0.001377
1871.47	0.001376
1881.12	0.001359
1890.77	0.001336
1900.41	0.001305
1910.06	0.001231
1919.71	0.001214
1929.35	0.00117
1939	0.001183
1948.65	0.00117
1958.29	0.001232
1967.94	0.001226
1977.59	0.001277
1987.23	0.001333
1996.88	0.001397
2006.53	0.001527
2016.17	0.001582
2025.82	0.00164
2035.47	0.001674
2045.11	0.001687
2054.76	0.001646
2064.41	0.001698
2074.05	0.001737
2083.7	0.001727
2093.35	0.001693
2102.99	0.001595
2112.64	0.001531
2122.28	0.001483
2131.93	0.001442
2141.58	0.001443
2151.22	0.001406
2160.87	0.001453
2170.52	0.001429
2180.16	0.001488
2189.81	0.001507
2199.46	0.001478
2209.1	0.001498
2218.75	0.001483
2228.4	0.001455
2238.04	0.001479
2247.69	0.00152
2257.34	0.001529
2266.98	0.001566
2276.63	0.001639
2286.28	0.001631
2295.92	0.001699
2305.57	0.001688
2315.22	0.001732
2324.86	0.001786
2334.51	0.001836
2344.16	0.001792
2353.8	0.001799
2363.45	0.001879
2373.09	0.00189
2382.74	0.001882
2392.39	0.001916
2402.03	0.001986
2411.68	0.002052
2421.33	0.00207
2430.97	0.002011
2440.62	0.002014
2450.27	0.001976
2459.91	0.0020862
2469.56	0.00220361
2479.21	0.00243
2488.85	0.0027422
2498.5	0.0029888
2508.15	0.0030013
2517.79	0.0030954
2527.44	0.0031207
2537.09	0.0031605
2546.73	0.00322
2556.38	0.0033
2566.03	0.00339
2575.67	0.00352
2585.32	0.00379
2594.96	0.00398
2604.61	0.00433
2614.26	0.00461
2623.9	0.00497
2633.55	0.00541
2643.2	0.00612
2652.84	0.00704
2662.49	0.00791
2672.14	0.00893
2681.78	0.01004
2691.43	0.01158
2701.08	0.01402
2710.72	0.01773
2720.37	0.02199
2730.02	0.02612
2739.66	0.03119
2749.31	0.04012
2758.96	0.0611
2768.6	0.09659
2778.25	0.10561
2787.9	0.09519
2797.54	0.07939
2807.19	0.06578
2816.84	0.07222
2826.48	0.07057
2836.13	0.05734
2845.77	0.06536
2855.42	0.09886
2865.07	0.12311
2874.71	0.1105
2884.36	0.0965
2894.01	0.09173
2903.65	0.10823
2913.3	0.1482
2922.95	0.22367
2932.59	0.29509
2942.24	0.28235
2951.89	0.21381
2961.53	0.17376
2971.18	0.15649
2980.83	0.10738
2990.47	0.0579
3000.12	0.03092
3009.77	0.02057
3019.41	0.01517
3029.06	0.01208
3038.71	0.01028
3048.35	0.00861
3058	0.0075
3067.64	0.00685
3077.29	0.00632
3086.94	0.0057
3096.58	0.00531
3106.23	0.00487
3115.88	0.00447
3125.52	0.00428
3135.17	0.00383
3144.82	0.00394
3154.46	0.00366
3164.11	0.00362
3173.76	0.00336
3183.4	0.00332
3193.05	0.0031056
3202.7	0.002979
3212.34	0.0027956
3221.99	0.0023742
3231.64	0.0021325
3241.28	0.001996
3250.93	0.001674
3260.58	0.001711
3270.22	0.001542
3279.87	0.001512
3289.52	0.001508
3299.16	0.001498
3308.81	0.001601
3318.45	0.001212
3328.1	0.001525
3337.75	0.001402
3347.39	0.001424
3357.04	0.001469
3366.69	0.0014
3376.33	0.001328
3385.98	0.001356
3395.63	0.001321
3405.27	0.001354
3414.92	0.001208
3424.57	0.001189
3434.21	0.001263
3443.86	0.00112
3453.51	0.00096
3463.15	0.00086
3472.8	0.00094
3482.45	0.00087
3492.09	0.00092
3501.74	0.00075
3511.39	0.00074
3521.03	0.00084
3530.68	0.00084
3540.33	0.00075
3549.97	0.00086
3559.62	0.00089
3569.26	0.00088
3578.91	0.0009
3588.56	0.00098
3598.2	0.00093
3607.85	0.00097
3617.5	0.00108
3627.14	0.001282
3636.79	0.00113
3646.44	0.001204
3656.08	0.00116
3665.73	0.00115
3675.38	0.001224
3685.02	0.00112
3694.67	0.001193
3704.32	0.00115
3713.96	0.00112
3723.61	0.00111
3733.26	0.00104
3742.9	0.001212
3752.55	0.00116
3762.2	0.001258
3771.84	0.001248
3781.49	0.001247
3791.13	0.001377
3800.78	0.001479
3810.43	0.001424
3820.07	0.001486
3829.72	0.001451
3839.37	0.001429
3849.01	0.001431
3858.66	0.001422
3868.31	0.001384
3877.95	0.001357
3887.6	0.001402
3897.25	0.001424
3906.89	0.00133
3916.54	0.001518
3926.19	0.001481
3935.83	0.001576
3945.48	0.001608
3955.13	0.001591
3964.77	0.001737
3974.42	0.001845
3984.07	0.001819
3993.71	0.001844
