Infrared Spectrum: Methyl 6-chloronicotinate
Formula: C 7 H 6 Cl N O 2
CAS: 73781-91-6
State: gas
Origin: EPA-IR VAPOR PHASE LIBRARY
1/CM	ABSORBANCE
549.8	0.003096
559.445	0.0012307
569.09	0.002166
578.734	0.001516
588.379	0.0012195
598.024	0.0009213
607.669	0.001836
617.313	0.001476
626.958	0.002666
636.603	0.001686
646.248	0.001566
655.893	0.0009871
665.537	0.001326
675.182	0.0013218
684.827	0.0011531
694.472	0.002176
704.116	0.001946
713.761	0.003196
723.406	0.003376
733.051	0.004546
742.695	0.011666
752.34	0.016146
761.985	0.027486
771.63	0.035176
781.275	0.021006
790.919	0.007646
800.564	0.005986
810.209	0.010296
819.854	0.023206
829.498	0.034896
839.143	0.021826
848.788	0.012276
858.433	0.006776
868.078	0.003356
877.722	0.002326
887.367	0.002036
897.012	0.002496
906.657	0.002876
916.301	0.002656
925.946	0.002566
935.591	0.004176
945.236	0.006106
954.88	0.009176
964.525	0.010206
974.17	0.006756
983.815	0.004886
993.46	0.006626
1003.1	0.008456
1012.75	0.025386
1022.39	0.043546
1032.04	0.018726
1041.68	0.011986
1051.33	0.010096
1060.97	0.007696
1070.62	0.011366
1080.26	0.018386
1089.91	0.033536
1099.55	0.081306
1109.2	0.179306
1118.84	0.272896
1128.49	0.289996
1138.13	0.133106
1147.78	0.041166
1157.42	0.022526
1167.07	0.018836
1176.71	0.018286
1186.36	0.024376
1196	0.028376
1205.64	0.019796
1215.29	0.018206
1224.93	0.025926
1234.58	0.041166
1244.22	0.062926
1253.87	0.082136
1263.51	0.149956
1273.16	0.268556
1282.8	0.253366
1292.45	0.244216
1302.09	0.110576
1311.74	0.035376
1321.38	0.020586
1331.03	0.018266
1340.67	0.025836
1350.32	0.039836
1359.96	0.064866
1369.61	0.056716
1379.25	0.023656
1388.9	0.016066
1398.54	0.012106
1408.18	0.012046
1417.83	0.015046
1427.47	0.034616
1437.12	0.075826
1446.76	0.059866
1456.41	0.051626
1466.05	0.049276
1475.7	0.022486
1485.34	0.010596
1494.99	0.007986
1504.63	0.007276
1514.28	0.006756
1523.92	0.006626
1533.57	0.008656
1543.21	0.013966
1552.86	0.024876
1562.5	0.037626
1572.15	0.059176
1581.79	0.119986
1591.44	0.116736
1601.08	0.038646
1610.73	0.012296
1620.37	0.007246
1630.01	0.006196
1639.66	0.006266
1649.3	0.006106
1658.95	0.005976
1668.59	0.005826
1678.24	0.006116
1687.88	0.007076
1697.53	0.010056
1707.17	0.012946
1716.82	0.017926
1726.46	0.040866
1736.11	0.116256
1745.75	0.237316
1755.4	0.218406
1765.04	0.082596
1774.69	0.024816
1784.33	0.011296
1793.98	0.010236
1803.62	0.009226
1813.27	0.006656
1822.91	0.004426
1832.55	0.003036
1842.2	0.002836
1851.84	0.003816
1861.49	0.003816
1871.13	0.003716
1880.78	0.004206
1890.42	0.003946
1900.07	0.003216
1909.71	0.003336
1919.36	0.003516
1929	0.003776
1938.65	0.003896
1948.29	0.003616
1957.94	0.002936
1967.58	0.002346
1977.23	0.001926
1986.87	0.001856
1996.52	0.001486
2006.16	0.0012405
2015.81	0.001506
2025.45	0.001416
2035.1	0.001576
2044.74	0.001896
2054.38	0.002206
2064.03	0.002406
2073.67	0.002706
2083.32	0.003306
2092.96	0.002896
2102.61	0.002786
2112.25	0.002286
2121.9	0.001726
2131.54	0.001466
2141.19	0.001356
2150.83	0.0010685
2160.48	0.0010591
2170.12	0.0009392
2179.77	0.0009881
2189.41	0.0008759
2199.06	0.0010118
2208.7	0.0009775
2218.35	0.0009722
2227.99	0.0011545
2237.64	0.001466
2247.28	0.001346
2256.92	0.001536
2266.57	0.001646
2276.21	0.0012373
2285.86	0.0011361
2295.5	0.0010011
2305.15	0.0009996
2314.79	0.0009602
2324.44	0.0011927
2334.08	0.0009515
2343.73	0.0011487
2353.37	0.0008703
2363.02	0.0008001
2372.66	0.0009968
2382.31	0.001238
2391.95	0.001596
2401.6	0.001416
2411.24	0.001476
2420.89	0.001233
2430.53	0.0011107
2440.18	0.0010505
2449.82	0.0010943
2459.47	0.001916
2469.11	0.002236
2478.75	0.002036
2488.4	0.001506
2498.04	0.001556
2507.69	0.0013123
2517.33	0.001746
2526.98	0.0013031
2536.62	0.0012746
2546.27	0.001396
2555.91	0.001496
2565.56	0.001706
2575.2	0.001616
2584.85	0.001606
2594.49	0.001546
2604.14	0.001416
2613.78	0.0009089
2623.43	0.0004936
2633.07	0.0007879
2642.72	0.0004709
2652.36	0.0008875
2662.01	0.0008848
2671.65	0.0009141
2681.29	0.0012119
2690.94	0.0012298
2700.58	0.0009292
2710.23	0.0006999
2719.87	0.0011126
2729.52	0.0007218
2739.16	0.0008905
2748.81	0.0006245
2758.45	0.0005595
2768.1	0.0006864
2777.74	0.0006476
2787.39	0.0006509
2797.03	0.0005401
2806.68	0.000769
2816.32	0.0010285
2825.97	0.001596
2835.61	0.002546
2845.26	0.005276
2854.9	0.007076
2864.55	0.003646
2874.19	0.003106
2883.84	0.003126
2893.48	0.004176
2903.12	0.004936
2912.77	0.005916
2922.41	0.005876
2932.06	0.005666
2941.7	0.007316
2951.35	0.015326
2960.99	0.041086
2970.64	0.028906
2980.28	0.008276
2989.93	0.006986
2999.57	0.008386
3009.22	0.009276
3018.86	0.008586
3028.51	0.007756
3038.15	0.006676
3047.8	0.004966
3057.44	0.003876
3067.09	0.004146
3076.73	0.004336
3086.38	0.004036
3096.02	0.004586
3105.67	0.004036
3115.31	0.002836
3124.95	0.002196
3134.6	0.001336
3144.24	0.0012882
3153.89	0.001476
3163.53	0.0010926
3173.18	0.0011303
3182.82	0.0012526
3192.47	0.0012189
3202.11	0.0008384
3211.76	0.00035614
3221.4	0.0008677
3231.05	0.0004661
3240.69	0.00031757
3250.34	0.00018
3259.98	0.0006995
3269.63	0.0004847
3279.27	0.0009503
3288.92	0.0005484
3298.56	0.0008817
3308.21	0.0005412
3317.85	0.0004731
3327.49	0.0008135
3337.14	0.000558
3346.78	0.0008653
3356.43	0.00032155
3366.07	0.0004774
3375.72	0.00040072
3385.36	0.00040749
3395.01	0.00034398
3404.65	0.0005374
3414.3	0.00034066
3423.94	0.0004806
3433.59	0.0010303
3443.23	0.0009935
3452.88	0.0010679
3462.52	0.001706
3472.17	0.002446
3481.81	0.002576
3491.46	0.001926
3501.1	0.0012256
3510.75	0.0008067
3520.39	0.0007108
3530.04	0.0006067
3539.68	0.001386
3549.32	0.0008589
3558.97	0.0006119
3568.61	0.0006353
3578.26	0.0005606
3587.9	0.0004687
3597.55	0.000655
3607.19	0.0004781
3616.84	0.00037774
3626.48	0.0006718
3636.13	0.00034838
3645.77	0.00035597
3655.42	0.0009692
3665.06	0.0005649
3674.71	0.0005876
3684.35	0.0005269
3694	0.00039946
3703.64	0.0009144
3713.29	0.0008682
3722.93	0.0007996
3732.58	0.0004422
3742.22	0.000208
3751.86	0.0005032
3761.51	0.0009198
3771.15	0.00036851
3780.8	0.00040876
3790.44	0.0003686
3800.09	0.0004631
3809.73	0.0006364
3819.38	0.0010869
3829.02	0.0007034
3838.67	0.0006689
3848.31	0.0009935
3857.96	0.0006145
3867.6	0.000726
3877.25	0.0005391
3886.89	0.000132
3896.54	0.000206
3906.18	0.0007726
3915.83	0.00053
3925.47	0.0005507
3935.12	0.0009846
3944.76	0.0006072
3954.41	0.000321
3964.05	0.0006196
3973.69	0.0006163
3983.34	0.0006613
3992.98	0.0004899
