Infrared Spectrum: ANTHRANILIC ACID, N-[(2-THIOXO-BENZOTHIAZOLIN-3-YL)METHYL]-
Formula: C15 H12 N2 O2 S2
CAS: 73791-26-1
State: SOLID (SPLIT MULL)
Melting point: 159 C (DECOMP.)
Class: COBLENTZ III
Instrument: DOW KBr FOREPRISM-GRATING
Instrument parameters: BLAZED AT 3.5, 12.0, 20.0 MICRON AND CHANGED AT 5.0, 7.5, 14.9 MICRON
Sampling: TRANSMISSION
Resolution: 2
Origin: DOW CHEMICAL COMPANY
1/CM	TRANSMITTANCE
456	0.8905
465	0.8785
474	0.8636
483	0.9071
492	0.9905
501	0.9853
510	0.9323
519	0.9854
528	0.8964
537	0.9483
546	0.926
555	0.7531
564	0.8172
573	0.8424
582	0.8541
591	0.8328
600	0.9248
609	0.9093
618	0.9473
627	1.0238
636	1.0267
645	1.014
654	0.9214
663	0.8911
672	1.0443
681	1.0156
690	1.0027
699	0.9306
708	0.9717
717	0.874
726	0.7741
735	0.8671
744	0.4543
753	0.2824
762	0.8692
771	0.9318
780	0.9311
789	1.0068
798	0.9899
807	0.9799
816	0.8653
825	0.9763
834	0.8448
843	0.9606
852	0.9373
861	0.8169
870	0.9147
879	0.8598
888	0.7849
897	0.791
906	0.8536
915	0.8914
924	0.8524
933	0.7184
942	0.7742
951	0.8868
960	0.9167
969	0.9044
978	0.9211
987	0.9256
996	0.9136
1005	0.882
1014	0.809
1023	0.7417
1032	0.6583
1041	0.8014
1050	0.5326
1059	0.555
1068	0.8091
1077	0.7399
1086	0.8477
1095	0.8097
1104	0.671
1113	0.5303
1122	0.3984
1131	0.3178
1140	0.5736
1149	0.6571
1158	0.6216
1167	0.5404
1176	0.4893
1185	0.6258
1194	0.5788
1203	0.3439
1212	0.1213
1221	0.0596
1230	0.3482
1239	0.6475
1248	0.5459
1257	0.3859
1266	0.5353
1275	0.4885
1284	0.5329
1293	0.7587
1302	0.7128
1311	0.6149
1320	0.5198
1329	0.4298
1338	0.5632
1347	0.6675
1356	0.5888
1365	0.3128
1374	0.3299
1383	0.7371
1392	0.791
1401	0.645
1410	0.5245
1419	0.8218
1428	0.8786
1437	0.8398
1446	0.6279
1455	0.403
1464	0.3071
1473	0.9114
1482	0.9194
1491	0.8568
1500	0.7496
1509	0.6408
1518	0.4173
1527	0.4738
1536	0.9389
1545	0.929
1554	0.878
1563	0.8213
1572	0.6754
1581	0.3466
1590	0.4447
1599	0.6788
1608	0.7045
1617	0.7645
1626	0.7175
1635	0.6474
1644	0.5253
1653	0.2845
1662	0.1634
1671	0.2227
1680	0.49
1689	0.7957
1698	0.9444
1707	0.9983
1716	0.9925
1725	0.9764
1734	0.947
1743	0.9127
1752	0.9925
1761	0.9894
1770	0.975
1779	0.972
1788	0.9654
1797	0.9578
1806	0.9485
1815	0.9455
1824	0.9407
1833	0.9352
1842	0.9278
1851	0.918
1860	0.9159
1869	0.9127
1878	0.9045
1887	0.8921
1896	0.8803
1905	0.8884
1914	0.8875
1923	0.8768
1932	0.8737
1941	0.8616
1950	0.8702
1959	0.8731
1968	0.8623
1977	0.8528
1986	0.8464
1995	0.8044
2004	0.9125
2013	0.9092
2022	0.9032
2031	0.8967
2040	0.891
2049	0.8855
2058	0.8795
2067	0.8721
2076	0.8635
2085	0.8535
2094	0.8444
2103	0.8371
2112	0.8308
2121	0.8249
2130	0.8178
2139	0.81
2148	0.8017
2157	0.7934
2166	0.7848
2175	0.7756
2184	0.7668
2193	0.758
2202	0.7499
2211	0.7418
2220	0.7336
2229	0.7248
2238	0.7143
2247	0.7046
2256	0.695
2265	0.6872
2274	0.68
2283	0.6725
2292	0.6651
2301	0.6574
2310	0.6498
2319	0.6421
2328	0.636
2337	0.6331
2346	0.6312
2355	0.6289
2364	0.6259
2373	0.6228
2382	0.6198
2391	0.6152
2400	0.6091
2409	0.6028
2418	0.5964
2427	0.5895
2436	0.5818
2445	0.5738
2454	0.5654
2463	0.557
2472	0.5503
2481	0.5467
2490	0.5426
2499	0.5364
2508	0.5353
2517	0.5356
2526	0.5317
2535	0.5206
2544	0.5094
2553	0.5005
2562	0.4948
2571	0.4981
2580	0.5052
2589	0.5084
2598	0.507
2607	0.5014
2616	0.495
2625	0.4865
2634	0.4793
2643	0.4774
2652	0.478
2661	0.4788
2670	0.4794
2679	0.4799
2688	0.478
2697	0.4706
2706	0.4607
2715	0.4538
2724	0.4514
2733	0.4507
2742	0.4488
2751	0.4448
2760	0.4389
2769	0.4312
2778	0.4247
2787	0.4184
2796	0.4126
2805	0.4068
2814	0.4016
2823	0.3964
2832	0.3916
2841	0.3878
2850	0.3852
2859	0.3828
2868	0.3808
2877	0.3802
2886	0.38
2895	0.3798
2904	0.3797
2913	0.3796
2922	0.3775
2931	0.373
2940	0.3668
2949	0.3629
2958	0.3628
2967	0.363
2976	0.3627
2985	0.3594
2994	0.3522
3003	0.3452
3012	0.3439
3021	0.3454
3030	0.3476
3039	0.348
3048	0.3464
3057	0.3443
3066	0.3448
3075	0.3509
3084	0.3605
3093	0.3686
3102	0.3764
3111	0.3824
3120	0.3874
3129	0.391
3138	0.3938
3147	0.3957
3156	0.3971
3165	0.3982
3174	0.3993
3183	0.4002
3192	0.4007
3201	0.4004
3210	0.3999
3219	0.3988
3228	0.3976
3237	0.395
3246	0.3923
3255	0.3892
3264	0.3856
3273	0.3805
3282	0.3729
3291	0.3632
3300	0.3509
3309	0.3332
3318	0.309
3327	0.2813
3336	0.2508
3345	0.2704
3354	0.3849
3363	0.414
3372	0.4146
3381	0.411
3390	0.4054
3399	0.4
3408	0.3954
3417	0.3895
3426	0.386
3435	0.383
3444	0.3803
3453	0.378
3462	0.3757
3471	0.3732
3480	0.3709
3489	0.368
3498	0.365
3507	0.3616
3516	0.3582
3525	0.3549
3534	0.3516
3543	0.3484
3552	0.3454
3561	0.3424
3570	0.3399
3579	0.3373
3588	0.3349
3597	0.3327
3606	0.3306
3615	0.3284
3624	0.3264
3633	0.3245
3642	0.3225
3651	0.3196
3660	0.3165
3669	0.3134
3678	0.3108
3687	0.3082
3696	0.3054
3705	0.3024
3714	0.2997
3723	0.2971
3732	0.2946
3741	0.2929
3750	0.2906
3759	0.2875
3768	0.2845
3777	0.2814
3786	0.2784
3795	0.2753
