Infrared Spectrum: PIPERIDINE, 1-(2,2,4-TRIMETHYL-3-OXOVALERYL)-
Formula: C13 H23 N O2
CAS: 73790-84-8
State: LIQUID
Boiling point: 134-136 C AT 2 mmHg
Class: COBLENTZ
Instrument: Not specified, most likely a prism, grating, or hybrid spectrometer.
Sampling: TRANSMISSION
Path length: SMEAR
Resolution: 4
Origin: TENNESSEE EASTMAN COMPANY, RESEARCH LABORATORIES
MICROMETERS	TRANSMITTANCE
2.034	0.996
2.0749	0.996
2.11579	0.996
2.15669	0.996
2.19759	0.996
2.23849	0.993
2.27938	0.936
2.32028	0.898
2.36118	0.909
2.40207	0.929
2.44297	0.931
2.48387	0.934
2.52476	0.946
2.56566	0.96
2.60656	0.972
2.64746	0.977
2.68835	0.989
2.72925	0.994
2.77015	0.994
2.81104	0.993
2.85194	0.993
2.89284	0.982
2.93373	0.964
2.97463	0.91
3.01553	0.921
3.05643	0.922
3.09732	0.869
3.13822	0.878
3.17912	0.902
3.22001	0.91
3.26091	0.9
3.30181	0.804
3.3427	0.393
3.3836	0.07
3.4245	0.042
3.4654	0.191
3.50629	0.123
3.54719	0.587
3.58809	0.743
3.62898	0.851
3.66988	0.878
3.71078	0.88
3.75167	0.878
3.79257	0.88
3.83347	0.9
3.87437	0.929
3.91526	0.936
3.95616	0.943
3.99706	0.945
4.03795	0.948
4.07885	0.948
4.11975	0.95
4.16065	0.95
4.20154	0.95
4.24244	0.952
4.28334	0.948
4.32423	0.948
4.36513	0.95
4.40603	0.955
4.44692	0.957
4.48782	0.958
4.52872	0.962
4.56962	0.965
4.61051	0.969
4.65141	0.97
4.69231	0.97
4.7332	0.97
4.7741	0.972
4.815	0.972
4.85589	0.974
4.89679	0.974
4.93769	0.976
4.97859	0.976
5.01948	0.979
5.06038	0.981
5.10128	0.981
5.14217	0.979
5.18307	0.976
5.22397	0.974
5.26486	0.974
5.30576	0.974
5.34666	0.974
5.38756	0.974
5.42845	0.974
5.46935	0.974
5.51025	0.969
5.55114	0.957
5.59204	0.95
5.63294	0.931
5.67383	0.89
5.71473	0.857
5.75563	0.797
5.79653	0.691
5.83742	0.472
5.87832	0.258
5.91922	0.419
5.96011	0.614
6.00101	0.614
6.04191	0.469
6.0828	0.214
6.1237	0.09
6.1646	0.171
6.2055	0.407
6.24639	0.595
6.28729	0.707
6.32819	0.784
6.36908	0.803
6.40998	0.808
6.45088	0.794
6.49178	0.796
6.53267	0.811
6.57357	0.809
6.61447	0.803
6.65536	0.753
6.69626	0.719
6.73716	0.625
6.77805	0.407
6.81895	0.344
6.85985	0.388
6.90075	0.345
6.94164	0.333
6.98254	0.284
7.02344	0.25
7.06433	0.344
7.10523	0.465
7.14613	0.587
7.18702	0.619
7.22792	0.476
7.26882	0.476
7.30972	0.53
7.35061	0.438
7.39151	0.551
7.43241	0.573
7.4733	0.611
7.5142	0.736
7.5551	0.791
7.59599	0.811
7.63689	0.823
7.67779	0.818
7.71869	0.799
7.75958	0.732
7.80048	0.587
7.84138	0.594
7.88227	0.642
7.92317	0.467
7.96407	0.354
8.00496	0.301
8.04586	0.484
8.08676	0.479
8.12766	0.513
8.16855	0.645
8.20945	0.657
8.25035	0.59
8.29124	0.559
8.33214	0.589
8.37304	0.63
8.41394	0.601
8.45483	0.594
8.49573	0.688
8.53663	0.714
8.57752	0.676
8.61842	0.667
8.65932	0.746
8.70021	0.773
8.74111	0.763
8.78201	0.669
8.82291	0.428
8.8638	0.421
8.9047	0.419
8.9456	0.508
8.98649	0.672
9.02739	0.727
9.06829	0.736
9.10918	0.676
9.15008	0.619
9.19098	0.671
9.23188	0.748
9.27277	0.787
9.31367	0.796
9.35457	0.801
9.39546	0.801
9.43636	0.799
9.47726	0.773
9.51815	0.707
9.55905	0.575
9.59995	0.416
9.64085	0.39
9.68174	0.472
9.72264	0.472
9.76354	0.501
9.80443	0.511
9.84533	0.416
9.88623	0.357
9.92712	0.347
9.96802	0.378
10.0089	0.393
10.0498	0.455
10.0907	0.607
10.1316	0.712
10.1725	0.772
10.2134	0.804
10.2543	0.818
10.2952	0.828
10.3361	0.828
10.377	0.823
10.4179	0.801
10.4588	0.755
10.4997	0.731
10.5406	0.77
10.5815	0.808
10.6224	0.799
10.6633	0.792
10.7042	0.821
10.7451	0.844
10.786	0.856
10.8269	0.864
10.8678	0.868
10.9087	0.869
10.9496	0.868
10.9904	0.864
11.0313	0.871
11.0722	0.897
11.1131	0.91
11.154	0.916
11.1949	0.914
11.2358	0.886
11.2767	0.811
11.3176	0.77
11.3585	0.815
11.3994	0.873
11.4403	0.9
11.4812	0.909
11.5221	0.909
11.563	0.888
11.6039	0.83
11.6448	0.755
11.6857	0.654
11.7266	0.669
11.7675	0.789
11.8084	0.861
11.8493	0.907
11.8902	0.919
11.9311	0.921
11.972	0.917
12.0129	0.907
12.0538	0.898
12.0947	0.895
12.1356	0.9
12.1765	0.919
12.2174	0.926
12.2583	0.931
12.2992	0.931
12.34	0.929
12.3809	0.926
12.4218	0.922
12.4627	0.921
12.5036	0.921
12.5445	0.921
12.5854	0.922
12.6263	0.926
12.6672	0.926
12.7081	0.926
12.749	0.921
12.7899	0.907
12.8308	0.885
12.8717	0.876
12.9126	0.876
12.9535	0.881
12.9944	0.886
13.0353	0.897
13.0762	0.904
13.1171	0.905
13.158	0.905
13.1989	0.905
13.2398	0.907
13.2807	0.905
13.3216	0.907
13.3625	0.905
13.4034	0.907
13.4443	0.905
13.4852	0.904
13.5261	0.898
13.567	0.895
13.6079	0.886
13.6488	0.88
13.6897	0.876
13.7305	0.869
13.7714	0.863
13.8123	0.859
13.8532	0.849
13.8941	0.844
13.935	0.844
13.9759	0.845
14.0168	0.849
14.0577	0.849
14.0986	0.849
14.1395	0.847
14.1804	0.842
14.2213	0.837
14.2622	0.827
14.3031	0.818
14.344	0.806
14.3849	0.794
14.4258	0.775
14.4667	0.751
14.5076	0.741
14.5485	0.739
14.5894	0.746
14.6303	0.755
14.6712	0.761
14.7121	0.767
14.753	0.768
14.7939	0.77
14.8348	0.77
14.8757	0.768
14.9166	0.765
14.9575	0.75
14.9984	0.741
15.0393	0.732
15.0801	0.731
15.121	0.731
15.1619	0.727
15.2028	0.719
15.2437	0.712
15.2846	0.705
15.3255	0.695
15.3664	0.686
15.4073	0.679
15.4482	0.669
15.4891	0.66
15.53	0.655
15.5709	0.65
15.6118	0.647
15.6527	0.642
15.6936	0.636
15.7345	0.625
15.7754	0.621
15.8163	0.613
15.8572	0.611
15.8981	0.607
15.939	0.607
15.9799	0.607
