Infrared Spectrum: 1-INDOLINECARBOXALDEHYDE, 6-NITRO-
Formula: C9 H8 N2 O3
CAS: 73816-58-7
State: SOLID (SPLIT MULL)
Melting point: 110 C
Class: COBLENTZ III
Instrument: DOW KBr FOREPRISM-GRATING
Instrument parameters: BLAZED AT 3.5, 12.0, 20.0 MICRON AND CHANGED AT 5.0, 7.5, 14.9 MICRON
Sampling: TRANSMISSION
Resolution: 2
Origin: DOW CHEMICAL COMPANY
1/CM	TRANSMITTANCE
467	0.8227
476	0.8216
485	0.8194
494	0.8191
503	0.8188
512	0.8294
521	0.8294
530	0.8239
539	0.8124
548	0.8128
557	0.6984
566	0.813
575	0.8528
584	0.8603
593	0.8636
602	0.8665
611	0.8718
620	0.8736
629	0.873
638	0.8716
647	0.8643
656	0.8441
665	0.8586
674	0.8783
683	0.8744
692	0.8615
701	0.8557
710	0.8543
719	0.8239
728	0.7668
737	0.7381
746	0.2199
755	0.8508
764	0.8611
773	0.8588
782	0.8458
791	0.8442
800	0.8086
809	0.7315
818	0.8136
827	0.7951
836	0.738
845	0.7734
854	0.8069
863	0.8327
872	0.8249
881	0.3571
890	0.8328
899	0.8404
908	0.8265
917	0.8274
926	0.8585
935	0.858
944	0.8585
953	0.8585
962	0.845
971	0.8446
980	0.8315
989	0.8554
998	0.8539
1007	0.7798
1016	0.8571
1025	0.8554
1034	0.8423
1043	0.7714
1052	0.451
1061	0.8544
1070	0.8565
1079	0.8487
1088	0.8183
1097	0.6614
1106	0.8154
1115	0.8191
1124	0.8224
1133	0.8245
1142	0.7962
1151	0.6267
1160	0.5191
1169	0.7407
1178	0.7795
1187	0.7847
1196	0.7545
1205	0.6215
1214	0.7498
1223	0.7955
1232	0.7864
1241	0.6645
1250	0.7155
1259	0.7443
1268	0.7351
1277	0.7204
1286	0.6651
1295	0.5316
1304	0.4439
1313	0.5038
1322	0.5518
1331	0.2566
1340	0.0863
1349	0.1053
1358	0.5651
1367	0.6368
1376	0.6115
1385	0.4699
1394	0.0731
1403	0.302
1412	0.6525
1421	0.5862
1430	0.2835
1439	0.4036
1448	0.6145
1457	0.5958
1466	0.5572
1475	0.4119
1484	0.0928
1493	0.2795
1502	0.5212
1511	0.2068
1520	0.0553
1529	0.5278
1538	0.795
1547	0.8692
1556	0.863
1565	0.8446
1574	0.7969
1583	0.7084
1592	0.4922
1601	0.3512
1610	0.7378
1619	0.8068
1628	0.8
1637	0.7578
1646	0.678
1655	0.6158
1664	0.3135
1673	0.0403
1682	0.1546
1691	0.5682
1700	0.8174
1709	0.8527
1718	0.8703
1727	0.8813
1736	0.8867
1745	0.8775
1754	0.8591
1763	0.8534
1772	0.8655
1781	0.8698
1790	0.8686
1799	0.8668
1808	0.8649
1817	0.8627
1826	0.8618
1835	0.8623
1844	0.8621
1853	0.8599
1862	0.8575
1871	0.8531
1880	0.8492
1889	0.8454
1898	0.8414
1907	0.8385
1916	0.8321
1925	0.8318
1934	0.8462
1943	0.8455
1952	0.8414
1961	0.8467
1970	0.8325
1979	0.8282
1988	0.8255
1997	0.8237
2006	0.8221
2015	0.8217
2024	0.825
2033	0.8277
2042	0.8251
2051	0.822
2060	0.8187
2069	0.8153
2078	0.8122
2087	0.8075
2096	0.8031
2105	0.7986
2114	0.794
2123	0.7889
2132	0.7839
2141	0.7788
2150	0.7739
2159	0.7691
2168	0.7644
2177	0.7603
2186	0.7564
2195	0.753
2204	0.7503
2213	0.7472
2222	0.7421
2231	0.7368
2240	0.731
2249	0.7244
2258	0.7181
2267	0.7121
2276	0.7069
2285	0.7032
2294	0.6994
2303	0.6962
2312	0.6917
2321	0.6899
2330	0.6885
2339	0.6888
2348	0.6889
2357	0.6891
2366	0.6888
2375	0.6885
2384	0.6884
2393	0.6881
2402	0.6878
2411	0.6875
2420	0.6869
2429	0.6861
2438	0.6843
2447	0.6819
2456	0.6806
2465	0.6808
2474	0.6806
2483	0.6803
2492	0.6798
2501	0.6789
2510	0.6776
2519	0.676
2528	0.6743
2537	0.6725
2546	0.6707
2555	0.6689
2564	0.6672
2573	0.6656
2582	0.6639
2591	0.6621
2600	0.6603
2609	0.6584
2618	0.6562
2627	0.654
2636	0.6518
2645	0.6495
2654	0.6468
2663	0.6443
2672	0.6417
2681	0.6386
2690	0.6356
2699	0.6325
2708	0.6295
2717	0.626
2726	0.6228
2735	0.6194
2744	0.616
2753	0.6126
2762	0.6089
2771	0.6053
2780	0.6017
2789	0.5976
2798	0.5935
2807	0.5892
2816	0.5828
2825	0.5758
2834	0.5681
2843	0.5612
2852	0.5595
2861	0.5606
2870	0.5559
2879	0.5462
2888	0.5322
2897	0.5185
2906	0.5179
2915	0.5346
2924	0.5453
2933	0.5479
2942	0.5466
2951	0.5446
2960	0.5434
2969	0.544
2978	0.5486
2987	0.5577
2996	0.5678
3005	0.5705
3014	0.5692
3023	0.5667
3032	0.5637
3041	0.56
3050	0.5554
3059	0.5498
3068	0.5406
3077	0.5291
3086	0.5159
3095	0.5024
3104	0.4944
3113	0.5371
3122	0.5331
3131	0.5076
3140	0.4632
3149	0.5533
3158	0.5504
3167	0.5479
3176	0.5451
3185	0.5422
3194	0.5397
3203	0.537
3212	0.5338
3221	0.5306
3230	0.5274
3239	0.5241
3248	0.5212
3257	0.5188
3266	0.5164
3275	0.5136
3284	0.5108
3293	0.508
3302	0.5054
3311	0.5032
3320	0.501
3329	0.4992
3338	0.4977
3347	0.4962
3356	0.4948
3365	0.4942
3374	0.4937
3383	0.4931
3392	0.4926
3401	0.492
3410	0.4914
3419	0.4908
3428	0.4903
3437	0.4895
3446	0.4883
3455	0.487
3464	0.4858
3473	0.4846
3482	0.4834
3491	0.4821
3500	0.4812
3509	0.4807
3518	0.4801
3527	0.4794
3536	0.4788
3545	0.4781
3554	0.4775
3563	0.4768
3572	0.4762
3581	0.4753
3590	0.4744
3599	0.4734
3608	0.4721
3617	0.4706
3626	0.4692
3635	0.4674
3644	0.4656
3653	0.4638
3662	0.4626
3671	0.4614
3680	0.4603
3689	0.4591
3698	0.458
3707	0.4568
3716	0.4556
3725	0.4544
3734	0.4531
3743	0.451
3752	0.4492
3761	0.4472
3770	0.4453
3779	0.4433
3788	0.4414
3797	0.4394
