Infrared Spectrum: DIALLYLAMINOACETONE
Formula: C9 H15 N O
CAS: 73813-61-3
State: SOLUTION (10% CCl4 FOR 5000-1330, 10% CS2 FOR 1330-625 CM^-^1)
Boiling point: 90-93 C AT 25 mmHg
Class: COBLENTZ
Instrument: Not specified, most likely a prism, grating, or hybrid spectrometer.
Sampling: TRANSMISSION
Path length: 0.0125 CM, 0.0124 CM
Resolution: 4
Origin: DOW CHEMICAL COMPANY
MICROMETERS	TRANSMITTANCE
2.041	0.853
2.08207	0.85
2.12315	0.85
2.16422	0.838
2.2053	0.831
2.24637	0.822
2.28745	0.822
2.32852	0.826
2.3696	0.833
2.41067	0.836
2.45175	0.838
2.49282	0.839
2.5339	0.841
2.57497	0.845
2.61605	0.848
2.65712	0.841
2.6982	0.833
2.73927	0.826
2.78035	0.805
2.82142	0.791
2.8625	0.776
2.90357	0.762
2.94465	0.79
2.98572	0.788
3.0268	0.784
3.06787	0.783
3.10895	0.783
3.15002	0.769
3.1911	0.667
3.23217	0.552
3.27325	0.662
3.31432	0.512
3.3554	0.559
3.39647	0.425
3.43755	0.426
3.47862	0.409
3.5197	0.321
3.56077	0.469
3.60185	0.648
3.64292	0.731
3.684	0.724
3.72507	0.772
3.76615	0.791
3.80722	0.793
3.8483	0.802
3.88937	0.803
3.93045	0.81
3.97152	0.812
4.0126	0.819
4.05367	0.815
4.09475	0.812
4.13582	0.81
4.1769	0.812
4.21797	0.807
4.25905	0.798
4.30012	0.796
4.3412	0.8
4.38227	0.812
4.42335	0.815
4.46442	0.817
4.5055	0.819
4.54657	0.82
4.58765	0.822
4.62872	0.819
4.6698	0.815
4.71087	0.815
4.75195	0.82
4.79302	0.822
4.8341	0.822
4.87517	0.819
4.91625	0.819
4.95732	0.815
4.9984	0.8
5.03947	0.802
5.08055	0.815
5.12162	0.817
5.1627	0.817
5.20377	0.815
5.24485	0.814
5.28592	0.805
5.327	0.769
5.36807	0.722
5.40915	0.726
5.45022	0.772
5.4913	0.781
5.53237	0.777
5.57345	0.75
5.61452	0.71
5.6556	0.648
5.69667	0.557
5.73775	0.321
5.77882	0.077
5.8199	0.051
5.86097	0.246
5.90205	0.512
5.94312	0.561
5.9842	0.635
6.02527	0.638
6.06635	0.469
6.10742	0.654
6.1485	0.698
6.18957	0.693
6.23064	0.633
6.27172	0.566
6.31279	0.54
6.35387	0.506
6.39494	0.456
6.43602	0.409
6.47709	0.452
6.51817	0.519
6.55924	0.555
6.60032	0.586
6.64139	0.635
6.68247	0.669
6.72354	0.685
6.76462	0.667
6.80569	0.59
6.84677	0.462
6.88784	0.358
6.92892	0.375
6.96999	0.358
7.01107	0.242
7.05214	0.254
7.09322	0.38
7.13429	0.457
7.17537	0.554
7.21644	0.538
7.25752	0.454
7.29859	0.361
7.33967	0.175
7.38074	0.172
7.42182	0.375
7.46289	0.507
7.50397	0.559
7.54504	0.595
7.58612	0.635
7.62719	0.654
7.66827	0.66
7.70934	0.619
7.75042	0.588
7.79149	0.557
7.83257	0.514
7.87364	0.45
7.91472	0.373
7.95579	0.392
7.99687	0.426
8.03794	0.425
8.07902	0.462
8.12009	0.502
8.16117	0.452
8.20224	0.375
8.24332	0.392
8.28439	0.499
8.32547	0.566
8.36654	0.586
8.40762	0.552
8.44869	0.5
8.48977	0.478
8.53084	0.432
8.57192	0.349
8.61299	0.27
8.65407	0.23
8.69514	0.253
8.73622	0.311
8.77729	0.345
8.81837	0.358
8.85944	0.359
8.90052	0.325
8.94159	0.316
8.98267	0.371
9.02374	0.442
9.06482	0.512
9.10589	0.543
9.14697	0.555
9.18804	0.555
9.22912	0.538
9.27019	0.535
9.31127	0.549
9.35234	0.583
9.39342	0.604
9.43449	0.633
9.47557	0.643
9.51664	0.638
9.55772	0.566
9.59879	0.497
9.63987	0.43
9.68094	0.414
9.72202	0.402
9.76309	0.413
9.80417	0.483
9.84524	0.547
9.88632	0.559
9.92739	0.519
9.96847	0.416
10.0095	0.254
10.0506	0.134
10.0917	0.134
10.1328	0.249
10.1738	0.401
10.2149	0.462
10.256	0.478
10.2971	0.466
10.3381	0.457
10.3792	0.466
10.4203	0.485
10.4614	0.509
10.5024	0.524
10.5435	0.526
10.5846	0.518
10.6257	0.473
10.6667	0.416
10.7078	0.339
10.7489	0.213
10.79	0.096
10.831	0.025
10.8721	0.008
10.9132	0.049
10.9543	0.177
10.9953	0.323
11.0364	0.468
11.0775	0.545
11.1186	0.585
11.1596	0.6
11.2007	0.605
11.2418	0.611
11.2829	0.614
11.3239	0.614
11.365	0.616
11.4061	0.616
11.4472	0.619
11.4882	0.624
11.5293	0.624
11.5704	0.617
11.6115	0.612
11.6525	0.609
11.6936	0.609
11.7347	0.621
11.7758	0.65
11.8168	0.678
11.8579	0.705
11.899	0.738
11.9401	0.764
11.9811	0.79
12.0222	0.807
12.0633	0.819
12.1044	0.831
12.1454	0.838
12.1865	0.843
12.2276	0.846
12.2687	0.85
12.3097	0.851
12.3508	0.853
12.3919	0.855
12.433	0.855
12.474	0.855
12.5151	0.848
12.5562	0.839
12.5973	0.833
12.6383	0.817
12.6794	0.803
12.7205	0.784
12.7616	0.776
12.8026	0.776
12.8437	0.795
12.8848	0.807
12.9259	0.815
12.9669	0.824
13.008	0.826
13.0491	0.827
13.0902	0.827
13.1312	0.826
13.1723	0.824
13.2134	0.815
13.2545	0.798
13.2955	0.788
13.3366	0.781
13.3777	0.779
13.4188	0.777
13.4598	0.779
13.5009	0.783
13.542	0.786
13.5831	0.788
13.6241	0.788
13.6652	0.788
13.7063	0.784
13.7474	0.777
13.7884	0.771
13.8295	0.767
13.8706	0.765
13.9117	0.764
13.9527	0.76
13.9938	0.759
14.0349	0.755
14.076	0.753
14.117	0.75
14.1581	0.743
14.1992	0.738
14.2403	0.733
14.2813	0.728
14.3224	0.722
14.3635	0.712
14.4046	0.702
14.4456	0.695
14.4867	0.685
14.5278	0.674
14.5689	0.664
14.6099	0.655
14.651	0.641
14.6921	0.631
14.7332	0.619
14.7742	0.604
14.8153	0.588
14.8564	0.581
14.8975	0.569
14.9385	0.561
14.9796	0.549
15.0207	0.533
15.0618	0.516
15.1028	0.502
15.1439	0.495
15.185	0.483
15.2261	0.475
15.2671	0.459
15.3082	0.447
15.3493	0.444
15.3904	0.438
15.4314	0.432
15.4725	0.428
15.5136	0.423
15.5547	0.416
15.5957	0.411
15.6368	0.402
15.6779	0.399
15.719	0.395
15.76	0.394
15.8011	0.388
15.8422	0.382
15.8833	0.38
15.9243	0.38
15.9654	0.38
