Infrared Spectrum: Cinnamic acid, Alpha-acetyl-4-hydroxy-Beta-(hydroxymethyl)-3-methoxy-,Gamma-lactone
Formula: C13 H12 O5
CAS: 73839-65-3
State: SOLID (SPLIT MULL), FLUOROLUBE FOR 3800-1330 CM^-^1, NUJOL FOR 1330-400 CM^-^1
Class: COBLENTZ III
Instrument: DOW KBr FOREPRISM-GRATING
Instrument parameters: BLAZED AT 3.5, 12.0, 20.0 MICRON AND CHANGED AT 5.0, 7.5, 14.9 MICRON
Sampling: TRANSMISSION
Resolution: 2
Origin: DOW CHEMICAL COMPANY
1/CM	TRANSMITTANCE
3800	0.5145
3791	0.5156
3782	0.5171
3773	0.5183
3764	0.5196
3755	0.5212
3746	0.523
3737	0.525
3728	0.5272
3719	0.5292
3710	0.5312
3701	0.5332
3692	0.535
3683	0.5368
3674	0.5385
3665	0.5403
3656	0.542
3647	0.5442
3638	0.5464
3629	0.5485
3620	0.5508
3611	0.5537
3602	0.5564
3593	0.5587
3584	0.5606
3575	0.5626
3566	0.566
3557	0.5704
3548	0.5748
3539	0.5793
3530	0.5837
3521	0.588
3512	0.5918
3503	0.5944
3494	0.5947
3485	0.5906
3476	0.5736
3467	0.5351
3458	0.489
3449	0.448
3440	0.4132
3431	0.365
3422	0.3012
3413	0.2184
3404	0.2126
3395	0.242
3386	0.268
3377	0.2887
3368	0.3122
3359	0.3332
3350	0.353
3341	0.3716
3332	0.387
3323	0.4009
3314	0.4133
3305	0.4254
3296	0.4373
3287	0.4483
3278	0.4575
3269	0.4665
3260	0.4741
3251	0.4815
3242	0.4885
3233	0.4952
3224	0.5021
3215	0.5076
3206	0.5128
3197	0.5169
3188	0.5198
3179	0.5225
3170	0.5251
3161	0.5276
3152	0.5305
3143	0.5335
3134	0.5366
3125	0.5388
3116	0.541
3107	0.5434
3098	0.546
3089	0.5488
3080	0.5514
3071	0.554
3062	0.556
3053	0.5579
3044	0.5599
3035	0.5614
3026	0.5637
3017	0.5657
3008	0.5647
2999	0.5356
2990	0.5564
2981	0.5594
2972	0.5573
2963	0.4918
2954	0.5243
2945	0.5497
2936	0.5433
2927	0.502
2918	0.5017
2909	0.5218
2900	0.5378
2891	0.5455
2882	0.5543
2873	0.5599
2864	0.5603
2855	0.5605
2846	0.5609
2837	0.5614
2828	0.5636
2819	0.5694
2810	0.5747
2801	0.5786
2792	0.581
2783	0.5835
2774	0.5862
2765	0.5891
2756	0.5921
2747	0.594
2738	0.5959
2729	0.5977
2720	0.5999
2711	0.602
2702	0.6045
2693	0.6074
2684	0.6112
2675	0.6127
2666	0.6109
2657	0.6082
2648	0.6068
2639	0.606
2630	0.6075
2621	0.6105
2612	0.6148
2603	0.6171
2594	0.6194
2585	0.6212
2576	0.6234
2567	0.6249
2558	0.6264
2549	0.6279
2540	0.6287
2531	0.629
2522	0.6294
2513	0.6297
2504	0.63
2495	0.63
2486	0.6301
2477	0.6304
2468	0.6302
2459	0.6323
2450	0.6362
2441	0.6379
2432	0.6393
2423	0.6395
2414	0.6396
2405	0.6397
2396	0.6397
2387	0.6397
2378	0.64
2369	0.6404
2360	0.6407
2351	0.6411
2342	0.6403
2333	0.6391
2324	0.6455
2315	0.6524
2306	0.6542
2297	0.6508
2288	0.6507
2279	0.6537
2270	0.6568
2261	0.6605
2252	0.6642
2243	0.6683
2234	0.6726
2225	0.6772
2216	0.6821
2207	0.6867
2198	0.6908
2189	0.6938
2180	0.6967
2171	0.6999
2162	0.7038
2153	0.7075
2144	0.711
2135	0.7135
2126	0.714
2117	0.7139
2108	0.7158
2099	0.7198
2090	0.7249
2081	0.7274
2072	0.7286
2063	0.7299
2054	0.735
2045	0.7381
2036	0.7401
2027	0.7412
2018	0.743
2009	0.7482
2000	0.7496
1991	0.7625
1982	0.7683
1973	0.7734
1964	0.7775
1955	0.7885
1946	0.7882
1937	0.7915
1928	0.7939
1919	0.7961
1910	0.7998
1901	0.8042
1892	0.8101
1883	0.8142
1874	0.8178
1865	0.8183
1856	0.8139
1847	0.8241
1838	0.8309
1829	0.8228
1820	0.8291
1811	0.832
1802	0.8438
1793	0.8604
1784	0.8618
1775	0.8534
1766	0.7806
1757	0.6498
1748	0.3879
1739	0.038
1730	0.0931
1721	0.3618
1712	0.477
1703	0.5787
1694	0.5801
1685	0.4893
1676	0.2335
1667	0.5523
1658	0.6337
1649	0.6817
1640	0.6978
1631	0.7278
1622	0.7189
1613	0.602
1604	0.554
1595	0.5962
1586	0.3782
1577	0.1729
1568	0.2681
1559	0.4916
1550	0.6323
1541	0.6281
1532	0.459
1523	0.0721
1514	0.3632
1505	0.4659
1496	0.5129
1487	0.5622
1478	0.6164
1469	0.6491
1460	0.4872
1451	0.3584
1442	0.5408
1433	0.5977
1424	0.5479
1415	0.5429
1406	0.6383
1397	0.6841
1388	0.696
1379	0.6828
1370	0.614
1361	0.4319
1352	0.539
1343	0.4827
1334	0.1416
1325	0.2338
1316	0.5
1307	0.5739
1298	0.3641
1289	0.054
1280	0.2882
1271	0.4064
1262	0.3948
1253	0.1255
1244	0.3122
1235	0.4293
1226	0.3792
1217	0.376
1208	0.2069
1199	0.14
1190	0.1266
1181	0.3075
1172	0.4242
1163	0.1937
1154	0.3629
1145	0.455
1136	0.5043
1127	0.4068
1118	0.5483
1109	0.5995
1100	0.6206
1091	0.6348
1082	0.6169
1073	0.3447
1064	0.2598
1055	0.242
1046	0.4938
1037	0.516
1028	0.3305
1019	0.5516
1010	0.6129
1001	0.311
992	0.6099
983	0.6355
974	0.632
965	0.7065
956	0.7308
947	0.7504
938	0.7562
929	0.7008
920	0.7635
911	0.7788
902	0.7854
893	0.7858
884	0.7953
875	0.808
866	0.8092
857	0.748
848	0.4587
839	0.7968
830	0.8299
821	0.8223
812	0.5237
803	0.8457
794	0.8521
785	0.6194
776	0.789
767	0.5284
758	0.8425
749	0.8239
740	0.7588
731	0.7978
722	0.78
713	0.8065
704	0.8571
695	0.8763
686	0.8801
677	0.8781
668	0.8686
659	0.8589
650	0.832
641	0.6936
632	0.7317
623	0.5389
614	0.6496
605	0.297
596	0.6494
587	0.7115
578	0.756
569	0.754
560	0.6505
551	0.8078
542	0.8375
533	0.8521
524	0.8599
515	0.8663
506	0.8706
497	0.8492
488	0.872
479	0.8691
470	0.8648
461	0.8597
452	0.8413
443	0.8015
434	0.8231
425	0.8242
416	0.8197
407	0.8124
398	0.8039
389	0.801
