Infrared Spectrum: 1-Dimethylamino-2-pentyne
Formula: C 7 H 13 N
CAS: 7383-77-9
State: gas
Origin: EPA-IR VAPOR PHASE LIBRARY
1/CM	ABSORBANCE
549.9	0.00306
559.547	0.0033
569.193	0.00295
578.84	0.0024503
588.486	0.0021478
598.133	0.0016854
607.779	0.0018488
617.426	0.0018735
627.072	0.0018339
636.719	0.00161584
646.365	0.00155508
656.012	0.001229
665.658	0.00122
675.305	0.001236
684.951	0.001313
694.598	0.0017227
704.245	0.0023
713.891	0.00372
723.538	0.00555
733.184	0.007
742.831	0.00729
752.477	0.00671
762.124	0.00564
771.77	0.00453
781.417	0.00399
791.063	0.00444
800.71	0.00786
810.356	0.01309
820.003	0.01492
829.649	0.01458
839.296	0.01368
848.943	0.00916
858.589	0.00474
868.236	0.0022656
877.882	0.00161499
887.529	0.0015057
897.175	0.0014855
906.822	0.00155203
916.468	0.0016657
926.115	0.0020907
935.761	0.00321
945.408	0.00469
955.054	0.00531
964.701	0.00528
974.347	0.00579
983.994	0.00634
993.64	0.00797
1003.29	0.01516
1012.93	0.0351
1022.58	0.05692
1032.23	0.06091
1041.87	0.04895
1051.52	0.03403
1061.17	0.02072
1070.81	0.01369
1080.46	0.01177
1090.11	0.01283
1099.75	0.01479
1109.4	0.01823
1119.05	0.02056
1128.69	0.01834
1138.34	0.01638
1147.99	0.02309
1157.63	0.02592
1167.28	0.02168
1176.92	0.01625
1186.57	0.0115
1196.22	0.00696
1205.86	0.00479
1215.51	0.00387
1225.16	0.00479
1234.8	0.00702
1244.45	0.01205
1254.1	0.02165
1263.74	0.02802
1273.39	0.02496
1283.04	0.01856
1292.68	0.01696
1302.33	0.0266
1311.98	0.05656
1321.62	0.07168
1331.27	0.0489
1340.92	0.02574
1350.56	0.03411
1360.21	0.04586
1369.86	0.03236
1379.5	0.01236
1389.15	0.00928
1398.79	0.00921
1408.44	0.01012
1418.09	0.01347
1427.73	0.02076
1437.38	0.0302
1447.03	0.03814
1456.67	0.04355
1466.32	0.04127
1475.97	0.03151
1485.61	0.01939
1495.26	0.01135
1504.91	0.00735
1514.55	0.00539
1524.2	0.00429
1533.85	0.00358
1543.49	0.00301
1553.14	0.00263
1562.79	0.0023487
1572.43	0.0021642
1582.08	0.0020929
1591.73	0.0021043
1601.37	0.0021589
1611.02	0.0022514
1620.67	0.0024394
1630.31	0.0023961
1639.96	0.0022857
1649.6	0.0019945
1659.25	0.0018646
1668.9	0.0016688
1678.54	0.00161132
1688.19	0.0014743
1697.84	0.001257
1707.48	0.001309
1717.13	0.001189
1726.78	0.001111
1736.42	0.001003
1746.07	0.000985
1755.72	0.00091
1765.36	0.000906
1775.01	0.000897
1784.66	0.000959
1794.3	0.000875
1803.95	0.000945
1813.6	0.001048
1823.24	0.001318
1832.89	0.0015393
1842.54	0.0019032
1852.18	0.0019986
1861.83	0.0018806
1871.47	0.0015711
1881.12	0.00122
1890.77	0.000967
1900.41	0.000917
1910.06	0.000825
1919.71	0.000739
1929.35	0.000806
1939	0.000753
1948.65	0.000861
1958.29	0.000928
1967.94	0.001091
1977.59	0.001061
1987.23	0.000979
1996.88	0.00098
2006.53	0.001022
2016.17	0.000949
2025.82	0.000873
2035.47	0.000997
2045.11	0.001151
2054.76	0.001194
2064.41	0.00127
2074.05	0.0014691
2083.7	0.00155273
2093.35	0.00154208
2102.99	0.001384
2112.64	0.0012
2122.28	0.001076
2131.93	0.000999
2141.58	0.001004
2151.22	0.000988
2160.87	0.001189
2170.52	0.001413
2180.16	0.0017234
2189.81	0.0019989
2199.46	0.0023431
2209.1	0.00264
2218.75	0.0026
2228.4	0.00265
2238.04	0.00288
2247.69	0.00287
2257.34	0.00282
2266.98	0.00259
2276.63	0.0020845
2286.28	0.001808
2295.92	0.0017485
2305.57	0.0016525
2315.22	0.001347
2324.86	0.001226
2334.51	0.001242
2344.16	0.00112
2353.8	0.001131
2363.45	0.001203
2373.09	0.001129
2382.74	0.001135
2392.39	0.001252
2402.03	0.001433
2411.68	0.00157787
2421.33	0.0015239
2430.97	0.00159986
2440.62	0.001534
2450.27	0.00141
2459.91	0.00125
2469.56	0.001348
2479.21	0.0014812
2488.85	0.001818
2498.5	0.0021883
2508.15	0.0023538
2517.79	0.0022889
2527.44	0.0022873
2537.09	0.002221
2546.73	0.0021521
2556.38	0.0022168
2566.03	0.0022115
2575.67	0.0023042
2585.32	0.00259
2594.96	0.00285
2604.61	0.00298
2614.26	0.00324
2623.9	0.00368
2633.55	0.00359
2643.2	0.00316
2652.84	0.00277
2662.49	0.00302
2672.14	0.00399
2681.78	0.00547
2691.43	0.0075
2701.08	0.00984
2710.72	0.01181
2720.37	0.01372
2730.02	0.01583
2739.66	0.02012
2749.31	0.03037
2758.96	0.05347
2768.6	0.08601
2778.25	0.1089
2787.9	0.1012
2797.54	0.07759
2807.19	0.05923
2816.84	0.05828
2826.48	0.06625
2836.13	0.06537
2845.77	0.05928
2855.42	0.05989
2865.07	0.06281
2874.71	0.0632
2884.36	0.06675
2894.01	0.06963
2903.65	0.07378
2913.3	0.08493
2922.95	0.10335
2932.59	0.1254
2942.24	0.15999
2951.89	0.16013
2961.53	0.12683
2971.18	0.1267
2980.83	0.13778
2990.47	0.10338
3000.12	0.05001
3009.77	0.02821
3019.41	0.01843
3029.06	0.01222
3038.71	0.0087
3048.35	0.00754
3058	0.00686
3067.64	0.00596
3077.29	0.00541
3086.94	0.00467
3096.58	0.00422
3106.23	0.00409
3115.88	0.00394
3125.52	0.00387
3135.17	0.00373
3144.82	0.00357
3154.46	0.00358
3164.11	0.00329
3173.76	0.00322
3183.4	0.00301
3193.05	0.0025162
3202.7	0.0022865
3212.34	0.0020264
3221.99	0.00162121
3231.64	0.001322
3241.28	0.001139
3250.93	0.000988
3260.58	0.000819
3270.22	0.000798
3279.87	0.000734
3289.52	0.000646
3299.16	0.000843
3308.81	0.000571
3318.45	0.000908
3328.1	0.000799
3337.75	0.000717
3347.39	0.000991
3357.04	0.000757
3366.69	0.000721
3376.33	0.000769
3385.98	0.000902
3395.63	0.00083
3405.27	0.000655
3414.92	0.00047
3424.57	0.00026
3434.21	0.00036
3443.86	0.00041
3453.51	0.00042
3463.15	0.00046
3472.8	0.00032
3482.45	0.00017
3492.09	0.00024
3501.74	0.00015
3511.39	0.00024
3521.03	0.00033
3530.68	0.00026
3540.33	0.00026
3549.97	7e-05
3559.62	0.00021
3569.26	7e-05
3578.91	0.00024
3588.56	0.00028
3598.2	0.00021
3607.85	0.00027
3617.5	0.00015
3627.14	0.00033
3636.79	0.00024
3646.44	0.00015
3656.08	0.00029
3665.73	0.00016
3675.38	0.00022
3685.02	0.00015
3694.67	0.00033
3704.32	0.00019
3713.96	0.00021
3723.61	0.00039
3733.26	0.00043
3742.9	0.00039
3752.55	0.0005
3762.2	0.00047
3771.84	0.00054
3781.49	0.000551
3791.13	0.000686
3800.78	0.00054
3810.43	0.000625
3820.07	0.00049
3829.72	0.00052
3839.37	0.00046
3849.01	0.00053
3858.66	0.000658
3868.31	0.000605
3877.95	0.000743
3887.6	0.000872
3897.25	0.000856
3906.89	0.00074
3916.54	0.000924
3926.19	0.000863
3935.83	0.00101
3945.48	0.001244
3955.13	0.001288
3964.77	0.001262
3974.42	0.001287
3984.07	0.001402
3993.71	0.001303
