Infrared Spectrum: 1-Heptyn-3-ol
Formula: C 7 H 12 O
CAS: 7383-19-9
State: gas
Instrument: HP-GC/MS/IRD
Origin: NIST Mass Spectrometry Data Center
1/CM	ABSORBANCE
550	0.00208
562	0.001208
574	0.0006208
586	0.0003904
598	0.000464
610	0.001344
622	0.0048928
634	0.009336
646	0.0076944
658	0.0082768
670	0.00404
682	0.001024
694	0.0003008
706	0.0002
718	0.000224
730	0.000288
742	0.0002896
754	0.0002848
766	0.000256
778	0.0002944
790	0.0003456
802	0.00024
814	0.0002848
826	0.0003552
838	0.0004304
850	0.0005152
862	0.0005664
874	0.0006304
886	0.0007184
898	0.0007792
910	0.0007488
922	0.0007248
934	0.0008112
946	0.0011376
958	0.0015856
970	0.001984
982	0.002592
994	0.0038832
1006	0.0059424
1018	0.0081104
1030	0.0089568
1042	0.0072976
1054	0.0046336
1066	0.0030528
1078	0.0023632
1090	0.0019216
1102	0.0018416
1114	0.0020368
1126	0.0018288
1138	0.0012624
1150	0.0008816
1162	0.0007536
1174	0.0007648
1186	0.0010128
1198	0.001312
1210	0.001672
1222	0.0019248
1234	0.0023264
1246	0.0037136
1258	0.0044352
1270	0.003456
1282	0.002528
1294	0.002368
1306	0.0024
1318	0.002816
1330	0.0032352
1342	0.0034992
1354	0.0036368
1366	0.0036912
1378	0.0035632
1390	0.0028816
1402	0.0018064
1414	0.0012656
1426	0.0011344
1438	0.001376
1450	0.0017632
1462	0.0020464
1474	0.0015968
1486	0.0008784
1498	0.0004608
1510	0.0002752
1522	0.0002256
1534	0.0001952
1546	0.0001552
1558	0.0001088
1570	7.68e-05
1582	8.64e-05
1594	7.52e-05
1606	7.04e-05
1618	6.56e-05
1630	3.84e-05
1642	2.4e-05
1654	1.76e-05
1666	2.88e-05
1678	3.68e-05
1690	4.8e-06
1702	2.24e-05
1714	2.56e-05
1726	5.12e-05
1738	1.28e-05
1750	3.52e-05
1762	4e-05
1774	4.8e-05
1786	5.92e-05
1798	7.04e-05
1810	4.48e-05
1822	5.92e-05
1834	6.08e-05
1846	7.2e-05
1858	7.84e-05
1870	9.44e-05
1882	7.52e-05
1894	0.000104
1906	0.0001088
1918	9.92e-05
1930	0.00012
1942	0.000112
1954	0.0001136
1966	0.000112
1978	0.0001248
1990	0.0001504
2002	0.0001808
2014	0.0001776
2026	0.0002064
2038	0.0002176
2050	0.0002176
2062	0.000216
2074	0.0001664
2086	0.0002
2098	0.0002112
2110	0.0002864
2122	0.0002224
2134	0.0002048
2146	0.000192
2158	0.0001808
2170	0.0001792
2182	0.0002016
2194	0.0001968
2206	0.000216
2218	0.0002016
2230	0.0001904
2242	0.0002016
2254	0.0001792
2266	0.0002048
2278	0.0002032
2290	0.0001872
2302	0.0002016
2314	0.0002048
2326	0.0002304
2338	0.0001856
2350	0.0002032
2362	0.0002176
2374	0.0002224
2386	0.0002112
2398	0.0002096
2410	0.0002272
2422	0.0002288
2434	0.0002208
2446	0.0002032
2458	0.0002048
2470	0.000192
2482	0.0001936
2494	0.000216
2506	0.0002
2518	0.0002048
2530	0.0002192
2542	0.0002208
2554	0.0002464
2566	0.0002352
2578	0.0002688
2590	0.0002432
2602	0.0002848
2614	0.0002784
2626	0.0002624
2638	0.0003136
2650	0.0003616
2662	0.0003952
2674	0.0003984
2686	0.0004112
2698	0.0004192
2710	0.0003728
2722	0.000408
2734	0.000472
2746	0.000496
2758	0.0004736
2770	0.0005008
2782	0.000552
2794	0.0006592
2806	0.0007616
2818	0.0009488
2830	0.0012272
2842	0.0018592
2854	0.0033424
2866	0.0057008
2878	0.0076576
2890	0.007352
2902	0.006552
2914	0.0079344
2926	0.0113664
2938	0.0151744
2950	0.0157728
2962	0.0147552
2974	0.011632
2986	0.0053536
2998	0.0023696
3010	0.0014768
3022	0.0010976
3034	0.0008608
3046	0.0006688
3058	0.0005392
3070	0.0005168
3082	0.000448
3094	0.0004112
3106	0.0004192
3118	0.0003856
3130	0.0003056
3142	0.000312
3154	0.0002528
3166	0.000264
3178	0.0002128
3190	0.0002528
3202	0.0002336
3214	0.0002416
3226	0.0002032
3238	0.0002288
3250	0.0002432
3262	0.0003808
3274	0.0007152
3286	0.001208
3298	0.0024576
3310	0.0040608
3322	0.0066736
3334	0.0057024
3346	0.0014368
3358	0.0006064
3370	0.0004016
3382	0.0002832
3394	0.0002496
3406	0.0002528
3418	0.0002304
3430	0.0002096
3442	0.0001712
3454	0.0002032
3466	0.0002384
3478	0.0002192
3490	0.00028
3502	0.0002752
3514	0.0002464
3526	0.0001984
3538	0.0002192
3550	0.0001712
3562	0.0002096
3574	0.0002064
3586	0.0002128
3598	0.0002672
3610	0.000352
3622	0.0006208
3634	0.0015488
3646	0.0032448
3658	0.0026816
3670	0.0009696
3682	0.0004048
3694	0.0002992
3706	0.0002864
3718	0.0002096
3730	0.0001824
3742	0.0002288
3754	0.0001776
3766	0.0002544
3778	0.0002592
3790	0.0002608
3802	0.0002352
3814	0.0002416
3826	0.0002832
3838	0.0002352
