Infrared Spectrum: Trimesic acid, triphenyl ester
Formula: C27 H18 O6
CAS: 7383-70-2
State: SOLID (SPLIT MULL), FLUOROLUBE FOR 3800-1330 CM^-^1, NUJOL FOR 1330-460 CM^-^1
Melting point: 171 C
Class: COBLENTZ III
Instrument: DOW KBr FOREPRISM-GRATING
Instrument parameters: BLAZED AT 3.5, 12.0, 20.0 MICRON AND CHANGED AT 5.0, 7.5, 14.9 MICRON
Sampling: TRANSMISSION
Resolution: 2
Origin: DOW CHEMICAL COMPANY
1/CM	TRANSMITTANCE
455	0.8075
464	0.8121
473	0.8186
482	0.8225
491	0.8174
500	0.7958
509	0.6157
518	0.8282
527	0.8395
536	0.8468
545	0.8509
554	0.8524
563	0.8442
572	0.7051
581	0.8661
590	0.8787
599	0.8859
608	0.8783
617	0.869
626	0.8938
635	0.893
644	0.8806
653	0.8471
662	0.8528
671	0.8624
680	0.8042
689	0.5114
698	0.8359
707	0.8035
716	0.1585
725	0.2078
734	0.7356
743	0.6718
752	0.6388
761	0.2296
770	0.7661
779	0.8463
788	0.8578
797	0.8528
806	0.8359
815	0.6821
824	0.6395
833	0.5304
842	0.8147
851	0.8402
860	0.855
869	0.8549
878	0.8464
887	0.8295
896	0.6475
905	0.8025
914	0.8067
923	0.5553
932	0.6188
941	0.8045
950	0.8318
959	0.8117
968	0.8368
977	0.8413
986	0.8374
995	0.8349
1004	0.7368
1013	0.7656
1022	0.6137
1031	0.8151
1040	0.8098
1049	0.799
1058	0.7869
1067	0.6968
1076	0.7497
1085	0.7312
1094	0.3852
1103	0.6808
1112	0.7712
1121	0.7665
1130	0.7385
1139	0.7056
1148	0.6415
1157	0.2967
1166	0.3859
1175	0.1846
1184	0.0381
1193	0.0208
1202	0.2672
1211	0.0373
1220	0.002
1229	0.0177
1238	0.2428
1247	0.4381
1256	0.5531
1265	0.6774
1274	0.7378
1283	0.7425
1292	0.6392
1301	0.7574
1310	0.7585
1319	0.7778
1328	0.7853
1337	0.6274
1346	0.6102
1355	0.7072
1364	0.7478
1373	0.7564
1382	0.7514
1391	0.7436
1400	0.7419
1409	0.7431
1418	0.7215
1427	0.6897
1436	0.621
1445	0.521
1454	0.6615
1463	0.7308
1472	0.6865
1481	0.4306
1490	0.3291
1499	0.725
1508	0.8308
1517	0.8374
1526	0.8388
1535	0.8228
1544	0.805
1553	0.8044
1562	0.7931
1571	0.763
1580	0.7211
1589	0.4223
1598	0.5976
1607	0.8055
1616	0.8064
1625	0.7999
1634	0.7911
1643	0.7792
1652	0.7633
1661	0.7443
1670	0.7245
1679	0.7062
1688	0.6801
1697	0.6343
1706	0.5955
1715	0.5369
1724	0.3612
1733	0.0521
1742	0.1082
1751	0.1337
1760	0.6493
1769	0.8494
1778	0.8313
1787	0.8155
1796	0.8341
1805	0.8411
1814	0.8383
1823	0.8374
1832	0.836
1841	0.8343
1850	0.8196
1859	0.798
1868	0.7844
1877	0.7956
1886	0.8034
1895	0.8069
1904	0.8168
1913	0.8126
1922	0.8043
1931	0.8008
1940	0.7798
1949	0.7921
1958	0.7997
1967	0.7831
1976	0.7944
1985	0.7865
1994	0.7892
2003	0.7951
2012	0.7901
2021	0.7861
2030	0.7878
2039	0.7904
2048	0.7931
2057	0.7934
2066	0.79
2075	0.7858
2084	0.7817
2093	0.7775
2102	0.7733
2111	0.7694
2120	0.7655
2129	0.7615
2138	0.7575
2147	0.7535
2156	0.7496
2165	0.7455
2174	0.7415
2183	0.738
2192	0.7345
2201	0.7308
2210	0.7271
2219	0.7225
2228	0.7135
2237	0.7048
2246	0.6971
2255	0.6907
2264	0.6843
2273	0.6785
2282	0.6749
2291	0.6712
2300	0.6678
2309	0.6672
2318	0.6715
2327	0.6751
2336	0.6778
2345	0.6784
2354	0.6785
2363	0.6784
2372	0.6783
2381	0.6782
2390	0.678
2399	0.6775
2408	0.6772
2417	0.6767
2426	0.6762
2435	0.6758
2444	0.6753
2453	0.6747
2462	0.6741
2471	0.6735
2480	0.673
2489	0.6725
2498	0.6721
2507	0.6714
2516	0.6704
2525	0.6693
2534	0.6682
2543	0.6668
2552	0.6656
2561	0.664
2570	0.6621
2579	0.6598
2588	0.6576
2597	0.6556
2606	0.6536
2615	0.6515
2624	0.6499
2633	0.6485
2642	0.6471
2651	0.6458
2660	0.6441
2669	0.6424
2678	0.6408
2687	0.639
2696	0.6373
2705	0.6355
2714	0.6337
2723	0.6315
2732	0.6294
2741	0.6271
2750	0.6247
2759	0.6221
2768	0.6194
2777	0.6166
2786	0.6136
2795	0.6107
2804	0.6077
2813	0.6043
2822	0.6006
2831	0.5969
2840	0.5932
2849	0.5897
2858	0.587
2867	0.586
2876	0.5843
2885	0.5808
2894	0.577
2903	0.5712
2912	0.5662
2921	0.5619
2930	0.5622
2939	0.5631
2948	0.5639
2957	0.5648
2966	0.5649
2975	0.5644
2984	0.563
2993	0.5578
3002	0.5485
3011	0.5306
3020	0.5256
3029	0.5284
3038	0.514
3047	0.4975
3056	0.4802
3065	0.4758
3074	0.4758
3083	0.5202
3092	0.5385
3101	0.5489
3110	0.5598
3119	0.5602
3128	0.5584
3137	0.5558
3146	0.5524
3155	0.5489
3164	0.5456
3173	0.5424
3182	0.5409
3191	0.541
3200	0.5416
3209	0.5412
3218	0.5404
3227	0.5382
3236	0.536
3245	0.5338
3254	0.5317
3263	0.5296
3272	0.5276
3281	0.5256
3290	0.5237
3299	0.5217
3308	0.5197
3317	0.5176
3326	0.5156
3335	0.5136
3344	0.5116
3353	0.5092
3362	0.5069
3371	0.5046
3380	0.5023
3389	0.5003
3398	0.4983
3407	0.496
3416	0.4936
3425	0.491
3434	0.4891
3443	0.4877
3452	0.4877
3461	0.4886
3470	0.4892
3479	0.4892
3488	0.488
3497	0.4867
3506	0.4852
3515	0.4834
3524	0.4817
3533	0.48
3542	0.4784
3551	0.4767
3560	0.4752
3569	0.4737
3578	0.4723
3587	0.4709
3596	0.4694
3605	0.4679
3614	0.4664
3623	0.4649
3632	0.4635
3641	0.4625
3650	0.4616
3659	0.4606
3668	0.4595
3677	0.4582
3686	0.457
3695	0.4556
3704	0.4541
3713	0.4524
3722	0.4508
3731	0.4491
3740	0.4473
3749	0.4454
3758	0.4436
3767	0.4419
3776	0.4404
3785	0.4388
3794	0.437
