Infrared Spectrum: VALERAMIDE, N,N'-ETHYLENE-BIS(2,2,4-TRIMETHYL-3-OXO)-
Formula: C18 H32 N2 O4
CAS: 73840-20-7
State: SOLID (PELLET)
Melting point: 107-108 C
Class: COBLENTZ
Instrument: Not specified, most likely a prism, grating, or hybrid spectrometer.
Sampling: TRANSMISSION
Resolution: 4
Origin: TENNESSEE EASTMAN COMPANY, RESEARCH LABORATORIES
MICROMETERS	TRANSMITTANCE
2	0.188
2.03987	0.188
2.07973	0.189
2.1196	0.194
2.15946	0.204
2.19933	0.216
2.23919	0.221
2.27906	0.224
2.31893	0.237
2.35879	0.246
2.39866	0.257
2.43852	0.269
2.47839	0.279
2.51825	0.289
2.55812	0.296
2.59799	0.314
2.63785	0.327
2.67772	0.342
2.71758	0.349
2.75745	0.346
2.79731	0.337
2.83718	0.329
2.87705	0.326
2.91691	0.312
2.95678	0.151
2.99664	0.084
3.03651	0.286
3.07637	0.382
3.11624	0.422
3.1561	0.434
3.19597	0.46
3.23584	0.475
3.2757	0.452
3.31557	0.349
3.35543	0.219
3.3953	0.244
3.43516	0.432
3.47503	0.482
3.5149	0.549
3.55476	0.555
3.59463	0.574
3.63449	0.589
3.67436	0.602
3.71422	0.612
3.75409	0.617
3.79396	0.635
3.83382	0.65
3.87369	0.665
3.91355	0.673
3.95342	0.685
3.99328	0.702
4.03315	0.71
4.07302	0.722
4.11288	0.727
4.15275	0.74
4.19261	0.75
4.23248	0.7
4.27234	0.732
4.31221	0.782
4.35208	0.818
4.39194	0.815
4.43181	0.818
4.47167	0.823
4.51154	0.826
4.5514	0.84
4.59127	0.843
4.63114	0.858
4.671	0.856
4.71087	0.863
4.75073	0.87
4.7906	0.873
4.83046	0.88
4.87033	0.881
4.9102	0.89
4.95006	0.893
4.98993	0.895
5.02979	0.921
5.06966	0.918
5.10952	0.921
5.14939	0.93
5.18925	0.923
5.22912	0.931
5.26899	0.93
5.30885	0.936
5.34872	0.938
5.38858	0.945
5.42845	0.955
5.46831	0.943
5.50818	0.945
5.54805	0.94
5.58791	0.931
5.62778	0.891
5.66764	0.9
5.70751	0.853
5.74737	0.767
5.78724	0.515
5.82711	0.081
5.86697	0.494
5.90684	0.71
5.9467	0.652
5.98657	0.372
6.02643	0.041
6.0663	0.023
6.10617	0.131
6.14603	0.49
6.1859	0.584
6.22576	0.758
6.26563	0.83
6.30549	0.861
6.34536	0.821
6.38523	0.712
6.42509	0.587
6.46496	0.282
6.50482	0.026
6.54469	0.118
6.58455	0.479
6.62442	0.77
6.66429	0.808
6.70415	0.811
6.74402	0.603
6.78388	0.376
6.82375	0.564
6.86361	0.592
6.90348	0.349
6.94335	0.775
6.98321	0.876
7.02308	0.903
7.06294	0.951
7.10281	0.938
7.14267	0.831
7.18254	0.474
7.2224	0.62
7.26227	0.73
7.30214	0.735
7.342	0.855
7.38187	0.831
7.42173	0.762
7.4616	0.856
7.50146	0.966
7.54133	0.975
7.5812	0.948
7.62106	0.732
7.66093	0.82
7.70079	0.821
7.74066	0.758
7.78052	0.559
7.82039	0.267
7.86026	0.201
7.90012	0.434
7.93999	0.599
7.97985	0.688
8.01972	0.445
8.05958	0.485
8.09945	0.8
8.13932	0.825
8.17918	0.68
8.21905	0.539
8.25891	0.632
8.29878	0.763
8.33864	0.753
8.37851	0.569
8.41838	0.502
8.45824	0.798
8.49811	0.943
8.53797	0.976
8.57784	1.001
8.6177	1.004
8.65757	1.004
8.69744	1.004
8.7373	1
8.77717	0.993
8.81703	0.988
8.8569	0.985
8.89676	0.98
8.93663	0.971
8.9765	0.971
9.01636	0.963
9.05623	0.911
9.09609	0.797
9.13596	0.747
9.17582	0.853
9.21569	0.928
9.25555	0.94
9.29542	0.921
9.33529	0.798
9.37515	0.627
9.41502	0.71
9.45488	0.835
9.49475	0.888
9.53461	0.903
9.57448	0.9
9.61435	0.848
9.65421	0.683
9.69408	0.356
9.73394	0.209
9.77381	0.517
9.81367	0.777
9.85354	0.83
9.89341	0.697
9.93327	0.417
9.97314	0.354
10.013	0.59
10.0529	0.816
10.0927	0.921
10.1326	0.961
10.1725	0.97
10.2123	0.971
10.2522	0.971
10.2921	0.965
10.3319	0.963
10.3718	0.958
10.4117	0.96
10.4515	0.966
10.4914	0.976
10.5313	0.973
10.5711	0.971
10.611	0.941
10.6509	0.836
10.6907	0.755
10.7306	0.782
10.7705	0.885
10.8103	0.963
10.8502	0.981
10.89	0.983
10.9299	0.983
10.9698	0.981
11.0096	0.973
11.0495	0.965
11.0894	0.958
11.1292	0.908
11.1691	0.725
11.209	0.665
11.2488	0.838
11.2887	0.925
11.3286	0.946
11.3684	0.951
11.4083	0.961
11.4482	0.963
11.488	0.963
11.5279	0.946
11.5678	0.828
11.6076	0.8
11.6475	0.906
11.6874	0.941
11.7272	0.951
11.7671	0.955
11.807	0.963
11.8468	0.96
11.8867	0.96
11.9266	0.961
11.9664	0.961
12.0063	0.961
12.0462	0.961
12.086	0.961
12.1259	0.961
12.1657	0.961
12.2056	0.963
12.2455	0.963
12.2853	0.963
12.3252	0.963
12.3651	0.963
12.4049	0.963
12.4448	0.965
12.4847	0.963
12.5245	0.963
12.5644	0.963
12.6043	0.95
12.6441	0.935
12.684	0.88
12.7239	0.798
12.7637	0.718
12.8036	0.778
12.8435	0.871
12.8833	0.911
12.9232	0.935
12.9631	0.941
13.0029	0.941
13.0428	0.941
13.0827	0.941
13.1225	0.94
13.1624	0.931
13.2023	0.92
13.2421	0.888
13.282	0.863
13.3219	0.86
13.3617	0.87
13.4016	0.886
13.4415	0.911
13.4813	0.921
13.5212	0.923
13.561	0.921
13.6009	0.92
13.6408	0.913
13.6806	0.903
13.7205	0.883
13.7604	0.868
13.8002	0.866
13.8401	0.866
13.88	0.871
13.9198	0.881
13.9597	0.885
13.9996	0.89
14.0394	0.89
14.0793	0.89
14.1192	0.888
14.159	0.888
14.1989	0.885
14.2388	0.875
14.2786	0.87
14.3185	0.861
14.3584	0.861
14.3982	0.858
14.4381	0.848
14.478	0.835
14.5178	0.826
14.5577	0.825
14.5976	0.818
14.6374	0.805
14.6773	0.795
14.7172	0.782
14.757	0.773
14.7969	0.763
14.8368	0.752
14.8766	0.74
14.9165	0.708
14.9563	0.677
14.9962	0.662
15.0361	0.658
15.0759	0.658
15.1158	0.65
15.1557	0.645
15.1955	0.642
15.2354	0.64
15.2753	0.623
15.3151	0.603
15.355	0.58
15.3949	0.552
15.4347	0.512
15.4746	0.485
15.5145	0.464
15.5543	0.447
15.5942	0.432
15.6341	0.42
15.6739	0.415
15.7138	0.417
15.7537	0.417
15.7935	0.419
15.8334	0.419
15.8733	0.419
15.9131	0.419
15.953	0.419
15.9929	0.419
