Infrared Spectrum: 1-(P-NITRO BENZOYL) SEMICARBAZIDE
Formula: C8 H8 N4 O4
CAS: 73859-73-1
Class: COBLENTZ
Instrument: Not specified, most likely a prism, grating, or hybrid spectrometer.
Sampling: TRANSMISSION
Resolution: 4
Origin: DOW CHEMICAL COMPANY
MICROMETERS	TRANSMITTANCE
1.98	0.622
2.02019	0.622
2.06037	0.623
2.10056	0.627
2.14074	0.628
2.18093	0.633
2.22111	0.635
2.2613	0.633
2.30148	0.638
2.34167	0.65
2.38186	0.653
2.42204	0.662
2.46223	0.673
2.50241	0.68
2.5426	0.682
2.58278	0.702
2.62297	0.705
2.66315	0.71
2.70334	0.712
2.74353	0.683
2.78371	0.652
2.8239	0.595
2.86408	0.531
2.90427	0.441
2.94445	0.413
2.98464	0.473
3.02482	0.446
3.06501	0.419
3.1052	0.443
3.14538	0.458
3.18557	0.446
3.22575	0.429
3.26594	0.359
3.30612	0.314
3.34631	0.182
3.38649	0.09
3.42668	0.133
3.46687	0.183
3.50705	0.349
3.54724	0.466
3.58742	0.498
3.62761	0.505
3.66779	0.483
3.70798	0.491
3.74816	0.521
3.78835	0.558
3.82854	0.578
3.86872	0.598
3.90891	0.633
3.94909	0.663
3.98928	0.688
4.02946	0.704
4.06965	0.72
4.10983	0.734
4.15002	0.742
4.19021	0.732
4.23039	0.749
4.27058	0.772
4.31076	0.79
4.35095	0.795
4.39113	0.799
4.43132	0.804
4.4715	0.806
4.51169	0.802
4.55188	0.806
4.59206	0.809
4.63225	0.809
4.67243	0.807
4.71262	0.804
4.7528	0.801
4.79299	0.799
4.83317	0.801
4.87336	0.804
4.91355	0.806
4.95373	0.807
4.99392	0.807
5.0341	0.804
5.07429	0.804
5.11447	0.809
5.15466	0.822
5.19484	0.829
5.23503	0.834
5.27522	0.832
5.3154	0.827
5.35559	0.824
5.39577	0.821
5.43596	0.827
5.47614	0.832
5.51633	0.834
5.55651	0.839
5.5967	0.839
5.63689	0.832
5.67707	0.812
5.71726	0.792
5.75744	0.769
5.79763	0.729
5.83781	0.66
5.878	0.53
5.91818	0.382
5.95837	0.468
5.99856	0.607
6.03874	0.628
6.07893	0.57
6.11911	0.538
6.1593	0.59
6.19948	0.483
6.23967	0.541
6.27985	0.553
6.32004	0.55
6.36023	0.573
6.40041	0.6
6.4406	0.563
6.48078	0.471
6.52097	0.339
6.56115	0.254
6.60134	0.275
6.64152	0.356
6.68171	0.306
6.7219	0.381
6.76208	0.438
6.80227	0.411
6.84245	0.413
6.88264	0.51
6.92282	0.6
6.96301	0.653
7.00319	0.672
7.04338	0.698
7.08357	0.709
7.12375	0.7
7.16394	0.653
7.20412	0.563
7.24431	0.523
7.28449	0.543
7.32468	0.441
7.36486	0.217
7.40505	0.314
7.44524	0.486
7.48542	0.563
7.52561	0.581
7.56579	0.62
7.60598	0.658
7.64616	0.6
7.68635	0.558
7.72653	0.581
7.76672	0.658
7.80691	0.707
7.84709	0.715
7.88728	0.724
7.92746	0.715
7.96765	0.705
8.00783	0.705
8.04802	0.71
8.0882	0.692
8.12839	0.663
8.16858	0.657
8.20876	0.682
8.24895	0.667
8.28913	0.682
8.32932	0.695
8.3695	0.7
8.40969	0.7
8.44987	0.68
8.49006	0.63
8.53025	0.561
8.57043	0.503
8.61062	0.546
8.6508	0.662
8.69099	0.73
8.73117	0.752
8.77136	0.767
8.81154	0.77
8.85173	0.75
8.89192	0.707
8.9321	0.65
8.97229	0.625
9.01247	0.586
9.05266	0.602
9.09284	0.662
9.13303	0.69
9.17321	0.702
9.2134	0.727
9.25359	0.75
9.29377	0.762
9.33396	0.765
9.37414	0.77
9.41433	0.759
9.45451	0.752
9.4947	0.752
9.53488	0.769
9.57507	0.775
9.61526	0.779
9.65544	0.779
9.69563	0.779
9.73581	0.777
9.776	0.77
9.81618	0.739
9.85637	0.749
9.89655	0.779
9.93674	0.785
9.97693	0.801
10.0171	0.802
10.0573	0.802
10.0975	0.801
10.1377	0.792
10.1779	0.795
10.218	0.799
10.2582	0.789
10.2984	0.769
10.3386	0.759
10.3788	0.76
10.419	0.76
10.4592	0.714
10.4993	0.695
10.5395	0.707
10.5797	0.737
10.6199	0.765
10.6601	0.775
10.7003	0.78
10.7405	0.785
10.7806	0.789
10.8208	0.789
10.861	0.789
10.9012	0.789
10.9414	0.789
10.9816	0.789
11.0218	0.789
11.0619	0.79
11.1021	0.789
11.1423	0.787
11.1825	0.779
11.2227	0.764
11.2629	0.739
11.303	0.704
11.3432	0.662
11.3834	0.645
11.4236	0.633
11.4638	0.682
11.504	0.712
11.5442	0.66
11.5843	0.61
11.6245	0.627
11.6647	0.687
11.7049	0.73
11.7451	0.749
11.7853	0.757
11.8255	0.757
11.8656	0.757
11.9058	0.757
11.946	0.754
11.9862	0.739
12.0264	0.72
12.0666	0.7
12.1068	0.675
12.1469	0.65
12.1871	0.633
12.2273	0.608
12.2675	0.598
12.3077	0.593
12.3479	0.627
12.3881	0.678
12.4282	0.712
12.4684	0.729
12.5086	0.737
12.5488	0.74
12.589	0.745
12.6292	0.75
12.6694	0.745
12.7095	0.727
12.7497	0.707
12.7899	0.677
12.8301	0.63
12.8703	0.566
12.9105	0.458
12.9507	0.376
12.9908	0.354
13.031	0.419
13.0712	0.505
13.1114	0.581
13.1516	0.618
13.1918	0.64
13.232	0.658
13.2721	0.668
13.3123	0.648
13.3525	0.578
13.3927	0.503
13.4329	0.471
13.4731	0.518
13.5133	0.6
13.5534	0.642
13.5936	0.667
13.6338	0.68
13.674	0.687
13.7142	0.688
13.7544	0.69
13.7946	0.685
13.8347	0.677
13.8749	0.672
13.9151	0.66
13.9553	0.645
13.9955	0.602
14.0357	0.55
14.0759	0.456
14.116	0.377
14.1562	0.342
14.1964	0.356
14.2366	0.421
14.2768	0.489
14.317	0.526
14.3572	0.551
14.3973	0.566
14.4375	0.565
14.4777	0.55
14.5179	0.521
14.5581	0.484
14.5983	0.434
14.6385	0.386
14.6786	0.366
14.7188	0.371
14.759	0.408
14.7992	0.449
14.8394	0.488
14.8796	0.501
14.9197	0.511
14.9599	0.523
15.0001	0.546
15.0403	0.556
15.0805	0.558
15.1207	0.556
15.1609	0.551
15.201	0.55
15.2412	0.546
15.2814	0.541
15.3216	0.536
15.3618	0.53
15.402	0.521
15.4422	0.508
15.4823	0.501
15.5225	0.501
15.5627	0.498
15.6029	0.498
15.6431	0.496
15.6833	0.496
15.7235	0.496
15.7636	0.493
15.8038	0.488
15.844	0.483
15.8842	0.483
