Infrared Spectrum: 3,4-Dimethyl-1-pentene
Formula: C 7 H 14
CAS: 7385-78-6
State: gas
Instrument: HP-GC/MS/IRD
Origin: NIST Mass Spectrometry Data Center
1/CM	ABSORBANCE
550	0.0007506
562	0.0001998
574	9.72e-05
586	0.0001512
598	2.16e-05
610	5.94e-05
622	0.0002106
634	0.0003078
646	0.0006588
658	0.0014256
670	0.0018576
682	0.0015012
694	0.0006588
706	0.0002214
718	0.0001782
730	0.000135
742	0.0001296
754	0.0002808
766	0.0002484
778	0.0003078
790	0.0002322
802	0.0001026
814	0.0001512
826	0.000324
838	0.000648
850	0.0009342
862	0.0009396
874	0.0009612
886	0.0018792
898	0.0060534
910	0.0109566
922	0.010422
934	0.0047304
946	0.0019656
958	0.0015336
970	0.0019548
982	0.0034776
994	0.005346
1006	0.0055998
1018	0.0037044
1030	0.0025326
1042	0.0018252
1054	0.0014094
1066	0.0013932
1078	0.0016524
1090	0.0017604
1102	0.0019602
1114	0.0019332
1126	0.0014958
1138	0.0010476
1150	0.0009774
1162	0.0009774
1174	0.0008856
1186	0.0006966
1198	0.0005022
1210	0.0004212
1222	0.000351
1234	0.000486
1246	0.0007128
1258	0.0009396
1270	0.0010854
1282	0.0011286
1294	0.0011502
1306	0.0011178
1318	0.0010098
1330	0.0011664
1342	0.001458
1354	0.0024516
1366	0.0050544
1378	0.0071172
1390	0.006507
1402	0.0038502
1414	0.0030564
1426	0.003051
1438	0.003375
1450	0.004887
1462	0.006426
1474	0.0054594
1486	0.0031536
1498	0.0013608
1510	0.0007074
1522	0.0005022
1534	0.0003888
1546	0.0003726
1558	0.0004536
1570	0.0005508
1582	0.000594
1594	0.0006642
1606	0.0008478
1618	0.0017226
1630	0.0032346
1642	0.0035856
1654	0.0021492
1666	0.0008586
1678	0.0005508
1690	0.000405
1702	0.0003186
1714	0.0002862
1726	0.0001836
1738	0.0001944
1750	0.0001674
1762	0.0001998
1774	0.0001782
1786	0.0001782
1798	0.0002214
1810	0.00054
1822	0.0011016
1834	0.0012312
1846	0.0007506
1858	0.0003186
1870	0.0001566
1882	0.0001134
1894	0.000135
1906	0.0001296
1918	0.0001026
1930	5.4e-05
1942	4.86e-05
1954	7.56e-05
1966	0.0001242
1978	0.0001512
1990	0.0001296
2002	8.64e-05
2014	7.56e-05
2026	5.94e-05
2038	5.94e-05
2050	4.86e-05
2062	3.78e-05
2074	2.16e-05
2086	4.86e-05
2098	4.32e-05
2110	3.24e-05
2122	3.24e-05
2134	5.4e-06
2146	2.16e-05
2158	2.7e-05
2170	4.32e-05
2182	3.24e-05
2194	2.16e-05
2206	1.08e-05
2218	3.24e-05
2230	2.7e-05
2242	2.16e-05
2254	4.86e-05
2266	4.32e-05
2278	7.56e-05
2290	5.4e-05
2302	8.1e-05
2314	4.86e-05
2326	7.56e-05
2338	6.48e-05
2350	8.64e-05
2362	9.72e-05
2374	0.000108
2386	0.0001134
2398	0.0001296
2410	8.1e-05
2422	9.72e-05
2434	0.000135
2446	0.0001188
2458	0.0001134
2470	9.72e-05
2482	8.1e-05
2494	8.1e-05
2506	7.56e-05
2518	6.48e-05
2530	0.0001134
2542	0.0001512
2554	0.0001782
2566	0.000243
2578	0.0003078
2590	0.0003564
2602	0.0003726
2614	0.0003078
2626	0.000324
2638	0.0003456
2650	0.0003564
2662	0.000324
2674	0.0003024
2686	0.0003078
2698	0.0003348
2710	0.0004752
2722	0.000675
2734	0.0007992
2746	0.0007668
2758	0.0006966
2770	0.0007776
2782	0.0007722
2794	0.0009612
2806	0.0012096
2818	0.0015012
2830	0.0019386
2842	0.002862
2854	0.0055242
2866	0.0123066
2878	0.0210168
2890	0.0244188
2902	0.0201636
2914	0.0173826
2926	0.0193212
2938	0.0236358
2950	0.0320166
2962	0.0491886
2974	0.0516834
2986	0.032697
2998	0.01458
3010	0.0073602
3022	0.0044874
3034	0.0031536
3046	0.0029376
3058	0.003726
3070	0.0058752
3082	0.0077382
3094	0.0057672
3106	0.002646
3118	0.0013554
3130	0.0010746
3142	0.0010044
3154	0.0009828
3166	0.0009234
3178	0.0008964
3190	0.0007344
3202	0.000567
3214	0.0004698
3226	0.0003672
3238	0.0002322
3250	0.000216
3262	0.000189
3274	0.0001296
3286	0.0001782
3298	0.0001458
3310	0.000162
3322	0.0001512
3334	0.0001944
3346	0.0001728
3358	0.0001458
3370	0.0001242
3382	0.0001242
3394	9.72e-05
3406	9.72e-05
3418	5.94e-05
3430	0.000108
3442	0.0001458
3454	0.0001458
3466	8.64e-05
3478	0.0001242
3490	8.1e-05
3502	4.32e-05
3514	7.56e-05
3526	4.32e-05
3538	5.94e-05
3550	0.0001026
3562	8.1e-05
3574	5.94e-05
3586	0.0001188
3598	0.0001026
3610	9.18e-05
3622	0.0001512
3634	8.1e-05
3646	8.64e-05
3658	0.0001296
3670	0.0001134
3682	0.0001188
3694	5.4e-05
3706	4.32e-05
3718	5.4e-05
3730	0.0001134
3742	0.0001458
3754	0.0001674
3766	7.02e-05
3778	0.000135
3790	0.0001782
3802	0.0001728
3814	0.0001242
3826	0.0001512
3838	0.0001566
