Infrared Spectrum: trans-5-Methyl-2-hexene
Formula: C 7 H 14
CAS: 7385-82-2
State: gas
Instrument: HP-GC/MS/IRD
Origin: NIST Mass Spectrometry Data Center
1/CM	ABSORBANCE
550	0.0002254
562	0.0001518
574	1.38e-05
586	0.0001472
598	7.36e-05
610	0.0001978
622	0.0001288
634	0.0001104
646	0.0002438
658	0.0001426
670	0.0002208
682	7.36e-05
694	0.000207
706	0.0002484
718	0.0001978
730	0.0002162
742	0.000253
754	0.0003082
766	0.0002944
778	0.0002668
790	0.0002944
802	0.0003634
814	0.000414
826	0.0004462
838	0.0004462
850	0.0004508
862	0.0006026
874	0.00069
886	0.0007728
898	0.001081
910	0.0015962
922	0.0024196
934	0.003404
946	0.0057086
958	0.009292
970	0.009384
982	0.005589
994	0.0027508
1006	0.001725
1018	0.0014812
1030	0.0014444
1042	0.0015088
1054	0.0015272
1066	0.0011178
1078	0.0008372
1090	0.0008556
1102	0.0010534
1114	0.0010488
1126	0.0007912
1138	0.0008096
1150	0.0012098
1162	0.0019136
1174	0.0017848
1186	0.0009844
1198	0.0006578
1210	0.000759
1222	0.0009154
1234	0.0008602
1246	0.0007682
1258	0.0009614
1270	0.0013018
1282	0.001265
1294	0.0010488
1306	0.0011546
1318	0.001334
1330	0.0016422
1342	0.0021528
1354	0.0026312
1366	0.0037996
1378	0.005313
1390	0.0049082
1402	0.0028704
1414	0.0019458
1426	0.0025116
1438	0.0039836
1450	0.005543
1462	0.0061502
1474	0.0052164
1486	0.0031878
1498	0.0017986
1510	0.001127
1522	0.0008418
1534	0.0006256
1546	0.0004876
1558	0.0004508
1570	0.0004554
1582	0.000368
1594	0.0004048
1606	0.000391
1618	0.0003588
1630	0.0003772
1642	0.000345
1654	0.000437
1666	0.0005106
1678	0.0005336
1690	0.0005658
1702	0.0006532
1714	0.0005842
1726	0.000414
1738	0.0003404
1750	0.0002392
1762	0.0002852
1774	0.0003312
1786	0.0003496
1798	0.0003266
1810	0.0002576
1822	0.0002438
1834	0.0002484
1846	0.0001886
1858	0.0001334
1870	0.0001334
1882	0.0001058
1894	0.0001196
1906	9.2e-05
1918	0.0001104
1930	0.0001058
1942	8.74e-05
1954	7.36e-05
1966	6.9e-05
1978	0.0001012
1990	0.0001334
2002	0.0001748
2014	0.0001242
2026	9.2e-05
2038	2.76e-05
2050	2.76e-05
2062	4.6e-06
2074	3.68e-05
2086	2.76e-05
2098	3.68e-05
2110	1.38e-05
2122	3.68e-05
2134	6.44e-05
2146	3.22e-05
2158	2.76e-05
2170	7.82e-05
2182	4.6e-05
2194	5.52e-05
2206	5.52e-05
2218	4.14e-05
2230	4.14e-05
2242	1.38e-05
2254	5.06e-05
2266	5.52e-05
2278	5.06e-05
2290	3.22e-05
2302	7.36e-05
2314	6.44e-05
2326	9.2e-05
2338	0.0001012
2350	0.0001012
2362	0.0001472
2374	0.0001932
2386	0.000207
2398	0.0001656
2410	0.0001886
2422	0.0001564
2434	0.0001702
2446	0.0001932
2458	0.0001794
2470	0.0001794
2482	0.0001932
2494	0.0002208
2506	0.000184
2518	0.0002162
2530	0.000253
2542	0.0002852
2554	0.0002576
2566	0.0002944
2578	0.0003266
2590	0.0003864
2602	0.000414
2614	0.0004186
2626	0.0004738
2638	0.0004876
2650	0.0004922
2662	0.000483
2674	0.000483
2686	0.0005382
2698	0.0005612
2710	0.0007452
2722	0.00092
2734	0.001311
2746	0.0013846
2758	0.0011546
2770	0.0011684
2782	0.0012834
2794	0.0015042
2806	0.0019412
2818	0.0028198
2830	0.0044712
2842	0.00667
2854	0.0091632
2866	0.0145498
2878	0.0195408
2890	0.023069
2902	0.0268686
2914	0.0292468
2926	0.0312018
2938	0.0318596
2950	0.0354384
2962	0.046
2974	0.038203
2986	0.0179722
2998	0.0098302
3010	0.0088228
3022	0.0084364
3034	0.006877
3046	0.0047104
3058	0.0032384
3070	0.0025116
3082	0.0020792
3094	0.0018492
3106	0.0015318
3118	0.0013202
3130	0.0011638
3142	0.001035
3154	0.0009384
3166	0.000897
3178	0.0008786
3190	0.0008096
3202	0.0006716
3214	0.0005796
3226	0.0004002
3238	0.0003128
3250	0.0003588
3262	0.0002668
3274	0.0002622
3286	0.0003082
3298	0.0002576
3310	0.0002116
3322	0.0002484
3334	0.00023
3346	0.0002162
3358	0.0001334
3370	0.0002024
3382	0.0002116
3394	0.0001564
3406	0.0001656
3418	0.0001104
3430	0.0001426
3442	0.0001196
3454	0.0001242
3466	9.2e-05
3478	0.0001012
3490	0.0001104
3502	0.0001058
3514	0.0001242
3526	8.74e-05
3538	0.0001472
3550	9.66e-05
3562	0.0001012
3574	0
3586	9.66e-05
3598	4.6e-05
3610	9.66e-05
3622	0.000115
3634	7.36e-05
3646	5.98e-05
3658	5.06e-05
3670	5.06e-05
3682	0.000115
3694	9.2e-05
3706	0.0001242
3718	6.44e-05
3730	9.66e-05
3742	0.0001058
3754	0.0001104
3766	0.0001196
3778	0.0001242
3790	0.0001932
3802	0.0001288
3814	0.0001932
3826	0.0001978
3838	0.000207
