Infrared Spectrum: 1,3-DI-n-BUTYL PHENOBARBITAL
Formula: C20 H28 N2 O3
CAS: 73897-12-8
State: LIQUID
Class: COBLENTZ
Instrument: PERKIN-ELMER
Sampling: TRANSMISSION
Path length: CAPILLARY
Resolution: 4
Origin: ABBOTT LABORATORIES - WASHBURN
MICROMETERS	TRANSMITTANCE
2.048	0.898
2.08789	0.901
2.12779	0.903
2.16768	0.905
2.20758	0.906
2.24747	0.9113
2.28736	0.91
2.32726	0.905
2.36715	0.906
2.40705	0.916
2.44694	0.908
2.48683	0.908
2.52673	0.9111
2.56662	0.915
2.60652	0.92
2.64641	0.9181
2.6863	0.9181
2.7262	0.921
2.76609	0.918
2.80599	0.9058
2.84588	0.905
2.88577	0.901
2.92567	0.898
2.96556	0.885
3.00546	0.892
3.04535	0.8971
3.08524	0.898
3.12514	0.901
3.16503	0.903
3.20493	0.906
3.24482	0.905
3.28472	0.8881
3.32461	0.883
3.3645	0.8194
3.4044	0.5951
3.44429	0.6012
3.48419	0.7701
3.52408	0.7389
3.56397	0.8765
3.60387	0.9061
3.64376	0.913
3.68366	0.916
3.72355	0.92
3.76344	0.921
3.80334	0.9181
3.84323	0.916
3.88313	0.913
3.92302	0.915
3.96291	0.911
4.00281	0.91
4.0427	0.91
4.0826	0.906
4.12249	0.903
4.16238	0.898
4.20228	0.898
4.24217	0.8951
4.28207	0.903
4.32196	0.9049
4.36185	0.8981
4.40175	0.892
4.44164	0.8879
4.48154	0.89
4.52143	0.885
4.56132	0.887
4.60122	0.882
4.64111	0.882
4.68101	0.883
4.7209	0.88
4.76079	0.882
4.80069	0.882
4.84058	0.878
4.88048	0.88
4.92037	0.878
4.96026	0.878
5.00016	0.875
5.04005	0.8679
5.07995	0.873
5.11984	0.873
5.15973	0.8743
5.19963	0.875
5.23952	0.873
5.27942	0.872
5.31931	0.87
5.3592	0.872
5.3991	0.87
5.43899	0.87
5.47889	0.868
5.51878	0.86
5.55868	0.855
5.59857	0.853
5.63846	0.8457
5.67836	0.8211
5.71825	0.754
5.75815	0.7588
5.79804	0.7069
5.83793	0.6382
5.87783	0.4668
5.91772	0.1365
5.95762	0.1665
5.99751	0.4529
6.0374	0.6452
6.0773	0.755
6.11719	0.779
6.15709	0.7676
6.19698	0.8039
6.23687	0.812
6.27677	0.8113
6.31666	0.822
6.35656	0.8355
6.39645	0.835
6.43634	0.838
6.47624	0.837
6.51613	0.8402
6.55603	0.8263
6.59592	0.818
6.63581	0.812
6.67571	0.7718
6.7156	0.7275
6.7555	0.78
6.79539	0.7644
6.83528	0.6155
6.87518	0.5805
6.91507	0.518
6.95497	0.4001
6.99486	0.3736
7.03475	0.59
7.07465	0.5289
7.11454	0.293
7.15444	0.303
7.19433	0.3377
7.23422	0.4891
7.27412	0.4538
7.31401	0.44
7.35391	0.4625
7.3938	0.5412
7.43369	0.6459
7.47359	0.664
7.51348	0.6719
7.55338	0.7008
7.59327	0.6837
7.63317	0.5909
7.67306	0.551
7.71295	0.5538
7.75285	0.6768
7.79274	0.727
7.83264	0.723
7.87253	0.7067
7.91242	0.725
7.95232	0.73
7.99221	0.7444
8.03211	0.7922
8.072	0.8063
8.11189	0.828
8.15179	0.835
8.19168	0.8363
8.23158	0.8264
8.27147	0.802
8.31136	0.7574
8.35126	0.6912
8.39115	0.681
8.43105	0.6996
8.47094	0.7458
8.51083	0.7784
8.55073	0.7807
8.59062	0.7858
8.63052	0.794
8.67041	0.8045
8.7103	0.823
8.7502	0.835
8.79009	0.842
8.82999	0.8403
8.86988	0.842
8.90977	0.8301
8.94967	0.7632
8.98956	0.7226
9.02946	0.6816
9.06935	0.6794
9.10924	0.7428
9.14914	0.7585
9.18903	0.7864
9.22893	0.805
9.26882	0.7977
9.30871	0.81
9.34861	0.8031
9.3885	0.802
9.4284	0.8068
9.46829	0.8179
9.50818	0.8393
9.54808	0.8476
9.58797	0.85
9.62787	0.8285
9.66776	0.802
9.70765	0.8262
9.74755	0.828
9.78744	0.8301
9.82734	0.832
9.86723	0.8319
9.90713	0.8367
9.94702	0.8303
9.98691	0.8256
10.0268	0.8268
10.0667	0.8488
10.1066	0.853
10.1465	0.853
10.1864	0.8595
10.2263	0.862
10.2662	0.865
10.3061	0.863
10.346	0.8631
10.3859	0.863
10.4257	0.857
10.4656	0.8493
10.5055	0.8296
10.5454	0.81
10.5853	0.814
10.6252	0.831
10.6651	0.842
10.705	0.8361
10.7449	0.8228
10.7848	0.8102
10.8247	0.818
10.8646	0.8379
10.9045	0.8567
10.9444	0.858
10.9843	0.862
11.0242	0.8626
11.0641	0.863
11.1039	0.867
11.1438	0.868
11.1837	0.873
11.2236	0.8716
11.2635	0.8698
11.3034	0.865
11.3433	0.8678
11.3832	0.872
11.4231	0.867
11.463	0.867
11.5029	0.8638
11.5428	0.865
11.5827	0.862
11.6226	0.8614
11.6625	0.86
11.7024	0.858
11.7423	0.855
11.7821	0.852
11.822	0.848
11.8619	0.845
11.9018	0.838
11.9417	0.838
11.9816	0.842
12.0215	0.8476
12.0614	0.852
12.1013	0.853
12.1412	0.8622
12.1811	0.863
12.221	0.87
12.2609	0.868
12.3008	0.8733
12.3407	0.8767
12.3806	0.883
12.4204	0.8877
12.4603	0.88
12.5002	0.883
12.5401	0.8761
12.58	0.8714
12.6199	0.852
12.6598	0.8478
12.6997	0.837
12.7396	0.8268
12.7795	0.8201
12.8194	0.8132
12.8593	0.8005
12.8992	0.7907
12.9391	0.7809
12.979	0.7694
13.0189	0.759
13.0588	0.7239
13.0986	0.6712
13.1385	0.6406
13.1784	0.6709
13.2183	0.7276
13.2582	0.7598
13.2981	0.7622
13.338	0.7542
13.3779	0.755
13.4178	0.747
13.4577	0.745
13.4976	0.749
13.5375	0.75
13.5774	0.747
13.6173	0.742
13.6572	0.7337
13.6971	0.734
13.737	0.7204
13.7768	0.7043
13.8167	0.6727
13.8566	0.6684
13.8965	0.7083
13.9364	0.7458
13.9763	0.7611
14.0162	0.765
14.0561	0.769
14.096	0.772
14.1359	0.7667
14.1758	0.757
14.2157	0.7452
14.2556	0.7209
14.2955	0.6827
14.3354	0.6454
14.3753	0.6129
14.4152	0.6081
14.455	0.6291
14.4949	0.6821
14.5348	0.7139
14.5747	0.731
14.6146	0.74
14.6545	0.745
14.6944	0.7437
14.7343	0.74
14.7742	0.744
14.8141	0.742
14.854	0.7407
14.8939	0.7311
14.9338	0.732
14.9737	0.7416
15.0136	0.7377
15.0535	0.727
15.0933	0.725
15.1332	0.7213
15.1731	0.7189
15.213	0.717
15.2529	0.709
15.2928	0.7058
15.3327	0.7044
15.3726	0.6979
15.4125	0.689
