Infrared Spectrum: 3Alpha-HYDROXY-5Beta-ANDROSTANE-11,17-DIONE
Formula: C19 H28 O3
CAS: 739-27-5
State: SOLID (KBr DISC)
Class: COBLENTZ III
Instrument: BECKMAN IR-7
Sampling: TRANSMISSION
Resolution: 4
Origin: THE WORCESTER FOUNDATION FOR EXPERIMENTAL BIOLOGY, Neal L. McNiven
1/CM	TRANSMITTANCE
599.272	0.543
608.008	0.505
616.745	0.532
625.481	0.605
634.217	0.663
642.954	0.684
651.69	0.717
660.427	0.814
669.163	0.826
677.899	0.865
686.636	0.915
695.372	0.942
704.108	0.934
712.845	0.953
721.581	0.963
730.318	0.952
739.054	0.965
747.79	0.958
756.527	0.954
765.263	0.979
773.999	0.982
782.736	0.945
791.472	0.962
800.208	0.979
808.945	0.956
817.681	0.869
826.418	0.913
835.154	0.965
843.89	0.968
852.627	0.82
861.363	0.95
870.099	0.979
878.836	0.976
887.572	0.935
896.308	0.874
905.045	0.956
913.781	0.955
922.518	0.947
931.254	0.945
939.99	0.711
948.727	0.924
957.463	0.924
966.199	0.869
974.936	0.916
983.672	0.893
992.409	0.865
1001.14	0.787
1009.88	0.6611
1018.62	0.691
1027.35	0.6499
1036.09	0.606
1044.83	0.555
1053.56	0.377
1062.3	0.703
1071.04	0.72
1079.77	0.476
1088.51	0.609
1097.24	0.77
1105.98	0.783
1114.72	0.759
1123.45	0.758
1132.19	0.838
1140.93	0.783
1149.66	0.791
1158.4	0.756
1167.14	0.719
1175.87	0.683
1184.61	0.809
1193.34	0.854
1202.08	0.7281
1210.82	0.798
1219.55	0.696
1228.29	0.716
1237.03	0.753
1245.76	0.8029
1254.5	0.792
1263.24	0.735
1271.97	0.724
1280.71	0.867
1289.44	0.73
1298.18	0.64
1306.92	0.806
1315.65	0.793
1324.39	0.809
1333.13	0.6291
1341.86	0.665
1350.6	0.764
1359.34	0.69
1368.07	0.737
1376.81	0.6901
1385.55	0.731
1394.28	0.787
1403.02	0.723
1411.75	0.803
1420.49	0.793
1429.23	0.825
1437.96	0.75
1446.7	0.539
1455.44	0.572
1464.17	0.76
1472.91	0.777
1481.65	0.831
1490.38	0.908
1499.12	0.923
1507.85	0.93
1516.59	0.936
1525.33	0.939
1534.06	0.936
1542.8	0.933
1551.54	0.936
1560.27	0.937
1569.01	0.933
1577.75	0.93
1586.48	0.924
1595.22	0.914
1603.95	0.906
1612.69	0.892
1621.43	0.885
1630.16	0.876
1638.9	0.873
1647.64	0.869
1656.37	0.861
1665.11	0.841
1673.85	0.832
1682.58	0.775
1691.32	0.616
1700.05	0.141
1708.79	0.381
1717.53	0.523
1726.26	0.07
1735	0.4061
1743.74	0.602
1752.47	0.782
1761.21	0.851
1769.95	0.888
1778.68	0.91
1787.42	0.915
1796.15	0.93
1804.89	0.935
1813.63	0.939
1822.36	0.938
1831.1	0.937
1839.84	0.941
1848.57	0.941
1857.31	0.939
1866.05	0.94
1874.78	0.941
1883.52	0.944
1892.25	0.944
1900.99	0.941
1909.73	0.944
1918.46	0.944
1927.2	0.943
1935.94	0.942
1944.67	0.943
1953.41	0.941
1962.15	0.943
1970.88	0.941
1979.62	0.941
1988.35	0.945
1997.09	0.941
2005.83	0.943
2014.56	0.944
2023.3	0.9429
2032.04	0.941
2040.77	0.941
2049.51	0.9412
2058.25	0.942
2066.98	0.942
2075.72	0.9416
2084.45	0.941
2093.19	0.942
2101.93	0.942
2110.66	0.942
2119.4	0.941
2128.14	0.941
2136.87	0.941
2145.61	0.94
2154.35	0.939
2163.08	0.938
2171.82	0.9362
2180.55	0.9351
2189.29	0.9331
2198.03	0.9311
2206.76	0.93
2215.5	0.928
2224.24	0.925
2232.97	0.9239
2241.71	0.9229
2250.45	0.921
2259.18	0.92
2267.92	0.919
2276.65	0.919
2285.39	0.919
2294.13	0.918
2302.86	0.917
2311.6	0.9155
2320.34	0.9145
2329.07	0.912
2337.81	0.9084
2346.55	0.907
2355.28	0.906
2364.02	0.9053
2372.75	0.9042
2381.49	0.904
2390.23	0.904
2398.96	0.904
2407.7	0.904
2416.44	0.903
2425.17	0.903
2433.91	0.903
2442.65	0.9029
2451.38	0.902
2460.12	0.901
2468.85	0.9
2477.59	0.899
2486.33	0.899
2495.06	0.898
2503.8	0.8976
2512.54	0.8956
2521.27	0.8945
2530.01	0.894
2538.75	0.893
2547.48	0.892
2556.22	0.8904
2564.95	0.888
2573.69	0.886
2582.43	0.8852
2591.16	0.8832
2599.9	0.8822
2608.64	0.8801
2617.37	0.8791
2626.11	0.8751
2634.85	0.867
2643.58	0.8578
2652.32	0.8477
2661.05	0.84
2669.79	0.8413
2678.53	0.8492
2687.26	0.8535
2696	0.8573
2704.74	0.86
2713.47	0.8657
2722.21	0.869
2730.95	0.868
2739.68	0.866
2748.42	0.8604
2757.15	0.8574
2765.89	0.8528
2774.63	0.821
2783.36	0.7957
2792.1	0.7698
2800.84	0.753
2809.57	0.7661
2818.31	0.773
2827.05	0.7556
2835.78	0.5794
2844.52	0.4124
2853.25	0.3385
2861.99	0.4296
2870.73	0.4856
2879.46	0.5407
2888.2	0.5686
2896.94	0.4023
2905.67	0.2821
2914.41	0.2404
2923.15	0.3276
2931.88	0.3855
2940.62	0.5149
2949.35	0.4688
2958.09	0.373
2966.83	0.4478
2975.56	0.6208
2984.3	0.6759
2993.04	0.7521
3001.77	0.7996
3010.51	0.8202
3019.25	0.8318
3027.98	0.8349
3036.72	0.835
3045.45	0.8369
3054.19	0.836
3062.93	0.835
3071.66	0.8339
3080.4	0.833
3089.14	0.8309
3097.87	0.828
3106.61	0.828
3115.35	0.825
3124.08	0.8214
3132.82	0.817
3141.55	0.815
3150.29	0.814
3159.03	0.813
3167.76	0.81
3176.5	0.806
3185.24	0.8054
3193.97	0.804
3202.71	0.8003
3211.45	0.7973
3220.18	0.7952
3228.92	0.7932
3237.65	0.7893
3246.39	0.7841
3255.13	0.7811
3263.86	0.776
3272.6	0.772
3281.34	0.769
3290.07	0.7648
3298.81	0.761
3307.55	0.7586
3316.28	0.7511
3325.02	0.7387
3333.75	0.7248
3342.49	0.7143
3351.23	0.7082
3359.96	0.6958
3368.7	0.6856
3377.44	0.6795
3386.17	0.6744
3394.91	0.668
3403.65	0.6585
3412.38	0.6439
3421.12	0.6178
3429.85	0.5777
3438.59	0.5281
3447.33	0.4014
3456.06	0.2863
3464.8	0.2018
3473.54	0.2719
3482.27	0.3886
3491.01	0.5112
3499.75	0.5679
3508.48	0.627
3517.22	0.68
3525.95	0.7045
3534.69	0.7258
3543.43	0.7478
3552.16	0.7657
3560.9	0.7781
3569.64	0.7897
3578.37	0.8029
3587.11	0.8135
3595.85	0.8221
3604.58	0.8292
3613.32	0.8336
3622.06	0.8377
3630.79	0.8424
3639.53	0.8475
3648.26	0.8526
3657	0.8558
3665.74	0.857
3674.47	0.8589
3683.21	0.859
3691.95	0.86
3700.68	0.86
3709.42	0.861
3718.16	0.861
3726.89	0.8608
3735.63	0.86
3744.36	0.8598
3753.1	0.859
3761.84	0.8587
3770.57	0.858
3779.31	0.857
3788.05	0.857
3796.78	0.856
3805.52	0.855
3814.26	0.854
3822.99	0.854
3831.73	0.854
3840.46	0.8523
3849.2	0.8513
3857.94	0.851
3866.67	0.851
3875.41	0.85
3884.15	0.849
3892.88	0.849
3901.62	0.848
3910.36	0.848
3919.09	0.848
3927.83	0.848
3936.56	0.848
3945.3	0.849
3954.04	0.8482
3962.77	0.848
3971.51	0.848
