Infrared Spectrum: Isopropylbarbituric acid
Formula: C 7 H 10 N 2 O 3
CAS: 7391-69-7
State: gas
Origin: EPA-IR VAPOR PHASE LIBRARY
1/CM	ABSORBANCE
549.9	0.0011887
559.547	0.0010279
569.193	0.0011228
578.84	0.0011947
588.486	0.001485
598.133	0.001815
607.779	0.002165
617.426	0.001975
627.072	0.002105
636.719	0.002695
646.365	0.004585
656.012	0.007405
665.658	0.009185
675.305	0.006405
684.951	0.003295
694.598	0.002725
704.245	0.003275
713.891	0.003035
723.538	0.002225
733.184	0.001945
742.831	0.003025
752.477	0.005565
762.124	0.005455
771.77	0.002915
781.417	0.001525
791.063	0.0012085
800.71	0.0010331
810.356	0.0007613
820.003	0.0007518
829.649	0.0007984
839.296	0.0008119
848.943	0.00056236
858.589	0.0005579
868.236	0.00051187
877.882	0.00047859
887.529	0.00050851
897.175	0.00056463
906.822	0.00051107
916.468	0.00052317
926.115	0.00056198
935.761	0.0006103
945.408	0.00055622
955.054	0.00050624
964.701	0.0005734
974.347	0.0007402
983.994	0.0007933
993.64	0.001298
1003.29	0.001965
1012.93	0.001735
1022.58	0.0010469
1032.23	0.0008768
1041.87	0.0007623
1051.52	0.0007207
1061.17	0.0007031
1070.81	0.0007288
1080.46	0.0010207
1090.11	0.0014221
1099.75	0.001525
1109.4	0.001565
1119.05	0.001815
1128.69	0.001535
1138.34	0.0014245
1147.99	0.001535
1157.63	0.002065
1167.28	0.002875
1176.92	0.004225
1186.57	0.006295
1196.22	0.007945
1205.86	0.008115
1215.51	0.006765
1225.16	0.005035
1234.8	0.004445
1244.45	0.004565
1254.1	0.004695
1263.74	0.004575
1273.39	0.005555
1283.04	0.008725
1292.68	0.014205
1302.33	0.019385
1311.98	0.019325
1321.62	0.014875
1331.27	0.011565
1340.92	0.010795
1350.56	0.010535
1360.21	0.008975
1369.86	0.009155
1379.5	0.012025
1389.15	0.015685
1398.79	0.017835
1408.44	0.017485
1418.09	0.014145
1427.73	0.008595
1437.38	0.004385
1447.03	0.002725
1456.67	0.002685
1466.32	0.002995
1475.97	0.002735
1485.61	0.002345
1495.26	0.002065
1504.91	0.001795
1514.55	0.0014382
1524.2	0.0011364
1533.85	0.0008666
1543.49	0.0008082
1553.14	0.0008115
1562.79	0.0008199
1572.43	0.0009307
1582.08	0.0011389
1591.73	0.0012664
1601.37	0.0011691
1611.02	0.0011019
1620.67	0.0010687
1630.31	0.0010019
1639.96	0.0011102
1649.6	0.0013814
1659.25	0.001675
1668.9	0.002275
1678.54	0.003055
1688.19	0.003935
1697.84	0.005505
1707.48	0.007755
1717.13	0.012455
1726.78	0.026225
1736.42	0.044015
1746.07	0.049295
1755.72	0.053645
1765.36	0.062725
1775.01	0.062365
1784.66	0.039695
1794.3	0.013745
1803.95	0.007375
1813.6	0.004865
1823.24	0.003375
1832.89	0.002595
1842.54	0.001985
1852.18	0.001625
1861.83	0.0013943
1871.47	0.001291
1881.12	0.0011739
1890.77	0.0011696
1900.41	0.0011424
1910.06	0.0010627
1919.71	0.0008639
1929.35	0.0006878
1939	0.00054866
1948.65	0.00055408
1958.29	0.00053041
1967.94	0.00045828
1977.59	0.0005041
1987.23	0.0005565
1996.88	0.0007169
2006.53	0.0007406
2016.17	0.0006844
2025.82	0.00049688
2035.47	0.0004258
2045.11	0.0004241
2054.76	0.000351
2064.41	0.000333
2074.05	0.000314
2083.7	0.000248
2093.35	0.000213
2102.99	0.000236
2112.64	0.000237
2122.28	0.000232
2131.93	0.000225
2141.58	0.00023
2151.22	0.000185
2160.87	0.000184
2170.52	0.000197
2180.16	0.000186
2189.81	0.000213
2199.46	0.000192
2209.1	0.000201
2218.75	0.00016
2228.4	0.000184
2238.04	0.000176
2247.69	0.000182
2257.34	0.000193
2266.98	0.000214
2276.63	0.000212
2286.28	0.000213
2295.92	0.000264
2305.57	0.00022
2315.22	0.000226
2324.86	0.000212
2334.51	0.0002
2344.16	0.000263
2353.8	0.000274
2363.45	0.000334
2373.09	0.00036
2382.74	0.000337
2392.39	0.000321
2402.03	0.000313
2411.68	0.000235
2421.33	0.000265
2430.97	0.000259
2440.62	0.000179
2450.27	0.000214
2459.91	0.0002
2469.56	0.000184
2479.21	0.000164
2488.85	0.000183
2498.5	0.000226
2508.15	0.000181
2517.79	0.000189
2527.44	0.000187
2537.09	0.000191
2546.73	0.00016
2556.38	0.000136
2566.03	0.000117
2575.67	0.000107
2585.32	0.000149
2594.96	0.000115
2604.61	8.7e-05
2614.26	8.3e-05
2623.9	8.1e-05
2633.55	9.5e-05
2643.2	4.8e-05
2652.84	5e-05
2662.49	5.3e-05
2672.14	3.2e-05
2681.78	8e-05
2691.43	0.000104
2701.08	5e-05
2710.72	9.4e-05
2720.37	0.000103
2730.02	0.000193
2739.66	0.000207
2749.31	0.000243
2758.96	0.000261
2768.6	0.000186
2778.25	0.000172
2787.9	0.000204
2797.54	4.6e-05
2807.19	0.000108
2816.84	0.000115
2826.48	0.000154
2836.13	0.000168
2845.77	0.000188
2855.42	0.000288
2865.07	0.00047808
2874.71	0.000843
2884.36	0.001545
2894.01	0.001835
2903.65	0.0014546
2913.3	0.0013317
2922.95	0.0013758
2932.59	0.002075
2942.24	0.002905
2951.89	0.002855
2961.53	0.003485
2971.18	0.006155
2980.83	0.005795
2990.47	0.003045
3000.12	0.001515
3009.77	0.0006459
3019.41	0.000312
3029.06	0.000216
3038.71	0.000278
3048.35	0.000185
3058	7.7e-05
3067.64	0.00019
3077.29	0.000208
3086.94	0.000259
3096.58	0.000153
3106.23	0.000256
3115.88	0.0003987
3125.52	0.000328
3135.17	0.00036
3144.82	0.0003991
3154.46	0.0004766
3164.11	0.0004292
3173.76	0.0004347
3183.4	0.00028
3193.05	0.000349
3202.7	0.000327
3212.34	0.000353
3221.99	0.000216
3231.64	0.000454
3241.28	0.000314
3250.93	0.0004033
3260.58	0.000335
3270.22	0.000336
3279.87	0.000136
3289.52	0.000356
3299.16	0.000417
3308.81	0.0003709
3318.45	0.0004388
3328.1	0.0003825
3337.75	0.00050516
3347.39	0.00050855
3357.04	0.0006183
3366.69	0.0006324
3376.33	0.0006428
3385.98	0.0007395
3395.63	0.0010017
3405.27	0.001795
3414.92	0.005075
3424.57	0.013105
3434.21	0.016235
3443.86	0.008445
3453.51	0.002305
3463.15	0.0013985
3472.8	0.0011505
3482.45	0.0013209
3492.09	0.0011092
3501.74	0.0009172
3511.39	0.0009549
3521.03	0.000947
3530.68	0.0011163
3540.33	0.0011223
3549.97	0.0009501
3559.62	0.0007913
3569.26	0.0007376
3578.91	0.0007196
3588.56	0.0007126
3598.2	0.00055738
3607.85	0.0006713
3617.5	0.0006069
3627.14	0.00056295
3636.79	0.00048026
3646.44	0.0006444
3656.08	0.000583
3665.73	0.00051972
3675.38	0.00047507
3685.02	0.000468302
3694.67	0.0006057
3704.32	0.0004876
3713.96	0.00049448
3723.61	0.0006522
3733.26	0.0005934
3742.9	0.00053508
3752.55	0.00049771
3762.2	0.00055162
3771.84	0.00055413
3781.49	0.00047927
3791.13	0.0005489
3800.78	0.00049184
3810.43	0.00054269
3820.07	0.0004397
3829.72	0.0006014
3839.37	0.00051074
3849.01	0.00055316
3858.66	0.00050117
3868.31	0.0005784
3877.95	0.00048496
3887.6	0.00055461
3897.25	0.00050586
3906.89	0.00055306
3916.54	0.00049679
3926.19	0.00050459
3935.83	0.00048229
3945.48	0.0004033
3955.13	0.0005892
3964.77	0.00053327
3974.42	0.0003794
3984.07	0.0004339
3993.71	0.0004388
