Infrared Spectrum: 4-Toluoylacetonitrile
Formula: C 10 H 9 N O
CAS: 7391-28-8
State: gas
Origin: EPA-IR VAPOR PHASE LIBRARY
1/CM	ABSORBANCE
549.8	0.00693
559.445	0.00992
569.09	0.0075
578.734	0.00499
588.379	0.0039
598.024	0.00311
607.669	0.0033
617.313	0.00292
626.958	0.00353
636.603	0.00362
646.248	0.00344
655.893	0.00287
665.537	0.0028
675.182	0.00313
684.827	0.00501
694.472	0.00537
704.116	0.00409
713.761	0.00485
723.406	0.00663
733.051	0.00779
742.695	0.00689
752.34	0.00507
761.985	0.00563
771.63	0.00645
781.275	0.00587
790.919	0.00794
800.564	0.01195
810.209	0.01552
819.854	0.0136
829.498	0.00848
839.143	0.00525
848.788	0.00332
858.433	0.00243
868.078	0.00262
877.722	0.00276
887.367	0.00259
897.012	0.00426
906.657	0.00684
916.301	0.01043
925.946	0.00932
935.591	0.00598
945.236	0.00418
954.88	0.00365
964.525	0.00321
974.17	0.00368
983.815	0.00418
993.46	0.00683
1003.1	0.01606
1012.75	0.022
1022.39	0.01454
1032.04	0.01142
1041.68	0.00738
1051.33	0.00493
1060.97	0.00482
1070.62	0.00363
1080.26	0.00343
1089.91	0.00375
1099.55	0.00331
1109.2	0.00257
1118.84	0.00375
1128.49	0.00405
1138.13	0.00346
1147.78	0.00362
1157.42	0.00589
1167.07	0.01619
1176.71	0.03015
1186.36	0.02756
1196	0.0142
1205.64	0.01254
1215.29	0.01407
1224.93	0.01342
1234.58	0.01192
1244.22	0.01412
1253.87	0.02598
1263.51	0.05312
1273.16	0.05607
1282.8	0.02623
1292.45	0.01374
1302.09	0.01242
1311.74	0.01556
1321.38	0.01885
1331.03	0.01365
1340.67	0.00695
1350.32	0.00439
1359.96	0.0037
1369.61	0.00346
1379.25	0.00376
1388.9	0.00531
1398.54	0.00802
1408.18	0.01265
1417.83	0.01621
1427.47	0.01224
1437.12	0.00678
1446.76	0.00523
1456.41	0.00465
1466.05	0.00437
1475.7	0.00415
1485.34	0.00387
1494.99	0.00385
1504.63	0.0044
1514.28	0.00406
1523.92	0.00355
1533.57	0.00385
1543.21	0.00388
1552.86	0.00442
1562.5	0.00602
1572.15	0.00791
1581.79	0.00942
1591.44	0.01456
1601.08	0.02673
1610.73	0.03298
1620.37	0.02223
1630.01	0.01093
1639.66	0.00615
1649.3	0.00479
1658.95	0.00486
1668.59	0.00618
1678.24	0.00953
1687.88	0.01837
1697.53	0.04631
1707.17	0.08628
1716.82	0.08525
1726.46	0.04071
1736.11	0.01454
1745.75	0.00724
1755.4	0.00517
1765.04	0.00382
1774.69	0.00277
1784.33	0.00269
1793.98	0.00307
1803.62	0.00303
1813.27	0.00248
1822.91	0.0018292
1832.55	0.0017472
1842.2	0.0017598
1851.84	0.0013666
1861.49	0.0014138
1871.13	0.0015264
1880.78	0.0016583
1890.42	0.0020052
1900.07	0.00246
1909.71	0.00247
1919.36	0.00222
1929	0.0019694
1938.65	0.0019109
1948.29	0.0017682
1957.94	0.0015275
1967.58	0.0012944
1977.23	0.0012715
1986.87	0.0013254
1996.52	0.0012562
2006.16	0.00119951
2015.81	0.00117564
2025.45	0.0013011
2035.1	0.0012695
2044.74	0.0010851
2054.38	0.000916
2064.03	0.00112829
2073.67	0.00114166
2083.32	0.00111463
2092.96	0.00111641
2102.61	0.0010528
2112.25	0.001005
2121.9	0.00120494
2131.54	0.000764
2141.19	0.000924
2150.83	0.0010777
2160.48	0.000961
2170.12	0.00112183
2179.77	0.001063
2189.41	0.0013589
2199.06	0.0012983
2208.7	0.0019492
2218.35	0.0014728
2227.99	0.0012836
2237.64	0.0013869
2247.28	0.0020761
2256.92	0.00247
2266.57	0.0020099
2276.21	0.0014743
2285.86	0.0010714
2295.5	0.0012536
2305.15	0.00121033
2314.79	0.0012977
2324.44	0.0015168
2334.08	0.00114802
2343.73	0.001482
2353.37	0.0012388
2363.02	0.0014464
2372.66	0.00113797
2382.31	0.00118561
2391.95	0.000998
2401.6	0.0010602
2411.24	0.0015435
2420.89	0.00119424
2430.53	0.0014903
2440.18	0.0013865
2449.82	0.0014678
2459.47	0.0012085
2469.11	0.0012728
2478.75	0.0010453
2488.4	0.0013167
2498.04	0.00121348
2507.69	0.0014493
2517.33	0.00119842
2526.98	0.0014609
2536.62	0.0013519
2546.27	0.0015007
2555.91	0.0014115
2565.56	0.0016649
2575.2	0.001553
2584.85	0.0017137
2594.49	0.0014639
2604.14	0.0012541
2613.78	0.0012571
2623.43	0.0014419
2633.07	0.0015069
2642.72	0.0014492
2652.36	0.00117421
2662.01	0.00119555
2671.65	0.00116915
2681.29	0.0017
2690.94	0.0013292
2700.58	0.00111414
2710.23	0.00114382
2719.87	0.0015812
2729.52	0.0013358
2739.16	0.0015547
2748.81	0.0016797
2758.45	0.0014779
2768.1	0.001059
2777.74	0.0012768
2787.39	0.00116448
2797.03	0.001288
2806.68	0.0018162
2816.32	0.001505
2825.97	0.0017559
2835.61	0.0018677
2845.26	0.00231
2854.9	0.00296
2864.55	0.00377
2874.19	0.00565
2883.84	0.00515
2893.48	0.00509
2903.12	0.00483
2912.77	0.00462
2922.41	0.00786
2932.06	0.01144
2941.7	0.01046
2951.35	0.00624
2960.99	0.00445
2970.64	0.00439
2980.28	0.00421
2989.93	0.00497
2999.57	0.00669
3009.22	0.00674
3018.86	0.00704
3028.51	0.00979
3038.15	0.01256
3047.8	0.01086
3057.44	0.00841
3067.09	0.00709
3076.73	0.00644
3086.38	0.00597
3096.02	0.00557
3105.67	0.00345
3115.31	0.0028
3124.95	0.00298
3134.6	0.0018904
3144.24	0.001869
3153.89	0.0016969
3163.53	0.00120505
3173.18	0.0012399
3182.82	0.0010862
3192.47	0.0010218
3202.11	0.0013475
3211.76	0.0012419
3221.4	0.000886
3231.05	0.000828
3240.69	0.00115763
3250.34	0.0011046
3259.98	0.0010544
3269.63	0.0008
3279.27	0.000807
3288.92	0.00115512
3298.56	0.00120497
3308.21	0.0013824
3317.85	0.00121164
3327.49	0.00073
3337.14	0.00111264
3346.78	0.000873
3356.43	0.000406
3366.07	0.0012689
3375.72	0.0015253
3385.36	0.0018959
3395.01	0.00257
3404.65	0.00234
3414.3	0.0019685
3423.94	0.001514
3433.59	0.0010794
3443.23	0.0013952
3452.88	0.000906
3462.52	0.000819
3472.17	0.000861
3481.81	0.000596
3491.46	0.000737
3501.1	0.000809
3510.75	0.000432
3520.39	0.000721
3530.04	0.000915
3539.68	0.00119591
3549.32	0.0012324
3558.97	0.001225
3568.61	0.0011079
3578.26	0.0012731
3587.9	0.000418
3597.55	0.000474
3607.19	0.000457
3616.84	0.000758
3626.48	0.000816
3636.13	0.0013014
3645.77	0.000844
3655.42	0.0012352
3665.06	0.000764
3674.71	0.00115264
3684.35	0.00112548
3694	0.000764
3703.64	0.0010632
3713.29	0.000825
3722.93	0.001007
3732.58	0.000654
3742.22	0.001351
3751.86	0.000791
3761.51	0.0012345
3771.15	0.000908
3780.8	0.0012491
3790.44	0.000873
3800.09	0.00085
3809.73	0.0011003
3819.38	0.0010437
3829.02	0.0012413
3838.67	0.000631
3848.31	0.0010581
3857.96	0.0012212
3867.6	0.000784
3877.25	0.000815
3886.89	0.00118535
3896.54	0.0011714
3906.18	0.001016
3915.83	0.000946
3925.47	0.0013137
3935.12	0.0012536
3944.76	0.00082
3954.41	0.001001
3964.05	0.0010862
3973.69	0.000851
3983.34	0.0011035
3992.98	0.000842
