Infrared Spectrum: 2,2',6,6'-Tetrachlorodibenzyl ether
Formula: C 14 H 10 Cl 4 O
CAS: 73927-56-7
State: gas
Origin: EPA-IR VAPOR PHASE LIBRARY
1/CM	ABSORBANCE
549.9	0.0020376
559.547	0.0019403
569.193	0.0020365
578.84	0.0018906
588.486	0.0017981
598.133	0.0018936
607.779	0.002018
617.426	0.00282
627.072	0.00277
636.719	0.00313
646.365	0.00312
656.012	0.0022787
665.658	0.0022106
675.305	0.00238
684.951	0.00276
694.598	0.00348
704.245	0.00503
713.891	0.01055
723.538	0.01297
733.184	0.02248
742.831	0.01804
752.477	0.02082
762.124	0.04801
771.77	0.11927
781.417	0.05146
791.063	0.01253
800.71	0.00788
810.356	0.00719
820.003	0.00964
829.649	0.00898
839.296	0.00746
848.943	0.00598
858.589	0.0034
868.236	0.00275
877.882	0.0026
887.529	0.00259
897.175	0.00298
906.822	0.00419
916.468	0.00665
926.115	0.01209
935.761	0.01077
945.408	0.0065
955.054	0.00725
964.701	0.00904
974.347	0.00979
983.994	0.01183
993.64	0.01616
1003.29	0.01907
1012.93	0.01449
1022.58	0.01049
1032.23	0.00989
1041.87	0.01206
1051.52	0.019
1061.17	0.0384
1070.81	0.04146
1080.46	0.0557
1090.11	0.05246
1099.75	0.11505
1109.4	0.07193
1119.05	0.02157
1128.69	0.01176
1138.34	0.00903
1147.99	0.00914
1157.63	0.01038
1167.28	0.01113
1176.92	0.01076
1186.57	0.01691
1196.22	0.0374
1205.86	0.03455
1215.51	0.01061
1225.16	0.00833
1234.8	0.00974
1244.45	0.00886
1254.1	0.00542
1263.74	0.00381
1273.39	0.00362
1283.04	0.00427
1292.68	0.00465
1302.33	0.004
1311.98	0.00374
1321.62	0.00367
1331.27	0.0041
1340.92	0.00612
1350.56	0.01445
1360.21	0.02148
1369.86	0.01313
1379.5	0.00837
1389.15	0.01046
1398.79	0.01012
1408.44	0.01087
1418.09	0.01502
1427.73	0.03588
1437.38	0.07798
1447.03	0.03178
1456.67	0.01285
1466.32	0.0123
1475.97	0.01096
1485.61	0.00841
1495.26	0.00702
1504.91	0.0049
1514.55	0.00356
1524.2	0.00334
1533.85	0.00427
1543.49	0.00788
1553.14	0.01904
1562.79	0.04823
1572.43	0.04183
1582.08	0.02806
1591.73	0.00982
1601.37	0.00572
1611.02	0.00401
1620.67	0.00349
1630.31	0.00314
1639.96	0.00279
1649.6	0.00279
1659.25	0.00345
1668.9	0.00323
1678.54	0.0020545
1688.19	0.0017189
1697.84	0.0015677
1707.48	0.0015762
1717.13	0.0015641
1726.78	0.0016771
1736.42	0.0016766
1746.07	0.0016083
1755.72	0.0016054
1765.36	0.002218
1775.01	0.00364
1784.66	0.00278
1794.3	0.0017482
1803.95	0.0015342
1813.6	0.0014569
1823.24	0.0015683
1832.89	0.0019456
1842.54	0.00274
1852.18	0.00347
1861.83	0.0024
1871.47	0.0016105
1881.12	0.00142277
1890.77	0.00145691
1900.41	0.0015954
1910.06	0.0023045
1919.71	0.00373
1929.35	0.00405
1939	0.0020605
1948.65	0.0015531
1958.29	0.0015374
1967.94	0.0016606
1977.59	0.0018463
1987.23	0.0019478
1996.88	0.0019455
2006.53	0.0018788
2016.17	0.0017973
2025.82	0.0017583
2035.47	0.0017041
2045.11	0.0016777
2054.76	0.0016337
2064.41	0.001735
2074.05	0.0017403
2083.7	0.0017559
2093.35	0.0016557
2102.99	0.0015574
2112.64	0.00142138
2122.28	0.001233
2131.93	0.001149
2141.58	0.001178
2151.22	0.00112
2160.87	0.00109
2170.52	0.001126
2180.16	0.001122
2189.81	0.001152
2199.46	0.001185
2209.1	0.001174
2218.75	0.001125
2228.4	0.001102
2238.04	0.001042
2247.69	0.001034
2257.34	0.001143
2266.98	0.001176
2276.63	0.001189
2286.28	0.0012
2295.92	0.001231
2305.57	0.00140666
2315.22	0.00135473
2324.86	0.001148
2334.51	0.000988
2344.16	0.001016
2353.8	0.000985
2363.45	0.000851
2373.09	0.000908
2382.74	0.000985
2392.39	0.000982
2402.03	0.001012
2411.68	0.000966
2421.33	0.001045
2430.97	0.00108
2440.62	0.000982
2450.27	0.00095
2459.91	0.000877
2469.56	0.000825
2479.21	0.000892
2488.85	0.000922
2498.5	0.000914
2508.15	0.000954
2517.79	0.000939
2527.44	0.000778
2537.09	0.00073
2546.73	0.000728
2556.38	0.000719
2566.03	0.000799
2575.67	0.000731
2585.32	0.000829
2594.96	0.0008
2604.61	0.000832
2614.26	0.000844
2623.9	0.000843
2633.55	0.001069
2643.2	0.001046
2652.84	0.001224
2662.49	0.0012837
2672.14	0.001145
2681.78	0.000976
2691.43	0.000849
2701.08	0.000761
2710.72	0.000686
2720.37	0.000701
2730.02	0.000747
2739.66	0.000648
2749.31	0.000644
2758.96	0.000803
2768.6	0.000786
2778.25	0.000859
2787.9	0.001037
2797.54	0.00124
2807.19	0.0013455
2816.84	0.0013082
2826.48	0.0017022
2836.13	0.0017924
2845.77	0.0023265
2855.42	0.00305
2865.07	0.00463
2874.71	0.00703
2884.36	0.01005
2894.01	0.00962
2903.65	0.00657
2913.3	0.00529
2922.95	0.00616
2932.59	0.00869
2942.24	0.01072
2951.89	0.01081
2961.53	0.00833
2971.18	0.00654
2980.83	0.00462
2990.47	0.00248
3000.12	0.00145048
3009.77	0.000763
3019.41	0.000668
3029.06	0.000529
3038.71	0.000683
3048.35	0.0015617
3058	0.00425
3067.64	0.00771
3077.29	0.00591
3086.94	0.00612
3096.58	0.0015732
3106.23	0.001001
3115.88	0.0013088
3125.52	0.0019526
3135.17	0.001512
3144.82	0.000527
3154.46	0.00021
3164.11	0.00017
3173.76	0.00028
3183.4	0.00015
3193.05	0.00022
3202.7	0.00022
3212.34	0.00024
3221.99	0.000374
3231.64	0.000428
3241.28	0.000361
3250.93	0.000527
3260.58	0.000422
3270.22	0.000505
3279.87	0.000518
3289.52	0.000634
3299.16	0.0006
3308.81	0.000663
3318.45	0.000537
3328.1	0.000697
3337.75	0.000699
3347.39	0.000712
3357.04	0.000701
3366.69	0.000779
3376.33	0.000637
3385.98	0.00083
3395.63	0.000862
3405.27	0.000875
3414.92	0.000908
3424.57	0.000915
3434.21	0.001038
3443.86	0.000942
3453.51	0.000781
3463.15	0.001024
3472.8	0.00095
3482.45	0.001079
3492.09	0.001075
3501.74	0.001064
3511.39	0.001055
3521.03	0.001098
3530.68	0.001152
3540.33	0.001065
3549.97	0.00111
3559.62	0.001082
3569.26	0.001057
3578.91	0.001253
3588.56	0.001108
3598.2	0.001061
3607.85	0.001065
3617.5	0.001044
3627.14	0.001051
3636.79	0.001068
3646.44	0.001058
3656.08	0.001055
3665.73	0.000934
3675.38	0.001141
3685.02	0.001052
3694.67	0.001162
3704.32	0.001078
3713.96	0.001172
3723.61	0.000993
3733.26	0.001064
3742.9	0.001023
3752.55	0.001007
3762.2	0.001052
3771.84	0.001011
3781.49	0.001135
3791.13	0.001066
3800.78	0.001003
3810.43	0.001163
3820.07	0.001206
3829.72	0.001049
3839.37	0.001226
3849.01	0.00136477
3858.66	0.0013182
3868.31	0.001158
3877.95	0.001184
3887.6	0.0012984
3897.25	0.001208
3906.89	0.001172
3916.54	0.001178
3926.19	0.001145
3935.83	0.001131
3945.48	0.001167
3955.13	0.001109
3964.77	0.001067
3974.42	0.001069
3984.07	0.001051
3993.71	0.001038
