Infrared Spectrum: IMIDAZOLE-5-CARBOXYLIC ACID, 1-BENZYL-, METHYL ESTER
Formula: C12 H12 N2 O2
CAS: 73941-33-0
State: SOLUTION (10% CCl4 FOR 3800-1330, 10% CS2 FOR 1330-450 CM^-^1)
Class: COBLENTZ III
Instrument: DOW KBr FOREPRISM-GRATING
Instrument parameters: BLAZED AT 3.5, 12.0, 20.0 MICRON AND CHANGED AT 5.0, 7.5, 14.9 MICRON
Sampling: TRANSMISSION
Path length: 0.012 CM, 0.011 CM
Resolution: 2
Origin: DOW CHEMICAL COMPANY
1/CM	TRANSMITTANCE
455	0.8121
464	0.8464
473	0.8578
482	0.8688
491	0.8599
500	0.8106
509	0.7671
518	0.8477
527	0.8658
536	0.8706
545	0.8725
554	0.8732
563	0.8643
572	0.8231
581	0.8546
590	0.8623
599	0.856
608	0.8359
617	0.8239
626	0.8068
635	0.8316
644	0.7797
653	0.1002
662	0.6355
671	0.798
680	0.8081
689	0.3723
698	0.5391
707	0.1022
716	0.1929
725	0.4196
734	0.763
743	0.7886
752	0.6562
761	0.2008
770	0.4312
779	0.7868
788	0.8403
797	0.7781
806	0.5105
815	0.6774
824	0.7458
833	0.3976
842	0.7024
851	0.7632
860	0.6016
869	0.7846
878	0.8587
887	0.8582
896	0.8468
905	0.7985
914	0.5162
923	0.8361
932	0.8715
941	0.8501
950	0.7872
959	0.7401
968	0.5986
977	0.7386
986	0.8488
995	0.8665
1004	0.8616
1013	0.8509
1022	0.8096
1031	0.7647
1040	0.8659
1049	0.8621
1058	0.8478
1067	0.8078
1076	0.6201
1085	0.6467
1094	0.3339
1103	0.0193
1112	0.052
1121	0.0323
1130	0.2525
1139	0.673
1148	0.7067
1157	0.666
1166	0.5449
1175	0.4646
1184	0.357
1193	0.1031
1202	0.1511
1211	0.1754
1220	0.0075
1229	0.1
1238	0.4618
1247	0.491
1256	0.1156
1265	0.4456
1274	0.6385
1283	0.501
1292	0.109
1301	0.368
1310	0.5018
1319	0.6183
1328	0.6497
1337	0.649
1346	0.3792
1355	0.1
1364	0.0074
1373	0.2804
1382	0.6401
1391	0.6387
1400	0.6395
1409	0.7188
1418	0.6905
1427	0.5348
1436	0.0524
1445	0.3879
1454	0.1896
1463	0.4773
1472	0.2457
1481	0.4122
1490	0.5097
1499	0.3355
1508	0.733
1517	0.6718
1526	0.4483
1535	0.1916
1544	0.3745
1553	0.749
1562	0.8015
1571	0.8085
1580	0.801
1589	0.7935
1598	0.795
1607	0.704
1616	0.7846
1625	0.7896
1634	0.7878
1643	0.7795
1652	0.7617
1661	0.7261
1670	0.666
1679	0.6154
1688	0.5862
1697	0.3015
1706	0.0463
1715	0
1724	0.0001
1733	0.1741
1742	0.547
1751	0.6749
1760	0.7228
1769	0.7343
1778	0.724
1787	0.721
1796	0.7701
1805	0.7934
1814	0.819
1823	0.8327
1832	0.8438
1841	0.8492
1850	0.8443
1859	0.8371
1868	0.8397
1877	0.8357
1886	0.8392
1895	0.8471
1904	0.8457
1913	0.8421
1922	0.841
1931	0.8407
1940	0.8251
1949	0.8157
1958	0.8446
1967	0.8416
1976	0.8545
1985	0.8601
1994	0.875
2003	0.9102
2012	0.9118
2021	0.9089
2030	0.9086
2039	0.9088
2048	0.9081
2057	0.9021
2066	0.9004
2075	0.9035
2084	0.9075
2093	0.9071
2102	0.9099
2111	0.9127
2120	0.9099
2129	0.9074
2138	0.9063
2147	0.9059
2156	0.9054
2165	0.9055
2174	0.9074
2183	0.9085
2192	0.9058
2201	0.9037
2210	0.9039
2219	0.903
2228	0.9002
2237	0.896
2246	0.8936
2255	0.893
2264	0.8939
2273	0.8951
2282	0.8918
2291	0.889
2300	0.8863
2309	0.8871
2318	0.8905
2327	0.8935
2336	0.8952
2345	0.8955
2354	0.8941
2363	0.8904
2372	0.8853
2381	0.8821
2390	0.8843
2399	0.8864
2408	0.8888
2417	0.8915
2426	0.893
2435	0.8934
2444	0.892
2453	0.8895
2462	0.8875
2471	0.8853
2480	0.8843
2489	0.8846
2498	0.885
2507	0.8834
2516	0.8805
2525	0.8787
2534	0.8802
2543	0.8787
2552	0.8792
2561	0.8788
2570	0.875
2579	0.8715
2588	0.8781
2597	0.8843
2606	0.8855
2615	0.8847
2624	0.8831
2633	0.8809
2642	0.8789
2651	0.8775
2660	0.88
2669	0.8806
2678	0.8782
2687	0.873
2696	0.8756
2705	0.8795
2714	0.8784
2723	0.8765
2732	0.8786
2741	0.8801
2750	0.8786
2759	0.875
2768	0.8694
2777	0.8617
2786	0.8518
2795	0.8551
2804	0.8675
2813	0.8662
2822	0.86
2831	0.8465
2840	0.798
2849	0.7501
2858	0.8289
2867	0.8257
2876	0.8172
2885	0.7967
2894	0.775
2903	0.7568
2912	0.7693
2921	0.7515
2930	0.6949
2939	0.5941
2948	0.4239
2957	0.6825
2966	0.7215
2975	0.7121
2984	0.6734
2993	0.6467
3002	0.6781
3011	0.7028
3020	0.6703
3029	0.5494
3038	0.6162
3047	0.7371
3056	0.7186
3065	0.6432
3074	0.72
3083	0.7378
3092	0.7264
3101	0.7785
3110	0.7683
3119	0.7911
3128	0.8105
3137	0.8268
3146	0.8425
3155	0.8489
3164	0.8537
3173	0.8556
3182	0.8568
3191	0.8578
3200	0.8593
3209	0.8614
3218	0.8637
3227	0.865
3236	0.8649
3245	0.8621
3254	0.8631
3263	0.8661
3272	0.8701
3281	0.8715
3290	0.8721
3299	0.8718
3308	0.8715
3317	0.8711
3326	0.8708
3335	0.8704
3344	0.8703
3353	0.8701
3362	0.8691
3371	0.8675
3380	0.8658
3389	0.8613
3398	0.8568
3407	0.851
3416	0.8512
3425	0.8557
3434	0.8605
3443	0.8656
3452	0.8707
3461	0.8731
3470	0.8746
3479	0.8749
3488	0.8751
3497	0.8752
3506	0.8753
3515	0.8754
3524	0.8755
3533	0.8757
3542	0.8759
3551	0.876
3560	0.8764
3569	0.8771
3578	0.8778
3587	0.8781
3596	0.8778
3605	0.8778
3614	0.878
3623	0.8758
3632	0.8747
3641	0.8745
3650	0.8723
3659	0.8711
3668	0.8654
3677	0.8718
3686	0.8757
3695	0.8774
3704	0.8782
3713	0.8789
3722	0.8803
3731	0.88
3740	0.8791
3749	0.8766
3758	0.8752
3767	0.8747
3776	0.8768
3785	0.8768
3794	0.8746
