Infrared Spectrum: 4-t-Amylbenzenesulphonyl chloride
Formula: C 11 H 15 Cl O 2 S
CAS: 73948-18-2
State: gas
Origin: EPA-IR VAPOR PHASE LIBRARY
1/CM	ABSORBANCE
549.8	0.024099
559.445	0.021339
569.09	0.022239
578.735	0.056119
588.38	0.063729
598.025	0.039639
607.67	0.077479
617.315	0.057129
626.96	0.021049
636.605	0.013449
646.251	0.004979
655.896	0.002759
665.541	0.001619
675.186	0.001249
684.831	0.0009957
694.476	0.0008456
704.121	0.0009108
713.766	0.001259
723.411	0.002639
733.056	0.009379
742.701	0.017099
752.346	0.004149
761.991	0.001839
771.636	0.002389
781.281	0.004669
790.926	0.003269
800.571	0.002209
810.216	0.002079
819.861	0.004059
829.507	0.010269
839.152	0.007639
848.797	0.001609
858.442	0.0008627
868.087	0.0006856
877.732	0.0005468
887.377	0.0002256
897.022	0.0003421
906.667	0.0005204
916.312	0.0004575
925.957	0.0003085
935.602	0.0004467
945.247	0.0004387
954.892	0.0004601
964.537	0.0002343
974.182	0.0002889
983.827	0.0005421
993.472	0.001239
1003.12	0.003279
1012.76	0.007229
1022.41	0.002699
1032.05	0.001469
1041.7	0.001869
1051.34	0.003469
1060.99	0.004139
1070.63	0.005789
1080.28	0.014159
1089.92	0.010949
1099.57	0.005159
1109.21	0.005449
1118.86	0.004899
1128.5	0.003979
1138.15	0.003989
1147.79	0.005429
1157.44	0.009419
1167.08	0.017509
1176.73	0.045229
1186.37	0.084639
1196.02	0.039119
1205.66	0.018729
1215.31	0.009869
1224.95	0.008499
1234.6	0.005529
1244.24	0.003489
1253.89	0.002269
1263.53	0.002059
1273.18	0.002119
1282.82	0.002319
1292.47	0.002609
1302.11	0.004579
1311.76	0.003899
1321.4	0.002489
1331.05	0.002629
1340.69	0.002639
1350.34	0.003179
1359.98	0.005269
1369.63	0.010639
1379.27	0.021169
1388.92	0.048259
1398.56	0.080319
1408.21	0.037999
1417.85	0.009269
1427.5	0.003429
1437.14	0.002719
1446.79	0.003409
1456.43	0.005699
1466.08	0.008169
1475.73	0.009419
1485.37	0.007739
1495.02	0.005019
1504.66	0.002539
1514.31	0.001199
1523.95	0.0008795
1533.6	0.0009746
1543.24	0.0009562
1552.89	0.0010483
1562.53	0.001509
1572.18	0.002519
1581.82	0.006229
1591.47	0.012999
1601.11	0.004909
1610.76	0.001509
1620.4	0.0008957
1630.05	0.0007228
1639.69	0.0007298
1649.34	0.0011073
1658.98	0.001309
1668.63	0.000869
1678.27	0.0004747
1687.92	0.0004115
1697.56	0.0003352
1707.21	0.0002855
1716.85	0.0002578
1726.5	0.0002297
1736.14	0.000331
1745.79	0.0003159
1755.43	0.0003295
1765.08	0.0004577
1774.72	0.0008399
1784.37	0.001389
1794.01	0.001189
1803.66	0.0004882
1813.3	0.0004121
1822.95	0.0005178
1832.59	0.000379
1842.24	0.0002331
1851.88	0.00020144
1861.53	0.0002191
1871.17	0.0002457
1880.82	0.0002622
1890.46	0.0002911
1900.11	0.0004462
1909.75	0.001055
1919.4	0.001309
1929.04	0.000667
1938.69	0.000279
1948.33	0.00015075
1957.98	0.000142
1967.62	0.00016369
1977.27	5.79e-05
1986.91	4.17e-05
1996.56	0.00012999
2006.2	8.7e-05
2015.85	0.00015298
2025.49	0.00013775
2035.14	9.92e-05
2044.78	7.49e-05
2054.43	9.4e-05
2064.07	0.00011155
2073.72	0.0001692
2083.36	0.00016268
2093.01	0.0002561
2102.65	0.000323
2112.3	0.00019526
2121.94	0.000121362
2131.59	0.000128571
2141.23	0.00016562
2150.88	0.00015235
2160.52	0.00015652
2170.17	0.00019207
2179.81	0.00016813
2189.46	0.0002194
2199.1	0.00018705
2208.75	0.00019066
2218.39	0.00018813
2228.04	0.0002221
2237.68	0.0002535
2247.33	0.00020657
2256.97	0.0003213
2266.62	0.0003953
2276.26	0.0003919
2285.91	0.0003484
2295.55	0.0004194
2305.2	0.0003886
2314.84	0.0004818
2324.49	0.0005213
2334.13	0.0004262
2343.78	0.0003744
2353.42	0.0003537
2363.07	0.0004057
2372.72	0.0004045
2382.36	0.0004136
2392.01	0.0003191
2401.65	0.0003404
2411.3	0.0004262
2420.94	0.0003392
2430.59	0.0003607
2440.23	0.0002852
2449.88	0.0003205
2459.52	0.0003019
2469.17	0.0003699
2478.81	0.0003241
2488.46	0.0004748
2498.1	0.0003626
2507.75	0.0005089
2517.39	0.0003946
2527.04	0.0004849
2536.68	0.000421
2546.33	0.0004908
2555.97	0.0007958
2565.62	0.0008613
2575.26	0.0008867
2584.91	0.0007879
2594.55	0.0006551
2604.2	0.0006229
2613.84	0.0005544
2623.49	0.0005206
2633.13	0.000485
2642.78	0.0004793
2652.42	0.0004249
2662.07	0.0006102
2671.71	0.0005914
2681.36	0.0006092
2691	0.0005546
2700.65	0.0005467
2710.29	0.000541
2719.94	0.0005974
2729.58	0.0006632
2739.23	0.0007031
2748.87	0.0008402
2758.52	0.0007609
2768.16	0.0007831
2777.81	0.0010985
2787.45	0.0010062
2797.1	0.0010393
2806.74	0.0008867
2816.39	0.001129
2826.03	0.001399
2835.68	0.001749
2845.32	0.002399
2854.97	0.003519
2864.61	0.006609
2874.26	0.010089
2883.9	0.012339
2893.55	0.013289
2903.19	0.011819
2912.84	0.012939
2922.48	0.019659
2932.13	0.021439
2941.77	0.019899
2951.42	0.020299
2961.06	0.026579
2970.71	0.052399
2980.35	0.047379
2990	0.019199
2999.64	0.007199
3009.29	0.003579
3018.93	0.002519
3028.58	0.002079
3038.22	0.001949
3047.87	0.001879
3057.51	0.002409
3067.16	0.003269
3076.8	0.003339
3086.45	0.003039
3096.09	0.002399
3105.74	0.002009
3115.38	0.001359
3125.03	0.0009357
3134.67	0.0009535
3144.32	0.0007792
3153.96	0.0007556
3163.61	0.0008103
3173.25	0.0008086
3182.9	0.0008236
3192.54	0.0007123
3202.19	0.0006151
3211.83	0.0007163
3221.48	0.0005252
3231.12	0.000485
3240.77	0.0004422
3250.41	0.0004616
3260.06	0.0004117
3269.7	0.0004327
3279.35	0.0003076
3289	0.0003381
3298.64	0.0003295
3308.29	0.00021585
3317.93	0.0002818
3327.58	0.000325
3337.22	0.0003403
3346.87	0.0003949
3356.51	0.0002607
3366.16	0.0002313
3375.8	0.0004476
3385.45	0.00020957
3395.09	0.00020772
3404.74	0.00020255
3414.38	0.0001158
3424.03	0.0002193
3433.67	0.00012413
3443.32	0.0004824
3452.96	0.0003412
3462.61	0.0002805
3472.25	0.00019644
3481.9	0.0004177
3491.54	0.0002581
3501.19	0.0002285
3510.83	0.0002778
3520.48	0.00020148
3530.12	0.0002601
3539.77	0.0002999
3549.41	0.00014606
3559.06	0.00015708
3568.7	0.00021285
3578.35	0.0002485
3587.99	0.0003223
3597.64	0.0002214
3607.28	0.00018789
3616.93	0.0002585
3626.57	0.00019896
3636.22	0.00021614
3645.86	0.00017795
3655.51	0.0003515
3665.15	0.0003604
3674.8	0.0002782
3684.44	0.0003611
3694.09	0.0003064
3703.73	0.0002966
3713.38	0.00019498
3723.02	0.0003937
3732.67	0.0003731
3742.31	0.0003228
3751.96	0.0003941
3761.6	7.3e-05
3771.25	0.0002366
3780.89	0.0002886
3790.54	0.0003144
3800.18	0.000258
3809.83	0.0002274
3819.47	0.0002614
3829.12	0.0002289
3838.76	0.0004369
3848.41	0.00016842
3858.05	0.0003371
3867.7	0.000227
3877.34	0.0002856
3886.99	0.0004572
3896.63	0.0004444
3906.28	0.0003403
3915.92	0.0004972
3925.57	0.0004824
3935.21	0.0003779
3944.86	0.0004955
3954.5	0.0004494
3964.15	0.0003654
3973.79	0.000626
3983.44	0.0005187
3993.08	0.0003678
