Infrared Spectrum: BENZOPHENONE, 3,5-DICHLORO-2-HYDROXY-
Formula: C13 H8 Cl2 O2
CAS: 7396-92-1
State: SOLID (KBr PELLET)
Class: COBLENTZ
Instrument: Not specified, most likely a prism, grating, or hybrid spectrometer.
Sampling: TRANSMISSION
Resolution: 4
Origin: TENNESSEE EASTMAN COMPANY, RESEARCH LABORATORIES
MICROMETERS	TRANSMITTANCE
2.027	0.876
2.06807	0.876
2.10915	0.876
2.15022	0.876
2.19129	0.876
2.23237	0.879
2.27344	0.885
2.31451	0.886
2.35559	0.89
2.39666	0.895
2.43773	0.898
2.47881	0.9
2.51988	0.905
2.56095	0.907
2.60203	0.909
2.6431	0.912
2.68417	0.914
2.72525	0.91
2.76632	0.871
2.80739	0.811
2.84847	0.775
2.88954	0.761
2.93061	0.766
2.97169	0.816
3.01276	0.849
3.05383	0.859
3.09491	0.869
3.13598	0.879
3.17706	0.883
3.21813	0.818
3.2592	0.608
3.30028	0.857
3.34135	0.855
3.38242	0.849
3.4235	0.862
3.46457	0.883
3.50564	0.895
3.54672	0.919
3.58779	0.957
3.62886	0.963
3.66994	0.963
3.71101	0.965
3.75208	0.969
3.79316	0.97
3.83423	0.974
3.8753	0.963
3.91638	0.965
3.95745	0.965
3.99852	0.969
4.0396	0.969
4.08067	0.972
4.12174	0.97
4.16282	0.97
4.20389	0.972
4.24496	0.97
4.28604	0.969
4.32711	0.967
4.36818	0.969
4.40926	0.97
4.45033	0.974
4.4914	0.972
4.53248	0.972
4.57355	0.975
4.61462	0.977
4.6557	0.975
4.69677	0.975
4.73784	0.977
4.77892	0.975
4.81999	0.977
4.86106	0.977
4.90214	0.977
4.94321	0.977
4.98428	0.979
5.02536	0.972
5.06643	0.967
5.1075	0.969
5.14858	0.972
5.18965	0.972
5.23072	0.967
5.2718	0.972
5.31287	0.974
5.35395	0.974
5.39502	0.974
5.43609	0.965
5.47717	0.917
5.51824	0.934
5.55931	0.934
5.60039	0.939
5.64146	0.933
5.68253	0.938
5.72361	0.936
5.76468	0.938
5.80575	0.941
5.84683	0.938
5.8879	0.921
5.92897	0.91
5.97005	0.9
6.01112	0.867
6.05219	0.802
6.09327	0.512
6.13434	0.178
6.17541	0.42
6.21649	0.483
6.25756	0.387
6.29863	0.602
6.33971	0.6
6.38078	0.641
6.42185	0.668
6.46293	0.691
6.504	0.713
6.54507	0.706
6.58615	0.698
6.62722	0.691
6.66829	0.692
6.70937	0.722
6.75044	0.722
6.79151	0.71
6.83259	0.607
6.87366	0.301
6.91473	0.157
6.95581	0.322
6.99688	0.392
7.03795	0.548
7.07903	0.665
7.1201	0.692
7.16117	0.692
7.20225	0.689
7.24332	0.689
7.28439	0.684
7.32547	0.655
7.36654	0.631
7.40761	0.535
7.44869	0.377
7.48976	0.248
7.53083	0.13
7.57191	0.168
7.61298	0.349
7.65406	0.56
7.69513	0.567
7.7362	0.641
7.77728	0.65
7.81835	0.663
7.85942	0.646
7.9005	0.615
7.94157	0.519
7.98264	0.298
8.02372	0.171
8.06479	0.3
8.10586	0.418
8.14694	0.586
8.18801	0.648
8.22908	0.703
8.27016	0.72
8.31123	0.646
8.3523	0.42
8.39338	0.379
8.43445	0.451
8.47552	0.564
8.5166	0.607
8.55767	0.518
8.59874	0.421
8.63982	0.567
8.68089	0.653
8.72196	0.699
8.76304	0.694
8.80411	0.682
8.84518	0.713
8.88626	0.723
8.92733	0.723
8.9684	0.722
9.00948	0.679
9.05055	0.682
9.09162	0.72
9.1327	0.73
9.17377	0.732
9.21484	0.715
9.25592	0.716
9.29699	0.735
9.33806	0.739
9.37914	0.74
9.42021	0.74
9.46128	0.744
9.50236	0.753
9.54343	0.754
9.5845	0.756
9.62558	0.754
9.66665	0.747
9.70772	0.74
9.7488	0.751
9.78987	0.753
9.83095	0.754
9.87202	0.756
9.91309	0.756
9.95417	0.742
9.99524	0.739
10.0363	0.749
10.0774	0.742
10.1185	0.704
10.1595	0.531
10.2006	0.425
10.2417	0.636
10.2828	0.704
10.3238	0.723
10.3649	0.735
10.406	0.749
10.447	0.753
10.4881	0.756
10.5292	0.759
10.5703	0.759
10.6113	0.759
10.6524	0.756
10.6935	0.742
10.7346	0.747
10.7756	0.753
10.8167	0.754
10.8578	0.754
10.8989	0.753
10.9399	0.71
10.981	0.674
11.0221	0.732
11.0631	0.753
11.1042	0.756
11.1453	0.754
11.1864	0.734
11.2274	0.543
11.2685	0.581
11.3096	0.716
11.3507	0.739
11.3917	0.749
11.4328	0.754
11.4739	0.759
11.515	0.761
11.556	0.761
11.5971	0.732
11.6382	0.703
11.6792	0.735
11.7203	0.737
11.7614	0.737
11.8025	0.742
11.8435	0.744
11.8846	0.744
11.9257	0.746
11.9668	0.746
12.0078	0.746
12.0489	0.74
12.09	0.739
12.1311	0.732
12.1721	0.725
12.2132	0.71
12.2543	0.698
12.2953	0.672
12.3364	0.631
12.3775	0.552
12.4186	0.481
12.4596	0.564
12.5007	0.607
12.5418	0.583
12.5829	0.543
12.6239	0.512
12.665	0.478
12.7061	0.432
12.7472	0.353
12.7882	0.329
12.8293	0.373
12.8704	0.425
12.9114	0.461
12.9525	0.492
12.9936	0.509
13.0347	0.514
13.0757	0.475
13.1168	0.385
13.1579	0.32
13.199	0.341
13.24	0.445
13.2811	0.548
13.3222	0.631
13.3633	0.66
13.4043	0.663
13.4454	0.619
13.4865	0.593
13.5276	0.619
13.5686	0.68
13.6097	0.715
13.6508	0.73
13.6918	0.734
13.7329	0.735
13.774	0.737
13.8151	0.737
13.8561	0.742
13.8972	0.746
13.9383	0.754
13.9794	0.758
14.0204	0.754
14.0615	0.73
14.1026	0.643
14.1437	0.488
14.1847	0.358
14.2258	0.346
14.2669	0.416
14.3079	0.468
14.349	0.473
14.3901	0.473
14.4312	0.524
14.4722	0.629
14.5133	0.689
14.5544	0.723
14.5955	0.735
14.6365	0.74
14.6776	0.742
14.7187	0.749
14.7598	0.754
14.8008	0.761
14.8419	0.763
14.883	0.763
14.924	0.759
14.9651	0.72
15.0062	0.651
15.0473	0.559
15.0883	0.514
15.1294	0.509
15.1705	0.536
15.2116	0.602
15.2526	0.655
15.2937	0.679
15.3348	0.684
15.3759	0.687
15.4169	0.687
15.458	0.689
15.4991	0.687
15.5401	0.684
15.5812	0.679
15.6223	0.672
15.6634	0.667
15.7044	0.658
15.7455	0.65
15.7866	0.641
15.8277	0.629
15.8687	0.622
15.9098	0.614
15.9509	0.603
15.992	0.6
