Infrared Spectrum: .gamma.-Trityloxymethyl-.gamma.-butyrolactone
Formula: C 24 H 22 O 3
CAS: 73968-62-4
State: gas
Origin: EPA-IR VAPOR PHASE LIBRARY
1/CM	ABSORBANCE
549.8	0.0011227
559.445	0.00047757
569.09	0.0006781
578.734	0.0006551
588.379	0.0006578
598.024	0.001593
607.669	0.001543
617.313	0.002223
626.958	0.005273
636.603	0.007793
646.248	0.005423
655.893	0.003173
665.537	0.003253
675.182	0.004423
684.827	0.006673
694.472	0.016063
704.116	0.032133
713.761	0.012623
723.406	0.005043
733.051	0.004943
742.695	0.010813
752.34	0.009263
761.985	0.011943
771.63	0.008663
781.275	0.003633
790.919	0.002953
800.564	0.002913
810.209	0.001983
819.854	0.002503
829.498	0.002413
839.143	0.002473
848.788	0.002993
858.433	0.002553
868.078	0.003423
877.722	0.005703
887.367	0.006343
897.012	0.008483
906.657	0.006433
916.301	0.005253
925.946	0.005523
935.591	0.006403
945.236	0.009003
954.88	0.007893
964.525	0.007563
974.17	0.007693
983.815	0.006933
993.46	0.008733
1003.1	0.009753
1012.75	0.008053
1022.39	0.011223
1032.04	0.015533
1041.68	0.011963
1051.33	0.010413
1060.97	0.011753
1070.62	0.019013
1080.26	0.025573
1089.91	0.023753
1099.55	0.024353
1109.2	0.018893
1118.84	0.012453
1128.49	0.012153
1138.13	0.019093
1147.78	0.028663
1157.42	0.024993
1167.07	0.017963
1176.71	0.017073
1186.36	0.013233
1196	0.009873
1205.64	0.010663
1215.29	0.010653
1224.93	0.007813
1234.58	0.004033
1244.22	0.004133
1253.87	0.003083
1263.51	0.003413
1273.16	0.003383
1282.8	0.003053
1292.45	0.002913
1302.09	0.003313
1311.74	0.003583
1321.38	0.003543
1331.03	0.003633
1340.67	0.004653
1350.32	0.003853
1359.96	0.003703
1369.61	0.002963
1379.25	0.002573
1388.9	0.002193
1398.54	0.001923
1408.18	0.001683
1417.83	0.002093
1427.47	0.003393
1437.12	0.004863
1446.76	0.010253
1456.41	0.005963
1466.05	0.005243
1475.7	0.004353
1485.34	0.007813
1494.99	0.008973
1504.63	0.003313
1514.28	0.001803
1523.92	0.001563
1533.57	0.0013709
1543.21	0.0014128
1552.86	0.0013857
1562.5	0.0012341
1572.15	0.001493
1581.79	0.001873
1591.44	0.003123
1601.08	0.003203
1610.73	0.002013
1620.37	0.001503
1630.01	0.0010185
1639.66	0.0012293
1649.3	0.001303
1658.95	0.0013028
1668.59	0.0012309
1678.24	0.0012732
1687.88	0.0013372
1697.53	0.0014261
1707.17	0.0014145
1716.82	0.001493
1726.46	0.001673
1736.11	0.001873
1745.75	0.002203
1755.4	0.002973
1765.04	0.004553
1774.69	0.006523
1784.33	0.010383
1793.98	0.021713
1803.62	0.055273
1813.27	0.078073
1822.91	0.029963
1832.55	0.012413
1842.2	0.007153
1851.84	0.004523
1861.49	0.003463
1871.13	0.002863
1880.78	0.002583
1890.42	0.002173
1900.07	0.002123
1909.71	0.001803
1919.36	0.001613
1929	0.001643
1938.65	0.001903
1948.29	0.002373
1957.94	0.002273
1967.58	0.001783
1977.23	0.0012291
1986.87	0.0011236
1996.52	0.0011007
2006.16	0.0009329
2015.81	0.0008918
2025.45	0.0009029
2035.1	0.0009113
2044.74	0.0009511
2054.38	0.0010149
2064.03	0.0009466
2073.67	0.0010511
2083.32	0.0008372
2092.96	0.0008269
2102.61	0.0007063
2112.25	0.0007179
2121.9	0.0007906
2131.54	0.0007369
2141.19	0.0007555
2150.83	0.0007239
2160.48	0.0006734
2170.12	0.0007627
2179.77	0.0008578
2189.41	0.0008783
2199.06	0.0007116
2208.7	0.000945
2218.35	0.0009447
2227.99	0.0007681
2237.64	0.0007115
2247.28	0.0007678
2256.92	0.0007272
2266.57	0.0009231
2276.21	0.0007335
2285.86	0.0008389
2295.5	0.0007149
2305.15	0.0009021
2314.79	0.0009665
2324.44	0.0008821
2334.08	0.0008636
2343.73	0.0008769
2353.37	0.0009117
2363.02	0.0007802
2372.66	0.0007333
2382.31	0.0006825
2391.95	0.000462922
2401.6	0.0006165
2411.24	0.0005563
2420.89	0.0006426
2430.53	0.0006154
2440.18	0.0005605
2449.82	0.0007329
2459.47	0.0006342
2469.11	0.0008104
2478.75	0.0005884
2488.4	0.0006304
2498.04	0.0005745
2507.69	0.000631
2517.33	0.0006829
2526.98	0.0006268
2536.62	0.0005717
2546.27	0.0006392
2555.91	0.0005533
2565.56	0.0007164
2575.2	0.0007171
2584.85	0.0006951
2594.49	0.0006733
2604.14	0.0007351
2613.78	0.0005907
2623.43	0.0008956
2633.07	0.0006378
2642.72	0.0007265
2652.36	0.0006208
2662.01	0.0006117
2671.65	0.00050596
2681.29	0.0007881
2690.94	0.0007202
2700.58	0.0008957
2710.23	0.0007713
2719.87	0.0008411
2729.52	0.0007099
2739.16	0.0008033
2748.81	0.0008401
2758.45	0.0011708
2768.1	0.0007064
2777.74	0.00098
2787.39	0.0008119
2797.03	0.0009858
2806.68	0.0008183
2816.32	0.0007996
2825.97	0.0011333
2835.61	0.001383
2845.26	0.001563
2854.9	0.001693
2864.55	0.003083
2874.19	0.004213
2883.84	0.003803
2893.48	0.003073
2903.12	0.003513
2912.77	0.004023
2922.41	0.005233
2932.06	0.005493
2941.7	0.006153
2951.35	0.006213
2960.99	0.006443
2970.64	0.005373
2980.28	0.004523
2989.93	0.004603
2999.57	0.004043
3009.22	0.003083
3018.86	0.004683
3028.51	0.006913
3038.15	0.008783
3047.8	0.006483
3057.44	0.009693
3067.09	0.018993
3076.73	0.012413
3086.38	0.008713
3096.02	0.007053
3105.67	0.003613
3115.31	0.002123
3124.95	0.001473
3134.6	0.0012493
3144.24	0.001108
3153.89	0.0009538
3163.53	0.0012273
3173.18	0.0009158
3182.82	0.0006854
3192.47	0.000857
3202.11	0.0005946
3211.76	0.000348
3221.4	0.0007652
3231.05	0.000259
3240.69	0.00052737
3250.34	0.00049173
3259.98	0.00051221
3269.63	0.0006533
3279.27	0.00011
3288.92	0.000232
3298.56	0.0008313
3308.21	0.000248
3317.85	0.00075
3327.49	0.000293
3337.14	0.000248
3346.78	0.0003895
3356.43	0.00048507
3366.07	0.000216
3375.72	0.00050203
3385.36	0.00047715
3395.01	0.0004041
3404.65	0.000417
3414.3	0.0004268
3423.94	0.000401
3433.59	0.0006861
3443.23	0.0005602
3452.88	0.000292
3462.52	0.000711
3472.17	0.0006171
3481.81	0.0003734
3491.46	0.00034
3501.1	0.000116
3510.75	0.000296
3520.39	0.00053473
3530.04	0.0008574
3539.68	0.001069
3549.32	0.0008248
3558.97	0.0005731
3568.61	0.0005976
3578.26	0.000816
3587.9	0.001019
3597.55	0.0013644
3607.19	0.001713
3616.84	0.0010044
3626.48	0.0010031
3636.13	0.0008308
3645.77	0.0005567
3655.42	0.00051519
3665.06	0.00026
3674.71	0.000311
3684.35	0.0006825
3694	0.0007663
3703.64	0.0007958
3713.29	0.000954
3722.93	0.0007947
3732.58	0.0006034
3742.22	0.0007264
3751.86	0.00052015
3761.51	0.0006395
3771.15	0.0006003
3780.8	0.0007699
3790.44	0.000137
3800.09	0.00053228
3809.73	0.0010832
3819.38	0.0008691
3829.02	0.000484
3838.67	0.00049964
3848.31	0.00054759
3857.96	0.00044526
3867.6	0.0006685
3877.25	0.00052598
3886.89	0.000677
3896.54	0.0007782
3906.18	0
3915.83	0.000351
3925.47	0.000278
3935.12	0.0006405
3944.76	0.0005845
3954.41	0.0007341
3964.05	0.00051663
3973.69	0.00055162
3983.34	0.00048043
3992.98	0.0007528
