Infrared Spectrum: 4-t-Butyl-o-xylene
Formula: C 12 H 18
CAS: 7397-06-0
State: gas
Instrument: HP-GC/MS/IRD
Origin: NIST Mass Spectrometry Data Center
1/CM	ABSORBANCE
550	0.0005365
562	0.0006845
574	0.0006845
586	0.002886
598	0.0067155
610	0.003811
622	0.001036
634	0.0005365
646	0.000111
658	5.55e-05
670	0.000111
682	0.000148
694	0.000666
706	0.002886
718	0.0058645
730	0.00296
742	0.000777
754	0.000481
766	0.0006475
778	0.0008695
790	0.002479
802	0.0107115
814	0.0222925
826	0.011507
838	0.002516
850	0.0012765
862	0.002627
874	0.0059015
886	0.0053835
898	0.0036075
910	0.0049025
922	0.002849
934	0.001628
946	0.0012395
958	0.001443
970	0.0022755
982	0.005069
994	0.009065
1006	0.0057535
1018	0.0035335
1030	0.002738
1042	0.0019425
1054	0.0013505
1066	0.000851
1078	0.000555
1090	0.000555
1102	0.000962
1114	0.0017575
1126	0.0047175
1138	0.0115995
1150	0.009213
1162	0.0047175
1174	0.0039775
1186	0.007992
1198	0.009398
1210	0.004366
1222	0.003478
1234	0.0029785
1246	0.0046435
1258	0.0143375
1270	0.0226625
1282	0.008288
1294	0.004255
1306	0.003182
1318	0.002738
1330	0.003034
1342	0.005069
1354	0.0120805
1366	0.020239
1378	0.016391
1390	0.0173345
1402	0.015799
1414	0.008769
1426	0.0083805
1438	0.012543
1450	0.020276
1462	0.025567
1474	0.0266955
1486	0.0253635
1498	0.02997
1510	0.032523
1522	0.0108595
1534	0.006364
1546	0.005624
1558	0.004995
1570	0.0051985
1582	0.0051245
1594	0.005143
1606	0.007141
1618	0.007178
1630	0.0033855
1642	0.0016095
1654	0.000999
1666	0.000851
1678	0.00074
1690	0.000777
1702	0.0007215
1714	0.000629
1726	0.0007955
1738	0.001628
1750	0.0028305
1762	0.001998
1774	0.000925
1786	0.0006105
1798	0.0004625
1810	0.000481
1822	0.000592
1834	0.000592
1846	0.0006105
1858	0.000814
1870	0.00148
1882	0.00185
1894	0.001295
1906	0.000666
1918	0.000444
1930	0.000407
1942	0.0003145
1954	0.000222
1966	0.0002035
1978	0.0001665
1990	0.000111
2002	0.000111
2014	0.000111
2026	0.000111
2038	0.000148
2050	7.4e-05
2062	5.55e-05
2074	0
2086	0
2098	1.85e-05
2110	3.7e-05
2122	0.0001295
2134	9.25e-05
2146	5.55e-05
2158	7.4e-05
2170	0.000148
2182	0.000185
2194	0.0001295
2206	0.000148
2218	5.55e-05
2230	3.7e-05
2242	3.7e-05
2254	5.55e-05
2266	0.000111
2278	0.000222
2290	0.0002775
2302	0.000148
2314	9.25e-05
2326	7.4e-05
2338	7.4e-05
2350	0.000148
2362	0.000222
2374	0.00037
2386	0.000555
2398	0.0004995
2410	0.000407
2422	0.0003515
2434	0.0003145
2446	0.000333
2458	0.000333
2470	0.0003515
2482	0.000407
2494	0.0003145
2506	0.0003145
2518	0.000222
2530	0.000259
2542	0.000333
2554	0.0005365
2566	0.0006475
2578	0.000592
2590	0.0005365
2602	0.000555
2614	0.0005365
2626	0.000518
2638	0.0006475
2650	0.000851
2662	0.000962
2674	0.000962
2686	0.001036
2698	0.0012765
2710	0.0017575
2722	0.0024605
2734	0.0032745
2746	0.00333
2758	0.0028675
2770	0.0028305
2782	0.0031265
2794	0.003515
2806	0.004218
2818	0.005439
2830	0.0074555
2842	0.0113035
2854	0.0203685
2866	0.040515
2878	0.0587375
2890	0.056943
2902	0.0571465
2914	0.0707255
2926	0.085359
2938	0.0925555
2950	0.109853
2962	0.173197
2974	0.158545
2986	0.0696525
2998	0.0333185
3010	0.027972
3022	0.032005
3034	0.025826
3046	0.0196285
3058	0.0194805
3070	0.018056
3082	0.014467
3094	0.0097125
3106	0.006586
3118	0.0054205
3130	0.0043475
3142	0.003145
3154	0.002405
3166	0.002072
3178	0.001961
3190	0.001924
3202	0.001813
3214	0.0017205
3226	0.0016465
3238	0.001406
3250	0.0011655
3262	0.001073
3274	0.000962
3286	0.0009435
3298	0.0007955
3310	0.0006475
3322	0.000481
3334	0.000407
3346	0.0003515
3358	0.000407
3370	0.0005365
3382	0.000481
3394	0.00037
3406	0.000259
3418	0.000222
3430	0.0002405
3442	0.0003145
3454	0.000259
3466	0.0003145
3478	0.000259
3490	0.0002035
3502	0.000111
3514	0.0001665
3526	0.000185
3538	0.0002035
3550	0.000185
3562	7.4e-05
3574	9.25e-05
3586	5.55e-05
3598	7.4e-05
3610	9.25e-05
3622	0
3634	5.55e-05
3646	0
3658	0.000111
3670	0.000148
3682	0.000222
3694	0.000148
3706	7.4e-05
3718	5.55e-05
3730	5.55e-05
3742	0.000185
3754	0.0002035
3766	0.000185
3778	0.000259
3790	0.000296
3802	0.00037
3814	0.0003885
3826	0.0004255
3838	0.0003885
