Infrared Spectrum: Purine, 6-(2,2,2-trifluoroethoxy)-
Formula: C7 H5 F3 N4 O
CAS: 73972-56-2
State: SOLID (0.8 mg / 650 mg KBr DISC)
Class: COBLENTZ III
Instrument: PERKIN-ELMER 21 (GRATING)
Instrument parameters: FILTER CHANGE ABOUT 1030 CM^-^1
Sampling: TRANSMISSION
Resolution: 2
Origin: SOUTHERN RESEARCH INSTITUTE
1/CM	TRANSMITTANCE
603.387	0.5936
612.415	0.5976
621.443	0.5941
630.471	0.5801
639.5	0.5007
648.528	0.4577
657.556	0.6236
666.584	0.6016
675.612	0.5281
684.64	0.7121
693.668	0.7389
702.696	0.7411
711.725	0.7411
720.753	0.7407
729.781	0.7406
738.809	0.74
747.837	0.7357
756.865	0.7211
765.893	0.6888
774.921	0.758
783.95	0.7396
792.978	0.7049
802.006	0.5655
811.034	0.7535
820.062	0.7414
829.09	0.7204
838.118	0.7
847.146	0.6737
856.175	0.626
865.203	0.5439
874.231	0.4452
883.259	0.4586
892.287	0.4862
901.315	0.5891
910.343	0.664
919.371	0.683
928.4	0.6799
937.428	0.6216
946.456	0.4844
955.484	0.363
964.512	0.3905
973.54	0.5947
982.568	0.7435
991.596	0.7393
1000.62	0.7155
1009.65	0.6822
1018.68	0.5594
1027.71	0.5899
1036.74	0.7889
1045.77	0.7811
1054.79	0.7637
1063.82	0.7472
1072.85	0.7252
1081.88	0.6967
1090.91	0.669
1099.93	0.6169
1108.96	0.5624
1117.99	0.4286
1127.02	0.3426
1136.05	0.4026
1145.07	0.3801
1154.1	0.3183
1163.13	0.1342
1172.16	0.1436
1181.19	0.3397
1190.22	0.3147
1199.24	0.4643
1208.27	0.6458
1217.3	0.6685
1226.33	0.6618
1235.36	0.5872
1244.38	0.3917
1253.41	0.4541
1262.44	0.154
1271.47	0.1603
1280.5	0.2011
1289.52	0.3918
1298.55	0.5825
1307.58	0.6769
1316.61	0.4162
1325.64	0.2195
1334.67	0.4931
1343.69	0.5652
1352.72	0.5855
1361.75	0.7182
1370.78	0.7624
1379.81	0.7733
1388.83	0.6906
1397.86	0.5816
1406.89	0.5117
1415.92	0.426
1424.95	0.5951
1433.97	0.5687
1443	0.653
1452.03	0.475
1461.06	0.6039
1470.09	0.5529
1479.12	0.4982
1488.14	0.6189
1497.17	0.7533
1506.2	0.8213
1515.23	0.8296
1524.26	0.8224
1533.28	0.8143
1542.31	0.7798
1551.34	0.7303
1560.37	0.6922
1569.4	0.654
1578.42	0.5587
1587.45	0.2713
1596.48	0.4
1605.51	0.474
1614.54	0.207
1623.57	0.3388
1632.59	0.5172
1641.62	0.6417
1650.65	0.7215
1659.68	0.757
1668.71	0.7938
1677.73	0.8001
1686.76	0.8047
1695.79	0.8086
1704.82	0.8114
1713.85	0.8123
1722.87	0.8121
1731.9	0.8104
1740.93	0.8086
1749.96	0.8099
1758.99	0.8127
1768.02	0.8156
1777.04	0.8181
1786.07	0.8192
1795.1	0.8184
1804.13	0.8118
1813.16	0.8016
1822.18	0.8033
1831.21	0.8134
1840.24	0.8252
1849.27	0.836
1858.3	0.8391
1867.32	0.8485
1876.35	0.8443
1885.38	0.8348
1894.41	0.8329
1903.44	0.8521
1912.47	0.8695
1921.49	0.8747
1930.52	0.8793
1939.55	0.8817
1948.58	0.8831
1957.61	0.8839
1966.63	0.8844
1975.66	0.8848
1984.69	0.8852
1993.72	0.8856
2002.75	0.8861
2011.77	0.8839
2020.8	0.8815
2029.83	0.8831
2038.86	0.8908
2047.89	0.8929
2056.92	0.8905
2065.94	0.8894
2074.97	0.8889
2084	0.8867
2093.03	0.8849
2102.06	0.8831
2111.08	0.881
2120.11	0.8787
2129.14	0.878
2138.17	0.8778
2147.2	0.879
2156.22	0.8809
2165.25	0.8829
2174.28	0.884
2183.31	0.8824
2192.34	0.8779
2201.37	0.8733
2210.39	0.8697
2219.42	0.866
2228.45	0.8623
2237.48	0.8586
2246.51	0.8549
2255.53	0.8502
2264.56	0.8455
2273.59	0.8412
2282.62	0.8366
2291.65	0.8304
2300.67	0.8217
2309.7	0.8125
2318.73	0.8046
2327.76	0.8026
2336.79	0.8034
2345.82	0.804
2354.84	0.8042
2363.87	0.8041
2372.9	0.8025
2381.93	0.7964
2390.96	0.789
2399.98	0.7798
2409.01	0.7725
2418.04	0.7668
2427.07	0.7633
2436.1	0.7558
2445.12	0.7438
2454.15	0.7323
2463.18	0.7235
2472.21	0.716
2481.24	0.7048
2490.27	0.6908
2499.29	0.6745
2508.32	0.6542
2517.35	0.6229
2526.38	0.606
2535.41	0.6029
2544.43	0.6278
2553.46	0.6461
2562.49	0.6592
2571.52	0.6563
2580.55	0.6486
2589.57	0.6375
2598.6	0.624
2607.63	0.6107
2616.66	0.5976
2625.69	0.5836
2634.72	0.5733
2643.74	0.5719
2652.77	0.5716
2661.8	0.5672
2670.83	0.5582
2679.86	0.5564
2688.88	0.5607
2697.91	0.568
2706.94	0.5682
2715.97	0.5611
2725	0.5455
2734.02	0.532
2743.05	0.5242
2752.08	0.5171
2761.11	0.5105
2770.14	0.5054
2779.17	0.5026
2788.19	0.5135
2797.22	0.5326
2806.25	0.5515
2815.28	0.5845
2824.31	0.6094
2833.33	0.6144
2842.36	0.6094
2851.39	0.5991
2860.42	0.5918
2869.45	0.5931
2878.47	0.5948
2887.5	0.5829
2896.53	0.5626
2905.56	0.5446
2914.59	0.5303
2923.62	0.5212
2932.64	0.5168
2941.67	0.5171
2950.7	0.5256
2959.73	0.5417
2968.76	0.565
2977.78	0.5886
2986.81	0.5919
2995.84	0.5886
3004.87	0.5818
3013.9	0.5744
3022.92	0.5684
3031.95	0.5648
3040.98	0.5655
3050.01	0.5681
3059.04	0.5711
3068.07	0.5736
3077.09	0.5868
3086.12	0.5934
3095.15	0.5953
3104.18	0.5996
3113.21	0.6408
3122.23	0.6753
3131.26	0.69
3140.29	0.7008
3149.32	0.7111
3158.35	0.7209
3167.37	0.7289
3176.4	0.7361
3185.43	0.7434
3194.46	0.7513
3203.49	0.7619
3212.52	0.772
3221.54	0.7834
3230.57	0.7871
3239.6	0.7916
3248.63	0.795
3257.66	0.7979
3266.68	0.8019
3275.71	0.8023
3284.74	0.8012
3293.77	0.7991
3302.8	0.7967
3311.82	0.793
3320.85	0.7878
3329.88	0.7818
3338.91	0.7753
3347.94	0.7688
3356.97	0.7626
3365.99	0.7567
3375.02	0.7528
3384.05	0.7522
3393.08	0.7518
3402.11	0.7526
3411.13	0.7538
3420.16	0.7554
3429.19	0.7571
3438.22	0.76
3447.25	0.7633
3456.27	0.7666
3465.3	0.77
3474.33	0.7746
3483.36	0.7813
3492.39	0.7886
3501.42	0.7963
3510.44	0.8018
3519.47	0.8064
3528.5	0.8107
3537.53	0.8149
3546.56	0.819
3555.58	0.823
3564.61	0.8271
3573.64	0.8315
3582.67	0.8359
3591.7	0.8413
3600.72	0.8548
3609.75	0.8671
3618.78	0.8695
3627.81	0.8706
3636.84	0.8711
3645.87	0.8713
3654.89	0.8732
3663.92	0.8769
3672.95	0.8797
3681.98	0.8803
3691.01	0.8779
3700.03	0.8761
3709.06	0.8779
3718.09	0.8802
3727.12	0.8831
3736.15	0.886
3745.17	0.8888
3754.2	0.8913
3763.23	0.8937
3772.26	0.8921
3781.29	0.8867
3790.32	0.8808
3799.34	0.8787
3808.37	0.8791
3817.4	0.8803
3826.43	0.8823
3835.46	0.8844
3844.48	0.8865
3853.51	0.887
3862.54	0.887
3871.57	0.8863
3880.6	0.8856
3889.62	0.885
3898.65	0.8844
3907.68	0.884
3916.71	0.8835
3925.74	0.8831
3934.77	0.8826
3943.79	0.8822
3952.82	0.8807
3961.85	0.8791
3970.88	0.8745
3979.91	0.8723
3988.93	0.8722
3997.96	0.872
4006.99	0.8718
