Infrared Spectrum: DIETHYLMETHOXYBORANE
Formula: C5 H13 O B
CAS: 7397-46-8
State: VAPOR AT 36 mmHg PRESSURE
Class: COBLENTZ
Instrument: Not specified, most likely a prism, grating, or hybrid spectrometer.
Sampling: TRANSMISSION
Path length: 5 CM
Resolution: 4
Origin: KALLERY CHEMICAL COMPANY
MICROMETERS	TRANSMITTANCE
1.993	0.833
2.02767	0.834
2.06233	0.838
2.097	0.841
2.13166	0.845
2.16633	0.845
2.20099	0.845
2.23566	0.833
2.27033	0.824
2.30499	0.826
2.33966	0.829
2.37432	0.838
2.40899	0.843
2.44366	0.85
2.47832	0.853
2.51299	0.857
2.54765	0.858
2.58232	0.865
2.61698	0.876
2.65165	0.879
2.68632	0.87
2.72098	0.858
2.75565	0.876
2.79031	0.884
2.82498	0.886
2.85964	0.884
2.89431	0.884
2.92898	0.884
2.96364	0.886
2.99831	0.886
3.03297	0.882
3.06764	0.879
3.1023	0.87
3.13697	0.845
3.17164	0.826
3.2063	0.784
3.24097	0.674
3.27563	0.468
3.3103	0.12
3.34497	0.046
3.37963	0.122
3.4143	0.065
3.44896	0.215
3.48363	0.585
3.51829	0.74
3.55296	0.786
3.58763	0.814
3.62229	0.827
3.65696	0.85
3.69162	0.874
3.72629	0.888
3.76095	0.893
3.79562	0.895
3.83029	0.901
3.86495	0.908
3.89962	0.913
3.93428	0.917
3.96895	0.915
4.00362	0.915
4.03828	0.915
4.07295	0.913
4.10761	0.913
4.14228	0.913
4.17694	0.917
4.21161	0.917
4.24628	0.917
4.28094	0.915
4.31561	0.915
4.35027	0.917
4.38494	0.919
4.4196	0.92
4.45427	0.92
4.48894	0.92
4.5236	0.92
4.55827	0.92
4.59293	0.92
4.6276	0.919
4.66226	0.915
4.69693	0.913
4.7316	0.91
4.76626	0.907
4.80093	0.905
4.83559	0.905
4.87026	0.901
4.90493	0.9
4.93959	0.896
4.97426	0.896
5.00892	0.896
5.04359	0.901
5.07825	0.905
5.11292	0.908
5.14759	0.912
5.18225	0.913
5.21692	0.917
5.25158	0.92
5.28625	0.922
5.32091	0.922
5.35558	0.924
5.39025	0.924
5.42491	0.924
5.45958	0.924
5.49424	0.924
5.52891	0.924
5.56358	0.925
5.59824	0.924
5.63291	0.922
5.66757	0.92
5.70224	0.917
5.7369	0.913
5.77157	0.912
5.80624	0.908
5.8409	0.907
5.87557	0.9
5.91023	0.901
5.9449	0.901
5.97956	0.905
6.01423	0.901
6.0489	0.898
6.08356	0.896
6.11823	0.895
6.15289	0.891
6.18756	0.889
6.22222	0.886
6.25689	0.881
6.29156	0.877
6.32622	0.87
6.36089	0.858
6.39555	0.841
6.43022	0.829
6.46489	0.808
6.49955	0.798
6.53422	0.729
6.56888	0.662
6.60355	0.569
6.63821	0.325
6.67288	0.213
6.70755	0.065
6.74221	0.058
6.77688	0.075
6.81154	0.208
6.84621	0.366
6.88087	0.454
6.91554	0.473
6.95021	0.481
6.98487	0.478
7.01954	0.426
7.0542	0.34
7.08887	0.266
7.12354	0.146
7.1582	0.058
7.19287	0.034
7.22753	0.02
7.2622	0.013
7.29686	0.01
7.33153	0.008
7.3662	0.008
7.40086	0.01
7.43553	0.013
7.47019	0.02
7.50486	0.032
7.53952	0.048
7.57419	0.074
7.60886	0.125
7.64352	0.197
7.67819	0.256
7.71285	0.316
7.74752	0.373
7.78218	0.401
7.81685	0.394
7.85152	0.337
7.88618	0.266
7.92085	0.203
7.95551	0.187
7.99018	0.199
8.02485	0.259
8.05951	0.328
8.09418	0.383
8.12884	0.433
8.16351	0.475
8.19817	0.506
8.23284	0.524
8.26751	0.533
8.30217	0.531
8.33684	0.516
8.3715	0.488
8.40617	0.462
8.44083	0.44
8.4755	0.437
8.51017	0.444
8.54483	0.457
8.5795	0.475
8.61416	0.487
8.64883	0.487
8.6835	0.476
8.71816	0.454
8.75283	0.409
8.78749	0.378
8.82216	0.359
8.85682	0.345
8.89149	0.335
8.92616	0.325
8.96082	0.309
8.99549	0.299
9.03015	0.297
9.06482	0.308
9.09948	0.347
9.13415	0.392
9.16882	0.423
9.20348	0.45
9.23815	0.366
9.27281	0.313
9.30748	0.302
9.34214	0.302
9.37681	0.314
9.41148	0.373
9.44614	0.437
9.48081	0.488
9.51547	0.554
9.55014	0.576
9.58481	0.595
9.61947	0.583
9.65414	0.543
9.6888	0.545
9.72347	0.531
9.75813	0.504
9.7928	0.48
9.82747	0.468
9.86213	0.473
9.8968	0.495
9.93146	0.537
9.96613	0.585
10.0008	0.617
10.0355	0.664
10.0701	0.688
10.1048	0.707
10.1395	0.717
10.1741	0.726
10.2088	0.719
10.2435	0.7
10.2781	0.667
10.3128	0.638
10.3475	0.617
10.3821	0.602
10.4168	0.586
10.4514	0.574
10.4861	0.566
10.5208	0.562
10.5554	0.562
10.5901	0.566
10.6248	0.571
10.6594	0.588
10.6941	0.605
10.7288	0.638
10.7634	0.676
10.7981	0.705
10.8328	0.729
10.8674	0.748
10.9021	0.771
10.9368	0.79
10.9714	0.803
11.0061	0.815
11.0408	0.831
11.0754	0.839
11.1101	0.848
11.1448	0.86
11.1794	0.872
11.2141	0.882
11.2488	0.893
11.2834	0.907
11.3181	0.92
11.3528	0.929
11.3874	0.936
11.4221	0.944
11.4568	0.953
11.4914	0.958
11.5261	0.965
11.5608	0.967
11.5954	0.972
11.6301	0.975
11.6648	0.977
11.6994	0.979
11.7341	0.982
11.7687	0.981
11.8034	0.981
11.8381	0.981
11.8727	0.981
11.9074	0.981
11.9421	0.982
11.9767	0.981
12.0114	0.981
12.0461	0.982
12.0807	0.981
12.1154	0.981
12.1501	0.981
12.1847	0.982
12.2194	0.982
12.2541	0.982
12.2887	0.979
12.3234	0.975
12.3581	0.97
12.3927	0.963
12.4274	0.955
12.4621	0.943
12.4967	0.927
12.5314	0.91
12.5661	0.893
12.6007	0.867
12.6354	0.843
12.6701	0.82
12.7047	0.798
12.7394	0.772
12.7741	0.755
12.8087	0.74
12.8434	0.734
12.8781	0.74
12.9127	0.75
12.9474	0.76
12.9821	0.765
13.0167	0.764
13.0514	0.769
13.086	0.781
13.1207	0.795
13.1554	0.802
13.19	0.812
13.2247	0.822
13.2594	0.834
13.294	0.845
13.3287	0.855
13.3634	0.869
13.398	0.879
13.4327	0.889
13.4674	0.901
13.502	0.912
13.5367	0.92
13.5714	0.929
13.606	0.936
13.6407	0.941
13.6754	0.944
13.71	0.95
13.7447	0.953
13.7794	0.953
13.814	0.955
13.8487	0.955
13.8834	0.956
13.918	0.956
13.9527	0.956
13.9874	0.956
14.022	0.958
14.0567	0.958
14.0914	0.958
14.126	0.956
14.1607	0.956
14.1954	0.958
14.23	0.958
14.2647	0.958
14.2994	0.956
14.334	0.953
14.3687	0.95
14.4033	0.943
14.438	0.936
14.4727	0.929
14.5073	0.925
14.542	0.92
14.5767	0.915
14.6113	0.913
14.646	0.91
14.6807	0.907
14.7153	0.903
14.75	0.893
14.7847	0.884
14.8193	0.879
14.854	0.872
14.8887	0.865
14.9233	0.851
14.958	0.839
14.9927	0.838
