Infrared Spectrum: PURINE, 6-(m-FLUOROBENZYLTHIO)-
Formula: C12 H9 F N4 S
CAS: 73972-54-0
State: SOLID (0.6 mg / 650 mg KBr DISC)
Class: COBLENTZ III
Instrument: PERKIN-ELMER 21 (GRATING)
Instrument parameters: FILTER CHANGE AT 1080 CM^-^1
Sampling: TRANSMISSION
Resolution: 2
Origin: SOUTHERN RESEARCH INSTITUTE
1/CM	TRANSMITTANCE
614.077	0.869
622.973	0.8251
631.869	0.8268
640.765	0.8042
649.661	0.713
658.557	1.013
667.453	0.9699
676.349	0.8786
685.245	0.731
694.141	0.9724
703.036	0.9254
711.932	0.8516
720.828	0.851
729.724	0.8212
738.62	0.6679
747.516	0.574
756.412	0.7456
765.308	0.8067
774.204	0.7614
783.1	0.6781
791.996	0.5428
800.892	0.5333
809.788	0.7771
818.684	0.7412
827.58	0.697
836.476	0.5858
845.372	0.3533
854.268	0.4748
863.163	0.593
872.059	0.5192
880.955	0.486
889.851	0.5035
898.747	0.5613
907.643	0.6386
916.539	0.6562
925.435	0.5785
934.331	0.488
943.227	0.3698
952.123	0.3024
961.019	0.6465
969.915	0.7829
978.811	0.778
987.707	0.773
996.603	0.7086
1005.5	0.6346
1014.39	0.8105
1023.29	0.813
1032.19	0.808
1041.08	0.8023
1049.98	0.798
1058.87	0.793
1067.77	0.775
1076.67	0.7356
1085.56	0.7481
1094.46	0.764
1103.35	0.7493
1112.25	0.7242
1121.15	0.6896
1130.04	0.5848
1138.94	0.5069
1147.83	0.5165
1156.73	0.6583
1165.63	0.682
1174.52	0.703
1183.42	0.6934
1192.31	0.6745
1201.21	0.6642
1210.11	0.6358
1219	0.5493
1227.9	0.4215
1236.79	0.2121
1245.69	0.2221
1254.59	0.3846
1263.48	0.4534
1272.38	0.4212
1281.27	0.6368
1290.17	0.6343
1299.06	0.7416
1307.96	0.76
1316.86	0.7142
1325.75	0.511
1334.65	0.4212
1343.54	0.7391
1352.44	0.75
1361.34	0.725
1370.23	0.6559
1379.13	0.5692
1388.02	0.1978
1396.92	0.3903
1405.82	0.679
1414.71	0.6615
1423.61	0.5911
1432.5	0.4433
1441.4	0.5405
1450.3	0.5512
1459.19	0.5191
1468.09	0.6156
1476.98	0.581
1485.88	0.5765
1494.78	0.5098
1503.67	0.6458
1512.57	0.6761
1521.46	0.6336
1530.36	0.598
1539.26	0.5841
1548.15	0.4667
1557.05	0.3828
1565.94	0.1227
1574.84	0.1131
1583.74	0.1861
1592.63	0.191
1601.53	0.238
1610.42	0.4954
1619.32	0.572
1628.21	0.6076
1637.11	0.7328
1646.01	0.7364
1654.9	0.736
1663.8	0.7347
1672.69	0.731
1681.59	0.727
1690.49	0.7209
1699.38	0.712
1708.28	0.708
1717.17	0.705
1726.07	0.703
1734.97	0.703
1743.86	0.705
1752.76	0.705
1761.65	0.7077
1770.55	0.711
1779.45	0.712
1788.34	0.713
1797.24	0.7141
1806.13	0.7165
1815.03	0.7229
1823.93	0.7294
1832.82	0.7354
1841.72	0.74
1850.61	0.74
1859.51	0.735
1868.41	0.734
1877.3	0.731
1886.2	0.731
1895.09	0.732
1903.99	0.743
1912.89	0.744
1921.78	0.744
1930.68	0.744
1939.57	0.743
1948.47	0.743
1957.36	0.743
1966.26	0.743
1975.16	0.7418
1984.05	0.74
1992.95	0.739
2001.84	0.739
2010.74	0.737
2019.64	0.736
2028.53	0.735
2037.43	0.732
2046.32	0.73
2055.22	0.7265
2064.12	0.7231
2073.01	0.72
2081.91	0.7156
2090.8	0.7115
2099.7	0.71
2108.6	0.708
2117.49	0.707
2126.39	0.705
2135.28	0.697
2144.18	0.6936
2153.08	0.691
2161.97	0.6901
2170.87	0.686
2179.76	0.6801
2188.66	0.674
2197.56	0.668
2206.45	0.6611
2215.35	0.6521
2224.24	0.646
2233.14	0.641
2242.04	0.6365
2250.93	0.6266
2259.83	0.6206
2268.72	0.616
2277.62	0.6106
2286.51	0.6006
2295.41	0.5896
2304.31	0.5836
2313.2	0.5726
2322.1	0.5555
2330.99	0.5451
2339.89	0.536
2348.79	0.5265
2357.68	0.521
2366.58	0.517
2375.47	0.512
2384.37	0.511
2393.27	0.5076
2402.16	0.5041
2411.06	0.5
2419.95	0.4935
2428.85	0.487
2437.75	0.482
2446.64	0.4761
2455.54	0.4696
2464.43	0.455
2473.33	0.4466
2482.23	0.4396
2491.12	0.434
2500.02	0.4306
2508.91	0.42
2517.81	0.4156
2526.71	0.4116
2535.6	0.4065
2544.5	0.403
2553.39	0.403
2562.29	0.405
2571.19	0.408
2580.08	0.413
2588.98	0.4126
2597.87	0.412
2606.77	0.411
2615.66	0.408
2624.56	0.4041
2633.46	0.4
2642.35	0.397
2651.25	0.394
2660.14	0.396
2669.04	0.4004
2677.94	0.4039
2686.83	0.408
2695.73	0.412
2704.62	0.4174
2713.52	0.422
2722.42	0.4264
2731.31	0.43
2740.21	0.4296
2749.1	0.4197
2758	0.411
2766.9	0.407
2775.79	0.408
2784.69	0.411
2793.58	0.4174
2802.48	0.4299
2811.38	0.4511
2820.27	0.4694
2829.17	0.4869
2838.06	0.5004
2846.96	0.5093
2855.86	0.5165
2864.75	0.518
2873.65	0.5141
2882.54	0.511
2891.44	0.5065
2900.34	0.5026
2909.23	0.4936
2918.13	0.4806
2927.02	0.4761
2935.92	0.477
2944.81	0.478
2953.71	0.481
2962.61	0.4884
2971.5	0.4983
2980.4	0.5148
2989.29	0.5296
2998.19	0.5434
3007.09	0.546
3015.98	0.545
3024.88	0.5381
3033.77	0.5315
3042.67	0.5136
3051.57	0.5016
3060.46	0.497
3069.36	0.5
3078.25	0.5039
3087.15	0.5164
3096.05	0.5355
3104.94	0.5463
3113.84	0.577
3122.73	0.6065
3131.63	0.611
3140.53	0.613
3149.42	0.613
3158.32	0.615
3167.21	0.615
3176.11	0.6139
3185.01	0.6189
3193.9	0.624
3202.8	0.625
3211.69	0.626
3220.59	0.624
3229.49	0.6216
3238.38	0.618
3247.28	0.617
3256.17	0.616
3265.07	0.613
3273.96	0.613
3282.86	0.6126
3291.76	0.611
3300.65	0.608
3309.55	0.6025
3318.44	0.598
3327.34	0.596
3336.24	0.592
3345.13	0.586
3354.03	0.57
3362.92	0.562
3371.82	0.5527
3380.72	0.5456
3389.61	0.5435
3398.51	0.5405
3407.4	0.536
3416.3	0.534
3425.2	0.534
3434.09	0.535
3442.99	0.5394
3451.88	0.5445
3460.78	0.546
3469.68	0.5469
3478.57	0.551
3487.47	0.555
3496.36	0.56
3505.26	0.5624
3514.16	0.568
3523.05	0.574
3531.95	0.581
3540.84	0.5875
3549.74	0.5934
3558.64	0.6014
3567.53	0.6089
3576.43	0.6205
3585.32	0.625
3594.22	0.6323
3603.11	0.6379
3612.01	0.643
3620.91	0.645
3629.8	0.6469
3638.7	0.65
3647.59	0.653
3656.49	0.6535
3665.39	0.654
3674.28	0.654
3683.18	0.654
3692.07	0.654
3700.97	0.653
3709.87	0.651
3718.76	0.651
3727.66	0.65
3736.55	0.649
3745.45	0.649
3754.35	0.649
3763.24	0.65
3772.14	0.65
3781.03	0.65
3789.93	0.653
3798.83	0.653
3807.72	0.65
3816.62	0.65
3825.51	0.65
3834.41	0.649
3843.31	0.648
3852.2	0.648
3861.1	0.646
3869.99	0.644
3878.89	0.641
3887.79	0.636
3896.68	0.636
3905.58	0.635
3914.47	0.635
3923.37	0.635
3932.26	0.636
3941.16	0.636
3950.06	0.636
3958.95	0.636
3967.85	0.635
3976.74	0.6356
3985.64	0.6395
3994.54	0.6444
4003.43	0.65
4012.33	0.651
