Infrared Spectrum: Butyl glycolate
Formula: C 6 H 12 O 3
CAS: 7397-62-8
State: gas
Instrument: HP-GC/MS/IRD
Origin: NIST Mass Spectrometry Data Center
1/CM	ABSORBANCE
550	0.0001632
562	3.4e-06
574	0.0001462
586	0.0005236
598	0.0003468
610	0.0005032
622	0.0005168
634	0.0004964
646	0.000391
658	0.000442
670	0.0004182
682	0.0007038
694	0.0007446
706	0.0009758
718	0.0009894
730	0.0010778
742	0.0010812
754	0.0010404
766	0.000748
778	0.0006902
790	0.0007344
802	0.0007174
814	0.0008874
826	0.0012444
838	0.0014722
850	0.0012716
862	0.0011016
874	0.0010914
886	0.0014348
898	0.0015708
910	0.0017034
922	0.0020706
934	0.0027302
946	0.0035088
958	0.0039644
970	0.0038148
982	0.003536
994	0.0036142
1006	0.0045832
1018	0.0055522
1030	0.005321
1042	0.0046308
1054	0.0050456
1066	0.0062424
1078	0.0058956
1090	0.0072488
1102	0.011951
1114	0.020757
1126	0.0309536
1138	0.034
1150	0.0271898
1162	0.0166158
1174	0.013923
1186	0.0185572
1198	0.0157522
1210	0.0101796
1222	0.0092242
1234	0.0099348
1246	0.0112948
1258	0.0124882
1270	0.013345
1282	0.0122604
1294	0.0084898
1306	0.0054468
1318	0.0035904
1330	0.0028934
1342	0.0030396
1354	0.0032742
1366	0.0029002
1378	0.0029784
1390	0.003417
1402	0.0030566
1414	0.0022882
1426	0.0023936
1438	0.003077
1450	0.0036312
1462	0.0043622
1474	0.0040324
1486	0.0024276
1498	0.001309
1510	0.0008058
1522	0.0006188
1534	0.0005372
1546	0.000459
1558	0.0004182
1570	0.0003944
1582	0.0003536
1594	0.0003876
1606	0.0003842
1618	0.0003706
1630	0.0003808
1642	0.0003944
1654	0.0004522
1666	0.0004964
1678	0.0006222
1690	0.000833
1702	0.0013804
1714	0.0023732
1726	0.0043214
1738	0.009707
1750	0.0195704
1762	0.0193528
1774	0.0180234
1786	0.0088978
1798	0.0036856
1810	0.0018802
1822	0.0011254
1834	0.0008296
1846	0.0005882
1858	0.0004658
1870	0.000374
1882	0.0003468
1894	0.0003196
1906	0.0002584
1918	0.0002346
1930	0.0002074
1942	0.0001802
1954	0.0002176
1966	0.0001734
1978	0.0001564
1990	0.000204
2002	0.0002312
2014	0.000221
2026	0.0002414
2038	0.0003196
2050	0.0002992
2062	0.000323
2074	0.0003094
2086	0.0002618
2098	0.0002788
2110	0.0002482
2122	0.0002482
2134	0.0002346
2146	0.0002448
2158	0.0002312
2170	0.000204
2182	0.0001564
2194	0.0001496
2206	0.0001326
2218	0.00017
2230	9.52e-05
2242	0.0001088
2254	0.0001292
2266	9.86e-05
2278	0.0001122
2290	9.18e-05
2302	0.0001632
2314	0.0001394
2326	0.000136
2338	0.0001564
2350	0.0001224
2362	0.0001224
2374	0.0001292
2386	0.0001326
2398	7.48e-05
2410	0.000153
2422	8.5e-05
2434	4.08e-05
2446	0.0001054
2458	7.14e-05
2470	0.0001054
2482	8.16e-05
2494	3.4e-05
2506	9.52e-05
2518	8.84e-05
2530	6.8e-05
2542	6.46e-05
2554	6.8e-05
2566	0.0001156
2578	0.0001224
2590	0.0001326
2602	0.0002142
2614	0.000187
2626	0.0002482
2638	0.000204
2650	0.000238
2662	0.0002822
2674	0.0003332
2686	0.000425
2698	0.0004794
2710	0.000561
2722	0.00068
2734	0.0007412
2746	0.0009418
2758	0.0010132
2770	0.0011356
2782	0.00119
2794	0.0013124
2806	0.0015912
2818	0.0020332
2830	0.00289
2842	0.0047158
2854	0.0076568
2866	0.0108596
2878	0.0142018
2890	0.0146132
2902	0.0134436
2914	0.0151028
2926	0.0176834
2938	0.0221578
2950	0.0242692
2962	0.0265064
2974	0.0249934
2986	0.0126718
2998	0.0060792
3010	0.003332
3022	0.0022236
3034	0.0015606
3046	0.0011764
3058	0.0008602
3070	0.0007106
3082	0.0006562
3094	0.0005168
3106	0.0005168
3118	0.0004522
3130	0.0004012
3142	0.0003604
3154	0.0003298
3166	0.0003604
3178	0.000306
3190	0.00034
3202	0.0002686
3214	0.0002278
3226	0.0002482
3238	0.0002108
3250	0.0001666
3262	0.000153
3274	0.0001564
3286	0.000136
3298	6.46e-05
3310	0.0001088
3322	0.0001258
3334	0.0002074
3346	0.0001292
3358	0.0001904
3370	0.0001088
3382	0.0001224
3394	0.000136
3406	0.0001224
3418	0.0001428
3430	0.0001734
3442	0.0001598
3454	0.0002244
3466	0.0002448
3478	0.0001972
3490	0.000255
3502	0.0003672
3514	0.0003026
3526	0.0002822
3538	0.0001564
3550	0.0001156
3562	0.000153
3574	9.86e-05
3586	0.0001598
3598	0.0001292
3610	8.5e-05
3622	0.0001938
3634	9.18e-05
3646	2.04e-05
3658	0.0001632
3670	0.0001258
3682	0.0001632
3694	0.0001428
3706	0.0001972
3718	0.0001632
3730	0.000136
3742	0.0001768
3754	0.0002278
3766	0.0001632
3778	0.0002856
3790	5.78e-05
3802	0.0001802
3814	0.0001564
3826	0.0001802
3838	0.0003128
