Infrared Spectrum: n-Octadecyltriethoxysilane
Formula: C 24 H 52 O 3 Si
CAS: 7399-00-0
State: gas
Origin: EPA-IR VAPOR PHASE LIBRARY
1/CM	ABSORBANCE
549.9	0.00178605
559.547	0.001554
569.193	0.001433
578.84	0.001232
588.486	0.001485
598.133	0.0016485
607.779	0.0019489
617.426	0.002414
627.072	0.0024374
636.719	0.0023221
646.365	0.0022824
656.012	0.0026418
665.658	0.00326
675.305	0.00375
684.951	0.00428
694.598	0.00526
704.245	0.0075
713.891	0.01157
723.538	0.01643
733.184	0.02281
742.831	0.02971
752.477	0.03651
762.124	0.04617
771.77	0.05535
781.417	0.06019
791.063	0.05429
800.71	0.03749
810.356	0.02323
820.003	0.01534
829.649	0.01094
839.296	0.00841
848.943	0.00691
858.589	0.00587
868.236	0.00532
877.882	0.00489
887.529	0.00495
897.175	0.00547
906.822	0.00692
916.468	0.01061
926.115	0.01966
935.761	0.03868
945.408	0.05946
955.054	0.06437
964.701	0.04209
974.347	0.02329
983.994	0.01537
993.64	0.01326
1003.29	0.01346
1012.93	0.01451
1022.58	0.01694
1032.23	0.02159
1041.87	0.0295
1051.52	0.04231
1061.17	0.06526
1070.81	0.10656
1080.46	0.14425
1090.11	0.12212
1099.75	0.13652
1109.4	0.21758
1119.05	0.22189
1128.69	0.16635
1138.34	0.1242
1147.99	0.09741
1157.63	0.07993
1167.28	0.06652
1176.92	0.05602
1186.57	0.0444
1196.22	0.03369
1205.86	0.02608
1215.51	0.02093
1225.16	0.01741
1234.8	0.01481
1244.45	0.01381
1254.1	0.01319
1263.74	0.01326
1273.39	0.01343
1283.04	0.01355
1292.68	0.01404
1302.33	0.01462
1311.98	0.01336
1321.62	0.01086
1331.27	0.01062
1340.92	0.01316
1350.56	0.01505
1360.21	0.01508
1369.86	0.01658
1379.5	0.01905
1389.15	0.02621
1398.79	0.02114
1408.44	0.01413
1418.09	0.01182
1427.73	0.01061
1437.38	0.01274
1447.03	0.01882
1456.67	0.02457
1466.32	0.02316
1475.97	0.01283
1485.61	0.00756
1495.26	0.00529
1504.91	0.00412
1514.55	0.00333
1524.2	0.00277
1533.85	0.0024413
1543.49	0.002069
1553.14	0.0018114
1562.79	0.0017921
1572.43	0.001561
1582.08	0.001524
1591.73	0.001396
1601.37	0.001374
1611.02	0.001222
1620.67	0.001219
1630.31	0.001209
1639.96	0.00107
1649.6	0.001044
1659.25	0.001149
1668.9	0.00119
1678.54	0.001167
1688.19	0.001352
1697.84	0.001376
1707.48	0.001517
1717.13	0.0016164
1726.78	0.0017974
1736.42	0.00176519
1746.07	0.0016356
1755.72	0.0016083
1765.36	0.001504
1775.01	0.001411
1784.66	0.001414
1794.3	0.001383
1803.95	0.001516
1813.6	0.001509
1823.24	0.0016775
1832.89	0.0018026
1842.54	0.0020205
1852.18	0.0022321
1861.83	0.002424
1871.47	0.0026153
1881.12	0.0026188
1890.77	0.00273
1900.41	0.0025506
1910.06	0.0022931
1919.71	0.0020199
1929.35	0.0016902
1939	0.001348
1948.65	0.001145
1958.29	0.000947
1967.94	0.000798
1977.59	0.000805
1987.23	0.000696
1996.88	0.000704
2006.53	0.00065
2016.17	0.000745
2025.82	0.00074
2035.47	0.000792
2045.11	0.000741
2054.76	0.000754
2064.41	0.00062
2074.05	0.00064
2083.7	0.00049
2093.35	0.00056
2102.99	0.00059
2112.64	0.00059
2122.28	0.00052
2131.93	0.00058
2141.58	0.00058
2151.22	0.00068
2160.87	0.000714
2170.52	0.000765
2180.16	0.000893
2189.81	0.000902
2199.46	0.000849
2209.1	0.000912
2218.75	0.000838
2228.4	0.000769
2238.04	0.000834
2247.69	0.000721
2257.34	0.000823
2266.98	0.000763
2276.63	0.0007
2286.28	0.000711
2295.92	0.000691
2305.57	0.000781
2315.22	0.000788
2324.86	0.000819
2334.51	0.000794
2344.16	0.00065
2353.8	0.00064
2363.45	0.00058
2373.09	0.0005
2382.74	0.00052
2392.39	0.00058
2402.03	0.00055
2411.68	0.00061
2421.33	0.0006
2430.97	0.000695
2440.62	0.000852
2450.27	0.000804
2459.91	0.000913
2469.56	0.000769
2479.21	0.000724
2488.85	0.000695
2498.5	0.00069
2508.15	0.000783
2517.79	0.000876
2527.44	0.000954
2537.09	0.000987
2546.73	0.001034
2556.38	0.001115
2566.03	0.001238
2575.67	0.001418
2585.32	0.001583
2594.96	0.00169973
2604.61	0.0020429
2614.26	0.0021615
2623.9	0.0025136
2633.55	0.0025707
2643.2	0.00288
2652.84	0.00296
2662.49	0.00322
2672.14	0.00347
2681.78	0.00366
2691.43	0.00374
2701.08	0.00379
2710.72	0.00401
2720.37	0.00476
2730.02	0.00536
2739.66	0.00608
2749.31	0.00636
2758.96	0.00671
2768.6	0.00729
2778.25	0.0079
2787.9	0.00869
2797.54	0.01037
2807.19	0.01243
2816.84	0.01544
2826.48	0.01985
2836.13	0.02756
2845.77	0.04747
2855.42	0.10661
2865.07	0.14067
2874.71	0.10643
2884.36	0.10028
2894.01	0.10776
2903.65	0.13096
2913.3	0.17719
2922.95	0.28352
2932.59	0.40269
2942.24	0.26328
2951.89	0.13835
2961.53	0.10566
2971.18	0.10744
2980.83	0.09279
2990.47	0.05687
3000.12	0.03687
3009.77	0.02467
3019.41	0.01688
3029.06	0.01216
3038.71	0.00901
3048.35	0.00697
3058	0.00542
3067.64	0.00429
3077.29	0.00371
3086.94	0.00325
3096.58	0.00293
3106.23	0.0024583
3115.88	0.0022546
3125.52	0.00196
3135.17	0.00178446
3144.82	0.0017957
3154.46	0.001475
3164.11	0.001299
3173.76	0.001364
3183.4	0.001096
3193.05	0.001204
3202.7	0.001227
3212.34	0.001066
3221.99	0.000954
3231.64	0.000778
3241.28	0.00069
3250.93	0.00067
3260.58	0.00031
3270.22	0.00033
3279.87	0.00055
3289.52	0.00021
3299.16	0.00037
3308.81	0.0001
3318.45	0.0004
3328.1	0.00013
3337.75	0.00025
3347.39	0.00044
3357.04	0.00051
3366.69	0.00043
3376.33	0.00047
3385.98	0.00042
3395.63	0.00036
3405.27	0.00031
3414.92	0.00036
3424.57	0.00026
3434.21	0.00048
3443.86	0.00029
3453.51	0.00013
3463.15	0.00027
3472.8	3e-05
3482.45	0.00015
3492.09	0.00017
3501.74	9e-05
3511.39	0.0001
3521.03	0.00028
3530.68	0.00024
3540.33	0.00034
3549.97	0.00044
3559.62	0.0001
3569.26	0.00018
3578.91	0.00031
3588.56	0.00039
3598.2	0.00042
3607.85	0.00049
3617.5	0.00066
3627.14	0.00047
3636.79	0.00075
3646.44	0.00033
3656.08	0.0006
3665.73	0.00055
3675.38	0.00064
3685.02	0.00051
3694.67	0.00053
3704.32	0.00066
3713.96	0.000695
3723.61	0.00055
3733.26	0.00062
3742.9	0.00054
3752.55	0.000735
3762.2	0.00066
3771.84	0.00074
3781.49	0.00064
3791.13	0.00065
3800.78	0.000762
3810.43	0.000698
3820.07	0.000705
3829.72	0.000695
3839.37	0.00064
3849.01	0.000735
3858.66	0.000762
3868.31	0.00072
3877.95	0.000894
3887.6	0.000922
3897.25	0.000835
3906.89	0.0008
3916.54	0.000784
3926.19	0.000713
3935.83	0.000957
3945.48	0.000822
3955.13	0.000896
3964.77	0.001021
3974.42	0.001123
3984.07	0.001186
3993.71	0.001229
