Infrared Spectrum: 1-Methyl-2-isopropenylbenzene
Formula: C 10 H 12
CAS: 7399-49-7
State: gas
Instrument: HP-GC/MS/IRD
Origin: NIST Mass Spectrometry Data Center
1/CM	ABSORBANCE
550	0.001272
562	0.000944
574	0.00066
586	0.000353
598	9.2e-05
610	4.1e-05
622	7.7e-05
634	9.9e-05
646	0.000132
658	0.00014
670	0.000245
682	0.000259
694	0.000266
706	0.001148
718	0.004076
730	0.007534
742	0.006703
754	0.006606
766	0.005602
778	0.002287
790	0.000642
802	0.000409
814	0.000315
826	0.00024
838	0.000266
850	0.000453
862	0.000724
874	0.000986
886	0.002999
898	0.007384
910	0.006418
922	0.001874
934	0.001138
946	0.000801
958	0.000434
970	0.000323
982	0.000283
994	0.000423
1006	0.000579
1018	0.000536
1030	0.00078
1042	0.0017
1054	0.001381
1066	0.000548
1078	0.000822
1090	0.00169
1102	0.001639
1114	0.000666
1126	0.000445
1138	0.000406
1150	0.000253
1162	0.00015
1174	0.000148
1186	0.000166
1198	0.000195
1210	0.000146
1222	0.000133
1234	0.000182
1246	0.000233
1258	0.000339
1270	0.000593
1282	0.000956
1294	0.001457
1306	0.001109
1318	0.000476
1330	0.000344
1342	0.000419
1354	0.000803
1366	0.002022
1378	0.002962
1390	0.001998
1402	0.001319
1414	0.001507
1426	0.002184
1438	0.003085
1450	0.003627
1462	0.003254
1474	0.003537
1486	0.004528
1498	0.003158
1510	0.001232
1522	0.000756
1534	0.000611
1546	0.000548
1558	0.000551
1570	0.000781
1582	0.001056
1594	0.001431
1606	0.001594
1618	0.001843
1630	0.00272
1642	0.00296
1654	0.001486
1666	0.000588
1678	0.000431
1690	0.000405
1702	0.000342
1714	0.000273
1726	0.000211
1738	0.000176
1750	0.000161
1762	0.000177
1774	0.000279
1786	0.00055
1798	0.00096
1810	0.001036
1822	0.000711
1834	0.000437
1846	0.000217
1858	0.0002
1870	0.000252
1882	0.000252
1894	0.000419
1906	0.000579
1918	0.000392
1930	0.000357
1942	0.000434
1954	0.000247
1966	8.6e-05
1978	5.4e-05
1990	4.5e-05
2002	3.2e-05
2014	3.8e-05
2026	3.8e-05
2038	1.6e-05
2050	2.4e-05
2062	4.3e-05
2074	4e-05
2086	5.2e-05
2098	3.6e-05
2110	4e-05
2122	2.4e-05
2134	3.5e-05
2146	3.9e-05
2158	3.4e-05
2170	2.4e-05
2182	5e-05
2194	5.6e-05
2206	4.2e-05
2218	4.1e-05
2230	3.5e-05
2242	4.7e-05
2254	5.5e-05
2266	6.3e-05
2278	8.1e-05
2290	0.000119
2302	0.000133
2314	0.000133
2326	0.000105
2338	6e-05
2350	4.5e-05
2362	3.7e-05
2374	8.3e-05
2386	8.5e-05
2398	9.1e-05
2410	9.4e-05
2422	8.8e-05
2434	8.2e-05
2446	8.7e-05
2458	7.5e-05
2470	8.5e-05
2482	7.6e-05
2494	5.4e-05
2506	6.4e-05
2518	4.8e-05
2530	5.3e-05
2542	6.9e-05
2554	7.8e-05
2566	8.7e-05
2578	7.9e-05
2590	6.9e-05
2602	5.5e-05
2614	5e-05
2626	1.2e-05
2638	9.3e-05
2650	6.5e-05
2662	5.1e-05
2674	8.8e-05
2686	9.5e-05
2698	0.000116
2710	0.000159
2722	0.000217
2734	0.000324
2746	0.000296
2758	0.000247
2770	0.000248
2782	0.000285
2794	0.000349
2806	0.000444
2818	0.000582
2830	0.000812
2842	0.001183
2854	0.001956
2866	0.002874
2878	0.003274
2890	0.003271
2902	0.003398
2914	0.00485
2926	0.007077
2938	0.007301
2950	0.006625
2962	0.006848
2974	0.007918
2986	0.006995
2998	0.005109
3010	0.005489
3022	0.00671
3034	0.005696
3046	0.004901
3058	0.007462
3070	0.009678
3082	0.009015
3094	0.005287
3106	0.00206
3118	0.001073
3130	0.000724
3142	0.000565
3154	0.000348
3166	0.000199
3178	0.000161
3190	0.00015
3202	0.000111
3214	0.000106
3226	4.1e-05
3238	4.3e-05
3250	5.4e-05
3262	4.7e-05
3274	4.8e-05
3286	1e-05
3298	2e-05
3310	5.3e-05
3322	3.7e-05
3334	3.3e-05
3346	6.1e-05
3358	5.9e-05
3370	4e-05
3382	2.2e-05
3394	4.4e-05
3406	4e-05
3418	6.1e-05
3430	5.9e-05
3442	7.4e-05
3454	3.1e-05
3466	1.2e-05
3478	6.3e-05
3490	6.5e-05
3502	3.8e-05
3514	4.8e-05
3526	6e-05
3538	2.6e-05
3550	6.4e-05
3562	1.7e-05
3574	6e-05
3586	6.1e-05
3598	4.6e-05
3610	3.7e-05
3622	4e-05
3634	2.8e-05
3646	2.8e-05
3658	1.9e-05
3670	5.8e-05
3682	7e-05
3694	6e-05
3706	2.3e-05
3718	2.3e-05
3730	3.1e-05
3742	2.2e-05
3754	5.1e-05
3766	6.5e-05
3778	7.8e-05
3790	8.3e-05
3802	6.2e-05
3814	3.2e-05
3826	3.8e-05
3838	6.9e-05
