Infrared Spectrum: N,N'-DIPHENYL P-PHENYLENE DIAMINE
Formula: C18 H16 N2
CAS: 74-31-7
State: SOLID (NUJOL MULL)
Melting point: 144 C
Class: COBLENTZ
Instrument: Not specified, most likely a prism, grating, or hybrid spectrometer.
Sampling: TRANSMISSION
Resolution: 4
Origin: PERKIN-ELMER CORP.
MICROMETERS	TRANSMITTANCE
2.026	0.483
2.05958	0.483
2.09315	0.488
2.12673	0.494
2.16031	0.501
2.19388	0.51
2.22746	0.508
2.26104	0.511
2.29461	0.518
2.32819	0.511
2.36176	0.516
2.39534	0.52
2.42892	0.523
2.46249	0.525
2.49607	0.531
2.52965	0.533
2.56322	0.537
2.5968	0.542
2.63038	0.547
2.66395	0.56
2.69753	0.569
2.73111	0.57
2.76468	0.575
2.79826	0.582
2.83183	0.587
2.86541	0.59
2.89899	0.59
2.93256	0.597
2.96614	0.56
2.99972	0.567
3.03329	0.574
3.06687	0.589
3.10045	0.597
3.13402	0.604
3.1676	0.601
3.20118	0.599
3.23475	0.601
3.26833	0.594
3.30191	0.58
3.33548	0.56
3.36906	0.447
3.40263	0.175
3.43621	0.101
3.46979	0.131
3.50336	0.149
3.53694	0.39
3.57052	0.575
3.60409	0.621
3.63767	0.648
3.67125	0.654
3.70482	0.654
3.7384	0.658
3.77198	0.658
3.80555	0.666
3.83913	0.675
3.8727	0.681
3.90628	0.688
3.93986	0.691
3.97343	0.695
4.00701	0.7
4.04059	0.703
4.07416	0.703
4.10774	0.707
4.14132	0.708
4.17489	0.715
4.20847	0.718
4.24205	0.722
4.27562	0.727
4.3092	0.73
4.34278	0.734
4.37635	0.739
4.40993	0.74
4.4435	0.744
4.47708	0.749
4.51066	0.757
4.54423	0.759
4.57781	0.76
4.61139	0.765
4.64496	0.767
4.67854	0.767
4.71212	0.769
4.74569	0.769
4.77927	0.774
4.81285	0.777
4.84642	0.779
4.88	0.777
4.91357	0.781
4.94715	0.784
4.98073	0.784
5.0143	0.789
5.04788	0.792
5.08146	0.792
5.11503	0.794
5.14861	0.794
5.18219	0.792
5.21576	0.801
5.24934	0.806
5.28292	0.803
5.31649	0.808
5.35007	0.803
5.38365	0.806
5.41722	0.809
5.4508	0.813
5.48437	0.819
5.51795	0.824
5.55153	0.823
5.5851	0.826
5.61868	0.823
5.65226	0.833
5.68583	0.831
5.71941	0.831
5.75299	0.833
5.78656	0.835
5.82014	0.833
5.85372	0.833
5.88729	0.841
5.92087	0.841
5.95444	0.846
5.98802	0.851
6.0216	0.853
6.05517	0.865
6.08875	0.86
6.12233	0.848
6.1559	0.845
6.18948	0.739
6.22306	0.523
6.25663	0.601
6.29021	0.693
6.32379	0.755
6.35736	0.791
6.39094	0.811
6.42452	0.813
6.45809	0.771
6.49167	0.508
6.52524	0.494
6.55882	0.533
6.5924	0.407
6.62597	0.444
6.65955	0.442
6.69313	0.434
6.7267	0.473
6.76028	0.484
6.79386	0.388
6.82743	0.333
6.86101	0.336
6.89459	0.442
6.92816	0.54
6.96174	0.659
6.99531	0.713
7.02889	0.735
7.06247	0.757
7.09604	0.765
7.12962	0.749
7.1632	0.734
7.19677	0.661
7.23035	0.579
7.26393	0.548
7.2975	0.671
7.33108	0.74
7.36466	0.757
7.39823	0.732
7.43181	0.668
7.46539	0.656
7.49896	0.654
7.53254	0.67
7.56611	0.601
7.59969	0.425
7.63327	0.456
7.66684	0.548
7.70042	0.626
7.734	0.659
7.76757	0.69
7.80115	0.708
7.83473	0.725
7.8683	0.732
7.90188	0.752
7.93546	0.76
7.96903	0.764
8.00261	0.767
8.03619	0.772
8.06976	0.777
8.10334	0.76
8.13691	0.651
8.17049	0.624
8.20407	0.695
8.23764	0.737
8.27122	0.757
8.3048	0.771
8.33837	0.779
8.37195	0.792
8.40553	0.796
8.4391	0.771
8.47268	0.621
8.50626	0.663
8.53983	0.725
8.57341	0.754
8.60698	0.759
8.64056	0.702
8.67414	0.757
8.70771	0.762
8.74129	0.779
8.77487	0.759
8.80844	0.767
8.84202	0.781
8.8756	0.792
8.90917	0.797
8.94275	0.799
8.97633	0.801
9.0099	0.809
9.04348	0.813
9.07706	0.814
9.11063	0.819
9.14421	0.823
9.17778	0.819
9.21136	0.811
9.24494	0.789
9.27851	0.799
9.31209	0.816
9.34567	0.819
9.37924	0.826
9.41282	0.829
9.4464	0.833
9.47997	0.835
9.51355	0.836
9.54713	0.835
9.5807	0.836
9.61428	0.838
9.64785	0.84
9.68143	0.836
9.71501	0.799
9.74858	0.772
9.78216	0.808
9.81574	0.824
9.84931	0.835
9.88289	0.84
9.91647	0.841
9.95004	0.845
9.98362	0.846
10.0172	0.841
10.0508	0.824
10.0843	0.836
10.1179	0.84
10.1515	0.84
10.1851	0.843
10.2187	0.843
10.2522	0.845
10.2858	0.841
10.3194	0.843
10.353	0.841
10.3865	0.84
10.4201	0.846
10.4537	0.85
10.4873	0.855
10.5208	0.853
10.5544	0.853
10.588	0.851
10.6216	0.851
10.6551	0.858
10.6887	0.858
10.7223	0.861
10.7559	0.861
10.7895	0.867
10.823	0.863
10.8566	0.863
10.8902	0.863
10.9238	0.867
10.9573	0.87
10.9909	0.87
11.0245	0.872
11.0581	0.872
11.0916	0.873
11.1252	0.873
11.1588	0.868
11.1924	0.86
11.2259	0.848
11.2595	0.846
11.2931	0.85
11.3267	0.856
11.3603	0.848
11.3938	0.769
11.4274	0.755
11.461	0.818
11.4946	0.841
11.5281	0.856
11.5617	0.858
11.5953	0.867
11.6289	0.868
11.6624	0.872
11.696	0.872
11.7296	0.868
11.7632	0.87
11.7967	0.867
11.8303	0.868
11.8639	0.868
11.8975	0.868
11.9311	0.86
11.9646	0.851
11.9982	0.833
12.0318	0.801
12.0654	0.776
12.0989	0.769
12.1325	0.72
12.1661	0.649
12.1997	0.643
12.2332	0.723
12.2668	0.774
12.3004	0.813
12.334	0.84
12.3675	0.851
12.4011	0.858
12.4347	0.867
12.4683	0.872
12.5019	0.872
12.5354	0.878
12.569	0.882
12.6026	0.88
12.6362	0.882
12.6697	0.88
12.7033	0.88
12.7369	0.88
12.7705	0.877
12.804	0.865
12.8376	0.845
12.8712	0.823
12.9048	0.796
12.9383	0.784
12.9719	0.786
13.0055	0.794
13.0391	0.804
13.0727	0.816
13.1062	0.818
13.1398	0.814
13.1734	0.803
13.207	0.777
13.2405	0.742
13.2741	0.702
13.3077	0.602
13.3413	0.531
13.3748	0.488
13.4084	0.496
13.442	0.498
13.4756	0.481
13.5091	0.543
13.5427	0.639
13.5763	0.695
13.6099	0.727
13.6435	0.747
13.677	0.764
13.7106	0.765
13.7442	0.777
13.7778	0.774
13.8113	0.777
13.8449	0.772
13.8785	0.772
13.9121	0.781
13.9456	0.792
13.9792	0.803
14.0128	0.808
14.0464	0.813
14.0799	0.814
14.1135	0.818
14.1471	0.819
14.1807	0.819
14.2143	0.814
14.2478	0.803
14.2814	0.771
14.315	0.705
14.3486	0.611
14.3821	0.562
14.4157	0.584
14.4493	0.639
14.4829	0.705
14.5164	0.735
14.55	0.757
14.5836	0.771
14.6172	0.769
14.6507	0.774
14.6843	0.776
14.7179	0.776
14.7515	0.776
14.7851	0.776
14.8186	0.772
14.8522	0.767
14.8858	0.764
14.9194	0.764
14.9529	0.759
14.9865	0.76
15.0201	0.762
15.0537	0.755
15.0872	0.75
15.1208	0.745
15.1544	0.74
15.188	0.737
