Infrared Spectrum: Dimethyl 3-thiaadipate
Formula: C 7 H 12 O 4 S
CAS: 7400-45-5
State: gas
Origin: EPA-IR VAPOR PHASE LIBRARY
1/CM	ABSORBANCE
549.8	0.00030744
559.445	0.0005258
569.09	0.0007833
578.734	0.001519
588.379	0.001709
598.024	0.0011653
607.669	0.0008118
617.313	0.000913
626.958	0.0010227
636.603	0.000872
646.248	0.0010703
655.893	0.0011852
665.537	0.001959
675.182	0.002059
684.827	0.001919
694.472	0.002219
704.116	0.002519
713.761	0.002149
723.406	0.001939
733.051	0.001529
742.695	0.001469
752.34	0.001649
761.985	0.001749
771.63	0.002029
781.275	0.001669
790.919	0.001869
800.564	0.002619
810.209	0.003679
819.854	0.004149
829.498	0.004199
839.143	0.003809
848.788	0.003069
858.433	0.003239
868.078	0.003069
877.722	0.003459
887.367	0.003719
897.012	0.003659
906.657	0.002729
916.301	0.001949
925.946	0.001789
935.591	0.001809
945.236	0.002049
954.88	0.002099
964.525	0.002429
974.17	0.004169
983.815	0.006229
993.46	0.007679
1003.1	0.011029
1012.75	0.016729
1022.39	0.017269
1032.04	0.012289
1041.68	0.008269
1051.33	0.005619
1060.97	0.004409
1070.62	0.004099
1080.26	0.004259
1089.91	0.005849
1099.55	0.009439
1109.2	0.016099
1118.84	0.028549
1128.49	0.043989
1138.13	0.050499
1147.78	0.052529
1157.42	0.050399
1167.07	0.045569
1176.71	0.040639
1186.36	0.036719
1196	0.037179
1205.64	0.039049
1215.29	0.041169
1224.93	0.041799
1234.58	0.042909
1244.22	0.047669
1253.87	0.048799
1263.51	0.048539
1273.16	0.050689
1282.8	0.047229
1292.45	0.036019
1302.09	0.024199
1311.74	0.015959
1321.38	0.012849
1331.03	0.013449
1340.67	0.015459
1350.32	0.017839
1359.96	0.016079
1369.61	0.009539
1379.25	0.005689
1388.9	0.004949
1398.54	0.005919
1408.18	0.008119
1417.83	0.010139
1427.47	0.013909
1437.12	0.023489
1446.76	0.017989
1456.41	0.008849
1466.05	0.006129
1475.7	0.004639
1485.34	0.003549
1494.99	0.002849
1504.63	0.002419
1514.28	0.002069
1523.92	0.001999
1533.57	0.002019
1543.21	0.002099
1552.86	0.002179
1562.5	0.002049
1572.15	0.001919
1581.79	0.001699
1591.44	0.001569
1601.08	0.001409
1610.73	0.0012581
1620.37	0.0011426
1630.01	0.0012359
1639.66	0.0011961
1649.3	0.001309
1658.95	0.001509
1668.59	0.001809
1678.24	0.002239
1687.88	0.003119
1697.53	0.004579
1707.17	0.007219
1716.82	0.012009
1726.46	0.020859
1736.11	0.037769
1745.75	0.066099
1755.4	0.097269
1765.04	0.094619
1774.69	0.058109
1784.33	0.030459
1793.98	0.014199
1803.62	0.006899
1813.27	0.003809
1822.91	0.002439
1832.55	0.001769
1842.2	0.001499
1851.84	0.0012782
1861.49	0.0011569
1871.13	0.0010388
1880.78	0.0009359
1890.42	0.0008703
1900.07	0.0008272
1909.71	0.0008169
1919.36	0.0008837
1929	0.0009229
1938.65	0.0009553
1948.29	0.0011305
1957.94	0.001309
1967.58	0.001379
1977.23	0.001349
1986.87	0.0012653
1996.52	0.001349
2006.16	0.001539
2015.81	0.001589
2025.45	0.001569
2035.1	0.001579
2044.74	0.001339
2054.38	0.001223
2064.03	0.0011969
2073.67	0.0011167
2083.32	0.0010287
2092.96	0.0009853
2102.61	0.0009231
2112.25	0.0008599
2121.9	0.0007998
2131.54	0.00078
2141.19	0.0007175
2150.83	0.0007201
2160.48	0.0006331
2170.12	0.000663
2179.77	0.0005906
2189.41	0.0004517
2199.06	0.0004665
2208.7	0.0003793
2218.35	0.00035295
2227.99	0.00037661
2237.64	0.0003943
2247.28	0.00037753
2256.92	0.0004536
2266.57	0.000425
2276.21	0.0004236
2285.86	0.0004294
2295.5	0.0004107
2305.15	0.0004799
2314.79	0.0004251
2324.44	0.0004105
2334.08	0.0004929
2343.73	0.0004942
2353.37	0.0004091
2363.02	0.0005365
2372.66	0.0004442
2382.31	0.0004898
2391.95	0.0004052
2401.6	0.0004994
2411.24	0.0005011
2420.89	0.00031428
2430.53	0.0004591
2440.18	0.0005059
2449.82	0.0003944
2459.47	0.0004259
2469.11	0.0004063
2478.75	0.00036812
2488.4	0.000259
2498.04	0.00037186
2507.69	0.00037817
2517.33	0.0002574
2526.98	0.00034163
2536.62	0.000287019
2546.27	0.00030008
2555.91	0.0003623
2565.56	0.0004023
2575.2	0.00032851
2584.85	0.00037456
2594.49	0.0003914
2604.14	0.0004137
2613.78	0.0004396
2623.43	0.0004328
2633.07	0.0004107
2642.72	0.0004516
2652.36	0.0004253
2662.01	0.000452
2671.65	0.00031966
2681.29	0.0002901
2690.94	0.00036346
2700.58	0.00031171
2710.23	0.0002105
2719.87	0.00033874
2729.52	0.00031639
2739.16	0.00031126
2748.81	0.0004054
2758.45	0.0003889
2768.1	0.000455
2777.74	0.0004855
2787.39	0.0005324
2797.03	0.0006929
2806.68	0.0007637
2816.32	0.0009445
2825.97	0.001519
2835.61	0.002299
2845.26	0.004079
2854.9	0.004149
2864.55	0.002609
2874.19	0.002289
2883.84	0.002479
2893.48	0.003549
2903.12	0.004799
2912.77	0.006299
2922.41	0.007709
2932.06	0.009949
2941.7	0.012559
2951.35	0.017949
2960.99	0.025779
2970.64	0.016309
2980.28	0.008729
2989.93	0.007479
2999.57	0.007619
3009.22	0.007099
3018.86	0.006089
3028.51	0.005499
3038.15	0.004589
3047.8	0.003329
3057.44	0.002509
3067.09	0.002119
3076.73	0.001879
3086.38	0.001759
3096.02	0.001649
3105.67	0.001369
3115.31	0.001329
3124.95	0.0010537
3134.6	0.0009807
3144.24	0.0006558
3153.89	0.0007779
3163.53	0.0006021
3173.18	0.000617
3182.82	0.000607
3192.47	0.0004267
3202.11	0.0004239
3211.76	0.00032203
3221.4	0.00029171
3231.05	0.0004234
3240.69	0.00036762
3250.34	0.00032724
3259.98	0.00031066
3269.63	0.0002294
3279.27	0.00035921
3288.92	0.0003838
3298.56	0.00027412
3308.21	0.00033831
3317.85	0.00030202
3327.49	0.00028361
3337.14	0.00031292
3346.78	0.00036739
3356.43	0.000194
3366.07	0.0001905
3375.72	0.0002125
3385.36	0.00037886
3395.01	0.0004333
3404.65	0.00029143
3414.3	0.0002333
3423.94	0.0001988
3433.59	0.00034392
3443.23	0.000467
3452.88	0.0004662
3462.52	0.0005213
3472.17	0.0005213
3481.81	0.0009639
3491.46	0.0012329
3501.1	0.0012463
3510.75	0.0010934
3520.39	0.0008737
3530.04	0.0005518
3539.68	0.0005165
3549.32	0.0004662
3558.97	0.0004477
3568.61	0.00031572
3578.26	0.0003979
3587.9	0.0002128
3597.55	0.0002486
3607.19	0.0002544
3616.84	0.00028964
3626.48	0.0002613
3636.13	0.0002071
3645.77	0.00037291
3655.42	7.2e-05
3665.06	0.00032856
3674.71	0.00032437
3684.35	0.0001976
3694	0.00027338
3703.64	0.00034646
3713.29	0.0002092
3722.93	0.0002013
3732.58	0.0002397
3742.22	0.0002334
3751.86	0.00030284
3761.51	0.0003345
3771.15	0.0002406
3780.8	0.00031065
3790.44	0.000104
3800.09	0.0002433
3809.73	0.00030426
3819.38	0.00035645
3829.02	0.0004798
3838.67	0.00032272
3848.31	0.00037488
3857.96	0.00037563
3867.6	0.000393
3877.25	0.00027392
3886.89	0.0004982
3896.54	0.0005488
3906.18	4.2e-05
3915.83	0.0002118
3925.47	0.00032804
3935.12	0.000288934
3944.76	0.0004387
3954.41	0.0002265
3964.05	0.00032729
3973.69	0.0004423
3983.34	0.00029623
3992.98	0.0005911
