Infrared Spectrum: THIAZOLINIUM, 3-METHYL-2-[2-(N-PHENYLACETAMIDO)VINYL]-2-IODIDE
Formula: C14 H17 I N2 O S
CAS: 74008-12-1
State: SOLID (SPLIT MULL), FLUOROLUBE FOR 3800-1330 CM^-^1, NUJOL FOR 1330-400 CM^-^1
Class: COBLENTZ III
Instrument: BECKMAN IR-9 (GRATING)
Instrument parameters: ORDER CHANGES: 670, 1200, 2000 CM^-^1
Sampling: TRANSMISSION
Resolution: 2
Origin: DOW CHEMICAL COMPANY
1/CM	TRANSMITTANCE
404	0.4938
413	0.5346
422	0.6173
431	0.6808
440	0.7251
449	0.7556
458	0.7754
467	0.7886
476	0.7997
485	0.8071
494	0.8095
503	0.7871
512	0.5906
521	0.8233
530	0.8275
539	0.8196
548	0.8256
557	0.8444
566	0.8449
575	0.8482
584	0.829
593	0.8153
602	0.7743
611	0.8458
620	0.8415
629	0.8315
638	0.8207
647	0.8087
656	0.7969
665	0.7761
674	0.7418
683	0.5245
692	0.5978
701	0.6954
710	0.6918
719	0.5684
728	0.5537
737	0.6143
746	0.6139
755	0.5423
764	0.1723
773	0.4302
782	0.6651
791	0.704
800	0.6998
809	0.6605
818	0.4405
827	0.5755
836	0.5238
845	0.5843
854	0.3909
863	0.7106
872	0.6961
881	0.664
890	0.6167
899	0.5115
908	0.6185
917	0.5806
926	0.4694
935	0.5518
944	0.3904
953	0.1837
962	0.5014
971	0.5434
980	0.5483
989	0.5412
998	0.4904
1007	0.4989
1016	0.4622
1025	0.5307
1034	0.5223
1043	0.5138
1052	0.5048
1061	0.4948
1070	0.4747
1079	0.4404
1088	0.4812
1097	0.4867
1106	0.4689
1115	0.4666
1124	0.4536
1133	0.44
1142	0.4212
1151	0.3978
1160	0.3625
1169	0.3518
1178	0.3375
1187	0.3173
1196	0.2741
1205	0.2443
1214	0.2774
1223	0.2259
1232	0.2484
1241	0.2121
1250	0.172
1259	0.0957
1268	0.2235
1277	0.2976
1286	0.1714
1295	0.0937
1304	0.0925
1313	0.1983
1322	0.1358
1331	0.5612
1340	0.4697
1349	0.5534
1358	0.7226
1367	0.7311
1376	0.7224
1385	0.7001
1394	0.7122
1403	0.7018
1412	0.6711
1421	0.622
1430	0.6795
1439	0.6336
1448	0.6619
1457	0.6608
1466	0.6595
1475	0.6582
1484	0.6143
1493	0.3984
1502	0.6129
1511	0.5752
1520	0.6561
1529	0.6407
1538	0.5868
1547	0.5159
1556	0.4194
1565	0.2474
1574	0.1993
1583	0.4343
1592	0.3534
1601	0.7461
1610	0.7003
1619	0.6894
1628	0.5979
1637	0.2801
1646	0.2654
1655	0.6722
1664	0.7806
1673	0.8224
1682	0.8302
1691	0.8252
1700	0.8193
1709	0.8128
1718	0.8153
1727	0.8184
1736	0.8174
1745	0.8118
1754	0.8058
1763	0.7995
1772	0.793
1781	0.7868
1790	0.7811
1799	0.7787
1808	0.7801
1817	0.7796
1826	0.7772
1835	0.7743
1844	0.7705
1853	0.7664
1862	0.7618
1871	0.7596
1880	0.7586
1889	0.7584
1898	0.7571
1907	0.7553
1916	0.753
1925	0.75
1934	0.7465
1943	0.7431
1952	0.7398
1961	0.738
1970	0.7361
1979	0.7326
1988	0.724
1997	0.7142
2006	0.7199
2015	0.7231
2024	0.7192
2033	0.7157
2042	0.7128
2051	0.71
2060	0.7071
2069	0.7042
2078	0.7012
2087	0.6983
2096	0.6953
2105	0.6921
2114	0.6892
2123	0.6862
2132	0.6839
2141	0.6808
2150	0.6778
2159	0.6715
2168	0.6672
2177	0.6633
2186	0.6601
2195	0.6574
2204	0.6546
2213	0.6515
2222	0.6486
2231	0.6445
2240	0.6401
2249	0.635
2258	0.6304
2267	0.626
2276	0.6224
2285	0.6197
2294	0.617
2303	0.6139
2312	0.6106
2321	0.6085
2330	0.6068
2339	0.6051
2348	0.6037
2357	0.6022
2366	0.601
2375	0.6016
2384	0.6046
2393	0.6071
2402	0.6076
2411	0.6062
2420	0.6051
2429	0.6034
2438	0.601
2447	0.5985
2456	0.5967
2465	0.5955
2474	0.5943
2483	0.5941
2492	0.5943
2501	0.5938
2510	0.5934
2519	0.5928
2528	0.5922
2537	0.5912
2546	0.5903
2555	0.5893
2564	0.5883
2573	0.5873
2582	0.586
2591	0.5848
2600	0.5836
2609	0.5823
2618	0.5807
2627	0.5788
2636	0.5769
2645	0.575
2654	0.5731
2663	0.571
2672	0.5691
2681	0.5671
2690	0.5651
2699	0.5626
2708	0.5598
2717	0.5568
2726	0.5539
2735	0.5507
2744	0.5473
2753	0.5438
2762	0.5397
2771	0.5342
2780	0.5322
2789	0.5326
2798	0.5312
2807	0.5282
2816	0.5239
2825	0.5182
2834	0.5105
2843	0.4981
2852	0.4902
2861	0.486
2870	0.4822
2879	0.479
2888	0.4762
2897	0.4744
2906	0.4696
2915	0.463
2924	0.4576
2933	0.4552
2942	0.4538
2951	0.4526
2960	0.4516
2969	0.4445
2978	0.431
2987	0.4265
2996	0.4188
3005	0.4187
3014	0.4507
3023	0.4541
3032	0.4404
3041	0.4377
3050	0.4412
3059	0.444
3068	0.4469
3077	0.4525
3086	0.4556
3095	0.4527
3104	0.4653
3113	0.4816
3122	0.4884
3131	0.4869
3140	0.4799
3149	0.4669
3158	0.4552
3167	0.4554
3176	0.472
3185	0.4952
3194	0.5027
3203	0.5058
3212	0.507
3221	0.5059
3230	0.5031
3239	0.4991
3248	0.4947
3257	0.4897
3266	0.4851
3275	0.4841
3284	0.4916
3293	0.4936
3302	0.4914
3311	0.4889
3320	0.4864
3329	0.4834
3338	0.4805
3347	0.4779
3356	0.4753
3365	0.4727
3374	0.4705
3383	0.4685
3392	0.4667
3401	0.4651
3410	0.464
3419	0.463
3428	0.4619
3437	0.4608
3446	0.4597
3455	0.4584
3464	0.4573
3473	0.4562
3482	0.4559
3491	0.4553
3500	0.4549
3509	0.4543
3518	0.4539
3527	0.4535
3536	0.4528
3545	0.452
3554	0.4512
3563	0.4494
3572	0.4468
3581	0.4453
3590	0.4443
3599	0.4438
3608	0.4434
3617	0.4429
3626	0.4428
3635	0.4427
3644	0.4425
3653	0.4416
3662	0.4407
3671	0.4398
3680	0.4388
3689	0.4378
3698	0.4367
3707	0.4354
3716	0.433
3725	0.4305
3734	0.4278
3743	0.4246
3752	0.4221
3761	0.4197
3770	0.4175
3779	0.4158
3788	0.4153
3797	0.4146
