Infrared Spectrum: Acetanilide, 2-tert-butyl-
Formula: C12 H17 N O
CAS: 7402-70-2
State: SOLID (NUJOL MULL)
Melting point: 165 C
Class: COBLENTZ III
Instrument: BECKMAN IR-4 (HYBRID PRISM-GRATING)
Instrument parameters: NaCl PRISM
Sampling: TRANSMISSION
Resolution: 2
Origin: MONSANTO (J. FREEMAN)
1/CM	TRANSMITTANCE
627.373	0.7537
636.163	0.7593
644.953	0.7504
653.742	0.722
662.532	0.7401
671.322	0.7223
680.112	0.6201
688.902	0.5362
697.691	0.5359
706.481	0.6822
715.271	0.7461
724.061	0.7477
732.85	0.8086
741.64	0.8261
750.43	0.6973
759.22	0.0532
768.01	0.8471
776.799	0.9277
785.589	0.9586
794.379	0.9689
803.169	0.9774
811.959	0.9831
820.748	0.9812
829.538	0.9772
838.328	0.9709
847.118	0.9674
855.907	0.96
864.697	0.9586
873.487	0.8874
882.277	0.9697
891.067	0.9639
899.856	0.9654
908.646	0.9644
917.436	0.9554
926.226	0.925
935.016	0.9071
943.805	0.6853
952.595	0.912
961.385	0.9144
970.175	0.8576
978.964	0.8565
987.754	0.9004
996.544	0.8964
1005.33	0.8537
1014.12	0.6907
1022.91	0.7701
1031.7	0.838
1040.49	0.8181
1049.28	0.7616
1058.07	0.861
1066.86	0.9014
1075.65	0.8954
1084.44	0.8626
1093.23	0.7597
1102.02	0.8909
1110.81	0.8908
1119.6	0.885
1128.39	0.8608
1137.18	0.8831
1145.97	0.8761
1154.76	0.8646
1163.55	0.8239
1172.34	0.875
1181.13	0.8812
1189.92	0.8717
1198.71	0.8221
1207.5	0.79
1216.29	0.8124
1225.08	0.813
1233.87	0.8238
1242.66	0.771
1251.45	0.7185
1260.24	0.6864
1269.03	0.6084
1277.82	0.3242
1286.61	0.4056
1295.4	0.2079
1304.19	0.5209
1312.98	0.647
1321.77	0.708
1330.56	0.7282
1339.35	0.7024
1348.14	0.6511
1356.93	0.5684
1365.72	0.2013
1374.5	0.1795
1383.29	0.4038
1392.08	0.5873
1400.87	0.6304
1409.66	0.6944
1418.45	0.6439
1427.24	0.5218
1436.03	0.2617
1444.82	0.1754
1453.61	0.2211
1462.4	0.1732
1471.19	0.2508
1479.98	0.399
1488.77	0.3156
1497.56	0.52
1506.35	0.4366
1515.14	0.2459
1523.93	0.1204
1532.72	0.0715
1541.51	0.2817
1550.3	0.5311
1559.09	0.6219
1567.88	0.6731
1576.67	0.5585
1585.46	0.7557
1594.25	0.7505
1603.04	0.6448
1611.83	0.6857
1620.62	0.4431
1629.41	0.2763
1638.2	0.0702
1646.99	0.0162
1655.78	0.0434
1664.57	0.2686
1673.36	0.593
1682.15	0.8174
1690.94	0.8728
1699.73	0.9018
1708.52	0.9254
1717.31	0.9398
1726.1	0.9408
1734.89	0.9502
1743.68	0.9617
1752.47	0.9668
1761.26	0.9662
1770.05	0.9643
1778.84	0.9626
1787.62	0.961
1796.41	0.9593
1805.2	0.9568
1813.99	0.956
1822.78	0.9583
1831.57	0.961
1840.36	0.9575
1849.15	0.9567
1857.94	0.9577
1866.73	0.9626
1875.52	0.9686
1884.31	0.9666
1893.1	0.9609
1901.89	0.96
1910.68	0.9597
1919.47	0.9437
1928.26	0.9397
1937.05	0.9567
1945.84	0.9547
1954.63	0.944
1963.42	0.9361
1972.21	0.962
1981	0.9612
1989.79	0.96
1998.58	0.9592
2007.37	0.9584
2016.16	0.9582
2024.95	0.958
2033.74	0.9579
2042.53	0.9572
2051.32	0.9564
2060.11	0.9556
2068.9	0.9549
2077.69	0.954
2086.48	0.9528
2095.27	0.9516
2104.06	0.9504
2112.85	0.9492
2121.64	0.9479
2130.43	0.9465
2139.22	0.9451
2148.01	0.9437
2156.8	0.9419
2165.59	0.9402
2174.38	0.9385
2183.17	0.9368
2191.96	0.9352
2200.74	0.9335
2209.53	0.932
2218.32	0.9304
2227.11	0.9288
2235.9	0.9273
2244.69	0.9257
2253.48	0.9242
2262.27	0.9226
2271.06	0.9212
2279.85	0.9196
2288.64	0.9186
2297.43	0.9178
2306.22	0.9169
2315.01	0.9165
2323.8	0.9164
2332.59	0.9164
2341.38	0.9162
2350.17	0.9161
2358.96	0.9159
2367.75	0.9155
2376.54	0.9111
2385.33	0.9037
2394.12	0.899
2402.91	0.8954
2411.7	0.8954
2420.49	0.8953
2429.28	0.8952
2438.07	0.895
2446.86	0.8949
2455.65	0.8947
2464.44	0.894
2473.23	0.8925
2482.02	0.8911
2490.81	0.8897
2499.6	0.8882
2508.39	0.8861
2517.18	0.8839
2525.97	0.8818
2534.76	0.8798
2543.55	0.8769
2552.34	0.874
2561.13	0.8712
2569.92	0.8684
2578.71	0.8656
2587.5	0.8621
2596.29	0.8586
2605.08	0.8551
2613.86	0.8516
2622.65	0.8479
2631.44	0.8442
2640.23	0.8405
2649.02	0.8367
2657.81	0.8327
2666.6	0.8287
2675.39	0.8248
2684.18	0.8208
2692.97	0.8169
2701.76	0.8134
2710.55	0.81
2719.34	0.8051
2728.13	0.7977
2736.92	0.7881
2745.71	0.7864
2754.5	0.7849
2763.29	0.7846
2772.08	0.7791
2780.87	0.754
2789.66	0.7251
2798.45	0.6809
2807.24	0.6533
2816.03	0.6261
2824.82	0.5829
2833.61	0.5259
2842.4	0.482
2851.19	0.1462
2859.98	0.0262
2868.77	0.0458
2877.56	0.0518
2886.35	0.0497
2895.14	0.0467
2903.93	0.0406
2912.72	0.0009
2921.51	0.0007
2930.3	0.0007
2939.09	0.0008
2947.88	0.0008
2956.67	0.0008
2965.46	0.0282
2974.25	0.0793
2983.04	0.1301
2991.83	0.1806
3000.62	0.2309
3009.41	0.2808
3018.2	0.3303
3026.98	0.3797
3035.77	0.4288
3044.56	0.4588
3053.35	0.47
3062.14	0.4802
3070.93	0.4949
3079.72	0.553
3088.51	0.5841
3097.3	0.589
3106.09	0.5894
3114.88	0.588
3123.67	0.5663
3132.46	0.5405
3141.25	0.5148
3150.04	0.4892
3158.83	0.4639
3167.62	0.4387
3176.41	0.4136
3185.2	0.3886
3193.99	0.3651
3202.78	0.3522
3211.57	0.2874
3220.36	0.2206
3229.15	0.1542
3237.94	0.1277
3246.73	0.1844
3255.52	0.2538
3264.31	0.3229
3273.1	0.3916
3281.89	0.4599
3290.68	0.5279
3299.47	0.5903
3308.26	0.6093
3317.05	0.6291
3325.84	0.6662
3334.63	0.6885
3343.42	0.7004
3352.21	0.7152
3361	0.7358
3369.79	0.7559
3378.58	0.7634
3387.37	0.7703
3396.16	0.775
3404.95	0.7786
3413.74	0.7818
3422.53	0.784
3431.32	0.7858
3440.1	0.7878
3448.89	0.7896
3457.68	0.7906
3466.47	0.7913
3475.26	0.7919
3484.05	0.7925
3492.84	0.793
3501.63	0.7925
3510.42	0.7922
3519.21	0.7917
3528	0.7915
3536.79	0.7918
3545.58	0.7924
3554.37	0.7928
3563.16	0.7933
3571.95	0.7939
3580.74	0.7947
3589.53	0.7955
3598.32	0.7961
3607.11	0.7969
3615.9	0.7977
3624.69	0.7983
3633.48	0.7987
3642.27	0.7991
3651.06	0.7994
3659.85	0.7998
3668.64	0.8003
3677.43	0.8006
3686.22	0.8008
3695.01	0.8008
3703.8	0.8008
3712.59	0.8007
3721.38	0.8007
3730.17	0.8007
3738.96	0.8007
3747.75	0.8007
3756.54	0.8006
3765.33	0.8004
3774.12	0.7998
3782.91	0.7992
3791.7	0.7986
3800.49	0.798
3809.28	0.7973
3818.07	0.7962
3826.86	0.7949
3835.65	0.7938
3844.44	0.7927
3853.22	0.7915
3862.01	0.7904
3870.8	0.7893
3879.59	0.7881
3888.38	0.7869
3897.17	0.7855
3905.96	0.7841
3914.75	0.7828
