Infrared Spectrum: Citraconic acid
Formula: C5 H6 O4
CAS: 7407-59-2
State: SOLID (SPLIT MULL), FLUOROLUBE FOR 3800-1330 CM^-^1, NUJOL FOR 1330-400 CM^-^1
Class: COBLENTZ III
Instrument: DOW KBr FOREPRISM-GRATING
Instrument parameters: BLAZED AT 3.5, 12.0, 20.0 MICRON AND CHANGED AT 5.0, 7.5, 14.9 MICRON
Sampling: TRANSMISSION
Resolution: 2
Origin: DOW CHEMICAL COMPANY
1/CM	TRANSMITTANCE
3800	0.7472
3791	0.7507
3782	0.7551
3773	0.7575
3764	0.7594
3755	0.761
3746	0.7661
3737	0.766
3728	0.7651
3719	0.7648
3710	0.7644
3701	0.7634
3692	0.7617
3683	0.7611
3674	0.7651
3665	0.7651
3656	0.7633
3647	0.7614
3638	0.7596
3629	0.7575
3620	0.7554
3611	0.7533
3602	0.7514
3593	0.7495
3584	0.7476
3575	0.746
3566	0.7448
3557	0.7436
3548	0.7426
3539	0.7424
3530	0.7421
3521	0.7417
3512	0.7414
3503	0.7412
3494	0.7412
3485	0.7412
3476	0.7411
3467	0.741
3458	0.7406
3449	0.7401
3440	0.7396
3431	0.7389
3422	0.738
3413	0.7337
3404	0.731
3395	0.7275
3386	0.7249
3377	0.7219
3368	0.719
3359	0.7139
3350	0.7082
3341	0.7024
3332	0.6964
3323	0.6888
3314	0.679
3305	0.6665
3296	0.6501
3287	0.6314
3278	0.6132
3269	0.5966
3260	0.5804
3251	0.5666
3242	0.5528
3233	0.5372
3224	0.525
3215	0.5136
3206	0.5014
3197	0.486
3188	0.4707
3179	0.457
3170	0.4433
3161	0.4291
3152	0.4153
3143	0.4009
3134	0.3891
3125	0.3782
3116	0.3658
3107	0.3525
3098	0.3416
3089	0.332
3080	0.3246
3071	0.316
3062	0.3077
3053	0.3052
3044	0.3069
3035	0.3087
3026	0.3091
3017	0.3082
3008	0.307
2999	0.302
2990	0.2996
2981	0.3034
2972	0.3025
2963	0.3002
2954	0.3007
2945	0.3034
2936	0.3049
2927	0.3042
2918	0.3008
2909	0.2981
2900	0.2968
2891	0.2966
2882	0.2963
2873	0.2959
2864	0.2951
2855	0.295
2846	0.2946
2837	0.3021
2828	0.3098
2819	0.3179
2810	0.3266
2801	0.3354
2792	0.3444
2783	0.3538
2774	0.3638
2765	0.3782
2756	0.3862
2747	0.3864
2738	0.3839
2729	0.3794
2720	0.3766
2711	0.3754
2702	0.375
2693	0.3764
2684	0.3772
2675	0.3788
2666	0.3797
2657	0.3821
2648	0.3845
2639	0.3934
2630	0.4018
2621	0.4074
2612	0.3902
2603	0.3732
2594	0.3599
2585	0.346
2576	0.3366
2567	0.3339
2558	0.3356
2549	0.3409
2540	0.352
2531	0.3684
2522	0.3858
2513	0.3992
2504	0.408
2495	0.4119
2486	0.4134
2477	0.4203
2468	0.4314
2459	0.4438
2450	0.4543
2441	0.4646
2432	0.4753
2423	0.4867
2414	0.4989
2405	0.511
2396	0.5236
2387	0.5365
2378	0.538
2369	0.5385
2360	0.5388
2351	0.5414
2342	0.5465
2333	0.5531
2324	0.5764
2315	0.5845
2306	0.589
2297	0.5941
2288	0.5993
2279	0.605
2270	0.6106
2261	0.616
2252	0.6216
2243	0.6271
2234	0.6349
2225	0.6434
2216	0.6551
2207	0.6672
2198	0.6707
2189	0.6736
2180	0.6762
2171	0.6808
2162	0.6858
2153	0.6915
2144	0.6981
2135	0.7044
2126	0.709
2117	0.7131
2108	0.7161
2099	0.7193
2090	0.7214
2081	0.7224
2072	0.7231
2063	0.725
2054	0.7288
2045	0.7339
2036	0.7407
2027	0.7418
2018	0.7376
2009	0.7328
2000	0.7336
1991	0.7254
1982	0.7362
1973	0.7393
1964	0.7405
1955	0.7495
1946	0.7493
1937	0.7508
1928	0.7518
1919	0.754
1910	0.7562
1901	0.758
1892	0.7601
1883	0.7594
1874	0.7508
1865	0.7528
1856	0.7556
1847	0.7571
1838	0.7595
1829	0.7603
1820	0.7568
1811	0.7511
1802	0.7439
1793	0.7303
1784	0.7065
1775	0.6739
1766	0.6544
1757	0.6043
1748	0.4496
1739	0.3577
1730	0.2174
1721	0.1272
1712	0.079
1703	0.0563
1694	0.0532
1685	0.0804
1676	0.1337
1667	0.1744
1658	0.1943
1649	0.196
1640	0.1783
1631	0.2119
1622	0.3223
1613	0.406
1604	0.459
1595	0.4982
1586	0.5354
1577	0.568
1568	0.593
1559	0.617
1550	0.6411
1541	0.6651
1532	0.6696
1523	0.6778
1514	0.6908
1505	0.7051
1496	0.7082
1487	0.7071
1478	0.7118
1469	0.676
1460	0.378
1451	0.233
1442	0.2178
1433	0.2419
1424	0.4571
1415	0.4525
1406	0.4558
1397	0.538
1388	0.5928
1379	0.6262
1370	0.6567
1361	0.6595
1352	0.6144
1343	0.4883
1334	0.4416
1325	0.4516
1316	0.3189
1307	0.4272
1298	0.4776
1289	0.4291
1280	0.433
1271	0.4842
1262	0.448
1253	0.335
1244	0.3033
1235	0.3294
1226	0.285
1217	0.3474
1208	0.4432
1199	0.5112
1190	0.5757
1181	0.6362
1172	0.6639
1163	0.6951
1154	0.7055
1145	0.7151
1136	0.6451
1127	0.6741
1118	0.7321
1109	0.7505
1100	0.7569
1091	0.7582
1082	0.759
1073	0.7601
1064	0.761
1055	0.7604
1046	0.7462
1037	0.7037
1028	0.5465
1019	0.7258
1010	0.7461
1001	0.7496
992	0.7492
983	0.7419
974	0.7271
965	0.7036
956	0.6568
947	0.5993
938	0.4934
929	0.4457
920	0.47
911	0.5277
902	0.5422
893	0.5093
884	0.5149
875	0.539
866	0.5796
857	0.6146
848	0.6567
839	0.6988
830	0.7226
821	0.7019
812	0.7412
803	0.7678
794	0.7826
785	0.7853
776	0.776
767	0.7414
758	0.7899
749	0.803
740	0.8049
731	0.8025
722	0.7806
713	0.7658
704	0.7192
695	0.7561
686	0.8204
677	0.8434
668	0.8517
659	0.8458
650	0.8471
641	0.8401
632	0.8157
623	0.6917
614	0.621
605	0.7238
596	0.6751
587	0.7687
578	0.8053
569	0.806
560	0.8038
551	0.7999
542	0.7978
533	0.7957
524	0.7928
515	0.7892
506	0.7842
497	0.7776
488	0.6887
479	0.6911
470	0.7367
461	0.7518
452	0.7395
443	0.7221
434	0.7058
425	0.6945
416	0.6854
407	0.678
398	0.6705
389	0.6641
