Infrared Spectrum: 2-NORBORNANOL, 3-[(BENZYLMETHYLAMINO)METHYL]-
Formula: C16 H23 N O
CAS: 74111-27-6
State: SOLUTION (10% CCl4 FOR 3800-1330, 10% CS2 FOR 1330-460 CM^-^1)
Melting point: 65 C
Class: COBLENTZ III
Instrument: DOW KBr FOREPRISM-GRATING
Instrument parameters: BLAZED AT 3.5, 12.0, 20.0 MICRON AND CHANGED AT 5.0, 7.5, 14.9 MICRON
Sampling: TRANSMISSION
Path length: 0.010 CM, 0.010 CM
Resolution: 2
Origin: DOW CHEMICAL COMPANY
1/CM	TRANSMITTANCE
463	0.7047
472	0.709
481	0.7121
490	0.7184
499	0.7468
508	0.7675
517	0.7661
526	0.7576
535	0.7484
544	0.7592
553	0.7461
562	0.7367
571	0.7342
580	0.7635
589	0.7847
598	0.7886
607	0.7815
616	0.7056
625	0.7432
634	0.7764
643	0.7701
652	0.7537
661	0.7626
670	0.7721
679	0.803
688	0.7638
697	0.2677
706	0.536
715	0.7646
724	0.7426
733	0.3766
742	0.2303
751	0.575
760	0.7635
769	0.7806
778	0.8525
787	0.8596
796	0.8524
805	0.8128
814	0.7625
823	0.7362
832	0.7104
841	0.63
850	0.5159
859	0.6789
868	0.6984
877	0.7321
886	0.8018
895	0.8165
904	0.8036
913	0.7588
922	0.778
931	0.8318
940	0.8197
949	0.7571
958	0.7905
967	0.7153
976	0.7061
985	0.7254
994	0.6872
1003	0.6799
1012	0.6204
1021	0.5312
1030	0.3
1039	0.2885
1048	0.2449
1057	0.3947
1066	0.4619
1075	0.4351
1084	0.6661
1093	0.7083
1102	0.7865
1111	0.7734
1120	0.6072
1129	0.5592
1138	0.5836
1147	0.6293
1156	0.5999
1165	0.5034
1174	0.6933
1183	0.6871
1192	0.6571
1201	0.6698
1210	0.6935
1219	0.715
1228	0.6984
1237	0.6206
1246	0.6162
1255	0.5601
1264	0.651
1273	0.6522
1282	0.6224
1291	0.5246
1300	0.5481
1309	0.5875
1318	0.5633
1327	0.5648
1336	0.5876
1345	0.5571
1354	0.5479
1363	0.5795
1372	0.5818
1381	0.6764
1390	0.6887
1399	0.7417
1408	0.7715
1417	0.77
1426	0.7141
1435	0.7561
1444	0.6912
1453	0.4062
1462	0.3374
1471	0.536
1480	0.6134
1489	0.7474
1498	0.4684
1507	0.7108
1516	0.6893
1525	0.6548
1534	0.6082
1543	0.5238
1552	0.4725
1561	0.5087
1570	0.5795
1579	0.6166
1588	0.6128
1597	0.6928
1606	0.6845
1615	0.8262
1624	0.8485
1633	0.8568
1642	0.8582
1651	0.8555
1660	0.8488
1669	0.8199
1678	0.7919
1687	0.779
1696	0.8155
1705	0.8521
1714	0.8732
1723	0.8833
1732	0.8821
1741	0.8798
1750	0.8771
1759	0.8777
1768	0.8848
1777	0.8856
1786	0.8865
1795	0.8821
1804	0.8575
1813	0.8575
1822	0.8671
1831	0.8741
1840	0.8784
1849	0.8763
1858	0.8717
1867	0.8644
1876	0.856
1885	0.8627
1894	0.87
1903	0.8775
1912	0.8825
1921	0.8835
1930	0.8782
1939	0.8602
1948	0.8407
1957	0.8621
1966	0.8614
1975	0.8761
1984	0.8744
1993	0.8687
2002	0.8728
2011	0.8807
2020	0.8821
2029	0.8825
2038	0.8843
2047	0.8846
2056	0.8849
2065	0.8854
2074	0.8859
2083	0.8863
2092	0.8865
2101	0.8867
2110	0.8868
2119	0.8871
2128	0.8873
2137	0.8875
2146	0.8874
2155	0.8873
2164	0.8871
2173	0.8871
2182	0.8871
2191	0.8871
2200	0.8873
2209	0.8874
2218	0.8871
2227	0.8867
2236	0.8861
2245	0.884
2254	0.8811
2263	0.8786
2272	0.8765
2281	0.8748
2290	0.8735
2299	0.8731
2308	0.8761
2317	0.8805
2326	0.891
2335	0.8942
2344	0.8946
2353	0.8942
2362	0.8935
2371	0.8925
2380	0.8915
2389	0.8901
2398	0.8887
2407	0.8873
2416	0.8859
2425	0.8846
2434	0.8835
2443	0.8823
2452	0.8811
2461	0.8798
2470	0.8785
2479	0.877
2488	0.8756
2497	0.8744
2506	0.8736
2515	0.8728
2524	0.8713
2533	0.8693
2542	0.8673
2551	0.8649
2560	0.8621
2569	0.8594
2578	0.8561
2587	0.8527
2596	0.8493
2605	0.845
2614	0.8402
2623	0.8351
2632	0.8285
2641	0.8217
2650	0.8135
2659	0.8051
2668	0.7938
2677	0.7808
2686	0.7645
2695	0.7438
2704	0.7071
2713	0.6878
2722	0.6924
2731	0.6915
2740	0.6721
2749	0.617
2758	0.5522
2767	0.4893
2776	0.4042
2785	0.2709
2794	0.2255
2803	0.2548
2812	0.3499
2821	0.4449
2830	0.487
2839	0.4345
2848	0.3675
2857	0.4229
2866	0.3525
2875	0.1782
2884	0.2223
2893	0.3607
2902	0.39
2911	0.311
2920	0.2764
2929	0.2129
2938	0.1342
2947	0.0573
2956	0.0387
2965	0.0679
2974	0.1691
2983	0.2974
2992	0.4258
3001	0.5542
3010	0.6324
3019	0.6706
3028	0.6504
3037	0.4869
3046	0.5994
3055	0.6774
3064	0.621
3073	0.5686
3082	0.6525
3091	0.625
3100	0.6578
3109	0.7058
3118	0.7155
3127	0.7241
3136	0.7242
3145	0.7211
3154	0.718
3163	0.715
3172	0.7119
3181	0.7094
3190	0.7068
3199	0.7044
3208	0.7018
3217	0.6993
3226	0.696
3235	0.6926
3244	0.6892
3253	0.6856
3262	0.6819
3271	0.6783
3280	0.6746
3289	0.6707
3298	0.6658
3307	0.6611
3316	0.6564
3325	0.6508
3334	0.6449
3343	0.639
3352	0.6324
3361	0.6256
3370	0.6188
3379	0.6117
3388	0.6044
3397	0.5971
3406	0.592
3415	0.59
3424	0.5908
3433	0.5951
3442	0.605
3451	0.6162
3460	0.6287
3469	0.6434
3478	0.6585
3487	0.6751
3496	0.6961
3505	0.7176
3514	0.7362
3523	0.7534
3532	0.7703
3541	0.7865
3550	0.8028
3559	0.8122
3568	0.8121
3577	0.804
3586	0.8045
3595	0.7914
3604	0.7575
3613	0.6961
3622	0.6978
3631	0.7689
3640	0.8508
3649	0.8625
3658	0.8651
3667	0.87
3676	0.8685
3685	0.8684
3694	0.8693
3703	0.8717
3712	0.8763
3721	0.8838
3730	0.887
3739	0.8857
3748	0.8802
3757	0.8762
3766	0.8745
3775	0.875
3784	0.8817
3793	0.8873
