Infrared Spectrum: Molindone
Formula: C 16 H 24 N 2 O 2
CAS: 7416-34-4
State: gas
Instrument: HP-GC/MS/IRD
Origin: NIST Mass Spectrometry Data Center
1/CM	ABSORBANCE
550	0.0004152
562	0.0003296
574	0.000328
586	0.0003048
598	0.0002608
610	0.0003704
622	0.0005344
634	0.0003384
646	0.0001864
658	9.44e-05
670	8.24e-05
682	7.92e-05
694	0.000172
706	0.0001096
718	0.0001704
730	0.000192
742	0.0003448
754	0.000388
766	0.000404
778	0.0002464
790	0.0003632
802	0.000796
814	0.0004368
826	0.0002256
838	0.000212
850	0.0002952
862	0.000748
874	0.0011128
886	0.000616
898	0.0006784
910	0.0006
922	0.0006896
934	0.0009608
946	0.001536
958	0.0017248
970	0.001592
982	0.0011264
994	0.0010592
1006	0.0014568
1018	0.0012464
1030	0.0010944
1042	0.000704
1054	0.0008368
1066	0.0010616
1078	0.0008112
1090	0.0007872
1102	0.0012296
1114	0.0025464
1126	0.0037744
1138	0.0027872
1150	0.001432
1162	0.000772
1174	0.0005224
1186	0.0004464
1198	0.0004064
1210	0.0004856
1222	0.0004296
1234	0.000468
1246	0.0005056
1258	0.0005672
1270	0.0009416
1282	0.0011968
1294	0.00098
1306	0.0007168
1318	0.000712
1330	0.0009128
1342	0.000952
1354	0.001692
1366	0.0019352
1378	0.0010592
1390	0.0009216
1402	0.00062
1414	0.0006528
1426	0.0012816
1438	0.0035656
1450	0.0038504
1462	0.0045528
1474	0.003016
1486	0.0009648
1498	0.000504
1510	0.0004496
1522	0.000628
1534	0.000948
1546	0.0004936
1558	0.0002056
1570	0.0002032
1582	0.0002304
1594	0.0003768
1606	0.0004352
1618	0.0004912
1630	0.0005696
1642	0.00064
1654	0.0011176
1666	0.003396
1678	0.008
1690	0.003364
1702	0.000908
1714	0.0004
1726	0.0002432
1738	0.0001536
1750	0.0001456
1762	0.0001184
1774	7.6e-05
1786	9.52e-05
1798	8.08e-05
1810	5.92e-05
1822	5.44e-05
1834	6.8e-05
1846	6.16e-05
1858	9.68e-05
1870	8.32e-05
1882	4.88e-05
1894	7.52e-05
1906	6.4e-05
1918	5.84e-05
1930	8.24e-05
1942	7.52e-05
1954	7.52e-05
1966	7.6e-05
1978	5.44e-05
1990	8.88e-05
2002	7.84e-05
2014	5.6e-05
2026	3.44e-05
2038	4.24e-05
2050	5.36e-05
2062	3.6e-05
2074	5.36e-05
2086	4.16e-05
2098	4e-05
2110	5.2e-05
2122	6.32e-05
2134	6.08e-05
2146	2.48e-05
2158	4.96e-05
2170	5.76e-05
2182	5.84e-05
2194	5.36e-05
2206	2.8e-05
2218	2.8e-05
2230	5.92e-05
2242	7.92e-05
2254	5.2e-05
2266	7.36e-05
2278	7.12e-05
2290	4.96e-05
2302	6.72e-05
2314	4.88e-05
2326	4.48e-05
2338	2.8e-05
2350	3.52e-05
2362	2.96e-05
2374	5.36e-05
2386	5.36e-05
2398	4e-05
2410	4.56e-05
2422	6.16e-05
2434	6.32e-05
2446	3.68e-05
2458	2e-05
2470	4.24e-05
2482	3.44e-05
2494	5.6e-05
2506	2.8e-05
2518	4.32e-05
2530	5.84e-05
2542	5.52e-05
2554	4.48e-05
2566	6.64e-05
2578	3.76e-05
2590	8e-05
2602	6e-05
2614	7.44e-05
2626	0.0001304
2638	0.0001608
2650	0.0002128
2662	0.0002272
2674	0.0002576
2686	0.0003184
2698	0.0002928
2710	0.0003384
2722	0.000388
2734	0.0004896
2746	0.000572
2758	0.0007128
2770	0.0007784
2782	0.0009112
2794	0.0012864
2806	0.0022776
2818	0.0022208
2830	0.0018184
2842	0.002324
2854	0.0037232
2866	0.0036824
2878	0.0029216
2890	0.002588
2902	0.0029584
2914	0.00378
2926	0.0053776
2938	0.0055144
2950	0.0041008
2962	0.0046312
2974	0.0041232
2986	0.0016744
2998	0.0007816
3010	0.0004784
3022	0.0003784
3034	0.0003328
3046	0.000248
3058	0.000192
3070	0.0001512
3082	0.0001576
3094	0.0001104
3106	0.0001144
3118	0.0001112
3130	0.0001008
3142	7.44e-05
3154	7.92e-05
3166	0.0001112
3178	2.56e-05
3190	7.36e-05
3202	0.0001096
3214	3.28e-05
3226	8.32e-05
3238	6.32e-05
3250	7.44e-05
3262	6e-05
3274	6.24e-05
3286	9.04e-05
3298	8.32e-05
3310	6.32e-05
3322	9.84e-05
3334	8e-05
3346	0.0001224
3358	9.44e-05
3370	4e-05
3382	7.84e-05
3394	6.96e-05
3406	7.44e-05
3418	5.04e-05
3430	7.44e-05
3442	0.000116
3454	0.0002136
3466	0.0004472
3478	0.0008456
3490	0.0017944
3502	0.000516
3514	0.0001368
3526	0.0001008
3538	2.64e-05
3550	4.64e-05
3562	3.68e-05
3574	6.16e-05
3586	5.68e-05
3598	3.76e-05
3610	5.44e-05
3622	1.84e-05
3634	4.24e-05
3646	8e-05
3658	5.44e-05
3670	4.72e-05
3682	8.08e-05
3694	3.28e-05
3706	1.36e-05
3718	6.96e-05
3730	4.24e-05
3742	5.6e-06
3754	6.16e-05
3766	7.84e-05
3778	5.76e-05
3790	7.2e-06
3802	4.56e-05
3814	6.32e-05
3826	7.84e-05
3838	6.4e-05
