Infrared Spectrum: 1-(2-Methoxyphenyl)ethanol
Formula: C 9 H 12 O 2
CAS: 7417-18-7
State: gas
Origin: EPA-IR VAPOR PHASE LIBRARY
1/CM	ABSORBANCE
549.8	0.0012625
559.445	0.0022325
569.09	0.0027125
578.734	0.0027225
588.379	0.0020625
598.024	0.0023625
607.669	0.0025825
617.313	0.0022625
626.958	0.0017825
636.603	0.0011525
646.248	0.0009012
655.893	0.0007632
665.537	0.0008178
675.182	0.0010357
684.827	0.0009452
694.472	0.0011425
704.116	0.0014925
713.761	0.0026025
723.406	0.0045725
733.051	0.0108225
742.695	0.0215525
752.34	0.0250325
761.985	0.0137625
771.63	0.0052125
781.275	0.0029125
790.919	0.0031825
800.564	0.0043725
810.209	0.0038425
819.854	0.0016725
829.498	0.0012125
839.143	0.0012425
848.788	0.0013125
858.433	0.0016025
868.078	0.0016725
877.722	0.0027325
887.367	0.0054025
897.012	0.0083325
906.657	0.0067925
916.301	0.0039325
925.946	0.0030325
935.591	0.0026525
945.236	0.0025125
954.88	0.0020125
964.525	0.0028725
974.17	0.0036725
983.815	0.0049725
993.46	0.0078825
1003.1	0.0116425
1012.75	0.0146025
1022.39	0.0181325
1032.04	0.0215925
1041.68	0.0223425
1051.33	0.0190825
1060.97	0.0176725
1070.62	0.0244125
1080.26	0.0300125
1089.91	0.0225925
1099.55	0.0119925
1109.2	0.0088625
1118.84	0.0097025
1128.49	0.0083925
1138.13	0.0052825
1147.78	0.0050325
1157.42	0.0068425
1167.07	0.0089525
1176.71	0.0103025
1186.36	0.0107525
1196	0.0104025
1205.64	0.0112225
1215.29	0.0160525
1224.93	0.0327125
1234.58	0.0516725
1244.22	0.0521625
1253.87	0.0333625
1263.51	0.0210725
1273.16	0.0193625
1282.8	0.0196425
1292.45	0.0155125
1302.09	0.0096725
1311.74	0.0065725
1321.38	0.0056025
1331.03	0.0058825
1340.67	0.0068625
1350.32	0.0081525
1359.96	0.0095425
1369.61	0.0108625
1379.25	0.0104625
1388.9	0.0089025
1398.54	0.0075325
1408.18	0.0062425
1417.83	0.0056625
1427.47	0.0075025
1437.12	0.0124525
1446.76	0.0154925
1456.41	0.0168325
1466.05	0.0193625
1475.7	0.0232225
1485.34	0.0309925
1494.99	0.0268725
1504.63	0.0113825
1514.28	0.0042325
1523.92	0.0028725
1533.57	0.0023525
1543.21	0.0019425
1552.86	0.0020525
1562.5	0.0028525
1572.15	0.0055425
1581.79	0.0091925
1591.44	0.0124625
1601.08	0.0115425
1610.73	0.0071325
1620.37	0.0028525
1630.01	0.0015225
1639.66	0.0010686
1649.3	0.0008963
1658.95	0.0008066
1668.59	0.0009695
1678.24	0.0010323
1687.88	0.0009556
1697.53	0.0009032
1707.17	0.0006711
1716.82	0.0006677
1726.46	0.0005989
1736.11	0.0005215
1745.75	0.0005395
1755.4	0.0005147
1765.04	0.0007751
1774.69	0.0009275
1784.33	0.0008803
1793.98	0.000759
1803.62	0.0006794
1813.27	0.0007064
1822.91	0.0006754
1832.55	0.0005018
1842.2	0.0005564
1851.84	0.0005849
1861.49	0.0005869
1871.13	0.0006541
1880.78	0.0008718
1890.42	0.0013225
1900.07	0.0012825
1909.71	0.000983
1919.36	0.000968
1929	0.0011325
1938.65	0.0009574
1948.29	0.0006389
1957.94	0.0005177
1967.58	0.0005897
1977.23	0.0006205
1986.87	0.0006152
1996.52	0.0006268
2006.16	0.0005785
2015.81	0.0007154
2025.45	0.0009211
2035.1	0.0011325
2044.74	0.0012825
2054.38	0.0010643
2064.03	0.000896
2073.67	0.0007984
2083.32	0.0006992
2092.96	0.0006017
2102.61	0.0003763
2112.25	0.0003149
2121.9	0.0003087
2131.54	0.0002961
2141.19	0.0003734
2150.83	0.0003304
2160.48	0.0003232
2170.12	0.000315
2179.77	0.0003341
2189.41	0.0002807
2199.06	0.0003777
2208.7	0.0003249
2218.35	0.0003987
2227.99	0.0003678
2237.64	0.0003797
2247.28	0.000373
2256.92	0.0005178
2266.57	0.0004436
2276.21	0.0004972
2285.86	0.0004261
2295.5	0.0003808
2305.15	0.0003736
2314.79	0.0004416
2324.44	0.0003847
2334.08	0.0003555
2343.73	0.0002614
2353.37	0.0003246
2363.02	0.0001983
2372.66	0.0002513
2382.31	0.0003482
2391.95	0.0005358
2401.6	0.0005202
2411.24	0.0004475
2420.89	0.0004883
2430.53	0.0003092
2440.18	0.0005032
2449.82	0.0004783
2459.47	0.0006026
2469.11	0.0006617
2478.75	0.0006408
2488.4	0.0005751
2498.04	0.0005146
2507.69	0.0005698
2517.33	0.0004677
2526.98	0.0006781
2536.62	0.0005166
2546.27	0.0005186
2555.91	0.0005921
2565.56	0.000515
2575.2	0.0005648
2584.85	0.0005052
2594.49	0.0005153
2604.14	0.0005924
2613.78	0.0006001
2623.43	0.0005457
2633.07	0.0005866
2642.72	0.0004561
2652.36	0.0003264
2662.01	0.0004246
2671.65	0.0002362
2681.29	0.0002879
2690.94	0.000326
2700.58	0.0005912
2710.23	0.0004056
2719.87	0.0005928
2729.52	0.0005762
2739.16	0.0006297
2748.81	0.0005732
2758.45	0.0006682
2768.1	0.000814
2777.74	0.0010439
2787.39	0.0010572
2797.03	0.0011925
2806.68	0.0017225
2816.32	0.0023325
2825.97	0.0034125
2835.61	0.0066025
2845.26	0.0089125
2854.9	0.0075425
2864.55	0.0056625
2874.19	0.0063725
2883.84	0.0071325
2893.48	0.0076125
2903.12	0.0089525
2912.77	0.0108525
2922.41	0.0132325
2932.06	0.0158125
2941.7	0.0181325
2951.35	0.0179925
2960.99	0.0162825
2970.64	0.0169625
2980.28	0.0197725
2989.93	0.0184525
2999.57	0.0141125
3009.22	0.0104625
3018.86	0.0072425
3028.51	0.0063925
3038.15	0.0067925
3047.8	0.0065125
3057.44	0.0070425
3067.09	0.0087325
3076.73	0.0100925
3086.38	0.0078425
3096.02	0.0043825
3105.67	0.0029325
3115.31	0.0020125
3124.95	0.0011425
3134.6	0.0008262
3144.24	0.0008681
3153.89	0.0008945
3163.53	0.0005986
3173.18	0.000791
3182.82	0.0004227
3192.47	0.0005968
3202.11	0.0005906
3211.76	0.0005761
3221.4	0.0003774
3231.05	0.0003593
3240.69	0.0004357
3250.34	0.0001987
3259.98	0.0002746
3269.63	7.2e-05
3279.27	0.0002618
3288.92	0.00015912
3298.56	0.0002447
3308.21	0.0002648
3317.85	0.00013415
3327.49	0.0002066
3337.14	0.0002879
3346.78	0.0002983
3356.43	6.52e-05
3366.07	0.0002823
3375.72	0.00011928
3385.36	0.0003071
3395.01	0.0002421
3404.65	0.00010597
3414.3	0.0004305
3423.94	0.0002253
3433.59	0.00018815
3443.23	0.0002053
3452.88	0.00015608
3462.52	0.0002426
3472.17	0.0003394
3481.81	0.0004835
3491.46	0.0003187
3501.1	0.0002102
3510.75	0.0002209
3520.39	0.0002148
3530.04	0.0002588
3539.68	0.0005474
3549.32	0.0005232
3558.97	0.0006379
3568.61	0.000517
3578.26	0.0008644
3587.9	0.0011125
3597.55	0.0021725
3607.19	0.0035525
3616.84	0.0041325
3626.48	0.0035025
3636.13	0.0036325
3645.77	0.0044925
3655.42	0.0040425
3665.06	0.0024125
3674.71	0.0010831
3684.35	0.0006006
3694	0.0005663
3703.64	0.0003146
3713.29	0.0003478
3722.93	0.00011446
3732.58	0.0001925
3742.22	0.0002494
3751.86	0.0003883
3761.51	0.00012287
3771.15	0.00012746
3780.8	0.00018626
3790.44	0.000311
3800.09	0.00016378
3809.73	0.0002398
3819.38	0.00011649
3829.02	0.0001131
3838.67	0.0002378
3848.31	0.0003119
3857.96	0.0002763
3867.6	0.0004637
3877.25	0.0006957
3886.89	0.0003181
3896.54	0.0002173
3906.18	0.0002684
3915.83	0.0002886
3925.47	0.0004138
3935.12	0.0003833
3944.76	0.0003539
3954.41	0.0002056
3964.05	0.0003869
3973.69	0.0003372
3983.34	0.000333
3992.98	0.0004454
