Infrared Spectrum: 2-Ethoxyphenylacetonitrile
Formula: C 10 H 11 N O
CAS: 74205-51-9
State: gas
Origin: EPA-IR VAPOR PHASE LIBRARY
1/CM	ABSORBANCE
549.8	0.0011988
559.445	0.0006352
569.09	0.0013788
578.734	0.0012688
588.379	0.0016688
598.024	0.0022488
607.669	0.0021088
617.313	0.0017088
626.958	0.0012488
636.603	0.0007512
646.248	0.0006486
655.893	0.0007869
665.537	0.000809
675.182	0.0008921
684.827	0.0011588
694.472	0.0019388
704.116	0.0034088
713.761	0.0051888
723.406	0.0078288
733.051	0.0129488
742.695	0.0245888
752.34	0.0324688
761.985	0.0170488
771.63	0.0069388
781.275	0.0039588
790.919	0.0023488
800.564	0.0022588
810.209	0.0024088
819.854	0.0029288
829.498	0.0022788
839.143	0.0016488
848.788	0.0019488
858.433	0.0018488
868.078	0.0014088
877.722	0.0021388
887.367	0.0027588
897.012	0.0047388
906.657	0.0068688
916.301	0.0079788
925.946	0.0083088
935.591	0.0067488
945.236	0.0046388
954.88	0.0025988
964.525	0.0017888
974.17	0.0017988
983.815	0.0018788
993.46	0.0025688
1003.1	0.0039188
1012.75	0.0066188
1022.39	0.0128788
1032.04	0.0232288
1041.68	0.0320188
1051.33	0.0255088
1060.97	0.0116288
1070.62	0.0064388
1080.26	0.0064288
1089.91	0.0086588
1099.55	0.0171088
1109.2	0.0296988
1118.84	0.0282088
1128.49	0.0153088
1138.13	0.0065088
1147.78	0.0050088
1157.42	0.0062788
1167.07	0.0062888
1176.71	0.0066588
1186.36	0.0062488
1196	0.0059288
1205.64	0.0078888
1215.29	0.0142988
1224.93	0.0328388
1234.58	0.0682688
1244.22	0.0905988
1253.87	0.0686288
1263.51	0.0313988
1273.16	0.0184488
1282.8	0.0172288
1292.45	0.0178088
1302.09	0.0164988
1311.74	0.0126788
1321.38	0.0105588
1331.03	0.0083888
1340.67	0.0052288
1350.32	0.0040788
1359.96	0.0039088
1369.61	0.0045488
1379.25	0.0069688
1388.9	0.0115288
1398.54	0.0133388
1408.18	0.0100688
1417.83	0.0088888
1427.47	0.0090888
1437.12	0.0083888
1446.76	0.0170888
1456.41	0.0262988
1466.05	0.0196288
1475.7	0.0222488
1485.34	0.0398488
1494.99	0.0477888
1504.63	0.0310388
1514.28	0.0116188
1523.92	0.0048388
1533.57	0.0032288
1543.21	0.0028288
1552.86	0.0030588
1562.5	0.0037388
1572.15	0.0063088
1581.79	0.0129588
1591.44	0.0198888
1601.08	0.0184188
1610.73	0.0103088
1620.37	0.0038288
1630.01	0.0021488
1639.66	0.0016188
1649.3	0.0015088
1658.95	0.0015388
1668.59	0.0015988
1678.24	0.0015088
1687.88	0.0014388
1697.53	0.0013088
1707.17	0.0012388
1716.82	0.0011588
1726.46	0.001082
1736.11	0.0010988
1745.75	0.001084
1755.4	0.0011488
1765.04	0.0012388
1774.69	0.0012488
1784.33	0.0013488
1793.98	0.0012088
1803.62	0.0011288
1813.27	0.0010277
1822.91	0.0010177
1832.55	0.0008857
1842.2	0.0009661
1851.84	0.0010327
1861.49	0.001054
1871.13	0.0011988
1880.78	0.0013588
1890.42	0.0014888
1900.07	0.0014688
1909.71	0.0015888
1919.36	0.0015088
1929	0.0018188
1938.65	0.0016188
1948.29	0.0010153
1957.94	0.0008595
1967.58	0.0007836
1977.23	0.0008115
1986.87	0.0008816
1996.52	0.0008528
2006.16	0.0008571
2015.81	0.0009104
2025.45	0.000889
2035.1	0.0009258
2044.74	0.0008824
2054.38	0.0009631
2064.03	0.0009503
2073.67	0.0008436
2083.32	0.0007475
2092.96	0.0006146
2102.61	0.0005834
2112.25	0.0005189
2121.9	0.0005126
2131.54	0.0005381
2141.19	0.0004609
2150.83	0.000505
2160.48	0.0004471
2170.12	0.0004321
2179.77	0.0004213
2189.41	0.0003825
2199.06	0.0004823
2208.7	0.0005224
2218.35	0.0005724
2227.99	0.0006459
2237.64	0.0009734
2247.28	0.0015788
2256.92	0.0018288
2266.57	0.0013188
2276.21	0.0007873
2285.86	0.0006903
2295.5	0.0005338
2305.15	0.0004534
2314.79	0.0005866
2324.44	0.0007188
2334.08	0.0006401
2343.73	0.0005319
2353.37	0.0004489
2363.02	0.0005007
2372.66	0.000462
2382.31	0.000479
2391.95	0.0004586
2401.6	0.000625
2411.24	0.0006786
2420.89	0.0006047
2430.53	0.0005748
2440.18	0.0006578
2449.82	0.0005807
2459.47	0.0006061
2469.11	0.0007469
2478.75	0.0008985
2488.4	0.0009175
2498.04	0.0008238
2507.69	0.0008375
2517.33	0.0007321
2526.98	0.0008098
2536.62	0.000888
2546.27	0.0008007
2555.91	0.0007844
2565.56	0.0006352
2575.2	0.0006088
2584.85	0.0005973
2594.49	0.0006177
2604.14	0.0006048
2613.78	0.0004951
2623.43	0.0005371
2633.07	0.0004484
2642.72	0.0003728
2652.36	0.0005621
2662.01	0.0004211
2671.65	0.0004024
2681.29	0.0004428
2690.94	0.0004817
2700.58	0.0005658
2710.23	0.0005491
2719.87	0.0005917
2729.52	0.0010329
2739.16	0.0010699
2748.81	0.0008894
2758.45	0.000934
2768.1	0.0009783
2777.74	0.000979
2787.39	0.0010004
2797.03	0.0010506
2806.68	0.0010475
2816.32	0.0013988
2825.97	0.0017588
2835.61	0.0020788
2845.26	0.0022088
2854.9	0.0029888
2864.55	0.0038688
2874.19	0.0056588
2883.84	0.0084888
2893.48	0.0104688
2903.12	0.0107888
2912.77	0.0109888
2922.41	0.0121688
2932.06	0.0148488
2941.7	0.0167288
2951.35	0.0138988
2960.99	0.0103488
2970.64	0.0114988
2980.28	0.0179688
2989.93	0.0222888
2999.57	0.0142188
3009.22	0.0073888
3018.86	0.0059488
3028.51	0.0073188
3038.15	0.0085688
3047.8	0.0074688
3057.44	0.0068788
3067.09	0.0083888
3076.73	0.0110088
3086.38	0.0098388
3096.02	0.0053488
3105.67	0.0031488
3115.31	0.0022188
3124.95	0.0013588
3134.6	0.0007916
3144.24	0.0007961
3153.89	0.0008063
3163.53	0.0008573
3173.18	0.0008304
3182.82	0.0007511
3192.47	0.0006336
3202.11	0.000536
3211.76	0.0005468
3221.4	0.000534
3231.05	0.0004405
3240.69	0.000437
3250.34	0.0004347
3259.98	0.0002611
3269.63	0.0002929
3279.27	0.0002832
3288.92	0.0004246
3298.56	0.00044
3308.21	0.0002787
3317.85	0.0002665
3327.49	0.0003995
3337.14	6.39e-05
3346.78	8.7964e-05
3356.43	0.00013275
3366.07	0.0003019
3375.72	0.000309
3385.36	0.0003058
3395.01	0.0002967
3404.65	0.0002052
3414.3	0.0002398
3423.94	4.97e-05
3433.59	0.0002172
3443.23	0.0002744
3452.88	0.00013855
3462.52	6.13e-05
3472.17	0.0002397
3481.81	0.0002767
3491.46	0.0003325
3501.1	0.0002855
3510.75	0.0002632
3520.39	0.0002916
3530.04	0.0003732
3539.68	0.0001935
3549.32	0.00011885
3558.97	0.0003735
3568.61	0.0002349
3578.26	0.0001941
3587.9	0.00016587
3597.55	0.0002062
3607.19	0.0005408
3616.84	0.0003029
3626.48	0.00017763
3636.13	0.0004789
3645.77	0.0002539
3655.42	0.00016405
3665.06	0.0003144
3674.71	0.0002772
3684.35	0.0002857
3694	0.0001983
3703.64	0.0004941
3713.29	0.000225
3722.93	0.0001987
3732.58	0.00012535
3742.22	0.0002398
3751.86	0.0003214
3761.51	9.822e-05
3771.15	0.000299
3780.8	0.00014854
3790.44	0.0002061
3800.09	0.000305
3809.73	0.0004133
3819.38	0.0002183
3829.02	0.000329
3838.67	0.0004729
3848.31	0.00034
3857.96	0.0003515
3867.6	0.0003387
3877.25	0.0004014
3886.89	0.0005232
3896.54	0.0002849
3906.18	0.0004655
3915.83	0.0004347
3925.47	0.0002228
3935.12	0.0004185
3944.76	0.0002779
3954.41	0.0002501
3964.05	0.0003908
3973.69	0.0004899
3983.34	0.0002304
3992.98	0.0002275
