Infrared Spectrum: Endrin aldehyde
Formula: C 12 H 8 Cl 6 O
CAS: 7421-93-4
State: gas
Instrument: HP-GC/MS/IRD
Origin: NIST Mass Spectrometry Data Center
1/CM	ABSORBANCE
550	0.0006552
562	0.0001386
574	8.28e-05
586	6.12e-05
598	0.0005346
610	0.0012168
622	0.0006138
634	0.0004212
646	0.0004608
658	0.0003384
670	0.0008334
682	0.001926
694	0.0015768
706	0.0009504
718	0.0008766
730	0.002178
742	0.0036324
754	0.002241
766	0.001791
778	0.0015264
790	0.0007794
802	0.000972
814	0.0016218
826	0.003213
838	0.0050886
850	0.0015624
862	0.000891
874	0.0009576
886	0.0014436
898	0.0029682
910	0.0055962
922	0.002259
934	0.0012222
946	0.0015444
958	0.002106
970	0.002583
982	0.0013302
994	0.0010332
1006	0.001719
1018	0.0031734
1030	0.0028242
1042	0.0023796
1054	0.0040446
1066	0.0050274
1078	0.0040194
1090	0.0038952
1102	0.0033066
1114	0.002043
1126	0.0017802
1138	0.0015984
1150	0.0018504
1162	0.0015408
1174	0.001665
1186	0.0039384
1198	0.0023274
1210	0.0007272
1222	0.0006858
1234	0.001071
1246	0.0015678
1258	0.0021294
1270	0.0016686
1282	0.0013608
1294	0.0012366
1306	0.0009234
1318	0.000846
1330	0.0009162
1342	0.0011718
1354	0.0019368
1366	0.0021438
1378	0.0012618
1390	0.0010908
1402	0.0003924
1414	0.0003114
1426	0.0002646
1438	0.0002304
1450	0.0004086
1462	0.0009288
1474	0.0002106
1486	0.0001296
1498	0.0001152
1510	7.38e-05
1522	7.2e-05
1534	8.82e-05
1546	6.48e-05
1558	2.34e-05
1570	8.82e-05
1582	8.82e-05
1594	8.1e-05
1606	0.000108
1618	0.0001044
1630	0.0001242
1642	0.0001566
1654	0.0002034
1666	0.0003258
1678	0.0004806
1690	0.0008892
1702	0.0014742
1714	0.0020394
1726	0.0043182
1738	0.0150174
1750	0.0121698
1762	0.0038322
1774	0.00225
1786	0.0013086
1798	0.0007218
1810	0.0004698
1822	0.0003276
1834	0.0002466
1846	0.0001692
1858	0.00018
1870	0.0001746
1882	0.0001656
1894	0.0001548
1906	0.0001404
1918	0.000108
1930	0.0001152
1942	8.82e-05
1954	0.000108
1966	8.46e-05
1978	8.46e-05
1990	9.18e-05
2002	9.36e-05
2014	9.9e-05
2026	8.46e-05
2038	8.82e-05
2050	7.2e-05
2062	8.46e-05
2074	8.82e-05
2086	0.0001062
2098	0.0001062
2110	9.54e-05
2122	8.64e-05
2134	9e-05
2146	9.9e-05
2158	9.9e-05
2170	9e-05
2182	9.9e-05
2194	9e-05
2206	5.76e-05
2218	8.82e-05
2230	7.02e-05
2242	7.2e-05
2254	5.22e-05
2266	6.48e-05
2278	5.76e-05
2290	5.04e-05
2302	4.68e-05
2314	3.96e-05
2326	6.84e-05
2338	4.32e-05
2350	4.14e-05
2362	3.06e-05
2374	3.06e-05
2386	5.76e-05
2398	1.08e-05
2410	5.94e-05
2422	3.24e-05
2434	6.12e-05
2446	5.04e-05
2458	5.58e-05
2470	4.5e-05
2482	4.32e-05
2494	4.86e-05
2506	6.66e-05
2518	5.4e-05
2530	4.32e-05
2542	5.94e-05
2554	6.84e-05
2566	0.0001008
2578	9.18e-05
2590	0.0001278
2602	0.0001278
2614	0.000162
2626	0.000225
2638	0.0003042
2650	0.0003996
2662	0.0004608
2674	0.000648
2686	0.000963
2698	0.0014256
2710	0.002601
2722	0.0028278
2734	0.0015354
2746	0.0011034
2758	0.0008442
2770	0.000846
2782	0.0009702
2794	0.001458
2806	0.0031554
2818	0.0030654
2830	0.0013806
2842	0.0009468
2854	0.0007794
2866	0.0008172
2878	0.001665
2890	0.0013842
2902	0.0010404
2914	0.0009018
2926	0.0010242
2938	0.0039294
2950	0.0031302
2962	0.0028692
2974	0.0020106
2986	0.000621
2998	0.0011052
3010	0.0004536
3022	0.0002322
3034	0.0001566
3046	0.0001692
3058	0.0001638
3070	0.000153
3082	0.0001602
3094	0.0001368
3106	0.0001134
3118	0.0001224
3130	0.0001476
3142	9.18e-05
3154	0.0001134
3166	0.0001242
3178	8.28e-05
3190	8.28e-05
3202	7.2e-05
3214	8.28e-05
3226	7.2e-05
3238	9.36e-05
3250	4.5e-05
3262	3.24e-05
3274	6.84e-05
3286	8.46e-05
3298	9.54e-05
3310	5.4e-05
3322	4.68e-05
3334	7.92e-05
3346	6.3e-05
3358	4.86e-05
3370	6.12e-05
3382	6.48e-05
3394	9.54e-05
3406	9.18e-05
3418	0.0001098
3430	0.0001152
3442	0.0001368
3454	0.0002808
3466	0.0003348
3478	0.0002772
3490	0.0001908
3502	9e-05
3514	0.0001278
3526	7.74e-05
3538	5.94e-05
3550	5.94e-05
3562	5.94e-05
3574	1.44e-05
3586	7.02e-05
3598	7.92e-05
3610	0.0001044
3622	8.46e-05
3634	8.28e-05
3646	4.5e-05
3658	2.88e-05
3670	3.6e-06
3682	2.16e-05
3694	4.86e-05
3706	3.42e-05
3718	4.86e-05
3730	6.3e-05
3742	2.34e-05
3754	2.16e-05
3766	8.1e-05
3778	8.1e-05
3790	5.22e-05
3802	0
3814	0.0001206
3826	7.38e-05
3838	7.38e-05
