Infrared Spectrum: PLACIDYL CARBAMATE
Formula: C8 H10 Cl N O2
CAS: 74283-25-3
State: SOLUTION (7% IN CHCl3)
Class: COBLENTZ
Instrument: PERKIN-ELMER
Sampling: TRANSMISSION
Path length: 0.010 CM
Resolution: 4
Origin: ABBOTT LABORATORIES - WASHBURN
MICROMETERS	TRANSMITTANCE
2.047	0.967
2.08078	0.958
2.11457	0.9581
2.14835	0.9581
2.18214	0.9521
2.21592	0.96
2.24971	0.958
2.28349	0.9501
2.31728	0.9495
2.35106	0.945
2.38485	0.948
2.41863	0.941
2.45242	0.9517
2.4862	0.9479
2.51999	0.947
2.55377	0.9331
2.58756	0.9377
2.62134	0.9518
2.65513	0.947
2.68891	0.947
2.7227	0.953
2.75648	0.9649
2.79027	0.8265
2.82405	0.6
2.85784	0.6931
2.89162	0.7368
2.92541	0.6782
2.95919	0.7485
2.99298	0.6951
3.02676	0.5751
3.06055	0.7875
3.09433	0.8464
3.12812	0.841
3.1619	0.8591
3.19569	0.88
3.22947	0.871
3.26326	0.8646
3.29704	0.8381
3.33083	0.7522
3.36461	0.7913
3.3984	0.8166
3.43218	0.8709
3.46597	0.876
3.49975	0.8999
3.53354	0.9169
3.56732	0.928
3.60111	0.929
3.63489	0.926
3.66868	0.929
3.70246	0.9241
3.73625	0.921
3.77003	0.921
3.80382	0.926
3.8376	0.928
3.87139	0.9278
3.90517	0.928
3.93896	0.923
3.97274	0.924
4.00653	0.926
4.04031	0.9172
4.0741	0.912
4.10788	0.911
4.14167	0.9168
4.17545	0.923
4.20923	0.921
4.24302	0.921
4.2768	0.923
4.31059	0.9189
4.34437	0.9192
4.37816	0.912
4.41194	0.911
4.44573	0.911
4.47951	0.909
4.5133	0.911
4.54708	0.909
4.58087	0.905
4.61465	0.905
4.64844	0.8973
4.68222	0.8727
4.71601	0.8881
4.74979	0.9
4.78358	0.902
4.81736	0.902
4.85115	0.8991
4.88493	0.899
4.91872	0.899
4.9525	0.899
4.98629	0.8988
5.02007	0.899
5.05386	0.899
5.08764	0.8929
5.12143	0.888
5.15521	0.889
5.189	0.89
5.22278	0.89
5.25657	0.89
5.29035	0.888
5.32414	0.8815
5.35792	0.8709
5.39171	0.8631
5.42549	0.859
5.45928	0.847
5.49306	0.832
5.52685	0.816
5.56063	0.7738
5.59442	0.6989
5.6282	0.5617
5.66199	0.2443
5.69577	0.0881
5.72956	0.042
5.76334	0.1458
5.79713	0.3317
5.83091	0.5834
5.8647	0.7096
5.89848	0.768
5.93227	0.777
5.96605	0.7813
5.99984	0.8002
6.03362	0.8009
6.06741	0.781
6.10119	0.6674
6.13498	0.5935
6.16876	0.6283
6.20255	0.5951
6.23633	0.5072
6.27012	0.3732
6.3039	0.3061
6.33769	0.6347
6.37147	0.7704
6.40525	0.8024
6.43904	0.829
6.47282	0.8386
6.50661	0.8638
6.54039	0.8727
6.57418	0.878
6.60796	0.8793
6.64175	0.878
6.67553	0.873
6.70932	0.873
6.7431	0.8638
6.77689	0.8465
6.81067	0.717
6.84446	0.7044
6.87824	0.7619
6.91203	0.7933
6.94581	0.7878
6.9796	0.8105
7.01338	0.819
7.04717	0.8133
7.08095	0.7944
7.11474	0.7713
7.14852	0.7471
7.18231	0.6969
7.21609	0.5174
7.24988	0.5534
7.28366	0.471
7.31745	0.3178
7.35123	0.165
7.38502	0.0803
7.4188	0.0631
7.45259	0.1384
7.48637	0.3201
7.52016	0.3755
7.55394	0.347
7.58773	0.4697
7.62151	0.5402
7.6553	0.5139
7.68908	0.465
7.72287	0.4815
7.75665	0.5
7.79044	0.4738
7.82422	0.5238
7.85801	0.6124
7.89179	0.6419
7.92558	0.6872
7.95936	0.7257
7.99315	0.7404
8.02693	0.7255
8.06072	0.6769
8.0945	0.6055
8.12829	0.5814
8.16207	0.6031
8.19586	0.6193
8.22964	0.6392
8.26343	0.649
8.29721	0.6692
8.331	0.7404
8.36478	0.7289
8.39857	0.7126
8.43235	0.7416
8.46614	0.762
8.49992	0.7526
8.5337	0.7556
8.56749	0.76
8.60127	0.767
8.63506	0.765
8.66884	0.755
8.70263	0.747
8.73641	0.7364
8.7702	0.7245
8.80398	0.7085
8.83777	0.6888
8.87155	0.632
8.90534	0.6107
8.93912	0.6076
8.97291	0.6009
9.00669	0.589
9.04048	0.5725
9.07426	0.601
9.10805	0.6481
9.14183	0.656
9.17562	0.6341
9.2094	0.5524
9.24319	0.509
9.27697	0.5255
9.31076	0.5913
9.34454	0.6237
9.37833	0.639
9.41211	0.6223
9.4459	0.604
9.47968	0.5772
9.51347	0.5045
9.54725	0.418
9.58104	0.3497
9.61482	0.2809
9.64861	0.2246
9.68239	0.1906
9.71618	0.1769
9.74996	0.176
9.78375	0.2123
9.81753	0.3003
9.85132	0.3694
9.8851	0.4842
9.91889	0.5803
9.95267	0.6347
9.98646	0.6618
10.0202	0.6903
10.054	0.7352
10.0878	0.7482
10.1216	0.75
10.1554	0.75
10.1892	0.7356
10.223	0.7049
10.2567	0.6742
10.2905	0.6735
10.3243	0.6862
10.3581	0.692
10.3919	0.6925
10.4257	0.7124
10.4594	0.736
10.4932	0.7329
10.527	0.7097
10.5608	0.6581
10.5946	0.5853
10.6284	0.5157
10.6622	0.4466
10.6959	0.3916
10.7297	0.36
10.7635	0.4541
10.7973	0.5979
10.8311	0.6678
10.8649	0.728
10.8986	0.747
10.9324	0.7516
10.9662	0.748
11	0.7338
11.0338	0.724
11.0676	0.7268
11.1014	0.7442
11.1351	0.7624
11.1689	0.7743
11.2027	0.796
11.2365	0.8076
11.2703	0.8168
11.3041	0.822
11.3379	0.8325
11.3716	0.837
11.4054	0.841
11.4392	0.8362
11.473	0.8334
11.5068	0.8178
11.5406	0.811
11.5743	0.81
11.6081	0.805
11.6419	0.7932
11.6757	0.7896
11.7095	0.779
11.7433	0.7634
11.7771	0.7464
11.8108	0.7223
11.8446	0.6583
11.8784	0.5907
11.9122	0.4976
11.946	0.42
11.9798	0.3982
12.0136	0.3896
12.0473	0.4672
12.0811	0.5413
12.1149	0.5942
12.1487	0.632
12.1825	0.6762
12.2163	0.6806
12.25	0.6872
12.2838	0.695
12.3176	0.694
12.3514	0.692
12.3852	0.695
12.419	0.6886
12.4528	0.6788
12.4865	0.677
12.5203	0.675
12.5541	0.676
12.5879	0.6823
12.6217	0.6926
12.6555	0.688
12.6893	0.69
12.723	0.687
12.7568	0.6896
12.7906	0.6886
12.8244	0.688
12.8582	0.687
12.892	0.688
12.9257	0.6905
12.9595	0.695
12.9933	0.6899
13.0271	0.688
13.0609	0.694
13.0947	0.692
13.1285	0.694
13.1622	0.694
13.196	0.695
13.2298	0.685
13.2636	0.695
13.2974	0.695
13.3312	0.695
13.3649	0.704
13.3987	0.704
13.4325	0.6974
13.4663	0.707
13.5001	0.6992
13.5339	0.7061
13.5677	0.705
13.6014	0.704
13.6352	0.6996
13.669	0.7
13.7028	0.6998
13.7366	0.6988
13.7704	0.699
13.8042	0.702
13.8379	0.7085
13.8717	0.7083
13.9055	0.7167
13.9393	0.7342
13.9731	0.7425
14.0069	0.7628
14.0406	0.774
14.0744	0.7824
14.1082	0.789
14.142	0.793
14.1758	0.7822
14.2096	0.7806
14.2434	0.78
14.2771	0.7711
14.3109	0.745
14.3447	0.7199
14.3785	0.702
14.4123	0.6742
14.4461	0.6572
14.4799	0.649
14.5136	0.635
14.5474	0.6258
14.5812	0.6013
14.615	0.5742
14.6488	0.5574
14.6826	0.5382
14.7163	0.5196
14.7501	0.5047
14.7839	0.499
14.8177	0.5
14.8515	0.5052
14.8853	0.512
14.9191	0.516
14.9528	0.517
14.9866	0.521
15.0204	0.524
15.0542	0.5269
15.088	0.5425
15.1218	0.5673
15.1555	0.6121
15.1893	0.6528
15.2231	0.6662
15.2569	0.666
15.2907	0.6583
15.3245	0.6444
15.3583	0.6264
15.392	0.6021
15.4258	0.5826
