Infrared Spectrum: 5-Decene, (Z)
Formula: C10 H20
CAS: 7433-78-5
State: LIQUID (NEAT)
Class: COBLENTZ III
Instrument: BECKMAN IR-12 (GRATING)
Instrument parameters: GRATING
Sampling: TRANSMISSION
Path length: 0.01056 CM
Resolution: 2
Origin: COLGATE-PALMOLIVE COMPANY (KELLENBACH)
1/CM	TRANSMITTANCE
405	0.7394
414	0.7796
423	0.8297
432	0.853
441	0.8727
450	0.8853
459	0.8868
468	0.9011
477	0.926
486	0.9332
495	0.9241
504	0.9007
513	0.8742
522	0.8579
531	0.8555
540	0.8752
549	0.8922
558	0.8892
567	0.8557
576	0.742
585	0.5973
594	0.5902
603	0.6545
612	0.6964
621	0.7259
630	0.7332
639	0.7192
648	0.641
657	0.5393
666	0.4376
675	0.3094
684	0.1797
693	0.1067
702	0.0645
711	0.0412
720	0.0402
729	0.0516
738	0.1033
747	0.0824
756	0.2049
765	0.4323
774	0.563
783	0.455
792	0.372
801	0.4547
810	0.5273
819	0.3105
828	0.4292
837	0.6273
846	0.6985
855	0.727
864	0.781
873	0.7227
882	0.6717
891	0.6257
900	0.6597
909	0.7422
918	0.5756
927	0.4845
936	0.3662
945	0.4595
954	0.6628
963	0.5768
972	0.436
981	0.6103
990	0.7163
999	0.7087
1008	0.6859
1017	0.6294
1026	0.4079
1035	0.5194
1044	0.7352
1053	0.735
1062	0.6433
1071	0.6087
1080	0.6226
1089	0.5369
1098	0.3155
1107	0.3755
1116	0.7094
1125	0.7733
1134	0.7374
1143	0.7254
1152	0.808
1161	0.8572
1170	0.8635
1179	0.8508
1188	0.7909
1197	0.7101
1206	0.7276
1215	0.7281
1224	0.7123
1233	0.6
1242	0.427
1251	0.6047
1260	0.6093
1269	0.6476
1278	0.6262
1287	0.5349
1296	0.3658
1305	0.47
1314	0.4599
1323	0.5403
1332	0.5746
1341	0.3638
1350	0.4661
1359	0.4097
1368	0.3669
1377	0.0401
1386	0.2949
1395	0.3858
1404	0.2071
1413	0.3808
1422	0.2886
1431	0.0917
1440	0.032
1449	0.012
1458	0.0081
1467	0.0084
1476	0.1509
1485	0.392
1494	0.5101
1503	0.6078
1512	0.665
1521	0.6949
1530	0.7421
1539	0.7582
1548	0.7793
1557	0.8009
1566	0.8129
1575	0.8221
1584	0.8331
1593	0.8358
1602	0.8357
1611	0.8336
1620	0.8213
1629	0.7942
1638	0.7231
1647	0.5893
1656	0.4799
1665	0.6637
1674	0.6883
1683	0.697
1692	0.7103
1701	0.7374
1710	0.7853
1719	0.8125
1728	0.8442
1737	0.8662
1746	0.8785
1755	0.8775
1764	0.8789
1773	0.8905
1782	0.8836
1791	0.8737
1800	0.8927
1809	0.9077
1818	0.913
1827	0.9136
1836	0.9146
1845	0.9186
1854	0.9188
1863	0.9172
1872	0.9082
1881	0.8887
1890	0.8739
1899	0.8811
1908	0.9036
1917	0.911
1926	0.9113
1935	0.9073
1944	0.9069
1953	0.9203
1962	0.923
1971	0.9263
1980	0.9281
1989	0.9282
1998	0.9235
2007	0.9118
2016	0.8967
2025	0.8827
2034	0.8745
2043	0.8806
2052	0.8867
2061	0.8826
2070	0.8749
2079	0.8922
2088	0.9117
2097	0.9167
2106	0.9191
2115	0.916
2124	0.9125
2133	0.913
2142	0.9113
2151	0.9027
2160	0.8949
2169	0.8924
2178	0.8945
2187	0.8954
2196	0.8936
2205	0.89
2214	0.8876
2223	0.8899
2232	0.8937
2241	0.8928
2250	0.8882
2259	0.885
2268	0.8883
2277	0.8892
2286	0.8821
2295	0.8782
2304	0.8811
2313	0.8839
2322	0.8829
2331	0.8796
2340	0.8795
2349	0.8792
2358	0.8744
2367	0.8666
2376	0.857
2385	0.8524
2394	0.8567
2403	0.8611
2412	0.8621
2421	0.861
2430	0.8681
2439	0.8771
2448	0.885
2457	0.8905
2466	0.8934
2475	0.8937
2484	0.8896
2493	0.8826
2502	0.8692
2511	0.842
2520	0.8178
2529	0.812
2538	0.8119
2547	0.8133
2556	0.8074
2565	0.7925
2574	0.7742
2583	0.7549
2592	0.7594
2601	0.7721
2610	0.7639
2619	0.742
2628	0.7253
2637	0.6306
2646	0.636
2655	0.6295
2664	0.5956
2673	0.6181
2682	0.6606
2691	0.688
2700	0.6784
2709	0.6375
2718	0.5641
2727	0.4845
2736	0.5352
2745	0.5647
2754	0.5612
2763	0.5427
2772	0.476
2781	0.3988
2790	0.3446
2799	0.2902
2808	0.1572
2817	0.071
2826	0.0261
2835	0.0096
2844	0.0053
2853	0.0054
2862	0.0057
2871	0.0085
2880	0.0077
2889	0.0062
2898	0.0051
2907	0.0041
2916	0.004
2925	0.0034
2934	0.0034
2943	0.0051
2952	0.0041
2961	0.0028
2970	0.0015
2979	0.0098
2988	0.012
2997	0.007
3006	0.0048
3015	0.0197
3024	0.166
3033	0.3196
3042	0.4206
3051	0.4626
3060	0.4806
3069	0.5725
3078	0.6368
3087	0.6719
3096	0.7117
3105	0.7347
3114	0.7488
3123	0.7571
3132	0.7614
3141	0.7634
3150	0.765
3159	0.7665
3168	0.7683
3177	0.771
3186	0.7763
3195	0.7973
3204	0.8205
3213	0.8441
3222	0.8559
3231	0.8601
3240	0.883
3249	0.89
3258	0.8959
3267	0.898
3276	0.8965
3285	0.8932
3294	0.8932
3303	0.9016
3312	0.9072
3321	0.9094
3330	0.9102
3339	0.9102
3348	0.9087
3357	0.9091
3366	0.9101
3375	0.9115
3384	0.9142
3393	0.9168
3402	0.9188
3411	0.9207
3420	0.9223
3429	0.9235
3438	0.9267
3447	0.9294
3456	0.9303
3465	0.9312
3474	0.9322
3483	0.9332
3492	0.9338
3501	0.9342
3510	0.9341
3519	0.9336
3528	0.9331
3537	0.9325
3546	0.9321
3555	0.93
3564	0.9274
3573	0.9248
3582	0.9227
3591	0.9205
3600	0.9146
3609	0.909
3618	0.9044
3627	0.9017
3636	0.9003
3645	0.899
3654	0.8977
3663	0.8956
3672	0.893
3681	0.8912
3690	0.8897
3699	0.8894
3708	0.8897
3717	0.8961
3726	0.9028
3735	0.9052
3744	0.9024
3753	0.8985
3762	0.8979
3771	0.896
3780	0.8922
3789	0.8871
3798	0.8807
3807	0.8756
3816	0.8731
3825	0.8719
3834	0.8738
3843	0.8764
3852	0.8805
3861	0.8851
3870	0.8904
3879	0.8952
3888	0.8988
3897	0.8987
3906	0.8966
3915	0.8871
3924	0.8728
3933	0.8579
3942	0.8445
3951	0.8354
3960	0.831
3969	0.829
3978	0.8269
3987	0.824
3996	0.8229
