Infrared Spectrum: trans-5-Decene
Formula: C 10 H 20
CAS: 7433-56-9
State: gas
Instrument: HP-GC/MS/IRD
Origin: NIST Mass Spectrometry Data Center
1/CM	ABSORBANCE
550	0.000228
562	0.0001482
574	8.55e-05
586	0.0001007
598	5.32e-05
610	9.88e-05
622	7.22e-05
634	7.03e-05
646	6.08e-05
658	0.0001368
670	0.0001539
682	8.55e-05
694	0.0001406
706	0.0001919
718	0.0002204
730	0.0003895
742	0.0005339
754	0.0004313
766	0.0003097
778	0.0002489
790	0.0002052
802	0.0002964
814	0.0002242
826	3.61e-05
838	0.0001919
850	0.0002109
862	0.0001938
874	0.000228
886	0.0002451
898	0.0003078
910	0.0003705
922	0.0005282
934	0.0007011
946	0.0011837
958	0.002299
970	0.0026999
982	0.0013984
994	0.0006726
1006	0.0004294
1018	0.0004047
1030	0.0004066
1042	0.0004275
1054	0.0003933
1066	0.0004123
1078	0.0004123
1090	0.0004313
1102	0.0004123
1114	0.0002983
1126	0.0002432
1138	0.0002166
1150	0.0001634
1162	0.0002223
1174	0.0002261
1186	0.0002261
1198	0.0001843
1210	0.0002375
1222	0.0002622
1234	0.0003002
1246	0.0003648
1258	0.000323
1270	0.00038
1282	0.0004541
1294	0.00057
1306	0.0006118
1318	0.0005738
1330	0.0006878
1342	0.0007961
1354	0.0007505
1366	0.0006612
1378	0.000836
1390	0.0007809
1402	0.0005282
1414	0.0005054
1426	0.0007106
1438	0.0012521
1450	0.0018316
1462	0.0019912
1474	0.0014744
1486	0.0007125
1498	0.0004161
1510	0.0002071
1522	0.0001368
1534	0.0001824
1546	0.0001235
1558	0.0001273
1570	0.0001235
1582	0.0001292
1594	0.0001292
1606	0.0001482
1618	0.0001178
1630	0.0001368
1642	0.0001178
1654	0.0001254
1666	0.0001425
1678	0.0001197
1690	9.5e-05
1702	0.0001083
1714	8.17e-05
1726	0.0001178
1738	0.0001349
1750	7.41e-05
1762	9.12e-05
1774	0.0001121
1786	7.6e-05
1798	8.74e-05
1810	8.93e-05
1822	6.46e-05
1834	7.98e-05
1846	5.13e-05
1858	7.6e-05
1870	6.27e-05
1882	7.22e-05
1894	7.22e-05
1906	5.89e-05
1918	4.75e-05
1930	2.09e-05
1942	4.56e-05
1954	4.56e-05
1966	2.66e-05
1978	5.32e-05
1990	3.04e-05
2002	5.13e-05
2014	7.41e-05
2026	4.94e-05
2038	6.27e-05
2050	4.94e-05
2062	7.03e-05
2074	4.56e-05
2086	5.89e-05
2098	4.37e-05
2110	4.75e-05
2122	2.85e-05
2134	4.56e-05
2146	3.8e-05
2158	5.32e-05
2170	4.18e-05
2182	7.03e-05
2194	6.08e-05
2206	5.13e-05
2218	6.08e-05
2230	3.42e-05
2242	4.56e-05
2254	4.94e-05
2266	4.56e-05
2278	3.61e-05
2290	3.99e-05
2302	5.7e-05
2314	2.47e-05
2326	4.56e-05
2338	7.22e-05
2350	4.37e-05
2362	8.17e-05
2374	5.89e-05
2386	4.75e-05
2398	5.51e-05
2410	5.13e-05
2422	7.41e-05
2434	5.51e-05
2446	6.65e-05
2458	4.94e-05
2470	3.42e-05
2482	6.08e-05
2494	6.65e-05
2506	3.42e-05
2518	6.65e-05
2530	8.17e-05
2542	9.5e-05
2554	0.0001026
2566	9.69e-05
2578	0.0001292
2590	0.0001159
2602	0.0001254
2614	0.0001083
2626	0.0001596
2638	0.0001786
2650	0.000209
2662	0.0002565
2674	0.0002641
2686	0.000247
2698	0.0002147
2710	0.0002204
2722	0.0002622
2734	0.0003154
2746	0.0003876
2758	0.000399
2770	0.0004161
2782	0.0005187
2794	0.0006365
2806	0.0008094
2818	0.0010754
2830	0.00171
2842	0.003154
2854	0.0056411
2866	0.0074119
2878	0.0077102
2890	0.0073492
2902	0.0080769
2914	0.012103
2926	0.017632
2938	0.018354
2950	0.0140562
2962	0.0144172
2974	0.0125552
2986	0.0061104
2998	0.0036499
3010	0.0027018
3022	0.0023104
3034	0.001748
3046	0.0011799
3058	0.000779
3070	0.0005985
3082	0.0004978
3094	0.000418
3106	0.0003648
3118	0.0003477
3130	0.0003268
3142	0.0002907
3154	0.0002356
3166	0.0001938
3178	0.0002337
3190	0.0002204
3202	0.000209
3214	0.0001368
3226	0.0001349
3238	0.0001178
3250	9.69e-05
3262	7.6e-05
3274	6.84e-05
3286	6.27e-05
3298	0.0001026
3310	0.0001064
3322	0.0001064
3334	7.41e-05
3346	0.0001197
3358	6.46e-05
3370	0.0001406
3382	9.88e-05
3394	8.17e-05
3406	8.74e-05
3418	8.36e-05
3430	0.0001197
3442	8.74e-05
3454	9.5e-05
3466	8.74e-05
3478	6.08e-05
3490	8.55e-05
3502	2.66e-05
3514	6.27e-05
3526	7.98e-05
3538	6.65e-05
3550	3.04e-05
3562	3.99e-05
3574	2.09e-05
3586	3.61e-05
3598	0.0001083
3610	1.9e-05
3622	6.27e-05
3634	0.0001007
3646	0.0001178
3658	0.0001197
3670	9.88e-05
3682	0.000133
3694	0.0001824
3706	0.0001216
3718	0.0001558
3730	9.88e-05
3742	3.99e-05
3754	0.0001748
3766	0.0001444
3778	0.0001501
3790	0.0001121
3802	0.000171
3814	0.0002014
3826	0.0001653
3838	0.0001634
