Infrared Spectrum: 2,3,5,6-Tetramethylbenzyl chloride
Formula: C 11 H 15 Cl
CAS: 7435-83-8
State: gas
Origin: EPA-IR VAPOR PHASE LIBRARY
1/CM	ABSORBANCE
549.9	0.001822
559.547	0.0014817
569.193	0.0014608
578.84	0.002052
588.486	0.003632
598.133	0.008082
607.779	0.014742
617.426	0.008922
627.072	0.002812
636.719	0.001942
646.365	0.002172
656.012	0.003052
665.658	0.007742
675.305	0.019072
684.951	0.031382
694.598	0.023562
704.245	0.006662
713.891	0.002322
723.538	0.0016147
733.184	0.001742
742.831	0.003482
752.477	0.008972
762.124	0.008782
771.77	0.003402
781.417	0.001952
791.063	0.0014115
800.71	0.0010894
810.356	0.0011481
820.003	0.001337
829.649	0.0014831
839.296	0.0013363
848.943	0.001852
858.589	0.005332
868.236	0.010132
877.882	0.005722
887.529	0.005192
897.175	0.007912
906.822	0.005682
916.468	0.002392
926.115	0.0015035
935.761	0.0011384
945.408	0.000985
955.054	0.0009796
964.701	0.0012383
974.347	0.0016239
983.994	0.002522
993.64	0.004722
1003.29	0.008492
1012.93	0.010062
1022.58	0.006662
1032.23	0.003642
1041.87	0.002182
1051.52	0.0014635
1061.17	0.0012398
1070.81	0.0011748
1080.46	0.0011972
1090.11	0.0011406
1099.75	0.0013197
1109.4	0.0010838
1119.05	0.0009413
1128.69	0.0009731
1138.34	0.0009882
1147.99	0.0012345
1157.63	0.0015715
1167.28	0.0014298
1176.92	0.0013035
1186.57	0.0015255
1196.22	0.002362
1205.86	0.004042
1215.51	0.005362
1225.16	0.004552
1234.8	0.003552
1244.45	0.006302
1254.1	0.022522
1263.74	0.030112
1273.39	0.013772
1283.04	0.011052
1292.68	0.010562
1302.33	0.005322
1311.98	0.002642
1321.62	0.002592
1331.27	0.002912
1340.92	0.002982
1350.56	0.003022
1360.21	0.003652
1369.86	0.005352
1379.5	0.007362
1389.15	0.008062
1398.79	0.006302
1408.44	0.004462
1418.09	0.004542
1427.73	0.005982
1437.38	0.010042
1447.03	0.016262
1456.67	0.022662
1466.32	0.030982
1475.97	0.031982
1485.61	0.019442
1495.26	0.009442
1504.91	0.006772
1514.55	0.005632
1524.2	0.004982
1533.85	0.004522
1543.49	0.004212
1553.14	0.004052
1562.79	0.003762
1572.43	0.003572
1582.08	0.003412
1591.73	0.003392
1601.37	0.003652
1611.02	0.003232
1620.67	0.002312
1630.31	0.0015195
1639.96	0.0011842
1649.6	0.0010023
1659.25	0.0009072
1668.9	0.0008032
1678.54	0.0007612
1688.19	0.0007863
1697.84	0.0008189
1707.48	0.0009308
1717.13	0.0013007
1726.78	0.001942
1736.42	0.001902
1746.07	0.001027
1755.72	0.00072765
1765.36	0.000629
1775.01	0.0006229
1784.66	0.0005915
1794.3	0.000469
1803.95	0.000461
1813.6	0.000421
1823.24	0.000349
1832.89	0.000318
1842.54	0.000374
1852.18	0.000386
1861.83	0.000455
1871.47	0.000525
1881.12	0.0007584
1890.77	0.0008143
1900.41	0.00073492
1910.06	0.00065615
1919.71	0.000433
1929.35	0.000345
1939	0.000394
1948.65	0.000355
1958.29	0.000381
1967.94	0.000378
1977.59	0.000424
1987.23	0.000402
1996.88	0.000432
2006.53	0.000332
2016.17	0.000292
2025.82	0.000375
2035.47	0.000322
2045.11	0.00037
2054.76	0.000427
2064.41	0.000447
2074.05	0.000514
2083.7	0.000451
2093.35	0.000406
2102.99	0.000347
2112.64	0.000324
2122.28	0.000331
2131.93	0.000357
2141.58	0.000341
2151.22	0.000335
2160.87	0.000445
2170.52	0.000444
2180.16	0.000394
2189.81	0.000368
2199.46	0.00031
2209.1	0.000296
2218.75	0.000305
2228.4	0.000336
2238.04	0.000352
2247.69	0.000372
2257.34	0.000403
2266.98	0.000495
2276.63	0.000419
2286.28	0.000491
2295.92	0.000469
2305.57	0.00043
2315.22	0.000479
2324.86	0.000458
2334.51	0.000432
2344.16	0.000459
2353.8	0.000541
2363.45	0.0005601
2373.09	0.000543
2382.74	0.0006007
2392.39	0.0006236
2402.03	0.0006416
2411.68	0.00064908
2421.33	0.00067705
2430.97	0.00066543
2440.62	0.000654644
2450.27	0.00074312
2459.91	0.00073328
2469.56	0.00074265
2479.21	0.00073961
2488.85	0.00074707
2498.5	0.00069281
2508.15	0.0005852
2517.79	0.00064672
2527.44	0.0006375
2537.09	0.0005814
2546.73	0.0005717
2556.38	0.00055
2566.03	0.000529
2575.67	0.0005622
2585.32	0.0005558
2594.96	0.0006162
2604.61	0.00068186
2614.26	0.000609
2623.9	0.00068689
2633.55	0.000609
2643.2	0.00074634
2652.84	0.0008415
2662.49	0.0008018
2672.14	0.0008815
2681.78	0.000917
2691.43	0.0009208
2701.08	0.0009517
2710.72	0.0011731
2720.37	0.0015576
2730.02	0.002282
2739.66	0.003162
2749.31	0.002952
2758.96	0.002512
2768.6	0.002382
2778.25	0.002422
2787.9	0.002352
2797.54	0.002552
2807.19	0.002902
2816.84	0.003642
2826.48	0.004682
2836.13	0.006272
2845.77	0.008552
2855.42	0.012442
2865.07	0.019532
2874.71	0.028682
2884.36	0.031152
2894.01	0.028172
2903.65	0.028692
2913.3	0.034032
2922.95	0.045972
2932.59	0.056992
2942.24	0.052292
2951.89	0.042832
2961.53	0.035852
2971.18	0.034272
2980.83	0.031762
2990.47	0.026452
3000.12	0.030552
3009.77	0.038472
3019.41	0.029902
3029.06	0.020192
3038.71	0.016302
3048.35	0.013632
3058	0.012052
3067.64	0.010672
3077.29	0.008802
3086.94	0.007102
3096.58	0.005182
3106.23	0.003792
3115.88	0.003022
3125.52	0.002552
3135.17	0.002192
3144.82	0.0016361
3154.46	0.0016083
3164.11	0.0013971
3173.76	0.0011556
3183.4	0.0010727
3193.05	0.0007834
3202.7	0.0007722
3212.34	0.0008512
3221.99	0.00067746
3231.64	0.00071021
3241.28	0.0006279
3250.93	0.000519
3260.58	0.000485
3270.22	0.00064451
3279.87	0.0005852
3289.52	0.000462
3299.16	0.000468
3308.81	0.000382
3318.45	0.00028
3328.1	0.000452
3337.75	0.000509
3347.39	0.00029
3357.04	0.000403
3366.69	0.000306
3376.33	0.000434
3385.98	0.000338
3395.63	0.000445
3405.27	0.000465
3414.92	0.00039
3424.57	0.00041
3434.21	0.000265
3443.86	0.000258
3453.51	0.000333
3463.15	0.000278
3472.8	0.000221
3482.45	0.00036
3492.09	7.2e-05
3501.74	0.000273
3511.39	0.0002
3521.03	0.000234
3530.68	0.000176
3540.33	0.000322
3549.97	0.000321
3559.62	0.000171
3569.26	0.000202
3578.91	0.000114
3588.56	0.000244
3598.2	0.000161
3607.85	0.000316
3617.5	0.000224
3627.14	0.000238
3636.79	0
3646.44	0.000201
3656.08	0.000241
3665.73	0.000183
3675.38	0.00025
3685.02	0.00042
3694.67	0.000332
3704.32	0.000338
3713.96	0.000256
3723.61	0.000309
3733.26	0.000186
3742.9	0.000364
3752.55	0.000271
3762.2	0.000279
3771.84	0.000271
3781.49	0.000337
3791.13	0.000184
3800.78	0.000123
3810.43	0.00026
3820.07	0.000273
3829.72	0.000308
3839.37	0.000326
3849.01	0.000343
3858.66	0.000325
3868.31	0.000427
3877.95	0.000382
3887.6	0.0005746
3897.25	0.000583
3906.89	0.0005956
3916.54	0.000582
3926.19	0.0006382
3935.83	0.0005744
3945.48	0.0005996
3955.13	0.000466
3964.77	0.0005531
3974.42	0.000364
3984.07	0.000454
3993.71	0.000337
