Infrared Spectrum: DROMOSTANOLONE, PROPIONATE
Formula: C23 H36 O3
CAS: 7438-48-4
State: SOLID (KBr DISC)
Class: COBLENTZ III
Instrument: PERKIN-ELMER 21 (GRATING)
Instrument parameters: NaCl PRISM
Sampling: TRANSMISSION
Resolution: 2
MICROMETERS	TRANSMITTANCE
2.007	0.922
2.04085	0.922
2.07469	0.923
2.10854	0.926
2.14239	0.928
2.17624	0.928
2.21008	0.928
2.24393	0.93
2.27778	0.928
2.31163	0.918
2.34547	0.915
2.37932	0.918
2.41317	0.923
2.44702	0.925
2.48086	0.923
2.51471	0.928
2.54856	0.929
2.58241	0.93
2.61625	0.932
2.6501	0.932
2.68395	0.933
2.7178	0.935
2.75164	0.933
2.78549	0.93
2.81934	0.915
2.85318	0.894
2.88703	0.874
2.92088	0.87
2.95473	0.888
2.98857	0.907
3.02242	0.912
3.05627	0.915
3.09012	0.915
3.12396	0.915
3.15781	0.915
3.19166	0.912
3.22551	0.902
3.25935	0.883
3.2932	0.757
3.32705	0.418
3.3609	0.301
3.39474	0.25
3.42859	0.314
3.46244	0.497
3.49629	0.435
3.53013	0.732
3.56398	0.871
3.59783	0.901
3.63168	0.904
3.66552	0.912
3.69937	0.919
3.73322	0.921
3.76706	0.922
3.80091	0.925
3.83476	0.929
3.86861	0.933
3.90245	0.938
3.9363	0.942
3.97015	0.943
4.004	0.945
4.03784	0.946
4.07169	0.945
4.10554	0.945
4.13939	0.945
4.17323	0.947
4.20708	0.947
4.24093	0.945
4.27478	0.945
4.30862	0.945
4.34247	0.947
4.37632	0.947
4.41017	0.95
4.44401	0.95
4.47786	0.95
4.51171	0.953
4.54555	0.953
4.5794	0.953
4.61325	0.953
4.6471	0.952
4.68094	0.95
4.71479	0.95
4.74864	0.949
4.78249	0.949
4.81633	0.947
4.85018	0.949
4.88403	0.95
4.91788	0.952
4.95172	0.95
4.98557	0.95
5.01942	0.95
5.05327	0.952
5.08711	0.952
5.12096	0.952
5.15481	0.95
5.18866	0.949
5.2225	0.95
5.25635	0.95
5.2902	0.949
5.32405	0.949
5.35789	0.947
5.39174	0.945
5.42559	0.939
5.45943	0.929
5.49328	0.923
5.52713	0.905
5.56098	0.873
5.59482	0.826
5.62867	0.749
5.66252	0.622
5.69637	0.295
5.73021	0.153
5.76406	0.321
5.79791	0.121
5.83176	0.181
5.8656	0.64
5.89945	0.774
5.9333	0.828
5.96715	0.849
6.00099	0.878
6.03484	0.891
6.06869	0.898
6.10254	0.905
6.13638	0.907
6.17023	0.908
6.20408	0.925
6.23792	0.923
6.27177	0.926
6.30562	0.93
6.33947	0.933
6.37331	0.939
6.40716	0.946
6.44101	0.945
6.47486	0.945
6.5087	0.94
6.54255	0.933
6.5764	0.925
6.61025	0.902
6.64409	0.894
6.67794	0.871
6.71179	0.849
6.74564	0.74
6.77948	0.587
6.81333	0.529
6.84718	0.528
6.88103	0.556
6.91487	0.629
6.94872	0.708
6.98257	0.77
7.01641	0.832
7.05026	0.857
7.08411	0.857
7.11796	0.776
7.1518	0.578
7.18565	0.616
7.2195	0.608
7.25335	0.671
7.28719	0.666
7.32104	0.678
7.35489	0.732
7.38874	0.723
7.42258	0.705
7.45643	0.68
7.49028	0.66
7.52413	0.698
7.55797	0.77
7.59182	0.778
7.62567	0.785
7.65952	0.798
7.69336	0.735
7.72721	0.657
7.76106	0.602
7.79491	0.528
7.82875	0.521
7.8626	0.547
7.89645	0.58
7.93029	0.602
7.96414	0.592
7.99799	0.519
8.03184	0.473
8.06568	0.452
8.09953	0.425
8.13338	0.384
8.16723	0.384
8.20107	0.378
8.23492	0.37
8.26877	0.428
8.30262	0.446
8.33646	0.44
8.37031	0.367
8.40416	0.332
8.43801	0.292
8.47185	0.336
8.5057	0.452
8.53955	0.553
8.5734	0.63
8.60724	0.695
8.64109	0.708
8.67494	0.721
8.70878	0.754
8.74263	0.778
8.77648	0.767
8.81033	0.654
8.84417	0.643
8.87802	0.698
8.91187	0.719
8.94572	0.745
8.97956	0.766
9.01341	0.712
9.04726	0.722
9.08111	0.75
9.11495	0.766
9.1488	0.702
9.18265	0.6
9.2165	0.561
9.25034	0.528
9.28419	0.521
9.31804	0.574
9.35189	0.639
9.38573	0.697
9.41958	0.736
9.45343	0.742
9.48728	0.691
9.52112	0.639
9.55497	0.63
9.58882	0.63
9.62266	0.556
9.65651	0.477
9.69036	0.474
9.72421	0.515
9.75805	0.585
9.7919	0.669
9.82575	0.692
9.8596	0.67
9.89344	0.691
9.92729	0.75
9.96114	0.8
9.99499	0.8
10.0288	0.791
10.0627	0.76
10.0965	0.792
10.1304	0.819
10.1642	0.821
10.1981	0.811
10.2319	0.781
10.2658	0.784
10.2996	0.798
10.3335	0.812
10.3673	0.819
10.4012	0.83
10.435	0.836
10.4688	0.85
10.5027	0.86
10.5365	0.846
10.5704	0.835
10.6042	0.842
10.6381	0.877
10.6719	0.905
10.7058	0.922
10.7396	0.932
10.7735	0.935
10.8073	0.938
10.8412	0.938
10.875	0.938
10.9089	0.936
10.9427	0.93
10.9766	0.925
11.0104	0.915
11.0443	0.925
11.0781	0.922
11.112	0.877
11.1458	0.852
11.1796	0.86
11.2135	0.87
11.2473	0.873
11.2812	0.873
11.315	0.869
11.3489	0.864
11.3827	0.873
11.4166	0.901
11.4504	0.909
11.4843	0.922
11.5181	0.928
11.552	0.921
11.5858	0.922
11.6197	0.929
11.6535	0.932
11.6874	0.93
11.7212	0.925
11.7551	0.908
11.7889	0.885
11.8227	0.912
11.8566	0.926
11.8904	0.935
11.9243	0.936
11.9581	0.922
11.992	0.916
12.0258	0.914
12.0597	0.919
12.0935	0.925
12.1274	0.925
12.1612	0.926
12.1951	0.926
12.2289	0.922
12.2628	0.914
12.2966	0.905
12.3305	0.89
12.3643	0.883
12.3982	0.88
12.432	0.885
12.4658	0.892
12.4997	0.911
12.5335	0.923
12.5674	0.935
12.6012	0.939
12.6351	0.943
12.6689	0.949
12.7028	0.947
12.7366	0.943
12.7705	0.946
12.8043	0.946
12.8382	0.946
12.872	0.95
12.9059	0.956
12.9397	0.959
12.9736	0.957
13.0074	0.952
13.0413	0.953
13.0751	0.954
13.1089	0.942
13.1428	0.935
13.1766	0.919
13.2105	0.88
13.2443	0.895
13.2782	0.926
13.312	0.929
13.3459	0.94
13.3797	0.947
13.4136	0.946
13.4474	0.945
13.4813	0.939
13.5151	0.928
13.549	0.918
13.5828	0.914
13.6167	0.911
13.6505	0.914
13.6844	0.922
13.7182	0.926
13.752	0.932
13.7859	0.939
13.8197	0.943
13.8536	0.938
13.8874	0.94
13.9213	0.946
13.9551	0.947
13.989	0.942
14.0228	0.947
14.0567	0.947
14.0905	0.949
14.1244	0.949
14.1582	0.949
14.1921	0.949
14.2259	0.947
14.2598	0.945
14.2936	0.94
14.3275	0.936
14.3613	0.932
14.3951	0.926
14.429	0.923
14.4628	0.926
14.4967	0.928
14.5305	0.926
14.5644	0.925
14.5982	0.929
14.6321	0.93
14.6659	0.932
14.6998	0.933
14.7336	0.938
14.7675	0.938
14.8013	0.936
14.8352	0.936
14.869	0.936
14.9029	0.925
