Infrared Spectrum: PROPANOL, 3-[[(1,4-BENZODIOXAN-2-YL)METHYL]AMINO]-
Formula: C12 H17 N O3
CAS: 74398-46-2
State: LIQUID (NEAT)
Class: COBLENTZ III
Instrument: PERKIN-ELMER 21 (GRATING)
Instrument parameters: NaCl PRISM
Sampling: TRANSMISSION
Resolution: 2
Origin: SMITH KLINE & FRENCH LABS.
MICROMETERS	TRANSMITTANCE
1.998	0.681
2.03223	0.681
2.06646	0.673
2.10069	0.67
2.13492	0.676
2.16915	0.682
2.20338	0.689
2.23761	0.691
2.27184	0.691
2.30607	0.684
2.3403	0.685
2.37453	0.687
2.40876	0.691
2.44299	0.713
2.47721	0.713
2.51144	0.717
2.54567	0.72
2.5799	0.734
2.61413	0.736
2.64836	0.736
2.68259	0.748
2.71682	0.746
2.75105	0.742
2.78528	0.724
2.81951	0.687
2.85374	0.621
2.88797	0.565
2.9222	0.501
2.95643	0.431
2.99066	0.369
3.02489	0.308
3.05912	0.158
3.09335	0.159
3.12758	0.176
3.16181	0.164
3.19604	0.168
3.23027	0.189
3.2645	0.201
3.29873	0.224
3.33296	0.314
3.36719	0.287
3.40142	0.141
3.43564	0.101
3.46987	0.086
3.5041	0.073
3.53833	0.082
3.57256	0.204
3.60679	0.301
3.64102	0.396
3.67525	0.439
3.70948	0.496
3.74371	0.53
3.77794	0.542
3.81217	0.601
3.8464	0.609
3.88063	0.63
3.91486	0.641
3.94909	0.645
3.98332	0.679
4.01755	0.713
4.05178	0.745
4.08601	0.753
4.12024	0.77
4.15447	0.776
4.1887	0.782
4.22293	0.786
4.25716	0.792
4.29139	0.792
4.32562	0.789
4.35984	0.807
4.39407	0.845
4.4283	0.84
4.46253	0.832
4.49676	0.835
4.53099	0.842
4.56522	0.852
4.59945	0.859
4.63368	0.86
4.66791	0.862
4.70214	0.859
4.73637	0.862
4.7706	0.856
4.80483	0.853
4.83906	0.84
4.87329	0.804
4.90752	0.828
4.94175	0.835
4.97598	0.825
5.01021	0.831
5.04444	0.858
5.07867	0.858
5.1129	0.864
5.14713	0.859
5.18136	0.848
5.21559	0.862
5.24982	0.83
5.28405	0.835
5.31827	0.854
5.3525	0.85
5.38673	0.854
5.42096	0.868
5.45519	0.871
5.48942	0.867
5.52365	0.871
5.55788	0.869
5.59211	0.829
5.62634	0.852
5.66057	0.871
5.6948	0.886
5.72903	0.9
5.76326	0.9
5.79749	0.886
5.83172	0.873
5.86595	0.865
5.90018	0.851
5.93441	0.852
5.96864	0.856
6.00287	0.845
6.0371	0.837
6.07133	0.84
6.10556	0.824
6.13979	0.81
6.17402	0.753
6.20825	0.525
6.24247	0.423
6.2767	0.142
6.31093	0.478
6.34516	0.721
6.37939	0.748
6.41362	0.779
6.44785	0.784
6.48208	0.765
6.51631	0.684
6.55054	0.603
6.58477	0.508
6.619	0.36
6.65323	0.087
6.68746	0.042
6.72169	0.047
6.75592	0.121
6.79015	0.198
6.82438	0.178
6.85861	0.218
6.89284	0.313
6.92707	0.32
6.9613	0.332
6.99553	0.315
7.02976	0.381
7.06399	0.531
7.09822	0.619
7.13245	0.564
7.16668	0.478
7.2009	0.459
7.23513	0.53
7.26936	0.413
7.30359	0.551
7.33782	0.609
7.37205	0.598
7.40628	0.557
7.44051	0.456
7.47474	0.237
7.50897	0.543
7.5432	0.589
7.57743	0.55
7.61166	0.507
7.64589	0.231
7.68012	0.178
7.71435	0.203
7.74858	0.162
7.78281	0.104
7.81704	0.068
7.85127	0.052
7.8855	0.036
7.91973	0.034
7.95396	0.039
7.98819	0.048
8.02242	0.048
8.05665	0.11
8.09088	0.301
8.1251	0.425
8.15933	0.464
8.19356	0.401
8.22779	0.503
8.26202	0.514
8.29625	0.308
8.33048	0.358
8.36471	0.486
8.39894	0.591
8.43317	0.623
8.4674	0.665
8.50163	0.739
8.53586	0.789
8.57009	0.809
8.60432	0.819
8.63855	0.792
8.67278	0.68
8.70701	0.374
8.74124	0.536
8.77547	0.637
8.8097	0.607
8.84393	0.528
8.87816	0.508
8.91239	0.448
8.94662	0.263
8.98085	0.148
9.01508	0.141
9.04931	0.152
9.08353	0.267
9.11776	0.3
9.15199	0.198
9.18622	0.163
9.22045	0.059
9.25468	0.071
9.28891	0.119
9.32314	0.132
9.35737	0.067
9.3916	0.067
9.42583	0.135
9.46006	0.15
9.49429	0.148
9.52852	0.17
9.56275	0.076
9.59698	0.043
9.63121	0.085
9.66544	0.178
9.69967	0.193
9.7339	0.179
9.76813	0.193
9.80236	0.209
9.83659	0.341
9.87082	0.436
9.90505	0.55
9.93928	0.603
9.97351	0.657
10.0077	0.687
10.042	0.703
10.0762	0.714
10.1104	0.718
10.1447	0.724
10.1789	0.704
10.2131	0.687
10.2473	0.679
10.2816	0.648
10.3158	0.602
10.35	0.57
10.3843	0.587
10.4185	0.57
10.4527	0.491
10.4869	0.371
10.5212	0.212
10.5554	0.151
10.5896	0.136
10.6239	0.207
10.6581	0.337
10.6923	0.373
10.7266	0.413
10.7608	0.417
10.795	0.315
10.8292	0.185
10.8635	0.151
10.8977	0.178
10.9319	0.21
10.9662	0.267
11.0004	0.34
11.0346	0.402
11.0689	0.451
11.1031	0.463
11.1373	0.481
11.1715	0.481
11.2058	0.448
11.24	0.41
11.2742	0.371
11.3085	0.304
11.3427	0.31
11.3769	0.353
11.4112	0.256
11.4454	0.157
11.4796	0.107
11.5138	0.113
11.5481	0.197
11.5823	0.262
11.6165	0.337
11.6508	0.369
11.685	0.362
11.7192	0.235
11.7534	0.159
11.7877	0.145
11.8219	0.195
11.8561	0.296
11.8904	0.36
11.9246	0.404
11.9588	0.445
11.9931	0.473
12.0273	0.491
12.0615	0.506
12.0957	0.484
12.13	0.495
12.1642	0.496
12.1984	0.482
12.2327	0.473
12.2669	0.442
12.3011	0.4
12.3354	0.382
12.3696	0.381
12.4038	0.409
12.438	0.424
12.4723	0.437
12.5065	0.454
12.5407	0.479
12.575	0.493
12.6092	0.524
12.6434	0.537
12.6776	0.554
12.7119	0.573
12.7461	0.573
12.7803	0.563
12.8146	0.546
12.8488	0.498
12.883	0.423
12.9173	0.292
12.9515	0.24
12.9857	0.274
13.0199	0.309
13.0542	0.24
13.0884	0.139
13.1226	0.073
13.1569	0.075
13.1911	0.065
13.2253	0.052
13.2596	0.058
13.2938	0.087
13.328	0.131
13.3622	0.163
13.3965	0.184
13.4307	0.25
13.4649	0.329
13.4992	0.398
13.5334	0.489
13.5676	0.576
13.6018	0.636
13.6361	0.654
13.6703	0.669
13.7045	0.684
13.7388	0.693
13.773	0.698
13.8072	0.708
13.8415	0.718
13.8757	0.726
13.9099	0.713
13.9441	0.709
13.9784	0.719
14.0126	0.731
14.0468	0.737
14.0811	0.739
14.1153	0.736
14.1495	0.729
14.1838	0.721
14.218	0.715
14.2522	0.707
14.2864	0.71
14.3207	0.717
14.3549	0.728
14.3891	0.747
14.4234	0.758
14.4576	0.764
14.4918	0.77
14.526	0.78
14.5603	0.785
14.5945	0.786
14.6287	0.789
14.663	0.79
14.6972	0.789
14.7314	0.791
14.7657	0.789
14.7999	0.78
14.8341	0.76
14.8683	0.743
14.9026	0.712
14.9368	0.681
14.971	0.663
15.0053	0.67
15.0395	0.7
15.0737	0.731
15.108	0.737
15.1422	0.736
15.1764	0.75
