Infrared Spectrum: Diphenylisophthalate
Formula: C 20 H 14 O 4
CAS: 744-45-6
State: gas
Origin: EPA-IR VAPOR PHASE LIBRARY
1/CM	ABSORBANCE
549.9	0.001117
559.547	0.00117162
569.193	0.00241
578.84	0.00246
588.486	0.0017319
598.133	0.0012888
607.779	0.0011038
617.426	0.0011043
627.072	0.00124316
636.719	0.00124327
646.365	0.0016084
656.012	0.00287
665.658	0.00348
675.305	0.00499
684.951	0.00802
694.598	0.0062
704.245	0.00827
713.891	0.01275
723.538	0.01657
733.184	0.01143
742.831	0.00953
752.477	0.00915
762.124	0.0068
771.77	0.00419
781.417	0.00313
791.063	0.00305
800.71	0.00382
810.356	0.00471
820.003	0.00532
829.649	0.00495
839.296	0.00354
848.943	0.00244
858.589	0.0022
868.236	0.00284
877.882	0.00466
887.529	0.00533
897.175	0.00374
906.822	0.00393
916.468	0.00487
926.115	0.00358
935.761	0.0029
945.408	0.00232
955.054	0.0020701
964.701	0.0020313
974.347	0.0019318
983.994	0.0021102
993.64	0.00312
1003.29	0.00557
1012.93	0.00471
1022.58	0.00598
1032.23	0.00443
1041.87	0.00571
1051.52	0.01405
1061.17	0.02999
1070.81	0.02396
1080.46	0.0235
1090.11	0.01683
1099.75	0.00881
1109.4	0.00684
1119.05	0.00533
1128.69	0.00511
1138.34	0.00631
1147.99	0.00992
1157.63	0.02863
1167.28	0.04602
1176.92	0.03716
1186.57	0.09534
1196.22	0.16574
1205.86	0.11271
1215.51	0.11302
1225.16	0.04332
1234.8	0.02235
1244.45	0.01441
1254.1	0.01142
1263.74	0.01146
1273.39	0.01563
1283.04	0.02767
1292.68	0.03959
1302.33	0.02181
1311.98	0.00972
1321.62	0.00707
1331.27	0.00548
1340.92	0.00462
1350.56	0.00409
1360.21	0.00351
1369.86	0.00319
1379.5	0.003
1389.15	0.00286
1398.79	0.00265
1408.44	0.00271
1418.09	0.00302
1427.73	0.00432
1437.38	0.00477
1447.03	0.0034
1456.67	0.00386
1466.32	0.00544
1475.97	0.00935
1485.61	0.01488
1495.26	0.03256
1504.91	0.00711
1514.55	0.00358
1524.2	0.00297
1533.85	0.0027
1543.49	0.0027
1553.14	0.00285
1562.79	0.00323
1572.43	0.00485
1582.08	0.00913
1591.73	0.01472
1601.37	0.00917
1611.02	0.00437
1620.67	0.00269
1630.31	0.00227
1639.96	0.002134
1649.6	0.0020314
1659.25	0.0021301
1668.9	0.0020909
1678.54	0.0020249
1688.19	0.00226
1697.84	0.00261
1707.48	0.00342
1717.13	0.00471
1726.78	0.006
1736.42	0.00818
1746.07	0.01606
1755.72	0.06337
1765.36	0.04162
1775.01	0.01473
1784.66	0.00862
1794.3	0.00584
1803.95	0.00413
1813.6	0.00311
1823.24	0.00247
1832.89	0.0020869
1842.54	0.0020364
1852.18	0.0020356
1861.83	0.0020744
1871.47	0.0020309
1881.12	0.0019638
1890.77	0.0017879
1900.41	0.0017778
1910.06	0.0019355
1919.71	0.00223
1929.35	0.00233
1939	0.0020382
1948.65	0.00222
1958.29	0.0019054
1967.94	0.0018485
1977.59	0.0018651
1987.23	0.0019029
1996.88	0.001901
2006.53	0.0018293
2016.17	0.0018323
2025.82	0.0018261
2035.47	0.0016844
2045.11	0.0014985
2054.76	0.0013857
2064.41	0.0012897
2074.05	0.0012966
2083.7	0.00122247
2093.35	0.00122479
2102.99	0.00124029
2112.64	0.001307
2122.28	0.0012791
2131.93	0.00124116
2141.58	0.00123764
2151.22	0.00124533
2160.87	0.0012583
2170.52	0.00122959
2180.16	0.00121414
2189.81	0.001124
2199.46	0.00114621
2209.1	0.0010774
2218.75	0.0010874
2228.4	0.0010602
2238.04	0.0010699
2247.69	0.0010999
2257.34	0.00114419
2266.98	0.00115853
2276.63	0.00117131
2286.28	0.00124695
2295.92	0.00122513
2305.57	0.00122144
2315.22	0.001356
2324.86	0.0012798
2334.51	0.00122796
2344.16	0.0012844
2353.8	0.0012846
2363.45	0.0012662
2373.09	0.00123544
2382.74	0.00127
2392.39	0.0012728
2402.03	0.00120207
2411.68	0.00114262
2421.33	0.0010851
2430.97	0.001016
2440.62	0.001019
2450.27	0.001007
2459.91	0.000956
2469.56	0.000957
2479.21	0.000972
2488.85	0.001003
2498.5	0.000977
2508.15	0.000927
2517.79	0.000898
2527.44	0.00086
2537.09	0.000872
2546.73	0.000841
2556.38	0.000866
2566.03	0.000933
2575.67	0.000901
2585.32	0.000931
2594.96	0.000864
2604.61	0.000806
2614.26	0.000786
2623.9	0.000836
2633.55	0.0008
2643.2	0.000747
2652.84	0.000739
2662.49	0.000785
2672.14	0.000672
2681.78	0.000726
2691.43	0.000708
2701.08	0.000683
2710.72	0.000752
2720.37	0.000704
2730.02	0.000642
2739.66	0.0007
2749.31	0.000675
2758.96	0.000651
2768.6	0.000651
2778.25	0.000634
2787.9	0.000561
2797.54	0.00049
2807.19	0.000469
2816.84	0.000569
2826.48	0.000509
2836.13	0.000526
2845.77	0.000529
2855.42	0.000536
2865.07	0.000691
2874.71	0.000532
2884.36	0.00058
2894.01	0.000565
2903.65	0.000638
2913.3	0.00047
2922.95	0.000445
2932.59	0.000514
2942.24	0.000337
2951.89	0.000433
2961.53	0.000501
2971.18	0.000352
2980.83	0.000353
2990.47	0.00032
3000.12	0.000391
3009.77	0.000616
3019.41	0.00115586
3029.06	0.0018191
3038.71	0.00326
3048.35	0.00527
3058	0.0038
3067.64	0.0043
3077.29	0.00722
3086.94	0.00677
3096.58	0.00333
3106.23	0.00268
3115.88	0.00117356
3125.52	0.000574
3135.17	0.000338
3144.82	0.000448
3154.46	0.0003
3164.11	0.00023
3173.76	0.000225
3183.4	0.000352
3193.05	0.000424
3202.7	0.000243
3212.34	0.000281
3221.99	0.000365
3231.64	0.00028
3241.28	0.000307
3250.93	0.000426
3260.58	0.000332
3270.22	0.000258
3279.87	0.000282
3289.52	0.0001
3299.16	0.000254
3308.81	0.000294
3318.45	0.000296
3328.1	0.000236
3337.75	0.000491
3347.39	0.000535
3357.04	0.000353
3366.69	0.000318
3376.33	0.000454
3385.98	0.000492
3395.63	0.000468
3405.27	0.000424
3414.92	0.000427
3424.57	0.000388
3434.21	0.00054
3443.86	0.000545
3453.51	0.00048
3463.15	0.000535
3472.8	0.00067
3482.45	0.000649
3492.09	0.001033
3501.74	0.000958
3511.39	0.000687
3521.03	0.000815
3530.68	0.000673
3540.33	0.000728
3549.97	0.000733
3559.62	0.000481
3569.26	0.000654
3578.91	0.000547
3588.56	0.000691
3598.2	0.00047
3607.85	0.000622
3617.5	0.000622
3627.14	0.000789
3636.79	0.000723
3646.44	0.000584
3656.08	0.000758
3665.73	0.000681
3675.38	0.000668
3685.02	0.000748
3694.67	0.00071
3704.32	0.000723
3713.96	0.000608
3723.61	0.000661
3733.26	0.000765
3742.9	0.000611
3752.55	0.000754
3762.2	0.000681
3771.84	0.000733
3781.49	0.000764
3791.13	0.000823
3800.78	0.000657
3810.43	0.000832
3820.07	0.000574
3829.72	0.000751
3839.37	0.0007
3849.01	0.000777
3858.66	0.000749
3868.31	0.000735
3877.95	0.000824
3887.6	0.000585
3897.25	0.000686
3906.89	0.000629
3916.54	0.000633
3926.19	0.000659
3935.83	0.0006
3945.48	0.000637
3955.13	0.00054
3964.77	0.00074
3974.42	0.000624
3984.07	0.00064
3993.71	0.000663
