Infrared Spectrum: p-Methoxybenzylidene p-phenylazoaniline
Formula: C 20 H 17 N 3 O
CAS: 744-66-1
State: gas
Origin: EPA-IR VAPOR PHASE LIBRARY
1/CM	ABSORBANCE
549.8	0.002415
559.445	0.002705
569.09	0.002885
578.734	0.002815
588.379	0.001145
598.024	0.0007805
607.669	0.0003788
617.313	0.000515
626.958	0.0006919
636.603	0.0006473
646.248	0.0003847
655.893	0.0007464
665.537	0.0011033
675.182	0.001335
684.827	0.002525
694.472	0.001925
704.116	0.001245
713.761	0.0006397
723.406	0.0007125
733.051	0.0009648
742.695	0.001185
752.34	0.001815
761.985	0.002505
771.63	0.001985
781.275	0.0011108
790.919	0.0010258
800.564	0.0008672
810.209	0.001635
819.854	0.002675
829.498	0.003735
839.143	0.005625
848.788	0.004425
858.433	0.002335
868.078	0.001945
877.722	0.002545
887.367	0.003445
897.012	0.001995
906.657	0.001265
916.301	0.001215
925.946	0.0009787
935.591	0.0010682
945.236	0.0008366
954.88	0.0011052
964.525	0.0010915
974.17	0.0009556
983.815	0.001275
993.46	0.001315
1003.1	0.001805
1012.75	0.002495
1022.39	0.003005
1032.04	0.003585
1041.68	0.003955
1051.33	0.002335
1060.97	0.001415
1070.62	0.001925
1080.26	0.0007036
1089.91	0.001335
1099.55	0.001945
1109.2	0.001785
1118.84	0.001895
1128.49	0.002325
1138.13	0.006305
1147.78	0.006285
1157.42	0.010235
1167.07	0.021215
1176.71	0.004905
1186.36	0.006235
1196	0.004635
1205.64	0.002665
1215.29	0.003625
1224.93	0.004025
1234.58	0.007075
1244.22	0.013735
1253.87	0.018475
1263.51	0.008985
1273.16	0.004955
1282.8	0.004095
1292.45	0.005285
1302.09	0.007245
1311.74	0.003975
1321.38	0.001855
1331.03	0.001395
1340.67	0.001245
1350.32	0.0010285
1359.96	0.0010514
1369.61	0.0009764
1379.25	0.000836
1388.9	0.0009048
1398.54	0.0010379
1408.18	0.001905
1417.83	0.003385
1427.47	0.002065
1437.12	0.001725
1446.76	0.002885
1456.41	0.002205
1466.05	0.003375
1475.7	0.003635
1485.34	0.005205
1494.99	0.006195
1504.63	0.009365
1514.28	0.015275
1523.92	0.003995
1533.57	0.002245
1543.21	0.001805
1552.86	0.002265
1562.5	0.003975
1572.15	0.011335
1581.79	0.014155
1591.44	0.019055
1601.08	0.013375
1610.73	0.009945
1620.37	0.006465
1630.01	0.010915
1639.66	0.008025
1649.3	0.003625
1658.95	0.002105
1668.59	0.001555
1678.24	0.001355
1687.88	0.001051
1697.53	0.0008723
1707.17	0.0007622
1716.82	0.0007041
1726.46	0.0006649
1736.11	0.0006336
1745.75	0.0006595
1755.4	0.0006525
1765.04	0.00071
1774.69	0.0006857
1784.33	0.0005319
1793.98	0.000633
1803.62	0.000532
1813.27	0.0004893
1822.91	0.0005189
1832.55	0.0004237
1842.2	0.0004378
1851.84	0.0004152
1861.49	0.000449
1871.13	0.000518
1880.78	0.0006328
1890.42	0.0006771
1900.07	0.0007008
1909.71	0.0006101
1919.36	0.0006277
1929	0.0006735
1938.65	0.0007103
1948.29	0.0006006
1957.94	0.0005846
1967.58	0.0004746
1977.23	0.0004587
1986.87	0.0005389
1996.52	0.000535
2006.16	0.0005483
2015.81	0.0006556
2025.45	0.000553
2035.1	0.0005191
2044.74	0.000613
2054.38	0.0006315
2064.03	0.0005914
2073.67	0.0006392
2083.32	0.0004943
2092.96	0.0004746
2102.61	0.0004365
2112.25	0.0003797
2121.9	0.0002848
2131.54	0.0003216
2141.19	0.0002958
2150.83	0.0002693
2160.48	0.000292
2170.12	0.0002861
2179.77	0.0003499
2189.41	0.0003219
2199.06	0.0002809
2208.7	0.000274
2218.35	0.0002492
2227.99	0.0003139
2237.64	0.0003164
2247.28	0.0002843
2256.92	0.0003891
2266.57	0.0003338
2276.21	0.0004339
2285.86	0.000347
2295.5	0.0002529
2305.15	0.0003952
2314.79	0.0003837
2324.44	0.0003075
2334.08	0.0002638
2343.73	0.00018498
2353.37	0.0003052
2363.02	0.0002658
2372.66	0.0003243
2382.31	0.0003816
2391.95	0.0003402
2401.6	0.0002989
2411.24	0.0003745
2420.89	0.000276
2430.53	0.0003759
2440.18	0.0004179
2449.82	0.0003785
2459.47	0.000536
2469.11	0.0004279
2478.75	0.0003878
2488.4	0.0004762
2498.04	0.0004479
2507.69	0.0005464
2517.33	0.0005002
2526.98	0.0004843
2536.62	0.0005774
2546.27	0.0006783
2555.91	0.0006926
2565.56	0.0006206
2575.2	0.0005014
2584.85	0.0005477
2594.49	0.0004913
2604.14	0.0004461
2613.78	0.0004882
2623.43	0.0004856
2633.07	0.0003576
2642.72	0.0003436
2652.36	0.0004166
2662.01	0.0002444
2671.65	0.00021384
2681.29	0.0002412
2690.94	0.0002352
2700.58	0.0003248
2710.23	0.0003465
2719.87	0.0004957
2729.52	0.0004073
2739.16	0.0003754
2748.81	0.0005235
2758.45	0.0003906
2768.1	0.0004212
2777.74	0.0005398
2787.39	0.0004711
2797.03	0.0004535
2806.68	0.0005739
2816.32	0.0007329
2825.97	0.0008473
2835.61	0.001265
2845.26	0.002675
2854.9	0.002065
2864.55	0.001735
2874.19	0.001615
2883.84	0.001405
2893.48	0.001385
2903.12	0.001245
2912.77	0.001545
2922.41	0.001525
2932.06	0.001625
2941.7	0.002295
2951.35	0.002455
2960.99	0.002165
2970.64	0.001595
2980.28	0.001315
2989.93	0.001185
2999.57	0.001535
3009.22	0.002485
3018.86	0.001895
3028.51	0.001825
3038.15	0.002465
3047.8	0.002365
3057.44	0.002365
3067.09	0.003055
3076.73	0.004435
3086.38	0.002635
3096.02	0.001935
3105.67	0.001165
3115.31	0.0006857
3124.95	0.0004161
3134.6	0.0004859
3144.24	0.0005965
3153.89	0.0003564
3163.53	0.0004098
3173.18	0.0003775
3182.82	0.0003667
3192.47	0.0004373
3202.11	0.0003766
3211.76	0.0002203
3221.4	0.0003061
3231.05	0.0002455
3240.69	0.0004882
3250.34	0.0003796
3259.98	0.0003034
3269.63	0.0002441
3279.27	0.0003205
3288.92	0.0002309
3298.56	0.00015812
3308.21	0.00010878
3317.85	0.00010658
3327.49	0.0002405
3337.14	0.000120548
3346.78	0.0003779
3356.43	0.0002164
3366.07	0.0003471
3375.72	0.0002801
3385.36	0.0003015
3395.01	0.0003188
3404.65	0.0003466
3414.3	0.00021417
3423.94	0.00018904
3433.59	0.00013076
3443.23	0.00021333
3452.88	0.0001487
3462.52	0.00015794
3472.17	0.00016759
3481.81	0.0003259
3491.46	0.00014334
3501.1	0.00015922
3510.75	0.00017687
3520.39	0.0002349
3530.04	0.00019041
3539.68	0.00016778
3549.32	0.00017786
3558.97	0.00017803
3568.61	0.0002351
3578.26	0.0002633
3587.9	0.0002751
3597.55	0.0002317
3607.19	0.0004175
3616.84	0.000232
3626.48	2.7e-05
3636.13	0.0002168
3645.77	0.0002405
3655.42	0.0002916
3665.06	0.00010864
3674.71	0.00019242
3684.35	5.52e-05
3694	0.0002741
3703.64	0.00015157
3713.29	0.000122348
3722.93	0.0003659
3732.58	0.00013439
3742.22	0.0002462
3751.86	0.00014828
3761.51	0.0002437
3771.15	0.0002464
3780.8	0.000286
3790.44	0.0003678
3800.09	0.00017144
3809.73	0.0003884
3819.38	0.00016847
3829.02	0.0002474
3838.67	0.0003387
3848.31	0.0002878
3857.96	0.000239
3867.6	0.0003262
3877.25	0.0003458
3886.89	0.0002836
3896.54	0.00018836
3906.18	0.0002215
3915.83	0.0004559
3925.47	0.0003413
3935.12	0.000276
3944.76	0.0002196
3954.41	0.00020882
3964.05	0.000318
3973.69	0.00019633
3983.34	0.0003143
3992.98	0.000342
