Infrared Spectrum: Bismuth
Formula: Bi
CAS: 7440-69-9
State: solid
Instrument: Bruker Tensor 37 FTIR
Resolution: 0.96450084
Origin: Pacific Northwest National Laboratory Under IARPA Contract
1/cm	Reflectance
7498.99	0.0849783
7481.63	0.0843427
7464.27	0.0843526
7446.91	0.0836656
7429.55	0.0831571
7412.19	0.0827174
7394.84	0.0827383
7377.48	0.0821836
7360.12	0.0815271
7342.76	0.0812088
7325.4	0.0812862
7308.04	0.0815015
7290.68	0.0811935
7273.32	0.0807121
7255.96	0.0802161
7238.6	0.079791
7221.24	0.0792137
7203.88	0.0789101
7186.52	0.0785431
7169.16	0.0784612
7151.8	0.078369
7134.44	0.0780949
7117.08	0.077543
7099.72	0.0770973
7082.36	0.0764796
7065	0.0762179
7047.64	0.076246
7030.28	0.0762417
7012.92	0.0760062
6995.56	0.0754009
6978.2	0.0747672
6960.84	0.0743551
6943.48	0.0739913
6926.12	0.074048
6908.76	0.0736495
6891.4	0.0732732
6874.04	0.072584
6856.68	0.072856
6839.32	0.0726411
6821.96	0.0722873
6804.6	0.0719001
6787.24	0.0719396
6769.88	0.0721546
6752.52	0.0717237
6735.16	0.0715149
6717.8	0.0708688
6700.44	0.0708133
6683.08	0.0702811
6665.72	0.0700603
6648.36	0.069995
6631	0.0698864
6613.64	0.0698135
6596.28	0.0696184
6578.92	0.0695118
6561.56	0.0689798
6544.2	0.0685687
6526.85	0.0684866
6509.49	0.0682523
6492.13	0.0678949
6474.77	0.0673775
6457.41	0.0672521
6440.05	0.0670041
6422.69	0.0668697
6405.33	0.0668805
6387.97	0.0667417
6370.61	0.0664937
6353.25	0.0660295
6335.89	0.065815
6318.53	0.0655315
6301.17	0.065322
6283.81	0.0650641
6266.45	0.0648258
6249.09	0.0645796
6231.73	0.0642588
6214.37	0.0639145
6197.01	0.0636054
6179.65	0.063364
6162.29	0.0631951
6144.93	0.0629939
6127.57	0.0627411
6110.21	0.0624673
6092.85	0.0621834
6075.49	0.061922
6058.13	0.0615234
6040.77	0.0612792
6023.41	0.0610015
6006.05	0.0607682
5988.69	0.0606405
5971.33	0.0603514
5953.97	0.0600561
5936.61	0.0596458
5919.25	0.0593966
5901.89	0.0590862
5884.53	0.0588643
5867.17	0.0585767
5849.81	0.0583459
5832.45	0.0580028
5815.09	0.0578182
5797.73	0.0576109
5780.37	0.0574064
5763.01	0.0571396
5745.65	0.0568363
5728.29	0.0564728
5710.93	0.0560731
5693.57	0.0557495
5676.21	0.0555117
5658.86	0.0553316
5641.5	0.0550968
5624.14	0.0547081
5606.78	0.0541026
5589.42	0.0535242
5572.06	0.0529485
5554.7	0.0524736
5537.34	0.0520731
5519.98	0.0516159
5502.62	0.0497679
5485.26	0.048609
5467.9	0.0491733
5450.54	0.0492294
5433.18	0.0493758
5415.82	0.0494243
5398.46	0.0495121
5381.1	0.0495049
5363.74	0.0495212
5346.38	0.0494882
5329.02	0.0495187
5311.66	0.0495561
5294.3	0.0496033
5276.94	0.0494571
5259.58	0.0494002
5242.22	0.0491623
5224.86	0.0489008
5207.5	0.0486574
5190.14	0.048593
5172.78	0.0487303
5155.42	0.0489007
5138.06	0.0490569
5120.7	0.0491552
5103.34	0.0491978
5085.98	0.0492624
5068.62	0.0492305
5051.26	0.0491964
5033.9	0.0490853
5016.54	0.0490158
4999.18	0.049007
4981.82	0.0489266
4964.46	0.048895
4947.1	0.0488604
4929.74	0.0488101
4912.38	0.0487961
4895.02	0.0487326
4877.66	0.0486646
4860.3	0.0485395
4842.94	0.0484272
4825.58	0.048354
4808.22	0.0482067
4790.86	0.0479594
4773.51	0.0476143
4756.15	0.0472572
4738.79	0.046895
4721.43	0.0464372
4704.07	0.0459383
4686.71	0.0454017
4669.35	0.0448384
4651.99	0.0442445
4634.63	0.0430411
4617.27	0.0418561
4599.91	0.0408819
4582.55	0.0396011
4565.19	0.0386601
4547.83	0.0377362
4530.47	0.0356852
4513.11	0.0340871
4495.75	0.0319928
4478.39	0.0305684
4461.03	0.0361296
4443.67	0.0526072
4426.31	0.0474767
4408.95	0.0473686
4391.59	0.0441953
4374.23	0.0419974
4356.87	0.0410174
4339.51	0.0407125
4322.15	0.0407924
4304.79	0.0418535
4287.43	0.0438906
4270.07	0.0460067
4252.71	0.049296
4235.35	0.0538107
4217.99	0.0588623
4200.63	0.0648283
4183.27	0.0714896
4165.91	0.0694586
4148.55	0.0853585
4131.19	0.0989917
4113.83	0.113945
4096.47	0.130188
4079.11	0.148723
4061.75	0.164708
4044.39	0.0880649
4027.03	0.0882409
4009.67	0.088276
3992.31	0.0880914
3974.95	0.0875939
3957.59	0.0874007
3940.23	0.0870249
3922.87	0.0863525
3905.52	0.0861256
3888.16	0.0856769
3870.8	0.0849542
3853.44	0.084412
3836.08	0.0840884
3818.72	0.0840407
3801.36	0.0838371
3784	0.0833611
3766.64	0.0827081
3749.28	0.0823001
3731.92	0.0819675
3714.56	0.0814257
3697.2	0.0806721
3679.84	0.0805637
3662.48	0.080564
3645.12	0.0804691
3627.76	0.0801376
3610.4	0.0797972
3593.04	0.0793847
3575.68	0.0787512
3558.32	0.0782118
3540.96	0.0782866
3523.6	0.0783196
3506.24	0.0782329
3488.88	0.0780205
3471.52	0.0775806
3454.16	0.0771612
3436.8	0.0766952
3419.44	0.0764219
3402.08	0.0762769
3384.72	0.0761792
3367.36	0.0759794
3350	0.0758163
3332.64	0.0753691
3315.28	0.0752395
3297.92	0.0748092
3280.56	0.0745884
3263.2	0.0742074
3245.84	0.0740589
3228.48	0.0737998
3211.12	0.0734385
3193.76	0.0731812
3176.4	0.0731584
3159.04	0.0731848
3141.68	0.0729253
3124.32	0.0726743
3106.96	0.0724565
3089.6	0.0722714
3072.24	0.0719317
3054.88	0.0716748
3037.53	0.0714259
3020.17	0.0711839
3002.81	0.0708201
2985.45	0.0705274
2968.09	0.0702987
2950.73	0.0700949
2933.37	0.0698568
2916.01	0.0697428
2898.65	0.0694337
2881.29	0.0691454
2863.93	0.0688497
2846.57	0.0686181
2829.21	0.0683212
2811.85	0.0679862
2794.49	0.0677154
2777.13	0.0674302
2759.77	0.0671673
2742.41	0.0669164
2725.05	0.0666337
2707.69	0.0663732
2690.33	0.0660391
2672.97	0.0658272
2655.61	0.0655834
2638.25	0.0653717
2620.89	0.0650541
2603.53	0.0646894
2586.17	0.0642644
2568.81	0.0639561
2551.45	0.0636762
2534.09	0.0634352
2516.73	0.0631958
2499.37	0.0630023
2482.01	0.0626804
2464.65	0.0623619
2447.29	0.0620399
2429.93	0.0617809
2412.57	0.06151
2395.21	0.0612138
2377.85	0.0609502
2360.49	0.0606457
2343.13	0.0603507
2325.77	0.0599989
2308.41	0.0597163
2291.05	0.0594345
2273.69	0.0591491
2256.33	0.0588855
2238.97	0.0586024
2221.61	0.0582876
2204.25	0.0580248
2186.89	0.0577321
2169.53	0.0573128
2152.18	0.0566212
2134.82	0.0558925
2117.46	0.0552683
2100.1	0.0546736
2082.74	0.0539051
2065.38	0.0529004
2048.02	0.0511724
2030.66	0.0507134
2013.3	0.0510571
1995.94	0.0513259
1978.58	0.0514223
1961.22	0.0514908
1943.86	0.0515138
1926.5	0.0515065
1909.14	0.051446
1891.78	0.0513983
1874.42	0.0513759
1857.06	0.0513888
1839.7	0.051445
1822.34	0.0514211
1804.98	0.0512997
1787.62	0.051
1770.26	0.050724
1752.9	0.0506384
1735.54	0.0506109
1718.18	0.0507517
1700.82	0.0508545
1683.46	0.050976
1666.1	0.0510566
1648.74	0.0511598
1631.38	0.0512228
1614.02	0.0512072
1596.66	0.0511333
1579.3	0.0510844
1561.94	0.0510059
1544.58	0.050889
1527.22	0.050799
1509.86	0.0508016
1492.5	0.0508119
1475.14	0.0508216
1457.78	0.0507299
1440.42	0.0505808
1423.06	0.0504046
1405.7	0.0502763
1388.34	0.0501217
1370.98	0.0498954
1353.62	0.0496881
1336.26	0.0494511
1318.9	0.0491124
1301.54	0.048666
1284.19	0.048188
1266.83	0.0476948
1249.47	0.0471511
1232.11	0.0465798
1214.75	0.0459021
1197.39	0.0451477
1180.03	0.0439223
1162.67	0.0427184
1145.31	0.0415428
1127.95	0.0402219
1110.59	0.0392483
1093.23	0.0377347
1075.87	0.0361242
1058.51	0.0340676
1041.15	0.031674
1023.79	0.0314621
1006.43	0.0415249
989.068	0.0509516
971.709	0.0501687
954.349	0.0471012
936.989	0.0440212
919.629	0.0422262
902.269	0.0412422
884.91	0.041109
867.55	0.0411337
850.19	0.0426341
832.83	0.0445944
815.47	0.0474115
798.111	0.0512087
780.751	0.055661
763.391	0.0611929
746.031	0.067177
728.671	0.0783645
711.312	0.0755491
693.952	0.0900964
676.592	0.103632
659.232	0.119272
641.872	0.134994
624.513	0.154319
607.153	0.162779
