Infrared Spectrum: trans-3-Methylcyclohexanol
Formula: C 7 H 14 O
CAS: 7443-55-2
State: gas
Instrument: HP-GC/MS/IRD
Origin: NIST Mass Spectrometry Data Center
1/CM	ABSORBANCE
550	0.0006962
562	0.0003127
574	0.0003186
586	0.0001534
598	0.0001239
610	0.0002183
622	0.0002006
634	0.0002596
646	0.0001003
658	0.0002891
670	0.0004897
682	0.0006726
694	0.0005369
706	0.0002006
718	4.13e-05
730	1.77e-05
742	0.0001003
754	0.000177
766	0.0001829
778	0.0001475
790	0.0004012
802	0.0008968
814	0.0011564
826	0.0009086
838	0.0008319
850	0.0011564
862	0.0012744
874	0.0009971
886	0.0007375
898	0.0006077
910	0.0007198
922	0.0015694
934	0.0036993
946	0.0055224
958	0.0047377
970	0.0039943
982	0.0059944
994	0.0088205
1006	0.0070446
1018	0.0045548
1030	0.0039471
1042	0.0045607
1054	0.005074
1066	0.0051979
1078	0.0050445
1090	0.0037465
1102	0.0029559
1114	0.003658
1126	0.004897
1138	0.0052156
1150	0.0037642
1162	0.0024367
1174	0.0021063
1186	0.0025842
1198	0.0032391
1210	0.0039943
1222	0.0046787
1234	0.0051625
1246	0.0051625
1258	0.0042598
1270	0.0033925
1282	0.0028084
1294	0.0025193
1306	0.0023777
1318	0.0025311
1330	0.0030739
1342	0.0035105
1354	0.0036993
1366	0.0042185
1378	0.0047849
1390	0.0041123
1402	0.0023777
1414	0.0016874
1426	0.0024426
1438	0.0044132
1450	0.0063307
1462	0.0060062
1474	0.0035813
1486	0.0014573
1498	0.0005723
1510	0.000354
1522	0.0002183
1534	0.0001534
1546	8.26e-05
1558	8.85e-05
1570	4.72e-05
1582	3.54e-05
1594	6.49e-05
1606	8.85e-05
1618	6.49e-05
1630	4.13e-05
1642	7.08e-05
1654	5.31e-05
1666	4.13e-05
1678	8.26e-05
1690	0.0001062
1702	0.0002065
1714	0.0003776
1726	0.0006903
1738	0.0007139
1750	0.000413
1762	0.0001298
1774	7.08e-05
1786	7.08e-05
1798	0.0001062
1810	6.49e-05
1822	5.31e-05
1834	3.54e-05
1846	1.77e-05
1858	1.77e-05
1870	1.18e-05
1882	4.72e-05
1894	6.49e-05
1906	5.9e-06
1918	3.54e-05
1930	8.26e-05
1942	7.67e-05
1954	7.08e-05
1966	4.13e-05
1978	4.13e-05
1990	5.31e-05
2002	4.72e-05
2014	2.95e-05
2026	3.54e-05
2038	1.18e-05
2050	3.54e-05
2062	1.77e-05
2074	3.54e-05
2086	4.13e-05
2098	4.72e-05
2110	3.54e-05
2122	5.31e-05
2134	5.31e-05
2146	5.9e-05
2158	8.26e-05
2170	5.31e-05
2182	8.26e-05
2194	0.0001003
2206	7.08e-05
2218	7.08e-05
2230	4.72e-05
2242	7.08e-05
2254	2.36e-05
2266	2.36e-05
2278	5.9e-06
2290	4.13e-05
2302	7.67e-05
2314	7.67e-05
2326	7.08e-05
2338	6.49e-05
2350	5.31e-05
2362	6.49e-05
2374	7.67e-05
2386	9.44e-05
2398	8.26e-05
2410	0.0001121
2422	0.0001003
2434	8.85e-05
2446	0.0001003
2458	6.49e-05
2470	8.26e-05
2482	8.85e-05
2494	9.44e-05
2506	0.0001062
2518	0.0001121
2530	6.49e-05
2542	0.0001121
2554	0.0001416
2566	0.0001888
2578	0.0002478
2590	0.0003245
2602	0.0003953
2614	0.0004425
2626	0.0004956
2638	0.0006431
2650	0.0007729
2662	0.0008909
2674	0.0009558
2686	0.0008968
2698	0.0007729
2710	0.0007198
2722	0.000767
2734	0.0008732
2746	0.0008909
2758	0.0009027
2770	0.0009794
2782	0.0011682
2794	0.0013157
2806	0.0015989
2818	0.0021594
2830	0.0040533
2842	0.0089857
2854	0.0136762
2866	0.0170805
2878	0.0208093
2890	0.0243965
2902	0.0288805
2914	0.0400197
2926	0.0540499
2938	0.0587168
2950	0.0438429
2962	0.0275176
2974	0.0135346
2986	0.0040179
2998	0.0014042
3010	0.0008437
3022	0.0006254
3034	0.0006195
3046	0.0005959
3058	0.0006313
3070	0.0006254
3082	0.0005487
3094	0.0004956
3106	0.0003953
3118	0.0003245
3130	0.0002124
3142	0.0002832
3154	0.0002537
3166	0.0002006
3178	0.0002773
3190	0.0002006
3202	0.000177
3214	9.44e-05
3226	8.26e-05
3238	0.0001121
3250	5.31e-05
3262	0.0001593
3274	0.0001416
3286	0.0001711
3298	0.0001003
3310	4.13e-05
3322	0.0001003
3334	0.000118
3346	0.0001593
3358	0.0001357
3370	0.0001298
3382	0.0001121
3394	0.0001593
3406	0.0001888
3418	0.0002183
3430	0.0002655
3442	0.0002183
3454	0.0002242
3466	0.0001947
3478	0.0001593
3490	0.0002124
3502	0.0001888
3514	0.0001829
3526	0.0001711
3538	0.0001711
3550	0.0001239
3562	8.26e-05
3574	0.0001416
3586	0.0002065
3598	0.0001534
3610	0.0002478
3622	0.000531
3634	0.0013924
3646	0.0029264
3658	0.0032332
3670	0.0017346
3682	0.0005959
3694	0.0003127
3706	0.0002301
3718	0.0002714
3730	0.0001298
3742	0.0002478
3754	0.0002124
3766	0.0002655
3778	0.0002832
3790	0.0002891
3802	0.0003717
3814	0.0003304
3826	0.0003894
3838	0.000354
