Infrared Spectrum: cis-2-Methylcyclohexanol
Formula: C 7 H 14 O
CAS: 7443-70-1
State: gas
Instrument: HP-GC/MS/IRD
Origin: NIST Mass Spectrometry Data Center
1/CM	ABSORBANCE
550	0.0003322
562	0.0002266
574	0.000253
586	0.0002398
598	6.82e-05
610	0.0001122
622	0.0001122
634	0.0001958
646	0.0001892
658	0.0001716
670	0.0001584
682	9.46e-05
694	9.9e-05
706	6.82e-05
718	8.14e-05
730	0.0001518
742	0.0001628
754	0.000176
766	0.0001386
778	0.0001518
790	0.0001782
802	0.0002266
814	0.0003432
826	0.0002222
838	0.0004378
850	0.000539
862	0.0004774
874	0.0004004
886	0.0004466
898	0.0004642
910	0.000418
922	0.0005698
934	0.0009372
946	0.0012892
958	0.0022044
970	0.0035618
982	0.0034584
994	0.0023826
1006	0.0014564
1018	0.0011484
1030	0.000924
1042	0.0009592
1054	0.0016434
1066	0.0022374
1078	0.0020614
1090	0.0012914
1102	0.0008426
1114	0.0009438
1126	0.0011902
1138	0.0013442
1150	0.0012364
1162	0.0010516
1174	0.0009834
1186	0.0012188
1198	0.0015752
1210	0.001639
1222	0.0014212
1234	0.0012848
1246	0.0012012
1258	0.0011616
1270	0.0010604
1282	0.0008316
1294	0.0007656
1306	0.0007876
1318	0.0008206
1330	0.0008426
1342	0.0008294
1354	0.0009174
1366	0.0011682
1378	0.0014278
1390	0.0011814
1402	0.0007524
1414	0.000506
1426	0.0007062
1438	0.0014696
1450	0.00231
1462	0.0020922
1474	0.0013134
1486	0.0006116
1498	0.0002574
1510	0.00011
1522	7.7e-05
1534	7.26e-05
1546	7.04e-05
1558	1.54e-05
1570	8.36e-05
1582	0.0001012
1594	9.9e-05
1606	9.24e-05
1618	4.84e-05
1630	5.72e-05
1642	6.6e-05
1654	6.6e-06
1666	5.5e-05
1678	3.08e-05
1690	6.16e-05
1702	4.62e-05
1714	0.0001518
1726	0.0002552
1738	0.0002222
1750	9.02e-05
1762	3.96e-05
1774	5.94e-05
1786	7.26e-05
1798	4.84e-05
1810	3.3e-05
1822	2.42e-05
1834	4.4e-05
1846	3.08e-05
1858	5.06e-05
1870	3.96e-05
1882	5.5e-05
1894	4.84e-05
1906	4.18e-05
1918	4.18e-05
1930	3.96e-05
1942	3.74e-05
1954	5.06e-05
1966	3.74e-05
1978	3.52e-05
1990	3.3e-05
2002	3.3e-05
2014	3.08e-05
2026	4.18e-05
2038	3.3e-05
2050	4.18e-05
2062	3.96e-05
2074	4.4e-05
2086	3.74e-05
2098	5.28e-05
2110	3.08e-05
2122	5.5e-05
2134	3.3e-05
2146	4.4e-05
2158	5.06e-05
2170	5.94e-05
2182	7.04e-05
2194	4.4e-05
2206	4.62e-05
2218	4.84e-05
2230	5.94e-05
2242	3.3e-05
2254	4.18e-05
2266	3.3e-05
2278	3.74e-05
2290	5.72e-05
2302	7.26e-05
2314	2.86e-05
2326	5.06e-05
2338	1.98e-05
2350	5.5e-05
2362	2.2e-05
2374	2.64e-05
2386	4.18e-05
2398	4.4e-05
2410	6.82e-05
2422	5.28e-05
2434	5.72e-05
2446	7.04e-05
2458	4.62e-05
2470	5.72e-05
2482	5.06e-05
2494	3.96e-05
2506	4.62e-05
2518	5.28e-05
2530	7.04e-05
2542	6.16e-05
2554	6.16e-05
2566	9.02e-05
2578	0.0001166
2590	0.0001408
2602	0.0001364
2614	0.000154
2626	0.0001606
2638	0.0002134
2650	0.000308
2662	0.0003894
2674	0.000396
2686	0.0002948
2698	0.000264
2710	0.0002662
2722	0.0003058
2734	0.0002992
2746	0.0003036
2758	0.0003278
2770	0.0003652
2782	0.0004202
2794	0.0004906
2806	0.0005764
2818	0.0006886
2830	0.001034
2842	0.0021758
2854	0.005148
2866	0.0084502
2878	0.0091894
2890	0.0077528
2902	0.0073172
2914	0.0101002
2926	0.0170742
2938	0.022
2950	0.0158532
2962	0.0083138
2974	0.0046046
2986	0.0021274
2998	0.000891
3010	0.0004158
3022	0.0003058
3034	0.000286
3046	0.0002156
3058	0.000231
3070	0.000242
3082	0.0002156
3094	0.0001914
3106	0.0001672
3118	0.0001474
3130	0.0001386
3142	0.000154
3154	0.0001188
3166	9.46e-05
3178	9.02e-05
3190	0.0001012
3202	3.96e-05
3214	7.48e-05
3226	3.3e-05
3238	8.14e-05
3250	7.04e-05
3262	5.28e-05
3274	7.92e-05
3286	6.82e-05
3298	8.8e-05
3310	9.46e-05
3322	0.0001144
3334	0.0001012
3346	0.0001144
3358	9.24e-05
3370	9.9e-05
3382	7.48e-05
3394	6.38e-05
3406	0.0001694
3418	0.0001606
3430	0.000143
3442	0.0001364
3454	0.0001144
3466	0.0001562
3478	0.0001408
3490	0.0001034
3502	0.0001188
3514	0.000165
3526	0.0001496
3538	0.0001144
3550	9.02e-05
3562	0.0001056
3574	0.0001122
3586	0.000121
3598	0.0001496
3610	0.0001254
3622	0.0001694
3634	0.0004048
3646	0.000902
3658	0.0011264
3670	0.0007876
3682	0.0003586
3694	0.0002244
3706	0.0001826
3718	0.000154
3730	8.36e-05
3742	9.9e-05
3754	0.00011
3766	0.0001606
3778	0.000187
3790	0.00022
3802	0.000154
3814	0.0001342
3826	0.0001628
3838	0.0001826
