Infrared Spectrum: Silane, Trimethyl-o-tolyl-
Formula: C10 H16 Si
CAS: 7450-03-5
State: SOLUTION (10% CCl4 FOR 3800-1300, 2% CS2 FOR 1300-650, AND 10% CCl4 FOR 650-250)
Melting point: -75 C
Boiling point: 196 C
Class: COBLENTZ II
Instrument: PERKIN-ELMER 521 (GRATING)
Instrument parameters: FILTERS AT 3150, 2500, 2000, 1150, 700, 410. GRATING CHANGES: 2000, 630 CM^-^1
Sampling: TRANSMISSION
Path length: 0.011 CM, 0.010 CM, AND 0.010 CM
Resolution: 2
Origin: DOW CORNING CORP.
1/CM	TRANSMITTANCE
246	0.7541
255	0.7431
264	0.7362
273	0.6745
282	0.702
291	0.889
300	0.9187
309	0.923
318	0.919
327	0.9097
336	0.8844
345	0.6536
354	0.8489
363	0.9186
372	0.9334
381	0.9371
390	0.9373
399	0.9304
408	0.9128
417	0.8659
426	0.6054
435	0.6635
444	0.6874
453	0.9181
462	0.9432
471	0.9478
480	0.9522
489	0.9584
498	0.9456
507	0.9549
516	0.9568
525	0.9567
534	0.9551
543	0.9313
552	0.9533
561	0.9579
570	0.9593
579	0.9607
588	0.9604
597	0.9516
606	0.93
615	0.6674
624	0.8419
633	0.9542
642	0.9668
651	0.9618
660	0.9579
669	0.9271
678	0.9008
687	0.8282
696	0.8722
705	0.9106
714	0.8527
723	0.8949
732	0.8437
741	0.1657
750	0.7394
759	0.8333
768	0.8854
777	0.9123
786	0.9104
795	0.9006
804	0.8761
813	0.8297
822	0.7427
831	0.4262
840	0.2436
849	0.2393
858	0.5738
867	0.7632
876	0.8525
885	0.8993
894	0.9156
903	0.922
912	0.9334
921	0.9431
930	0.944
939	0.944
948	0.945
957	0.9459
966	0.9463
975	0.9457
984	0.947
993	0.9492
1002	0.9517
1011	0.9488
1020	0.9354
1029	0.9295
1038	0.9491
1047	0.9575
1056	0.9551
1065	0.9402
1074	0.8347
1083	0.9474
1092	0.9554
1101	0.9563
1110	0.9447
1119	0.9169
1128	0.5807
1137	0.9562
1146	0.9483
1155	0.9459
1164	0.9642
1173	0.9659
1182	0.9601
1191	0.949
1200	0.9436
1209	0.9506
1218	0.9519
1227	0.9374
1236	0.898
1245	0.3797
1254	0.7327
1263	0.8176
1272	0.9383
1281	0.8942
1290	0.96
1299	0.9099
1308	0.8003
1317	0.8737
1326	0.8858
1335	0.8838
1344	0.8758
1353	0.8585
1362	0.8264
1371	0.7622
1380	0.7677
1389	0.7768
1398	0.6975
1407	0.6065
1416	0.6528
1425	0.6257
1434	0.4762
1443	0.431
1452	0.4933
1461	0.5752
1470	0.6615
1479	0.6985
1488	0.8166
1497	0.8573
1506	0.8783
1515	0.8956
1524	0.9036
1533	0.911
1542	0.916
1551	0.9027
1560	0.8281
1569	0.8986
1578	0.8657
1587	0.6573
1596	0.8533
1605	0.8429
1614	0.9016
1623	0.9124
1632	0.9125
1641	0.9176
1650	0.9214
1659	0.9188
1668	0.9121
1677	0.8957
1686	0.9189
1695	0.9197
1704	0.9174
1713	0.9226
1722	0.9243
1731	0.92
1740	0.923
1749	0.9284
1758	0.9278
1767	0.9266
1776	0.925
1785	0.9226
1794	0.9102
1803	0.8757
1812	0.9152
1821	0.9228
1830	0.9142
1839	0.8979
1848	0.9164
1857	0.9183
1866	0.895
1875	0.9016
1884	0.9095
1893	0.9143
1902	0.9075
1911	0.8503
1920	0.863
1929	0.883
1938	0.8883
1947	0.8752
1956	0.889
1965	0.9203
1974	0.9238
1983	0.9228
1992	0.9209
2001	0.9255
2010	0.9326
2019	0.9335
2028	0.9331
2037	0.9323
2046	0.9313
2055	0.9299
2064	0.9278
2073	0.9263
2082	0.9253
2091	0.925
2100	0.9255
2109	0.9258
2118	0.9261
2127	0.9257
2136	0.9257
2145	0.9257
2154	0.9257
2163	0.9257
2172	0.9257
2181	0.9258
2190	0.926
2199	0.9262
2208	0.9264
2217	0.9261
2226	0.9258
2235	0.9254
2244	0.9254
2253	0.9257
2262	0.9261
2271	0.9264
2280	0.9268
2289	0.9271
2298	0.9269
2307	0.9266
2316	0.9264
2325	0.9261
2334	0.9259
2343	0.9256
2352	0.9255
2361	0.9254
2370	0.9254
2379	0.9253
2388	0.9252
2397	0.9251
2406	0.9251
2415	0.925
2424	0.9249
2433	0.9248
2442	0.9244
2451	0.9237
2460	0.9231
2469	0.9214
2478	0.9181
2487	0.9207
2496	0.9253
2505	0.9262
2514	0.926
2523	0.9253
2532	0.9249
2541	0.9247
2550	0.9243
2559	0.923
2568	0.9218
2577	0.9207
2586	0.9197
2595	0.9186
2604	0.9178
2613	0.9174
2622	0.917
2631	0.9166
2640	0.9162
2649	0.9158
2658	0.9168
2667	0.9205
2676	0.9239
2685	0.9204
2694	0.9169
2703	0.9138
2712	0.9111
2721	0.908
2730	0.9049
2739	0.9096
2748	0.912
2757	0.9037
2766	0.8931
2775	0.8793
2784	0.8678
2793	0.8549
2802	0.8526
2811	0.854
2820	0.8467
2829	0.8222
2838	0.7895
2847	0.7603
2856	0.7358
2865	0.7124
2874	0.6967
2883	0.6451
2892	0.5544
2901	0.4967
2910	0.6012
2919	0.5803
2928	0.5139
2937	0.4924
2946	0.3649
2955	0.1804
2964	0.1704
2973	0.2599
2982	0.476
2991	0.5966
3000	0.5321
3009	0.4842
3018	0.6695
3027	0.7036
3036	0.7002
3045	0.6186
3054	0.4993
3063	0.4884
3072	0.6383
3081	0.673
3090	0.7684
3099	0.8562
3108	0.874
3117	0.8766
3126	0.8801
3135	0.8924
3144	0.903
3153	0.9081
3162	0.9123
3171	0.9148
3180	0.9208
3189	0.9241
3198	0.9255
3207	0.9269
3216	0.9278
3225	0.9288
3234	0.9296
3243	0.9302
3252	0.9308
3261	0.9314
3270	0.9318
3279	0.9316
3288	0.9316
3297	0.9314
3306	0.9315
3315	0.9321
3324	0.9327
3333	0.9329
3342	0.9329
3351	0.9329
3360	0.9329
3369	0.9327
3378	0.9325
3387	0.9322
3396	0.9321
3405	0.9319
3414	0.9332
3423	0.9316
3432	0.9314
3441	0.9313
3450	0.9314
3459	0.9315
3468	0.9316
3477	0.9319
3486	0.9325
3495	0.9331
3504	0.9337
3513	0.9343
3522	0.9346
3531	0.9349
3540	0.9352
3549	0.9354
3558	0.9344
3567	0.9333
3576	0.9286
3585	0.9262
3594	0.9317
3603	0.9344
3612	0.9355
3621	0.9349
3630	0.9321
3639	0.927
3648	0.9246
3657	0.9253
3666	0.9256
3675	0.9308
3684	0.9333
3693	0.9409
3702	0.9279
3711	0.9256
3720	0.9255
3729	0.9251
3738	0.9252
3747	0.9262
3756	0.9324
3765	0.9283
3774	0.9267
3783	0.9257
