Infrared Spectrum: P-METHOXY CARBANILIC ACID, ETHYL ESTER
Formula: C10 H13 N O3
CAS: 7451-55-0
State: SOLID (1.6 mg / 200 mg KBr)
Class: COBLENTZ
Instrument: Not specified, most likely a grating spectrometer.
Sampling: TRANSMISSION
Resolution: 4
Origin: CITRUS EXPERIMENT STATION, UNIVERSITY OF FLORIDA (G. EDWARDS)
MICROMETERS	TRANSMITTANCE
2.02	0.452
2.05316	0.458
2.08632	0.46
2.11948	0.46
2.15264	0.461
2.1858	0.464
2.21895	0.473
2.25211	0.48
2.28527	0.484
2.31843	0.488
2.35159	0.492
2.38475	0.5
2.41791	0.503
2.45107	0.515
2.48423	0.523
2.51739	0.526
2.55054	0.526
2.5837	0.526
2.61686	0.526
2.65002	0.523
2.68318	0.518
2.71634	0.517
2.7495	0.515
2.78266	0.506
2.81582	0.503
2.84898	0.5
2.88213	0.484
2.91529	0.436
2.94845	0.321
2.98161	0.098
3.01477	0.283
3.04793	0.428
3.08109	0.489
3.11425	0.525
3.14741	0.522
3.18057	0.519
3.21372	0.511
3.24688	0.485
3.28004	0.48
3.3132	0.368
3.34636	0.405
3.37952	0.401
3.41268	0.47
3.44584	0.517
3.479	0.488
3.51216	0.573
3.54531	0.575
3.57847	0.579
3.61163	0.597
3.64479	0.609
3.67795	0.619
3.71111	0.618
3.74427	0.619
3.77743	0.626
3.81059	0.628
3.84375	0.632
3.8769	0.632
3.91006	0.634
3.94322	0.635
3.97638	0.636
4.00954	0.634
4.0427	0.642
4.07586	0.644
4.10902	0.65
4.14218	0.651
4.17534	0.65
4.20849	0.651
4.24165	0.659
4.27481	0.664
4.30797	0.663
4.34113	0.663
4.37429	0.663
4.40745	0.667
4.44061	0.67
4.47377	0.672
4.50693	0.675
4.54008	0.679
4.57324	0.683
4.6064	0.683
4.63956	0.682
4.67272	0.684
4.70588	0.682
4.73904	0.676
4.7722	0.672
4.80536	0.668
4.83852	0.668
4.87167	0.675
4.90483	0.674
4.93799	0.678
4.97115	0.682
5.00431	0.688
5.03747	0.688
5.07063	0.692
5.10379	0.692
5.13695	0.691
5.17011	0.691
5.20326	0.695
5.23642	0.678
5.26958	0.667
5.30274	0.644
5.3359	0.675
5.36906	0.668
5.40222	0.667
5.43538	0.664
5.46854	0.662
5.5017	0.647
5.53486	0.643
5.56801	0.639
5.60117	0.622
5.63433	0.595
5.66749	0.518
5.70065	0.442
5.73381	0.343
5.76697	0.279
5.80013	0.081
5.83329	0.105
5.86645	0.16
5.8996	0.292
5.93276	0.416
5.96592	0.474
5.99908	0.506
6.03224	0.529
6.0654	0.527
6.09856	0.489
6.13172	0.414
6.16488	0.413
6.19804	0.417
6.23119	0.369
6.26435	0.53
6.29751	0.497
6.33067	0.357
6.36383	0.212
6.39699	0.047
6.43015	0.05
6.46331	0.062
6.49647	0.09
6.52963	0.164
6.56278	0.204
6.59594	0.311
6.6291	0.396
6.66226	0.444
6.69542	0.44
6.72858	0.432
6.76174	0.444
6.7949	0.44
6.82806	0.422
6.86122	0.425
6.89437	0.333
6.92753	0.476
6.96069	0.506
6.99385	0.372
7.02701	0.295
7.06017	0.414
7.09333	0.542
7.12649	0.531
7.15965	0.48
7.19281	0.526
7.22596	0.598
7.25912	0.614
7.29228	0.591
7.32544	0.634
7.3586	0.606
7.39176	0.585
7.42492	0.538
7.45808	0.484
7.49124	0.448
7.5244	0.43
7.55755	0.291
7.59071	0.389
7.62387	0.461
7.65703	0.481
7.69019	0.511
7.72335	0.493
7.75651	0.453
7.78967	0.406
7.82283	0.344
7.85599	0.264
7.88914	0.128
7.9223	0.019
7.95546	0.003
7.98862	0.002
8.02178	0.002
8.05494	0.003
8.0881	0.013
8.12126	0.053
8.15442	0.121
8.18758	0.206
8.22073	0.291
8.25389	0.378
8.28705	0.432
8.32021	0.462
8.35337	0.4
8.38653	0.175
8.41969	0.283
8.45285	0.329
8.48601	0.231
8.51917	0.446
8.55232	0.539
8.58548	0.567
8.61864	0.586
8.6518	0.606
8.68496	0.642
8.71812	0.67
8.75128	0.676
8.78444	0.679
8.8176	0.671
8.85076	0.662
8.88392	0.65
8.91707	0.621
8.95023	0.567
8.98339	0.522
9.01655	0.55
9.04971	0.585
9.08287	0.574
9.11603	0.533
9.14919	0.488
9.18235	0.398
9.21551	0.271
9.24866	0.117
9.28182	0.065
9.31498	0.094
9.34814	0.175
9.3813	0.293
9.41446	0.418
9.44762	0.503
9.48078	0.567
9.51394	0.595
9.5471	0.591
9.58025	0.57
9.61341	0.533
9.64657	0.406
9.67973	0.191
9.71289	0.15
9.74605	0.275
9.77921	0.454
9.81237	0.53
9.84553	0.534
9.87869	0.555
9.91184	0.632
9.945	0.691
9.97816	0.716
10.0113	0.739
10.0445	0.759
10.0776	0.765
10.1108	0.779
10.144	0.784
10.1771	0.788
10.2103	0.8
10.2434	0.803
10.2766	0.807
10.3098	0.813
10.3429	0.816
10.3761	0.816
10.4092	0.812
10.4424	0.813
10.4755	0.816
10.5087	0.807
10.5419	0.801
10.575	0.82
10.6082	0.833
10.6413	0.833
10.6745	0.821
10.7077	0.797
10.7408	0.73
10.774	0.75
10.8071	0.807
10.8403	0.837
10.8735	0.841
10.9066	0.843
10.9398	0.843
10.9729	0.843
11.0061	0.844
11.0393	0.845
11.0724	0.848
11.1056	0.848
11.1387	0.852
11.1719	0.852
11.205	0.859
11.2382	0.859
11.2714	0.856
11.3045	0.86
11.3377	0.861
11.3708	0.859
11.404	0.861
11.4372	0.86
11.4703	0.857
11.5035	0.86
11.5366	0.861
11.5698	0.861
11.603	0.857
11.6361	0.851
11.6693	0.847
11.7024	0.835
11.7356	0.829
11.7687	0.821
11.8019	0.813
11.8351	0.803
11.8682	0.787
11.9014	0.759
11.9345	0.726
11.9677	0.664
12.0009	0.567
12.034	0.371
12.0672	0.184
12.1003	0.071
12.1335	0.148
12.1667	0.319
12.1998	0.513
12.233	0.603
12.2661	0.65
12.2993	0.683
12.3325	0.72
12.3656	0.747
12.3988	0.78
12.4319	0.785
12.4651	0.789
12.4982	0.791
12.5314	0.789
12.5646	0.788
12.5977	0.787
12.6309	0.78
12.664	0.759
12.6972	0.743
12.7304	0.703
12.7635	0.667
12.7967	0.626
12.8298	0.553
12.863	0.453
12.8962	0.434
12.9293	0.461
12.9625	0.493
12.9956	0.493
13.0288	0.458
13.062	0.458
13.0951	0.485
13.1283	0.555
13.1614	0.615
13.1946	0.68
13.2277	0.708
13.2609	0.724
13.2941	0.724
13.3272	0.723
13.3604	0.719
13.3935	0.703
13.4267	0.671
13.4599	0.64
13.493	0.609
13.5262	0.566
13.5593	0.541
13.5925	0.559
13.6257	0.589
13.6588	0.61
13.692	0.631
13.7251	0.654
13.7583	0.659
13.7914	0.663
13.8246	0.672
13.8578	0.679
13.8909	0.683
13.9241	0.684
13.9572	0.683
13.9904	0.68
14.0236	0.679
14.0567	0.675
14.0899	0.668
14.123	0.646
14.1562	0.627
14.1894	0.619
14.2225	0.628
14.2557	0.631
14.2888	0.631
14.322	0.632
14.3552	0.635
14.3883	0.634
14.4215	0.632
14.4546	0.632
14.4878	0.631
14.5209	0.628
14.5541	0.625
14.5873	0.621
14.6204	0.607
14.6536	0.598
14.6867	0.581
14.7199	0.569
14.7531	0.558
14.7862	0.557
14.8194	0.555
14.8525	0.531
14.8857	0.507
14.9189	0.49
14.952	0.497
14.9852	0.511
