Infrared Spectrum: 4-Methyl-2-octyn-4-ol
Formula: C 9 H 16 O
CAS: 74514-59-3
State: gas
Origin: EPA-IR VAPOR PHASE LIBRARY
1/CM	ABSORBANCE
549.8	0.0027
559.445	0.00379
569.09	0.00301
578.734	0.00219
588.379	0.00326
598.024	0.00264
607.669	0.0019695
617.313	0.00374
626.958	0.0019846
636.603	0.00333
646.248	0.00337
655.893	0.00318
665.537	0.00294
675.182	0.00313
684.827	0.0016787
694.472	0.00228
704.116	0.0020548
713.761	0.00257
723.406	0.00213
733.051	0.00228
742.695	0.00299
752.34	0.00267
761.985	0.00235
771.63	0.0025
781.275	0.00266
790.919	0.0018809
800.564	0.00234
810.209	0.00219
819.854	0.00532
829.498	0.001956
839.143	0.00262
848.788	0.00277
858.433	0.0037
868.078	0.00436
877.722	0.00425
887.367	0.00444
897.012	0.00383
906.657	0.00348
916.301	0.0059
925.946	0.00745
935.591	0.00704
945.236	0.006
954.88	0.00313
964.525	0.00285
974.17	0.00311
983.815	0.00242
993.46	0.00318
1003.1	0.00459
1012.75	0.00482
1022.39	0.00404
1032.04	0.00588
1041.68	0.00667
1051.33	0.0085
1060.97	0.00669
1070.62	0.00551
1080.26	0.00328
1089.91	0.00646
1099.55	0.0036
1109.2	0.00818
1118.84	0.00596
1128.49	0.00824
1138.13	0.0081
1147.78	0.00968
1157.42	0.00862
1167.07	0.00783
1176.71	0.00787
1186.36	0.00817
1196	0.00653
1205.64	0.00872
1215.29	0.0075
1224.93	0.0112
1234.58	0.00826
1244.22	0.0066
1253.87	0.00725
1263.51	0.00729
1273.16	0.00646
1282.8	0.00693
1292.45	0.00686
1302.09	0.00736
1311.74	0.00771
1321.38	0.00922
1331.03	0.0108
1340.67	0.01214
1350.32	0.01086
1359.96	0.00945
1369.61	0.00988
1379.25	0.00981
1388.9	0.00726
1398.54	0.00474
1408.18	0.00385
1417.83	0.00405
1427.47	0.00407
1437.12	0.00443
1446.76	0.00539
1456.41	0.00633
1466.05	0.00618
1475.7	0.0047
1485.34	0.00344
1494.99	0.00283
1504.63	0.00306
1514.28	0.00231
1523.92	0.00221
1533.57	0.00229
1543.21	0.00259
1552.86	0.0025
1562.5	0.0020966
1572.15	0.001738
1581.79	0.0019599
1591.44	0.00244
1601.08	0.001803
1610.73	0.0020255
1620.37	0.00233
1630.01	0.001817
1639.66	0.0019376
1649.3	0.0018782
1658.95	0.0020529
1668.59	0.0018631
1678.24	0.0019052
1687.88	0.0020965
1697.53	0.0019926
1707.17	0.0016877
1716.82	0.0021065
1726.46	0.0017227
1736.11	0.00225
1745.75	0.0018285
1755.4	0.0015599
1765.04	0.0018958
1774.69	0.0019705
1784.33	0.0018967
1793.98	0.0016852
1803.62	0.0015597
1813.27	0.0015076
1822.91	0.002068
1832.55	0.0013751
1842.2	0.0018482
1851.84	0.0016801
1861.49	0.0016459
1871.13	0.0015603
1880.78	0.0014328
1890.42	0.0019286
1900.07	0.0018368
1909.71	0.0015206
1919.36	0.001703
1929	0.0016294
1938.65	0.0017098
1948.29	0.0015295
1957.94	0.0015317
1967.58	0.0016259
1977.23	0.0014441
1986.87	0.0014152
1996.52	0.00173
2006.16	0.0015139
2015.81	0.0016361
2025.45	0.0012523
2035.1	0.0018168
2044.74	0.0016005
2054.38	0.0015495
2064.03	0.001542
2073.67	0.0015935
2083.32	0.001267
2092.96	0.0014461
2102.61	0.0013851
2112.25	0.0014498
2121.9	0.0015523
2131.54	0.0016761
2141.19	0.0015181
2150.83	0.0015117
2160.48	0.0015903
2170.12	0.0015451
2179.77	0.0016215
2189.41	0.0020254
2199.06	0.0015569
2208.7	0.0018869
2218.35	0.00184
2227.99	0.00242
2237.64	0.00251
2247.28	0.00243
2256.92	0.00266
2266.57	0.0018105
2276.21	0.0017631
2285.86	0.0016525
2295.5	0.0020301
2305.15	0.00226
2314.79	0.0017796
2324.44	0.0015236
2334.08	0.0017406
2343.73	0.0015408
2353.37	0.0017213
2363.02	0.001316
2372.66	0.0016791
2382.31	0.0016475
2391.95	0.0017311
2401.6	0.0019382
2411.24	0.0017712
2420.89	0.0019429
2430.53	0.0012754
2440.18	0.0014778
2449.82	0.001674
2459.47	0.0016323
2469.11	0.0012502
2478.75	0.0014291
2488.4	0.0016232
2498.04	0.0014331
2507.69	0.0017246
2517.33	0.0019656
2526.98	0.001271
2536.62	0.00120145
2546.27	0.0017255
2555.91	0.0017874
2565.56	0.0015088
2575.2	0.0016078
2584.85	0.0017549
2594.49	0.001543
2604.14	0.0017115
2613.78	0.0015464
2623.43	0.0020964
2633.07	0.0019787
2642.72	0.0017603
2652.36	0.0017294
2662.01	0.0017659
2671.65	0.0016611
2681.29	0.0017368
2690.94	0.0015815
2700.58	0.0018115
2710.23	0.0014944
2719.87	0.0017951
2729.52	0.00244
2739.16	0.00228
2748.81	0.00213
2758.45	0.0019913
2768.1	0.00237
2777.74	0.0015136
2787.39	0.00221
2797.03	0.00234
2806.68	0.003
2816.32	0.00248
2825.97	0.00312
2835.61	0.00401
2845.26	0.00493
2854.9	0.00718
2864.55	0.01147
2874.19	0.01505
2883.84	0.01503
2893.48	0.0122
2903.12	0.01076
2912.77	0.01493
2922.41	0.02191
2932.06	0.03209
2941.7	0.03658
2951.35	0.02919
2960.99	0.02621
2970.64	0.02718
2980.28	0.0231
2989.93	0.01871
2999.57	0.01034
3009.22	0.00582
3018.86	0.00407
3028.51	0.00388
3038.15	0.00333
3047.8	0.00321
3057.44	0.00308
3067.09	0.00267
3076.73	0.0017295
3086.38	0.00261
3096.02	0.0015213
3105.67	0.00263
3115.31	0.0016817
3124.95	0.0016555
3134.6	0.0018907
3144.24	0.0022
3153.89	0.001373
3163.53	0.00117312
3173.18	0.001291
3182.82	0.0019937
3192.47	0.00219
3202.11	0.00227
3211.76	0.0015481
3221.4	0.0019788
3231.05	0.0019557
3240.69	0.0016483
3250.34	0.0018322
3259.98	0.0014988
3269.63	0.00114566
3279.27	0.00058
3288.92	0.0015822
3298.56	0.00114867
3308.21	0.0018691
3317.85	0.00216
3327.49	0.0012639
3337.14	0.0016231
3346.78	0.0020457
3356.43	0.0017591
3366.07	0.001621
3375.72	0.001282
3385.36	0.0016213
3395.01	0.0020081
3404.65	0.000707
3414.3	0.000866
3423.94	0.00232
3433.59	0.0018467
3443.23	0.000931
3452.88	0.000703
3462.52	0.001751
3472.17	0.0017268
3481.81	0.0012973
3491.46	0.0017562
3501.1	0.0018424
3510.75	0.0017175
3520.39	0.000952
3530.04	0.0014424
3539.68	0.0015853
3549.32	0.0023
3558.97	0.0019106
3568.61	0.00110116
3578.26	0.0015176
3587.9	0.0017165
3597.55	0.0013147
3607.19	0.0015068
3616.84	0.00281
3626.48	0.00294
3636.13	0.00514
3645.77	0.00613
3655.42	0.00395
3665.06	0.0014312
3674.71	0.00224
3684.35	0.0019629
3694	0.001071
3703.64	0.0015674
3713.29	0.0018572
3722.93	0.00116584
3732.58	0.0016139
3742.22	0.0012336
3751.86	0.0016071
3761.51	0.0013723
3771.15	0.0013225
3780.8	0.001497
3790.44	0.000846
3800.09	0.0016032
3809.73	0.0017771
3819.38	0.0015054
3829.02	0.00211
3838.67	0.0016956
3848.31	0.0012667
3857.96	0.00214
3867.6	0.0015787
3877.25	0.0015835
3886.89	0.0019651
3896.54	0.0016275
3906.18	0.0018097
3915.83	0.000747
3925.47	0.0020501
3935.12	0.00232
3944.76	0.0012186
3954.41	0.0016623
3964.05	0.0013592
3973.69	0.00243
3983.34	0.0020433
3992.98	0.0017803
