Infrared Spectrum: 3',4',4-TRICHLOROBENZENE SULFONANILIDE
Formula: C12 H8 Cl3 N O2 S
CAS: 7454-52-6
State: SOLID (MINERAL OIL MULL)
Class: COBLENTZ
Instrument: Not specified, most likely a prism, grating, or hybrid spectrometer.
Sampling: TRANSMISSION
Resolution: 4
Origin: DOW CHEMICAL COMPANY
MICROMETERS	TRANSMITTANCE
2.12	0.505
2.16008	0.513
2.20016	0.52
2.24023	0.521
2.28031	0.518
2.32039	0.518
2.36047	0.538
2.40055	0.546
2.44063	0.555
2.4807	0.57
2.52078	0.575
2.56086	0.581
2.60094	0.593
2.64102	0.6
2.68109	0.607
2.72117	0.618
2.76125	0.62
2.80133	0.63
2.84141	0.64
2.88149	0.645
2.92156	0.648
2.96164	0.668
3.00172	0.672
3.0418	0.56
3.08188	0.377
3.12196	0.553
3.16203	0.585
3.20211	0.591
3.24219	0.575
3.28227	0.568
3.32235	0.525
3.36242	0.326
3.4025	0.033
3.44258	0.063
3.48266	0.113
3.52274	0.436
3.56282	0.687
3.60289	0.734
3.64297	0.747
3.68305	0.742
3.72313	0.742
3.76321	0.747
3.80328	0.759
3.84336	0.77
3.88344	0.779
3.92352	0.79
3.9636	0.804
4.00368	0.807
4.04375	0.817
4.08383	0.821
4.12391	0.824
4.16399	0.824
4.20407	0.822
4.24414	0.827
4.28422	0.834
4.3243	0.841
4.36438	0.844
4.40446	0.846
4.44454	0.856
4.48461	0.861
4.52469	0.861
4.56477	0.862
4.60485	0.866
4.64493	0.871
4.68501	0.877
4.72508	0.877
4.76516	0.884
4.80524	0.886
4.84532	0.889
4.8854	0.896
4.92547	0.896
4.96555	0.901
5.00563	0.909
5.04571	0.908
5.08579	0.916
5.12587	0.914
5.16594	0.919
5.20602	0.911
5.2461	0.882
5.28618	0.918
5.32626	0.928
5.36633	0.931
5.40641	0.934
5.44649	0.936
5.48657	0.936
5.52665	0.939
5.56673	0.941
5.6068	0.936
5.64688	0.934
5.68696	0.946
5.72704	0.954
5.76712	0.959
5.80719	0.949
5.84727	0.956
5.88735	0.958
5.92743	0.959
5.96751	0.961
6.00759	0.954
6.04766	0.939
6.08774	0.933
6.12782	0.963
6.1679	0.958
6.20798	0.964
6.24806	0.911
6.28813	0.73
6.32821	0.744
6.36829	0.762
6.40837	0.886
6.44845	0.929
6.48852	0.943
6.5286	0.954
6.56868	0.954
6.60876	0.939
6.64884	0.924
6.68892	0.897
6.72899	0.739
6.76907	0.506
6.80915	0.192
6.84923	0.193
6.88931	0.279
6.92938	0.481
6.96946	0.697
7.00954	0.794
7.04962	0.842
7.0897	0.856
7.12978	0.78
7.16985	0.65
7.20993	0.566
7.25001	0.336
7.29009	0.483
7.33017	0.695
7.37025	0.785
7.41032	0.797
7.4504	0.709
7.49048	0.498
7.53056	0.389
7.57064	0.51
7.61071	0.75
7.65079	0.804
7.69087	0.812
7.73095	0.816
7.77103	0.809
7.81111	0.724
7.85118	0.764
7.89126	0.842
7.93134	0.869
7.97142	0.897
8.0115	0.872
8.05157	0.882
8.09165	0.906
8.13173	0.897
8.17181	0.867
8.21189	0.867
8.25197	0.887
8.29204	0.897
8.33212	0.899
8.3722	0.892
8.41228	0.837
8.45236	0.767
8.49243	0.675
8.53251	0.506
8.57259	0.339
8.61267	0.232
8.65275	0.25
8.69283	0.471
8.7329	0.608
8.77298	0.687
8.81306	0.695
8.85314	0.662
8.89322	0.613
8.9333	0.596
8.97337	0.77
9.01345	0.842
9.05353	0.854
9.09361	0.79
9.13369	0.638
9.17376	0.434
9.21384	0.468
9.25392	0.55
9.294	0.727
9.33408	0.822
9.37416	0.851
9.41423	0.876
9.45431	0.894
9.49439	0.904
9.53447	0.909
9.57455	0.913
9.61462	0.913
9.6547	0.872
9.69478	0.724
9.73486	0.705
9.77494	0.866
9.81502	0.894
9.85509	0.795
9.89517	0.787
9.93525	0.892
9.97533	0.916
10.0154	0.931
10.0555	0.938
10.0956	0.948
10.1356	0.949
10.1757	0.951
10.2158	0.953
10.2559	0.953
10.296	0.949
10.336	0.926
10.3761	0.889
10.4162	0.923
10.4563	0.936
10.4963	0.936
10.5364	0.918
10.5765	0.897
10.6166	0.889
10.6567	0.785
10.6967	0.66
10.7368	0.55
10.7769	0.565
10.817	0.643
10.857	0.722
10.8971	0.806
10.9372	0.871
10.9773	0.897
11.0174	0.908
11.0574	0.904
11.0975	0.876
11.1376	0.769
11.1777	0.675
11.2178	0.645
11.2578	0.75
11.2979	0.832
11.338	0.876
11.3781	0.903
11.4181	0.914
11.4582	0.913
11.4983	0.837
11.5384	0.74
11.5785	0.717
11.6185	0.821
11.6586	0.881
11.6987	0.914
11.7388	0.928
11.7788	0.938
11.8189	0.948
11.859	0.954
11.8991	0.951
11.9392	0.903
11.9792	0.802
12.0193	0.688
12.0594	0.635
12.0995	0.481
12.1396	0.399
12.1796	0.413
12.2197	0.479
12.2598	0.707
12.2999	0.797
12.3399	0.859
12.38	0.887
12.4201	0.896
12.4602	0.911
12.5003	0.919
12.5403	0.926
12.5804	0.933
12.6205	0.939
12.6606	0.943
12.7006	0.946
12.7407	0.946
12.7808	0.943
12.8209	0.936
12.861	0.929
12.901	0.923
12.9411	0.908
12.9812	0.884
13.0213	0.841
13.0614	0.757
13.1014	0.648
13.1415	0.484
13.1816	0.362
13.2217	0.359
13.2617	0.498
13.3018	0.595
13.3419	0.734
13.382	0.789
13.4221	0.819
13.4621	0.827
13.5022	0.826
13.5423	0.811
13.5824	0.784
13.6224	0.719
13.6625	0.653
13.7026	0.555
13.7427	0.51
13.7828	0.51
13.8228	0.575
13.8629	0.618
13.903	0.66
13.9431	0.714
13.9831	0.754
14.0232	0.769
14.0633	0.784
14.1034	0.79
14.1435	0.78
14.1835	0.757
14.2236	0.737
14.2637	0.735
14.3038	0.742
14.3439	0.754
14.3839	0.752
14.424	0.729
14.4641	0.7
14.5042	0.675
14.5442	0.662
14.5843	0.65
14.6244	0.622
14.6645	0.575
14.7046	0.526
14.7446	0.523
14.7847	0.566
14.8248	0.615
14.8649	0.648
14.9049	0.652
14.945	0.65
14.9851	0.645
15.0252	0.632
15.0653	0.615
15.1053	0.586
15.1454	0.556
15.1855	0.526
15.2256	0.476
15.2657	0.426
15.3057	0.381
15.3458	0.339
15.3859	0.324
15.426	0.316
15.466	0.314
15.5061	0.321
15.5462	0.339
15.5863	0.346
15.6264	0.351
15.6664	0.352
15.7065	0.352
15.7466	0.351
15.7867	0.344
15.8267	0.336
15.8668	0.332
15.9069	0.327
15.947	0.327
