Infrared Spectrum: 2-ETHYL-3-METHYLHEXANOIC ACID
Formula: C9 H18 O2
CAS: 74581-94-5
State: LIQUID
Class: COBLENTZ
Instrument: PERKIN-ELMER
Sampling: TRANSMISSION
Path length: CAPILLARY
Resolution: 4
Origin: ABBOTT LABORATORIES - WASHBURN
MICROMETERS	TRANSMITTANCE
2.004	0.895
2.04421	0.895
2.08442	0.895
2.12464	0.897
2.16485	0.897
2.20506	0.899
2.24527	0.899
2.28548	0.892
2.3257	0.884
2.36591	0.88
2.40612	0.885
2.44633	0.887
2.48654	0.887
2.52676	0.89
2.56697	0.894
2.60718	0.899
2.64739	0.895
2.6876	0.8991
2.72782	0.894
2.76803	0.892
2.80824	0.8849
2.84845	0.8739
2.88866	0.8619
2.92888	0.8419
2.96909	0.8097
3.0093	0.7654
3.04951	0.7236
3.08972	0.6669
3.12994	0.6069
3.17015	0.5496
3.21036	0.4994
3.25057	0.4437
3.29078	0.4118
3.331	0.3939
3.37121	0.265
3.41142	0.1587
3.45163	0.217
3.49184	0.261
3.53206	0.3906
3.57227	0.5031
3.61248	0.5513
3.65269	0.5668
3.6929	0.57
3.73312	0.58
3.77333	0.577
3.81354	0.577
3.85375	0.5817
3.89396	0.6087
3.93418	0.6318
3.97439	0.6518
4.0146	0.6815
4.05481	0.7138
4.09502	0.7457
4.13524	0.7678
4.17545	0.7808
4.21566	0.7959
4.25587	0.8217
4.29608	0.838
4.3363	0.84
4.37651	0.828
4.41672	0.833
4.45693	0.838
4.49714	0.8469
4.53736	0.845
4.57757	0.8451
4.61778	0.847
4.65799	0.85
4.6982	0.85
4.73842	0.854
4.77863	0.8539
4.81884	0.852
4.85905	0.854
4.89926	0.8539
4.93948	0.852
4.97969	0.85
5.0199	0.848
5.06011	0.842
5.10032	0.848
5.14054	0.845
5.18075	0.843
5.22096	0.842
5.26117	0.835
5.30138	0.8337
5.3416	0.83
5.38181	0.831
5.42202	0.818
5.46223	0.8144
5.50244	0.8139
5.54266	0.8072
5.58287	0.805
5.62308	0.796
5.66329	0.795
5.7035	0.7702
5.74372	0.7135
5.78393	0.5708
5.82414	0.4316
5.86435	0.1079
5.90456	0.0907
5.94478	0.2724
5.98499	0.5227
6.0252	0.6525
6.06541	0.7042
6.10562	0.741
6.14584	0.7655
6.18605	0.7924
6.22626	0.8087
6.26647	0.8223
6.30668	0.8334
6.3469	0.8372
6.38711	0.845
6.42732	0.845
6.46753	0.8469
6.50774	0.847
6.54796	0.845
6.58817	0.8468
6.62838	0.8438
6.66859	0.8455
6.7088	0.8322
6.74902	0.8156
6.78923	0.7676
6.82944	0.5941
6.86965	0.4435
6.90986	0.4564
6.95008	0.5672
6.99029	0.6153
7.0305	0.6102
7.07071	0.5541
7.11092	0.536
7.15114	0.5928
7.19135	0.6793
7.23156	0.6802
7.27177	0.5431
7.31198	0.631
7.3522	0.7423
7.39241	0.755
7.43262	0.7485
7.47283	0.7338
7.51304	0.7284
7.55326	0.7023
7.59347	0.6785
7.63368	0.6629
7.67389	0.664
7.7141	0.6298
7.75432	0.5634
7.79453	0.4897
7.83474	0.452
7.87495	0.442
7.91516	0.4532
7.95538	0.4956
7.99559	0.5382
8.0358	0.55
8.07601	0.536
8.11622	0.5336
8.15644	0.4573
8.19665	0.412
8.23686	0.3897
8.27707	0.4249
8.31728	0.4992
8.3575	0.5523
8.39771	0.6192
8.43792	0.6702
8.47813	0.6979
8.51834	0.7167
8.55856	0.7246
8.59877	0.729
8.63898	0.7327
8.67919	0.7238
8.7194	0.708
8.75962	0.704
8.79983	0.7181
8.84004	0.7499
8.88025	0.7709
8.92046	0.7719
8.96068	0.76
9.00089	0.761
9.0411	0.761
9.08131	0.763
9.12152	0.759
9.16174	0.7471
9.20195	0.7505
9.24216	0.7651
9.28237	0.7905
9.32258	0.8077
9.3628	0.8087
9.40301	0.813
9.44322	0.8221
9.48343	0.828
9.52364	0.832
9.56386	0.837
9.60407	0.842
9.64428	0.842
9.68449	0.837
9.7247	0.8322
9.76492	0.832
9.80513	0.832
9.84534	0.83
9.88555	0.83
9.92576	0.832
9.96598	0.8376
10.0062	0.8344
10.0464	0.83
10.0866	0.83
10.1268	0.827
10.167	0.827
10.2072	0.8166
10.2475	0.7997
10.2877	0.783
10.3279	0.7661
10.3681	0.7414
10.4083	0.7113
10.4485	0.6781
10.4887	0.661
10.5289	0.6436
10.5692	0.632
10.6094	0.62
10.6496	0.617
10.6898	0.6157
10.73	0.6178
10.7702	0.6179
10.8104	0.6238
10.8506	0.6398
10.8909	0.6562
10.9311	0.6724
10.9713	0.6773
11.0115	0.6892
11.0517	0.691
11.0919	0.699
11.1321	0.709
11.1723	0.7207
11.2125	0.7334
11.2528	0.7454
11.293	0.75
11.3332	0.75
11.3734	0.753
11.4136	0.753
11.4538	0.755
11.494	0.7519
11.5342	0.76
11.5745	0.7603
11.6147	0.7715
11.6549	0.7775
11.6951	0.778
11.7353	0.7833
11.7755	0.791
11.8157	0.793
11.8559	0.796
11.8962	0.798
11.9364	0.802
11.9766	0.803
12.0168	0.8096
12.057	0.8106
12.0972	0.8126
12.1374	0.813
12.1776	0.817
12.2178	0.821
12.2581	0.8282
12.2983	0.832
12.3385	0.8288
12.3787	0.832
12.4189	0.832
12.4591	0.8318
12.4993	0.8299
12.5395	0.827
12.5798	0.822
12.62	0.8101
12.6602	0.7843
12.7004	0.7513
12.7406	0.7232
12.7808	0.6963
12.821	0.6953
12.8612	0.7074
12.9015	0.7179
12.9417	0.7261
12.9819	0.7423
13.0221	0.7567
13.0623	0.7726
13.1025	0.7811
13.1427	0.7865
13.1829	0.7936
13.2231	0.8005
13.2634	0.807
13.3036	0.813
13.3438	0.81
13.384	0.803
13.4242	0.795
13.4644	0.7835
13.5046	0.771
13.5448	0.768
13.5851	0.773
13.6253	0.7807
13.6655	0.7855
13.7057	0.786
13.7459	0.786
13.7861	0.7855
13.8263	0.79
13.8665	0.788
13.9068	0.791
13.947	0.795
13.9872	0.795
14.0274	0.795
14.0676	0.7951
14.1078	0.798
14.148	0.796
14.1882	0.7932
14.2284	0.79
14.2687	0.7852
14.3089	0.781
14.3491	0.776
14.3893	0.776
14.4295	0.773
14.4697	0.766
14.5099	0.7605
14.5501	0.756
14.5904	0.7573
14.6306	0.7473
14.6708	0.7437
14.711	0.736
14.7512	0.7258
14.7914	0.724
14.8316	0.7108
14.8718	0.699
14.9121	0.6794
14.9523	0.676
14.9925	0.671
15.0327	0.6674
15.0729	0.6576
15.1131	0.6514
15.1533	0.6483
15.1935	0.652
15.2337	0.65
15.274	0.6461
15.3142	0.644
15.3544	0.6375
15.3946	0.635
