Infrared Spectrum: Delta^9,9'-BIFLUORENE
Formula: C26 H16
CAS: 746-47-4
State: SOLID (KBr PELLET)
Melting point: 187-189 C
Class: COBLENTZ
Instrument: Not specified, most likely a prism, grating, or hybrid spectrometer.
Sampling: TRANSMISSION
Resolution: 4
Origin: UNION CARBIDE CORPORATION (CARBON PRODUCTS DIVISION)
MICROMETERS	TRANSMITTANCE
2.02	0.25
2.05323	0.258
2.08646	0.267
2.11969	0.278
2.15292	0.286
2.18615	0.294
2.21939	0.309
2.25262	0.319
2.28585	0.328
2.31908	0.334
2.35231	0.343
2.38554	0.354
2.41877	0.363
2.452	0.371
2.48523	0.38
2.51846	0.392
2.5517	0.401
2.58493	0.408
2.61816	0.42
2.65139	0.428
2.68462	0.436
2.71785	0.442
2.75108	0.449
2.78431	0.449
2.81754	0.448
2.85077	0.44
2.88401	0.44
2.91724	0.438
2.95047	0.438
2.9837	0.462
3.01693	0.486
3.05016	0.501
3.08339	0.515
3.11662	0.53
3.14985	0.543
3.18308	0.55
3.21632	0.559
3.24955	0.518
3.28278	0.428
3.31601	0.452
3.34924	0.519
3.38247	0.547
3.4157	0.549
3.44893	0.55
3.48216	0.57
3.51539	0.584
3.54863	0.598
3.58186	0.61
3.61509	0.619
3.64832	0.628
3.68155	0.637
3.71478	0.64
3.74801	0.64
3.78124	0.645
3.81447	0.651
3.8477	0.657
3.88094	0.659
3.91417	0.66
3.9474	0.671
3.98063	0.681
4.01386	0.69
4.04709	0.69
4.08032	0.696
4.11355	0.696
4.14678	0.7
4.18001	0.71
4.21324	0.71
4.24648	0.71
4.27971	0.71
4.31294	0.71
4.34617	0.716
4.3794	0.726
4.41263	0.729
4.44586	0.732
4.47909	0.734
4.51232	0.741
4.54555	0.741
4.57879	0.746
4.61202	0.751
4.64525	0.754
4.67848	0.755
4.71171	0.763
4.74494	0.762
4.77817	0.762
4.8114	0.765
4.84463	0.765
4.87786	0.765
4.9111	0.777
4.94433	0.777
4.97756	0.778
5.01079	0.781
5.04402	0.781
5.07725	0.782
5.11048	0.779
5.14371	0.775
5.17694	0.771
5.21017	0.755
5.24341	0.758
5.27664	0.767
5.30987	0.77
5.3431	0.775
5.37633	0.781
5.40956	0.785
5.44279	0.785
5.47602	0.785
5.50925	0.786
5.54248	0.787
5.57572	0.799
5.60895	0.803
5.64218	0.806
5.67541	0.802
5.70864	0.801
5.74187	0.802
5.7751	0.799
5.80833	0.798
5.84156	0.795
5.87479	0.794
5.90803	0.794
5.94126	0.798
5.97449	0.799
6.00772	0.801
6.04095	0.799
6.07418	0.798
6.10741	0.798
6.14064	0.787
6.17387	0.778
6.2071	0.616
6.24033	0.651
6.27357	0.708
6.3068	0.763
6.34003	0.687
6.37326	0.778
6.40649	0.794
6.43972	0.807
6.47295	0.81
6.50618	0.815
6.53941	0.827
6.57264	0.83
6.60588	0.831
6.63911	0.831
6.67234	0.835
6.70557	0.836
6.7388	0.744
6.77203	0.53
6.80526	0.725
6.83849	0.771
6.87172	0.53
6.90495	0.159
6.93819	0.149
6.97142	0.339
7.00465	0.564
7.03788	0.688
7.07111	0.769
7.10434	0.802
7.13757	0.811
7.1708	0.816
7.20403	0.85
7.23726	0.856
7.2705	0.855
7.30373	0.852
7.33696	0.84
7.37019	0.753
7.40342	0.409
7.43665	0.431
7.46988	0.588
7.50311	0.73
7.53634	0.769
7.56957	0.791
7.60281	0.783
7.63604	0.68
7.66927	0.738
7.7025	0.774
7.73573	0.789
7.76896	0.783
7.80219	0.538
7.83542	0.639
7.86865	0.744
7.90188	0.789
7.93512	0.802
7.96835	0.807
8.00158	0.809
8.03481	0.809
8.06804	0.809
8.10127	0.809
8.1345	0.79
8.16773	0.787
8.20096	0.785
8.23419	0.742
8.26742	0.745
8.30066	0.749
8.33389	0.761
8.36712	0.779
8.40035	0.791
8.43358	0.803
8.46681	0.822
8.50004	0.826
8.53327	0.828
8.5665	0.828
8.59973	0.818
8.63297	0.661
8.6662	0.606
8.69943	0.717
8.73266	0.782
8.76589	0.811
8.79912	0.82
8.83235	0.82
8.86558	0.82
8.89881	0.827
8.93204	0.834
8.96528	0.832
8.99851	0.826
9.03174	0.818
9.06497	0.807
9.0982	0.807
9.13143	0.82
9.16466	0.834
9.19789	0.84
9.23112	0.844
9.26435	0.848
9.29759	0.847
9.33082	0.85
9.36405	0.851
9.39728	0.851
9.43051	0.851
9.46374	0.852
9.49697	0.852
9.5302	0.854
9.56343	0.851
9.59666	0.842
9.6299	0.787
9.66313	0.758
9.69636	0.763
9.72959	0.778
9.76282	0.799
9.79605	0.802
9.82928	0.807
9.86251	0.809
9.89574	0.809
9.92897	0.807
9.96221	0.809
9.99544	0.812
10.0287	0.822
10.0619	0.836
10.0951	0.84
10.1284	0.839
10.1616	0.818
10.1948	0.814
10.2281	0.822
10.2613	0.824
10.2945	0.789
10.3277	0.771
10.361	0.803
10.3942	0.818
10.4274	0.789
10.4607	0.66
10.4939	0.632
10.5271	0.738
10.5604	0.783
10.5936	0.809
10.6268	0.814
10.6601	0.809
10.6933	0.79
10.7265	0.799
10.7597	0.818
10.793	0.832
10.8262	0.842
10.8594	0.851
10.8927	0.854
10.9259	0.858
10.9591	0.862
10.9924	0.862
11.0256	0.862
11.0588	0.863
11.0921	0.863
11.1253	0.864
11.1585	0.866
11.1918	0.867
11.225	0.87
11.2582	0.871
11.2914	0.87
11.3247	0.862
11.3579	0.86
11.3911	0.86
11.4244	0.86
11.4576	0.862
11.4908	0.863
11.5241	0.862
11.5573	0.862
11.5905	0.863
11.6238	0.863
11.657	0.863
11.6902	0.864
11.7234	0.866
11.7567	0.866
11.7899	0.864
11.8231	0.831
11.8564	0.728
11.8896	0.697
11.9228	0.779
11.9561	0.832
11.9893	0.848
12.0225	0.855
12.0558	0.856
12.089	0.86
12.1222	0.862
12.1555	0.862
12.1887	0.866
12.2219	0.866
12.2551	0.866
12.2884	0.868
12.3216	0.867
12.3548	0.867
12.3881	0.868
12.4213	0.868
12.4545	0.866
12.4878	0.866
12.521	0.866
12.5542	0.864
12.5875	0.859
12.6207	0.85
12.6539	0.811
12.6871	0.709
12.7204	0.48
12.7536	0.59
12.7868	0.692
12.8201	0.72
12.8533	0.72
12.8865	0.687
12.9198	0.599
12.953	0.389
12.9862	0.168
13.0195	0.078
13.0527	0.076
13.0859	0.076
13.1191	0.14
13.1524	0.201
13.1856	0.289
13.2188	0.339
13.2521	0.363
13.2853	0.371
13.3185	0.375
13.3518	0.343
13.385	0.201
13.4182	0.183
13.4515	0.23
13.4847	0.324
13.5179	0.339
13.5512	0.376
13.5844	0.505
13.6176	0.558
13.6508	0.57
13.6841	0.558
13.7173	0.432
13.7505	0.234
13.7838	0.111
13.817	0.072
13.8502	0.062
13.8835	0.061
13.9167	0.079
13.9499	0.249
13.9832	0.464
14.0164	0.59
14.0496	0.656
14.0828	0.684
14.1161	0.712
14.1493	0.737
14.1825	0.75
14.2158	0.761
14.249	0.775
14.2822	0.782
14.3155	0.787
14.3487	0.789
14.3819	0.789
14.4152	0.789
14.4484	0.789
14.4816	0.793
14.5148	0.793
14.5481	0.793
14.5813	0.793
14.6145	0.794
14.6478	0.793
14.681	0.793
14.7142	0.793
14.7475	0.791
14.7807	0.791
14.8139	0.789
14.8472	0.785
14.8804	0.785
14.9136	0.782
14.9469	0.775
14.9801	0.757
15.0133	0.718
15.0465	0.718
15.0798	0.736
15.113	0.757
