Infrared Spectrum: Formic acid, 2-PyrimidinylHydrazide
Formula: C5 H6 N4 O
CAS: 7461-00-9
State: SOLID (0.8 mg / 650 mg KBr DISC)
Class: COBLENTZ III
Instrument: PERKIN-ELMER 221 (GRATING)
Instrument parameters: FILTER AT 2490, 980 CM^-^1. GRATING 4000-1428 CM^-^1, NaCl PRISM 1428-650 CM^-^1
Sampling: TRANSMISSION
Resolution: 2
Origin: SOUTHERN RESEARCH INSTITUTE
1/CM	TRANSMITTANCE
541	0.5839
550.022	0.6804
559.044	0.5788
568.066	0.571
577.088	0.538
586.11	0.5557
595.133	0.6017
604.155	0.6013
613.177	0.5948
622.199	0.5747
631.221	0.522
640.243	0.5041
649.265	0.5736
658.287	0.5735
667.309	0.5709
676.331	0.5739
685.353	0.6054
694.376	0.6275
703.398	0.6324
712.42	0.6345
721.442	0.6382
730.464	0.6472
739.486	0.6612
748.508	0.6753
757.53	0.6876
766.552	0.6902
775.574	0.6833
784.597	0.6309
793.619	0.5129
802.641	0.6533
811.663	0.5958
820.685	0.4061
829.707	0.6001
838.729	0.7211
847.751	0.6985
856.773	0.6356
865.795	0.6426
874.817	0.644
883.84	0.6078
892.862	0.6588
901.884	0.7247
910.906	0.7556
919.928	0.7739
928.95	0.7844
937.972	0.786
946.994	0.7836
956.016	0.777
965.038	0.77
974.06	0.7613
983.083	0.7883
992.105	0.692
1001.13	0.6832
1010.15	0.7295
1019.17	0.6995
1028.19	0.69
1037.22	0.6433
1046.24	0.601
1055.26	0.5744
1064.28	0.6864
1073.3	0.724
1082.33	0.6214
1091.35	0.7041
1100.37	0.7003
1109.39	0.6498
1118.41	0.6444
1127.44	0.6996
1136.46	0.6948
1145.48	0.6709
1154.5	0.6382
1163.52	0.6035
1172.55	0.5726
1181.57	0.506
1190.59	0.4861
1199.61	0.5374
1208.63	0.5564
1217.66	0.4754
1226.68	0.4097
1235.7	0.5247
1244.72	0.6368
1253.75	0.6308
1262.77	0.6203
1271.79	0.6033
1280.81	0.495
1289.83	0.648
1298.86	0.6398
1307.88	0.6236
1316.9	0.6069
1325.92	0.5931
1334.94	0.5626
1343.97	0.5158
1352.99	0.4358
1362.01	0.3833
1371.03	0.2853
1380.05	0.2892
1389.08	0.3552
1398.1	0.3545
1407.12	0.2763
1416.14	0.1576
1425.17	0.234
1434.19	0.5246
1443.21	0.3902
1452.23	0.2139
1461.25	0.46
1470.28	0.6111
1479.3	0.6076
1488.32	0.48
1497.34	0.4116
1506.36	0.4308
1515.39	0.4241
1524.41	0.4011
1533.43	0.4036
1542.45	0.4892
1551.47	0.4823
1560.5	0.4444
1569.52	0.2425
1578.54	0.1024
1587.56	0.1535
1596.58	0.128
1605.61	0.2114
1614.63	0.4449
1623.65	0.4777
1632.67	0.4631
1641.7	0.4226
1650.72	0.3589
1659.74	0.2871
1668.76	0.1378
1677.78	0.1177
1686.81	0.1716
1695.83	0.3284
1704.85	0.4033
1713.87	0.4742
1722.89	0.5077
1731.92	0.5686
1740.94	0.6138
1749.96	0.6362
1758.98	0.6621
1768	0.6848
1777.03	0.7018
1786.05	0.7155
1795.07	0.7305
1804.09	0.7411
1813.12	0.7488
1822.14	0.762
1831.16	0.7778
1840.18	0.7873
1849.2	0.7944
1858.23	0.7961
1867.25	0.7979
1876.27	0.7997
1885.29	0.8015
1894.31	0.8023
1903.34	0.8023
1912.36	0.8014
1921.38	0.8006
1930.4	0.7995
1939.42	0.7981
1948.45	0.7967
1957.47	0.7943
1966.49	0.7915
1975.51	0.7887
1984.53	0.7886
1993.56	0.7947
2002.58	0.8003
2011.6	0.8013
2020.62	0.8017
2029.65	0.8019
2038.67	0.8021
2047.69	0.8023
2056.71	0.8024
2065.73	0.8027
2074.76	0.803
2083.78	0.8033
2092.8	0.8029
2101.82	0.8025
2110.84	0.8021
2119.87	0.8018
2128.89	0.8015
2137.91	0.8012
2146.93	0.8009
2155.95	0.8003
2164.98	0.7996
2174	0.7989
2183.02	0.7983
2192.04	0.7967
2201.07	0.7951
2210.09	0.7938
2219.11	0.7925
2228.13	0.7905
2237.15	0.7877
2246.18	0.785
2255.2	0.7817
2264.22	0.7781
2273.24	0.7728
2282.26	0.768
2291.29	0.7635
2300.31	0.759
2309.33	0.7564
2318.35	0.7544
2327.37	0.7532
2336.4	0.7527
2345.42	0.7524
2354.44	0.7521
2363.46	0.752
2372.48	0.752
2381.51	0.752
2390.53	0.7522
2399.55	0.7523
2408.57	0.7519
2417.6	0.7514
2426.62	0.7496
2435.64	0.7469
2444.66	0.7453
2453.68	0.7443
2462.71	0.7424
2471.73	0.7396
2480.75	0.6778
2489.77	0.736
2498.79	0.7335
2507.82	0.731
2516.84	0.7264
2525.86	0.7217
2534.88	0.7177
2543.9	0.7153
2552.93	0.7128
2561.95	0.7088
2570.97	0.7042
2579.99	0.6988
2589.02	0.6927
2598.04	0.6867
2607.06	0.6804
2616.08	0.6741
2625.1	0.6678
2634.13	0.6615
2643.15	0.6554
2652.17	0.65
2661.19	0.6448
2670.21	0.6389
2679.24	0.633
2688.26	0.6267
2697.28	0.6202
2706.3	0.6134
2715.32	0.6064
2724.35	0.5996
2733.37	0.5932
2742.39	0.5864
2751.41	0.5794
2760.43	0.5723
2769.46	0.5652
2778.48	0.5581
2787.5	0.5508
2796.52	0.5426
2805.55	0.5329
2814.57	0.5187
2823.59	0.5027
2832.61	0.4866
2841.63	0.4741
2850.66	0.4619
2859.68	0.4495
2868.7	0.4373
2877.72	0.4261
2886.74	0.4139
2895.77	0.3891
2904.79	0.364
2913.81	0.4005
2922.83	0.3973
2931.85	0.3856
2940.88	0.3776
2949.9	0.3717
2958.92	0.3662
2967.94	0.3622
2976.97	0.358
2985.99	0.3583
2995.01	0.3745
3004.03	0.3974
3013.05	0.3991
3022.08	0.3973
3031.1	0.3985
3040.12	0.4077
3049.14	0.4101
3058.16	0.4095
3067.19	0.4087
3076.21	0.4673
3085.23	0.4938
3094.25	0.498
3103.27	0.5018
3112.3	0.5049
3121.32	0.4957
3130.34	0.4704
3139.36	0.4453
3148.38	0.4178
3157.41	0.4103
3166.43	0.4083
3175.45	0.3983
3184.47	0.3883
3193.5	0.3681
3202.52	0.3208
3211.54	0.2879
3220.56	0.2801
3229.58	0.2807
3238.61	0.2846
3247.63	0.2916
3256.65	0.2923
3265.67	0.2898
3274.69	0.2875
3283.72	0.2855
3292.74	0.2873
3301.76	0.301
3310.78	0.3317
3319.8	0.3519
3328.83	0.4053
3337.85	0.4379
3346.87	0.4662
3355.89	0.4949
3364.92	0.5067
3373.94	0.5229
3382.96	0.5375
3391.98	0.5479
3401	0.5562
3410.03	0.5635
3419.05	0.5714
3428.07	0.5798
3437.09	0.5873
3446.11	0.5939
3455.14	0.6005
3464.16	0.6069
3473.18	0.613
3482.2	0.6188
3491.22	0.625
3500.25	0.6326
3509.27	0.6459
3518.29	0.655
3527.31	0.6597
3536.33	0.6644
3545.36	0.6757
3554.38	0.6837
3563.4	0.688
3572.42	0.6935
3581.45	0.7009
3590.47	0.7159
3599.49	0.727
3608.51	0.73
3617.53	0.7314
3626.56	0.732
3635.58	0.7326
3644.6	0.7332
3653.62	0.7338
3662.64	0.7342
3671.67	0.7346
3680.69	0.7351
3689.71	0.7355
3698.73	0.736
3707.75	0.736
3716.78	0.7358
3725.8	0.7355
3734.82	0.7353
3743.84	0.7351
3752.86	0.7349
3761.89	0.7347
3770.91	0.7345
3779.93	0.7341
3788.95	0.7326
3797.98	0.7291
3807	0.7256
