Infrared Spectrum: 2,3-Dimethoxycinnamic acid
Formula: C 11 H 12 O 4
CAS: 7461-60-1
State: gas
Origin: EPA-IR VAPOR PHASE LIBRARY
1/CM	ABSORBANCE
549.8	0.006035
559.445	0.005825
569.09	0.005665
578.735	0.005475
588.38	0.004645
598.025	0.003465
607.67	0.002595
617.315	0.002545
626.96	0.002705
636.605	0.003555
646.251	0.003175
655.896	0.001925
665.541	0.0012519
675.186	0.0010595
684.831	0.0011547
694.476	0.0013529
704.121	0.001545
713.766	0.002335
723.411	0.003385
733.056	0.003935
742.701	0.005255
752.346	0.004615
761.991	0.002315
771.636	0.001565
781.281	0.002195
790.926	0.003785
800.571	0.003535
810.216	0.003095
819.861	0.002015
829.507	0.001219
839.152	0.0010414
848.797	0.001092
858.442	0.001385
868.087	0.001625
877.732	0.001775
887.377	0.001865
897.022	0.001815
906.667	0.001455
916.312	0.001405
925.957	0.001745
935.602	0.001925
945.247	0.002085
954.892	0.002075
964.537	0.002455
974.182	0.003455
983.827	0.005075
993.472	0.005585
1003.12	0.007635
1012.76	0.009635
1022.41	0.006965
1032.05	0.005225
1041.7	0.005535
1051.34	0.006075
1060.99	0.006805
1070.63	0.009735
1080.28	0.012565
1089.92	0.012055
1099.57	0.012645
1109.21	0.022825
1118.86	0.035065
1128.5	0.018965
1138.15	0.011035
1147.79	0.012635
1157.44	0.015375
1167.08	0.011695
1176.73	0.007615
1186.37	0.005825
1196.02	0.006015
1205.66	0.007075
1215.31	0.008455
1224.95	0.009885
1234.6	0.010635
1244.24	0.012235
1253.89	0.016455
1263.53	0.023175
1273.18	0.024525
1282.82	0.019365
1292.47	0.014515
1302.11	0.010115
1311.76	0.007665
1321.4	0.006565
1331.05	0.006185
1340.69	0.007145
1350.34	0.009135
1359.98	0.008835
1369.63	0.005775
1379.27	0.003735
1388.92	0.002845
1398.56	0.002775
1408.21	0.003625
1417.85	0.005645
1427.5	0.008465
1437.14	0.006855
1446.79	0.005305
1456.43	0.007265
1466.08	0.013995
1475.73	0.017065
1485.37	0.010035
1495.02	0.004365
1504.66	0.002455
1514.31	0.001895
1523.95	0.001795
1533.6	0.001785
1543.24	0.002005
1552.89	0.002755
1562.53	0.003955
1572.18	0.006575
1581.82	0.007635
1591.47	0.004915
1601.11	0.003455
1610.76	0.002795
1620.4	0.003655
1630.05	0.007715
1639.69	0.011315
1649.34	0.004475
1658.98	0.001855
1668.63	0.001365
1678.27	0.0013021
1687.92	0.001485
1697.56	0.001895
1707.21	0.002755
1716.85	0.004045
1726.5	0.006545
1736.14	0.012265
1745.79	0.029815
1755.43	0.036895
1765.08	0.020505
1774.72	0.011245
1784.37	0.008015
1794.01	0.004935
1803.66	0.002775
1813.3	0.001925
1822.95	0.001575
1832.59	0.0012339
1842.24	0.0011144
1851.88	0.0010117
1861.53	0.0008189
1871.17	0.0007376
1880.82	0.0008236
1890.46	0.000841
1900.11	0.0008811
1909.75	0.0007793
1919.4	0.0006101
1929.04	0.0005452
1938.69	0.0005247
1948.33	0.0005854
1957.98	0.000587
1967.62	0.0006877
1977.27	0.0007024
1986.91	0.0007499
1996.56	0.0007423
2006.2	0.0008193
2015.85	0.0008712
2025.49	0.0007941
2035.14	0.0007676
2044.78	0.0007433
2054.43	0.0006967
2064.07	0.0006449
2073.72	0.0005383
2083.36	0.000473
2093.01	0.00041852
2102.65	0.00040394
2112.3	0.00043964
2121.94	0.0003073
2131.59	0.00036973
2141.23	0.00040168
2150.88	0.00041394
2160.52	0.00043729
2170.17	0.0004055
2179.81	0.00041191
2189.46	0.00041584
2199.1	0.0004851
2208.75	0.0004708
2218.39	0.0004803
2228.04	0.00045356
2237.68	0.00042178
2247.33	0.00039797
2256.97	0.00040871
2266.62	0.000364562
2276.26	0.00041178
2285.91	0.0004366
2295.55	0.0005167
2305.2	0.0005565
2314.84	0.0005931
2324.49	0.0006368
2334.13	0.0005726
2343.78	0.000622
2353.42	0.0006635
2363.07	0.000743
2372.72	0.0006375
2382.36	0.00045225
2392.01	0.00036753
2401.65	0.00037732
2411.3	0.0003517
2420.94	0.0003211
2430.59	0.00038111
2440.23	0.0003191
2449.88	0.00045022
2459.52	0.00040669
2469.17	0.0004281
2478.81	0.00042662
2488.46	0.00038614
2498.1	0.000359611
2507.75	0.0004224
2517.39	0.00039973
2527.04	0.00041178
2536.68	0.00045378
2546.33	0.0003499
2555.97	0.0004637
2565.62	0.00038705
2575.26	0.0004584
2584.91	0.00037282
2594.55	0.0003196
2604.2	0.0003176
2613.84	0.0003061
2623.49	0.0003162
2633.13	0.000246
2642.78	0.0002976
2652.42	0.0002791
2662.07	0.000181
2671.71	0.0003011
2681.36	0.0002733
2691	0.0002728
2700.65	0.0002945
2710.29	0.00034743
2719.94	0.000253
2729.58	0.0002831
2739.23	0.0003301
2748.87	0.0003239
2758.52	0.0002751
2768.16	0.000361267
2777.81	0.00040548
2787.45	0.000405
2797.1	0.0005335
2806.74	0.0007088
2816.39	0.0010447
2826.03	0.001765
2835.68	0.003195
2845.32	0.003965
2854.97	0.002535
2864.61	0.001985
2874.26	0.002125
2883.9	0.002155
2893.55	0.002275
2903.19	0.002745
2912.84	0.003015
2922.48	0.003415
2932.13	0.004625
2941.77	0.006935
2951.42	0.007115
2961.06	0.005155
2970.71	0.004345
2980.35	0.003555
2990	0.003495
2999.64	0.003955
3009.29	0.004195
3018.93	0.002905
3028.58	0.002045
3038.22	0.001815
3047.87	0.001705
3057.51	0.001805
3067.16	0.002295
3076.8	0.002815
3086.45	0.001955
3096.09	0.0010704
3105.74	0.0006496
3115.38	0.000592
3125.03	0.000363916
3134.67	0.00037959
3144.32	0.0003315
3153.96	0.0002887
3163.61	0.000196
3173.25	0.000157
3182.9	9.8e-05
3192.54	6.9e-05
3202.19	0.000168
3211.83	0.000124
3221.48	0.000153
3231.12	6e-05
3240.77	3.3e-05
3250.41	0.00018
3260.06	0.000102
3269.7	5.8e-05
3279.35	5.1e-05
3289	0.000158
3298.64	0.000172
3308.29	0.000181
3317.93	0.000181
3327.58	0.000185
3337.22	0.000253
3346.87	0.000201
3356.51	0.0003379
3366.16	0.0004611
3375.8	0.0005086
3385.45	0.0005593
3395.09	0.0003439
3404.74	0.00044449
3414.38	0.00039312
3424.03	0.0003207
3433.67	0.0003007
3443.32	0.00037986
3452.96	0.000213
3462.61	0.0002865
3472.25	0.00038954
3481.9	0.00044794
3491.54	0.00038571
3501.19	0.00042193
3510.83	0.0002634
3520.48	0.000244
3530.12	0.000264
3539.77	0.0003277
3549.41	0.00038226
3559.06	0.0007157
3568.7	0.002335
3578.35	0.012295
3587.99	0.011545
3597.64	0.001825
3607.28	0.000547
3616.93	0.0003267
3626.57	0.0002726
3636.22	0.000252
3645.86	0.0003415
3655.51	0.0002939
3665.15	0.0003037
3674.8	4.2e-05
3684.44	0.0002691
3694.09	0.000134
3703.73	0.000244
3713.38	6.3e-05
3723.02	0.000235
3732.67	0.0001
3742.31	0.000185
3751.96	0.000161
3761.6	5.2e-05
3771.25	0.0003054
3780.89	0.000144
3790.54	0.000145
3800.18	0.000189
3809.83	0.000168
3819.47	0.000111
3829.12	0.0002591
3838.76	0.0002809
3848.41	0.0002589
3858.05	0.000135
3867.7	0.000189
3877.34	0.00014
3886.99	0.00017
3896.63	0.000225
3906.28	0.0003094
3915.92	0.000176
3925.57	9.8e-05
3935.21	7.8e-05
3944.86	0.000193
3954.5	0.000127
3964.15	7.1e-05
3973.79	2.7e-05
3983.44	0.0002917
3993.08	0.000287
