Infrared Spectrum: 9H-PURIN-6(1H)-ONE, 9-BENZYL-2-DIMETHYLAMINO-
Formula: C14 H15 N5 O
CAS: 7461-80-5
State: SOLID (0.6 mg / 650 mg KBr DISC)
Class: COBLENTZ III
Instrument: PERKIN-ELMER 221 (GRATING)
Instrument parameters: FILTER AT 2490, 980 CM^-^1. GRATING 4000-1428 CM^-^1, NaCl PRISM 1428-650 CM^-^1
Resolution: 2
Origin: SOUTHERN RESEARCH INSTITUTE
1/CM	TRANSMITTANCE
552.784	0.689
562.108	0.8267
571.433	0.877
580.757	0.8017
590.082	0.8801
599.406	0.9004
608.731	0.9319
618.055	0.9095
627.38	0.8708
636.704	0.899
646.028	0.7695
655.353	0.8067
664.677	0.8725
674.002	0.8524
683.326	0.8196
692.651	0.6797
701.975	0.6811
711.299	0.6501
720.624	0.4542
729.948	0.6606
739.273	0.8171
748.597	0.7381
757.922	0.499
767.246	0.7989
776.571	0.734
785.895	0.7731
795.219	0.7609
804.544	0.7314
813.868	0.6879
823.193	0.6087
832.517	0.7353
841.842	0.646
851.166	0.7598
860.491	0.8313
869.815	0.835
879.139	0.8316
888.464	0.7726
897.788	0.7913
907.113	0.6203
916.437	0.8258
925.762	0.839
935.086	0.835
944.411	0.8239
953.735	0.7965
963.059	0.7115
972.384	0.7816
981.708	0.811
991.033	0.812
1000.36	0.8051
1009.68	0.7854
1019.01	0.7512
1028.33	0.7298
1037.65	0.7307
1046.98	0.7077
1056.3	0.5564
1065.63	0.6826
1074.95	0.683
1084.28	0.7268
1093.6	0.7543
1102.93	0.753
1112.25	0.7467
1121.57	0.7205
1130.9	0.6609
1140.22	0.4996
1149.55	0.5736
1158.87	0.6764
1168.2	0.7224
1177.52	0.7485
1186.85	0.712
1196.17	0.7095
1205.49	0.6643
1214.82	0.5674
1224.14	0.6786
1233.47	0.6861
1242.79	0.6455
1252.12	0.5597
1261.44	0.6637
1270.77	0.6926
1280.09	0.6669
1289.41	0.5476
1298.74	0.4767
1308.06	0.5963
1317.39	0.6946
1326.71	0.6295
1336.04	0.5791
1345.36	0.3878
1354.69	0.371
1364.01	0.4974
1373.33	0.419
1382.66	0.5243
1391.98	0.606
1401.31	0.4813
1410.63	0.5307
1419.96	0.6359
1429.28	0.5152
1438.61	0.558
1447.93	0.425
1457.25	0.6278
1466.58	0.6079
1475.9	0.5692
1485.23	0.5349
1494.55	0.4672
1503.88	0.574
1513.2	0.4947
1522.53	0.4045
1531.85	0.302
1541.17	0.3684
1550.5	0.4244
1559.82	0.3162
1569.15	0.2414
1578.47	0.2201
1587.8	0.1562
1597.12	0.125
1606.45	0.1395
1615.77	0.261
1625.09	0.315
1634.42	0.3002
1643.74	0.2476
1653.07	0.1791
1662.39	0.1067
1671.72	0.0913
1681.04	0.1539
1690.37	0.2942
1699.69	0.4605
1709.01	0.5519
1718.34	0.6049
1727.66	0.6696
1736.99	0.7255
1746.31	0.7542
1755.64	0.8094
1764.96	0.8465
1774.29	0.8642
1783.61	0.8791
1792.93	0.88
1802.26	0.8811
1811.58	0.895
1820.91	0.9029
1830.23	0.905
1839.56	0.9011
1848.88	0.891
1858.21	0.896
1867.53	0.908
1876.85	0.909
1886.18	0.9082
1895.5	0.9054
1904.83	0.903
1914.15	0.899
1923.48	0.896
1932.8	0.8913
1942.13	0.8746
1951.45	0.8733
1960.77	0.8836
1970.1	0.889
1979.42	0.889
1988.75	0.8884
1998.07	0.8859
2007.4	0.883
2016.72	0.8794
2026.05	0.8754
2035.37	0.874
2044.69	0.8714
2054.02	0.868
2063.34	0.864
2072.67	0.863
2081.99	0.863
2091.32	0.863
2100.64	0.8625
2109.97	0.859
2119.29	0.8571
2128.61	0.855
2137.94	0.8529
2147.26	0.852
2156.59	0.852
2165.91	0.8504
2175.24	0.848
2184.56	0.846
2193.89	0.842
2203.21	0.839
2212.53	0.839
2221.86	0.839
2231.18	0.8396
2240.51	0.839
2249.83	0.8395
2259.16	0.836
2268.48	0.832
2277.81	0.8289
2287.13	0.826
2296.45	0.8224
2305.78	0.819
2315.1	0.816
2324.43	0.814
2333.75	0.8114
2343.08	0.811
2352.4	0.809
2361.73	0.8064
2371.05	0.805
2380.37	0.8065
2389.7	0.809
2399.02	0.809
2408.35	0.806
2417.67	0.803
2427	0.8014
2436.32	0.799
2445.65	0.798
2454.97	0.795
2464.29	0.7935
2473.62	0.791
2482.94	0.7879
2492.27	0.7854
2501.59	0.7825
2510.92	0.781
2520.24	0.781
2529.57	0.779
2538.89	0.777
2548.21	0.7734
2557.54	0.77
2566.86	0.77
2576.19	0.769
2585.51	0.7654
2594.84	0.761
2604.16	0.755
2613.49	0.751
2622.81	0.751
2632.13	0.75
2641.46	0.749
2650.78	0.744
2660.11	0.741
2669.43	0.737
2678.76	0.7309
2688.08	0.726
2697.41	0.7164
2706.73	0.7109
2716.05	0.708
2725.38	0.705
2734.7	0.704
2744.03	0.702
2753.35	0.697
2762.68	0.6903
2772	0.673
2781.33	0.669
2790.65	0.6519
2799.97	0.632
2809.3	0.623
2818.62	0.62
2827.95	0.622
2837.27	0.6149
2846.6	0.5778
2855.92	0.571
2865.25	0.572
2874.57	0.5654
2883.89	0.5499
2893.22	0.5233
2902.54	0.4969
2911.87	0.4752
2921.19	0.45
2930.52	0.4551
2939.84	0.4911
2949.17	0.496
2958.49	0.5026
2967.81	0.5215
2977.14	0.525
2986.46	0.525
2995.79	0.5199
3005.11	0.501
3014.44	0.4924
3023.76	0.4623
3033.09	0.4654
3042.41	0.5037
3051.73	0.5176
3061.06	0.5265
3070.38	0.5304
3079.71	0.5024
3089.03	0.4842
3098.36	0.4858
3107.68	0.4548
3117.01	0.4477
3126.33	0.518
3135.65	0.5441
3144.98	0.5506
3154.3	0.5495
3163.63	0.546
3172.95	0.5557
3182.28	0.5742
3191.6	0.5972
3200.93	0.6167
3210.25	0.6346
3219.57	0.6547
3228.9	0.6822
3238.22	0.7016
3247.55	0.705
3256.87	0.705
3266.2	0.704
3275.52	0.705
3284.85	0.7071
3294.17	0.7176
3303.49	0.721
3312.82	0.72
3322.14	0.717
3331.47	0.7124
3340.79	0.7045
3350.12	0.6924
3359.44	0.6799
3368.77	0.6715
3378.09	0.668
3387.41	0.6634
3396.74	0.6534
3406.06	0.647
3415.39	0.644
3424.71	0.641
3434.04	0.641
3443.36	0.639
3452.69	0.64
3462.01	0.644
3471.33	0.645
3480.66	0.648
3489.98	0.649
3499.31	0.652
3508.63	0.656
3517.96	0.6606
3527.28	0.668
3536.61	0.671
3545.93	0.6787
3555.25	0.688
3564.58	0.6926
3573.9	0.696
3583.23	0.698
3592.55	0.7046
3601.88	0.706
3611.2	0.71
3620.53	0.7211
3629.85	0.724
3639.17	0.726
3648.5	0.728
3657.82	0.728
3667.15	0.728
3676.47	0.728
3685.8	0.7231
3695.12	0.7291
3704.45	0.7326
3713.77	0.733
3723.09	0.724
3732.42	0.724
3741.74	0.736
3751.07	0.736
3760.39	0.726
