Infrared Spectrum: Formamide, N-[4-amino-6-(benzylthio)-5-pyrimidinyl]-N-benzyl-
Formula: C19 H18 N4 O S
CAS: 7461-79-2
State: SOLID (0.8 mg / 650 mg KBr DISC)
Class: COBLENTZ III
Instrument: PERKIN-ELMER 221 (GRATING)
Instrument parameters: FILTER AT 980 CM^-^1. GRATING 4000-1428 CM^-^1, NaCl PRISM 1428-650 CM^-^1
Sampling: TRANSMISSION
Resolution: 2
Origin: SOUTHERN RESEARCH INSTITUTE
1/CM	TRANSMITTANCE
639.4	0.9097
648.444	0.8991
657.489	0.8843
666.533	0.8604
675.578	0.7798
684.622	0.4435
693.667	0.5191
702.711	0.6079
711.756	0.6718
720.8	0.8002
729.845	0.5807
738.889	0.8535
747.934	0.8349
756.978	0.6427
766.022	0.7734
775.067	0.8111
784.111	0.7718
793.156	0.8043
802.2	0.8483
811.245	0.8119
820.289	0.8113
829.334	0.6608
838.378	0.767
847.423	0.8428
856.467	0.8603
865.512	0.8646
874.556	0.861
883.601	0.8557
892.645	0.8466
901.689	0.8299
910.734	0.7727
919.778	0.7975
928.823	0.7346
937.867	0.6576
946.912	0.4719
955.956	0.8042
965.001	0.8107
974.045	0.8179
983.09	0.6918
992.134	0.7362
1001.18	0.8145
1010.22	0.8072
1019.27	0.7832
1028.31	0.7815
1037.36	0.7758
1046.4	0.7379
1055.45	0.7303
1064.49	0.7097
1073.53	0.6218
1082.58	0.7569
1091.62	0.7595
1100.67	0.7538
1109.71	0.7588
1118.76	0.7597
1127.8	0.7523
1136.85	0.7425
1145.89	0.7288
1154.93	0.7084
1163.98	0.6595
1173.02	0.6041
1182.07	0.6819
1191.11	0.7028
1200.16	0.6946
1209.2	0.7022
1218.25	0.6444
1227.29	0.6369
1236.33	0.6553
1245.38	0.6336
1254.42	0.4993
1263.47	0.422
1272.51	0.7127
1281.56	0.723
1290.6	0.6924
1299.65	0.723
1308.69	0.673
1317.73	0.565
1326.78	0.4845
1335.82	0.6658
1344.87	0.6431
1353.91	0.415
1362.96	0.418
1372	0.6448
1381.05	0.4389
1390.09	0.5585
1399.13	0.6449
1408.18	0.6024
1417.22	0.6109
1426.27	0.6732
1435.31	0.6495
1444.36	0.7317
1453.4	0.7425
1462.45	0.7321
1471.49	0.6889
1480.54	0.5784
1489.58	0.5688
1498.62	0.7279
1507.67	0.6972
1516.71	0.6195
1525.76	0.5434
1534.8	0.3907
1543.85	0.356
1552.89	0.1498
1561.94	0.1922
1570.98	0.574
1580.02	0.6103
1589.07	0.6971
1598.11	0.6507
1607.16	0.6245
1616.2	0.4559
1625.25	0.2655
1634.29	0.2481
1643.34	0.2374
1652.38	0.1464
1661.42	0.1041
1670.47	0.3558
1679.51	0.5724
1688.56	0.7352
1697.6	0.8558
1706.65	0.8789
1715.69	0.8932
1724.74	0.8997
1733.78	0.8984
1742.82	0.8948
1751.87	0.8922
1760.91	0.8963
1769.96	0.9006
1779	0.9025
1788.05	0.9017
1797.09	0.8998
1806.14	0.8963
1815.18	0.8943
1824.22	0.8936
1833.27	0.8921
1842.31	0.8893
1851.36	0.8829
1860.4	0.8774
1869.45	0.8725
1878.49	0.8623
1887.54	0.8696
1896.58	0.8748
1905.62	0.8694
1914.67	0.8598
1923.71	0.8582
1932.76	0.8565
1941.8	0.8438
1950.85	0.8554
1959.89	0.8629
1968.94	0.8653
1977.98	0.8664
1987.03	0.8662
1996.07	0.8602
2005.11	0.8519
2014.16	0.8514
2023.2	0.8512
2032.25	0.8518
2041.29	0.8522
2050.34	0.852
2059.38	0.8516
2068.43	0.8501
2077.47	0.8475
2086.51	0.844
2095.56	0.8411
2104.6	0.8396
2113.65	0.8386
2122.69	0.8373
2131.74	0.836
2140.78	0.8347
2149.83	0.8335
2158.87	0.8326
2167.91	0.8318
2176.96	0.8316
2186	0.8313
2195.05	0.8299
2204.09	0.8283
2213.14	0.826
2222.18	0.8236
2231.23	0.8217
2240.27	0.8199
2249.31	0.818
2258.36	0.8161
2267.4	0.8141
2276.45	0.8122
2285.49	0.8105
2294.54	0.8089
2303.58	0.8075
2312.63	0.8065
2321.67	0.8055
2330.71	0.8045
2339.76	0.8037
2348.8	0.8031
2357.85	0.8034
2366.89	0.8033
2375.94	0.8017
2384.98	0.7998
2394.03	0.7973
2403.07	0.7946
2412.11	0.7934
2421.16	0.7922
2430.2	0.7911
2439.25	0.7908
2448.29	0.7906
2457.34	0.7903
2466.38	0.7889
2475.43	0.7871
2484.47	0.785
2493.52	0.7838
2502.56	0.7827
2511.6	0.7817
2520.65	0.7812
2529.69	0.7806
2538.74	0.7796
2547.78	0.7782
2556.83	0.776
2565.87	0.7735
2574.92	0.7709
2583.96	0.7684
2593	0.7662
2602.05	0.7646
2611.09	0.7631
2620.14	0.7617
2629.18	0.7604
2638.23	0.7578
2647.27	0.7546
2656.32	0.7509
2665.36	0.7504
2674.4	0.7496
2683.45	0.7493
2692.49	0.7493
2701.54	0.7493
2710.58	0.7492
2719.63	0.7504
2728.67	0.7529
2737.72	0.7541
2746.76	0.7537
2755.8	0.7513
2764.85	0.7464
2773.89	0.7416
2782.94	0.7372
2791.98	0.7343
2801.03	0.7326
2810.07	0.7286
2819.12	0.722
2828.16	0.7152
2837.2	0.7077
2846.25	0.7022
2855.29	0.7018
2864.34	0.6953
2873.38	0.6821
2882.43	0.6681
2891.47	0.6632
2900.52	0.6632
2909.56	0.6631
2918.61	0.6618
2927.65	0.6606
2936.69	0.6639
2945.74	0.6682
2954.78	0.67
2963.83	0.6649
2972.87	0.6564
2981.92	0.6521
2990.96	0.6532
3000.01	0.6545
3009.05	0.6414
3018.09	0.6066
3027.14	0.5871
3036.18	0.6298
3045.23	0.6185
3054.27	0.5864
3063.32	0.6065
3072.36	0.618
3081.41	0.6067
3090.45	0.6067
3099.49	0.5874
3108.54	0.5751
3117.58	0.5635
3126.63	0.546
3135.67	0.5281
3144.72	0.5079
3153.76	0.4854
3162.81	0.4623
3171.85	0.4413
3180.89	0.4443
3189.94	0.455
3198.98	0.4627
3208.03	0.4726
3217.07	0.5246
3226.12	0.5771
3235.16	0.6087
3244.21	0.6207
3253.25	0.6215
3262.29	0.6126
3271.34	0.5912
3280.38	0.5586
3289.43	0.5153
3298.47	0.4674
3307.52	0.4583
3316.56	0.4716
3325.61	0.4865
3334.65	0.4975
3343.69	0.4898
3352.74	0.4648
3361.78	0.4135
3370.83	0.3508
3379.87	0.3276
3388.92	0.3525
3397.96	0.4627
3407.01	0.5547
3416.05	0.6139
3425.09	0.6405
3434.14	0.6583
3443.18	0.6649
3452.23	0.6718
3461.27	0.6777
3470.32	0.683
3479.36	0.6875
3488.41	0.6913
3497.45	0.695
3506.5	0.6991
3515.54	0.7028
3524.58	0.7058
3533.63	0.7085
3542.67	0.7104
3551.72	0.7129
3560.76	0.7162
3569.81	0.7209
3578.85	0.7247
3587.9	0.7271
3596.94	0.7288
3605.98	0.7306
3615.03	0.7327
3624.07	0.7345
3633.12	0.7358
3642.16	0.7363
3651.21	0.7368
3660.25	0.736
3669.3	0.7351
3678.34	0.7342
3687.38	0.7332
3696.43	0.7321
3705.47	0.7311
3714.52	0.7297
3723.56	0.7282
3732.61	0.7267
3741.65	0.7258
3750.7	0.7253
3759.74	0.7248
3768.78	0.7245
3777.83	0.7244
3786.87	0.7246
3795.92	0.7235
3804.96	0.7209
3814.01	0.7178
3823.05	0.7149
3832.1	0.7133
3841.14	0.7118
3850.18	0.7102
3859.23	0.7088
3868.27	0.7078
3877.32	0.7066
3886.36	0.7054
3895.41	0.7041
3904.45	0.7025
3913.5	0.7017
3922.54	0.7019
3931.59	0.7027
3940.63	0.704
3949.67	0.7063
3958.72	0.7086
3967.76	0.7107
3976.81	0.7116
3985.85	0.7119
3994.9	0.7114
4003.94	0.7108
4012.99	0.7092
