Infrared Spectrum: ISOBUTYRIC ACID, 2(2,4-DINITROPHENYL) HYDRAZIDE
Formula: C10 H12 N4 O5
CAS: 7461-93-0
State: SOLID (MINERAL OIL MULL)
Class: COBLENTZ
Instrument: Not specified, most likely a prism, grating, or hybrid spectrometer.
Sampling: TRANSMISSION
Resolution: 4
Origin: DOW CHEMICAL COMPANY
MICROMETERS	TRANSMITTANCE
2.027	0.722
2.0681	0.725
2.10919	0.73
2.15029	0.734
2.19139	0.739
2.23249	0.741
2.27358	0.741
2.31468	0.746
2.35578	0.752
2.39687	0.752
2.43797	0.758
2.47907	0.766
2.52017	0.768
2.56126	0.77
2.60236	0.773
2.64346	0.778
2.68455	0.783
2.72565	0.785
2.76675	0.787
2.80785	0.79
2.84894	0.797
2.89004	0.788
2.93114	0.73
2.97224	0.58
3.01333	0.749
3.05443	0.666
3.09553	0.557
3.13662	0.586
3.17772	0.698
3.21882	0.691
3.25992	0.703
3.30101	0.667
3.34211	0.596
3.38321	0.4
3.4243	0.293
3.4654	0.459
3.5065	0.616
3.5476	0.775
3.58869	0.797
3.62979	0.809
3.67089	0.814
3.71198	0.817
3.75308	0.821
3.79418	0.826
3.83528	0.833
3.87637	0.836
3.91747	0.844
3.95857	0.848
3.99966	0.844
4.04076	0.851
4.08186	0.848
4.12296	0.851
4.16405	0.86
4.20515	0.865
4.24625	0.863
4.28735	0.867
4.32844	0.867
4.36954	0.867
4.41064	0.87
4.45173	0.87
4.49283	0.872
4.53393	0.87
4.57503	0.873
4.61612	0.875
4.65722	0.875
4.69832	0.875
4.73941	0.877
4.78051	0.88
4.82161	0.88
4.86271	0.88
4.9038	0.88
4.9449	0.882
4.986	0.879
5.02709	0.884
5.06819	0.882
5.10929	0.879
5.15039	0.887
5.19148	0.887
5.23258	0.89
5.27368	0.89
5.31477	0.89
5.35587	0.889
5.39697	0.889
5.43807	0.884
5.47916	0.89
5.52026	0.889
5.56136	0.889
5.60246	0.88
5.64355	0.875
5.68465	0.877
5.72575	0.872
5.76684	0.872
5.80794	0.867
5.84904	0.846
5.89014	0.771
5.93123	0.606
5.97233	0.359
6.01343	0.626
6.05452	0.729
6.09562	0.679
6.13672	0.54
6.17782	0.327
6.21891	0.589
6.26001	0.54
6.30111	0.657
6.3422	0.739
6.3833	0.655
6.4244	0.56
6.4655	0.691
6.50659	0.637
6.54769	0.562
6.58879	0.524
6.62988	0.558
6.67098	0.541
6.71208	0.7
6.75318	0.659
6.79427	0.594
6.83537	0.597
6.87647	0.66
6.91757	0.701
6.95866	0.678
6.99976	0.616
7.04086	0.584
7.08195	0.78
7.12305	0.785
7.16415	0.718
7.20525	0.672
7.24634	0.679
7.28744	0.652
7.32854	0.57
7.36963	0.531
7.41073	0.379
7.45183	0.264
7.49293	0.507
7.53402	0.522
7.57512	0.466
7.61622	0.652
7.65731	0.693
7.69841	0.689
7.73951	0.637
7.78061	0.557
7.8217	0.441
7.8628	0.514
7.9039	0.609
7.94499	0.543
7.98609	0.463
8.02719	0.642
8.06829	0.669
8.10938	0.65
8.15048	0.718
8.19158	0.785
8.23267	0.817
8.27377	0.831
8.31487	0.838
8.35597	0.838
8.39706	0.826
8.43816	0.836
8.47926	0.839
8.52036	0.824
8.56145	0.771
8.60255	0.657
8.64365	0.594
8.68474	0.643
8.72584	0.729
8.76694	0.795
8.80804	0.831
8.84913	0.822
8.89023	0.781
8.93133	0.735
8.97242	0.712
9.01352	0.729
9.05462	0.729
9.09572	0.678
9.13681	0.689
9.17791	0.778
9.21901	0.826
9.2601	0.838
9.3012	0.839
9.3423	0.827
9.3834	0.792
9.42449	0.718
9.46559	0.826
9.50669	0.85
9.54778	0.862
9.58888	0.865
9.62998	0.868
9.67108	0.868
9.71217	0.872
9.75327	0.873
9.79437	0.875
9.83547	0.875
9.87656	0.879
9.91766	0.879
9.95876	0.877
9.99985	0.879
10.041	0.877
10.082	0.879
10.1231	0.875
10.1642	0.872
10.2053	0.86
10.2464	0.848
10.2875	0.821
10.3286	0.798
10.3697	0.797
10.4108	0.826
10.4519	0.858
10.493	0.875
10.5341	0.879
10.5752	0.88
10.6163	0.882
10.6574	0.873
10.6985	0.868
10.7396	0.812
10.7807	0.763
10.8218	0.8
10.8629	0.788
10.904	0.785
10.9451	0.872
10.9862	0.884
11.0273	0.89
11.0684	0.896
11.1095	0.899
11.1506	0.899
11.1917	0.901
11.2328	0.897
11.2739	0.887
11.315	0.873
11.3561	0.877
11.3972	0.89
11.4383	0.899
11.4794	0.901
11.5204	0.901
11.5615	0.901
11.6026	0.899
11.6437	0.901
11.6848	0.901
11.7259	0.894
11.767	0.89
11.8081	0.885
11.8492	0.875
11.8903	0.853
11.9314	0.768
11.9725	0.667
12.0136	0.632
12.0547	0.747
12.0958	0.821
12.1369	0.843
12.178	0.85
12.2191	0.87
12.2602	0.879
12.3013	0.882
12.3424	0.884
12.3835	0.884
12.4246	0.884
12.4657	0.884
12.5068	0.882
12.5479	0.879
12.589	0.879
12.6301	0.877
12.6712	0.873
12.7123	0.873
12.7534	0.868
12.7945	0.862
12.8356	0.868
12.8767	0.858
12.9178	0.853
12.9589	0.846
12.9999	0.834
13.041	0.826
13.0821	0.822
13.1232	0.826
13.1643	0.831
13.2054	0.826
13.2465	0.817
13.2876	0.805
13.3287	0.787
13.3698	0.744
13.4109	0.678
13.452	0.621
13.4931	0.671
13.5342	0.735
13.5753	0.759
13.6164	0.768
13.6575	0.761
13.6986	0.761
13.7397	0.756
13.7808	0.747
13.8219	0.734
13.863	0.71
13.9041	0.674
13.9452	0.64
13.9863	0.64
14.0274	0.664
14.0685	0.686
14.1096	0.698
14.1507	0.701
14.1918	0.7
14.2329	0.693
14.274	0.688
14.3151	0.678
14.3562	0.669
14.3973	0.654
14.4383	0.642
14.4794	0.625
14.5205	0.613
14.5616	0.604
14.6027	0.603
14.6438	0.601
14.6849	0.589
14.726	0.579
14.7671	0.562
14.8082	0.548
14.8493	0.528
14.8904	0.512
14.9315	0.499
14.9726	0.49
15.0137	0.487
15.0548	0.48
15.0959	0.477
15.137	0.471
15.1781	0.468
15.2192	0.465
15.2603	0.461
15.3014	0.458
15.3425	0.451
15.3836	0.448
15.4247	0.437
15.4658	0.431
15.5069	0.422
15.548	0.415
15.5891	0.41
15.6302	0.405
15.6713	0.4
15.7124	0.396
15.7535	0.393
15.7946	0.39
15.8357	0.383
15.8768	0.379
