Infrared Spectrum: 2-Chlorobutyramide
Formula: C 4 H 8 Cl N O
CAS: 7462-73-9
State: gas
Origin: EPA-IR VAPOR PHASE LIBRARY
1/CM	ABSORBANCE
549.8	0.0023655
559.445	0.00303
569.09	0.002318
578.734	0.00296
588.379	0.00348
598.024	0.00293
607.669	0.002415
617.313	0.0018846
626.958	0.00227
636.603	0.00304
646.248	0.0025069
655.893	0.0025703
665.537	0.002553
675.182	0.00399
684.827	0.00366
694.472	0.00301
704.116	0.00336
713.761	0.00335
723.406	0.00388
733.051	0.00427
742.695	0.00419
752.34	0.00454
761.985	0.0041
771.63	0.00436
781.275	0.00458
790.919	0.00481
800.564	0.00446
810.209	0.00474
819.854	0.00525
829.498	0.00505
839.143	0.0045
848.788	0.00451
858.433	0.00614
868.078	0.00582
877.722	0.0049
887.367	0.00525
897.012	0.00426
906.657	0.0039
916.301	0.00445
925.946	0.00383
935.591	0.00355
945.236	0.00342
954.88	0.0026966
964.525	0.00322
974.17	0.0025367
983.815	0.0024912
993.46	0.00317
1003.1	0.00319
1012.75	0.00318
1022.39	0.0023161
1032.04	0.00348
1041.68	0.00343
1051.33	0.00372
1060.97	0.00323
1070.62	0.00368
1080.26	0.00419
1089.91	0.00364
1099.55	0.00293
1109.2	0.0023589
1118.84	0.0024128
1128.49	0.00189016
1138.13	0.001589
1147.78	0.00077
1157.42	0.002141
1167.07	0.001376
1176.71	0.00346
1186.36	0.00289
1196	0.001711
1205.64	0.002834
1215.29	0.00388
1224.93	0.00399
1234.58	0.00359
1244.22	0.00301
1253.87	0.0027628
1263.51	0.0022122
1273.16	0.0027324
1282.8	0.00409
1292.45	0.00421
1302.09	0.00403
1311.74	0.00419
1321.38	0.00478
1331.03	0.00631
1340.67	0.00893
1350.32	0.01158
1359.96	0.01266
1369.61	0.01052
1379.25	0.00699
1388.9	0.00493
1398.54	0.00402
1408.18	0.00319
1417.83	0.0027373
1427.47	0.00306
1437.12	0.0034
1446.76	0.0038
1456.41	0.00383
1466.05	0.00372
1475.7	0.00321
1485.34	0.00293
1494.99	0.0023647
1504.63	0.0023623
1514.28	0.0025913
1523.92	0.0027726
1533.57	0.0026545
1543.21	0.00354
1552.86	0.00552
1562.5	0.00906
1572.15	0.01402
1581.79	0.01601
1591.44	0.0122
1601.08	0.00795
1610.73	0.00487
1620.37	0.00382
1630.01	0.00333
1639.66	0.002577
1649.3	0.0033
1658.95	0.00312
1668.59	0.00375
1678.24	0.00514
1687.88	0.00665
1697.53	0.00943
1707.17	0.01688
1716.82	0.03042
1726.46	0.0399
1736.11	0.03372
1745.75	0.01964
1755.4	0.01156
1765.04	0.00877
1774.69	0.00603
1784.33	0.00391
1793.98	0.00301
1803.62	0.0025839
1813.27	0.0024165
1822.91	0.0024154
1832.55	0.0021459
1842.2	0.0022375
1851.84	0.00194474
1861.49	0.0024212
1871.13	0.0021087
1880.78	0.0020175
1890.42	0.0019981
1900.07	0.001978
1909.71	0.00192813
1919.36	0.0020594
1929	0.0020731
1938.65	0.0024853
1948.29	0.0020177
1957.94	0.0021047
1967.58	0.001727
1977.23	0.002156
1986.87	0.002142
1996.52	0.0019514
2006.16	0.0019056
2015.81	0.0020084
2025.45	0.0021135
2035.1	0.0020969
2044.74	0.0020343
2054.38	0.0020848
2064.03	0.0018529
2073.67	0.00193171
2083.32	0.0020894
2092.96	0.0019584
2102.61	0.0019521
2112.25	0.0019312
2121.9	0.00189018
2131.54	0.0018158
2141.19	0.001631
2150.83	0.0019636
2160.48	0.0020584
2170.12	0.0022728
2179.77	0.0020478
2189.41	0.00190161
2199.06	0.0024479
2208.7	0.00191502
2218.35	0.0021454
2227.99	0.002263
2237.64	0.0021568
2247.28	0.00191021
2256.92	0.0022996
2266.57	0.0021801
2276.21	0.00184518
2285.86	0.00189671
2295.5	0.00185005
2305.15	0.0024042
2314.79	0.0021184
2324.44	0.0021027
2334.08	0.0017854
2343.73	0.001729
2353.37	0.00190562
2363.02	0.0019851
2372.66	0.0020738
2382.31	0.0021377
2391.95	0.0019759
2401.6	0.001689
2411.24	0.0022579
2420.89	0.0022845
2430.53	0.0024069
2440.18	0.0021707
2449.82	0.0020501
2459.47	0.002131
2469.11	0.00185618
2478.75	0.0020102
2488.4	0.0022859
2498.04	0.0017576
2507.69	0.0022168
2517.33	0.0021475
2526.98	0.0021821
2536.62	0.0021832
2546.27	0.0025798
2555.91	0.0023848
2565.56	0.0023635
2575.2	0.0023297
2584.85	0.0021178
2594.49	0.0022446
2604.14	0.0020962
2613.78	0.0020271
2623.43	0.0028096
2633.07	0.0022654
2642.72	0.0017
2652.36	0.0019795
2662.01	0.0021661
2671.65	0.0023424
2681.29	0.002321
2690.94	0.0023623
2700.58	0.0024488
2710.23	0.0022454
2719.87	0.0023569
2729.52	0.001747
2739.16	0.001652
2748.81	0.0021414
2758.45	0.0020556
2768.1	0.0021163
2777.74	0.0019644
2787.39	0.0023244
2797.03	0.0027362
2806.68	0.0022297
2816.32	0.0023703
2825.97	0.0026178
2835.61	0.0025076
2845.26	0.0020443
2854.9	0.0027231
2864.55	0.0027858
2874.19	0.00342
2883.84	0.00397
2893.48	0.00435
2903.12	0.00392
2912.77	0.00361
2922.41	0.00392
2932.06	0.00528
2941.7	0.00646
2951.35	0.00649
2960.99	0.00693
2970.64	0.00733
2980.28	0.00938
2989.93	0.00728
2999.57	0.00527
3009.22	0.0032
3018.86	0.00286
3028.51	0.0025941
3038.15	0.002836
3047.8	0.0024896
3057.44	0.0024954
3067.09	0.0026697
3076.73	0.0025866
3086.38	0.0023833
3096.02	0.0026463
3105.67	0.0018194
3115.31	0.0025525
3124.95	0.0025539
3134.6	0.0020836
3144.24	0.0020436
3153.89	0.0024724
3163.53	0.0017883
3173.18	0.0021969
3182.82	0.0017906
3192.47	0.0018107
3202.11	0.00189422
3211.76	0.0020158
3221.4	0.0020758
3231.05	0.001463
3240.69	0.001696
3250.34	0.0024074
3259.98	0.001303
3269.63	0.001655
3279.27	0.0020394
3288.92	0.001651
3298.56	0.001726
3308.21	0.001744
3317.85	0.001357
3327.49	0.0024862
3337.14	0.0021346
3346.78	0.0024046
3356.43	0.0021969
3366.07	0.0022685
3375.72	0.0023731
3385.36	0.0022478
3395.01	0.00317
3404.65	0.00316
3414.3	0.00473
3423.94	0.00643
3433.59	0.0062
3443.23	0.00578
3452.88	0.00328
3462.52	0.0023719
3472.17	0.0025275
3481.81	0.0020784
3491.46	0.0025728
3501.1	0.0031
3510.75	0.00406
3520.39	0.00465
3530.04	0.00605
3539.68	0.00867
3549.32	0.00821
3558.97	0.0066
3568.61	0.00361
3578.26	0.0020469
3587.9	0.0023228
3597.55	0.000868
3607.19	0.001172
3616.84	0.0021936
3626.48	0.001597
3636.13	0.00192953
3645.77	0.000951
3655.42	0.00136
3665.06	0.001731
3674.71	0.00194648
3684.35	0.001347
3694	0.001475
3703.64	0.001387
3713.29	0.001703
3722.93	0.0019929
3732.58	0.001527
3742.22	0.0021844
3751.86	0.0019501
3761.51	0.0022334
3771.15	0.00102
3780.8	0.001299
3790.44	0.0022394
3800.09	0.00189141
3809.73	0.0024635
3819.38	0.001516
3829.02	0.0022678
3838.67	0.001335
3848.31	0.00184038
3857.96	0.001156
3867.6	0.001736
3877.25	0.001569
3886.89	0.00076
3896.54	0.0021701
3906.18	0.0008
3915.83	0.001565
3925.47	0.00084
3935.12	0.001549
3944.76	0.001486
3954.41	0.001418
3964.05	0.001663
3973.69	0.001531
3983.34	0.00192033
3992.98	0.001707
