Infrared Spectrum: 2-Methoxybenzhydrazide
Formula: C 8 H 10 N 2 O 2
CAS: 7466-54-8
State: gas
Origin: EPA-IR VAPOR PHASE LIBRARY
1/CM	ABSORBANCE
549.8	0.005083
559.445	0.004583
569.09	0.004503
578.734	0.003963
588.379	0.003633
598.024	0.003053
607.669	0.002743
617.313	0.002293
626.958	0.001933
636.603	0.002003
646.248	0.002383
655.893	0.003693
665.537	0.003653
675.182	0.003003
684.827	0.003123
694.472	0.003583
704.116	0.004093
713.761	0.003493
723.406	0.002973
733.051	0.003983
742.695	0.008153
752.34	0.015533
761.985	0.014393
771.63	0.007643
781.275	0.004803
790.919	0.003223
800.564	0.002383
810.209	0.001443
819.854	0.001413
829.498	0.0010667
839.143	0.001503
848.788	0.001613
858.433	0.001733
868.078	0.001963
877.722	0.002313
887.367	0.002583
897.012	0.002983
906.657	0.004203
916.301	0.007033
925.946	0.012303
935.591	0.019913
945.236	0.021563
954.88	0.012873
964.525	0.005953
974.17	0.004183
983.815	0.003793
993.46	0.004443
1003.1	0.006033
1012.75	0.009553
1022.39	0.012663
1032.04	0.011503
1041.68	0.008323
1051.33	0.005253
1060.97	0.002933
1070.62	0.002753
1080.26	0.004503
1089.91	0.006073
1099.55	0.008163
1109.2	0.006383
1118.84	0.004253
1128.49	0.002153
1138.13	0.001903
1147.78	0.003063
1157.42	0.005863
1167.07	0.006273
1176.71	0.006263
1186.36	0.006453
1196	0.005023
1205.64	0.005583
1215.29	0.009653
1224.93	0.019593
1234.58	0.029123
1244.22	0.026883
1253.87	0.017113
1263.51	0.011623
1273.16	0.010943
1282.8	0.017753
1292.45	0.026473
1302.09	0.021773
1311.74	0.010603
1321.38	0.005873
1331.03	0.004213
1340.67	0.003413
1350.32	0.002963
1359.96	0.002613
1369.61	0.002423
1379.25	0.002353
1388.9	0.002613
1398.54	0.003043
1408.18	0.003893
1417.83	0.005733
1427.47	0.009583
1437.12	0.015263
1446.76	0.021253
1456.41	0.027873
1466.05	0.035683
1475.7	0.040133
1485.34	0.034373
1494.99	0.023853
1504.63	0.018183
1514.28	0.014483
1523.92	0.010173
1533.57	0.006873
1543.21	0.005053
1552.86	0.004233
1562.5	0.004273
1572.15	0.005103
1581.79	0.007363
1591.44	0.011553
1601.08	0.015303
1610.73	0.013833
1620.37	0.012803
1630.01	0.015053
1639.66	0.014173
1649.3	0.011233
1658.95	0.011373
1668.59	0.017153
1678.24	0.037443
1687.88	0.051583
1697.53	0.035853
1707.17	0.017443
1716.82	0.012383
1726.46	0.007443
1736.11	0.004123
1745.75	0.002613
1755.4	0.001983
1765.04	0.001583
1774.69	0.001353
1784.33	0.001313
1793.98	0.001293
1803.62	0.001413
1813.27	0.001243
1822.91	0.001213
1832.55	0.0010932
1842.2	0.0009805
1851.84	0.0008601
1861.49	0.0007475
1871.13	0.0007151
1880.78	0.0007963
1890.42	0.000913
1900.07	0.0009863
1909.71	0.000999
1919.36	0.0010836
1929	0.0010694
1938.65	0.0008352
1948.29	0.0009123
1957.94	0.0008582
1967.58	0.0006123
1977.23	0.0005934
1986.87	0.0005975
1996.52	0.0007156
2006.16	0.0008581
2015.81	0.0010473
2025.45	0.0011185
2035.1	0.001084
2044.74	0.0008783
2054.38	0.0009244
2064.03	0.0007661
2073.67	0.0006525
2083.32	0.0005596
2092.96	0.0004767
2102.61	0.0003871
2112.25	0.0003677
2121.9	0.0003513
2131.54	0.0004997
2141.19	0.0004528
2150.83	0.0003648
2160.48	0.0003863
2170.12	0.00023708
2179.77	0.0003291
2189.41	0.0004125
2199.06	0.0003835
2208.7	0.0004808
2218.35	0.0003596
2227.99	0.0003408
2237.64	0.000461
2247.28	0.0005046
2256.92	0.00056
2266.57	0.0005016
2276.21	0.0005606
2285.86	0.000522
2295.5	0.0004216
2305.15	0.000445
2314.79	0.0004233
2324.44	0.0004261
2334.08	0.0004949
2343.73	0.000464
2353.37	0.0004408
2363.02	0.0004379
2372.66	0.0004522
2382.31	0.0004649
2391.95	0.0004491
2401.6	0.0005086
2411.24	0.0005029
2420.89	0.0004477
2430.53	0.0004545
2440.18	0.0005327
2449.82	0.0004938
2459.47	0.0005579
2469.11	0.0005655
2478.75	0.0007094
2488.4	0.0005401
2498.04	0.0005032
2507.69	0.0004285
2517.33	0.0006024
2526.98	0.0005809
2536.62	0.0006014
2546.27	0.000564
2555.91	0.0005705
2565.56	0.0006958
2575.2	0.0005656
2584.85	0.0005517
2594.49	0.0005215
2604.14	0.0004608
2613.78	0.000481
2623.43	0.0005633
2633.07	0.0005127
2642.72	0.00053
2652.36	0.0005053
2662.01	0.0003914
2671.65	0.0004406
2681.29	0.0004236
2690.94	0.0004874
2700.58	0.0005695
2710.23	0.0005302
2719.87	0.0005557
2729.52	0.0006292
2739.16	0.000515
2748.81	0.0005674
2758.45	0.0006543
2768.1	0.0005866
2777.74	0.0007375
2787.39	0.0006273
2797.03	0.0007008
2806.68	0.0005907
2816.32	0.0010481
2825.97	0.001713
2835.61	0.002733
2845.26	0.004153
2854.9	0.004003
2864.55	0.002523
2874.19	0.002193
2883.84	0.002313
2893.48	0.002413
2903.12	0.002683
2912.77	0.003023
2922.41	0.003733
2932.06	0.004483
2941.7	0.005853
2951.35	0.007613
2960.99	0.007023
2970.64	0.005703
2980.28	0.004313
2989.93	0.003533
2999.57	0.004163
3009.22	0.005233
3018.86	0.004153
3028.51	0.002773
3038.15	0.002643
3047.8	0.002803
3057.44	0.003253
3067.09	0.004383
3076.73	0.006403
3086.38	0.005623
3096.02	0.002733
3105.67	0.001703
3115.31	0.001048
3124.95	0.0008083
3134.6	0.0008012
3144.24	0.0009655
3153.89	0.0008383
3163.53	0.0009052
3173.18	0.0007257
3182.82	0.0007921
3192.47	0.0008359
3202.11	0.0007131
3211.76	0.0007948
3221.4	0.0007996
3231.05	0.0007857
3240.69	0.00052
3250.34	0.0005385
3259.98	0.0006928
3269.63	0.0006878
3279.27	0.00067
3288.92	0.000571
3298.56	0.0004607
3308.21	0.0007289
3317.85	0.000857
3327.49	0.0006897
3337.14	0.0010395
3346.78	0.0011006
3356.43	0.0009071
3366.07	0.0010368
3375.72	0.0008844
3385.36	0.000951
3395.01	0.001383
3404.65	0.0011756
3414.3	0.001863
3423.94	0.003023
3433.59	0.005103
3443.23	0.009093
3452.88	0.014433
3462.52	0.015283
3472.17	0.009643
3481.81	0.004493
3491.46	0.002283
3501.1	0.001453
3510.75	0.0009372
3520.39	0.0008118
3530.04	0.0005276
3539.68	0.000493
3549.32	0.00027032
3558.97	0.0003261
3568.61	0.0003254
3578.26	0.0004813
3587.9	0.00025097
3597.55	0.0005063
3607.19	0.0004894
3616.84	0.0004767
3626.48	0.0003909
3636.13	0.000372
3645.77	0.00030199
3655.42	0.0003788
3665.06	0.0003177
3674.71	0.00019506
3684.35	0.0004066
3694	8e-06
3703.64	0.00024576
3713.29	0.0001657
3722.93	0.0001913
3732.58	0.0001602
3742.22	0.0003607
3751.86	0.0003345
3761.51	0.0001832
3771.15	0.0003037
3780.8	0.000101
3790.44	0.00028417
3800.09	0.0003491
3809.73	0.0004824
3819.38	0.0003661
3829.02	0.00030043
3838.67	0.0003146
3848.31	0.0001142
3857.96	0.0003927
3867.6	0.0004087
3877.25	0.000206021
3886.89	0.0003579
3896.54	0.0003917
3906.18	0.0001672
3915.83	0.00019859
3925.47	0.0004028
3935.12	0.0003366
3944.76	0.00023029
3954.41	0.0001914
3964.05	0.0004305
3973.69	0.0003488
3983.34	0.0002154
3992.98	0.0001818
