Infrared Spectrum: 1-Phenyl-3,4-dihydronaphthalene
Formula: C 16 H 14
CAS: 7469-40-1
State: gas
Instrument: HP-GC/MS/IRD
Origin: NIST Mass Spectrometry Data Center
1/CM	ABSORBANCE
550	0.000753
562	0.000351
574	5.7e-05
586	0.000116
598	0.000211
610	0.000457
622	0.00023
634	0.000664
646	0.000623
658	0.001158
670	0.000798
682	0.000947
694	0.004436
706	0.004322
718	0.001472
730	0.003524
742	0.00467
754	0.005328
766	0.005966
778	0.002427
790	0.00132
802	0.000584
814	0.000749
826	0.001701
838	0.000685
850	0.00037
862	0.000188
874	0.00013
886	0.000148
898	0.000405
910	0.000384
922	0.000144
934	0.00026
946	0.000361
958	0.00092
970	0.000349
982	0.000113
994	0.000235
1006	0.000257
1018	0.000576
1030	0.001241
1042	0.001259
1054	0.000361
1066	0.000463
1078	0.000243
1090	0.000128
1102	0.000214
1114	0.000163
1126	5.2e-05
1138	0
1150	0.000161
1162	0.000297
1174	0.000184
1186	0.000259
1198	0.000354
1210	0.00025
1222	4.5e-05
1234	0.0001
1246	0.000108
1258	0.000283
1270	0.000625
1282	0.000541
1294	0.000325
1306	0.000272
1318	0.000539
1330	0.000985
1342	0.000589
1354	0.000841
1366	0.000419
1378	0.000173
1390	0.000167
1402	0.000185
1414	0.000317
1426	0.000912
1438	0.00178
1450	0.002064
1462	0.000964
1474	0.001203
1486	0.002843
1498	0.001798
1510	0.000167
1522	0.000107
1534	0.000156
1546	0.000133
1558	5.2e-05
1570	0.000324
1582	0.000613
1594	0.001316
1606	0.001082
1618	0.000363
1630	0.000352
1642	0.000281
1654	0.000171
1666	0.000211
1678	0.000211
1690	0.000222
1702	0.000188
1714	0.000108
1726	0.000189
1738	0.000144
1750	0.000114
1762	0.000155
1774	0.00012
1786	0.000208
1798	0.00051
1810	0.000413
1822	0.000199
1834	0.000276
1846	0.000235
1858	0.000233
1870	0.000338
1882	0.000377
1894	0.000275
1906	0.000503
1918	0.000286
1930	0.000345
1942	0.000585
1954	0.000386
1966	0.000191
1978	0.000139
1990	0.000137
2002	9.1e-05
2014	9.2e-05
2026	7.6e-05
2038	6.7e-05
2050	8.5e-05
2062	7.7e-05
2074	8.1e-05
2086	7.1e-05
2098	8.9e-05
2110	9.1e-05
2122	8.3e-05
2134	0.000112
2146	7.1e-05
2158	6.8e-05
2170	9e-05
2182	0.000115
2194	9.3e-05
2206	0.0001
2218	0.000103
2230	0.000106
2242	0.000123
2254	0.000155
2266	0.000109
2278	9.1e-05
2290	0.000119
2302	0.000109
2314	0.00018
2326	0.000128
2338	0.000135
2350	0.000151
2362	0.000102
2374	7.3e-05
2386	9.9e-05
2398	0.000111
2410	0.0001
2422	0.000121
2434	0.000112
2446	0.000105
2458	0.000111
2470	0.000117
2482	0.000112
2494	0.000106
2506	7.5e-05
2518	8.5e-05
2530	9.9e-05
2542	0.000137
2554	0.000138
2566	9.4e-05
2578	0.000134
2590	0.000144
2602	0.000164
2614	0.000162
2626	0.000187
2638	0.0002
2650	0.000172
2662	0.000132
2674	0.00015
2686	0.000196
2698	0.000172
2710	0.000136
2722	0.000181
2734	0.000165
2746	0.000175
2758	0.000227
2770	0.000223
2782	0.000227
2794	0.000331
2806	0.000399
2818	0.00062
2830	0.001724
2842	0.004434
2854	0.002214
2866	0.001245
2878	0.001579
2890	0.003061
2902	0.002685
2914	0.001239
2926	0.001625
2938	0.006622
2950	0.00866
2962	0.001885
2974	0.000717
2986	0.000601
2998	0.000714
3010	0.001666
3022	0.004514
3034	0.005714
3046	0.003681
3058	0.005387
3070	0.007681
3082	0.004458
3094	0.002422
3106	0.001324
3118	0.000618
3130	0.000519
3142	0.000472
3154	0.000315
3166	0.000216
3178	0.000196
3190	0.000212
3202	0.000193
3214	0.000196
3226	0.000202
3238	0.000152
3250	0.000193
3262	6.2e-05
3274	0.000169
3286	9.3e-05
3298	0.000202
3310	9e-05
3322	0.000156
3334	0.000254
3346	0.000204
3358	0.000175
3370	0.000125
3382	0.000109
3394	0.000206
3406	0.000206
3418	0.000194
3430	0.000187
3442	0.000161
3454	0.000151
3466	0.000213
3478	0.00015
3490	0.00021
3502	0.000212
3514	0.000205
3526	0.000161
3538	0.000204
3550	0.000164
3562	0.000212
3574	0.000149
3586	0.000135
3598	0.000187
3610	0.000219
3622	0.000239
3634	0.000174
3646	0.000195
3658	0.000287
3670	0.000204
3682	0.000152
3694	0.000236
3706	0.000283
3718	0.000245
3730	0.00018
3742	0.000101
3754	0.000165
3766	0.000196
3778	0.000269
3790	0.000258
3802	0.000223
3814	0.000184
3826	0.000255
3838	0.000233
