Infrared Spectrum: 1-(4-Methoxyphenyl)-1-cyclohexanecarboxylic acid
Formula: C 14 H 18 O 3
CAS: 7469-83-2
State: gas
Origin: EPA-IR VAPOR PHASE LIBRARY
1/CM	ABSORBANCE
549.9	0.00608
559.547	0.00779
569.193	0.01215
578.84	0.01497
588.486	0.01351
598.133	0.00752
607.779	0.00416
617.426	0.00407
627.072	0.00392
636.719	0.00329
646.365	0.00295
656.012	0.00279
665.658	0.00515
675.305	0.00449
684.951	0.00524
694.598	0.00627
704.245	0.00324
713.891	0.00276
723.538	0.00273
733.184	0.0019852
742.831	0.00207
752.477	0.0018679
762.124	0.0015742
771.77	0.0017745
781.417	0.00308
791.063	0.00687
800.71	0.00566
810.356	0.00485
820.003	0.00718
829.649	0.00915
839.296	0.00565
848.943	0.00285
858.589	0.0018823
868.236	0.0016114
877.882	0.0014305
887.529	0.0014787
897.175	0.00223
906.822	0.00367
916.468	0.00302
926.115	0.00235
935.761	0.00241
945.408	0.0019822
955.054	0.0018497
964.701	0.0017782
974.347	0.0016502
983.994	0.0018756
993.64	0.00268
1003.29	0.00459
1012.93	0.00687
1022.58	0.0086
1032.23	0.0129
1041.87	0.01731
1051.52	0.01225
1061.17	0.00881
1070.81	0.00912
1080.46	0.00944
1090.11	0.01377
1099.75	0.02838
1109.4	0.02918
1119.05	0.01107
1128.69	0.00967
1138.34	0.0142
1147.99	0.01526
1157.63	0.01341
1167.28	0.01613
1176.92	0.02276
1186.57	0.02755
1196.22	0.01322
1205.86	0.00952
1215.51	0.00779
1225.16	0.00922
1234.8	0.01565
1244.45	0.0325
1254.1	0.03967
1263.74	0.02433
1273.39	0.01994
1283.04	0.01916
1292.68	0.01789
1302.33	0.01229
1311.98	0.00785
1321.62	0.00563
1331.27	0.00454
1340.92	0.00427
1350.56	0.00406
1360.21	0.00349
1369.86	0.00281
1379.5	0.00241
1389.15	0.00202
1398.79	0.0019015
1408.44	0.00228
1418.09	0.00274
1427.73	0.0035
1437.38	0.00576
1447.03	0.00976
1456.67	0.01279
1466.32	0.01251
1475.97	0.00923
1485.61	0.00662
1495.26	0.00958
1504.91	0.02562
1514.55	0.0437
1524.2	0.01351
1533.85	0.00518
1543.49	0.00379
1553.14	0.00323
1562.79	0.00311
1572.43	0.00369
1582.08	0.0047
1591.73	0.00525
1601.37	0.00823
1611.02	0.01063
1620.67	0.00603
1630.31	0.00248
1639.96	0.0013421
1649.6	0.0018442
1659.25	0.0018713
1668.9	0.0019687
1678.54	0.00245
1688.19	0.00295
1697.84	0.00333
1707.48	0.00357
1717.13	0.00449
1726.78	0.00527
1736.42	0.00735
1746.07	0.01634
1755.72	0.04805
1765.36	0.04871
1775.01	0.01491
1784.66	0.00808
1794.3	0.00501
1803.95	0.00367
1813.6	0.00318
1823.24	0.00267
1832.89	0.00205
1842.54	0.0017868
1852.18	0.0016425
1861.83	0.0016931
1871.47	0.0017507
1881.12	0.0016207
1890.77	0.0014951
1900.41	0.0013556
1910.06	0.0012428
1919.71	0.001141
1929.35	0.0011605
1939	0.0011037
1948.65	0.0011174
1958.29	0.0011256
1967.94	0.0011961
1977.59	0.0012291
1987.23	0.0011321
1996.88	0.0011468
2006.53	0.0011344
2016.17	0.0011845
2025.82	0.0013035
2035.47	0.0014502
2045.11	0.0016389
2054.76	0.0015971
2064.41	0.0015989
2074.05	0.0016196
2083.7	0.0015091
2093.35	0.0012325
2102.99	0.00104171
2112.64	0.0009329
2122.28	0.000884
2131.93	0.000852
2141.58	0.000861
2151.22	0.000784
2160.87	0.000764
2170.52	0.000828
2180.16	0.000899
2189.81	0.000882
2199.46	0.00087
2209.1	0.000873
2218.75	0.000844
2228.4	0.000822
2238.04	0.000836
2247.69	0.000831
2257.34	0.000846
2266.98	0.000896
2276.63	0.000885
2286.28	0.0009778
2295.92	0.0011673
2305.57	0.0013356
2315.22	0.0013769
2324.86	0.0014381
2334.51	0.0014948
2344.16	0.00134
2353.8	0.0014659
2363.45	0.0016591
2373.09	0.0014222
2382.74	0.00101363
2392.39	0.000832
2402.03	0.000837
2411.68	0.000826
2421.33	0.000829
2430.97	0.000887
2440.62	0.000785
2450.27	0.000756
2459.91	0.000714
2469.56	0.000749
2479.21	0.0008
2488.85	0.000796
2498.5	0.00076
2508.15	0.000798
2517.79	0.00082
2527.44	0.000815
2537.09	0.000848
2546.73	0.000884
2556.38	0.000747
2566.03	0.000699
2575.67	0.000668
2585.32	0.000648
2594.96	0.000664
2604.61	0.000622
2614.26	0.000629
2623.9	0.000733
2633.55	0.000684
2643.2	0.000745
2652.84	0.000773
2662.49	0.000885
2672.14	0.000867
2681.78	0.000713
2691.43	0.000583
2701.08	0.000546
2710.72	0.000537
2720.37	0.00052
2730.02	0.000474
2739.66	0.000519
2749.31	0.000541
2758.96	0.000669
2768.6	0.000598
2778.25	0.000719
2787.9	0.0009566
2797.54	0.001146
2807.19	0.0014735
2816.84	0.0018105
2826.48	0.00257
2836.13	0.00461
2845.77	0.00779
2855.42	0.00923
2865.07	0.01506
2874.71	0.01416
2884.36	0.00899
2894.01	0.00684
2903.65	0.0087
2913.3	0.01204
2922.95	0.01753
2932.59	0.03645
2942.24	0.05532
2951.89	0.03582
2961.53	0.01874
2971.18	0.01335
2980.83	0.0064
2990.47	0.00431
3000.12	0.00599
3009.77	0.00726
3019.41	0.00326
3029.06	0.00211
3038.71	0.00282
3048.35	0.00338
3058	0.00293
3067.64	0.00279
3077.29	0.00254
3086.94	0.00209
3096.58	0.0018086
3106.23	0.0018432
3115.88	0.0011074
3125.52	0.000774
3135.17	0.000471
3144.82	0.000388
3154.46	0.000217
3164.11	0.000372
3173.76	0.000145
3183.4	0.000295
3193.05	0.000191
3202.7	7.8e-05
3212.34	0.000108
3221.99	0.000178
3231.64	0.000172
3241.28	0.000275
3250.93	7e-06
3260.58	6.1e-05
3270.22	9.3e-05
3279.87	0.000111
3289.52	0.000308
3299.16	0.000246
3308.81	0.000266
3318.45	0.000288
3328.1	0.000365
3337.75	0.000365
3347.39	0.000491
3357.04	0.000266
3366.69	0.000427
3376.33	0.000324
3385.98	0.0004
3395.63	0.000493
3405.27	0.000415
3414.92	0.000287
3424.57	0.000535
3434.21	0.000525
3443.86	0.000473
3453.51	0.000561
3463.15	0.000508
3472.8	0.000536
3482.45	0.000685
3492.09	0.0009004
3501.74	0.00102336
3511.39	0.000881
3521.03	0.0009358
3530.68	0.0009692
3540.33	0.0012829
3549.97	0.00202
3559.62	0.00715
3569.26	0.01998
3578.91	0.01253
3588.56	0.0021
3598.2	0.001188
3607.85	0.00089
3617.5	0.000751
3627.14	0.00071
3636.79	0.000657
3646.44	0.000608
3656.08	0.000616
3665.73	0.000577
3675.38	0.000625
3685.02	0.000576
3694.67	0.000648
3704.32	0.000738
3713.96	0.000619
3723.61	0.000643
3733.26	0.000682
3742.9	0.000646
3752.55	0.000568
3762.2	0.000613
3771.84	0.000501
3781.49	0.000561
3791.13	0.000565
3800.78	0.000468
3810.43	0.000427
3820.07	0.000634
3829.72	0.000477
3839.37	0.000547
3849.01	0.000464
3858.66	0.000556
3868.31	0.000555
3877.95	0.000627
3887.6	0.00059
3897.25	0.000618
3906.89	0.000614
3916.54	0.000503
3926.19	0.0005
3935.83	0.000467
3945.48	0.000486
3955.13	0.000603
3964.77	0.00063
3974.42	0.000547
3984.07	0.000527
3993.71	0.00041
