Infrared Spectrum: D3,5-CHOLESTADIENE
Formula: C27 H44
CAS: 747-90-0
State: SOLID (FROM MELT)
Class: COBLENTZ
Instrument: Not specified, most likely a grating spectrometer.
Sampling: TRANSMISSION
Path length: 0.005 CM
Resolution: 4
Origin: PROCTER AND GAMBLE CO.
MICROMETERS	TRANSMITTANCE
2.041	0.842
2.07478	0.842
2.10857	0.844
2.14235	0.847
2.17614	0.853
2.20992	0.854
2.2437	0.854
2.27749	0.854
2.31127	0.853
2.34506	0.849
2.37884	0.822
2.41262	0.82
2.44641	0.817
2.48019	0.815
2.51398	0.826
2.54776	0.827
2.58154	0.839
2.61533	0.837
2.64911	0.841
2.6829	0.847
2.71668	0.856
2.75046	0.861
2.78425	0.863
2.81803	0.859
2.85182	0.853
2.8856	0.847
2.91938	0.832
2.95317	0.824
2.98695	0.819
3.02074	0.822
3.05452	0.822
3.0883	0.827
3.12209	0.832
3.15587	0.827
3.18965	0.822
3.22344	0.817
3.25722	0.815
3.29101	0.78
3.32479	0.658
3.35857	0.496
3.39236	0.322
3.42614	0.217
3.45993	0.167
3.49371	0.125
3.52749	0.109
3.56128	0.103
3.59506	0.346
3.62885	0.484
3.66263	0.623
3.69641	0.657
3.7302	0.702
3.76398	0.758
3.79777	0.777
3.83155	0.797
3.86533	0.807
3.89912	0.827
3.9329	0.836
3.96669	0.847
4.00047	0.861
4.03425	0.875
4.06804	0.88
4.10182	0.883
4.13561	0.885
4.16939	0.891
4.20317	0.89
4.23696	0.891
4.27074	0.893
4.30453	0.895
4.33831	0.896
4.37209	0.9
4.40588	0.903
4.43966	0.907
4.47345	0.907
4.50723	0.915
4.54101	0.917
4.5748	0.917
4.60858	0.917
4.64237	0.917
4.67615	0.92
4.70993	0.923
4.74372	0.927
4.7775	0.925
4.81129	0.929
4.84507	0.925
4.87885	0.929
4.91264	0.929
4.94642	0.927
4.98021	0.93
5.01399	0.93
5.04777	0.929
5.08156	0.934
5.11534	0.93
5.14912	0.935
5.18291	0.93
5.21669	0.929
5.25048	0.932
5.28426	0.932
5.31804	0.934
5.35183	0.932
5.38561	0.932
5.4194	0.929
5.45318	0.929
5.48696	0.93
5.52075	0.927
5.55453	0.922
5.58832	0.922
5.6221	0.922
5.65588	0.918
5.68967	0.913
5.72345	0.898
5.75724	0.875
5.79102	0.846
5.8248	0.824
5.85859	0.826
5.89237	0.831
5.92616	0.82
5.95994	0.827
5.99372	0.834
6.02751	0.836
6.06129	0.773
6.09508	0.8
6.12886	0.854
6.16264	0.868
6.19643	0.875
6.23021	0.89
6.264	0.891
6.29778	0.896
6.33156	0.895
6.36535	0.891
6.39913	0.893
6.43292	0.896
6.4667	0.905
6.50048	0.915
6.53427	0.915
6.56805	0.913
6.60184	0.9
6.63562	0.881
6.6694	0.876
6.70319	0.846
6.73697	0.755
6.77076	0.638
6.80454	0.31
6.83832	0.238
6.87211	0.234
6.90589	0.261
6.93968	0.295
6.97346	0.363
7.00724	0.415
7.04103	0.472
7.07481	0.675
7.1086	0.739
7.14238	0.758
7.17616	0.724
7.20995	0.641
7.24373	0.378
7.27751	0.282
7.3113	0.283
7.34508	0.307
7.37887	0.471
7.41265	0.604
7.44643	0.682
7.48022	0.692
7.514	0.562
7.54779	0.606
7.58157	0.652
7.61535	0.729
7.64914	0.744
7.68292	0.738
7.71671	0.761
7.75049	0.787
7.78427	0.793
7.81806	0.793
7.85184	0.783
7.88563	0.758
7.91941	0.739
7.95319	0.741
7.98698	0.736
8.02076	0.743
8.05455	0.783
8.08833	0.79
8.12211	0.778
8.1559	0.773
8.18968	0.75
8.22347	0.748
8.25725	0.761
8.29103	0.739
8.32482	0.731
8.3586	0.765
8.39239	0.785
8.42617	0.795
8.45995	0.797
8.49374	0.8
8.52752	0.763
8.56131	0.721
8.59509	0.701
8.62887	0.721
8.66266	0.726
8.69644	0.701
8.73023	0.692
8.76401	0.712
8.79779	0.731
8.83158	0.751
8.86536	0.756
8.89915	0.75
8.93293	0.739
8.96671	0.753
9.0005	0.77
9.03428	0.785
9.06807	0.819
9.10185	0.841
9.13563	0.859
9.16942	0.853
9.2032	0.827
9.23698	0.819
9.27077	0.815
9.30455	0.817
9.33834	0.829
9.37212	0.839
9.4059	0.844
9.43969	0.846
9.47347	0.853
9.50726	0.841
9.54104	0.827
9.57482	0.812
9.60861	0.771
9.64239	0.768
9.67618	0.783
9.70996	0.771
9.74374	0.739
9.77753	0.675
9.81131	0.667
9.8451	0.704
9.87888	0.758
9.91266	0.78
9.94645	0.78
9.98023	0.78
10.014	0.777
10.0478	0.775
10.0816	0.768
10.1154	0.765
10.1492	0.751
10.1829	0.748
10.2167	0.751
10.2505	0.739
10.2843	0.722
10.3181	0.721
10.3519	0.729
10.3856	0.717
10.4194	0.655
10.4532	0.63
10.487	0.675
10.5208	0.736
10.5546	0.79
10.5883	0.82
10.6221	0.836
10.6559	0.832
10.6897	0.787
10.7235	0.738
10.7573	0.665
10.791	0.663
10.8248	0.672
10.8586	0.76
10.8924	0.802
10.9262	0.824
10.96	0.834
10.9938	0.851
11.0275	0.864
11.0613	0.878
11.0951	0.88
11.1289	0.885
11.1627	0.88
11.1965	0.837
11.2302	0.793
11.264	0.785
11.2978	0.788
11.3316	0.756
11.3654	0.728
11.3992	0.741
11.4329	0.793
11.4667	0.82
11.5005	0.844
11.5343	0.839
11.5681	0.829
11.6019	0.842
11.6356	0.853
11.6694	0.871
11.7032	0.864
11.737	0.842
11.7708	0.793
11.8046	0.721
11.8384	0.604
11.8721	0.525
11.9059	0.518
11.9397	0.554
11.9735	0.597
12.0073	0.652
12.0411	0.677
12.0748	0.707
12.1086	0.721
12.1424	0.738
12.1762	0.736
12.21	0.722
12.2438	0.724
12.2775	0.744
12.3113	0.768
12.3451	0.763
12.3789	0.743
12.4127	0.711
12.4465	0.636
12.4802	0.618
12.514	0.653
12.5478	0.709
12.5816	0.787
12.6154	0.837
12.6492	0.886
12.6829	0.922
12.7167	0.937
12.7505	0.949
12.7843	0.947
12.8181	0.951
12.8519	0.952
12.8857	0.957
12.9194	0.964
12.9532	0.957
12.987	0.951
13.0208	0.942
13.0546	0.929
13.0884	0.863
13.1221	0.795
13.1559	0.798
13.1897	0.836
13.2235	0.864
13.2573	0.861
13.2911	0.854
13.3248	0.853
13.3586	0.873
13.3924	0.895
13.4262	0.9
13.46	0.9
13.4938	0.896
13.5275	0.888
13.5613	0.88
13.5951	0.868
13.6289	0.854
13.6627	0.847
13.6965	0.834
13.7303	0.822
13.764	0.81
13.7978	0.809
13.8316	0.824
13.8654	0.853
13.8992	0.863
13.933	0.875
13.9667	0.885
14.0005	0.898
14.0343	0.907
14.0681	0.91
14.1019	0.917
14.1357	0.92
14.1694	0.913
14.2032	0.91
14.237	0.91
14.2708	0.917
14.3046	0.915
14.3384	0.913
14.3721	0.91
14.4059	0.9
14.4397	0.886
14.4735	0.873
14.5073	0.863
14.5411	0.854
14.5749	0.873
14.6086	0.895
14.6424	0.89
14.6762	0.883
14.71	0.88
14.7438	0.876
14.7776	0.878
14.8113	0.881
14.8451	0.883
14.8789	0.885
14.9127	0.886
14.9465	0.888
14.9803	0.891
15.014	0.893
