Infrared Spectrum: 2-Ethyl-6-isopropyl pyridine
Formula: C 10 H 15 N
CAS: 74701-47-6
State: gas
Instrument: HP-GC/MS/IRD
Origin: NIST Mass Spectrometry Data Center
1/CM	ABSORBANCE
550	0.0006948
562	0.0003132
574	0.0003852
586	0.0002808
598	0.000198
610	0.0001044
622	3.96e-05
634	0.000108
646	0.0001044
658	0.0001728
670	0.0002088
682	0.0003132
694	0.000432
706	0.0003492
718	0.0003708
730	0.0017784
742	0.0057276
754	0.004824
766	0.001854
778	0.0015372
790	0.0025956
802	0.0041256
814	0.0043236
826	0.0025992
838	0.0013968
850	0.0007992
862	0.0003852
874	0.00027
886	0.0003924
898	0.001044
910	0.0014688
922	0.000756
934	0.000486
946	0.0003204
958	0.0002808
970	0.0003708
982	0.001026
994	0.001512
1006	0.0009324
1018	0.0007452
1030	0.0010836
1042	0.002052
1054	0.0031176
1066	0.002574
1078	0.002052
1090	0.0025524
1102	0.0024696
1114	0.0012924
1126	0.0010584
1138	0.0013104
1150	0.0032328
1162	0.0045324
1174	0.0016848
1186	0.0011592
1198	0.0020772
1210	0.002142
1222	0.0016092
1234	0.001458
1246	0.0013356
1258	0.0013536
1270	0.0012924
1282	0.0010152
1294	0.001026
1306	0.0017712
1318	0.0020448
1330	0.0012924
1342	0.0012888
1354	0.0017424
1366	0.0025272
1378	0.002862
1390	0.0027756
1402	0.0022032
1414	0.0028044
1426	0.0046116
1438	0.009504
1450	0.0163584
1462	0.0156096
1474	0.0115056
1486	0.0048168
1498	0.0021888
1510	0.00144
1522	0.0013644
1534	0.0017316
1546	0.0029124
1558	0.0066636
1570	0.0191412
1582	0.0281268
1594	0.0127116
1606	0.0043704
1618	0.0018684
1630	0.0011304
1642	0.000756
1654	0.0005184
1666	0.0004536
1678	0.0004284
1690	0.0004104
1702	0.0003672
1714	0.0002916
1726	0.0002664
1738	0.0002268
1750	0.000216
1762	0.000342
1774	0.0004572
1786	0.0003312
1798	0.0001944
1810	0.0001584
1822	0.0001584
1834	0.0001872
1846	0.000234
1858	0.0004788
1870	0.0004356
1882	0.0001944
1894	0.0001692
1906	0.0001656
1918	0.0001836
1930	0.0002232
1942	0.0004572
1954	0.0005292
1966	0.0002628
1978	0.0001548
1990	0.0001116
2002	0.0001044
2014	0.000126
2026	0.0001008
2038	0.000108
2050	9.36e-05
2062	8.64e-05
2074	7.56e-05
2086	6.48e-05
2098	5.4e-05
2110	5.76e-05
2122	6.84e-05
2134	9.72e-05
2146	0.0001152
2158	0.0001116
2170	8.64e-05
2182	9.72e-05
2194	0.000108
2206	0.0001188
2218	0.0001404
2230	0.0001044
2242	0.0001044
2254	0.0001224
2266	0.00018
2278	0.0002016
2290	0.00018
2302	0.0001764
2314	0.0001548
2326	0.0001116
2338	6.48e-05
2350	6.84e-05
2362	8.28e-05
2374	9e-05
2386	6.12e-05
2398	4.68e-05
2410	5.04e-05
2422	9e-05
2434	0.0001296
2446	6.84e-05
2458	3.96e-05
2470	5.04e-05
2482	4.68e-05
2494	3.96e-05
2506	3.6e-05
2518	6.48e-05
2530	4.68e-05
2542	6.84e-05
2554	0.0001008
2566	0.0001008
2578	0.0001548
2590	0.0001692
2602	0.0001512
2614	0.0001116
2626	0.0001152
2638	0.0001512
2650	0.0001944
2662	0.000216
2674	0.0001872
2686	0.0001728
2698	0.0001944
2710	0.0002412
2722	0.0003744
2734	0.0004464
2746	0.0004212
2758	0.000504
2770	0.0005292
2782	0.000576
2794	0.0007056
2806	0.0008928
2818	0.0011412
2830	0.0015012
2842	0.0021312
2854	0.0034848
2866	0.0062352
2878	0.010368
2890	0.011628
2902	0.0115668
2914	0.0125064
2926	0.0142452
2938	0.0191556
2950	0.021258
2962	0.0286884
2974	0.036
2986	0.0201492
2998	0.0083952
3010	0.0052092
3022	0.0036108
3034	0.0025668
3046	0.003114
3058	0.0063504
3070	0.0077724
3082	0.0042048
3094	0.0016632
3106	0.001008
3118	0.0008424
3130	0.0008712
3142	0.000936
3154	0.0008388
3166	0.0006732
3178	0.0005364
3190	0.0004716
3202	0.0004356
3214	0.0003456
3226	0.0002592
3238	0.00018
3250	0.0001512
3262	0.000144
3274	0.0001152
3286	9e-05
3298	6.48e-05
3310	5.04e-05
3322	5.4e-05
3334	6.12e-05
3346	4.68e-05
3358	5.76e-05
3370	3.24e-05
3382	2.52e-05
3394	2.52e-05
3406	2.16e-05
3418	7.2e-05
3430	3.6e-05
3442	6.84e-05
3454	5.04e-05
3466	1.8e-05
3478	3.6e-05
3490	6.48e-05
3502	3.96e-05
3514	4.32e-05
3526	6.48e-05
3538	6.12e-05
3550	6.48e-05
3562	7.56e-05
3574	7.92e-05
3586	7.56e-05
3598	7.92e-05
3610	5.76e-05
3622	0.0001044
3634	7.92e-05
3646	7.92e-05
3658	9.36e-05
3670	7.2e-05
3682	0.0001116
3694	0.0001692
3706	0.0001332
3718	0.0001656
3730	0.0001476
3742	0.0001764
3754	0.000144
3766	0.000162
3778	0.0001224
3790	0.0001656
3802	0.0001512
3814	0.00018
3826	0.0002088
3838	0.00018
