Infrared Spectrum: 7-Methyl-8-nitroquinoline
Formula: C 10 H 8 N 2 O 2
CAS: 7471-63-8
State: gas
Origin: EPA-IR VAPOR PHASE LIBRARY
1/CM	ABSORBANCE
549.9	0.0005212
559.547	0.00066515
569.193	0.000559
578.84	0.000516
588.486	0.0007187
598.133	0.000456
607.779	0.0005362
617.426	0.00067615
627.072	0.0008964
636.719	0.0014036
646.365	0.0012725
656.012	0.00066426
665.658	0.00067291
675.305	0.00079
684.951	0.0009407
694.598	0.0007207
704.245	0.0005426
713.891	0.0005371
723.538	0.0007398
733.184	0.0007198
742.831	0.00067132
752.477	0.0004947
762.124	0.000538
771.77	0.0005647
781.417	0.001045
791.063	0.00269
800.71	0.00303
810.356	0.0013178
820.003	0.0012972
829.649	0.00228
839.296	0.0013481
848.943	0.0007177
858.589	0.0007315
868.236	0.0014106
877.882	0.0015723
887.529	0.00064066
897.175	0.0004923
906.822	0.000497
916.468	0.000476
926.115	0.0005547
935.761	0.0005496
945.408	0.0005326
955.054	0.0005641
964.701	0.0005547
974.347	0.000448
983.994	0.0005444
993.64	0.0005096
1003.29	0.0005422
1012.93	0.000631
1022.58	0.00063383
1032.23	0.0007036
1041.87	0.0008154
1051.52	0.0009304
1061.17	0.0008583
1070.81	0.0007782
1080.46	0.00063812
1090.11	0.0005295
1099.75	0.0005411
1109.4	0.0004924
1119.05	0.00064825
1128.69	0.00064499
1138.34	0.00062154
1147.99	0.00029
1157.63	0.000515
1167.28	0.000359
1176.92	0.000233
1186.57	7.5e-05
1196.22	0.000246
1205.86	0.000234
1215.51	0.000268
1225.16	0.000377
1234.8	0.000283
1244.45	0.000362
1254.1	0.000457
1263.74	0.000273
1273.39	0.000314
1283.04	0.000377
1292.68	0.000448
1302.33	0.000459
1311.98	0.0008818
1321.62	0.0010463
1331.27	0.0013415
1340.92	0.00258
1350.56	0.0027
1360.21	0.00189
1369.86	0.00179
1379.5	0.00167
1389.15	0.0014132
1398.79	0.0012712
1408.44	0.0009843
1418.09	0.0008397
1427.73	0.0008389
1437.38	0.0009652
1447.03	0.0012146
1456.67	0.0012121
1466.32	0.0010397
1475.97	0.0009761
1485.61	0.0012851
1495.26	0.00203
1504.91	0.00214
1514.55	0.0015221
1524.2	0.00175
1533.85	0.00352
1543.49	0.00775
1553.14	0.01103
1562.79	0.00709
1572.43	0.00268
1582.08	0.001305
1591.73	0.0013901
1601.37	0.0015123
1611.02	0.0013197
1620.67	0.0015275
1630.31	0.0014203
1639.96	0.0010036
1649.6	0.0006809
1659.25	0.0004907
1668.9	0.000442
1678.54	0.000423
1688.19	0.000456
1697.84	0.000428
1707.48	0.000468
1717.13	0.000474
1726.78	0.0005226
1736.42	0.0005312
1746.07	0.000458
1755.72	0.000468
1765.36	0.000418
1775.01	0.000463
1784.66	0.0005003
1794.3	0.000471
1803.95	0.000423
1813.6	0.000396
1823.24	0.000447
1832.89	0.000423
1842.54	0.000379
1852.18	0.000439
1861.83	0.000445
1871.47	0.000441
1881.12	0.000441
1890.77	0.0005488
1900.41	0.0005463
1910.06	0.0005053
1919.71	0.0004998
1929.35	0.0005039
1939	0.0005152
1948.65	0.0005181
1958.29	0.000481
1967.94	0.000451
1977.59	0.000446
1987.23	0.000456
1996.88	0.000426
2006.53	0.000415
2016.17	0.000434
2025.82	0.000448
2035.47	0.000454
2045.11	0.000467
2054.76	0.00048
2064.41	0.0004941
2074.05	0.000446
2083.7	0.000451
2093.35	0.000475
2102.99	0.000446
2112.64	0.000455
2122.28	0.0005162
2131.93	0.0004942
2141.58	0.00046
2151.22	0.000484
2160.87	0.0005385
2170.52	0.0004916
2180.16	0.000458
2189.81	0.0005216
2199.46	0.0005104
2209.1	0.0005196
2218.75	0.00047
2228.4	0.000488
2238.04	0.000484
2247.69	0.0005158
2257.34	0.0005398
2266.98	0.0005189
2276.63	0.000477
2286.28	0.0004961
2295.92	0.0005181
2305.57	0.0005224
2315.22	0.0005451
2324.86	0.000513
2334.51	0.000541
2344.16	0.000482
2353.8	0.000508
2363.45	0.000471
2373.09	0.0005246
2382.74	0.0005583
2392.39	0.0005288
2402.03	0.0005625
2411.68	0.0005552
2421.33	0.0005459
2430.97	0.0005577
2440.62	0.0005467
2450.27	0.0005186
2459.91	0.0006034
2469.56	0.000511
2479.21	0.00058144
2488.85	0.000597188
2498.5	0.00058507
2508.15	0.0005513
2517.79	0.0005361
2527.44	0.00058104
2537.09	0.0005785
2546.73	0.00061373
2556.38	0.0005771
2566.03	0.0005703
2575.67	0.00060761
2585.32	0.00063197
2594.96	0.00058862
2604.61	0.0005144
2614.26	0.00062619
2623.9	0.00063169
2633.55	0.00064398
2643.2	0.000592351
2652.84	0.00064264
2662.49	0.00064408
2672.14	0.00063477
2681.78	0.00068828
2691.43	0.00066448
2701.08	0.0007035
2710.72	0.0007445
2720.37	0.0007877
2730.02	0.00065569
2739.66	0.00064405
2749.31	0.00066566
2758.96	0.0007337
2768.6	0.000749
2778.25	0.0007174
2787.9	0.0007083
2797.54	0.0007252
2807.19	0.0006728
2816.84	0.0006968
2826.48	0.0007699
2836.13	0.0007171
2845.77	0.0007932
2855.42	0.0007417
2865.07	0.0007749
2874.71	0.0008618
2884.36	0.0008985
2894.01	0.0009816
2903.65	0.0009677
2913.3	0.0009689
2922.95	0.000978
2932.59	0.0010976
2942.24	0.0012145
2951.89	0.0010959
2961.53	0.0009179
2971.18	0.0009836
2980.83	0.0010598
2990.47	0.0009495
3000.12	0.0010057
3009.77	0.0011099
3019.41	0.001196
3029.06	0.0012775
3038.71	0.0012638
3048.35	0.00194
3058	0.00224
3067.64	0.00195
3077.29	0.0013821
3086.94	0.0009947
3096.58	0.0009219
3106.23	0.0007374
3115.88	0.0007497
3125.52	0.0008085
3135.17	0.00064392
3144.82	0.0007665
3154.46	0.0005789
3164.11	0.0007354
3173.76	0.0007672
3183.4	0.00065399
3193.05	0.00058535
3202.7	0.0005369
3212.34	0.00066359
3221.99	0.0005759
3231.64	0.000589308
3241.28	0.00058764
3250.93	0.0007174
3260.58	0.0005868
3270.22	0.00065527
3279.87	0.00063848
3289.52	0.00067885
3299.16	0.0005541
3308.81	0.0004946
3318.45	0.00062079
3328.1	0.0005294
3337.75	0.0005319
3347.39	0.0005318
3357.04	0.000634
3366.69	0.000337
3376.33	0.0005081
3385.98	0.000451
3395.63	0.0004966
3405.27	0.0005339
3414.92	0.00067776
3424.57	0.000456
3434.21	0.0005332
3443.86	0.0005541
3453.51	0.00060196
3463.15	0.000378
3472.8	0.0005525
3482.45	0.00064947
3492.09	0.0005326
3501.74	0.00058209
3511.39	0.00067549
3521.03	0.00044
3530.68	0.0005416
3540.33	0.000593191
3549.97	0.0005412
3559.62	0.000414
3569.26	0.00063572
3578.91	0.000466
3588.56	0.00060068
3598.2	0.000451
3607.85	0.0005627
3617.5	0.000465
3627.14	0.0005458
3636.79	0.0005291
3646.44	0.000452
3656.08	0.0007309
3665.73	0.0005441
3675.38	0.000592978
3685.02	0.0005602
3694.67	0.0005408
3704.32	0.00060033
3713.96	0.00060566
3723.61	0.000474
3733.26	0.0005262
3742.9	0.000431
3752.55	0.0005052
3762.2	0.0005706
3771.84	0.0004943
3781.49	0.0006404
3791.13	0.00068752
3800.78	0.000513
3810.43	0.0005684
3820.07	0.00063587
3829.72	0.0005384
3839.37	0.0007199
3849.01	0.0007762
3858.66	0.00063932
3868.31	0.000489
3877.95	0.0006275
3887.6	0.000594233
3897.25	0.00063348
3906.89	0.000746
3916.54	0.0007307
3926.19	0.00064474
3935.83	0.00067529
3945.48	0.00061199
3955.13	0.000591897
3964.77	0.0005504
3974.42	0.0007234
3984.07	0.0005296
3993.71	0.00066165
