Infrared Spectrum: 6-Benzoylhexanoic acid
Formula: C 13 H 16 O 3
CAS: 7472-43-7
State: gas
Origin: EPA-IR VAPOR PHASE LIBRARY
1/CM	ABSORBANCE
549.8	0.03317
559.445	0.03932
569.09	0.04394
578.734	0.04407
588.379	0.04475
598.024	0.04882
607.669	0.04707
617.313	0.04293
626.958	0.03924
636.603	0.0353
646.248	0.03214
655.893	0.03191
665.537	0.03109
675.182	0.03646
684.827	0.0569
694.472	0.06706
704.116	0.04393
713.761	0.03327
723.406	0.03204
733.051	0.03457
742.695	0.03797
752.34	0.03548
761.985	0.0275
771.63	0.02101
781.275	0.01476
790.919	0.01023
800.564	0.00814
810.209	0.00729
819.854	0.00654
829.498	0.00654
839.143	0.0065
848.788	0.00601
858.433	0.00638
868.078	0.00695
877.722	0.00818
887.367	0.009
897.012	0.00998
906.657	0.0101
916.301	0.01189
925.946	0.01269
935.591	0.01366
945.236	0.0167
954.88	0.02172
964.525	0.02559
974.17	0.02649
983.815	0.0298
993.46	0.03476
1003.1	0.04129
1012.75	0.03328
1022.39	0.02727
1032.04	0.02583
1041.68	0.02939
1051.33	0.03699
1060.97	0.04617
1070.62	0.05406
1080.26	0.05877
1089.91	0.06296
1099.55	0.07505
1109.2	0.10473
1118.84	0.14129
1128.49	0.12534
1138.13	0.09309
1147.78	0.07831
1157.42	0.074
1167.07	0.07275
1176.71	0.08543
1186.36	0.07759
1196	0.06748
1205.64	0.07778
1215.29	0.08969
1224.93	0.0765
1234.58	0.06339
1244.22	0.06249
1253.87	0.06619
1263.51	0.07184
1273.16	0.06575
1282.8	0.05394
1292.45	0.04702
1302.09	0.04145
1311.74	0.04128
1321.38	0.04166
1331.03	0.04041
1340.67	0.045
1350.32	0.05451
1359.96	0.0565
1369.61	0.05161
1379.25	0.04564
1388.9	0.03676
1398.54	0.02649
1408.18	0.02238
1417.83	0.02333
1427.47	0.02441
1437.12	0.02976
1446.76	0.04578
1456.41	0.0386
1466.05	0.02499
1475.7	0.01387
1485.34	0.0087
1494.99	0.00693
1504.63	0.00592
1514.28	0.00528
1523.92	0.00495
1533.57	0.00507
1543.21	0.00497
1552.86	0.00506
1562.5	0.00633
1572.15	0.0104
1581.79	0.01481
1591.44	0.01591
1601.08	0.01759
1610.73	0.01103
1620.37	0.00746
1630.01	0.00642
1639.66	0.0069
1649.3	0.00928
1658.95	0.01321
1668.59	0.01988
1678.24	0.03536
1687.88	0.0862
1697.53	0.16714
1707.17	0.14799
1716.82	0.06516
1726.46	0.04259
1736.11	0.0509
1745.75	0.07443
1755.4	0.11125
1765.04	0.16665
1774.69	0.22972
1784.33	0.19586
1793.98	0.12326
1803.62	0.07742
1813.27	0.04206
1822.91	0.02185
1832.55	0.01259
1842.2	0.00818
1851.84	0.00606
1861.49	0.00506
1871.13	0.0048
1880.78	0.00488
1890.42	0.00519
1900.07	0.00521
1909.71	0.00461
1919.36	0.00379
1929	0.00343
1938.65	0.00362
1948.29	0.00476
1957.94	0.00505
1967.58	0.00469
1977.23	0.00333
1986.87	0.00241
1996.52	0.00216
2006.16	0.00204
2015.81	0.00177
2025.45	0.00168
2035.1	0.00171
2044.74	0.00172
2054.38	0.00165
2064.03	0.00149
2073.67	0.0014
2083.32	0.0014
2092.96	0.0015
2102.61	0.00138
2112.25	0.00134
2121.9	0.00139
2131.54	0.0014
2141.19	0.00148
2150.83	0.00153
2160.48	0.00154
2170.12	0.00158
2179.77	0.0017
2189.41	0.00162
2199.06	0.0018
2208.7	0.00166
2218.35	0.0019
2227.99	0.00188
2237.64	0.00188
2247.28	0.00195
2256.92	0.00186
2266.57	0.00184
2276.21	0.00195
2285.86	0.00177
2295.5	0.00179
2305.15	0.00159
2314.79	0.00234
2324.44	0.00227
2334.08	0.00212
2343.73	0.00203
2353.37	0.00192
2363.02	0.00178
2372.66	0.0018
2382.31	0.00173
2391.95	0.00159
2401.6	0.00167
2411.24	0.0017
2420.89	0.00151
2430.53	0.00167
2440.18	0.00152
2449.82	0.00126
2459.47	0.00127
2469.11	0.00125
2478.75	0.00151
2488.4	0.00127
2498.04	0.00138
2507.69	0.00119
2517.33	0.00128
2526.98	0.00136
2536.62	0.00133
2546.27	0.00126
2555.91	0.00134
2565.56	0.00124
2575.2	0.00117
2584.85	0.00145
2594.49	0.00144
2604.14	0.00155
2613.78	0.00174
2623.43	0.00181
2633.07	0.00155
2642.72	0.00145
2652.36	0.00176
2662.01	0.00168
2671.65	0.00203
2681.29	0.00193
2690.94	0.00229
2700.58	0.00201
2710.23	0.0022
2719.87	0.00208
2729.52	0.00184
2739.16	0.0019
2748.81	0.00203
2758.45	0.00222
2768.1	0.00237
2777.74	0.00266
2787.39	0.0031
2797.03	0.0037
2806.68	0.00428
2816.32	0.00523
2825.97	0.00611
2835.61	0.00798
2845.26	0.01124
2854.9	0.02001
2864.55	0.03424
2874.19	0.03819
2883.84	0.03162
2893.48	0.02944
2903.12	0.03591
2912.77	0.04507
2922.41	0.05939
2932.06	0.07841
2941.7	0.09533
2951.35	0.09622
2960.99	0.07414
2970.64	0.04909
2980.28	0.02984
2989.93	0.01807
2999.57	0.01226
3009.22	0.01011
3018.86	0.01059
3028.51	0.01394
3038.15	0.01774
3047.8	0.01662
3057.44	0.02046
3067.09	0.03191
3076.73	0.03303
3086.38	0.02476
3096.02	0.01863
3105.67	0.01091
3115.31	0.00534
3124.95	0.00288
3134.6	0.00217
3144.24	0.00196
3153.89	0.00226
3163.53	0.00181
3173.18	0.00142
3182.82	0.0009708
3192.47	0.0011
3202.11	0.0007402
3211.76	0.0004593
3221.4	0.0009794
3231.05	0.00107
3240.69	0.0003842
3250.34	0.0007626
3259.98	0.0005797
3269.63	0.0009973
3279.27	0.000556
3288.92	0.0002907
3298.56	0.00102
3308.21	0.0007109
3317.85	0.0009465
3327.49	0.0009183
3337.14	0.0009558
3346.78	0.0007329
3356.43	0.00142
3366.07	0.00235
3375.72	0.00265
3385.36	0.00296
3395.01	0.00202
3404.65	0.00159
3414.3	0.00103
3423.94	0.0008124
3433.59	0.0007129
3443.23	0.0009099
3452.88	0.00107
3462.52	0.00103
3472.17	0.00102
3481.81	0.00117
3491.46	0.00157
3501.1	0.00206
3510.75	0.00271
3520.39	0.00313
3530.04	0.00419
3539.68	0.00566
3549.32	0.00949
3558.97	0.0215
3568.61	0.06492
3578.26	0.08764
3587.9	0.02545
3597.55	0.00924
3607.19	0.00484
3616.84	0.00284
3626.48	0.00225
3636.13	0.00162
3645.77	0.00157
3655.42	0.00101
3665.06	0.00107
3674.71	0.0007235
3684.35	0.0008049
3694	0.0007229
3703.64	0.00101
3713.29	0.0008716
3722.93	0.000859
3732.58	0.0006441
3742.22	0.000754
3751.86	0.0006399
3761.51	0.0006173
3771.15	0.0005413
3780.8	0.000519
3790.44	0.0005236
3800.09	0.0006444
3809.73	0.0005685
3819.38	0.0005265
3829.02	0.0006534
3838.67	0.0004333
3848.31	0.000426
3857.96	0.0004908
3867.6	0.0006765
3877.25	7.429e-05
3886.89	0.0007961
3896.54	0.0007846
3906.18	0.0003182
3915.83	0.0006062
3925.47	0.000705
3935.12	0.0007056
3944.76	0.0006486
3954.41	0.0004581
3964.05	0.0008228
3973.69	0.0002877
3983.34	0.0005212
3992.98	0.0006636
