Infrared Spectrum: N-(2-Chloroethyl)naphthalimide
Formula: C 14 H 10 Cl N O 2
CAS: 74732-00-6
State: gas
Origin: EPA-IR VAPOR PHASE LIBRARY
1/CM	ABSORBANCE
549.8	0.0009896
559.445	0.0006764
569.09	0.0006495
578.734	0.000396
588.379	0.0009231
598.024	0.000455
607.669	0.000108
617.313	0.000543
626.958	0.0014636
636.603	0.003475
646.248	0.001755
655.893	0.0012032
665.537	0.002415
675.182	0.001925
684.827	0.0015025
694.472	0.001895
704.116	0.0012297
713.761	0.0012403
723.406	0.0013805
733.051	0.001795
742.695	0.0014597
752.34	0.0017084
761.985	0.004595
771.63	0.016795
781.275	0.028605
790.919	0.008805
800.564	0.002645
810.209	0.001895
819.854	0.0017276
829.498	0.002205
839.143	0.003125
848.788	0.004035
858.433	0.002205
868.078	0.003155
877.722	0.003655
887.367	0.002165
897.012	0.0011514
906.657	0.001765
916.301	0.001815
925.946	0.0016155
935.591	0.001835
945.236	0.002035
954.88	0.002465
964.525	0.002225
974.17	0.001845
983.815	0.002085
993.46	0.002325
1003.1	0.004885
1012.75	0.006905
1022.39	0.006945
1032.04	0.004925
1041.68	0.002965
1051.33	0.000467
1060.97	0.0011962
1070.62	0.002595
1080.26	0.0011019
1089.91	0.002345
1099.55	0.004775
1109.2	0.004295
1118.84	0.002025
1128.49	0.0010782
1138.13	0.005285
1147.78	0.005735
1157.42	0.003535
1167.07	0.012315
1176.71	0.011005
1186.36	0.004265
1196	0.004355
1205.64	0.005815
1215.29	0.006765
1224.93	0.016125
1234.58	0.020155
1244.22	0.012655
1253.87	0.012665
1263.51	0.010185
1273.16	0.005965
1282.8	0.005155
1292.45	0.004765
1302.09	0.004365
1311.74	0.006445
1321.38	0.014155
1331.03	0.031455
1340.67	0.040905
1350.32	0.039795
1359.96	0.021925
1369.61	0.018485
1379.25	0.026605
1388.9	0.016365
1398.54	0.007555
1408.18	0.004135
1417.83	0.004325
1427.47	0.010125
1437.12	0.018015
1446.76	0.015175
1456.41	0.008905
1466.05	0.004645
1475.7	0.003065
1485.34	0.002275
1494.99	0.002045
1504.63	0.002625
1514.28	0.003065
1523.92	0.002345
1533.57	0.0016255
1543.21	0.001735
1552.86	0.001765
1562.5	0.002715
1572.15	0.004675
1581.79	0.011035
1591.44	0.019315
1601.08	0.009895
1610.73	0.004175
1620.37	0.003405
1630.01	0.003425
1639.66	0.003605
1649.3	0.004875
1658.95	0.008365
1668.59	0.014455
1678.24	0.044505
1687.88	0.082215
1697.53	0.044885
1707.17	0.026045
1716.82	0.041645
1726.46	0.036425
1736.11	0.011895
1745.75	0.005215
1755.4	0.003645
1765.04	0.002945
1774.69	0.002615
1784.33	0.001945
1793.98	0.0016818
1803.62	0.0014747
1813.27	0.0013257
1822.91	0.0010613
1832.55	0.0009724
1842.2	0.0012486
1851.84	0.001543
1861.49	0.001587
1871.13	0.0014404
1880.78	0.0012434
1890.42	0.001431
1900.07	0.0015882
1909.71	0.0015507
1919.36	0.0014064
1929	0.001095
1938.65	0.0011068
1948.29	0.0016522
1957.94	0.0016223
1967.58	0.0009892
1977.23	0.0009317
1986.87	0.0008866
1996.52	0.00081887
2006.16	0.0009141
2015.81	0.0009931
2025.45	0.0010818
2035.1	0.0008407
2044.74	0.0008976
2054.38	0.00083228
2064.03	0.0008874
2073.67	0.00082593
2083.32	0.0008675
2092.96	0.0008742
2102.61	0.00076961
2112.25	0.00082605
2121.9	0.0009711
2131.54	0.0009611
2141.19	0.000909
2150.83	0.0009132
2160.48	0.0008454
2170.12	0.00079501
2179.77	0.0009108
2189.41	0.00080446
2199.06	0.0008436
2208.7	0.0008372
2218.35	0.00082871
2227.99	0.0009178
2237.64	0.0010431
2247.28	0.0010051
2256.92	0.000866
2266.57	0.000892
2276.21	0.0011516
2285.86	0.0009024
2295.5	0.0008882
2305.15	0.0009764
2314.79	0.0009428
2324.44	0.0010099
2334.08	0.0006594
2343.73	0.0008585
2353.37	0.0008824
2363.02	0.0010224
2372.66	0.00081968
2382.31	0.0009784
2391.95	0.001171
2401.6	0.0009219
2411.24	0.0010795
2420.89	0.0010017
2430.53	0.0008495
2440.18	0.0009501
2449.82	0.001023
2459.47	0.00081555
2469.11	0.001038
2478.75	0.0010038
2488.4	0.0009304
2498.04	0.0009021
2507.69	0.0010441
2517.33	0.00082115
2526.98	0.0008061
2536.62	0.000846
2546.27	0.0008721
2555.91	0.0007019
2565.56	0.0008846
2575.2	0.0008585
2584.85	0.0010773
2594.49	0.0011171
2604.14	0.0009954
2613.78	0.0010376
2623.43	0.0008417
2633.07	0.0011724
2642.72	0.0008588
2652.36	0.0009164
2662.01	0.000973
2671.65	0.0009833
2681.29	0.0009417
2690.94	0.0009996
2700.58	0.0008499
2710.23	0.0011285
2719.87	0.0009403
2729.52	0.0010296
2739.16	0.0006447
2748.81	0.00091
2758.45	0.00077439
2768.1	0.0009064
2777.74	0.0007154
2787.39	0.0008528
2797.03	0.00080295
2806.68	0.00080192
2816.32	0.0009579
2825.97	0.0011833
2835.61	0.00081351
2845.26	0.0008531
2854.9	0.0009096
2864.55	0.0010271
2874.19	0.0008852
2883.84	0.0009226
2893.48	0.0010068
2903.12	0.0010755
2912.77	0.000806
2922.41	0.0011065
2932.06	0.0010907
2941.7	0.001835
2951.35	0.002615
2960.99	0.002245
2970.64	0.004075
2980.28	0.004075
2989.93	0.002935
2999.57	0.001755
3009.22	0.0017099
3018.86	0.0016959
3028.51	0.001825
3038.15	0.0016054
3047.8	0.002155
3057.44	0.004625
3067.09	0.006405
3076.73	0.005555
3086.38	0.002465
3096.02	0.0015597
3105.67	0.0016755
3115.31	0.0008999
3124.95	0.000615
3134.6	0.00081392
3144.24	0.000632
3153.89	0.000502
3163.53	0.000564
3173.18	0.000576
3182.82	0.0009309
3192.47	0.00037
3202.11	0.00082764
3211.76	0.000428
3221.4	0.00043
3231.05	0.0008643
3240.69	0.0006726
3250.34	0.000607
3259.98	0.00077624
3269.63	0.0008397
3279.27	0.00047
3288.92	0.000743603
3298.56	0.0007137
3308.21	0.00075321
3317.85	0.00075256
3327.49	0.00076766
3337.14	0.0008798
3346.78	0.0008889
3356.43	0.0008871
3366.07	0.0012931
3375.72	0.001393
3385.36	0.0015157
3395.01	0.001298
3404.65	0.0012946
3414.3	0.000627
3423.94	0.0009858
3433.59	0.0013013
3443.23	0.000739269
3452.88	0.0006858
3462.52	0.000903
3472.17	0.0009135
3481.81	0.0008441
3491.46	0.0006467
3501.1	0.0007151
3510.75	0.000397
3520.39	0.000736699
3530.04	0.0006467
3539.68	0.0006361
3549.32	0.000606
3558.97	0.000461
3568.61	0.00079718
3578.26	0.0008746
3587.9	0.00082205
3597.55	0.000627
3607.19	0.00082252
3616.84	0.0006869
3626.48	0.000515
3636.13	0.00081565
3645.77	0.000372
3655.42	0.0006836
3665.06	0.000394
3674.71	0.000582
3684.35	0.0006384
3694	0.000603
3703.64	0.000516
3713.29	0.000507
3722.93	0.0006586
3732.58	0.0009326
3742.22	0.0008995
3751.86	0.000506
3761.51	0.000622
3771.15	0.00078417
3780.8	0.000557
3790.44	0.0006466
3800.09	0.000491
3809.73	0.00052
3819.38	0.000608
3829.02	0.000627
3838.67	0.0007732
3848.31	0.0007244
3857.96	0.00061
3867.6	0.000474
3877.25	0.000549
3886.89	0.00048
3896.54	0.0006707
3906.18	0.0009097
3915.83	0.0006352
3925.47	0.00072559
3935.12	0.000548
3944.76	0.00051
3954.41	0.00056
3964.05	0.000503
3973.69	0.0008736
3983.34	0.0006682
3992.98	0.000284
