Infrared Spectrum: Delta 1(2)-Alpha- Naphthalenemalonic acid, 3-hydroxy-4-oxo-, diethyl ester
Formula: C17 H16 O6
CAS: 7475-39-0
State: SOLID (NUJOL MULL)
Class: COBLENTZ III
Instrument: PERKIN-ELMER 21 (GRATING)
Instrument parameters: FILTER AT ABOUT 10 MICRONS
Resolution: 2
Origin: ABBOTT LABORATORIES
1/CM	TRANSMITTANCE
672	0.6273
681	0.6609
690	0.6783
699	0.6785
708	0.6513
717	0.4517
726	0.5306
735	0.5085
744	0.5841
753	0.6545
762	0.6224
771	0.4787
780	0.4496
789	0.5851
798	0.6819
807	0.6752
816	0.6859
825	0.688
834	0.6866
843	0.6771
852	0.6351
861	0.6085
870	0.625
879	0.523
888	0.6254
897	0.6643
906	0.6531
915	0.612
924	0.6261
933	0.6106
942	0.6006
951	0.5829
960	0.5615
969	0.528
978	0.4618
987	0.5026
996	0.4979
1005	0.4484
1014	0.424
1023	0.4305
1032	0.5726
1041	0.5194
1050	0.4167
1059	0.5578
1068	0.5563
1077	0.525
1086	0.4646
1095	0.4145
1104	0.4529
1113	0.4996
1122	0.4199
1131	0.3896
1140	0.4843
1149	0.4394
1158	0.3868
1167	0.3166
1176	0.3225
1185	0.2758
1194	0.1829
1203	0.1004
1212	0.0978
1221	0.1333
1230	0.2101
1239	0.2964
1248	0.3822
1257	0.3826
1266	0.2447
1275	0.1398
1284	0.2458
1293	0.2874
1302	0.2971
1311	0.4634
1320	0.5317
1329	0.479
1338	0.5096
1347	0.5658
1356	0.5389
1365	0.2854
1374	0.2334
1383	0.3379
1392	0.4627
1401	0.395
1410	0.5629
1419	0.5964
1428	0.5169
1437	0.3463
1446	0.1878
1455	0.1017
1464	0.117
1473	0.2725
1482	0.4808
1491	0.6426
1500	0.6596
1509	0.6517
1518	0.6367
1527	0.6164
1536	0.5647
1545	0.4803
1554	0.5402
1563	0.6043
1572	0.5486
1581	0.5586
1590	0.5946
1599	0.4895
1608	0.5815
1617	0.5291
1626	0.4725
1635	0.3658
1644	0.4279
1653	0.2726
1662	0.2823
1671	0.4989
1680	0.5387
1689	0.4594
1698	0.3943
1707	0.2662
1716	0.2616
1725	0.2545
1734	0.6273
1743	0.6543
1752	0.6989
1761	0.7171
1770	0.7228
1779	0.728
1788	0.7312
1797	0.7341
1806	0.7362
1815	0.7374
1824	0.7367
1833	0.7355
1842	0.7331
1851	0.7292
1860	0.725
1869	0.7225
1878	0.7175
1887	0.7122
1896	0.7102
1905	0.7101
1914	0.71
1923	0.7082
1932	0.7054
1941	0.7016
1950	0.6978
1959	0.6939
1968	0.69
1977	0.6861
1986	0.6836
1995	0.683
2004	0.6823
2013	0.6817
2022	0.6812
2031	0.6781
2040	0.6749
2049	0.6716
2058	0.6684
2067	0.6659
2076	0.6639
2085	0.6619
2094	0.6598
2103	0.6582
2112	0.6567
2121	0.6551
2130	0.653
2139	0.6498
2148	0.6466
2157	0.6449
2166	0.6431
2175	0.6411
2184	0.6389
2193	0.6367
2202	0.6349
2211	0.6333
2220	0.6316
2229	0.6303
2238	0.6291
2247	0.6276
2256	0.6253
2265	0.6231
2274	0.6199
2283	0.6156
2292	0.6125
2301	0.6094
2310	0.6068
2319	0.6048
2328	0.6029
2337	0.601
2346	0.5995
2355	0.5982
2364	0.5968
2373	0.5955
2382	0.5941
2391	0.5926
2400	0.5912
2409	0.5897
2418	0.5883
2427	0.5852
2436	0.5822
2445	0.581
2454	0.5804
2463	0.5798
2472	0.5789
2481	0.5779
2490	0.5748
2499	0.5715
2508	0.5689
2517	0.5664
2526	0.5639
2535	0.5616
2544	0.5592
2553	0.5522
2562	0.5437
2571	0.541
2580	0.5385
2589	0.5358
2598	0.5287
2607	0.5205
2616	0.5152
2625	0.5116
2634	0.5082
2643	0.5049
2652	0.5041
2661	0.5032
2670	0.5025
2679	0.5017
2688	0.5009
2697	0.4992
2706	0.4976
2715	0.4952
2724	0.4905
2733	0.4872
2742	0.4851
2751	0.4837
2760	0.4808
2769	0.4703
2778	0.4522
2787	0.4331
2796	0.4139
2805	0.3921
2814	0.3611
2823	0.3291
2832	0.2993
2841	0.1667
2850	0.044
2859	0.0262
2868	0.0216
2877	0.0199
2886	0.0183
2895	0.0167
2904	0.0153
2913	0.0144
2922	0.0142
2931	0.0141
2940	0.0155
2949	0.0171
2958	0.02
2967	0.031
2976	0.0761
2985	0.1209
2994	0.1656
3003	0.2099
3012	0.2539
3021	0.3035
3030	0.3491
3039	0.3675
3048	0.3781
3057	0.3877
3066	0.3962
3075	0.4009
3084	0.4044
3093	0.4067
3102	0.408
3111	0.4093
3120	0.4101
3129	0.4102
3138	0.4097
3147	0.4084
3156	0.407
3165	0.4048
3174	0.4021
3183	0.3994
3192	0.3972
3201	0.3949
3210	0.3886
3219	0.3816
3228	0.3796
3237	0.3791
3246	0.3786
3255	0.3788
3264	0.3794
3273	0.3799
3282	0.3822
3291	0.3851
3300	0.3884
3309	0.3925
3318	0.3967
3327	0.401
3336	0.4059
3345	0.411
3354	0.416
3363	0.4207
3372	0.4252
3381	0.4298
3390	0.4352
3399	0.4408
3408	0.4444
3417	0.4452
3426	0.446
3435	0.4466
3444	0.4461
3453	0.4455
3462	0.4448
3471	0.4441
3480	0.4435
3489	0.4428
3498	0.4419
3507	0.4409
3516	0.4399
3525	0.4389
3534	0.4379
3543	0.437
3552	0.4359
3561	0.4347
3570	0.4334
3579	0.4322
3588	0.431
3597	0.4298
3606	0.4286
3615	0.4274
3624	0.4266
3633	0.4258
3642	0.4251
3651	0.4243
3660	0.4236
3669	0.4229
3678	0.4221
3687	0.4214
3696	0.4207
3705	0.42
3714	0.4192
3723	0.4185
3732	0.4178
3741	0.4171
3750	0.4164
3759	0.4156
3768	0.4148
3777	0.414
3786	0.4132
3795	0.4124
3804	0.4117
3813	0.4109
3822	0.4101
3831	0.4093
3840	0.4086
3849	0.4077
3858	0.4068
3867	0.4055
3876	0.4043
3885	0.4032
3894	0.402
3903	0.4007
3912	0.399
3921	0.3975
3930	0.3971
3939	0.3968
3948	0.3964
3957	0.396
3966	0.3955
3975	0.3949
3984	0.3945
3993	0.394
