Infrared Spectrum: Methyl .alpha.-chlorophenylacetate
Formula: C 9 H 9 Cl O 2
CAS: 7476-66-6
State: gas
Origin: EPA-IR VAPOR PHASE LIBRARY
1/CM	ABSORBANCE
549.8	0.001773
559.445	0.003063
569.09	0.003143
578.734	0.003503
588.379	0.003133
598.024	0.003213
607.669	0.002843
617.313	0.001813
626.958	0.0010739
636.603	0.001513
646.248	0.001973
655.893	0.002693
665.537	0.004063
675.182	0.008033
684.827	0.014313
694.472	0.018753
704.116	0.018873
713.761	0.020093
723.406	0.019103
733.051	0.013973
742.695	0.008633
752.34	0.006213
761.985	0.005233
771.63	0.005003
781.275	0.004913
790.919	0.005033
800.564	0.004363
810.209	0.003313
819.854	0.002413
829.498	0.002433
839.143	0.003813
848.788	0.005853
858.433	0.006593
868.078	0.004723
877.722	0.002703
887.367	0.002223
897.012	0.002473
906.657	0.002033
916.301	0.001843
925.946	0.001563
935.591	0.0012648
945.236	0.0007346
954.88	0.0010641
964.525	0.001473
974.17	0.001833
983.815	0.003573
993.46	0.007483
1003.1	0.014443
1012.75	0.018863
1022.39	0.016743
1032.04	0.009533
1041.68	0.003983
1051.33	0.002523
1060.97	0.002393
1070.62	0.003413
1080.26	0.003003
1089.91	0.002813
1099.55	0.003463
1109.2	0.004103
1118.84	0.006283
1128.49	0.009523
1138.13	0.018183
1147.78	0.038683
1157.42	0.053863
1167.07	0.039073
1176.71	0.024593
1186.36	0.022113
1196	0.019883
1205.64	0.018193
1215.29	0.022103
1224.93	0.027393
1234.58	0.028603
1244.22	0.028013
1253.87	0.025543
1263.51	0.026963
1273.16	0.032753
1282.8	0.030683
1292.45	0.023503
1302.09	0.017653
1311.74	0.012853
1321.38	0.009623
1331.03	0.008343
1340.67	0.008313
1350.32	0.006983
1359.96	0.004503
1369.61	0.003263
1379.25	0.002643
1388.9	0.002243
1398.54	0.002153
1408.18	0.002333
1417.83	0.003043
1427.47	0.005653
1437.12	0.011493
1446.76	0.010793
1456.41	0.008193
1466.05	0.005603
1475.7	0.004213
1485.34	0.004523
1494.99	0.006673
1504.63	0.004813
1514.28	0.002223
1523.92	0.001853
1533.57	0.001843
1543.21	0.001743
1552.86	0.001693
1562.5	0.001763
1572.15	0.001943
1581.79	0.002003
1591.44	0.002323
1601.08	0.002133
1610.73	0.001923
1620.37	0.0013522
1630.01	0.0011931
1639.66	0.0011371
1649.3	0.0011998
1658.95	0.0011343
1668.59	0.0012196
1678.24	0.001443
1687.88	0.001663
1697.53	0.002073
1707.17	0.002993
1716.82	0.004513
1726.46	0.006723
1736.11	0.012063
1745.75	0.027003
1755.4	0.047483
1765.04	0.043833
1774.69	0.041143
1784.33	0.031613
1793.98	0.017703
1803.62	0.008883
1813.27	0.004453
1822.91	0.002653
1832.55	0.001703
1842.2	0.0013845
1851.84	0.0012355
1861.49	0.0012571
1871.13	0.001463
1880.78	0.001533
1890.42	0.001623
1900.07	0.00142
1909.71	0.0012257
1919.36	0.001064
1929	0.0012421
1938.65	0.001563
1948.29	0.001563
1957.94	0.001543
1967.58	0.0011487
1977.23	0.0008923
1986.87	0.0008379
1996.52	0.0009007
2006.16	0.0009916
2015.81	0.0009927
2025.45	0.0010069
2035.1	0.0011435
2044.74	0.0010978
2054.38	0.0010505
2064.03	0.0009664
2073.67	0.0010018
2083.32	0.000824
2092.96	0.0008041
2102.61	0.000724
2112.25	0.0007506
2121.9	0.0006886
2131.54	0.0008325
2141.19	0.0007501
2150.83	0.0007907
2160.48	0.0007404
2170.12	0.0006747
2179.77	0.0005811
2189.41	0.0005822
2199.06	0.00046781
2208.7	0.0005252
2218.35	0.000555
2227.99	0.00045172
2237.64	0.00047
2247.28	0.00046224
2256.92	0.0005547
2266.57	0.00050125
2276.21	0.00052155
2285.86	0.0005882
2295.5	0.0006063
2305.15	0.0007012
2314.79	0.0006447
2324.44	0.0006853
2334.08	0.0007098
2343.73	0.0008142
2353.37	0.0006693
2363.02	0.00052227
2372.66	0.000562
2382.31	0.00051177
2391.95	0.00046186
2401.6	0.00050986
2411.24	0.0006094
2420.89	0.0006057
2430.53	0.000589
2440.18	0.000639
2449.82	0.0005367
2459.47	0.0005677
2469.11	0.0005429
2478.75	0.0005315
2488.4	0.0006054
2498.04	0.0005434
2507.69	0.0005511
2517.33	0.0006696
2526.98	0.00052053
2536.62	0.0005977
2546.27	0.0005713
2555.91	0.00051382
2565.56	0.00044111
2575.2	0.0005552
2584.85	0.000623
2594.49	0.00045476
2604.14	0.00051101
2613.78	0.0005717
2623.43	0.0005618
2633.07	0.00047237
2642.72	0.0006058
2652.36	0.00050301
2662.01	0.00043601
2671.65	0.00044895
2681.29	0.0005787
2690.94	0.0005235
2700.58	0.0003296
2710.23	0.00045102
2719.87	0.00047923
2729.52	0.0003954
2739.16	0.0003684
2748.81	0.00048663
2758.45	0.000432429
2768.1	0.00043517
2777.74	0.0005573
2787.39	0.00049724
2797.03	0.000423186
2806.68	0.0006259
2816.32	0.0006003
2825.97	0.0008841
2835.61	0.0010529
2845.26	0.002263
2854.9	0.002553
2864.55	0.001483
2874.19	0.0011446
2883.84	0.0012295
2893.48	0.001923
2903.12	0.002353
2912.77	0.002513
2922.41	0.002463
2932.06	0.002533
2941.7	0.003473
2951.35	0.007493
2960.99	0.014233
2970.64	0.010233
2980.28	0.004473
2989.93	0.003813
2999.57	0.004103
3009.22	0.004563
3018.86	0.005043
3028.51	0.006893
3038.15	0.008913
3047.8	0.007253
3057.44	0.006273
3067.09	0.009273
3076.73	0.010643
3086.38	0.006823
3096.02	0.005143
3105.67	0.003733
3115.31	0.002643
3124.95	0.001653
3134.6	0.0008475
3144.24	0.0007607
3153.89	0.0007624
3163.53	0.0006113
3173.18	0.0007727
3182.82	0.00045204
3192.47	0.00042128
3202.11	0.0006037
3211.76	0.00026
3221.4	0.000204
3231.05	0.0003797
3240.69	0.000213
3250.34	0.0003539
3259.98	0.000275
3269.63	0.0005267
3279.27	0.000189
3288.92	0.00042152
3298.56	0.000304
3308.21	0.000102
3317.85	0.00044934
3327.49	9.4e-05
3337.14	0.000574
3346.78	0.000227
3356.43	0.00017
3366.07	0.00052272
3375.72	0.000317
3385.36	0.000254
3395.01	0.00049094
3404.65	0.0003855
3414.3	0.000117
3423.94	0.00048251
3433.59	0.00021
3443.23	0.0003716
3452.88	0.0003684
3462.52	0.0006673
3472.17	0.0005622
3481.81	0.0005462
3491.46	0.0005584
3501.1	0.0006787
3510.75	0.000426751
3520.39	0.0006965
3530.04	0.0007762
3539.68	0.0006344
3549.32	0.0006404
3558.97	0.0003423
3568.61	0.000227
3578.26	0.0003449
3587.9	0.00044262
3597.55	0.0003
3607.19	0.00045095
3616.84	0.000299
3626.48	0.000125
3636.13	0.000254
3645.77	0.000276
3655.42	0.000295
3665.06	0.00027
3674.71	0.000219
3684.35	0.000313
3694	0.0003925
3703.64	0.00045148
3713.29	0.0004703
3722.93	0.000317
3732.58	4.6e-05
3742.22	0.000116
3751.86	0.000246
3761.51	0.000422702
3771.15	0.0003649
3780.8	0.000222
3790.44	0.000165
3800.09	0.000272
3809.73	0.000275
3819.38	0.000296
3829.02	0.000316
3838.67	0.000325
3848.31	0.0003829
3857.96	0.000109
3867.6	0.00046684
3877.25	0.0004081
3886.89	0.000249
3896.54	0.000301
3906.18	0.000287
3915.83	0.000223
3925.47	0.0003781
3935.12	0.0006534
3944.76	0.0004153
3954.41	0.0003949
3964.05	0.000534
3973.69	0.0003279
3983.34	0.000268
3992.98	0.00047949
