Infrared Spectrum: Methyl 3-(1-pyrrolo)thiophene-2-carboxylate
Formula: C 10 H 9 N O 2 S
CAS: 74772-16-0
State: gas
Origin: EPA-IR VAPOR PHASE LIBRARY
1/CM	ABSORBANCE
549.8	0.002053
559.445	0.00223
569.09	0.0021277
578.734	0.002
588.379	0.00336
598.024	0.00497
607.669	0.0091
617.313	0.01365
626.958	0.0093
636.603	0.00761
646.248	0.01297
655.893	0.02364
665.537	0.02143
675.182	0.01263
684.827	0.01057
694.472	0.01356
704.116	0.02176
713.761	0.08287
723.406	0.1044
733.051	0.03149
742.695	0.0163
752.34	0.01387
761.985	0.0187
771.63	0.03581
781.275	0.03426
790.919	0.02333
800.564	0.0113
810.209	0.00793
819.854	0.00651
829.498	0.00555
839.143	0.00526
848.788	0.00824
858.433	0.02817
868.078	0.03603
877.722	0.01116
887.367	0.00548
897.012	0.00331
906.657	0.00326
916.301	0.00378
925.946	0.00489
935.591	0.00634
945.236	0.00499
954.88	0.00498
964.525	0.01052
974.17	0.01764
983.815	0.00994
993.46	0.00395
1003.1	0.00361
1012.75	0.00325
1022.39	0.00487
1032.04	0.00773
1041.68	0.0135
1051.33	0.02322
1060.97	0.05655
1070.62	0.11556
1080.26	0.13464
1089.91	0.11097
1099.55	0.07105
1109.2	0.03374
1118.84	0.02066
1128.49	0.01591
1138.13	0.01511
1147.78	0.01741
1157.42	0.01346
1167.07	0.01121
1176.71	0.01603
1186.36	0.02048
1196	0.02896
1205.64	0.06047
1215.29	0.1448
1224.93	0.18669
1234.58	0.10927
1244.22	0.08429
1253.87	0.0945
1263.51	0.07991
1273.16	0.04497
1282.8	0.03372
1292.45	0.05379
1302.09	0.08894
1311.74	0.05995
1321.38	0.02483
1331.03	0.01534
1340.67	0.01195
1350.32	0.01058
1359.96	0.01173
1369.61	0.01627
1379.25	0.02483
1388.9	0.04182
1398.54	0.04721
1408.18	0.0655
1417.83	0.06781
1427.47	0.04669
1437.12	0.07727
1446.76	0.07457
1456.41	0.03142
1466.05	0.0283
1475.7	0.0537
1485.34	0.08168
1494.99	0.0404
1504.63	0.02063
1514.28	0.02242
1523.92	0.03416
1533.57	0.07057
1543.21	0.14173
1552.86	0.14406
1562.5	0.0532
1572.15	0.01952
1581.79	0.01282
1591.44	0.00988
1601.08	0.00943
1610.73	0.00853
1620.37	0.00732
1630.01	0.00613
1639.66	0.00561
1649.3	0.00571
1658.95	0.00633
1668.59	0.00774
1678.24	0.01123
1687.88	0.01514
1697.53	0.02195
1707.17	0.03641
1716.82	0.07494
1726.46	0.14302
1736.11	0.14399
1745.75	0.13266
1755.4	0.07333
1765.04	0.03216
1774.69	0.02081
1784.33	0.0128
1793.98	0.00763
1803.62	0.00502
1813.27	0.00429
1822.91	0.00376
1832.55	0.00358
1842.2	0.00357
1851.84	0.00368
1861.49	0.00399
1871.13	0.00373
1880.78	0.00372
1890.42	0.00347
1900.07	0.00333
1909.71	0.00298
1919.36	0.00261
1929	0.00221
1938.65	0.002078
1948.29	0.0020307
1957.94	0.0020285
1967.58	0.0019885
1977.23	0.0018147
1986.87	0.00237
1996.52	0.00258
2006.16	0.00344
2015.81	0.00337
2025.45	0.00308
2035.1	0.00282
2044.74	0.00293
2054.38	0.00228
2064.03	0.0020218
2073.67	0.0019702
2083.32	0.0020654
2092.96	0.0021722
2102.61	0.0018903
2112.25	0.0020629
2121.9	0.00225
2131.54	0.0015967
2141.19	0.0017633
2150.83	0.0018298
2160.48	0.0021499
2170.12	0.0021662
2179.77	0.0019873
2189.41	0.0018034
2199.06	0.0019395
2208.7	0.0018225
2218.35	0.0017514
2227.99	0.0016147
2237.64	0.0016988
2247.28	0.0014685
2256.92	0.0013701
2266.57	0.0013692
2276.21	0.0011612
2285.86	0.0015325
2295.5	0.0014106
2305.15	0.0014368
2314.79	0.0011106
2324.44	0.001474
2334.08	0.0016861
2343.73	0.0012974
2353.37	0.00125766
2363.02	0.0012972
2372.66	0.0015082
2382.31	0.0011203
2391.95	0.0013925
2401.6	0.0014884
2411.24	0.0013094
2420.89	0.00127628
2430.53	0.0015252
2440.18	0.00122796
2449.82	0.0014492
2459.47	0.0015612
2469.11	0.0016415
2478.75	0.0014765
2488.4	0.0015348
2498.04	0.001543
2507.69	0.0018021
2517.33	0.0019875
2526.98	0.0016922
2536.62	0.0018595
2546.27	0.0016089
2555.91	0.0021256
2565.56	0.0020907
2575.2	0.0017198
2584.85	0.0017514
2594.49	0.00236
2604.14	0.00241
2613.78	0.00238
2623.43	0.0023
2633.07	0.0015918
2642.72	0.0015977
2652.36	0.0016051
2662.01	0.0013278
2671.65	0.0011968
2681.29	0.00120394
2690.94	0.00169
2700.58	0.0016066
2710.23	0.0018897
2719.87	0.001667
2729.52	0.0013163
2739.16	0.001
2748.81	0.0014201
2758.45	0.001892
2768.1	0.0014231
2777.74	0.001836
2787.39	0.0016804
2797.03	0.0017329
2806.68	0.0018874
2816.32	0.00239
2825.97	0.00299
2835.61	0.00474
2845.26	0.00554
2854.9	0.00521
2864.55	0.00394
2874.19	0.00342
2883.84	0.00367
2893.48	0.00414
2903.12	0.0057
2912.77	0.00549
2922.41	0.00541
2932.06	0.00552
2941.7	0.00759
2951.35	0.01812
2960.99	0.032
2970.64	0.01779
2980.28	0.00704
2989.93	0.00609
2999.57	0.00724
3009.22	0.00716
3018.86	0.00631
3028.51	0.00638
3038.15	0.00549
3047.8	0.00425
3057.44	0.00313
3067.09	0.00286
3076.73	0.00322
3086.38	0.00351
3096.02	0.00419
3105.67	0.0054
3115.31	0.00804
3124.95	0.00713
3134.6	0.00443
3144.24	0.00445
3153.89	0.00385
3163.53	0.00273
3173.18	0.0023
3182.82	0.0016808
3192.47	0.001012
3202.11	0.0016269
3211.76	0.000769
3221.4	0.0010844
3231.05	0.001026
3240.69	0.00067
3250.34	0.00109
3259.98	0.000716
3269.63	0.000508
3279.27	0.00061
3288.92	0.000707
3298.56	0.00079
3308.21	0.001002
3317.85	0.000912
3327.49	0.000758
3337.14	0.00049
3346.78	0.000653
3356.43	0.00111
3366.07	0.000811
3375.72	0.00104
3385.36	0.000702
3395.01	0.000562
3404.65	0.000786
3414.3	0.00125326
3423.94	0.0014597
3433.59	0.0013311
3443.23	0.0015636
3452.88	0.0016152
3462.52	0.0013948
3472.17	0.0020872
3481.81	0.0011157
3491.46	0.0020329
3501.1	0.000832
3510.75	0.0012903
3520.39	0.0014183
3530.04	0.000262
3539.68	0.000951
3549.32	0.000719
3558.97	0.001049
3568.61	0.000333
3578.26	0.001073
3587.9	0.0013402
3597.55	0.000298
3607.19	0.000913
3616.84	0.000645
3626.48	0.000948
3636.13	0.000888
3645.77	0.000387
3655.42	0.000371
3665.06	0.000442
3674.71	0.000888
3684.35	0.000972
3694	0.000204
3703.64	0.0010948
3713.29	0.000798
3722.93	0.00126345
3732.58	0.0013348
3742.22	0.000877
3751.86	0.000831
3761.51	0.000999
3771.15	0.001017
3780.8	0.000582
3790.44	0.000215
3800.09	0.000399
3809.73	0.00094
3819.38	0.0015073
3829.02	0.001026
3838.67	0.000545
3848.31	0.00017
3857.96	0.000784
3867.6	0.000814
3877.25	0.001017
3886.89	0.000339
3896.54	0.000988
3906.18	0.0015766
3915.83	0.0013019
3925.47	0.000853
3935.12	0.000899
3944.76	0.001044
3954.41	0.00119119
3964.05	0.0018256
3973.69	0.0011521
3983.34	0.00274
3992.98	0.0013903
