Infrared Spectrum: 1-Amino-2-hydroxyindane
Formula: C 9 H 11 N O
CAS: 7480-35-5
State: gas
Instrument: HP-GC/MS/IRD
Origin: NIST Mass Spectrometry Data Center
1/CM	ABSORBANCE
550	0.0003104
562	8.88e-05
574	5.84e-05
586	0.00015
598	0.00016
610	0.0001984
622	0.0002884
634	0.0004004
646	0.000452
658	0.0003064
670	0.0003172
682	0.0004
694	0.0005376
706	0.0008488
718	0.0014448
730	0.0026448
742	0.004
754	0.0027148
766	0.0014392
778	0.000904
790	0.0006832
802	0.000638
814	0.0005492
826	0.0003596
838	0.000296
850	0.0004296
862	0.0004352
874	0.000502
886	0.0003408
898	0.0001932
910	0.0001508
922	0.0001736
934	0.0001768
946	0.0001716
958	0.0001556
970	0.0002288
982	0.0002524
994	0.000458
1006	0.0006908
1018	0.0010552
1030	0.0012276
1042	0.0014692
1054	0.0017892
1066	0.002718
1078	0.003008
1090	0.0018284
1102	0.0009608
1114	0.00064
1126	0.000666
1138	0.0006476
1150	0.0007388
1162	0.0007748
1174	0.000714
1186	0.0006028
1198	0.0006404
1210	0.0006916
1222	0.0007392
1234	0.000724
1246	0.0007804
1258	0.0008856
1270	0.0008
1282	0.0006832
1294	0.0006904
1306	0.000648
1318	0.00065
1330	0.0006404
1342	0.00063
1354	0.0007416
1366	0.000948
1378	0.0010752
1390	0.0007636
1402	0.000362
1414	0.00023
1426	0.000226
1438	0.0003148
1450	0.0004788
1462	0.0006348
1474	0.00075
1486	0.0004804
1498	0.0001412
1510	6.52e-05
1522	5.8e-05
1534	6.48e-05
1546	6.6e-05
1558	0.0001244
1570	0.0001656
1582	0.0002844
1594	0.000468
1606	0.0006684
1618	0.0007304
1630	0.0005224
1642	0.0002844
1654	0.000202
1666	0.0001132
1678	0.0001496
1690	0.0001032
1702	9.2e-05
1714	6.64e-05
1726	6.72e-05
1738	7.6e-05
1750	6.92e-05
1762	0.0001284
1774	0.00015
1786	0.0001172
1798	0.0001172
1810	9.48e-05
1822	0.0001052
1834	0.0001136
1846	9.12e-05
1858	8.28e-05
1870	7.84e-05
1882	6.68e-05
1894	0.0001068
1906	0.0001516
1918	7.48e-05
1930	7.48e-05
1942	0.0001004
1954	7.44e-05
1966	4.32e-05
1978	2.32e-05
1990	5.04e-05
2002	4.28e-05
2014	2.28e-05
2026	4.28e-05
2038	4.24e-05
2050	4.96e-05
2062	4.08e-05
2074	3.16e-05
2086	2.8e-05
2098	2.08e-05
2110	4.48e-05
2122	3.44e-05
2134	5.04e-05
2146	2.84e-05
2158	4.08e-05
2170	3.08e-05
2182	1.76e-05
2194	2.8e-05
2206	3.04e-05
2218	2.2e-05
2230	1.52e-05
2242	4.68e-05
2254	3.12e-05
2266	3.4e-05
2278	3.08e-05
2290	3.24e-05
2302	2.36e-05
2314	3.52e-05
2326	4.6e-05
2338	3.36e-05
2350	1.56e-05
2362	8.36e-05
2374	3.52e-05
2386	1.48e-05
2398	2.84e-05
2410	1.32e-05
2422	3.52e-05
2434	1.48e-05
2446	2.4e-05
2458	3.84e-05
2470	3.8e-05
2482	2.92e-05
2494	1.56e-05
2506	2.72e-05
2518	1.28e-05
2530	3.48e-05
2542	6.8e-06
2554	5.04e-05
2566	6.68e-05
2578	5.88e-05
2590	3.88e-05
2602	5.32e-05
2614	2.56e-05
2626	3.88e-05
2638	2.88e-05
2650	2.12e-05
2662	5.72e-05
2674	3.48e-05
2686	6.12e-05
2698	5.92e-05
2710	6.76e-05
2722	6.68e-05
2734	0.0001136
2746	5.56e-05
2758	7.44e-05
2770	5.64e-05
2782	9.04e-05
2794	8.52e-05
2806	0.0001116
2818	0.0001876
2830	0.0003196
2842	0.000574
2854	0.0008108
2866	0.0010264
2878	0.0011412
2890	0.0011376
2902	0.0011412
2914	0.0012616
2926	0.0012088
2938	0.0010548
2950	0.0011716
2962	0.0010444
2974	0.000492
2986	0.0001764
2998	0.0001684
3010	0.0003784
3022	0.0008004
3034	0.0009984
3046	0.00093
3058	0.0010372
3070	0.0012476
3082	0.0010948
3094	0.000498
3106	0.0002016
3118	0.0001168
3130	6.68e-05
3142	6.6e-05
3154	8.24e-05
3166	3.96e-05
3178	3.16e-05
3190	3.56e-05
3202	7.24e-05
3214	1.76e-05
3226	2.28e-05
3238	5.76e-05
3250	3.4e-05
3262	7.64e-05
3274	1.72e-05
3286	2.08e-05
3298	9.48e-05
3310	7.84e-05
3322	8.48e-05
3334	0.0001092
3346	8.44e-05
3358	2.2e-05
3370	4.68e-05
3382	8.32e-05
3394	7.16e-05
3406	0.0001148
3418	0.00015
3430	0.00011
3442	0.0001816
3454	0.0001492
3466	0.0001004
3478	0.0001764
3490	0.0001128
3502	0.0001088
3514	0.000152
3526	0.000126
3538	0.0001664
3550	0.0001068
3562	0.0001188
3574	0.0001152
3586	0.0001444
3598	0.0001956
3610	0.0002872
3622	0.0004336
3634	0.0005776
3646	0.0006392
3658	0.0005988
3670	0.0004068
3682	0.0002636
3694	0.0001988
3706	0.0001816
3718	7.84e-05
3730	0.0001584
3742	0.00012
3754	0.00012
3766	0.000102
3778	0.0001476
3790	9.08e-05
3802	0.000188
3814	0.0001268
3826	0.0001472
3838	0.0001688
