Infrared Spectrum: 4-(Trifluoromethyl)-.alpha.,.alpha.,.alpha.-trifluoroacetophenone
Formula: C 9 H 4 F 6 O
CAS: 74853-66-0
State: gas
Origin: EPA-IR VAPOR PHASE LIBRARY
1/CM	ABSORBANCE
549.8	0.00295
559.445	0.00318
569.09	0.00453
578.734	0.00525
588.379	0.00728
598.024	0.01236
607.669	0.0123
617.313	0.00742
626.958	0.00551
636.603	0.00471
646.248	0.00485
655.893	0.00434
665.537	0.00451
675.182	0.00645
684.827	0.00953
694.472	0.00874
704.116	0.01067
713.761	0.01117
723.406	0.00839
733.051	0.01365
742.695	0.04386
752.34	0.01122
761.985	0.00949
771.63	0.01595
781.275	0.01082
790.919	0.00493
800.564	0.00372
810.209	0.00308
819.854	0.0037
829.498	0.00565
839.143	0.00771
848.788	0.01607
858.433	0.01916
868.078	0.01039
877.722	0.00542
887.367	0.00441
897.012	0.00401
906.657	0.00416
916.301	0.00846
925.946	0.02161
935.591	0.06718
945.236	0.10617
954.88	0.03886
964.525	0.01486
974.17	0.00908
983.815	0.00583
993.46	0.0042
1003.1	0.00451
1012.75	0.01197
1022.39	0.02237
1032.04	0.00476
1041.68	0.00592
1051.33	0.00993
1060.97	0.04677
1070.62	0.11941
1080.26	0.0307
1089.91	0.01763
1099.55	0.01525
1109.2	0.0209
1118.84	0.03384
1128.49	0.04838
1138.13	0.08217
1147.78	0.17295
1157.42	0.27734
1167.07	0.27301
1176.71	0.30057
1186.36	0.25392
1196	0.13944
1205.64	0.14554
1215.29	0.18409
1224.93	0.09624
1234.58	0.03432
1244.22	0.02059
1253.87	0.0177
1263.51	0.01561
1273.16	0.01492
1282.8	0.01834
1292.45	0.02523
1302.09	0.04213
1311.74	0.10694
1321.38	0.25919
1331.03	0.18731
1340.67	0.03944
1350.32	0.01609
1359.96	0.01045
1369.61	0.00811
1379.25	0.00699
1388.9	0.00592
1398.54	0.00712
1408.18	0.01244
1417.83	0.01256
1427.47	0.00629
1437.12	0.00405
1446.76	0.00377
1456.41	0.00329
1466.05	0.00292
1475.7	0.00247
1485.34	0.00281
1494.99	0.00321
1504.63	0.00537
1514.28	0.00924
1523.92	0.00439
1533.57	0.00286
1543.21	0.00363
1552.86	0.00389
1562.5	0.00473
1572.15	0.0046
1581.79	0.00462
1591.44	0.00428
1601.08	0.00306
1610.73	0.00376
1620.37	0.00357
1630.01	0.00326
1639.66	0.00287
1649.3	0.00306
1658.95	0.00299
1668.59	0.00381
1678.24	0.00473
1687.88	0.00573
1697.53	0.00646
1707.17	0.00759
1716.82	0.01331
1726.46	0.03459
1736.11	0.08942
1745.75	0.06654
1755.4	0.02001
1765.04	0.00805
1774.69	0.00558
1784.33	0.0046
1793.98	0.00476
1803.62	0.00496
1813.27	0.00489
1822.91	0.00309
1832.55	0.00244
1842.2	0.0023628
1851.84	0.0022176
1861.49	0.0021879
1871.13	0.0024249
1880.78	0.002354
1890.42	0.00262
1900.07	0.00256
1909.71	0.00271
1919.36	0.00335
1929	0.00368
1938.65	0.00329
1948.29	0.00284
1957.94	0.0021684
1967.58	0.0018563
1977.23	0.0018701
1986.87	0.0016005
1996.52	0.0016852
2006.16	0.00144711
2015.81	0.0017224
2025.45	0.0013804
2035.1	0.001252
2044.74	0.00145698
2054.38	0.00147612
2064.03	0.00147965
2073.67	0.0016955
2083.32	0.0018447
2092.96	0.0019091
2102.61	0.0020228
2112.25	0.0020962
2121.9	0.0017485
2131.54	0.0014091
2141.19	0.0015317
2150.83	0.001315
2160.48	0.0015941
2170.12	0.00151863
2179.77	0.0015373
2189.41	0.001062
2199.06	0.0015942
2208.7	0.0015852
2218.35	0.001877
2227.99	0.00145214
2237.64	0.001817
2247.28	0.0018963
2256.92	0.0017685
2266.57	0.0018544
2276.21	0.0021817
2285.86	0.0021511
2295.5	0.00261
2305.15	0.00246
2314.79	0.0022225
2324.44	0.0023153
2334.08	0.0021619
2343.73	0.00244
2353.37	0.00253
2363.02	0.002143
2372.66	0.0021223
2382.31	0.0020609
2391.95	0.0016529
2401.6	0.0021062
2411.24	0.0017256
2420.89	0.0013997
2430.53	0.00151659
2440.18	0.000991
2449.82	0.00147405
2459.47	0.0013387
2469.11	0.00152403
2478.75	0.00148866
2488.4	0.0020435
2498.04	0.0019591
2507.69	0.0021808
2517.33	0.0015882
2526.98	0.0018977
2536.62	0.0016558
2546.27	0.0018741
2555.91	0.00143846
2565.56	0.0016853
2575.2	0.0016283
2584.85	0.00104
2594.49	0.00147066
2604.14	0.001402
2613.78	0.0015462
2623.43	0.0019104
2633.07	0.001338
2642.72	0.00146504
2652.36	0.001399
2662.01	0.000528
2671.65	0.001266
2681.29	0.001609
2690.94	0.001187
2700.58	0.000959
2710.23	0.001148
2719.87	0.0013322
2729.52	0.001065
2739.16	0.000623
2748.81	0.001018
2758.45	0.001172
2768.1	0.001096
2777.74	0.000654
2787.39	0.0019622
2797.03	0.000836
2806.68	0.001149
2816.32	0.001108
2825.97	0.001288
2835.61	0.001134
2845.26	0.001197
2854.9	0.00148057
2864.55	0.001052
2874.19	0.0012
2883.84	0.001291
2893.48	0.000633
2903.12	0.0016966
2912.77	0.0016826
2922.41	0.0015762
2932.06	0.0016385
2941.7	0.0015494
2951.35	0.0015675
2960.99	0.000597
2970.64	0.000848
2980.28	0.0015337
2989.93	0.0014188
2999.57	0.001213
3009.22	0.0017966
3018.86	0.0013716
3028.51	0.001261
3038.15	0.001173
3047.8	0.0019214
3057.44	0.001626
3067.09	0.0020135
3076.73	0.00151519
3086.38	0.0019966
3096.02	0.0015454
3105.67	0.00265
3115.31	0.0023837
3124.95	0.001223
3134.6	0.00141
3144.24	0.0014594
3153.89	0.0013539
3163.53	0.001087
3173.18	0.000583
3182.82	0.0018607
3192.47	0.0016489
3202.11	0.00094
3211.76	0.0016424
3221.4	0.000703
3231.05	0.000846
3240.69	0.000924
3250.34	0.000958
3259.98	0.001177
3269.63	0.001202
3279.27	0.001198
3288.92	0.001275
3298.56	0.00042
3308.21	0.001057
3317.85	0.001216
3327.49	0.001244
3337.14	0.00149384
3346.78	0.0017738
3356.43	0.001136
3366.07	0.0019463
3375.72	0.0020277
3385.36	0.0018493
3395.01	0.0015699
3404.65	0.000998
3414.3	0.0017286
3423.94	0.0019628
3433.59	0.0017428
3443.23	0.00269
3452.88	0.002354
3462.52	0.00273
3472.17	0.0023288
3481.81	0.0021323
3491.46	0.0014193
3501.1	0.001255
3510.75	0.000888
3520.39	0.00147231
3530.04	0.000926
3539.68	0.00121
3549.32	0.000573
3558.97	0.0015977
3568.61	0.0017991
3578.26	0.000747
3587.9	0.0019774
3597.55	0.000923
3607.19	0.000715
3616.84	0.0018627
3626.48	0.001577
3636.13	0.0017801
3645.77	0.001108
3655.42	0.000902
3665.06	0.0015521
3674.71	0.000551
3684.35	0.001083
3694	0.001098
3703.64	0.0014053
3713.29	0.00104
3722.93	0.00146672
3732.58	0.000867
3742.22	0.000912
3751.86	0.0013
3761.51	0.0023609
3771.15	0.0018952
3780.8	0.00253
3790.44	0.0017548
3800.09	0.000811
3809.73	0.001178
3819.38	0.0004
3829.02	0.0017666
3838.67	0.000804
3848.31	0.001157
3857.96	0.000799
3867.6	0.001601
3877.25	0.0017786
3886.89	0.000476
3896.54	0.001281
3906.18	0.0016402
3915.83	0.001295
3925.47	0.001187
3935.12	0.000845
3944.76	0.000987
3954.41	0.00045
3964.05	0.001121
3973.69	0.00011
3983.34	0.000661
3992.98	0.000688
