Infrared Spectrum: 2-Methyl-4-octanone
Formula: C 9 H 18 O
CAS: 7492-38-8
State: gas
Instrument: HP-GC/MS/IRD
Origin: NIST Mass Spectrometry Data Center
1/CM	ABSORBANCE
550	0.000181
562	0.000143
574	0.000226
586	7.1e-05
598	0.000201
610	0.000104
622	0.000241
634	0.00021
646	0.000167
658	0.000142
670	0.000133
682	9.3e-05
694	9.5e-05
706	0.000118
718	0.000172
730	0.000233
742	0.000199
754	0.000193
766	0.00021
778	0.000195
790	0.000119
802	0.000128
814	0.000165
826	0.000232
838	8.1e-05
850	0.000166
862	0.000126
874	0.000128
886	0.000105
898	0.000172
910	0.000167
922	0.000269
934	0.000296
946	0.00028
958	0.000234
970	0.000166
982	0.000171
994	0.000187
1006	0.00024
1018	0.000509
1030	0.000973
1042	0.001421
1054	0.000998
1066	0.00063
1078	0.000471
1090	0.000417
1102	0.000454
1114	0.000677
1126	0.000794
1138	0.00107
1150	0.001311
1162	0.00136
1174	0.001119
1186	0.000656
1198	0.000505
1210	0.000564
1222	0.000561
1234	0.000567
1246	0.000585
1258	0.000549
1270	0.000609
1282	0.000866
1294	0.000968
1306	0.000861
1318	0.00083
1330	0.001085
1342	0.00148
1354	0.001994
1366	0.00202
1378	0.001484
1390	0.001124
1402	0.000877
1414	0.00088
1426	0.000868
1438	0.000853
1450	0.001073
1462	0.001334
1474	0.001131
1486	0.000612
1498	0.000327
1510	0.000112
1522	0.000107
1534	9.6e-05
1546	8.1e-05
1558	9.3e-05
1570	0.000138
1582	0.0001
1594	9.7e-05
1606	0.000131
1618	0.000158
1630	0.000131
1642	0.000181
1654	0.000182
1666	0.000248
1678	0.000419
1690	0.000811
1702	0.001867
1714	0.004057
1726	0.005169
1738	0.002809
1750	0.000905
1762	0.000416
1774	0.000243
1786	0.00016
1798	9e-05
1810	8.4e-05
1822	7e-05
1834	8.2e-05
1846	4.8e-05
1858	4.2e-05
1870	6e-05
1882	5.3e-05
1894	2.5e-05
1906	2.5e-05
1918	3.1e-05
1930	4.6e-05
1942	3.1e-05
1954	3.8e-05
1966	2.8e-05
1978	2.6e-05
1990	8e-06
2002	2.2e-05
2014	4.9e-05
2026	3.9e-05
2038	1.9e-05
2050	3.1e-05
2062	1.5e-05
2074	3.4e-05
2086	2.7e-05
2098	3.8e-05
2110	2.3e-05
2122	2.7e-05
2134	2.5e-05
2146	4.8e-05
2158	1.9e-05
2170	4.6e-05
2182	1.7e-05
2194	1.4e-05
2206	1.5e-05
2218	2.6e-05
2230	3.4e-05
2242	1e-06
2254	3.3e-05
2266	2.8e-05
2278	3e-05
2290	3.4e-05
2302	1.4e-05
2314	4.3e-05
2326	5.4e-05
2338	4.5e-05
2350	3.6e-05
2362	2.6e-05
2374	3.8e-05
2386	2.9e-05
2398	4.3e-05
2410	3.5e-05
2422	4.3e-05
2434	4.5e-05
2446	4.5e-05
2458	4e-05
2470	5.6e-05
2482	1.9e-05
2494	4.9e-05
2506	3.8e-05
2518	4.2e-05
2530	3.3e-05
2542	4.1e-05
2554	4.6e-05
2566	5.9e-05
2578	5.6e-05
2590	6.3e-05
2602	7.1e-05
2614	6.7e-05
2626	8.7e-05
2638	9.4e-05
2650	7.9e-05
2662	0.000103
2674	0.000135
2686	9.8e-05
2698	0.000116
2710	0.000141
2722	0.000139
2734	0.000216
2746	0.000208
2758	0.000209
2770	0.000204
2782	0.000253
2794	0.000337
2806	0.000394
2818	0.000482
2830	0.000656
2842	0.000865
2854	0.001359
2866	0.002426
2878	0.003873
2890	0.004241
2902	0.004035
2914	0.004384
2926	0.005288
2938	0.006701
2950	0.007582
2962	0.00967
2974	0.008292
2986	0.003729
2998	0.00161
3010	0.000896
3022	0.000554
3034	0.000418
3046	0.000353
3058	0.000324
3070	0.000287
3082	0.000258
3094	0.000188
3106	0.000213
3118	0.000174
3130	0.000166
3142	0.000192
3154	0.000153
3166	0.000154
3178	0.000172
3190	0.000181
3202	0.000138
3214	0.000113
3226	9.5e-05
3238	7.1e-05
3250	0.000108
3262	3.2e-05
3274	6.9e-05
3286	9.5e-05
3298	3.9e-05
3310	8.9e-05
3322	8e-05
3334	5e-05
3346	6.2e-05
3358	0.000101
3370	7.7e-05
3382	8.2e-05
3394	0.00014
3406	0.000185
3418	0.000172
3430	0.000168
3442	0.00013
3454	8e-05
3466	0.000129
3478	5.9e-05
3490	5.3e-05
3502	7.9e-05
3514	0.000112
3526	3.5e-05
3538	4.5e-05
3550	0
3562	5.4e-05
3574	7.8e-05
3586	1.8e-05
3598	6.3e-05
3610	4.7e-05
3622	6.1e-05
3634	9.6e-05
3646	4.7e-05
3658	9.1e-05
3670	9e-05
3682	4.8e-05
3694	0.000106
3706	0.0001
3718	4.8e-05
3730	4e-05
3742	2.3e-05
3754	0.000113
3766	0.000148
3778	0.000126
3790	8.4e-05
3802	9.7e-05
3814	0.000109
3826	0.00013
3838	0.000115
