Infrared Spectrum: Allylphenoxy acetate
Formula: C 11 H 12 O 3
CAS: 7493-74-5
State: gas
Instrument: HP-GC/MS/IRD
Origin: NIST Mass Spectrometry Data Center
1/CM	ABSORBANCE
550	0.00044
562	0.000116
574	0.000248
586	0.000536
598	0.000448
610	0.00032
622	0.000296
634	5.2e-05
646	0.000196
658	0.000504
670	0.001384
682	0.003608
694	0.003836
706	0.0019
718	0.0012
730	0.00162
742	0.004704
754	0.00716
766	0.003688
778	0.002688
790	0.002264
802	0.001092
814	0.000888
826	0.001224
838	0.00132
850	0.000724
862	0.00064
874	0.00108
886	0.001508
898	0.0016
910	0.002372
922	0.0042
934	0.005652
946	0.003836
958	0.00352
970	0.00538
982	0.008828
994	0.009956
1006	0.008108
1018	0.006596
1030	0.005728
1042	0.006072
1054	0.007804
1066	0.010644
1078	0.012672
1090	0.01124
1102	0.005808
1114	0.003152
1126	0.002924
1138	0.00504
1150	0.012356
1162	0.028224
1174	0.04
1186	0.029332
1198	0.022756
1210	0.023532
1222	0.019516
1234	0.018604
1246	0.015688
1258	0.015812
1270	0.017952
1282	0.017612
1294	0.014036
1306	0.009492
1318	0.00476
1330	0.003084
1342	0.002436
1354	0.002384
1366	0.002664
1378	0.002904
1390	0.00244
1402	0.00176
1414	0.001728
1426	0.002124
1438	0.003008
1450	0.004244
1462	0.003604
1474	0.004232
1486	0.011552
1498	0.017972
1510	0.00448
1522	0.001404
1534	0.000832
1546	0.000872
1558	0.001324
1570	0.002532
1582	0.005852
1594	0.012044
1606	0.0081
1618	0.00206
1630	0.001028
1642	0.000972
1654	0.000832
1666	0.000536
1678	0.000532
1690	0.000784
1702	0.001184
1714	0.00192
1726	0.003252
1738	0.007128
1750	0.01788
1762	0.019512
1774	0.01578
1786	0.014364
1798	0.006904
1810	0.00298
1822	0.001696
1834	0.001208
1846	0.001
1858	0.000896
1870	0.000716
1882	0.000484
1894	0.000388
1906	0.000424
1918	0.00054
1930	0.0005
1942	0.000456
1954	0.00026
1966	0.000192
1978	0.000172
1990	0.000208
2002	0.000224
2014	0.00018
2026	0.000168
2038	0.000172
2050	0.000204
2062	0.000212
2074	0.000244
2086	0.000232
2098	0.0002
2110	0.000196
2122	0.000188
2134	0.000176
2146	0.000156
2158	0.00012
2170	7.6e-05
2182	6.4e-05
2194	5.6e-05
2206	2e-05
2218	1.6e-05
2230	1.2e-05
2242	5.2e-05
2254	6e-05
2266	5.6e-05
2278	0.000116
2290	0.000156
2302	0.000156
2314	0.00018
2326	0.00014
2338	0.000156
2350	0.000168
2362	0.000112
2374	0.00012
2386	0.00012
2398	0.00012
2410	0.000104
2422	0.00014
2434	0.000132
2446	0.000136
2458	0.00012
2470	0.000132
2482	0.00012
2494	0.000112
2506	0.000136
2518	0.000128
2530	0.000132
2542	0.00018
2554	0.000124
2566	0.000156
2578	0.000116
2590	8.4e-05
2602	0.000124
2614	8e-05
2626	7.6e-05
2638	8e-05
2650	7.6e-05
2662	8.4e-05
2674	8e-05
2686	7.6e-05
2698	0.0001
2710	0.000116
2722	0.00014
2734	0.000136
2746	0.00016
2758	0.000184
2770	0.000204
2782	0.000204
2794	0.000192
2806	0.000244
2818	0.000292
2830	0.000324
2842	0.0004
2854	0.00062
2866	0.000908
2878	0.0011
2890	0.001376
2902	0.00158
2914	0.001884
2926	0.0028
2938	0.003736
2950	0.00422
2962	0.00404
2974	0.002928
2986	0.002192
2998	0.00198
3010	0.001868
3022	0.002288
3034	0.003008
3046	0.003612
3058	0.003216
3070	0.003832
3082	0.00444
3094	0.00374
3106	0.0029
3118	0.001244
3130	0.00046
3142	0.000272
3154	0.00016
3166	0.00016
3178	0.00016
3190	0.00012
3202	0.00014
3214	0.000164
3226	0.000124
3238	7.2e-05
3250	0.000152
3262	0.000112
3274	0.000132
3286	0.00014
3298	4.4e-05
3310	0.000112
3322	0.000164
3334	0.000128
3346	0.000124
3358	8.4e-05
3370	0.00012
3382	9.2e-05
3394	9.2e-05
3406	0.000132
3418	0.000116
3430	0.00014
3442	0.000136
3454	0.000192
3466	0.000228
3478	0.00024
3490	0.00032
3502	0.000384
3514	0.000268
3526	0.000288
3538	0.000292
3550	0.000276
3562	0.000256
3574	0.00022
3586	0.000136
3598	0.000132
3610	0.00016
3622	0.000156
3634	0.000176
3646	0.000168
3658	0.000176
3670	0.000172
3682	0.000168
3694	0.000172
3706	0.00016
3718	0.000184
3730	0.00016
3742	0.00014
3754	0.000172
3766	0.000212
3778	0.000192
3790	0.000196
3802	0.000216
3814	0.000136
3826	0.000152
3838	0.000168
