Infrared Spectrum: Allyl pelargonate
Formula: C 12 H 22 O 2
CAS: 7493-72-3
State: gas
Instrument: HP-GC/MS/IRD
Origin: NIST Mass Spectrometry Data Center
1/CM	ABSORBANCE
550	0.0002848
562	5.44e-05
574	0.0001408
586	0.0001824
598	0.0002848
610	0.0003712
622	0.0002336
634	0.00024
646	0.000192
658	0.00016
670	0.0001248
682	0.0001696
694	0.0001696
706	0.0003424
718	0.0005504
730	0.0005216
742	0.0005056
754	0.0004608
766	0.000448
778	0.0004224
790	0.0003296
802	0.000272
814	0.0003808
826	0.0004448
838	0.0005536
850	0.0007296
862	0.0009152
874	0.001008
886	0.0012448
898	0.0015648
910	0.0025536
922	0.0044
934	0.0051168
946	0.0032544
958	0.0028384
970	0.0039104
982	0.0063712
994	0.0081472
1006	0.0066848
1018	0.0053728
1030	0.00456
1042	0.0039904
1054	0.0034944
1066	0.0032416
1078	0.0034688
1090	0.004736
1102	0.0070336
1114	0.008384
1126	0.0082144
1138	0.0114016
1150	0.0188672
1162	0.0209824
1174	0.0166496
1186	0.013584
1198	0.012144
1210	0.0115712
1222	0.0114208
1234	0.0113952
1246	0.0103456
1258	0.0080032
1270	0.0067296
1282	0.0060544
1294	0.0051872
1306	0.0045984
1318	0.0040896
1330	0.0039232
1342	0.004352
1354	0.0042816
1366	0.0048032
1378	0.0044352
1390	0.0028576
1402	0.0019904
1414	0.0021856
1426	0.002912
1438	0.0034464
1450	0.0044512
1462	0.004784
1474	0.00296
1486	0.0014368
1498	0.0008384
1510	0.0006016
1522	0.0004352
1534	0.000368
1546	0.0003328
1558	0.0002784
1570	0.0002688
1582	0.000272
1594	0.0002784
1606	0.0003104
1618	0.0004
1630	0.0005728
1642	0.0008992
1654	0.0008768
1666	0.0006752
1678	0.000688
1690	0.000944
1702	0.0015328
1714	0.0026624
1726	0.005056
1738	0.0114944
1750	0.0238432
1762	0.022032
1774	0.0091904
1786	0.0037024
1798	0.0018528
1810	0.0010912
1822	0.0007264
1834	0.0005568
1846	0.0005248
1858	0.000544
1870	0.00048
1882	0.0003328
1894	0.00024
1906	0.000208
1918	0.000192
1930	0.0001888
1942	0.0002048
1954	0.000192
1966	0.0001856
1978	0.0001952
1990	0.000192
2002	0.0001824
2014	0.0001824
2026	0.0002016
2038	0.0001728
2050	0.0001632
2062	0.000144
2074	0.0001312
2086	8.96e-05
2098	0.0001088
2110	9.92e-05
2122	0.0001056
2134	7.36e-05
2146	6.72e-05
2158	4.48e-05
2170	3.52e-05
2182	2.88e-05
2194	4.48e-05
2206	3.52e-05
2218	6.72e-05
2230	3.84e-05
2242	3.2e-05
2254	6.08e-05
2266	2.88e-05
2278	3.2e-05
2290	4.16e-05
2302	8.32e-05
2314	6.08e-05
2326	7.04e-05
2338	7.36e-05
2350	4.8e-05
2362	3.2e-05
2374	6.4e-05
2386	7.36e-05
2398	3.84e-05
2410	3.52e-05
2422	5.44e-05
2434	5.76e-05
2446	6.72e-05
2458	4.48e-05
2470	3.84e-05
2482	4.16e-05
2494	4.8e-05
2506	8e-05
2518	3.52e-05
2530	8e-05
2542	7.68e-05
2554	9.6e-05
2566	0.0001216
2578	0.0001184
2590	0.0001184
2602	0.0001696
2614	0.0001824
2626	0.0001952
2638	0.0002112
2650	0.0002048
2662	0.0002688
2674	0.0002944
2686	0.0003456
2698	0.0003328
2710	0.0003072
2722	0.0004
2734	0.0004032
2746	0.0004768
2758	0.0004736
2770	0.0005056
2782	0.000624
2794	0.0008576
2806	0.0011168
2818	0.0015104
2830	0.002128
2842	0.0034592
2854	0.0074784
2866	0.0120768
2878	0.0108288
2890	0.0092352
2902	0.0100544
2914	0.0156128
2926	0.0267136
2938	0.031792
2950	0.0240384
2962	0.0188736
2974	0.0142272
2986	0.0071776
2998	0.0043904
3010	0.002928
3022	0.0024256
3034	0.0017952
3046	0.0012352
3058	0.0010688
3070	0.0011328
3082	0.0014304
3094	0.0018624
3106	0.0014784
3118	0.0007136
3130	0.0004544
3142	0.0003424
3154	0.0002752
3166	0.000272
3178	0.0002176
3190	0.0001632
3202	0.0001792
3214	0.0001472
3226	0.0001344
3238	0.0001216
3250	7.04e-05
3262	8e-05
3274	0.0001184
3286	8.64e-05
3298	0.0001248
3310	5.76e-05
3322	9.28e-05
3334	8.96e-05
3346	6.08e-05
3358	4.16e-05
3370	3.84e-05
3382	6.72e-05
3394	7.68e-05
3406	6.72e-05
3418	8.64e-05
3430	0.0001056
3442	0.0002112
3454	0.0001312
3466	0.0001248
3478	0.0002656
3490	0.000384
3502	0.000272
3514	0.0001952
3526	0.0002112
3538	0.0001536
3550	8.96e-05
3562	0.0001248
3574	0.0001056
3586	0.000144
3598	7.36e-05
3610	9.28e-05
3622	5.12e-05
3634	0.0001248
3646	0.0001024
3658	0.000112
3670	0.0001568
3682	0.0001472
3694	0.0001184
3706	9.92e-05
3718	0.0001056
3730	0.0001056
3742	0.0001408
3754	6.72e-05
3766	0.0001344
3778	0.0001728
3790	0.0001568
3802	0.000176
3814	0.000128
3826	0.0001728
3838	0.0002016
