Infrared Spectrum: Allyl undecylenate
Formula: C 14 H 24 O 2
CAS: 7493-76-7
State: gas
Instrument: HP-GC/MS/IRD
Origin: NIST Mass Spectrometry Data Center
1/CM	ABSORBANCE
550	0.0003478
562	6.66e-05
574	1.11e-05
586	0.0002368
598	0.0004144
610	0.0005772
622	0.0007511
634	0.0008103
646	0.0005439
658	0.0003552
670	0.0002553
682	0.0002405
694	0.0002405
706	0.00037
718	0.0005994
730	0.0006253
742	0.0004625
754	0.0003774
766	0.0003737
778	0.0003552
790	0.0003367
802	0.0003959
814	0.000481
826	0.0006475
838	0.0007363
850	0.0010101
862	0.0013024
874	0.001665
886	0.0021719
898	0.0034484
910	0.0068524
922	0.0076701
934	0.0068154
946	0.0043068
958	0.0037629
970	0.0050061
982	0.007918
994	0.0102712
1006	0.0084249
1018	0.0065564
1030	0.0049543
1042	0.003996
1054	0.0037925
1066	0.0038961
1078	0.0044215
1090	0.0052614
1102	0.0062641
1114	0.0074851
1126	0.009324
1138	0.0136604
1150	0.0189329
1162	0.0203611
1174	0.0183927
1186	0.0148222
1198	0.0122285
1210	0.0115292
1222	0.0119695
1234	0.0122211
1246	0.0105487
1258	0.008251
1270	0.0072002
1282	0.0062974
1294	0.0054427
1306	0.0049062
1318	0.0043623
1330	0.0041329
1342	0.0046287
1354	0.0046213
1366	0.0050172
1378	0.0042994
1390	0.0026048
1402	0.0020091
1414	0.0024753
1426	0.0033004
1438	0.0040478
1450	0.0050912
1462	0.0049617
1474	0.0025678
1486	0.0011248
1498	0.0006623
1510	0.0004514
1522	0.0003811
1534	0.0003663
1546	0.0003034
1558	0.0002849
1570	0.000259
1582	0.0002997
1594	0.0003404
1606	0.0005069
1618	0.0008732
1630	0.0016946
1642	0.0027898
1654	0.0016354
1666	0.0008695
1678	0.0007696
1690	0.0010027
1702	0.0017353
1714	0.0028453
1726	0.0052799
1738	0.0120287
1750	0.0249121
1762	0.0228401
1774	0.0094979
1786	0.003848
1798	0.0019573
1810	0.0012321
1822	0.0010582
1834	0.0009361
1846	0.0006697
1858	0.0005883
1870	0.0004588
1882	0.0002849
1894	0.0002442
1906	0.0001813
1918	0.0001739
1930	0.0001406
1942	0.0001665
1954	0.0001739
1966	0.0002109
1978	0.0002405
1990	0.0001813
2002	0.000185
2014	0.0001591
2026	0.0001739
2038	0.000148
2050	0.0001554
2062	0.0001332
2074	0.0001295
2086	0.0001036
2098	8.14e-05
2110	8.14e-05
2122	7.77e-05
2134	2.96e-05
2146	5.92e-05
2158	4.44e-05
2170	3.33e-05
2182	0
2194	2.96e-05
2206	2.22e-05
2218	2.96e-05
2230	2.96e-05
2242	3.33e-05
2254	5.18e-05
2266	2.96e-05
2278	1.48e-05
2290	2.22e-05
2302	1.85e-05
2314	2.59e-05
2326	0
2338	3.7e-05
2350	2.59e-05
2362	2.96e-05
2374	0
2386	3.7e-06
2398	1.85e-05
2410	1.11e-05
2422	2.22e-05
2434	3.7e-05
2446	0
2458	3.33e-05
2470	3.7e-05
2482	2.59e-05
2494	2.96e-05
2506	5.18e-05
2518	4.07e-05
2530	6.29e-05
2542	9.62e-05
2554	7.77e-05
2566	7.77e-05
2578	8.88e-05
2590	0.0001184
2602	0.0001443
2614	0.0001406
2626	0.0001517
2638	0.0002109
2650	0.0002368
2662	0.0002664
2674	0.0003256
2686	0.0003626
2698	0.0003515
2710	0.0003367
2722	0.0003441
2734	0.0003589
2746	0.0004255
2758	0.0004477
2770	0.000518
2782	0.0006401
2794	0.0008399
2806	0.0011359
2818	0.0015614
2830	0.0023125
2842	0.0038628
2854	0.0085507
2866	0.01332
2878	0.0094498
2890	0.0076072
2902	0.0098642
2914	0.0165464
2926	0.0292263
2938	0.0363932
2950	0.0232286
2962	0.0126873
2974	0.0081178
2986	0.006216
2998	0.0048951
3010	0.0039294
3022	0.0028009
3034	0.0020905
3046	0.0016317
3058	0.0017612
3070	0.0024309
3082	0.0040404
3094	0.0036223
3106	0.0019536
3118	0.0009583
3130	0.0004995
3142	0.0003885
3154	0.0003478
3166	0.0002516
3178	0.0001924
3190	0.0001517
3202	0.000111
3214	0.000148
3226	6.29e-05
3238	1.85e-05
3250	6.29e-05
3262	8.14e-05
3274	0.0001073
3286	7.77e-05
3298	3.33e-05
3310	4.44e-05
3322	3.7e-05
3334	4.44e-05
3346	4.07e-05
3358	5.55e-05
3370	6.29e-05
3382	7.4e-05
3394	8.14e-05
3406	4.44e-05
3418	7.4e-06
3430	7.4e-05
3442	9.62e-05
3454	0.0001258
3466	0.0001665
3478	0.0002553
3490	0.0003589
3502	0.0002701
3514	0.0002442
3526	0.0001221
3538	4.44e-05
3550	6.66e-05
3562	0
3574	4.44e-05
3586	3.33e-05
3598	4.07e-05
3610	1.11e-05
3622	4.07e-05
3634	9.62e-05
3646	6.66e-05
3658	0.000111
3670	0.000111
3682	0.0001073
3694	0.0001369
3706	9.99e-05
3718	0.000111
3730	0.0001073
3742	5.92e-05
3754	0.0001258
3766	7.77e-05
3778	0.0001036
3790	6.66e-05
3802	0.0001073
3814	0.0001258
3826	0.000148
3838	0.0001369
