Infrared Spectrum: Allyl 2-ethylbutyrate
Formula: C 9 H 16 O 2
CAS: 7493-69-8
State: gas
Instrument: HP-GC/MS/IRD
Origin: NIST Mass Spectrometry Data Center
1/CM	ABSORBANCE
550	0.0003078
562	0.0002964
574	0.0002014
586	5.32e-05
598	0.0001026
610	0.0001444
622	0.000266
634	0.0002508
646	0.0003762
658	0.0002584
670	0.000171
682	0.0001558
694	4.56e-05
706	6.46e-05
718	0.0001254
730	0.0003078
742	0.00076
754	0.0008702
766	0.0006612
778	0.0007866
790	0.0013718
802	0.0017708
814	0.0012046
826	0.000703
838	0.0007638
850	0.0007904
862	0.0009348
874	0.0010906
886	0.0014174
898	0.0020482
910	0.0035036
922	0.0062434
934	0.0071402
946	0.0044042
958	0.0037354
970	0.0058786
982	0.0122474
994	0.0133076
1006	0.0066044
1018	0.0043852
1030	0.0040204
1042	0.0037734
1054	0.0037202
1066	0.0057494
1078	0.0095342
1090	0.0095608
1102	0.0091922
1114	0.0122246
1126	0.018981
1138	0.028633
1150	0.025422
1162	0.0256614
1174	0.0298984
1186	0.0178182
1198	0.0109782
1210	0.013053
1222	0.0162374
1234	0.0113126
1246	0.0076342
1258	0.0092074
1270	0.0102638
1282	0.006764
1294	0.0043966
1306	0.0037848
1318	0.0033098
1330	0.0031844
1342	0.0033706
1354	0.003819
1366	0.0045258
1378	0.005776
1390	0.0054568
1402	0.0033364
1414	0.002584
1426	0.0027398
1438	0.003249
1450	0.005206
1462	0.0065208
1474	0.0043738
1486	0.001976
1498	0.001102
1510	0.0007372
1522	0.0006574
1534	0.0006042
1546	0.000551
1558	0.0005054
1570	0.0004446
1582	0.0004522
1594	0.0004788
1606	0.0005206
1618	0.000608
1630	0.000874
1642	0.0013832
1654	0.0014174
1666	0.0010146
1678	0.0010564
1690	0.001444
1702	0.0025004
1714	0.0041762
1726	0.0083714
1738	0.0232636
1750	0.038
1762	0.0194674
1774	0.0060458
1786	0.0030324
1798	0.0017328
1810	0.0010754
1822	0.0007524
1834	0.0006574
1846	0.000665
1858	0.000722
1870	0.0006308
1882	0.0004408
1894	0.0003382
1906	0.0003002
1918	0.000266
1930	0.000247
1942	0.0002432
1954	0.000247
1966	0.0002736
1978	0.0002584
1990	0.0001938
2002	0.0001406
2014	0.0001558
2026	0.0001786
2038	0.000171
2050	0.0001938
2062	0.0001824
2074	0.0001748
2086	0.0001444
2098	0.000114
2110	0.000133
2122	7.98e-05
2134	4.94e-05
2146	7.22e-05
2158	5.32e-05
2170	2.28e-05
2182	2.66e-05
2194	3.42e-05
2206	0
2218	0
2230	1.9e-05
2242	2.28e-05
2254	8.36e-05
2266	7.98e-05
2278	8.74e-05
2290	9.12e-05
2302	7.6e-05
2314	9.88e-05
2326	9.88e-05
2338	0.0001254
2350	4.18e-05
2362	8.74e-05
2374	7.98e-05
2386	7.22e-05
2398	6.84e-05
2410	8.36e-05
2422	6.08e-05
2434	4.18e-05
2446	5.7e-05
2458	4.18e-05
2470	4.18e-05
2482	6.46e-05
2494	4.56e-05
2506	2.28e-05
2518	2.28e-05
2530	0
2542	3.42e-05
2554	1.9e-05
2566	1.9e-05
2578	7.98e-05
2590	6.08e-05
2602	9.12e-05
2614	4.18e-05
2626	9.12e-05
2638	6.46e-05
2650	7.98e-05
2662	7.22e-05
2674	0.0001026
2686	0.0001254
2698	0.0001482
2710	0.000171
2722	0.0001938
2734	0.0002774
2746	0.0003952
2758	0.000437
2770	0.000418
2782	0.000456
2794	0.0005776
2806	0.0006764
2818	0.0008284
2830	0.0010298
2842	0.0014098
2854	0.0021546
2866	0.004313
2878	0.0081852
2890	0.0098344
2902	0.0078166
2914	0.007999
2926	0.0111644
2938	0.0177878
2950	0.0200032
2962	0.0204668
2974	0.0255854
2986	0.0155534
2998	0.0066766
3010	0.0038684
3022	0.0030476
3034	0.0023712
3046	0.0017708
3058	0.001596
3070	0.0017708
3082	0.0022306
3094	0.002793
3106	0.0021204
3118	0.0010868
3130	0.0007258
3142	0.0005624
3154	0.0004598
3166	0.0003914
3178	0.0002774
3190	0.0002394
3202	0.0001862
3214	0.0001406
3226	0.000114
3238	7.6e-05
3250	7.98e-05
3262	4.56e-05
3274	4.56e-05
3286	5.7e-05
3298	1.52e-05
3310	6.08e-05
3322	4.56e-05
3334	0
3346	2.66e-05
3358	6.46e-05
3370	0.0001178
3382	7.22e-05
3394	4.18e-05
3406	0.0001026
3418	0.0001482
3430	7.6e-05
3442	0.0001824
3454	0.0002622
3466	0.0003876
3478	0.0004674
3490	0.0004256
3502	0.000266
3514	0.000209
3526	0.0001634
3538	0.0001406
3550	0.0001368
3562	0.0001178
3574	0.0001292
3586	0.0001216
3598	9.88e-05
3610	0.0001178
3622	0.0001634
3634	0.000114
3646	0.0001368
3658	0.0001064
3670	9.88e-05
3682	9.12e-05
3694	0.0001444
3706	9.12e-05
3718	9.12e-05
3730	4.94e-05
3742	5.32e-05
3754	7.98e-05
3766	8.36e-05
3778	4.56e-05
3790	0.000114
3802	0.0001216
3814	0.0001634
3826	0.0001406
3838	0.0001102
