Infrared Spectrum: [1,1'-Binaphthalene]-3,3',4,4'-tetrol, tetra-acetate
Formula: C28 H22 O8
CAS: 7494-67-9
State: SOLID (NUJOL MULL)
Class: COBLENTZ III
Instrument: PERKIN-ELMER 421 (GRATING)
Instrument parameters: GRATING CHANGE AT 1999 CM^-^1
Resolution: 2
Origin: ABBOTT LABORATORIES
1/CM	TRANSMITTANCE
628	0.5898
637	0.6101
646	0.5652
655	0.6028
664	0.5719
673	0.5722
682	0.6817
691	0.6221
700	0.6501
709	0.6282
718	0.6505
727	0.6035
736	0.3942
745	0.4621
754	0.4736
763	0.3894
772	0.5155
781	0.7646
790	0.7663
799	0.7352
808	0.7745
817	0.76
826	0.7063
835	0.5175
844	0.4744
853	0.6436
862	0.6153
871	0.4406
880	0.482
889	0.4943
898	0.5158
907	0.699
916	0.7284
925	0.7295
934	0.7266
943	0.7203
952	0.6946
961	0.5714
970	0.4243
979	0.6225
988	0.6025
997	0.3885
1006	0.2624
1015	0.4762
1024	0.3608
1033	0.4782
1042	0.5675
1051	0.6052
1060	0.5914
1069	0.545
1078	0.2275
1087	0.3844
1096	0.5246
1105	0.5957
1114	0.5856
1123	0.5487
1132	0.3653
1141	0.1668
1150	0.1854
1159	0.3196
1168	0.2042
1177	0.1601
1186	0.1482
1195	0.1574
1204	0.1792
1213	0.2629
1222	0.3578
1231	0.4998
1240	0.5023
1249	0.5818
1258	0.6222
1267	0.6469
1276	0.649
1285	0.6407
1294	0.6388
1303	0.6418
1312	0.6163
1321	0.5537
1330	0.5659
1339	0.4748
1348	0.3324
1357	0.1935
1366	0.1758
1375	0.3973
1384	0.5634
1393	0.5997
1402	0.5692
1411	0.5014
1420	0.4485
1429	0.3908
1438	0.3269
1447	0.2383
1456	0.2599
1465	0.5291
1474	0.6511
1483	0.6887
1492	0.6589
1501	0.6626
1510	0.7288
1519	0.7385
1528	0.7474
1537	0.7552
1546	0.7475
1555	0.7324
1564	0.6977
1573	0.6921
1582	0.6361
1591	0.4047
1600	0.6155
1609	0.665
1618	0.6531
1627	0.7143
1636	0.736
1645	0.7417
1654	0.7404
1663	0.733
1672	0.722
1681	0.7189
1690	0.7085
1699	0.6887
1708	0.657
1717	0.6075
1726	0.5851
1735	0.5646
1744	0.4347
1753	0.3026
1762	0.1675
1771	0.1585
1780	0.2154
1789	0.4258
1798	0.5961
1807	0.676
1816	0.7166
1825	0.7449
1834	0.7613
1843	0.765
1852	0.7683
1861	0.7793
1870	0.7924
1879	0.7978
1888	0.7946
1897	0.796
1906	0.7945
1915	0.8007
1924	0.8
1933	0.7955
1942	0.7943
1951	0.7927
1960	0.7924
1969	0.7984
1978	0.7979
1987	0.8032
1996	0.8105
2005	0.8088
2014	0.8035
2023	0.7974
2032	0.7931
2041	0.7903
2050	0.7909
2059	0.7967
2068	0.8039
2077	0.8098
2086	0.8138
2095	0.8158
2104	0.8174
2113	0.8183
2122	0.819
2131	0.8179
2140	0.8168
2149	0.8147
2158	0.8121
2167	0.8097
2176	0.8077
2185	0.8058
2194	0.8066
2203	0.8075
2212	0.8074
2221	0.8074
2230	0.8068
2239	0.806
2248	0.8064
2257	0.8089
2266	0.8081
2275	0.8039
2284	0.801
2293	0.7988
2302	0.7955
2311	0.793
2320	0.7932
2329	0.7937
2338	0.794
2347	0.7928
2356	0.791
2365	0.7883
2374	0.7861
2383	0.7852
2392	0.7851
2401	0.7867
2410	0.7898
2419	0.7924
2428	0.7942
2437	0.7953
2446	0.7962
2455	0.797
2464	0.7973
2473	0.7972
2482	0.7962
2491	0.7948
2500	0.7912
2509	0.7875
2518	0.7832
2527	0.7786
2536	0.7739
2545	0.7695
2554	0.7652
2563	0.7608
2572	0.7566
2581	0.7523
2590	0.7481
2599	0.7438
2608	0.7396
2617	0.7354
2626	0.7311
2635	0.7274
2644	0.7236
2653	0.721
2662	0.7196
2671	0.719
2680	0.7195
2689	0.7201
2698	0.7203
2707	0.7042
2716	0.6984
2725	0.7047
2734	0.7178
2743	0.719
2752	0.7128
2761	0.7053
2770	0.6912
2779	0.6672
2788	0.6369
2797	0.6012
2806	0.5591
2815	0.499
2824	0.3985
2833	0.2362
2842	0.1198
2851	0.119
2860	0.1298
2869	0.1559
2878	0.1465
2887	0.1196
2896	0.1003
2905	0.0883
2914	0.0855
2923	0.0901
2932	0.1007
2941	0.1021
2950	0.1049
2959	0.1516
2968	0.2584
2977	0.3591
2986	0.4278
2995	0.5096
3004	0.5602
3013	0.5886
3022	0.6025
3031	0.6227
3040	0.6264
3049	0.6122
3058	0.5916
3067	0.5978
3076	0.6653
3085	0.6915
3094	0.7002
3103	0.7074
3112	0.7132
3121	0.7202
3130	0.7238
3139	0.7191
3148	0.7199
3157	0.7221
3166	0.7255
3175	0.7292
3184	0.7336
3193	0.7377
3202	0.7405
3211	0.7429
3220	0.7452
3229	0.7471
3238	0.7488
3247	0.7503
3256	0.7507
3265	0.7511
3274	0.7511
3283	0.7511
3292	0.751
3301	0.7509
3310	0.7507
3319	0.7506
3328	0.7506
3337	0.7508
3346	0.751
3355	0.7512
3364	0.7514
3373	0.7518
3382	0.7521
3391	0.7525
3400	0.7528
3409	0.7532
3418	0.7535
3427	0.7538
3436	0.7532
3445	0.7526
3454	0.752
3463	0.7505
3472	0.7487
3481	0.7453
3490	0.7411
3499	0.7355
3508	0.7304
3517	0.7244
3526	0.7226
3535	0.7325
3544	0.747
3553	0.7547
3562	0.7582
3571	0.7588
3580	0.7589
3589	0.7589
3598	0.7588
3607	0.7586
3616	0.7584
3625	0.7583
3634	0.7581
3643	0.758
3652	0.7578
3661	0.7574
3670	0.757
3679	0.7566
3688	0.7562
3697	0.756
3706	0.7558
3715	0.7556
3724	0.7554
3733	0.7551
3742	0.7534
3751	0.7517
3760	0.75
3769	0.7483
3778	0.746
3787	0.7438
3796	0.7415
3805	0.74
3814	0.7386
3823	0.7373
3832	0.7359
3841	0.7349
3850	0.734
3859	0.7332
3868	0.7323
3877	0.7314
3886	0.7306
3895	0.7307
3904	0.7308
3913	0.7309
3922	0.7309
3931	0.731
3940	0.7306
3949	0.7299
3958	0.7292
3967	0.7286
3976	0.7284
3985	0.7283
3994	0.7289
