Infrared Spectrum: trans-2-Tridecen-1-ol
Formula: C 13 H 26 O
CAS: 74962-98-4
State: gas
Instrument: HP-GC/MS/IRD
Origin: NIST Mass Spectrometry Data Center
1/CM	ABSORBANCE
550	0.0004693
562	0.0001729
574	4.94e-05
586	0.0001482
598	4.94e-05
610	0.0002223
622	0.0002964
634	0.0003705
646	0.0003211
658	0.0003211
670	0.0004199
682	0.000494
694	0.000988
706	0.0020748
718	0.0031863
730	0.0030381
742	0.0023218
754	0.0018031
766	0.0015067
778	0.0014573
790	0.0013338
802	0.0011362
814	0.0011115
826	0.0012103
838	0.0013585
850	0.0015314
862	0.0018525
874	0.0023465
886	0.0028899
898	0.0036062
910	0.0044954
922	0.0058786
934	0.0082251
946	0.0124241
958	0.0211432
970	0.0303563
982	0.0273429
994	0.0294918
1006	0.0304057
1018	0.0238355
1030	0.0172653
1042	0.0139308
1054	0.0123994
1066	0.01235
1078	0.0135109
1090	0.0130169
1102	0.0090649
1114	0.0062985
1126	0.0049894
1138	0.0042237
1150	0.0040508
1162	0.0042731
1174	0.004693
1186	0.0051623
1198	0.0054093
1210	0.0055575
1222	0.0055328
1234	0.0053599
1246	0.0052364
1258	0.0054587
1270	0.0057057
1282	0.0062985
1294	0.0072124
1306	0.0081016
1318	0.0081016
1330	0.0085462
1342	0.010868
1354	0.0134615
1366	0.0153387
1378	0.0178334
1390	0.0157586
1402	0.0102011
1414	0.0072371
1426	0.0066443
1438	0.0099294
1450	0.015314
1462	0.0182533
1474	0.0119548
1486	0.0052117
1498	0.0027417
1510	0.0017784
1522	0.0012103
1534	0.0008892
1546	0.0006669
1558	0.000494
1570	0.0003952
1582	0.0003458
1594	0.0002964
1606	0.0002964
1618	0.0002717
1630	0.0004446
1642	0.0007657
1654	0.0016302
1666	0.0029887
1678	0.0014079
1690	0.0005434
1702	0.0004199
1714	0.0005187
1726	0.0004446
1738	0.0004199
1750	0.0003705
1762	0.0003705
1774	0.0002717
1786	0.0002223
1798	0.0001482
1810	7.41e-05
1822	7.41e-05
1834	0
1846	2.47e-05
1858	0
1870	0
1882	0
1894	0
1906	4.94e-05
1918	2.47e-05
1930	4.94e-05
1942	7.41e-05
1954	0.0001235
1966	0.0001482
1978	0.0001729
1990	0.0001976
2002	0.000247
2014	0.0003211
2026	0.0003211
2038	0.0002964
2050	0.000247
2062	0.0001976
2074	0.0001482
2086	0.0001235
2098	4.94e-05
2110	4.94e-05
2122	0
2134	0
2146	2.47e-05
2158	7.41e-05
2170	2.47e-05
2182	0
2194	0
2206	0
2218	2.47e-05
2230	0
2242	4.94e-05
2254	4.94e-05
2266	4.94e-05
2278	7.41e-05
2290	7.41e-05
2302	0.0001235
2314	0.0001482
2326	0.0001482
2338	0.0001729
2350	0.0001729
2362	0.0001976
2374	0.0001976
2386	0.000247
2398	0.000247
2410	0.0002223
2422	0.0002223
2434	0.0001729
2446	0.0001729
2458	0.0001729
2470	0.0001976
2482	0.0002223
2494	0.000247
2506	0.0002717
2518	0.0003952
2530	0.0005434
2542	0.0005681
2554	0.0006422
2566	0.0006916
2578	0.0007657
2590	0.0008892
2602	0.0010127
2614	0.0011856
2626	0.0013585
2638	0.0015808
2650	0.0018278
2662	0.0020995
2674	0.0024206
2686	0.0025688
2698	0.0024947
2710	0.00247
2722	0.0026676
2734	0.0030875
2746	0.0035321
2758	0.0038779
2770	0.0043966
2782	0.0053105
2794	0.0067184
2806	0.0087191
2818	0.0118313
2830	0.01729
2842	0.0299117
2854	0.0665665
2866	0.097812
2878	0.0759525
2890	0.0631579
2902	0.0738036
2914	0.115053
2926	0.208246
2938	0.229389
2950	0.123994
2962	0.0828191
2974	0.0608608
2986	0.0312702
2998	0.0207974
3010	0.0165243
3022	0.0140296
3034	0.0106704
3046	0.0072618
3058	0.0048412
3070	0.0035074
3082	0.0027417
3094	0.0022477
3106	0.0018772
3118	0.0015808
3130	0.0013585
3142	0.0011609
3154	0.0010621
3166	0.0009139
3178	0.0008151
3190	0.0007657
3202	0.0005928
3214	0.0004693
3226	0.0003211
3238	0.000247
3250	0.0001729
3262	0.0001235
3274	4.94e-05
3286	4.94e-05
3298	2.47e-05
3310	0
3322	7.41e-05
3334	9.88e-05
3346	7.41e-05
3358	0.0001976
3370	0.0001482
3382	0.0002223
3394	0.0001729
3406	0.0002717
3418	0.0001976
3430	0.0001976
3442	0.0001976
3454	0.0002223
3466	0.0001976
3478	0.0001482
3490	0.0001482
3502	4.94e-05
3514	0.0001235
3526	0.0001235
3538	0.0002223
3550	0.0001729
3562	0.0002223
3574	0.000247
3586	0.0004199
3598	0.0005681
3610	0.0010868
3622	0.0016549
3634	0.0027664
3646	0.0047671
3658	0.0060515
3670	0.0053846
3682	0.0031863
3694	0.001729
3706	0.0010621
3718	0.0007657
3730	0.0005928
3742	0.0004693
3754	0.0003705
3766	0.0003952
3778	0.0003705
3790	0.0004199
3802	0.0004199
3814	0.0004199
3826	0.000494
3838	0.000494
