Infrared Spectrum: Purine, 1-ethyl-
Formula: C7 H8 N4
CAS: 7496-45-9
State: SOLID (0.8 mg / 650 mg KBr DISC)
Class: COBLENTZ III
Instrument: PERKIN-ELMER 221 (GRATING)
Instrument parameters: FILTER AT 2490, 980 CM^-^1. GRATING 4000-1428 CM^-^1, NaCl PRISM 1428-650 CM^-^1
Sampling: TRANSMISSION
Resolution: 2
Origin: SOUTHERN RESEARCH INSTITUTE
1/CM	TRANSMITTANCE
568	0.8626
577.025	0.4519
586.05	0.8335
595.075	0.8573
604.1	0.8488
613.125	0.8274
622.15	0.7998
631.175	0.56
640.2	0.2768
649.225	0.6864
658.251	0.8803
667.276	0.8791
676.301	0.8737
685.326	0.8673
694.351	0.8594
703.376	0.8478
712.401	0.8299
721.426	0.7751
730.451	0.724
739.476	0.8224
748.501	0.8194
757.526	0.8148
766.551	0.8061
775.576	0.7935
784.601	0.761
793.626	0.4985
802.651	0.6551
811.676	0.7665
820.702	0.8003
829.727	0.763
838.752	0.8036
847.777	0.8096
856.802	0.8055
865.827	0.7959
874.852	0.7837
883.877	0.7716
892.902	0.7645
901.927	0.755
910.952	0.7371
919.977	0.7079
929.002	0.6556
938.027	0.7073
947.052	0.6233
956.077	0.5174
965.102	0.3563
974.127	0.7448
983.152	0.7425
992.178	0.7348
1001.2	0.7246
1010.23	0.7049
1019.25	0.6069
1028.28	0.6807
1037.3	0.6749
1046.33	0.6547
1055.35	0.65
1064.38	0.6416
1073.4	0.6176
1082.43	0.5708
1091.45	0.5105
1100.48	0.5682
1109.5	0.3895
1118.53	0.4373
1127.55	0.1235
1136.58	0.2403
1145.6	0.5066
1154.63	0.2814
1163.65	0.0918
1172.68	0.4333
1181.7	0.6971
1190.73	0.7176
1199.75	0.7108
1208.78	0.6881
1217.8	0.6498
1226.83	0.4896
1235.85	0.6167
1244.88	0.6287
1253.9	0.6034
1262.93	0.5347
1271.95	0.3403
1280.98	0.5053
1290	0.4033
1299.03	0.2418
1308.05	0.0437
1317.08	0.3476
1326.1	0.6207
1335.13	0.5995
1344.15	0.2929
1353.18	0.2457
1362.2	0.2719
1371.23	0.4345
1380.25	0.4138
1389.28	0.3697
1398.3	0.3907
1407.33	0.6971
1416.36	0.6893
1425.38	0.6194
1434.41	0.3428
1443.43	0.301
1452.46	0.1472
1461.48	0.2747
1470.51	0.5558
1479.53	0.7038
1488.56	0.771
1497.58	0.7465
1506.61	0.4769
1515.63	0.5192
1524.66	0.4761
1533.68	0.49
1542.71	0.7348
1551.73	0.7361
1560.76	0.7329
1569.78	0.7312
1578.81	0.7278
1587.83	0.717
1596.86	0.6619
1605.88	0.5754
1614.91	0.4755
1623.93	0.2578
1632.96	0.0697
1641.98	0.2741
1651.01	0.5712
1660.03	0.6899
1669.06	0.7162
1678.08	0.794
1687.11	0.7938
1696.13	0.7932
1705.16	0.7928
1714.18	0.7922
1723.21	0.7918
1732.23	0.7915
1741.26	0.7907
1750.28	0.7897
1759.31	0.7883
1768.33	0.7869
1777.36	0.786
1786.38	0.785
1795.41	0.7824
1804.43	0.7791
1813.46	0.7752
1822.48	0.7681
1831.51	0.754
1840.53	0.718
1849.56	0.6315
1858.58	0.732
1867.61	0.7235
1876.63	0.7059
1885.66	0.6782
1894.68	0.6686
1903.71	0.6901
1912.73	0.6911
1921.76	0.7225
1930.78	0.7419
1939.81	0.7424
1948.83	0.7425
1957.86	0.7426
1966.88	0.7428
1975.91	0.742
1984.93	0.7398
1993.96	0.7377
2002.98	0.7357
2012.01	0.7337
2021.03	0.7329
2030.06	0.7314
2039.08	0.7282
2048.11	0.7249
2057.13	0.7215
2066.16	0.7181
2075.18	0.7149
2084.21	0.7118
2093.23	0.7093
2102.26	0.7067
2111.28	0.7036
2120.31	0.7006
2129.33	0.6984
2138.36	0.6963
2147.38	0.6952
2156.41	0.6952
2165.43	0.695
2174.46	0.6949
2183.48	0.6945
2192.51	0.6937
2201.53	0.6923
2210.56	0.6889
2219.58	0.6842
2228.61	0.6777
2237.64	0.6706
2246.66	0.6646
2255.69	0.6585
2264.71	0.6542
2273.74	0.6501
2282.76	0.6471
2291.79	0.6452
2300.81	0.6434
2309.84	0.6428
2318.86	0.6431
2327.89	0.6435
2336.91	0.6438
2345.94	0.6443
2354.96	0.6449
2363.99	0.6455
2373.01	0.6461
2382.04	0.6459
2391.06	0.6456
2400.09	0.6438
2409.11	0.6411
2418.14	0.6383
2427.16	0.6354
2436.19	0.6324
2445.21	0.6294
2454.24	0.6266
2463.26	0.6223
2472.29	0.6162
2481.31	0.5833
2490.34	0.6228
2499.36	0.621
2508.39	0.6171
2517.41	0.6119
2526.44	0.6074
2535.46	0.6074
2544.49	0.6093
2553.51	0.6096
2562.54	0.6063
2571.56	0.6021
2580.59	0.5981
2589.61	0.5944
2598.64	0.5909
2607.66	0.5875
2616.69	0.5842
2625.71	0.5821
2634.74	0.5803
2643.76	0.5783
2652.79	0.576
2661.81	0.5738
2670.84	0.5718
2679.86	0.5699
2688.89	0.5676
2697.91	0.5652
2706.94	0.5613
2715.96	0.5566
2724.99	0.551
2734.01	0.5444
2743.04	0.5366
2752.06	0.5329
2761.09	0.5318
2770.11	0.5318
2779.14	0.5345
2788.16	0.5355
2797.19	0.5272
2806.21	0.5171
2815.24	0.4946
2824.26	0.4762
2833.29	0.4704
2842.31	0.4451
2851.34	0.4348
2860.36	0.4338
2869.39	0.4339
2878.41	0.4333
2887.44	0.4283
2896.46	0.4097
2905.49	0.3763
2914.51	0.3393
2923.54	0.3218
2932.56	0.3035
2941.59	0.3009
2950.61	0.3818
2959.64	0.3569
2968.66	0.2348
2977.69	0.2534
2986.71	0.267
2995.74	0.3694
3004.76	0.3634
3013.79	0.3605
3022.81	0.4708
3031.84	0.4725
3040.86	0.4791
3049.89	0.4865
3058.91	0.4694
3067.94	0.4497
3076.97	0.4747
3085.99	0.5435
3095.02	0.5345
3104.04	0.5365
3113.07	0.5833
3122.09	0.5887
3131.12	0.5849
3140.14	0.5779
3149.17	0.569
3158.19	0.5661
3167.22	0.5647
3176.24	0.5629
3185.27	0.5602
3194.29	0.5569
3203.32	0.5513
3212.34	0.546
3221.37	0.5405
3230.39	0.5346
3239.42	0.5288
3248.44	0.5243
3257.47	0.5205
3266.49	0.5183
3275.52	0.516
3284.54	0.5095
3293.57	0.5028
3302.59	0.4966
3311.62	0.4905
3320.64	0.4836
3329.67	0.4759
3338.69	0.4679
3347.72	0.4597
3356.74	0.4506
3365.77	0.4409
3374.79	0.4319
3383.82	0.4267
3392.84	0.4259
3401.87	0.4266
3410.89	0.429
3419.92	0.4312
3428.94	0.4332
3437.97	0.4357
3446.99	0.4388
3456.02	0.4434
3465.04	0.4482
3474.07	0.4531
3483.09	0.458
3492.12	0.4628
3501.14	0.4677
3510.17	0.4725
3519.19	0.478
3528.22	0.4838
3537.24	0.4896
3546.27	0.4955
3555.29	0.502
3564.32	0.5087
3573.34	0.5147
3582.37	0.5198
3591.39	0.5239
3600.42	0.5265
3609.44	0.5272
3618.47	0.5279
3627.49	0.5285
3636.52	0.5289
3645.54	0.5292
3654.57	0.5296
3663.59	0.5293
3672.62	0.5288
3681.64	0.5284
3690.67	0.528
3699.69	0.5272
3708.72	0.5263
3717.74	0.5254
3726.77	0.5245
3735.79	0.5234
3744.82	0.5223
3753.84	0.5213
3762.87	0.5201
3771.89	0.5188
3780.92	0.5174
3789.94	0.5155
3798.97	0.5136
3807.99	0.5117
