Infrared Spectrum: PROPANOIC ACID, 3-PHENOXY-, METHYL ESTER
Formula: C10 H12 O3
CAS: 7497-89-4
State: SOLUTION (2% IN CCl4 FOR 3800-1330, 2% IN CS2 FOR 1330-400 CM^-^1)
Class: COBLENTZ III
Instrument: DOW KBr FOREPRISM-GRATING
Instrument parameters: BLAZED AT 3.5, 12.0, 20.0 MICRON, CHANGED AT 5.0, 7.5, 14.9 MICRON
Sampling: TRANSMISSION
Path length: 0.011, 0.011 CM
Resolution: 4
Origin: DOW CHEMICAL COMPANY
1/CM	TRANSMITTANCE
385.35	0.412
394.036	0.474
402.721	0.642
411.407	0.863
420.092	0.955
428.778	0.985
437.464	0.995
446.149	1.006
454.835	1.01
463.52	1.009
472.206	1.008
480.892	1.001
489.577	0.991
498.263	0.954
506.948	0.907
515.634	0.971
524.32	0.975
533.005	0.979
541.691	0.983
550.376	0.983
559.062	0.983
567.747	0.983
576.433	0.982
585.119	0.983
593.804	0.975
602.49	0.971
611.175	0.975
619.861	0.982
628.547	0.969
637.232	0.948
645.918	0.923
654.603	0.938
663.289	0.928
671.975	0.931
680.66	0.876
689.346	0.714
698.031	0.905
706.717	0.921
715.403	0.928
724.088	0.925
732.774	0.913
741.459	0.847
750.145	0.443
758.831	0.842
767.516	0.896
776.202	0.894
784.887	0.885
793.573	0.862
802.259	0.89
810.944	0.874
819.63	0.892
828.315	0.882
837.001	0.851
845.686	0.75
854.372	0.742
863.058	0.783
871.743	0.781
880.429	0.812
889.114	0.865
897.8	0.884
906.486	0.885
915.171	0.911
923.857	0.917
932.542	0.915
941.228	0.912
949.914	0.908
958.599	0.898
967.285	0.889
975.97	0.878
984.656	0.876
993.342	0.847
1002.03	0.87
1010.71	0.849
1019.4	0.812
1028.08	0.789
1036.77	0.6689
1045.46	0.536
1054.14	0.787
1062.83	0.824
1071.51	0.776
1080.2	0.804
1088.88	0.834
1097.57	0.876
1106.25	0.88
1114.94	0.889
1123.63	0.89
1132.31	0.877
1141	0.836
1149.68	0.741
1158.37	0.725
1167.05	0.5039
1175.74	0.4081
1184.42	0.583
1193.11	0.49
1201.8	0.587
1210.48	0.642
1219.17	0.563
1227.85	0.533
1236.54	0.405
1245.22	0.331
1253.91	0.609
1262.6	0.673
1271.28	0.758
1279.97	0.777
1288.65	0.777
1297.34	0.768
1306.02	0.812
1314.71	0.838
1323.39	0.795
1332.08	0.789
1340.77	0.854
1349.45	0.893
1358.14	0.861
1366.82	0.851
1375.51	0.913
1384.19	0.893
1392.88	0.838
1401.56	0.83
1410.25	0.894
1418.94	0.911
1427.62	0.893
1436.31	0.7909
1444.99	0.8151
1453.68	0.876
1462.36	0.807
1471.05	0.745
1479.73	0.7071
1488.42	0.7839
1497.11	0.4779
1505.79	0.5921
1514.48	0.723
1523.16	0.683
1531.85	0.646
1540.53	0.5479
1549.22	0.49
1557.91	0.502
1566.59	0.587
1575.28	0.633
1583.96	0.63
1592.65	0.5171
1601.33	0.4728
1610.02	0.7691
1618.7	0.896
1627.39	0.95
1636.08	0.944
1644.76	0.973
1653.45	0.946
1662.13	0.971
1670.82	0.964
1679.5	0.966
1688.19	0.951
1696.87	0.916
1705.56	0.912
1714.25	0.893
1722.93	0.819
1731.62	0.6518
1740.3	0.3258
1748.99	0.252
1757.67	0.5632
1766.36	0.858
1775.05	0.9
1783.73	0.916
1792.42	0.947
1801.1	0.963
1809.79	0.969
1818.47	0.973
1827.16	0.966
1835.84	0.967
1844.53	0.966
1853.22	0.973
1861.9	0.978
1870.59	0.977
1879.27	0.983
1887.96	0.983
1896.64	0.983
1905.33	0.982
1914.01	0.979
1922.7	0.97
1931.39	0.977
1940.07	0.978
1948.76	0.979
1957.44	0.985
1966.13	0.979
1974.81	0.978
1983.5	0.983
1992.18	0.986
2000.87	0.99
2009.56	1.0055
2018.24	1.005
2026.93	1.002
2035.61	1
2044.3	0.997
2052.98	1.001
2061.67	1.0003
2070.36	1.001
2079.04	1.0017
2087.73	1.0025
2096.41	1.0017
2105.1	1.006
2113.78	1.009
2122.47	1.009
2131.15	1.01
2139.84	1.01
2148.53	1.01
2157.21	1.01
2165.9	1.009
2174.58	1.009
2183.27	1.008
2191.95	1.008
2200.64	1.009
2209.32	1.0079
2218.01	1.006
2226.7	1.006
2235.38	1.002
2244.07	1.001
2252.75	1
2261.44	0.9966
2270.12	0.9908
2278.81	0.9858
2287.5	0.9827
2296.18	0.979
2304.87	0.979
2313.55	0.979
2322.24	0.979
2330.92	0.979
2339.61	0.981
2348.29	0.981
2356.98	0.981
2365.67	0.982
2374.35	0.9855
2383.04	0.9916
2391.72	0.9975
2400.41	1
2409.09	1.001
2417.78	1.001
2426.46	1.001
2435.15	1
2443.84	1
2452.52	1
2461.21	0.9985
2469.89	0.998
2478.58	0.998
2487.26	1.001
2495.95	1
2504.64	1.0002
2513.32	1.001
2522.01	1
2530.69	0.998
2539.38	0.998
2548.06	0.998
2556.75	0.998
2565.43	0.998
2574.12	0.998
2582.81	0.998
2591.49	0.998
2600.18	0.9982
2608.86	1
2617.55	0.998
2626.23	0.998
2634.92	0.998
2643.6	1
2652.29	1
2660.98	1
2669.66	1.0003
2678.35	1
2687.03	0.998
2695.72	0.9987
2704.4	1
2713.09	0.9992
2721.77	0.998
2730.46	0.995
2739.15	0.994
2747.83	0.994
2756.52	0.9945
2765.2	0.995
2773.89	0.995
2782.57	0.9962
2791.26	0.997
2799.95	0.997
2808.63	0.997
2817.32	0.994
2826	0.9916
2834.69	0.9868
2843.37	0.9783
2852.06	0.9765
2860.74	0.978
2869.43	0.9745
2878.12	0.947
2886.8	0.9231
2895.49	0.9377
2904.17	0.9509
2912.86	0.9559
2921.54	0.9522
2930.23	0.9291
2938.91	0.9
2947.6	0.8928
2956.29	0.807
2964.97	0.8974
2973.66	0.9433
2982.34	0.9418
2991.03	0.9356
2999.71	0.927
3008.4	0.9364
3017.09	0.9428
3025.77	0.9328
3034.46	0.9087
3043.14	0.9104
3051.83	0.9264
3060.51	0.9473
3069.2	0.938
3077.88	0.943
3086.57	0.9642
3095.26	0.9652
3103.94	0.9699
3112.63	0.9794
3121.31	0.992
3130	0.998
3138.68	1
3147.37	1
3156.05	1
3164.74	1.0004
3173.43	1
3182.11	1
3190.8	1
3199.48	1.001
3208.17	1.0017
3216.85	1.002
3225.54	1.001
3234.22	1.001
3242.91	1.001
3251.6	1.002
3260.28	1.002
3268.97	1.0011
3277.65	1.001
3286.34	1.001
3295.02	1.001
3303.71	1.001
3312.4	1.001
3321.08	1
3329.77	1
3338.45	1.001
3347.14	1
3355.82	1
3364.51	1
3373.19	0.998
3381.88	0.998
3390.57	0.995
3399.25	0.994
3407.94	0.9937
3416.62	0.99
3425.31	0.989
3433.99	0.9867
3442.68	0.985
3451.36	0.981
3460.05	0.981
3468.74	0.978
3477.42	0.978
3486.11	0.9785
3494.79	0.981
3503.48	0.984
3512.16	0.9855
3520.85	0.987
3529.54	0.9882
3538.22	0.989
3546.91	0.989
3555.59	0.9907
3564.28	0.987
3572.96	0.9897
3581.65	0.9903
3590.33	0.986
3599.02	0.982
3607.71	0.96
3616.39	0.96
3625.08	0.9828
3633.76	0.9806
3642.45	0.9901
3651.13	0.9781
3659.82	0.9888
3668.5	0.9871
3677.19	0.979
3685.88	0.989
3694.56	0.99
3703.25	0.99
3711.93	0.9871
3720.62	0.9906
3729.3	0.9869
3737.99	0.9811
3746.67	0.978
3755.36	0.9854
3764.05	0.9914
3772.73	0.991
3781.42	0.993
3790.1	0.993
