Infrared Spectrum: 3,4'-DICHLORO-BENZOPHENONE
Formula: C13 H8 Cl2 O
CAS: 7498-66-0
State: SOLUTION (10% CHCl3)
Class: COBLENTZ
Instrument: Not specified, most likely a grating spectrometer.
Sampling: TRANSMISSION
Path length: 0.009 CM
Resolution: 4
Origin: ABBOTT LABORATORIES
MICROMETERS	TRANSMITTANCE
1.959	1.001
1.99355	0.998
2.02811	0.993
2.06266	0.99
2.09721	0.993
2.13177	0.99
2.16632	0.988
2.20088	0.99
2.23543	0.993
2.26998	0.988
2.30454	0.983
2.33909	0.968
2.37364	0.968
2.4082	0.983
2.44275	0.978
2.47731	0.986
2.51186	0.988
2.54641	0.986
2.58097	0.985
2.61552	0.98
2.65007	0.98
2.68463	0.976
2.71918	0.971
2.75374	0.963
2.78829	0.95
2.82284	0.95
2.8574	0.958
2.89195	0.96
2.9265	0.971
2.96106	0.961
2.99561	0.961
3.03017	0.963
3.06472	0.973
3.09927	0.973
3.13383	0.96
3.16838	0.948
3.20293	0.908
3.23749	0.86
3.27204	0.801
3.3066	0.853
3.34115	0.926
3.3757	0.948
3.41026	0.96
3.44481	0.956
3.47936	0.953
3.51392	0.976
3.54847	0.965
3.58303	0.968
3.61758	0.96
3.65213	0.966
3.68669	0.97
3.72124	0.965
3.75579	0.971
3.79035	0.971
3.8249	0.965
3.85946	0.948
3.89401	0.94
3.92856	0.95
3.96312	0.955
3.99767	0.955
4.03222	0.955
4.06678	0.946
4.10133	0.94
4.13589	0.931
4.17044	0.931
4.20499	0.963
4.23955	0.966
4.2741	0.968
4.30865	0.96
4.34321	0.958
4.37776	0.95
4.41232	0.965
4.44687	0.958
4.48142	0.961
4.51598	0.965
4.55053	0.96
4.58508	0.96
4.61964	0.961
4.65419	0.951
4.68875	0.961
4.7233	0.955
4.75785	0.96
4.79241	0.961
4.82696	0.963
4.86151	0.953
4.89607	0.956
4.93062	0.951
4.96518	0.951
4.99973	0.956
5.03428	0.956
5.06884	0.945
5.10339	0.936
5.13794	0.938
5.1725	0.925
5.20705	0.925
5.2416	0.93
5.27616	0.935
5.31071	0.941
5.34527	0.946
5.37982	0.945
5.41437	0.943
5.44893	0.94
5.48348	0.933
5.51803	0.931
5.55259	0.908
5.58714	0.916
5.6217	0.928
5.65625	0.933
5.6908	0.938
5.72536	0.93
5.75991	0.921
5.79446	0.908
5.82902	0.896
5.86357	0.891
5.89813	0.805
5.93268	0.562
5.96723	0.337
6.00179	0.159
6.03634	0.133
6.07089	0.627
6.10545	0.753
6.14	0.823
6.17456	0.82
6.20911	0.733
6.24366	0.455
6.27822	0.231
6.31277	0.4
6.34732	0.445
6.38188	0.422
6.41643	0.678
6.45099	0.846
6.48554	0.883
6.52009	0.895
6.55465	0.901
6.5892	0.885
6.62375	0.903
6.65831	0.896
6.69286	0.833
6.72742	0.638
6.76197	0.765
6.79652	0.688
6.83108	0.838
6.86563	0.87
6.90018	0.9
6.93474	0.893
6.96929	0.866
7.00385	0.77
7.0384	0.507
7.07295	0.555
7.10751	0.695
7.14206	0.475
7.17661	0.677
7.21117	0.82
7.24572	0.873
7.28028	0.878
7.31483	0.871
7.34938	0.865
7.38394	0.883
7.41849	0.898
7.45304	0.895
7.4876	0.88
7.52215	0.851
7.55671	0.806
7.59126	0.667
7.62581	0.467
7.66037	0.394
7.69492	0.337
7.72947	0.289
7.76403	0.236
7.79858	0.207
7.83314	0.254
7.86769	0.206
7.90224	0.099
7.9368	0.216
7.97135	0.214
8.0059	0.359
8.04046	0.542
8.07501	0.572
8.10956	0.56
8.14412	0.554
8.17867	0.555
8.21323	0.559
8.24778	0.567
8.28233	0.57
8.31689	0.625
8.35144	0.732
8.38599	0.813
8.42055	0.856
8.4551	0.868
8.48966	0.782
8.52421	0.643
8.55876	0.778
8.59332	0.763
8.62787	0.77
8.66242	0.57
8.69698	0.622
8.73153	0.813
8.76609	0.841
8.80064	0.875
8.83519	0.891
8.86975	0.891
8.9043	0.885
8.93885	0.875
8.97341	0.846
9.00796	0.808
9.04252	0.775
9.07707	0.707
9.11162	0.555
9.14618	0.222
9.18073	0.166
9.21528	0.48
9.24984	0.61
9.28439	0.59
9.31895	0.668
9.3535	0.758
9.38805	0.83
9.42261	0.86
9.45716	0.873
9.49171	0.881
9.52627	0.893
9.56082	0.898
9.59538	0.905
9.62993	0.913
9.66448	0.91
9.69904	0.92
9.73359	0.918
9.76814	0.921
9.8027	0.901
9.83725	0.678
9.87181	0.554
9.90636	0.831
9.94091	0.873
9.97547	0.891
10.01	0.876
10.0446	0.905
10.0791	0.915
10.1137	0.921
10.1482	0.918
10.1828	0.915
10.2173	0.901
10.2519	0.893
10.2865	0.871
10.321	0.8
10.3556	0.707
10.3901	0.534
10.4247	0.579
10.4592	0.618
10.4938	0.665
10.5283	0.685
10.5629	0.594
10.5974	0.472
10.632	0.537
10.6665	0.678
10.7011	0.788
10.7356	0.838
10.7702	0.858
10.8048	0.875
10.8393	0.88
10.8739	0.88
10.9084	0.87
10.943	0.89
10.9775	0.89
11.0121	0.885
11.0466	0.876
11.0812	0.833
11.1157	0.758
11.1503	0.717
11.1848	0.723
11.2194	0.788
11.254	0.831
11.2885	0.863
11.3231	0.888
11.3576	0.898
11.3922	0.901
11.4267	0.903
11.4613	0.913
11.4958	0.915
11.5304	0.916
11.5649	0.915
11.5995	0.906
11.634	0.895
11.6686	0.893
11.7032	0.873
11.7377	0.805
11.7723	0.615
11.8068	0.372
11.8414	0.296
11.8759	0.507
11.9105	0.668
11.945	0.778
11.9796	0.828
12.0141	0.84
12.0487	0.846
12.0832	0.856
12.1178	0.866
12.1524	0.871
12.1869	0.875
12.2215	0.871
12.256	0.865
12.2906	0.856
12.3251	0.838
12.3597	0.806
12.3942	0.748
12.4288	0.595
12.4633	0.544
12.4979	0.554
12.5324	0.587
12.567	0.632
12.6016	0.643
12.6361	0.652
12.6707	0.65
12.7052	0.647
12.7398	0.643
12.7743	0.642
12.8089	0.64
12.8434	0.648
12.878	0.637
12.9125	0.642
12.9471	0.62
12.9816	0.625
13.0162	0.632
13.0507	0.643
13.0853	0.647
13.1199	0.657
13.1544	0.665
13.189	0.668
13.2235	0.655
13.2581	0.663
13.2926	0.662
13.3272	0.677
13.3617	0.672
13.3963	0.682
13.4308	0.688
13.4654	0.693
13.4999	0.697
13.5345	0.695
13.5691	0.693
13.6036	0.698
13.6382	0.7
13.6727	0.695
13.7073	0.69
13.7418	0.685
13.7764	0.668
13.8109	0.65
13.8455	0.65
13.88	0.662
13.9146	0.67
13.9491	0.67
13.9837	0.665
14.0183	0.653
14.0528	0.643
14.0874	0.637
14.1219	0.643
14.1565	0.653
14.191	0.63
14.2256	0.539
14.2601	0.452
14.2947	0.467
14.3292	0.555
14.3638	0.633
14.3983	0.688
14.4329	0.74
14.4675	0.777
14.502	0.815
14.5366	0.836
14.5711	0.841
14.6057	0.85
14.6402	0.851
14.6748	0.85
14.7093	0.855
14.7439	0.846
14.7784	0.84
14.813	0.818
14.8475	0.803
14.8821	0.803
14.9167	0.806
14.9512	0.811
14.9858	0.811
15.0203	0.808
15.0549	0.777
15.0894	0.773
15.124	0.787
15.1585	0.826
15.1931	0.841
15.2276	0.84
15.2622	0.86
15.2967	0.88
15.3313	0.911
15.3658	0.918
15.4004	0.928
15.435	0.945
