Infrared Spectrum: 2-BENZYLMERCAPTO-3-METHYL PYRAZINE
Formula: C12 H12 N2 S
CAS: 74990-49-1
State: SOLID (MINERAL OIL MULL)
Melting point: 43-44 C
Class: COBLENTZ
Instrument: Not specified, most likely a prism, grating, or hybrid spectrometer.
Sampling: TRANSMISSION
Resolution: 4
Origin: WYANDOTTE CHEMICALS CORP., WYANDOTTE, MICHIGAN, USA
MICROMETERS	TRANSMITTANCE
2.02	0.282
2.05977	0.28
2.09954	0.277
2.13931	0.28
2.17909	0.28
2.21886	0.27
2.25863	0.272
2.2984	0.272
2.33817	0.277
2.37794	0.277
2.41771	0.279
2.45748	0.285
2.49726	0.289
2.53703	0.292
2.5768	0.297
2.61657	0.299
2.65634	0.303
2.69611	0.307
2.73588	0.307
2.77566	0.31
2.81543	0.302
2.8552	0.289
2.89497	0.277
2.93474	0.272
2.97451	0.27
3.01428	0.265
3.05406	0.267
3.09383	0.265
3.1336	0.262
3.17337	0.264
3.21314	0.265
3.25291	0.239
3.29268	0.141
3.33245	0.127
3.37223	0.029
3.412	0.024
3.45177	0.031
3.49154	0.046
3.53131	0.086
3.57108	0.335
3.61085	0.415
3.65063	0.423
3.6904	0.418
3.73017	0.423
3.76994	0.431
3.80971	0.443
3.84948	0.446
3.88925	0.456
3.92902	0.463
3.9688	0.47
4.00857	0.475
4.04834	0.481
4.08811	0.491
4.12788	0.488
4.16765	0.488
4.20742	0.491
4.2472	0.476
4.28697	0.451
4.32674	0.451
4.36651	0.473
4.40628	0.506
4.44605	0.514
4.48582	0.519
4.52559	0.528
4.56537	0.531
4.60514	0.539
4.64491	0.548
4.68468	0.556
4.72445	0.564
4.76422	0.571
4.80399	0.578
4.84377	0.586
4.88354	0.589
4.92331	0.589
4.96308	0.596
5.00285	0.598
5.04262	0.599
5.08239	0.604
5.12217	0.594
5.16194	0.583
5.20171	0.617
5.24148	0.617
5.28125	0.596
5.32102	0.583
5.36079	0.617
5.40056	0.641
5.44034	0.637
5.48011	0.622
5.51988	0.647
5.55965	0.656
5.59942	0.631
5.63919	0.604
5.67896	0.637
5.71874	0.626
5.75851	0.619
5.79828	0.583
5.83805	0.576
5.87782	0.596
5.91759	0.598
5.95736	0.607
5.99713	0.588
6.03691	0.602
6.07668	0.614
6.11645	0.642
6.15622	0.686
6.19599	0.619
6.23576	0.649
6.27553	0.622
6.31531	0.676
6.35508	0.689
6.39485	0.7
6.43462	0.682
6.47439	0.725
6.51416	0.654
6.55393	0.395
6.5937	0.426
6.63348	0.372
6.67325	0.352
6.71302	0.458
6.75279	0.332
6.79256	0.196
6.83233	0.171
6.8721	0.169
6.91188	0.37
6.95165	0.269
6.99142	0.393
7.03119	0.456
7.07096	0.624
7.11073	0.654
7.1505	0.528
7.19028	0.478
7.23005	0.284
7.26982	0.212
7.30959	0.332
7.34936	0.357
7.38913	0.177
7.4289	0.224
7.46867	0.357
7.50845	0.453
7.54822	0.509
7.58799	0.556
7.62776	0.576
7.66753	0.593
7.7073	0.621
7.74707	0.629
7.78685	0.646
7.82662	0.657
7.86639	0.662
7.90616	0.684
7.94593	0.598
7.9857	0.632
8.02547	0.604
8.06524	0.617
8.10502	0.694
8.14479	0.739
8.18456	0.765
8.22433	0.501
8.2641	0.418
8.30387	0.598
8.34364	0.511
8.38342	0.468
8.42319	0.624
8.46296	0.646
8.50273	0.38
8.5425	0.307
8.58227	0.473
8.62204	0.448
8.66181	0.589
8.70159	0.654
8.74136	0.692
8.78113	0.717
8.8209	0.742
8.86067	0.74
8.90044	0.639
8.94021	0.627
8.97999	0.636
9.01976	0.551
9.05953	0.295
9.0993	0.098
9.13907	0.177
9.17884	0.313
9.21861	0.43
9.25839	0.488
9.29816	0.483
9.33793	0.24
9.3777	0.161
9.41747	0.362
9.45724	0.48
9.49701	0.549
9.53678	0.589
9.57656	0.598
9.61633	0.529
9.6561	0.335
9.69587	0.425
9.73564	0.546
9.77541	0.599
9.81518	0.622
9.85496	0.641
9.89473	0.661
9.9345	0.634
9.97427	0.671
10.014	0.707
10.0538	0.715
10.0936	0.724
10.1334	0.714
10.1731	0.674
10.2129	0.481
10.2527	0.234
10.2924	0.308
10.3322	0.448
10.372	0.564
10.4118	0.588
10.4515	0.604
10.4913	0.641
10.5311	0.647
10.5708	0.671
10.6106	0.647
10.6504	0.566
10.6902	0.554
10.7299	0.656
10.7697	0.7
10.8095	0.732
10.8492	0.745
10.889	0.76
10.9288	0.762
10.9686	0.769
11.0083	0.785
11.0481	0.8
11.0879	0.81
11.1276	0.818
11.1674	0.823
11.2072	0.818
11.247	0.812
11.2867	0.807
11.3265	0.799
11.3663	0.8
11.406	0.842
11.4458	0.853
11.4856	0.882
11.5254	0.893
11.5651	0.9
11.6049	0.906
11.6447	0.923
11.6844	0.921
11.7242	0.895
11.764	0.697
11.8038	0.448
11.8435	0.543
11.8833	0.604
11.9231	0.621
11.9628	0.627
12.0026	0.566
12.0424	0.358
12.0822	0.323
12.1219	0.659
12.1617	0.794
12.2015	0.828
12.2412	0.83
12.281	0.828
12.3208	0.803
12.3606	0.646
12.4003	0.687
12.4401	0.789
12.4799	0.82
12.5196	0.818
12.5594	0.754
12.5992	0.699
12.6389	0.687
12.6787	0.652
12.7185	0.617
12.7583	0.627
12.798	0.656
12.8378	0.702
12.8776	0.752
12.9173	0.779
12.9571	0.817
12.9969	0.827
13.0367	0.833
13.0764	0.855
13.1162	0.87
13.156	0.88
13.1957	0.89
13.2355	0.877
13.2753	0.873
13.3151	0.895
13.3548	0.901
13.3946	0.901
13.4344	0.888
13.4741	0.887
13.5139	0.885
13.5537	0.883
13.5935	0.87
13.6332	0.867
13.673	0.858
13.7128	0.842
13.7525	0.81
13.7923	0.752
13.8321	0.554
13.8719	0.365
13.9116	0.25
13.9514	0.224
13.9912	0.2
14.0309	0.169
14.0707	0.167
14.1105	0.192
14.1503	0.242
14.19	0.297
14.2298	0.373
14.2696	0.443
14.3093	0.481
14.3491	0.458
14.3889	0.4
14.4287	0.385
14.4684	0.455
14.5082	0.569
14.548	0.641
14.5877	0.686
14.6275	0.727
14.6673	0.75
14.7071	0.722
14.7468	0.647
14.7866	0.624
14.8264	0.641
14.8661	0.679
14.9059	0.725
14.9457	0.737
14.9855	0.739
15.0252	0.7
15.065	0.697
15.1048	0.737
15.1445	0.769
15.1843	0.779
15.2241	0.787
15.2639	0.782
15.3036	0.77
15.3434	0.754
15.3832	0.75
15.4229	0.749
15.4627	0.73
15.5025	0.724
15.5423	0.719
15.582	0.717
15.6218	0.709
15.6616	0.697
15.7013	0.679
15.7411	0.669
15.7809	0.661
15.8207	0.642
15.8604	0.624
15.9002	0.612
15.94	0.601
15.9797	0.591
