Infrared Spectrum: 2-Bromocinnamic acid
Formula: C 9 H 7 Br O 2
CAS: 7499-56-1
State: gas
Origin: EPA-IR VAPOR PHASE LIBRARY
1/CM	ABSORBANCE
549.8	0.016699
559.445	0.020129
569.09	0.029079
578.735	0.031379
588.38	0.013039
598.025	0.006579
607.67	0.004489
617.315	0.003799
626.96	0.004239
636.605	0.006389
646.251	0.006699
655.896	0.003519
665.541	0.004379
675.186	0.010259
684.831	0.012309
694.476	0.006919
704.121	0.004629
713.766	0.003919
723.411	0.004059
733.056	0.005939
742.701	0.013539
752.346	0.031759
761.991	0.017199
771.636	0.004739
781.281	0.002719
790.926	0.002319
800.571	0.002149
810.216	0.002709
819.861	0.002729
829.507	0.002409
839.152	0.002319
848.797	0.002479
858.442	0.002909
868.087	0.004459
877.732	0.004359
887.377	0.003699
897.022	0.004749
906.667	0.004199
916.312	0.002949
925.957	0.003069
935.602	0.003979
945.247	0.005359
954.892	0.005709
964.537	0.008199
974.182	0.013149
983.827	0.011599
993.472	0.007149
1003.12	0.006629
1012.76	0.008049
1022.41	0.013269
1032.05	0.017809
1041.7	0.010059
1051.34	0.006839
1060.99	0.004669
1070.63	0.004789
1080.28	0.006609
1089.92	0.011649
1099.57	0.023309
1109.21	0.058379
1118.86	0.098229
1128.5	0.051639
1138.15	0.034989
1147.79	0.037289
1157.44	0.044999
1167.08	0.023729
1176.73	0.011739
1186.37	0.009009
1196.02	0.008349
1205.66	0.007949
1215.31	0.006599
1224.95	0.006749
1234.6	0.008039
1244.24	0.010509
1253.89	0.013259
1263.53	0.013679
1273.18	0.012369
1282.82	0.012739
1292.47	0.011569
1302.11	0.013049
1311.76	0.014209
1321.4	0.011069
1331.05	0.011199
1340.69	0.014139
1350.34	0.024319
1359.98	0.031089
1369.63	0.017109
1379.27	0.007179
1388.92	0.004729
1398.56	0.003719
1408.21	0.003679
1417.85	0.004319
1427.5	0.007469
1437.14	0.011029
1446.79	0.007739
1456.43	0.007499
1466.08	0.013489
1475.73	0.009509
1485.37	0.003509
1495.02	0.002199
1504.66	0.001859
1514.31	0.001669
1523.95	0.001629
1533.6	0.001679
1543.24	0.002379
1552.89	0.004389
1562.53	0.006119
1572.18	0.004869
1581.82	0.004589
1591.47	0.004269
1601.11	0.003409
1610.76	0.004029
1620.4	0.006279
1630.05	0.013459
1639.69	0.022689
1649.34	0.013989
1658.98	0.004169
1668.63	0.003149
1678.27	0.003229
1687.92	0.003919
1697.56	0.004689
1707.21	0.006479
1716.85	0.009669
1726.5	0.016659
1736.14	0.032189
1745.79	0.065519
1755.43	0.109679
1765.08	0.074289
1774.72	0.038349
1784.37	0.027719
1794.01	0.018689
1803.66	0.013399
1813.3	0.009309
1822.95	0.005779
1832.59	0.003809
1842.24	0.002579
1851.88	0.001989
1861.53	0.001579
1871.17	0.001439
1880.82	0.001619
1890.46	0.001426
1900.11	0.001171
1909.75	0.001559
1919.4	0.001559
1929.04	0.0011282
1938.69	0.0013752
1948.33	0.001589
1957.98	0.0011776
1967.62	0.0008183
1977.27	0.0007705
1986.91	0.0006782
1996.56	0.0006832
2006.2	0.0006655
2015.85	0.0006949
2025.49	0.0007441
2035.14	0.0007672
2044.78	0.0009213
2054.43	0.0009682
2064.07	0.0009022
2073.72	0.0006983
2083.36	0.0005772
2093.01	0.0004966
2102.65	0.00046264
2112.3	0.00046043
2121.94	0.00046443
2131.59	0.0003983
2141.23	0.0004646
2150.88	0.0003997
2160.52	0.00046146
2170.17	0.0004101
2179.81	0.00044131
2189.46	0.00046001
2199.1	0.0005409
2208.75	0.0005867
2218.39	0.0006576
2228.04	0.000729
2237.68	0.000662
2247.33	0.0006228
2256.97	0.0005811
2266.62	0.00052698
2276.26	0.0006042
2285.91	0.0006392
2295.55	0.0007585
2305.2	0.0009171
2314.84	0.0010616
2324.49	0.0011513
2334.13	0.0009854
2343.78	0.000878
2353.42	0.000969
2363.07	0.0011217
2372.72	0.0009424
2382.36	0.0006686
2392.01	0.00046153
2401.65	0.00042369
2411.3	0.00048532
2420.94	0.00042679
2430.59	0.00050595
2440.23	0.00050862
2449.88	0.0005492
2459.52	0.0005614
2469.17	0.0006046
2478.81	0.0005898
2488.46	0.0005727
2498.1	0.0005508
2507.75	0.0005618
2517.39	0.00050749
2527.04	0.00049655
2536.68	0.00049089
2546.33	0.00050426
2555.97	0.00051669
2565.62	0.0005463
2575.26	0.0005838
2584.91	0.0006223
2594.55	0.0005462
2604.2	0.00042534
2613.84	0.00042083
2623.49	0.000436916
2633.13	0.00042598
2642.78	0.000294
2652.42	0.0003632
2662.07	0.000323
2671.71	0.000437503
2681.36	0.00044113
2691	0.0004121
2700.65	0.00045251
2710.29	0.000430959
2719.94	0.000325
2729.58	0.00038
2739.23	0.00031
2748.87	0.0003595
2758.52	0.0004185
2768.16	0.0003909
2777.81	0.0003805
2787.45	0.0003919
2797.1	0.0003874
2806.74	0.000276
2816.39	0.000286
2826.03	0.0003502
2835.68	0.0003465
2845.32	0.0003713
2854.97	0.0004177
2864.61	0.0005831
2874.26	0.00045581
2883.9	0.00046664
2893.55	0.00050263
2903.19	0.00047863
2912.84	0.00048255
2922.48	0.00042342
2932.13	0.00045208
2941.77	0.00050697
2951.42	0.0005518
2961.06	0.0005852
2970.71	0.0006284
2980.35	0.000638
2990	0.0008116
2999.64	0.0009314
3009.29	0.0010887
3018.93	0.0012504
3028.58	0.0012655
3038.22	0.0012936
3047.87	0.001899
3057.51	0.004009
3067.16	0.007039
3076.8	0.007129
3086.45	0.004449
3096.09	0.001999
3105.74	0.0009465
3115.38	0.0009856
3125.03	0.0011288
3134.67	0.0007984
3144.32	0.0004149
3153.96	0.0003666
3163.61	0.00026
3173.25	0.000174
3182.9	0.000206
3192.54	0.000174
3202.19	0.000174
3211.83	0.000168
3221.48	0.00015
3231.12	0.000147
3240.77	8.3e-05
3250.41	0.000228
3260.06	7.6e-05
3269.7	7.4e-05
3279.35	5.7e-05
3289	0.000119
3298.64	0.000147
3308.29	0.000132
3317.93	0.000147
3327.58	6.4e-05
3337.22	6.9e-05
3346.87	0.000176
3356.51	0.00026
3366.16	0.000109
3375.8	0.000282
3385.45	0.000286
3395.09	0.000266
3404.74	0.000302
3414.38	0.000139
3424.03	0.000232
3433.67	0.000153
3443.32	0.000363
3452.96	0.0003671
3462.61	0.0003837
3472.25	0.0005641
3481.9	0.0007664
3491.54	0.0009372
3501.19	0.0009565
3510.83	0.0010098
3520.48	0.0006766
3530.12	0.0006117
3539.77	0.0006099
3549.41	0.001059
3559.06	0.001949
3568.7	0.008709
3578.35	0.041209
3587.99	0.036569
3597.64	0.005899
3607.28	0.001499
3616.93	0.0008112
3626.57	0.0006801
3636.22	0.00048518
3645.86	0.0006052
3655.51	0.0008153
3665.15	0.0005483
3674.8	0.000436779
3684.44	0.0003765
3694.09	0.0003929
3703.73	0.0003797
3713.38	0.00048685
3723.02	0.0003687
3732.67	0.000319
3742.31	0.0003401
3751.96	0.000327
3761.6	0.000248
3771.25	0.000271
3780.89	0.00023
3790.54	0.000307
3800.18	0.000247
3809.83	0.000303
3819.47	0.000287
3829.12	0.00023
3838.76	0.0003636
3848.41	0.000173
3858.05	0.000264
3867.7	0.0003413
3877.34	0.000229
3886.99	0.000224
3896.63	0.0003622
3906.28	0.000296
3915.92	0.000224
3925.57	0.0003744
3935.21	0.000254
3944.86	0.000243
3954.5	0.000265
3964.15	0.000235
3973.79	0.000326
3983.44	0.000263
3993.08	0.000258
