Infrared Spectrum: Acetyl chloride
Formula: C2 H3 Cl O
CAS: 75-36-5
State: GAS (100 mmHg, N2 ADDED, TOTAL PRESSURE 600 mmHg)
Class: COBLENTZ
Instrument: DOW KBr FOREPRISM-GRATING
Instrument parameters: GRATING CHANGED AT 5.0, 7.5, 15.0 MICRON
Sampling: TRANSMISSION
Path length: 5 CM
Resolution: 2
Origin: DOW CHEMICAL COMPANY
1/CM	TRANSMITTANCE
395	0.6738
404	0.661
413	0.6235
422	0.4721
431	0.3116
440	0.2917
449	0.2832
458	0.2804
467	0.7032
476	0.7897
485	0.7965
494	0.7925
503	0.7655
512	0.7392
521	0.6698
530	0.6937
539	0.7043
548	0.7568
557	0.7658
566	0.7476
575	0.5674
584	0.0433
593	0
602	0.002
611	0.0072
620	0.0205
629	0.3846
638	0.78
647	0.7931
656	0.7898
665	0.8165
674	0.8274
683	0.847
692	0.8608
701	0.8662
710	0.8673
719	0.8661
728	0.8663
737	0.8724
746	0.8721
755	0.8684
764	0.8599
773	0.8482
782	0.834
791	0.8211
800	0.8273
809	0.8393
818	0.8461
827	0.8498
836	0.8484
845	0.8428
854	0.8356
863	0.8323
872	0.8268
881	0.8151
890	0.8054
899	0.794
908	0.7797
917	0.7678
926	0.6347
935	0.2194
944	0.036
953	0.0223
962	0.0223
971	0.0563
980	0.2664
989	0.5772
998	0.5645
1007	0.4767
1016	0.4091
1025	0.3862
1034	0.4191
1043	0.4669
1052	0.5109
1061	0.5693
1070	0.4757
1079	0.293
1088	0.0337
1097	0.0098
1106	0.0121
1115	0.0157
1124	0.0233
1133	0.2067
1142	0.389
1151	0.5416
1160	0.6151
1169	0.6918
1178	0.7258
1187	0.7262
1196	0.7092
1205	0.7039
1214	0.7275
1223	0.76
1232	0.783
1241	0.7903
1250	0.7894
1259	0.7806
1268	0.7686
1277	0.7494
1286	0.7215
1295	0.7039
1304	0.7238
1313	0.7597
1322	0.7561
1331	0.7393
1340	0.6504
1349	0.4271
1358	0.2264
1367	0.3068
1376	0.1702
1385	0.3741
1394	0.6155
1403	0.5865
1412	0.4433
1421	0.3306
1430	0.405
1439	0.3015
1448	0.4526
1457	0.5739
1466	0.6115
1475	0.7296
1484	0.7512
1493	0.7618
1502	0.7631
1511	0.7571
1520	0.7517
1529	0.7325
1538	0.713
1547	0.6692
1556	0.6761
1565	0.7001
1574	0.7512
1583	0.7911
1592	0.8035
1601	0.8097
1610	0.8137
1619	0.8223
1628	0.8115
1637	0.8265
1646	0.8218
1655	0.8337
1664	0.8107
1673	0.8051
1682	0.8015
1691	0.7551
1700	0.7151
1709	0.6854
1718	0.659
1727	0.6331
1736	0.685
1745	0.7398
1754	0.725
1763	0.6157
1772	0.5276
1781	0.2768
1790	0.0666
1799	0.0083
1808	0.0085
1817	0.0094
1826	0.0111
1835	0.0195
1844	0.1852
1853	0.601
1862	0.7391
1871	0.7365
1880	0.6625
1889	0.5791
1898	0.4907
1907	0.4804
1916	0.4867
1925	0.589
1934	0.6837
1943	0.764
1952	0.7815
1961	0.7843
1970	0.7851
1979	0.7871
1988	0.7961
1997	0.8006
2006	0.8015
2015	0.8011
2024	0.7975
2033	0.7853
2042	0.7624
2051	0.7305
2060	0.7375
2069	0.7181
2078	0.7572
2087	0.7954
2096	0.8048
2105	0.8087
2114	0.8103
2123	0.81
2132	0.8096
2141	0.8075
2150	0.8062
2159	0.8053
2168	0.805
2177	0.805
2186	0.8069
2195	0.8081
2204	0.8081
2213	0.8081
2222	0.8084
2231	0.8084
2240	0.8058
2249	0.7998
2258	0.7949
2267	0.7971
2276	0.8034
2285	0.8084
2294	0.8089
2303	0.7991
2312	0.7883
2321	0.7797
2330	0.783
2339	0.7904
2348	0.7996
2357	0.8037
2366	0.8018
2375	0.8001
2384	0.7984
2393	0.8001
2402	0.8046
2411	0.8051
2420	0.8057
2429	0.8065
2438	0.8076
2447	0.8096
2456	0.8115
2465	0.8131
2474	0.8146
2483	0.8161
2492	0.8187
2501	0.8207
2510	0.8209
2519	0.8204
2528	0.8206
2537	0.821
2546	0.8215
2555	0.8225
2564	0.824
2573	0.8255
2582	0.8266
2591	0.8275
2600	0.827
2609	0.8259
2618	0.8237
2627	0.8213
2636	0.8204
2645	0.8203
2654	0.8203
2663	0.8202
2672	0.8206
2681	0.8212
2690	0.8218
2699	0.8224
2708	0.8231
2717	0.8214
2726	0.8137
2735	0.7988
2744	0.7811
2753	0.7621
2762	0.7606
2771	0.7635
2780	0.7993
2789	0.8118
2798	0.8144
2807	0.8156
2816	0.8122
2825	0.8078
2834	0.8058
2843	0.8114
2852	0.8069
2861	0.8075
2870	0.8146
2879	0.8196
2888	0.8198
2897	0.8175
2906	0.8172
2915	0.8278
2924	0.8091
2933	0.793
2942	0.7884
2951	0.7882
2960	0.7942
2969	0.8061
2978	0.8054
2987	0.7999
2996	0.7896
3005	0.7428
3014	0.6128
3023	0.6447
3032	0.6769
3041	0.6578
3050	0.8061
3059	0.8108
3068	0.811
3077	0.8108
3086	0.8101
3095	0.8094
3104	0.8089
3113	0.809
3122	0.8101
3131	0.8121
3140	0.8167
3149	0.8221
3158	0.8267
3167	0.8299
3176	0.8306
3185	0.8305
3194	0.8304
3203	0.8303
3212	0.8303
3221	0.8302
3230	0.8301
3239	0.8309
3248	0.833
3257	0.8357
3266	0.8383
3275	0.8401
3284	0.8409
3293	0.841
3302	0.8411
3311	0.8412
3320	0.8413
3329	0.8414
3338	0.8415
3347	0.8413
3356	0.8412
3365	0.841
3374	0.8408
3383	0.841
3392	0.8415
3401	0.842
3410	0.8425
3419	0.8431
3428	0.8437
3437	0.8443
3446	0.845
3455	0.8453
3464	0.8457
3473	0.8459
3482	0.8452
3491	0.842
3500	0.8371
3509	0.8338
3518	0.8338
3527	0.835
3536	0.838
3545	0.8412
3554	0.842
3563	0.8371
3572	0.8244
3581	0.8011
3590	0.7171
3599	0.595
3608	0.5944
3617	0.5959
3626	0.6822
3635	0.8251
3644	0.849
3653	0.8516
3662	0.8525
3671	0.8505
3680	0.8439
3689	0.8392
3698	0.841
3707	0.8452
3716	0.8497
3725	0.8538
3734	0.8574
3743	0.8624
3752	0.8611
3761	0.8541
3770	0.8531
3779	0.8517
