Infrared Spectrum: PHOSGENE
Formula: C O Cl2
CAS: 75-44-5
State: GAS
Class: COBLENTZ
Instrument: Not specified, most likely a prism, grating, or hybrid spectrometer.
Sampling: TRANSMISSION
Path length: 5 CMS
Resolution: 4
Origin: WYANDOTTE CHEMICALS CORP., WYANDOTTE, MICHIGAN, USA
MICROMETERS	TRANSMITTANCE
2.04	0.948
2.07987	0.951
2.11973	0.955
2.1596	0.951
2.19947	0.961
2.23933	0.966
2.2792	0.965
2.31907	0.963
2.35894	0.966
2.3988	0.968
2.43867	0.966
2.47854	0.965
2.5184	0.966
2.55827	0.973
2.59814	0.965
2.638	0.976
2.67787	0.892
2.71774	0.558
2.75761	0.923
2.79747	0.907
2.83734	0.81
2.87721	0.936
2.91707	0.946
2.95694	0.946
2.99681	0.948
3.03667	0.95
3.07654	0.941
3.11641	0.938
3.15628	0.93
3.19614	0.918
3.23601	0.941
3.27588	0.927
3.31574	0.932
3.35561	0.932
3.39548	0.933
3.43534	0.946
3.47521	0.95
3.51508	0.946
3.55495	0.95
3.59481	0.958
3.63468	0.965
3.67455	0.965
3.71441	0.951
3.75428	0.966
3.79415	0.98
3.83401	0.981
3.87388	0.983
3.91375	0.985
3.95362	0.985
3.99348	0.981
4.03335	0.981
4.07322	0.98
4.11308	0.98
4.15295	0.98
4.19282	0.965
4.23268	0.961
4.27255	0.936
4.31242	0.935
4.35229	0.948
4.39215	0.968
4.43202	0.988
4.47189	0.976
4.51175	0.975
4.55162	0.983
4.59149	0.988
4.63135	0.998
4.67122	0.998
4.71109	1.001
4.75095	0.983
4.79082	0.978
4.83069	0.995
4.87056	0.95
4.91042	0.951
4.95029	0.956
4.99016	0.991
5.03002	0.991
5.06989	0.981
5.10976	0.98
5.14962	0.986
5.18949	0.98
5.22936	0.986
5.26923	0.985
5.30909	0.966
5.34896	0.736
5.38883	0.182
5.42869	0.034
5.46856	0.038
5.50843	0.039
5.54829	0.038
5.58816	0.043
5.62803	0.227
5.6679	0.472
5.70776	0.86
5.74763	0.951
5.7875	0.965
5.82736	0.93
5.86723	0.784
5.9071	0.333
5.94696	0.049
5.98683	0.041
6.0267	0.063
6.06657	0.295
6.10643	0.628
6.1463	0.796
6.18617	0.885
6.22603	0.925
6.2659	0.928
6.30577	0.912
6.34563	0.93
6.3855	0.933
6.42537	0.955
6.46524	0.946
6.5051	0.951
6.54497	0.958
6.58484	0.97
6.6247	0.966
6.66457	0.978
6.70444	0.98
6.7443	0.975
6.78417	0.971
6.82404	0.953
6.86391	0.945
6.90377	0.932
6.94364	0.903
6.98351	0.762
7.02337	0.419
7.06324	0.341
7.10311	0.344
7.14297	0.447
7.18284	0.608
7.22271	0.757
7.26257	0.819
7.30244	0.88
7.34231	0.933
7.38218	0.961
7.42204	0.968
7.46191	0.97
7.50178	0.978
7.54164	0.971
7.58151	0.973
7.62138	0.975
7.66124	0.966
7.70111	0.951
7.74098	0.936
7.78085	0.941
7.82071	0.933
7.86058	0.936
7.90045	0.94
7.94031	0.94
7.98018	0.941
8.02005	0.943
8.05991	0.943
8.09978	0.941
8.13965	0.941
8.17952	0.941
8.21938	0.94
8.25925	0.938
8.29912	0.936
8.33898	0.936
8.37885	0.93
8.41872	0.902
8.45858	0.877
8.49845	0.799
8.53832	0.674
8.57819	0.635
8.61805	0.704
8.65792	0.567
8.69779	0.721
8.73765	0.825
8.77752	0.89
8.81739	0.908
8.85725	0.915
8.89712	0.92
8.93699	0.92
8.97686	0.928
9.01672	0.928
9.05659	0.925
9.09646	0.92
9.13632	0.915
9.17619	0.913
9.21606	0.91
9.25592	0.908
9.29579	0.908
9.33566	0.908
9.37553	0.91
9.41539	0.913
9.45526	0.908
9.49513	0.91
9.53499	0.907
9.57486	0.895
9.61473	0.864
9.65459	0.824
9.69446	0.731
9.73433	0.461
9.77419	0.185
9.81406	0.099
9.85393	0.107
9.8938	0.071
9.93366	0.076
9.97353	0.084
10.0134	0.124
10.0533	0.238
10.0931	0.409
10.133	0.542
10.1729	0.641
10.2127	0.757
10.2526	0.719
10.2925	0.799
10.3323	0.734
10.3722	0.772
10.4121	0.862
10.4519	0.925
10.4918	0.945
10.5317	0.953
10.5715	0.956
10.6114	0.963
10.6513	0.966
10.6911	0.966
10.731	0.963
10.7709	0.963
10.8107	0.961
10.8506	0.963
10.8905	0.966
10.9303	0.965
10.9702	0.961
11.0101	0.96
11.0499	0.956
11.0898	0.943
11.1297	0.928
11.1695	0.905
11.2094	0.878
11.2493	0.859
11.2891	0.825
11.329	0.769
11.3689	0.668
11.4087	0.588
11.4486	0.489
11.4885	0.406
11.5283	0.31
11.5682	0.071
11.6081	0.048
11.6479	0.046
11.6878	0.044
11.7277	0.044
11.7675	0.044
11.8074	0.044
11.8473	0.044
11.8871	0.044
11.927	0.044
11.9669	0.044
12.0067	0.044
12.0466	0.044
12.0865	0.044
12.1263	0.044
12.1662	0.044
12.2061	0.044
12.2459	0.044
12.2858	0.046
12.3257	0.048
12.3655	0.051
12.4054	0.069
12.4453	0.117
12.4851	0.19
12.525	0.238
12.5649	0.203
12.6048	0.117
12.6446	0.094
12.6845	0.199
12.7244	0.509
12.7642	0.688
12.8041	0.674
12.844	0.656
12.8838	0.656
12.9237	0.673
12.9636	0.66
13.0034	0.698
13.0433	0.713
13.0832	0.737
13.123	0.756
13.1629	0.769
13.2028	0.786
13.2426	0.799
13.2825	0.807
13.3224	0.82
13.3622	0.84
13.4021	0.857
13.442	0.845
13.4818	0.842
13.5217	0.885
13.5616	0.87
13.6014	0.859
13.6413	0.88
13.6812	0.883
13.721	0.888
13.7609	0.895
13.8008	0.905
13.8406	0.918
13.8805	0.925
13.9204	0.923
13.9602	0.925
14.0001	0.935
14.04	0.936
14.0798	0.935
14.1197	0.932
14.1596	0.928
14.1994	0.928
14.2393	0.922
14.2792	0.917
14.319	0.913
14.3589	0.91
14.3988	0.908
14.4386	0.905
14.4785	0.9
14.5184	0.897
14.5582	0.888
14.5981	0.887
14.638	0.885
14.6778	0.88
14.7177	0.877
14.7576	0.872
14.7974	0.87
14.8373	0.868
14.8772	0.868
14.917	0.868
14.9569	0.867
14.9968	0.862
15.0366	0.832
15.0765	0.812
15.1164	0.83
15.1562	0.852
15.1961	0.855
15.236	0.854
15.2758	0.847
15.3157	0.835
15.3556	0.834
15.3954	0.825
15.4353	0.825
15.4752	0.82
15.515	0.814
15.5549	0.82
15.5948	0.817
15.6346	0.815
15.6745	0.814
15.7144	0.81
15.7542	0.807
15.7941	0.804
15.834	0.804
15.8738	0.797
15.9137	0.794
15.9536	0.791
