Infrared Spectrum: Dichloromethylsilane
Formula: C H 4 Cl 2 Si
CAS: 75-54-7
State: gas
Origin: EPA-IR VAPOR PHASE LIBRARY
1/CM	ABSORBANCE
501.5	0.138208
513.074	0.098978
524.648	0.053488
536.222	0.097398
547.796	0.303598
559.37	0.453728
570.944	0.375328
582.518	0.127048
594.092	0.017788
605.666	0.007288
617.24	0.004828
628.814	0.004658
640.388	0.005608
651.962	0.008178
663.536	0.012098
675.11	0.017338
686.684	0.021478
698.258	0.021838
709.832	0.028528
721.406	0.054908
732.98	0.112568
744.554	0.175618
756.128	0.211898
767.702	0.171658
779.276	0.106748
790.85	0.053918
802.423	0.039808
813.997	0.072848
825.571	0.200898
837.145	0.435498
848.719	0.561288
860.293	0.448358
871.867	0.337628
883.441	0.327878
895.015	0.274178
906.589	0.150788
918.163	0.073658
929.737	0.044618
941.311	0.033268
952.885	0.023508
964.459	0.014728
976.033	0.008628
987.607	0.006418
999.181	0.006298
1010.76	0.006258
1022.33	0.006448
1033.9	0.007708
1045.48	0.009508
1057.05	0.010098
1068.63	0.008368
1080.2	0.005568
1091.77	0.003648
1103.35	0.002808
1114.92	0.002648
1126.49	0.002528
1138.07	0.002028
1149.64	0.001377
1161.22	0.0012415
1172.79	0.0010571
1184.36	0.001204
1195.94	0.0012837
1207.51	0.0015677
1219.09	0.002928
1230.66	0.007398
1242.23	0.021728
1253.81	0.052048
1265.38	0.071318
1276.96	0.065908
1288.53	0.025808
1300.1	0.006708
1311.68	0.003488
1323.25	0.002948
1334.83	0.002808
1346.4	0.002768
1357.97	0.003098
1369.55	0.004218
1381.12	0.007048
1392.7	0.010218
1404.27	0.011828
1415.84	0.010508
1427.42	0.008338
1438.99	0.006688
1450.57	0.005438
1462.14	0.004208
1473.71	0.003158
1485.29	0.002768
1496.86	0.002918
1508.44	0.003108
1520.01	0.003198
1531.58	0.002888
1543.16	0.002568
1554.73	0.002428
1566.31	0.002678
1577.88	0.003158
1589.45	0.003188
1601.03	0.002588
1612.6	0.001938
1624.18	0.0014953
1635.75	0.0011897
1647.32	0.0009591
1658.9	0.00076331
1670.47	0.0007401
1682.05	0.00084234
1693.62	0.0009293
1705.19	0.0010257
1716.77	0.0008939
1728.34	0.00085698
1739.92	0.0009865
1751.49	0.0012813
1763.06	0.0015018
1774.64	0.001421
1786.21	0.0008898
1797.79	0.000525
1809.36	0.000419
1820.93	0.000422
1832.51	0.000364
1844.08	0.000273
1855.66	0.000233
1867.23	0.000153
1878.8	0.000216
1890.38	0.000244
1901.95	0.00036
1913.53	0.00047
1925.1	0.00085086
1936.67	0.0012752
1948.25	0.0017092
1959.82	0.001888
1971.4	0.001788
1982.97	0.001798
1994.54	0.002148
2006.12	0.002728
2017.69	0.002858
2029.27	0.002538
2040.84	0.0017106
2052.41	0.0010302
2063.99	0.0007176
2075.56	0.00079305
2087.14	0.0008851
2098.71	0.0011917
2110.28	0.0015381
2121.86	0.002248
2133.43	0.003258
2145.01	0.004788
2156.58	0.004888
2168.15	0.007438
2179.73	0.023658
2191.3	0.089198
2202.88	0.178858
2214.45	0.307418
2226.02	0.156498
2237.6	0.086208
2249.17	0.016188
2260.74	0.003628
2272.32	0.001878
2283.89	0.0014113
2295.47	0.0010705
2307.04	0.00085581
2318.61	0.000602
2330.19	0.000444
2341.76	0.000392
2353.34	0.000329
2364.91	0.000338
2376.48	0.000358
2388.06	0.0004
2399.63	0.000452
2411.21	0.000369
2422.78	0.000323
2434.35	0.000173
2445.93	0.000139
2457.5	0.000145
2469.08	0.000195
2480.65	0.000204
2492.22	0.000203
2503.8	0.000304
2515.37	0.000295
2526.95	0.00021
2538.52	8e-05
2550.09	6.8e-05
2561.67	7.9e-05
2573.24	4.4e-05
2584.82	9.1e-05
2596.39	7.6e-05
2607.96	6.7e-05
2619.54	9.6e-05
2631.11	7.4e-05
2642.69	0.000192
2654.26	0.000192
2665.83	0.000228
2677.41	0.000282
2688.98	0.000321
2700.56	0.00049
2712.13	0.000628
2723.7	0.000618
2735.28	0.000461
2746.85	0.000359
2758.43	0.000376
2770	0.000656
2781.57	0.0009195
2793.15	0.0010704
2804.72	0.0009415
2816.3	0.0008987
2827.87	0.00079126
2839.44	0.0006959
2851.02	0.00078552
2862.59	0.0009108
2874.17	0.00104
2885.74	0.0012472
2897.31	0.0016197
2908.89	0.002008
2920.46	0.001858
2932.04	0.001768
2943.61	0.002068
2955.18	0.003758
2966.76	0.009298
2978.33	0.014398
2989.91	0.014388
3001.48	0.006858
3013.05	0.002618
3024.63	0.0014508
3036.2	0.0014161
3047.78	0.001958
3059.35	0.002388
3070.92	0.002748
3082.5	0.002928
3094.07	0.002928
3105.65	0.002688
3117.22	0.001928
3128.79	0.0015336
3140.37	0.0011794
3151.94	0.001129
3163.52	0.0011121
3175.09	0.0012896
3186.66	0.0010106
3198.24	0.00039
3209.81	0.000357
3221.39	0.000335
3232.96	0.000634
3244.53	0.000595
3256.11	0.000475
3267.68	0.000157
3279.26	0.00011
3290.83	0.000157
3302.4	4.8e-05
3313.98	0.00012
3325.55	0.000159
3337.13	9.9e-05
3348.7	0.000101
3360.27	7.5e-05
3371.85	4.2e-05
3383.42	5.9e-05
3395	0.00011
3406.57	0.00013
3418.14	0.000122
3429.72	0.000265
3441.29	5.3e-05
3452.86	0.000221
3464.44	0.000155
3476.01	0.000305
3487.59	0.000331
3499.16	0.000184
3510.73	0.000321
3522.31	0.000198
3533.88	0.000337
3545.46	0.000443
3557.03	0.000512
3568.6	0.000515
3580.18	0.000556
3591.75	0.000644
3603.33	0.000643
3614.9	0.0006796
3626.47	0.0009963
3638.05	0.0011841
3649.62	0.0014647
3661.2	0.0017119
3672.77	0.0014581
3684.34	0.0013008
3695.92	0.0009468
3707.49	0.0009214
3719.07	0.0012189
3730.64	0.0015487
3742.21	0.0017483
3753.79	0.0017203
3765.36	0.0014389
3776.94	0.0013167
3788.51	0.0011223
3800.08	0.001204
3811.66	0.0011703
3823.23	0.0010201
3834.81	0.00083009
3846.38	0.00080196
3857.95	0.0008902
3869.53	0.0008712
3881.1	0.000548
3892.68	0.000544
3904.25	0.000242
3915.82	0.000427
3927.4	0.000375
3938.97	0.00039
3950.55	0.000409
3962.12	0.000327
3973.69	0.000333
3985.27	0.000181
3996.84	0.000363
