Infrared Spectrum: TETRAMETHYL AMMONIUM IODIDE
Formula: C4 H12 I N
CAS: 75-58-1
State: SOLID (MINERAL OIL MULL)
Class: COBLENTZ
Instrument: Not specified, most likely a prism, grating, or hybrid spectrometer.
Sampling: TRANSMISSION
Resolution: 4
Origin: DOW CHEMICAL COMPANY
MICROMETERS	TRANSMITTANCE
2.034	0.567
2.0749	0.572
2.11579	0.579
2.15669	0.586
2.19759	0.58
2.23849	0.572
2.27938	0.586
2.32028	0.592
2.36118	0.599
2.40207	0.609
2.44297	0.621
2.48387	0.63
2.52476	0.633
2.56566	0.647
2.60656	0.649
2.64746	0.652
2.68835	0.657
2.72925	0.66
2.77015	0.66
2.81104	0.664
2.85194	0.662
2.89284	0.662
2.93374	0.666
2.97463	0.672
3.01553	0.679
3.05643	0.679
3.09732	0.683
3.13822	0.679
3.17912	0.671
3.22001	0.649
3.26091	0.642
3.30181	0.56
3.34271	0.429
3.3836	0.109
3.4245	0.132
3.4654	0.238
3.50629	0.58
3.54719	0.698
3.58809	0.712
3.62899	0.717
3.66988	0.732
3.71078	0.737
3.75168	0.741
3.79257	0.751
3.83347	0.752
3.87437	0.752
3.91526	0.768
3.95616	0.763
3.99706	0.77
4.03796	0.759
4.07885	0.778
4.11975	0.78
4.16065	0.783
4.20154	0.783
4.24244	0.78
4.28334	0.793
4.32424	0.798
4.36513	0.802
4.40603	0.8
4.44693	0.802
4.48782	0.8
4.52872	0.809
4.56962	0.809
4.61051	0.81
4.65141	0.809
4.69231	0.812
4.73321	0.814
4.7741	0.819
4.815	0.819
4.8559	0.821
4.89679	0.821
4.93769	0.824
4.97859	0.824
5.01949	0.827
5.06038	0.829
5.10128	0.829
5.14218	0.829
5.18307	0.829
5.22397	0.829
5.26487	0.833
5.30576	0.833
5.34666	0.829
5.38756	0.829
5.42846	0.821
5.46935	0.819
5.51025	0.821
5.55115	0.819
5.59204	0.814
5.63294	0.819
5.67384	0.824
5.71474	0.824
5.75563	0.822
5.79653	0.819
5.83743	0.805
5.87832	0.819
5.91922	0.829
5.96012	0.833
6.00101	0.838
6.04191	0.834
6.08281	0.834
6.12371	0.831
6.1646	0.829
6.2055	0.824
6.2464	0.824
6.28729	0.821
6.32819	0.822
6.36909	0.838
6.40999	0.824
6.45088	0.822
6.49178	0.827
6.53268	0.827
6.57357	0.827
6.61447	0.814
6.65537	0.78
6.69626	0.521
6.73716	0.42
6.77806	0.529
6.81896	0.473
6.85985	0.543
6.90075	0.64
6.94165	0.752
6.98254	0.781
7.02344	0.797
7.06434	0.727
7.10524	0.608
7.14613	0.662
7.18703	0.71
7.22793	0.628
7.26882	0.674
7.30972	0.742
7.35062	0.79
7.39151	0.802
7.43241	0.804
7.47331	0.816
7.51421	0.821
7.5551	0.822
7.596	0.826
7.6369	0.821
7.67779	0.792
7.71869	0.788
7.75959	0.81
7.80049	0.822
7.84138	0.827
7.88228	0.829
7.92318	0.833
7.96407	0.841
8.00497	0.834
8.04587	0.839
8.08676	0.843
8.12766	0.843
8.16856	0.848
8.20946	0.844
8.25035	0.848
8.29125	0.85
8.33215	0.85
8.37304	0.851
8.41394	0.85
8.45484	0.85
8.49574	0.846
8.53663	0.846
8.57753	0.85
8.61843	0.85
8.65932	0.851
8.70022	0.863
8.74112	0.868
8.78201	0.872
8.82291	0.873
8.86381	0.872
8.90471	0.87
8.9456	0.87
8.9865	0.87
9.0274	0.868
9.06829	0.872
9.10919	0.873
9.15009	0.872
9.19099	0.865
9.23188	0.86
9.27278	0.85
9.31368	0.844
9.35457	0.868
9.39547	0.863
9.43637	0.865
9.47726	0.865
9.51816	0.863
9.55906	0.863
9.59996	0.865
9.64085	0.865
9.68175	0.863
9.72265	0.865
9.76354	0.863
9.80444	0.867
9.84534	0.87
9.88624	0.87
9.92713	0.875
9.96803	0.872
10.0089	0.875
10.0498	0.873
10.0907	0.873
10.1316	0.873
10.1725	0.873
10.2134	0.873
10.2543	0.87
10.2952	0.87
10.3361	0.863
10.377	0.85
10.4179	0.79
10.4588	0.621
10.4997	0.371
10.5406	0.27
10.5815	0.17
10.6224	0.318
10.6633	0.623
10.7042	0.732
10.7451	0.783
10.786	0.798
10.8269	0.783
10.8678	0.766
10.9087	0.781
10.9496	0.824
10.9905	0.851
11.0314	0.865
11.0723	0.87
11.1131	0.875
11.154	0.872
11.1949	0.875
11.2358	0.875
11.2767	0.875
11.3176	0.879
11.3585	0.88
11.3994	0.877
11.4403	0.875
11.4812	0.879
11.5221	0.88
11.563	0.882
11.6039	0.884
11.6448	0.884
11.6857	0.884
11.7266	0.884
11.7675	0.882
11.8084	0.882
11.8493	0.882
11.8902	0.882
11.9311	0.884
11.972	0.884
12.0129	0.887
12.0538	0.887
12.0947	0.884
12.1356	0.885
12.1765	0.884
12.2174	0.887
12.2583	0.882
12.2992	0.875
12.3401	0.868
12.381	0.868
12.4219	0.87
12.4627	0.872
12.5036	0.872
12.5445	0.873
12.5854	0.873
12.6263	0.87
12.6672	0.87
12.7081	0.87
12.749	0.867
12.7899	0.865
12.8308	0.862
12.8717	0.858
12.9126	0.851
12.9535	0.846
12.9944	0.839
13.0353	0.831
13.0762	0.831
13.1171	0.824
13.158	0.829
13.1989	0.827
13.2398	0.827
13.2807	0.8
13.3216	0.824
13.3625	0.822
13.4034	0.819
13.4443	0.814
13.4852	0.804
13.5261	0.802
13.567	0.798
13.6079	0.792
13.6488	0.785
13.6897	0.78
13.7306	0.77
13.7715	0.764
13.8124	0.759
13.8533	0.758
13.8941	0.761
13.935	0.764
13.9759	0.766
14.0168	0.764
14.0577	0.764
14.0986	0.761
14.1395	0.756
14.1804	0.752
14.2213	0.749
14.2622	0.744
14.3031	0.742
14.344	0.739
14.3849	0.735
14.4258	0.732
14.4667	0.729
14.5076	0.722
14.5485	0.713
14.5894	0.71
14.6303	0.7
14.6712	0.698
14.7121	0.688
14.753	0.679
14.7939	0.674
14.8348	0.669
14.8757	0.659
14.9166	0.652
14.9575	0.647
14.9984	0.638
15.0393	0.63
15.0802	0.623
15.1211	0.614
15.162	0.608
15.2029	0.601
15.2438	0.594
15.2846	0.584
15.3255	0.58
15.3664	0.572
15.4073	0.562
15.4482	0.553
15.4891	0.545
15.53	0.54
15.5709	0.531
15.6118	0.524
15.6527	0.519
15.6936	0.509
15.7345	0.505
15.7754	0.5
15.8163	0.494
15.8572	0.49
15.8981	0.494
15.939	0.509
