Infrared Spectrum: TETRA METHYL AMMONIUM CHLORIDE
Formula: C4 H12 Cl N
CAS: 75-57-0
State: SOLID (MULLS, KEL-F OIL FOR 2-7.5 AND MINERAL OIL FOR 7.5-16 MICRONS)
Melting point: 150-152 C DECOMPOSES
Class: COBLENTZ
Instrument: Not specified, most likely a prism, grating, or hybrid spectrometer.
Sampling: TRANSMISSION
Resolution: 4
Origin: WYANDOTTE CHEMICALS CORP., WYANDOTTE, MICHIGAN, USA
MICROMETERS	TRANSMITTANCE
2.044	0.511
2.08381	0.513
2.12363	0.511
2.16344	0.508
2.20326	0.5
2.24307	0.495
2.28289	0.505
2.3227	0.508
2.36251	0.505
2.40233	0.516
2.44214	0.528
2.48196	0.525
2.52177	0.523
2.56159	0.53
2.6014	0.545
2.64121	0.531
2.68103	0.546
2.72084	0.543
2.76066	0.545
2.80047	0.54
2.84028	0.523
2.8801	0.513
2.91991	0.5
2.95973	0.501
2.99954	0.49
3.03936	0.51
3.07917	0.538
3.11898	0.541
3.1588	0.566
3.19861	0.57
3.23843	0.538
3.27824	0.555
3.31806	0.381
3.35787	0.458
3.39768	0.436
3.4375	0.441
3.47731	0.465
3.51713	0.515
3.55694	0.535
3.59676	0.533
3.63657	0.563
3.67638	0.576
3.7162	0.601
3.75601	0.611
3.79583	0.623
3.83564	0.626
3.87546	0.636
3.91527	0.626
3.95508	0.638
3.9949	0.641
4.03471	0.65
4.07453	0.636
4.11434	0.631
4.15415	0.658
4.19397	0.663
4.23378	0.66
4.2736	0.638
4.31341	0.64
4.35323	0.643
4.39304	0.686
4.43285	0.703
4.47267	0.705
4.51248	0.706
4.5523	0.72
4.59211	0.73
4.63193	0.735
4.67174	0.736
4.71155	0.745
4.75137	0.748
4.79118	0.758
4.831	0.765
4.87081	0.778
4.91063	0.776
4.95044	0.781
4.99025	0.795
5.03007	0.798
5.06988	0.79
5.1097	0.811
5.14951	0.815
5.18933	0.811
5.22914	0.801
5.26895	0.81
5.30877	0.801
5.34858	0.8
5.3884	0.801
5.42821	0.79
5.46803	0.8
5.50784	0.8
5.54765	0.796
5.58747	0.8
5.62728	0.811
5.6671	0.81
5.70691	0.798
5.74672	0.79
5.78654	0.821
5.82635	0.831
5.86617	0.82
5.90598	0.825
5.9458	0.836
5.98561	0.843
6.02542	0.818
6.06524	0.835
6.10505	0.853
6.14487	0.861
6.18468	0.868
6.2245	0.876
6.26431	0.876
6.30412	0.876
6.34394	0.875
6.38375	0.883
6.42357	0.905
6.46338	0.903
6.5032	0.935
6.54301	0.931
6.58282	0.97
6.62264	0.828
6.66245	0.298
6.70227	0.168
6.74208	0.325
6.7819	0.461
6.82171	0.508
6.86152	0.543
6.90134	0.58
6.94115	0.605
6.98097	0.631
7.02078	0.643
7.06059	0.59
7.10041	0.43
7.14022	0.44
7.18004	0.578
7.21985	0.606
7.25967	0.62
7.29948	0.641
7.33929	0.651
7.37911	0.656
7.41892	0.655
7.45874	0.661
7.49855	0.696
7.53837	0.716
7.57818	0.715
7.61799	0.711
7.65781	0.688
7.69762	0.685
7.73744	0.705
7.77725	0.733
7.81707	0.738
7.85688	0.751
7.89669	0.76
7.93651	0.773
7.97632	0.78
8.01614	0.781
8.05595	0.795
8.09577	0.801
8.13558	0.801
8.17539	0.8
8.21521	0.795
8.25502	0.796
8.29484	0.795
8.33465	0.806
8.37446	0.821
8.41428	0.83
8.45409	0.835
8.49391	0.831
8.53372	0.818
8.57354	0.823
8.61335	0.83
8.65316	0.833
8.69298	0.84
8.73279	0.86
8.77261	0.871
8.81242	0.875
8.85224	0.881
8.89205	0.885
8.93186	0.9
8.97168	0.905
9.01149	0.908
9.05131	0.91
9.09112	0.91
9.13094	0.918
9.17075	0.905
9.21056	0.916
9.25038	0.906
9.29019	0.89
9.33001	0.873
9.36982	0.913
9.40964	0.921
9.44945	0.918
9.48926	0.921
9.52908	0.916
9.56889	0.915
9.60871	0.918
9.64852	0.915
9.68834	0.913
9.72815	0.908
9.76796	0.9
9.80778	0.9
9.84759	0.913
9.88741	0.935
9.92722	0.938
9.96703	0.941
10.0068	0.941
10.0467	0.936
10.0865	0.935
10.1263	0.92
10.1661	0.888
10.2059	0.83
10.2457	0.75
10.2855	0.646
10.3254	0.485
10.3652	0.323
10.405	0.241
10.4448	0.2
10.4846	0.186
10.5244	0.178
10.5642	0.171
10.6041	0.166
10.6439	0.186
10.6837	0.211
10.7235	0.271
10.7633	0.32
10.8031	0.356
10.8429	0.375
10.8828	0.395
10.9226	0.426
10.9624	0.483
11.0022	0.54
11.042	0.59
11.0818	0.626
11.1216	0.651
11.1615	0.675
11.2013	0.696
11.2411	0.71
11.2809	0.723
11.3207	0.748
11.3605	0.763
11.4003	0.771
11.4402	0.78
11.48	0.788
11.5198	0.801
11.5596	0.803
11.5994	0.806
11.6392	0.818
11.679	0.82
11.7189	0.816
11.7587	0.821
11.7985	0.83
11.8383	0.83
11.8781	0.838
11.9179	0.846
11.9577	0.851
11.9976	0.858
12.0374	0.865
12.0772	0.871
12.117	0.875
12.1568	0.886
12.1966	0.888
12.2364	0.891
12.2763	0.893
12.3161	0.891
12.3559	0.905
12.3957	0.905
12.4355	0.91
12.4753	0.905
12.5151	0.911
12.555	0.913
12.5948	0.911
12.6346	0.92
12.6744	0.921
12.7142	0.916
12.754	0.92
12.7938	0.913
12.8337	0.915
12.8735	0.908
12.9133	0.908
12.9531	0.9
12.9929	0.905
13.0327	0.895
13.0725	0.896
13.1124	0.901
13.1522	0.886
13.192	0.89
13.2318	0.883
13.2716	0.883
13.3114	0.873
13.3512	0.87
13.3911	0.858
13.4309	0.853
13.4707	0.843
13.5105	0.833
13.5503	0.826
13.5901	0.816
13.6299	0.815
13.6698	0.808
13.7096	0.815
13.7494	0.813
13.7892	0.806
13.829	0.801
13.8688	0.793
13.9086	0.8
13.9485	0.816
13.9883	0.838
14.0281	0.848
14.0679	0.868
14.1077	0.871
14.1475	0.871
14.1873	0.873
14.2272	0.885
14.267	0.873
14.3068	0.876
14.3466	0.88
14.3864	0.868
14.4262	0.866
14.466	0.871
14.5059	0.865
14.5457	0.856
14.5855	0.858
14.6253	0.845
14.6651	0.848
14.7049	0.838
14.7447	0.831
14.7846	0.83
14.8244	0.831
14.8642	0.83
14.904	0.813
14.9438	0.815
14.9836	0.8
15.0234	0.768
15.0633	0.745
15.1031	0.756
15.1429	0.775
15.1827	0.783
15.2225	0.778
15.2623	0.766
15.3021	0.756
15.342	0.748
15.3818	0.743
15.4216	0.736
15.4614	0.726
15.5012	0.706
15.541	0.701
15.5808	0.706
15.6207	0.696
15.6605	0.693
15.7003	0.683
15.7401	0.673
15.7799	0.67
15.8197	0.661
15.8595	0.65
15.8994	0.645
15.9392	0.633
15.979	0.625
16.0188	0.623
