Infrared Spectrum: Silane, trichloromethyl-
Formula: C H3 Cl3 Si
CAS: 75-79-6
State: SOLUTION (9% CCl4 FOR 3800-1300, 10% CS2 FOR 1300-650, AND 9% CCl4 FOR 650-250)
Boiling point: 66.4 C
Class: COBLENTZ II
Instrument: PERKIN-ELMER 521 (GRATING)
Instrument parameters: FILTERS AT 3150, 2500, 2000, 1150, 700, 410. GRATING CHANGES: 2000, 630
Path length: 0.011 CM, 0.010 CM, AND 0.010 CM
Resolution: 2
Origin: DOW CORNING CORP.
1/CM	TRANSMITTANCE
251	0.9748
260	0.9757
269	0.9756
278	0.9772
287	0.9792
296	0.9823
305	0.9852
314	0.9863
323	0.9861
332	0.9859
341	0.9862
350	0.9873
359	0.9881
368	0.9871
377	0.9844
386	0.9793
395	0.9731
404	0.9674
413	0.9611
422	0.9519
431	0.9345
440	0.8967
449	0.3804
458	0.7574
467	0.9265
476	0.9587
485	0.9759
494	0.9767
503	0.9748
512	0.9666
521	0.9362
530	0.8865
539	0.828
548	0.7047
557	0.2734
566	0.0193
575	0.0401
584	0.3853
593	0.6415
602	0.7241
611	0.8307
620	0.9101
629	0.9235
638	0.9468
647	0.9481
656	0.9478
665	0.9442
674	0.9299
683	0.9329
692	0.9365
701	0.9353
710	0.9272
719	0.8764
728	0.7855
737	0.7358
746	0.7134
755	0.3612
764	0.0649
773	0.5889
782	0.619
791	0.3715
800	0.0278
809	0.159
818	0.566
827	0.7662
836	0.8246
845	0.8573
854	0.8862
863	0.9089
872	0.9235
881	0.9374
890	0.9429
899	0.9472
908	0.9488
917	0.9495
926	0.95
935	0.9509
944	0.9509
953	0.9499
962	0.9489
971	0.9545
980	0.9563
989	0.9518
998	0.9419
1007	0.9195
1016	0.8867
1025	0.9094
1034	0.9327
1043	0.9359
1052	0.9363
1061	0.9363
1070	0.936
1079	0.9357
1088	0.9354
1097	0.9326
1106	0.9279
1115	0.9215
1124	0.9138
1133	0.9089
1142	0.9321
1151	0.9445
1160	0.9487
1169	0.9505
1178	0.9498
1187	0.9476
1196	0.9449
1205	0.9417
1214	0.9374
1223	0.9296
1232	0.9163
1241	0.8879
1250	0.8401
1259	0.7063
1268	0.5583
1277	0.8837
1286	0.9099
1295	0.9228
1304	0.9317
1313	0.9328
1322	0.9331
1331	0.9326
1340	0.9318
1349	0.9258
1358	0.919
1367	0.8998
1376	0.9015
1385	0.8975
1394	0.8658
1403	0.6862
1412	0.8777
1421	0.9195
1430	0.927
1439	0.9314
1448	0.9334
1457	0.9352
1466	0.9372
1475	0.9335
1484	0.9309
1493	0.9308
1502	0.931
1511	0.9321
1520	0.9407
1529	0.9464
1538	0.9504
1547	0.9482
1556	0.9446
1565	0.9429
1574	0.9445
1583	0.9459
1592	0.9442
1601	0.9414
1610	0.9393
1619	0.9393
1628	0.9394
1637	0.9395
1646	0.9394
1655	0.9387
1664	0.9381
1673	0.9379
1682	0.9382
1691	0.939
1700	0.9394
1709	0.9338
1718	0.9407
1727	0.9445
1736	0.9439
1745	0.9438
1754	0.9437
1763	0.9434
1772	0.9431
1781	0.9431
1790	0.943
1799	0.9435
1808	0.9442
1817	0.9449
1826	0.9441
1835	0.9432
1844	0.9423
1853	0.9415
1862	0.9409
1871	0.9402
1880	0.9398
1889	0.9398
1898	0.9397
1907	0.939
1916	0.9381
1925	0.9371
1934	0.9365
1943	0.9376
1952	0.9381
1961	0.9383
1970	0.9382
1979	0.9384
1988	0.9375
1997	0.9325
2006	0.9294
2015	0.9226
2024	0.9242
2033	0.9389
2042	0.9378
2051	0.9363
2060	0.9347
2069	0.9365
2078	0.9431
2087	0.9439
2096	0.9432
2105	0.9424
2114	0.9422
2123	0.9419
2132	0.9418
2141	0.9418
2150	0.9418
2159	0.942
2168	0.9424
2177	0.9426
2186	0.943
2195	0.9432
2204	0.9434
2213	0.9436
2222	0.9437
2231	0.9439
2240	0.944
2249	0.9442
2258	0.9441
2267	0.944
2276	0.944
2285	0.9439
2294	0.9438
2303	0.9438
2312	0.9438
2321	0.9438
2330	0.9438
2339	0.9438
2348	0.9438
2357	0.9439
2366	0.944
2375	0.9441
2384	0.9441
2393	0.944
2402	0.9438
2411	0.9436
2420	0.9435
2429	0.9433
2438	0.9432
2447	0.943
2456	0.9428
2465	0.9426
2474	0.9425
2483	0.9423
2492	0.9422
2501	0.942
2510	0.9417
2519	0.9414
2528	0.9411
2537	0.9406
2546	0.9403
2555	0.9398
2564	0.9395
2573	0.9391
2582	0.9388
2591	0.9385
2600	0.9383
2609	0.939
2618	0.9397
2627	0.9404
2636	0.9404
2645	0.94
2654	0.9396
2663	0.9392
2672	0.9389
2681	0.9382
2690	0.9374
2699	0.9366
2708	0.9359
2717	0.9351
2726	0.9343
2735	0.9336
2744	0.933
2753	0.9324
2762	0.9318
2771	0.9311
2780	0.9304
2789	0.9297
2798	0.929
2807	0.9279
2816	0.9263
2825	0.9248
2834	0.9243
2843	0.9236
2852	0.9237
2861	0.924
2870	0.9251
2879	0.9262
2888	0.9245
2897	0.9146
2906	0.9035
2915	0.9087
2924	0.9109
2933	0.9035
2942	0.8924
2951	0.8968
2960	0.9116
2969	0.9203
2978	0.9249
2987	0.9345
2996	0.9396
3005	0.9425
3014	0.9447
3023	0.9442
3032	0.9438
3041	0.9454
3050	0.9495
3059	0.9498
3068	0.9501
3077	0.95
3086	0.9497
3095	0.9487
3104	0.9478
3113	0.9462
3122	0.9431
3131	0.939
3140	0.9326
3149	0.9394
3158	0.9464
3167	0.9482
3176	0.9486
3185	0.9488
3194	0.9491
3203	0.9496
3212	0.9501
3221	0.9507
3230	0.9516
3239	0.9525
3248	0.9534
3257	0.9539
3266	0.954
3275	0.954
3284	0.954
3293	0.954
3302	0.9541
3311	0.9541
3320	0.9541
3329	0.9541
3338	0.9541
3347	0.9541
3356	0.9541
3365	0.9542
3374	0.9543
3383	0.9544
3392	0.9545
3401	0.9546
3410	0.9547
3419	0.9548
3428	0.955
3437	0.9553
3446	0.9556
3455	0.9558
3464	0.9561
3473	0.9564
3482	0.9565
3491	0.9565
3500	0.9565
3509	0.9565
3518	0.9565
3527	0.9565
3536	0.9565
3545	0.9564
3554	0.9564
3563	0.9564
3572	0.9564
3581	0.9563
3590	0.9562
3599	0.9562
3608	0.9562
3617	0.9563
3626	0.9561
3635	0.9545
3644	0.9525
3653	0.949
3662	0.9472
3671	0.9482
3680	0.9506
3689	0.9526
3698	0.9497
3707	0.9432
3716	0.9464
3725	0.9532
3734	0.9616
3743	0.9678
3752	0.9661
3761	0.9603
3770	0.9507
3779	0.9498
3788	0.9514
3797	0.9536
3806	0.9544
