Infrared Spectrum: TRIMETHYLCHLOROSILANE
Formula: C3 H9 Cl Si
CAS: 75-77-4
State: LIQUID
Class: COBLENTZ
Instrument: Not specified, most likely a prism, grating, or hybrid spectrometer.
Sampling: TRANSMISSION
Path length: 0.003 CM
Resolution: 4
Origin: WYANDOTTE CHEMICALS CORP., WYANDOTTE, MICHIGAN, USA
MICROMETERS	TRANSMITTANCE
2.027	0.988
2.06792	0.988
2.10884	0.981
2.14975	0.974
2.19067	0.933
2.23159	0.964
2.27251	0.967
2.31342	0.976
2.35434	0.982
2.39526	0.979
2.43618	0.972
2.47709	0.984
2.51801	0.981
2.55893	0.942
2.59985	0.931
2.64077	0.938
2.68168	0.947
2.7226	0.962
2.76352	0.965
2.80444	0.976
2.84535	0.972
2.88627	0.967
2.92719	0.969
2.96811	0.974
3.00903	0.972
3.04994	0.954
3.09086	0.92
3.13178	0.88
3.1727	0.833
3.21361	0.823
3.25453	0.814
3.29545	0.75
3.33637	0.176
3.37728	0.493
3.4182	0.505
3.45912	0.663
3.50004	0.78
3.54096	0.824
3.58187	0.831
3.62279	0.897
3.66371	0.914
3.70463	0.921
3.74554	0.931
3.78646	0.938
3.82738	0.948
3.8683	0.952
3.90921	0.952
3.95013	0.95
3.99105	0.945
4.03197	0.933
4.07289	0.95
4.1138	0.952
4.15472	0.943
4.19564	0.943
4.23656	0.94
4.27747	0.964
4.31839	0.959
4.35931	0.965
4.40023	0.965
4.44115	0.959
4.48206	0.959
4.52298	0.965
4.5639	0.969
4.60482	0.967
4.64573	0.962
4.68665	0.95
4.72757	0.947
4.76849	0.92
4.8094	0.943
4.85032	0.959
4.89124	0.969
4.93216	0.959
4.97308	0.931
5.01399	0.911
5.05491	0.947
5.09583	0.943
5.13675	0.923
5.17766	0.901
5.21858	0.95
5.2595	0.952
5.30042	0.877
5.34133	0.93
5.38225	0.959
5.42317	0.971
5.46409	0.971
5.50501	0.971
5.54592	0.969
5.58684	0.965
5.62776	0.952
5.66868	0.948
5.70959	0.947
5.75051	0.94
5.79143	0.942
5.83235	0.945
5.87327	0.943
5.91418	0.937
5.9551	0.933
5.99602	0.93
6.03694	0.923
6.07785	0.92
6.11877	0.914
6.15969	0.906
6.20061	0.899
6.24152	0.889
6.28244	0.886
6.32336	0.886
6.36428	0.882
6.4052	0.882
6.44611	0.874
6.48703	0.863
6.52795	0.863
6.56887	0.855
6.60978	0.846
6.6507	0.828
6.69162	0.809
6.73254	0.755
6.77346	0.647
6.81437	0.617
6.85529	0.646
6.89621	0.7
6.93713	0.678
6.97804	0.573
7.01896	0.455
7.05988	0.43
7.1008	0.535
7.14171	0.608
7.18263	0.664
7.22355	0.69
7.26447	0.727
7.30539	0.767
7.3463	0.79
7.38722	0.79
7.42814	0.744
7.46906	0.692
7.50997	0.738
7.55089	0.79
7.59181	0.816
7.63273	0.809
7.67364	0.787
7.71456	0.755
7.75548	0.688
7.7964	0.527
7.83732	0.329
7.87823	0.161
7.91915	0.035
7.96007	0.039
8.00099	0.147
8.0419	0.438
8.08282	0.608
8.12374	0.709
8.16466	0.768
8.20558	0.818
8.24649	0.829
8.28741	0.855
8.32833	0.872
8.36925	0.889
8.41016	0.897
8.45108	0.904
8.492	0.911
8.53292	0.916
8.57383	0.918
8.61475	0.923
8.65567	0.928
8.69659	0.931
8.73751	0.94
8.77842	0.945
8.81934	0.926
8.86026	0.903
8.90118	0.884
8.94209	0.865
8.98301	0.838
9.02393	0.818
9.06485	0.811
9.10576	0.812
9.14668	0.801
9.1876	0.767
9.22852	0.743
9.26944	0.717
9.31035	0.709
9.35127	0.726
9.39219	0.744
9.43311	0.767
9.47402	0.78
9.51494	0.795
9.55586	0.806
9.59678	0.814
9.6377	0.818
9.67861	0.821
9.71953	0.826
9.76045	0.831
9.80137	0.836
9.84228	0.836
9.8832	0.841
9.92412	0.85
9.96504	0.857
10.006	0.865
10.0469	0.872
10.0878	0.872
10.1287	0.867
10.1696	0.872
10.2105	0.872
10.2515	0.867
10.2924	0.867
10.3333	0.855
10.3742	0.843
10.4151	0.828
10.456	0.812
10.497	0.797
10.5379	0.765
10.5788	0.738
10.6197	0.717
10.6606	0.707
10.7016	0.693
10.7425	0.683
10.7834	0.668
10.8243	0.656
10.8652	0.647
10.9061	0.627
10.9471	0.602
10.988	0.585
11.0289	0.562
11.0698	0.515
11.1107	0.467
11.1517	0.426
11.1926	0.375
11.2335	0.318
11.2744	0.267
11.3153	0.221
11.3562	0.175
11.3972	0.134
11.4381	0.095
11.479	0.064
11.5199	0.051
11.5608	0.044
11.6017	0.042
11.6427	0.04
11.6836	0.039
11.7245	0.04
11.7654	0.04
11.8063	0.04
11.8473	0.042
11.8882	0.039
11.9291	0.051
11.97	0.076
12.0109	0.11
12.0518	0.163
12.0928	0.151
12.1337	0.125
12.1746	0.1
12.2155	0.124
12.2564	0.164
12.2973	0.224
12.3383	0.285
12.3792	0.34
12.4201	0.382
12.461	0.411
12.5019	0.442
12.5429	0.469
12.5838	0.489
12.6247	0.508
12.6656	0.518
12.7065	0.518
12.7474	0.511
12.7884	0.486
12.8293	0.455
12.8702	0.413
12.9111	0.358
12.952	0.284
12.9929	0.215
13.0339	0.129
13.0748	0.078
13.1157	0.061
13.1566	0.057
13.1975	0.073
13.2385	0.134
13.2794	0.234
13.3203	0.338
13.3612	0.431
13.4021	0.496
13.443	0.552
13.484	0.586
13.5249	0.603
13.5658	0.62
13.6067	0.632
13.6476	0.636
13.6885	0.641
13.7295	0.639
13.7704	0.636
13.8113	0.632
13.8522	0.624
13.8931	0.619
13.9341	0.608
13.975	0.596
14.0159	0.585
14.0568	0.574
14.0977	0.566
14.1386	0.547
14.1796	0.525
14.2205	0.496
14.2614	0.472
14.3023	0.445
14.3432	0.43
14.3842	0.442
14.4251	0.482
14.466	0.549
14.5069	0.615
14.5478	0.647
14.5887	0.683
14.6297	0.704
14.6706	0.729
14.7115	0.741
14.7524	0.755
14.7933	0.761
14.8342	0.77
14.8752	0.772
14.9161	0.77
14.957	0.765
14.9979	0.76
15.0388	0.75
15.0798	0.755
15.1207	0.753
15.1616	0.746
15.2025	0.738
15.2434	0.729
15.2843	0.715
15.3253	0.712
15.3662	0.7
15.4071	0.688
15.448	0.67
15.4889	0.647
15.5298	0.612
15.5708	0.586
15.6117	0.557
15.6526	0.523
15.6935	0.505
15.7344	0.505
15.7754	0.518
15.8163	0.53
15.8572	0.551
15.8981	0.578
15.939	0.605
15.9799	0.632
