Infrared Spectrum: Dichlorodimethylsilane
Formula: C 2 H 6 Cl 2 Si
CAS: 75-78-5
State: gas
Origin: EPA-IR VAPOR PHASE LIBRARY
1/CM	ABSORBANCE
501.5	0.018205
513.074	0.042075
524.648	0.134565
536.222	0.268295
547.796	0.264185
559.37	0.114005
570.944	0.021455
582.518	0.010215
594.092	0.006895
605.666	0.005395
617.24	0.005545
628.814	0.006165
640.388	0.007005
651.962	0.009965
663.536	0.028635
675.11	0.074735
686.684	0.112595
698.258	0.086685
709.832	0.040025
721.406	0.020205
732.98	0.015695
744.554	0.017765
756.128	0.024045
767.702	0.032445
779.276	0.062555
790.85	0.140335
802.423	0.259065
813.997	0.301985
825.571	0.279485
837.145	0.255965
848.719	0.193635
860.293	0.117375
871.867	0.068495
883.441	0.046865
895.015	0.035385
906.589	0.025595
918.163	0.017625
929.737	0.012205
941.311	0.008605
952.885	0.006145
964.459	0.005255
976.033	0.005645
987.607	0.006955
999.181	0.009105
1010.76	0.009955
1022.33	0.008215
1033.9	0.006375
1045.48	0.005855
1057.05	0.005895
1068.63	0.005465
1080.2	0.004605
1091.77	0.003505
1103.35	0.002415
1114.92	0.001865
1126.49	0.001915
1138.07	0.001745
1149.64	0.001505
1161.22	0.001515
1172.79	0.001555
1184.36	0.001325
1195.94	0.001355
1207.51	0.002045
1219.09	0.004385
1230.66	0.009995
1242.23	0.028455
1253.81	0.072265
1265.38	0.114355
1276.96	0.080575
1288.53	0.027625
1300.1	0.006205
1311.68	0.003335
1323.25	0.002745
1334.83	0.002715
1346.4	0.002785
1357.97	0.003165
1369.55	0.004315
1381.12	0.006835
1392.7	0.011435
1404.27	0.015555
1415.84	0.014495
1427.42	0.009345
1438.99	0.004615
1450.57	0.003125
1462.14	0.002885
1473.71	0.003015
1485.29	0.003155
1496.86	0.002875
1508.44	0.002525
1520.01	0.002315
1531.58	0.002095
1543.16	0.001935
1554.73	0.001835
1566.31	0.001745
1577.88	0.001565
1589.45	0.001225
1601.03	0.0007772
1612.6	0.0006084
1624.18	0.0005776
1635.75	0.0006849
1647.32	0.0006157
1658.9	0.0003329
1670.47	0.0001747
1682.05	0.0001007
1693.62	9e-05
1705.19	0.0002069
1716.77	0.0003905
1728.34	0.0005216
1739.92	0.0005609
1751.49	0.0003476
1763.06	0.0001494
1774.64	0.0001288
1786.21	0.0001561
1797.79	0.0001414
1809.36	0.0001837
1820.93	0.000172
1832.51	0.0001258
1844.08	0.0001684
1855.66	0.0001195
1867.23	0.0001749
1878.8	0.00018965
1890.38	0.00023327
1901.95	0.0004472
1913.53	0.0007551
1925.1	0.001445
1936.67	0.002625
1948.25	0.003535
1959.82	0.002955
1971.4	0.001685
1982.97	0.0009399
1994.54	0.0007679
2006.12	0.0007189
2017.69	0.0007691
2029.27	0.0008252
2040.84	0.0008944
2052.41	0.001365
2063.99	0.001955
2075.56	0.002185
2087.14	0.001685
2098.71	0.001265
2110.28	0.0011363
2121.86	0.0009455
2133.43	0.0008167
2145.01	0.0007987
2156.58	0.0007867
2168.15	0.000738
2179.73	0.0006145
2191.3	0.0004895
2202.88	0.0004821
2214.45	0.0004859
2226.02	0.0005318
2237.6	0.0004589
2249.17	0.0003543
2260.74	0.0003052
2272.32	0.00028658
2283.89	0.00021694
2295.47	0.00022174
2307.04	0.00021529
2318.61	0.000171
2330.19	0.0001533
2341.76	0.0001798
2353.34	0.0001451
2364.91	0.0001332
2376.48	0.0001448
2388.06	7.6e-05
2399.63	9.65e-05
2411.21	9.4e-05
2422.78	0.0001062
2434.35	0.0001054
2445.93	0.0001024
2457.5	6e-05
2469.08	0.000103
2480.65	0.0001339
2492.22	0.00022405
2503.8	0.0003873
2515.37	0.0004245
2526.95	0.000374
2538.52	0.0001444
2550.09	7e-05
2561.67	1.8e-05
2573.24	0
2584.82	5e-05
2596.39	3.6e-05
2607.96	5.8e-05
2619.54	5.2e-05
2631.11	0.0001535
2642.69	0.00020609
2654.26	0.00027266
2665.83	0.0003476
2677.41	0.0003241
2688.98	0.00023938
2700.56	0.0001665
2712.13	0.00020574
2723.7	0.0003289
2735.28	0.0004954
2746.85	0.0006892
2758.43	0.0007465
2770	0.0008471
2781.57	0.0011262
2793.15	0.001575
2804.72	0.001815
2816.3	0.001695
2827.87	0.001375
2839.44	0.001305
2851.02	0.001405
2862.59	0.001535
2874.17	0.001685
2885.74	0.002285
2897.31	0.003615
2908.89	0.005125
2920.46	0.004945
2932.04	0.003525
2943.61	0.003055
2955.18	0.006155
2966.76	0.016695
2978.33	0.026545
2989.91	0.023025
3001.48	0.009745
3013.05	0.003355
3024.63	0.001725
3036.2	0.001565
3047.78	0.001885
3059.35	0.002215
3070.92	0.002485
3082.5	0.002465
3094.07	0.002635
3105.65	0.002635
3117.22	0.002295
3128.79	0.002205
3140.37	0.002285
3151.94	0.002155
3163.52	0.001325
3175.09	0.000712
3186.66	0.000618
3198.24	0.0010913
3209.81	0.001375
3221.39	0.001425
3232.96	0.0009377
3244.53	0.000544
3256.11	0.0003131
3267.68	0.00020561
3279.26	0.0003002
3290.83	8.2e-05
3302.4	0.0001804
3313.98	0.0001455
3325.55	0.00021886
3337.13	0.00025544
3348.7	0.0001016
3360.27	0.00018549
3371.85	0.00019273
3383.42	0.0001844
3395	0.00018612
3406.57	0.0001613
3418.14	9.1e-05
3429.72	0.0001223
3441.29	0.0003537
3452.86	0.0003713
3464.44	0.0001821
3476.01	0.0003551
3487.59	0.0003432
3499.16	0.00022774
3510.73	0.0001732
3522.31	0.0003681
3533.88	0.0004376
3545.46	0.0003137
3557.03	0.0003682
3568.6	0.0005314
3580.18	0.0007197
3591.75	0.0008983
3603.33	0.0009389
3614.9	0.0009504
3626.47	0.0008495
3638.05	0.0010314
3649.62	0.001265
3661.2	0.001495
3672.77	0.001545
3684.34	0.001475
3695.92	0.001545
3707.49	0.001755
3719.07	0.002005
3730.64	0.002185
3742.21	0.002025
3753.79	0.002135
3765.36	0.001895
3776.94	0.001855
3788.51	0.001665
3800.08	0.001225
3811.66	0.0011301
3823.23	0.0009715
3834.81	0.0009599
3846.38	0.0006981
3857.95	0.0004219
3869.53	0.0003928
3881.1	0.0003584
3892.68	0.0003209
3904.25	0.0003193
3915.82	0.00027576
3927.4	0.0003161
3938.97	0.00028301
3950.55	0.000258
3962.12	0.00027718
3973.69	0.0003479
3985.27	0.0001369
3996.84	0.0001312
