Infrared Spectrum: 2,2,2-TRIBROMOETHANOL
Formula: C2 H3 Br3 O
CAS: 75-80-9
State: SOLUTION (10% CCl4 FOR 2-7.5, 10% CS2 FOR 7.5-16.0 MICRON)
Melting point: 80 C
Class: COBLENTZ III
Instrument: BAIRD (PRISM)
Instrument parameters: NaCl PRISM
Sampling: TRANSMISSION
Path length: 0.012 CM, 0.011 CM
Resolution: 2
Origin: DOW CHEMICAL COMPANY
MICROMETERS	TRANSMITTANCE
1.997	0.94
2.03596	0.943
2.07492	0.944
2.11388	0.946
2.15284	0.949
2.1918	0.949
2.23076	0.951
2.26972	0.949
2.30868	0.949
2.34764	0.951
2.3866	0.952
2.42556	0.953
2.46451	0.952
2.50347	0.949
2.54243	0.943
2.58139	0.94
2.62035	0.94
2.65931	0.937
2.69827	0.94
2.73723	0.933
2.77619	0.793
2.81515	0.693
2.85411	0.801
2.89307	0.812
2.93203	0.826
2.97099	0.853
3.00995	0.877
3.04891	0.898
3.08787	0.91
3.12683	0.92
3.16579	0.926
3.20475	0.929
3.24371	0.93
3.28267	0.93
3.32163	0.93
3.36059	0.922
3.39954	0.88
3.4385	0.848
3.47746	0.894
3.51642	0.9
3.55538	0.93
3.59434	0.937
3.6333	0.941
3.67226	0.941
3.71122	0.941
3.75018	0.942
3.78914	0.944
3.8281	0.943
3.86706	0.943
3.90602	0.941
3.94498	0.942
3.98394	0.944
4.0229	0.947
4.06186	0.944
4.10082	0.94
4.13978	0.937
4.17874	0.933
4.2177	0.941
4.25666	0.941
4.29562	0.941
4.33457	0.929
4.37353	0.921
4.41249	0.93
4.45145	0.937
4.49041	0.943
4.52937	0.946
4.56833	0.946
4.60729	0.946
4.64625	0.935
4.68521	0.933
4.72417	0.943
4.76313	0.949
4.80209	0.952
4.84105	0.948
4.88001	0.944
4.91897	0.94
4.95793	0.936
4.99689	0.936
5.03585	0.936
5.07481	0.936
5.11377	0.94
5.15273	0.943
5.19169	0.946
5.23065	0.951
5.2696	0.949
5.30856	0.948
5.34752	0.944
5.38648	0.94
5.42544	0.94
5.4644	0.941
5.50336	0.94
5.54232	0.941
5.58128	0.946
5.62024	0.946
5.6592	0.947
5.69816	0.941
5.73712	0.941
5.77608	0.941
5.81504	0.938
5.854	0.933
5.89296	0.932
5.93192	0.931
5.97088	0.932
6.00984	0.929
6.0488	0.935
6.08776	0.93
6.12672	0.93
6.16568	0.931
6.20463	0.932
6.24359	0.932
6.28255	0.935
6.32151	0.933
6.36047	0.935
6.39943	0.935
6.43839	0.924
6.47735	0.924
6.51631	0.919
6.55527	0.922
6.59423	0.92
6.63319	0.916
6.67215	0.909
6.71111	0.91
6.75007	0.915
6.78903	0.903
6.82799	0.904
6.86695	0.872
6.90591	0.778
6.94487	0.819
6.98383	0.881
7.02279	0.892
7.06175	0.875
7.10071	0.853
7.13966	0.832
7.17862	0.782
7.21758	0.704
7.25654	0.599
7.2955	0.591
7.33446	0.684
7.37342	0.778
7.41238	0.779
7.45134	0.761
7.4903	0.782
7.52926	0.822
7.56822	0.85
7.60718	0.877
7.64614	0.887
7.6851	0.892
7.72406	0.898
7.76302	0.899
7.80198	0.898
7.84094	0.893
7.8799	0.888
7.91886	0.88
7.95782	0.874
7.99678	0.869
8.03574	0.853
8.07469	0.841
8.11365	0.819
8.15261	0.8
8.19157	0.766
8.23053	0.69
8.26949	0.518
8.30845	0.437
8.34741	0.661
8.38637	0.768
8.42533	0.823
8.46429	0.85
8.50325	0.86
8.54221	0.869
8.58117	0.871
8.62013	0.875
8.65909	0.875
8.69805	0.87
8.73701	0.871
8.77597	0.869
8.81493	0.866
8.85389	0.869
8.89285	0.866
8.93181	0.86
8.97077	0.853
9.00972	0.839
9.04868	0.823
9.08764	0.784
9.1266	0.701
9.16556	0.561
9.20452	0.381
9.24348	0.146
9.28244	0.154
9.3214	0.339
9.36036	0.573
9.39932	0.71
9.43828	0.771
9.47724	0.814
9.5162	0.843
9.55516	0.86
9.59412	0.867
9.63308	0.871
9.67204	0.87
9.711	0.864
9.74996	0.852
9.78892	0.831
9.82788	0.777
9.86684	0.689
9.90579	0.573
9.94475	0.545
9.98371	0.578
10.0227	0.629
10.0616	0.617
10.1006	0.548
10.1396	0.42
10.1785	0.454
10.2175	0.66
10.2564	0.739
10.2954	0.783
10.3344	0.809
10.3733	0.83
10.4123	0.85
10.4512	0.863
10.4902	0.874
10.5291	0.88
10.5681	0.891
10.6071	0.899
10.646	0.902
10.685	0.902
10.7239	0.904
10.7629	0.909
10.8019	0.909
10.8408	0.91
10.8798	0.91
10.9187	0.911
10.9577	0.914
10.9967	0.915
11.0356	0.915
11.0746	0.914
11.1135	0.913
11.1525	0.913
11.1915	0.914
11.2304	0.914
11.2694	0.911
11.3083	0.905
11.3473	0.904
11.3863	0.902
11.4252	0.902
11.4642	0.9
11.5031	0.899
11.5421	0.9
11.5811	0.899
11.62	0.894
11.659	0.894
11.6979	0.894
11.7369	0.897
11.7759	0.898
11.8148	0.899
11.8538	0.902
11.8927	0.905
11.9317	0.91
11.9707	0.911
12.0096	0.911
12.0486	0.913
12.0875	0.911
12.1265	0.911
12.1655	0.91
12.2044	0.91
12.2434	0.91
12.2823	0.91
12.3213	0.903
12.3602	0.899
12.3992	0.889
12.4382	0.882
12.4771	0.88
12.5161	0.877
12.555	0.882
12.594	0.887
12.633	0.888
12.6719	0.886
12.7109	0.886
12.7498	0.887
12.7888	0.883
12.8278	0.886
12.8667	0.881
12.9057	0.874
12.9446	0.864
12.9836	0.852
13.0226	0.832
13.0615	0.797
13.1005	0.754
13.1394	0.711
13.1784	0.644
13.2174	0.583
13.2563	0.519
13.2953	0.44
13.3342	0.349
13.3732	0.26
13.4122	0.206
13.4511	0.189
13.4901	0.19
13.529	0.249
13.568	0.349
13.607	0.48
13.6459	0.581
13.6849	0.667
13.7238	0.731
13.7628	0.778
13.8018	0.804
13.8407	0.823
13.8797	0.841
13.9186	0.852
13.9576	0.866
13.9966	0.874
14.0355	0.883
14.0745	0.891
14.1134	0.896
14.1524	0.9
14.1913	0.902
14.2303	0.902
14.2693	0.902
14.3082	0.902
14.3472	0.903
14.3861	0.905
14.4251	0.918
14.4641	0.921
14.503	0.927
14.542	0.931
14.5809	0.935
14.6199	0.941
14.6589	0.942
14.6978	0.942
14.7368	0.938
14.7757	0.936
14.8147	0.935
14.8537	0.933
14.8926	0.933
14.9316	0.936
14.9705	0.938
15.0095	0.937
15.0485	0.935
15.0874	0.932
15.1264	0.933
15.1653	0.932
15.2043	0.931
15.2433	0.931
15.2822	0.932
15.3212	0.926
15.3601	0.92
15.3991	0.916
15.4381	0.911
15.477	0.903
15.516	0.889
15.5549	0.877
15.5939	0.865
15.6329	0.85
15.6718	0.842
15.7108	0.832
15.7497	0.82
15.7887	0.81
15.8277	0.801
15.8666	0.795
15.9056	0.793
15.9445	0.788
