Infrared Spectrum: Dalapon-acid
Formula: C 3 H 4 Cl 2 O 2
CAS: 75-99-0
State: gas
Instrument: HP-GC/MS/IRD
Origin: NIST Mass Spectrometry Data Center
1/CM	ABSORBANCE
550	0.0024728
562	0.0019833
574	0.0019514
586	0.0017721
598	0.0014729
610	0.0013002
622	0.0013497
634	0.0019536
646	0.0035365
658	0.00484
670	0.0051128
682	0.0039259
694	0.0025883
706	0.002002
718	0.0015829
730	0.0008943
742	0.0006534
754	0.000715
766	0.0007106
778	0.0011869
790	0.0014971
802	0.0011693
814	0.0006699
826	0.0006501
838	0.0005654
850	0.0004312
862	0.0004554
874	0.0001826
886	0
898	0.0001111
910	0.0001232
922	0.0002266
934	0.0003905
946	0.0002299
958	0.0002695
970	0.0003388
982	0.0003388
994	0.0003311
1006	0.000539
1018	0.0005775
1030	0.0010637
1042	0.0017281
1054	0.0036828
1066	0.006501
1078	0.0080828
1090	0.0069036
1102	0.0059862
1114	0.0056771
1126	0.0046453
1138	0.0032714
1150	0.0029326
1162	0.0038478
1174	0.004224
1186	0.0035728
1198	0.0026466
1210	0.0023243
1222	0.0019547
1234	0.0014916
1246	0.0009966
1258	0.0008481
1270	0.0008085
1282	0.0007656
1294	0.0011143
1306	0.0020812
1318	0.0035629
1330	0.0040436
1342	0.0028281
1354	0.0016786
1366	0.0015191
1378	0.0017138
1390	0.0017446
1402	0.0011055
1414	0.0006083
1426	0.0005324
1438	0.0007986
1450	0.0009328
1462	0.0006446
1474	0.0003399
1486	0.0002332
1498	0.0002552
1510	0.0002343
1522	0.0002464
1534	0.0002299
1546	0.000209
1558	0.0002486
1570	0.00022
1582	0.0002167
1594	0.0003102
1606	0.0003245
1618	0.0003168
1630	0.0001683
1642	7.92e-05
1654	0.0001034
1666	6.49e-05
1678	4.51e-05
1690	6.38e-05
1702	0.0001672
1714	0.0002772
1726	0.0005731
1738	0.0011506
1750	0.0023177
1762	0.0053064
1774	0.009471
1786	0.0101673
1798	0.0090156
1810	0.0070939
1822	0.0037268
1834	0.0018315
1846	0.0008327
1858	0.0003971
1870	0.0002442
1882	0.0001551
1894	9.02e-05
1906	0.0001177
1918	9.13e-05
1930	5.94e-05
1942	2.2e-05
1954	1.21e-05
1966	6.05e-05
1978	4.73e-05
1990	6.49e-05
2002	8.25e-05
2014	7.59e-05
2026	9.46e-05
2038	8.69e-05
2050	0.0001408
2062	0.0001232
2074	0.0002398
2086	0.0003828
2098	0.0005764
2110	0.0009064
2122	0.0011165
2134	0.0011715
2146	0.0009988
2158	0.0014267
2170	0.0013959
2182	0.0007535
2194	0.0004268
2206	0.0003157
2218	0.0002486
2230	0.0001342
2242	0.0001254
2254	0.0001034
2266	8.58e-05
2278	0.0001111
2290	0.0002134
2302	0.0003036
2314	0.0004378
2326	0.0005291
2338	0.0005467
2350	0.0004279
2362	0.000715
2374	0.0005203
2386	0.0001705
2398	0.0001045
2410	7.37e-05
2422	0.0001034
2434	0.0001463
2446	0.0001012
2458	0.0001276
2470	0.0001144
2482	0.0001199
2494	6.93e-05
2506	0.0001133
2518	0.000121
2530	0.0001111
2542	3.19e-05
2554	9.13e-05
2566	5.17e-05
2578	1.98e-05
2590	3.85e-05
2602	4.95e-05
2614	3.85e-05
2626	4.07e-05
2638	5.72e-05
2650	2.2e-06
2662	6.16e-05
2674	4.4e-05
2686	2.2e-05
2698	5.94e-05
2710	6.6e-05
2722	3.63e-05
2734	3.41e-05
2746	5.61e-05
2758	5.83e-05
2770	0.0001111
2782	3.3e-05
2794	5.83e-05
2806	3.74e-05
2818	0.0001111
2830	9.35e-05
2842	7.37e-05
2854	0.0001155
2866	0.0001474
2878	0.0001529
2890	0.0001353
2902	0.0001243
2914	0.0001089
2926	0.0001441
2938	0.0002431
2950	0.0003047
2962	0.0001683
2974	0.0002046
2986	0.0002123
2998	0.0003333
3010	0.0004939
3022	0.0004213
3034	0.0001903
3046	0.0001958
3058	0.000132
3070	0.0002002
3082	0.0001122
3094	0.0001001
3106	4.4e-06
3118	2.31e-05
3130	6.93e-05
3142	2.75e-05
3154	3.63e-05
3166	4.84e-05
3178	8.8e-06
3190	8.14e-05
3202	3.63e-05
3214	0.0001089
3226	3.3e-05
3238	8.69e-05
3250	7.04e-05
3262	0.0001298
3274	0.0001342
3286	4.18e-05
3298	8.91e-05
3310	7.04e-05
3322	7.37e-05
3334	6.16e-05
3346	6.38e-05
3358	7.26e-05
3370	8.91e-05
3382	0.0001045
3394	6.6e-05
3406	1.1e-05
3418	0.0001276
3430	0.000132
3442	0.0001166
3454	0.0001199
3466	0.0001298
3478	0.0001925
3490	0.0002321
3502	0.0003674
3514	0.0003564
3526	0.0005841
3538	0.0008657
3550	0.0012408
3562	0.0025652
3574	0.0051348
3586	0.0049962
3598	0.0021208
3610	0.0004378
3622	0.0002794
3634	0.000253
3646	0.0002222
3658	0.0002618
3670	0.0002541
3682	0.0002222
3694	0.0002002
3706	0.0002508
3718	0.000187
3730	0.0001694
3742	0.000253
3754	0.0001936
3766	0.0002288
3778	0.0002035
3790	0.0001408
3802	0.0003113
3814	0.000209
3826	0.0001628
3838	0.0003564
