Infrared Spectrum: Formamide, N-(4-amino-6-chloro-5-pyrimidinyl)-
Formula: C5 H5 Cl N4 O
CAS: 7501-32-8
State: SOLID (0.8 mg / 650 mg KBr DISC)
Class: COBLENTZ III
Instrument: PERKIN-ELMER 221 (GRATING)
Instrument parameters: FILTER AT 980 CM^-^1. GRATING 4000-1428 CM^-^1, NaCl PRISM 1428-650 CM^-^1
Resolution: 2
Origin: SOUTHERN RESEARCH INSTITUTE
1/CM	TRANSMITTANCE
628.7	0.6461
637.744	0.5881
646.787	0.64
655.831	0.7864
664.874	0.789
673.918	0.7903
682.961	0.8011
692.005	0.8204
701.048	0.8285
710.092	0.8281
719.135	0.8246
728.179	0.8196
737.222	0.8109
746.266	0.7947
755.309	0.7658
764.353	0.6789
773.396	0.7884
782.44	0.7774
791.483	0.758
800.527	0.7268
809.57	0.6156
818.614	0.567
827.657	0.7029
836.701	0.7887
845.744	0.7815
854.788	0.7302
863.831	0.5531
872.875	0.7378
881.919	0.8111
890.962	0.8055
900.006	0.7926
909.049	0.78
918.093	0.7661
927.136	0.7484
936.18	0.7216
945.223	0.6951
954.267	0.5044
963.31	0.5721
972.354	0.7316
981.397	0.5731
990.441	0.756
999.484	0.7574
1008.53	0.7007
1017.57	0.6893
1026.61	0.6781
1035.66	0.6708
1044.7	0.7351
1053.75	0.7339
1062.79	0.7279
1071.83	0.7178
1080.88	0.7077
1089.92	0.6976
1098.96	0.6901
1108.01	0.6836
1117.05	0.6739
1126.09	0.6509
1135.14	0.6515
1144.18	0.6853
1153.22	0.6815
1162.27	0.676
1171.31	0.6656
1180.35	0.6399
1189.4	0.6248
1198.44	0.631
1207.49	0.6278
1216.53	0.6147
1225.57	0.5855
1234.62	0.5346
1243.66	0.4657
1252.7	0.4299
1261.75	0.6019
1270.79	0.6912
1279.83	0.6906
1288.88	0.6823
1297.92	0.6682
1306.96	0.6502
1316.01	0.6316
1325.05	0.6129
1334.09	0.5794
1343.14	0.503
1352.18	0.6079
1361.22	0.5832
1370.27	0.464
1379.31	0.3434
1388.36	0.3985
1397.4	0.5482
1406.44	0.5821
1415.49	0.6589
1424.53	0.6232
1433.57	0.6131
1442.62	0.5731
1451.66	0.541
1460.7	0.4959
1469.75	0.4249
1478.79	0.4957
1487.83	0.5309
1496.88	0.521
1505.92	0.388
1514.96	0.2811
1524.01	0.3574
1533.05	0.4359
1542.1	0.3529
1551.14	0.5214
1560.18	0.6054
1569.23	0.5486
1578.27	0.3601
1587.31	0.5561
1596.36	0.6164
1605.4	0.5239
1614.44	0.438
1623.49	0.2844
1632.53	0.2568
1641.57	0.2482
1650.62	0.2266
1659.66	0.3325
1668.7	0.4567
1677.75	0.5447
1686.79	0.5982
1695.84	0.6388
1704.88	0.6846
1713.92	0.7219
1722.97	0.7472
1732.01	0.7698
1741.05	0.7877
1750.1	0.8023
1759.14	0.8132
1768.18	0.8222
1777.23	0.8276
1786.27	0.8323
1795.31	0.8437
1804.36	0.8588
1813.4	0.8636
1822.44	0.8645
1831.49	0.8639
1840.53	0.8631
1849.57	0.8623
1858.62	0.8608
1867.66	0.8591
1876.71	0.857
1885.75	0.8534
1894.79	0.8496
1903.84	0.8479
1912.88	0.8464
1921.92	0.8458
1930.97	0.8454
1940.01	0.8417
1949.05	0.832
1958.1	0.8227
1967.14	0.8173
1976.18	0.8181
1985.23	0.821
1994.27	0.8211
2003.31	0.8184
2012.36	0.8146
2021.4	0.8108
2030.45	0.8068
2039.49	0.802
2048.53	0.7991
2057.58	0.7996
2066.62	0.8002
2075.66	0.8006
2084.71	0.8006
2093.75	0.8003
2102.79	0.7993
2111.84	0.797
2120.88	0.7937
2129.92	0.7885
2138.97	0.7859
2148.01	0.7853
2157.05	0.7852
2166.1	0.7849
2175.14	0.7835
2184.19	0.7819
2193.23	0.78
2202.27	0.7782
2211.32	0.7774
2220.36	0.7767
2229.4	0.7759
2238.45	0.7749
2247.49	0.7737
2256.53	0.7725
2265.58	0.7715
2274.62	0.771
2283.66	0.7705
2292.71	0.7694
2301.75	0.7681
2310.79	0.7643
2319.84	0.7595
2328.88	0.7542
2337.92	0.7488
2346.97	0.744
2356.01	0.7408
2365.06	0.7401
2374.1	0.7433
2383.14	0.7447
2392.19	0.7432
2401.23	0.7413
2410.27	0.739
2419.32	0.7363
2428.36	0.7336
2437.4	0.7313
2446.45	0.7296
2455.49	0.7279
2464.53	0.725
2473.58	0.7147
2482.62	0.7019
2491.66	0.7278
2500.71	0.7319
2509.75	0.732
2518.8	0.7297
2527.84	0.7269
2536.88	0.7245
2545.93	0.7223
2554.97	0.7197
2564.01	0.7171
2573.06	0.7149
2582.1	0.7132
2591.14	0.7115
2600.19	0.7101
2609.23	0.7087
2618.27	0.7047
2627.32	0.7006
2636.36	0.6975
2645.4	0.6954
2654.45	0.694
2663.49	0.6944
2672.54	0.6947
2681.58	0.6944
2690.62	0.6923
2699.67	0.6878
2708.71	0.6856
2717.75	0.6833
2726.8	0.6813
2735.84	0.6796
2744.88	0.678
2753.93	0.6769
2762.97	0.6758
2772.01	0.6752
2781.06	0.6745
2790.1	0.674
2799.14	0.6733
2808.19	0.6702
2817.23	0.6669
2826.27	0.6624
2835.32	0.6552
2844.36	0.6444
2853.41	0.6412
2862.45	0.6374
2871.49	0.6327
2880.54	0.6267
2889.58	0.6162
2898.62	0.6032
2907.67	0.5938
2916.71	0.5875
2925.75	0.5894
2934.8	0.6067
2943.84	0.6071
2952.88	0.6014
2961.93	0.5933
2970.97	0.5822
2980.01	0.5659
2989.06	0.5486
2998.1	0.5456
3007.15	0.5529
3016.19	0.5702
3025.23	0.5684
3034.28	0.5623
3043.32	0.5547
3052.36	0.5476
3061.41	0.5406
3070.45	0.5332
3079.49	0.5247
3088.54	0.5156
3097.58	0.5063
3106.62	0.496
3115.67	0.4852
3124.71	0.4711
3133.75	0.4495
3142.8	0.4213
3151.84	0.3907
3160.89	0.3609
3169.93	0.3336
3178.97	0.3367
3188.02	0.3552
3197.06	0.371
3206.1	0.3677
3215.15	0.366
3224.19	0.3742
3233.23	0.4046
3242.28	0.4381
3251.32	0.457
3260.36	0.4574
3269.41	0.4582
3278.45	0.4588
3287.49	0.4627
3296.54	0.4707
3305.58	0.4823
3314.62	0.497
3323.67	0.5264
3332.71	0.55
3341.76	0.5509
3350.8	0.5406
3359.84	0.4959
3368.89	0.4397
3377.93	0.4195
3386.97	0.4363
3396.02	0.4719
3405.06	0.5291
3414.1	0.5692
3423.15	0.5894
3432.19	0.6031
3441.23	0.6144
3450.28	0.6254
3459.32	0.6349
3468.36	0.6427
3477.41	0.6527
3486.45	0.6601
3495.5	0.6654
3504.54	0.6703
3513.58	0.6821
3522.63	0.6853
3531.67	0.6875
3540.71	0.6902
3549.76	0.6953
3558.8	0.7083
3567.84	0.7141
3576.89	0.7189
3585.93	0.7257
3594.97	0.7329
3604.02	0.742
3613.06	0.7505
3622.1	0.7561
3631.15	0.7585
3640.19	0.7594
3649.24	0.7574
3658.28	0.7591
3667.32	0.7587
3676.37	0.7583
3685.41	0.7579
3694.45	0.7576
3703.5	0.7573
3712.54	0.7571
3721.58	0.7566
3730.63	0.756
3739.67	0.7553
3748.71	0.7546
3757.76	0.7542
3766.8	0.7537
3775.84	0.7533
3784.89	0.7528
3793.93	0.752
3802.97	0.7507
3812.02	0.7495
3821.06	0.7487
3830.11	0.7483
3839.15	0.7479
3848.19	0.7475
3857.24	0.7471
3866.28	0.7466
3875.32	0.7464
3884.37	0.7461
3893.41	0.7458
3902.45	0.7455
3911.5	0.745
3920.54	0.7444
3929.58	0.7441
3938.63	0.7443
3947.67	0.7445
3956.71	0.7448
3965.76	0.7452
3974.8	0.7455
3983.85	0.7452
3992.89	0.745
4001.93	0.7447
4010.98	0.7444
