Infrared Spectrum: 1,2,5-THIADIAZOLE, 3-(N-BUTYLCARBAMOYL)-4-UREIDO-
Formula: C8 H13 N5 O2 S
CAS: 7501-18-0
State: SOLID (0.9 mg / 650 mg KBr DISC)
Class: COBLENTZ III
Instrument: PERKIN-ELMER 221 (GRATING)
Instrument parameters: FILTER AT 2490, 980 CM^-^1. GRATING 4000-1428 CM^-^1, NaCl PRISM 1428-650 CM^-^1
Sampling: TRANSMISSION
Resolution: 2
Origin: SOUTHERN RESEARCH INSTITUTE
1/CM	TRANSMITTANCE
609.692	0.649
618.868	0.643
628.044	0.6381
637.22	0.6082
646.396	0.5604
655.572	0.5573
664.748	0.6217
673.924	0.624
683.1	0.6018
692.276	0.5342
701.452	0.462
710.628	0.4519
719.804	0.4802
728.98	0.52
738.156	0.499
747.332	0.5314
756.508	0.55
765.684	0.5111
774.86	0.4955
784.036	0.3727
793.212	0.283
802.388	0.3688
811.564	0.4695
820.74	0.4743
829.916	0.3208
839.092	0.5756
848.268	0.615
857.444	0.3667
866.62	0.4483
875.796	0.7061
884.972	0.713
894.148	0.7095
903.324	0.6955
912.5	0.6616
921.676	0.505
930.852	0.6872
940.029	0.7061
949.205	0.6932
958.381	0.6699
967.557	0.6592
976.733	0.5917
985.909	0.5393
995.085	0.6846
1004.26	0.689
1013.44	0.6805
1022.61	0.6716
1031.79	0.6609
1040.96	0.6524
1050.14	0.6445
1059.32	0.6378
1068.49	0.6298
1077.67	0.622
1086.84	0.6119
1096.02	0.5961
1105.2	0.5366
1114.37	0.5165
1123.55	0.4416
1132.72	0.4145
1141.9	0.3755
1151.08	0.3501
1160.25	0.4897
1169.43	0.517
1178.6	0.5155
1187.78	0.4955
1196.96	0.461
1206.13	0.412
1215.31	0.305
1224.48	0.2934
1233.66	0.2468
1242.84	0.1468
1252.01	0.1872
1261.19	0.338
1270.37	0.45
1279.54	0.4482
1288.72	0.42
1297.89	0.3838
1307.07	0.382
1316.25	0.3709
1325.42	0.3372
1334.6	0.281
1343.77	0.2507
1352.95	0.1712
1362.13	0.105
1371.3	0.105
1380.48	0.1028
1389.65	0.0901
1398.83	0.0811
1408.01	0.1196
1417.18	0.226
1426.36	0.3121
1435.53	0.2932
1444.71	0.2983
1453.89	0.2935
1463.06	0.269
1472.24	0.2949
1481.41	0.2756
1490.59	0.1402
1499.77	0.1019
1508.94	0.145
1518.12	0.1233
1527.29	0.128
1536.47	0.0681
1545.65	0.03
1554.82	0.0592
1564	0.1891
1573.17	0.256
1582.35	0.248
1591.53	0.2312
1600.7	0.1038
1609.88	0.063
1619.05	0.1362
1628.23	0.159
1637.41	0.0999
1646.58	0.0202
1655.76	0.0225
1664.93	0.0473
1674.11	0.236
1683.29	0.1891
1692.46	0.051
1701.64	0.0595
1710.81	0.0978
1719.99	0.1295
1729.17	0.3132
1738.34	0.4363
1747.52	0.5237
1756.69	0.5782
1765.87	0.6122
1775.05	0.6663
1784.22	0.6952
1793.4	0.716
1802.57	0.7485
1811.75	0.76
1820.93	0.774
1830.1	0.7844
1839.28	0.8062
1848.45	0.8146
1857.63	0.821
1866.81	0.823
1875.98	0.823
1885.16	0.825
1894.33	0.823
1903.51	0.819
1912.69	0.8161
1921.86	0.813
1931.04	0.812
1940.21	0.8092
1949.39	0.806
1958.57	0.805
1967.74	0.8072
1976.92	0.8135
1986.09	0.821
1995.27	0.823
2004.45	0.8248
2013.62	0.8176
2022.8	0.816
2031.97	0.814
2041.15	0.812
2050.33	0.8086
2059.5	0.808
2068.68	0.808
2077.85	0.804
2087.03	0.802
2096.21	0.801
2105.38	0.801
2114.56	0.797
2123.73	0.792
2132.91	0.788
2142.09	0.785
2151.26	0.785
2160.44	0.785
2169.61	0.784
2178.79	0.783
2187.97	0.781
2197.14	0.779
2206.32	0.779
2215.49	0.777
2224.67	0.775
2233.85	0.773
2243.02	0.771
2252.2	0.768
2261.37	0.764
2270.55	0.762
2279.73	0.7586
2288.9	0.7516
2298.08	0.747
2307.25	0.7426
2316.43	0.734
2325.61	0.727
2334.78	0.727
2343.96	0.727
2353.13	0.727
2362.31	0.727
2371.49	0.729
2380.66	0.729
2389.84	0.729
2399.01	0.729
2408.19	0.73
2417.37	0.73
2426.54	0.73
2435.72	0.73
2444.89	0.729
2454.07	0.7282
2463.25	0.727
2472.42	0.726
2481.6	0.725
2490.77	0.7192
2499.95	0.713
2509.13	0.706
2518.3	0.7022
2527.48	0.6966
2536.65	0.6922
2545.83	0.6836
2555.01	0.679
2564.18	0.6732
2573.36	0.671
2582.53	0.6692
2591.71	0.668
2600.89	0.6666
2610.06	0.662
2619.24	0.659
2628.42	0.658
2637.59	0.6522
2646.77	0.6482
2655.94	0.6426
2665.12	0.639
2674.3	0.6352
2683.47	0.633
2692.65	0.632
2701.82	0.629
2711	0.624
2720.18	0.62
2729.35	0.609
2738.53	0.604
2747.7	0.6006
2756.88	0.5948
2766.06	0.5892
2775.23	0.5792
2784.41	0.5728
2793.58	0.5622
2802.76	0.5562
2811.94	0.551
2821.11	0.5344
2830.29	0.5256
2839.46	0.4912
2848.64	0.4776
2857.82	0.4366
2866.99	0.4052
2876.17	0.403
2885.34	0.4414
2894.52	0.431
2903.7	0.3986
2912.87	0.3854
2922.05	0.3412
2931.22	0.2864
2940.4	0.3289
2949.58	0.336
2958.75	0.2774
2967.93	0.272
2977.1	0.3499
2986.28	0.4553
2995.46	0.4834
3004.63	0.4852
3013.81	0.4666
3022.98	0.4582
3032.16	0.4456
3041.34	0.4328
3050.51	0.4246
3059.69	0.4178
3068.86	0.4008
3078.04	0.3786
3087.22	0.3648
3096.39	0.353
3105.57	0.3362
3114.74	0.3144
3123.92	0.2838
3133.1	0.2584
3142.27	0.2326
3151.45	0.2077
3160.62	0.202
3169.8	0.202
3178.98	0.207
3188.15	0.2228
3197.33	0.2394
3206.5	0.244
3215.68	0.248
3224.86	0.253
3234.03	0.2476
3243.21	0.2422
3252.38	0.2342
3261.56	0.2058
3270.74	0.1788
3279.91	0.148
3289.09	0.1294
3298.26	0.108
3307.44	0.0986
3316.62	0.098
3325.79	0.1072
3334.97	0.1397
3344.14	0.155
3353.32	0.1616
3362.5	0.1734
3371.67	0.173
3380.85	0.1362
3390.02	0.131
3399.2	0.1366
3408.38	0.1406
3417.55	0.1724
3426.73	0.2614
3435.9	0.3663
3445.08	0.4303
3454.26	0.4817
3463.43	0.5102
3472.61	0.5466
3481.78	0.5606
3490.96	0.5748
3500.14	0.5932
3509.31	0.6044
3518.49	0.6142
3527.66	0.6214
3536.84	0.6308
3546.02	0.636
3555.19	0.639
3564.37	0.642
3573.54	0.6454
3582.72	0.6494
3591.9	0.6544
3601.07	0.6624
3610.25	0.6688
3619.42	0.67
3628.6	0.671
3637.78	0.671
3646.95	0.671
3656.13	0.671
3665.3	0.671
3674.48	0.67
3683.66	0.67
3692.83	0.67
3702.01	0.668
3711.18	0.667
3720.36	0.666
3729.54	0.664
3738.71	0.664
3747.89	0.664
3757.06	0.664
3766.24	0.664
3775.42	0.663
3784.59	0.662
3793.77	0.6608
3802.94	0.66
