Infrared Spectrum: Adenosine, 1-ethyl-, hydroiodide
Formula: C12 H18 I N5 O4
CAS: 75018-23-4
State: SOLID (1 mg / 650 mg KBr DISC)
Class: COBLENTZ III
Instrument: PERKIN-ELMER 521 (GRATING)
Instrument parameters: FILTERS AT 3130, 2475, 2000, 1150, 700, 410. GRATING CHANGES: 2000, 620 CM^-^1
Sampling: TRANSMISSION
Resolution: 2
Origin: SOUTHERN RESEARCH INSTITUTE
1/CM	TRANSMITTANCE
250	0.3641
259	0.3896
268	0.4635
277	0.518
286	0.5655
295	0.6077
304	0.6358
313	0.6513
322	0.6696
331	0.7005
340	0.7161
349	0.7275
358	0.7368
367	0.7512
376	0.7601
385	0.738
394	0.7311
403	0.7396
412	0.7398
421	0.7444
430	0.7448
439	0.7519
448	0.7617
457	0.7674
466	0.7684
475	0.7659
484	0.7597
493	0.7458
502	0.728
511	0.7395
520	0.7356
529	0.7293
538	0.727
547	0.7321
556	0.7367
565	0.7537
574	0.7541
583	0.7304
592	0.7314
601	0.729
610	0.7318
619	0.7199
628	0.7155
637	0.6639
646	0.5639
655	0.7661
664	0.7446
673	0.7031
682	0.7392
691	0.7546
700	0.7647
709	0.759
718	0.7489
727	0.7672
736	0.7705
745	0.763
754	0.7666
763	0.7797
772	0.7558
781	0.7905
790	0.8229
799	0.8094
808	0.7796
817	0.6913
826	0.7936
835	0.7992
844	0.7804
853	0.7787
862	0.7579
871	0.7821
880	0.7786
889	0.741
898	0.7603
907	0.7529
916	0.7573
925	0.737
934	0.7571
943	0.7831
952	0.7866
961	0.7791
970	0.7214
979	0.758
988	0.7777
997	0.7751
1006	0.7472
1015	0.734
1024	0.687
1033	0.6648
1042	0.6575
1051	0.6226
1060	0.6116
1069	0.5315
1078	0.4571
1087	0.5026
1096	0.6138
1105	0.5998
1114	0.5536
1123	0.6021
1132	0.6763
1141	0.7367
1150	0.7542
1159	0.75
1168	0.738
1177	0.7171
1186	0.7313
1195	0.7179
1204	0.6797
1213	0.6188
1222	0.5705
1231	0.6463
1240	0.6935
1249	0.7143
1258	0.7051
1267	0.6959
1276	0.6925
1285	0.6995
1294	0.718
1303	0.7174
1312	0.698
1321	0.7016
1330	0.7041
1339	0.7009
1348	0.6529
1357	0.6718
1366	0.7311
1375	0.7296
1384	0.7224
1393	0.7157
1402	0.6802
1411	0.6111
1420	0.6227
1429	0.6895
1438	0.6922
1447	0.7109
1456	0.7328
1465	0.7471
1474	0.754
1483	0.7659
1492	0.7359
1501	0.6294
1510	0.6192
1519	0.7996
1528	0.7988
1537	0.7667
1546	0.7418
1555	0.7722
1564	0.6503
1573	0.5321
1582	0.7554
1591	0.7988
1600	0.786
1609	0.731
1618	0.6335
1627	0.6166
1636	0.707
1645	0.6772
1654	0.5004
1663	0.3235
1672	0.1643
1681	0.3882
1690	0.6424
1699	0.7192
1708	0.7943
1717	0.8344
1726	0.8555
1735	0.8666
1744	0.8675
1753	0.8672
1762	0.8685
1771	0.8669
1780	0.863
1789	0.8699
1798	0.8851
1807	0.8862
1816	0.886
1825	0.8854
1834	0.8842
1843	0.8819
1852	0.8799
1861	0.8776
1870	0.8763
1879	0.8756
1888	0.8757
1897	0.8758
1906	0.8761
1915	0.8768
1924	0.8775
1933	0.8775
1942	0.8776
1951	0.8779
1960	0.8782
1969	0.8788
1978	0.8795
1987	0.8803
1996	0.8822
2005	0.8846
2014	0.886
2023	0.8872
2032	0.8873
2041	0.8873
2050	0.8872
2059	0.8871
2068	0.8869
2077	0.886
2086	0.8851
2095	0.8837
2104	0.8822
2113	0.8807
2122	0.8792
2131	0.8778
2140	0.8765
2149	0.8751
2158	0.8734
2167	0.8718
2176	0.8702
2185	0.8688
2194	0.8673
2203	0.866
2212	0.8646
2221	0.8635
2230	0.8625
2239	0.861
2248	0.8594
2257	0.8579
2266	0.8563
2275	0.8549
2284	0.8539
2293	0.8529
2302	0.8519
2311	0.8509
2320	0.8499
2329	0.8492
2338	0.8485
2347	0.8478
2356	0.8471
2365	0.8463
2374	0.8454
2383	0.8446
2392	0.8437
2401	0.842
2410	0.8403
2419	0.8386
2428	0.8368
2437	0.8351
2446	0.8333
2455	0.832
2464	0.831
2473	0.83
2482	0.8293
2491	0.8286
2500	0.828
2509	0.8277
2518	0.8281
2527	0.8284
2536	0.8287
2545	0.8279
2554	0.827
2563	0.8262
2572	0.8253
2581	0.8243
2590	0.8232
2599	0.8218
2608	0.8203
2617	0.8188
2626	0.8174
2635	0.8163
2644	0.8152
2653	0.8138
2662	0.8109
2671	0.8077
2680	0.8052
2689	0.8025
2698	0.7996
2707	0.7963
2716	0.7931
2725	0.7903
2734	0.7876
2743	0.7846
2752	0.7813
2761	0.7785
2770	0.7758
2779	0.773
2788	0.7706
2797	0.7683
2806	0.7641
2815	0.7598
2824	0.7552
2833	0.7497
2842	0.7437
2851	0.7351
2860	0.7264
2869	0.7208
2878	0.7189
2887	0.7062
2896	0.6907
2905	0.6734
2914	0.6441
2923	0.6235
2932	0.6294
2941	0.6287
2950	0.6402
2959	0.6337
2968	0.6177
2977	0.6093
2986	0.5956
2995	0.5843
3004	0.5732
3013	0.5512
3022	0.5244
3031	0.4977
3040	0.4697
3049	0.43
3058	0.4376
3067	0.4552
3076	0.464
3085	0.4696
3094	0.4806
3103	0.4927
3112	0.5027
3121	0.5099
3130	0.517
3139	0.5323
3148	0.5191
3157	0.5183
3166	0.5184
3175	0.5148
3184	0.502
3193	0.491
3202	0.481
3211	0.471
3220	0.4619
3229	0.4542
3238	0.4487
3247	0.4472
3256	0.4476
3265	0.4476
3274	0.4468
3283	0.4437
3292	0.4408
3301	0.4408
3310	0.4459
3319	0.4539
3328	0.4611
3337	0.4641
3346	0.4659
3355	0.4673
3364	0.4714
3373	0.4775
3382	0.4839
3391	0.4908
3400	0.4978
3409	0.5044
3418	0.514
3427	0.5173
3436	0.5175
3445	0.518
3454	0.5195
3463	0.5288
3472	0.5466
3481	0.575
3490	0.6012
3499	0.6222
3508	0.6438
3517	0.6647
3526	0.6868
3535	0.7079
3544	0.7297
3553	0.7488
3562	0.7645
3571	0.781
3580	0.796
3589	0.8067
3598	0.8185
