Infrared Spectrum: p-Hexadecyloxyaniline
Formula: C 22 H 39 N O
CAS: 7502-06-9
State: gas
Origin: EPA-IR VAPOR PHASE LIBRARY
1/CM	ABSORBANCE
549.8	0.0066
559.445	0.00597
569.09	0.00536
578.734	0.00504
588.379	0.00506
598.024	0.00539
607.669	0.00587
617.313	0.00682
626.958	0.00798
636.603	0.01062
646.248	0.01522
655.893	0.01686
665.537	0.01329
675.182	0.0117
684.827	0.0118
694.472	0.01184
704.116	0.01262
713.761	0.0136
723.406	0.01304
733.051	0.01157
742.695	0.00982
752.34	0.00879
761.985	0.00797
771.63	0.00704
781.275	0.00703
790.919	0.00835
800.564	0.01058
810.209	0.01775
819.854	0.02389
829.498	0.01618
839.143	0.01064
848.788	0.00781
858.433	0.00592
868.078	0.00504
877.722	0.00441
887.367	0.00447
897.012	0.00438
906.657	0.00449
916.301	0.00455
925.946	0.00449
935.591	0.00453
945.236	0.00485
954.88	0.00515
964.525	0.00608
974.17	0.00715
983.815	0.00789
993.46	0.00877
1003.1	0.01122
1012.75	0.01503
1022.39	0.01757
1032.04	0.01961
1041.68	0.02025
1051.33	0.01836
1060.97	0.0153
1070.62	0.01277
1080.26	0.01132
1089.91	0.00884
1099.55	0.00696
1109.2	0.00688
1118.84	0.00698
1128.49	0.00656
1138.13	0.00455
1147.78	0.00384
1157.42	0.0051
1167.07	0.00943
1176.71	0.0071
1186.36	0.00924
1196	0.0171
1205.64	0.02709
1215.29	0.04559
1224.93	0.07806
1234.58	0.11213
1244.22	0.07752
1253.87	0.04162
1263.51	0.03014
1273.16	0.01843
1282.8	0.01543
1292.45	0.01433
1302.09	0.01288
1311.74	0.01051
1321.38	0.00906
1331.03	0.00792
1340.67	0.00805
1350.32	0.00909
1359.96	0.00857
1369.61	0.00835
1379.25	0.01082
1388.9	0.01169
1398.54	0.00689
1408.18	0.00527
1417.83	0.00544
1427.47	0.00652
1437.12	0.00968
1446.76	0.01474
1456.41	0.02118
1466.05	0.02508
1475.7	0.02654
1485.34	0.01863
1494.99	0.03332
1504.63	0.11059
1514.28	0.13102
1523.92	0.03534
1533.57	0.01259
1543.21	0.00639
1552.86	0.00464
1562.5	0.00392
1572.15	0.00386
1581.79	0.00455
1591.44	0.00577
1601.08	0.00806
1610.73	0.01502
1620.37	0.01685
1630.01	0.01314
1639.66	0.00708
1649.3	0.00406
1658.95	0.00276
1668.59	0.00217
1678.24	0.00175
1687.88	0.00156
1697.53	0.00152
1707.17	0.00154
1716.82	0.00171
1726.46	0.00169
1736.11	0.0015
1745.75	0.00138
1755.4	0.00121
1765.04	0.0012
1774.69	0.00116
1784.33	0.00116
1793.98	0.00124
1803.62	0.00143
1813.27	0.00152
1822.91	0.00169
1832.55	0.00191
1842.2	0.00211
1851.84	0.00203
1861.49	0.00175
1871.13	0.00145
1880.78	0.00123
1890.42	0.00106
1900.07	0.00115
1909.71	0.00116
1919.36	0.00127
1929	0.00133
1938.65	0.00129
1948.29	0.00128
1957.94	0.00137
1967.58	0.00145
1977.23	0.00149
1986.87	0.00149
1996.52	0.00147
2006.16	0.00157
2015.81	0.00155
2025.45	0.00158
2035.1	0.00158
2044.74	0.00162
2054.38	0.00153
2064.03	0.00155
2073.67	0.00153
2083.32	0.00135
2092.96	0.00118
2102.61	0.00107
2112.25	0.0009576
2121.9	0.0008141
2131.54	0.0008113
2141.19	0.0008008
2150.83	0.0007354
2160.48	0.0007159
2170.12	0.0007341
2179.77	0.0006948
2189.41	0.0006941
2199.06	0.0007236
2208.7	0.0006681
2218.35	0.0006897
2227.99	0.0007332
2237.64	0.0007715
2247.28	0.0009054
2256.92	0.0008514
2266.57	0.000866
2276.21	0.0009024
2285.86	0.0009308
2295.5	0.0009926
2305.15	0.000929
2314.79	0.00105
2324.44	0.00108
2334.08	0.00116
2343.73	0.0012
2353.37	0.00116
2363.02	0.00107
2372.66	0.00105
2382.31	0.0009513
2391.95	0.0009086
2401.6	0.000969
2411.24	0.000965
2420.89	0.0009558
2430.53	0.0009201
2440.18	0.00102
2449.82	0.0011
2459.47	0.00121
2469.11	0.00114
2478.75	0.00104
2488.4	0.00106
2498.04	0.00103
2507.69	0.00121
2517.33	0.00131
2526.98	0.00137
2536.62	0.00131
2546.27	0.00123
2555.91	0.00115
2565.56	0.00118
2575.2	0.00135
2584.85	0.00143
2594.49	0.00156
2604.14	0.00159
2613.78	0.00162
2623.43	0.00178
2633.07	0.00194
2642.72	0.00202
2652.36	0.00225
2662.01	0.00248
2671.65	0.00276
2681.29	0.00288
2690.94	0.00294
2700.58	0.00278
2710.23	0.00274
2719.87	0.00273
2729.52	0.0031
2739.16	0.00347
2748.81	0.00363
2758.45	0.00371
2768.1	0.00378
2777.74	0.00405
2787.39	0.00483
2797.03	0.00581
2806.68	0.00699
2816.32	0.00899
2825.97	0.0119
2835.61	0.01689
2845.26	0.02999
2854.9	0.06837
2864.55	0.09788
2874.19	0.06945
2883.84	0.05427
2893.48	0.05258
2903.12	0.07111
2912.77	0.10569
2922.41	0.17327
2932.06	0.25519
2941.7	0.18915
2951.35	0.10826
2960.99	0.07207
2970.64	0.05338
2980.28	0.02871
2989.93	0.01764
2999.57	0.0144
3009.22	0.0143
3018.86	0.01316
3028.51	0.01367
3038.15	0.01677
3047.8	0.01117
3057.44	0.00677
3067.09	0.00623
3076.73	0.00547
3086.38	0.00443
3096.02	0.00388
3105.67	0.00343
3115.31	0.00296
3124.95	0.00238
3134.6	0.00194
3144.24	0.00152
3153.89	0.00131
3163.53	0.00121
3173.18	0.00113
3182.82	0.0009528
3192.47	0.000865
3202.11	0.0009373
3211.76	0.0008939
3221.4	0.0008825
3231.05	0.0007959
3240.69	0.0006581
3250.34	0.0007049
3259.98	0.000685
3269.63	0.0007614
3279.27	0.0005705
3288.92	0.0004623
3298.56	0.0004234
3308.21	0.0003306
3317.85	0.0003387
3327.49	0.0003079
3337.14	0.0004179
3346.78	0.0005238
3356.43	0.0004061
3366.07	0.0005733
3375.72	0.0008942
3385.36	0.00148
3395.01	0.00263
3404.65	0.00314
3414.3	0.0014
3423.94	0.0009905
3433.59	0.0008584
3443.23	0.00104
3452.88	0.0012
3462.52	0.00158
3472.17	0.00213
3481.81	0.00229
3491.46	0.00188
3501.1	0.00111
3510.75	0.0006295
3520.39	0.0005827
3530.04	0.0003138
3539.68	0.0002511
3549.32	0.0004775
3558.97	0.0003817
3568.61	0.000185
3578.26	0.0001643
3587.9	0.000266
3597.55	0.0003613
3607.19	0.0004134
3616.84	0.0004644
3626.48	0.000427
3636.13	0.0004151
3645.77	0.0005291
3655.42	0.0006137
3665.06	0.0005274
3674.71	0.0005239
3684.35	0.0005479
3694	0.0003662
3703.64	0.0004343
3713.29	0.0003659
3722.93	0.000515
3732.58	0.000557
3742.22	0.0004722
3751.86	0.0004897
3761.51	0.0005578
3771.15	0.0003204
3780.8	0.0005419
3790.44	0.0006577
3800.09	0.0004743
3809.73	0.0005118
3819.38	0.0005239
3829.02	0.0006503
3838.67	0.0005838
3848.31	0.0005017
3857.96	0.0006637
3867.6	0.0004739
3877.25	0.0006895
3886.89	0.0008461
3896.54	0.0008817
3906.18	0.0008513
3915.83	0.000672
3925.47	0.0008371
3935.12	0.0007122
3944.76	0.0007711
3954.41	0.0006145
3964.05	0.0007969
3973.69	0.0006683
3983.34	0.0007858
3992.98	0.0008226
