Infrared Spectrum: Formic acid, cycloheptyl ester
Formula: C8 H14 O2
CAS: 75024-32-7
State: SOLUTION (10% CCl4 FOR 3800-1330, 10% CS2 FOR 1330-400 CM^-^1)
Class: COBLENTZ III
Instrument: DOW KBr FOREPRISM-GRATING
Instrument parameters: BLAZED AT 3.5, 12.0, 20.0 MICRON AND CHANGED AT 5.0, 7.5, 14.9 MICRON
Sampling: TRANSMISSION
Path length: 0.011 CM, 0.011 CM
Resolution: 2
Origin: DOW CHEMICAL COMPANY
1/CM	TRANSMITTANCE
3800	0.9167
3791	0.9182
3782	0.9168
3773	0.9181
3764	0.9164
3755	0.908
3746	0.9059
3737	0.9082
3728	0.9103
3719	0.91
3710	0.9114
3701	0.9096
3692	0.9103
3683	0.9087
3674	0.9104
3665	0.916
3656	0.9121
3647	0.9156
3638	0.916
3629	0.9131
3620	0.9149
3611	0.9174
3602	0.9193
3593	0.9208
3584	0.9208
3575	0.9192
3566	0.9155
3557	0.9171
3548	0.9201
3539	0.921
3530	0.9225
3521	0.9222
3512	0.9225
3503	0.9225
3494	0.9227
3485	0.9226
3476	0.922
3467	0.9208
3458	0.9181
3449	0.8936
3440	0.8618
3431	0.8532
3422	0.8691
3413	0.8889
3404	0.9038
3395	0.9137
3386	0.9222
3377	0.9261
3368	0.9277
3359	0.9286
3350	0.9289
3341	0.9292
3332	0.9291
3323	0.9291
3314	0.929
3305	0.9303
3296	0.9285
3287	0.928
3278	0.9287
3269	0.9286
3260	0.9283
3251	0.9282
3242	0.9282
3233	0.928
3224	0.9276
3215	0.9273
3206	0.9258
3197	0.9262
3188	0.926
3179	0.9239
3170	0.9231
3161	0.9237
3152	0.9237
3143	0.9223
3134	0.9231
3125	0.9216
3116	0.9166
3107	0.8917
3098	0.8819
3089	0.9028
3080	0.9118
3071	0.917
3062	0.914
3053	0.9111
3044	0.9082
3035	0.9003
3026	0.8836
3017	0.873
3008	0.8488
2999	0.7978
2990	0.6706
2981	0.5569
2972	0.4023
2963	0.183
2954	0.0358
2945	0.0225
2936	0.019
2927	0.0178
2918	0.0347
2909	0.0936
2900	0.1892
2891	0.3203
2882	0.3803
2873	0.2057
2864	0.1169
2855	0.2323
2846	0.6161
2837	0.7403
2828	0.7817
2819	0.8073
2810	0.8196
2801	0.8382
2792	0.8632
2783	0.882
2774	0.8964
2765	0.903
2756	0.9042
2747	0.8932
2738	0.8694
2729	0.8525
2720	0.8658
2711	0.8722
2702	0.8652
2693	0.854
2684	0.857
2675	0.8671
2666	0.8822
2657	0.8961
2648	0.9052
2639	0.9093
2630	0.9134
2621	0.9177
2612	0.9208
2603	0.9228
2594	0.9244
2585	0.9245
2576	0.9244
2567	0.9238
2558	0.9234
2549	0.9236
2540	0.9247
2531	0.9267
2522	0.9283
2513	0.929
2504	0.9298
2495	0.9305
2486	0.9312
2477	0.9333
2468	0.9341
2459	0.9346
2450	0.9339
2441	0.9351
2432	0.935
2423	0.9341
2414	0.93
2405	0.9243
2396	0.9156
2387	0.9057
2378	0.8963
2369	0.8826
2360	0.8702
2351	0.8684
2342	0.8794
2333	0.8913
2324	0.9086
2315	0.9172
2306	0.9222
2297	0.927
2288	0.9298
2279	0.9326
2270	0.9336
2261	0.934
2252	0.9335
2243	0.9321
2234	0.9322
2225	0.9333
2216	0.933
2207	0.9342
2198	0.9354
2189	0.9352
2180	0.9367
2171	0.939
2162	0.9383
2153	0.9388
2144	0.9395
2135	0.9411
2126	0.9428
2117	0.9441
2108	0.9452
2099	0.9451
2090	0.9447
2081	0.9401
2072	0.9306
2063	0.9283
2054	0.9273
2045	0.9229
2036	0.9273
2027	0.9334
2018	0.9374
2009	0.937
2000	0.9228
1991	0.9433
1982	0.9459
1973	0.9421
1964	0.9428
1955	0.9489
1946	0.9455
1937	0.9454
1928	0.9475
1919	0.9491
1910	0.9508
1901	0.9534
1892	0.9532
1883	0.9529
1874	0.9535
1865	0.9526
1856	0.9523
1847	0.9436
1838	0.939
1829	0.932
1820	0.9257
1811	0.9205
1802	0.9082
1793	0.8878
1784	0.8722
1775	0.8464
1766	0.7761
1757	0.6084
1748	0.5003
1739	0.179
1730	0.0149
1721	0.0109
1712	0.0828
1703	0.4205
1694	0.6105
1685	0.6228
1676	0.7854
1667	0.8647
1658	0.8941
1649	0.9005
1640	0.9173
1631	0.931
1622	0.9313
1613	0.9362
1604	0.9082
1595	0.855
1586	0.8683
1577	0.8682
1568	0.8223
1559	0.7924
1550	0.8491
1541	0.8703
1532	0.9098
1523	0.8911
1514	0.9037
1505	0.9186
1496	0.9003
1487	0.8732
1478	0.7639
1469	0.3038
1460	0.3562
1451	0.3777
1442	0.6843
1433	0.8075
1424	0.895
1415	0.9147
1406	0.9187
1397	0.9089
1388	0.8618
1379	0.633
1370	0.7192
1361	0.8075
1352	0.836
1343	0.8293
1334	0.8289
1325	0.8341
1316	0.8409
1307	0.89
1298	0.9037
1289	0.8454
1280	0.8182
1271	0.8289
1262	0.8413
1253	0.8115
1244	0.7816
1235	0.724
1226	0.6364
1217	0.4872
1208	0.1315
1199	0.03
1190	0.0148
1181	0.0116
1172	0.0106
1163	0.0433
1154	0.2629
1145	0.3914
1136	0.5886
1127	0.7482
1118	0.696
1109	0.6775
1100	0.8897
1091	0.9226
1082	0.9341
1073	0.933
1064	0.9179
1055	0.9294
1046	0.9309
1037	0.9042
1028	0.884
1019	0.7318
1010	0.6109
1001	0.6482
992	0.7087
983	0.8256
974	0.7548
965	0.4483
956	0.2928
947	0.4675
938	0.7748
929	0.8404
920	0.8758
911	0.8875
902	0.8667
893	0.7733
884	0.5794
875	0.5207
866	0.6676
857	0.6969
848	0.729
839	0.7422
830	0.7705
821	0.8006
812	0.8776
803	0.9013
794	0.782
785	0.8326
776	0.8704
767	0.8682
758	0.8263
749	0.8963
740	0.9219
731	0.926
722	0.9363
713	0.9427
704	0.9484
695	0.9557
686	0.9627
677	0.9714
668	0.9892
659	0.9626
650	0.9543
641	0.9594
632	0.9618
623	0.9689
614	0.979
605	0.9817
596	0.9831
587	0.982
578	0.9751
569	0.9692
560	0.9621
551	0.955
542	0.9468
533	0.9347
524	0.9381
515	0.9319
506	0.9206
497	0.9459
488	0.9597
479	0.9577
470	0.9178
461	0.8699
452	0.8848
443	0.9082
434	0.911
425	0.8629
416	0.699
407	0.5204
398	0.3973
389	0.3276
