Infrared Spectrum: trans-2-Undecen-1-ol
Formula: C 11 H 22 O
CAS: 75039-84-8
State: gas
Origin: EPA-IR VAPOR PHASE LIBRARY
1/CM	ABSORBANCE
549.9	0.001009
559.547	0.0008643
569.193	0.0007654
578.84	0.0005562
588.486	0.0006274
598.133	0.0005222
607.779	0.0006963
617.426	0.00048203
627.072	0.0006164
636.719	0.0005385
646.365	0.0006418
656.012	0.000601
665.658	0.0005332
675.305	0.000428569
684.951	0.0006504
694.598	0.0006828
704.245	0.0008874
713.891	0.0010854
723.538	0.0012899
733.184	0.0011534
742.831	0.0010399
752.477	0.0008627
762.124	0.0008803
771.77	0.0008048
781.417	0.0008171
791.063	0.0005956
800.71	0.0006522
810.356	0.000777
820.003	0.0005929
829.649	0.0005521
839.296	0.0005981
848.943	0.0006848
858.589	0.0007461
868.236	0.0007872
877.882	0.0010475
887.529	0.0012538
897.175	0.00146
906.822	0.00168
916.468	0.00201
926.115	0.00241
935.761	0.00325
945.408	0.00433
955.054	0.00648
964.701	0.00976
974.347	0.01059
983.994	0.00943
993.64	0.01027
1003.29	0.01098
1012.93	0.00979
1022.58	0.00745
1032.23	0.00538
1041.87	0.00411
1051.52	0.00382
1061.17	0.00382
1070.81	0.00425
1080.46	0.00469
1090.11	0.00468
1099.75	0.00354
1109.4	0.0026
1119.05	0.00208
1128.69	0.00166
1138.34	0.00155
1147.99	0.00153
1157.63	0.00156
1167.28	0.0012947
1176.92	0.0014092
1186.57	0.00169
1196.22	0.00148
1205.86	0.0010715
1215.51	0.0015
1225.16	0.0013688
1234.8	0.0010811
1244.45	0.0013522
1254.1	0.00162
1263.74	0.00163
1273.39	0.0016
1283.04	0.00177
1292.68	0.00202
1302.33	0.00245
1311.98	0.00263
1321.62	0.00253
1331.27	0.0028
1340.92	0.0033
1350.56	0.0039
1360.21	0.00431
1369.86	0.00522
1379.5	0.00613
1389.15	0.0055
1398.79	0.00376
1408.44	0.00271
1418.09	0.00214
1427.73	0.00212
1437.38	0.00289
1447.03	0.00413
1456.67	0.00498
1466.32	0.0048
1475.97	0.0031
1485.61	0.0016
1495.26	0.001095
1504.91	0.0008162
1514.55	0.0005637
1524.2	0.00050597
1533.85	0.0003932
1543.49	0.0003803
1553.14	0.0003609
1562.79	0.000225
1572.43	0.00024
1582.08	0.00029
1591.73	0.000251
1601.37	0.000228
1611.02	0.000164
1620.67	0.00031
1630.31	0.000311
1639.96	0.0004006
1649.6	0.0005288
1659.25	0.0009763
1668.9	0.0011528
1678.54	0.0005682
1688.19	0.0003983
1697.84	0.0004075
1707.48	0.0005338
1717.13	0.0006836
1726.78	0.0003984
1736.42	0.000295
1746.07	0.000312
1755.72	0.0004015
1765.36	0.000248
1775.01	0.000273
1784.66	0.000247
1794.3	0.00024
1803.95	0.000129
1813.6	0.000232
1823.24	0.000267
1832.89	0.000161
1842.54	0.000145
1852.18	0.000149
1861.83	0.000195
1871.47	0.000235
1881.12	0.000124
1890.77	0.000218
1900.41	0.00023
1910.06	0.000255
1919.71	0.000276
1929.35	0.0002
1939	0.000288
1948.65	0.00026
1958.29	0.000293
1967.94	0.000298
1977.59	0.000296
1987.23	0.0003381
1996.88	0.0003228
2006.53	0.000227
2016.17	0.0003435
2025.82	0.0003271
2035.47	0.000311
2045.11	0.00027
2054.76	0.000261
2064.41	0.000268
2074.05	0.000268
2083.7	0.0003464
2093.35	0.000233
2102.99	0.000256
2112.64	0.0003347
2122.28	0.000276
2131.93	0.000299
2141.58	0.000294
2151.22	0.0003291
2160.87	0.00029
2170.52	0.000316
2180.16	0.0003682
2189.81	0.000309
2199.46	0.0003494
2209.1	0.0003454
2218.75	0.0004007
2228.4	0.000312
2238.04	0.0003751
2247.69	0.0004023
2257.34	0.0004026
2266.98	0.0003457
2276.63	0.0003815
2286.28	0.0003999
2295.92	0.00041012
2305.57	0.00044873
2315.22	0.0004097
2324.86	0.0004449
2334.51	0.00046172
2344.16	0.00048542
2353.8	0.0005233
2363.45	0.0005255
2373.09	0.00048312
2382.74	0.0005322
2392.39	0.00048927
2402.03	0.00046511
2411.68	0.00044594
2421.33	0.00046594
2430.97	0.0004758
2440.62	0.00048527
2450.27	0.00046133
2459.91	0.00051405
2469.56	0.00050997
2479.21	0.0005232
2488.85	0.0005321
2498.5	0.00047625
2508.15	0.00050132
2517.79	0.00051363
2527.44	0.0006457
2537.09	0.0005601
2546.73	0.0005803
2556.38	0.0006602
2566.03	0.0006341
2575.67	0.0005967
2585.32	0.0006902
2594.96	0.000785
2604.61	0.0006718
2614.26	0.0007754
2623.9	0.0007959
2633.55	0.0008647
2643.2	0.0010031
2652.84	0.0010637
2662.49	0.0011603
2672.14	0.0011342
2681.78	0.0012305
2691.43	0.0011931
2701.08	0.0012416
2710.72	0.0011517
2720.37	0.0013177
2730.02	0.0012768
2739.66	0.0015
2749.31	0.00157
2758.96	0.00168
2768.6	0.00168
2778.25	0.00203
2787.9	0.00209
2797.54	0.00254
2807.19	0.00292
2816.84	0.00363
2826.48	0.00463
2836.13	0.0066
2845.77	0.01101
2855.42	0.01987
2865.07	0.0265
2874.71	0.02371
2884.36	0.01997
2894.01	0.01803
2903.65	0.02157
2913.3	0.0306
2922.95	0.04871
2932.59	0.06561
2942.24	0.05236
2951.89	0.03197
2961.53	0.02573
2971.18	0.0224
2980.83	0.01323
2990.47	0.00847
3000.12	0.00659
3009.77	0.00584
3019.41	0.00518
3029.06	0.00457
3038.71	0.00355
3048.35	0.0027
3058	0.00213
3067.64	0.00198
3077.29	0.00146
3086.94	0.0014122
3096.58	0.0012476
3106.23	0.0009882
3115.88	0.0011724
3125.52	0.0007431
3135.17	0.0007603
3144.82	0.0008646
3154.46	0.0008063
3164.11	0.000939
3173.76	0.0006839
3183.4	0.0004401
3193.05	0.0007117
3202.7	0.0007102
3212.34	0.0007862
3221.99	0.00043787
3231.64	0.0006143
3241.28	0.00043832
3250.93	0.000101
3260.58	0.0003644
3270.22	0.00046129
3279.87	0.0005477
3289.52	0.0003901
3299.16	0.000198
3308.81	0.0003304
3318.45	0.000289
3328.1	0.0003285
3337.75	0.000193
3347.39	0.000426658
3357.04	0.0003327
3366.69	0.000195
3376.33	0.000291
3385.98	0.000425424
3395.63	0.000297
3405.27	0.000318
3414.92	0.0003541
3424.57	0.00041651
3434.21	0.000286
3443.86	0.000258
3453.51	0.000134
3463.15	0.0003201
3472.8	0.000132
3482.45	0.0003595
3492.09	0.000206
3501.74	0.00043496
3511.39	0.00044121
3521.03	0.0003299
3530.68	0.000173
3540.33	0.000101
3549.97	0.000209
3559.62	0.0003385
3569.26	0.000352
3578.91	0.00041094
3588.56	0.000253
3598.2	0.000227
3607.85	0.00043371
3617.5	0.000677
3627.14	0.0008468
3636.79	0.0011047
3646.44	0.0018
3656.08	0.00204
3665.73	0.00205
3675.38	0.0015
3685.02	0.0009915
3694.67	0.0008317
3704.32	0.0005574
3713.96	0.0003748
3723.61	0.000304
3733.26	0.0003822
3742.9	0.0003411
3752.55	0.0003665
3762.2	0.000317
3771.84	0.00044765
3781.49	0.0003258
3791.13	0.0004488
3800.78	0.0003683
3810.43	0.00044323
3820.07	0.0003709
3829.72	0.00042569
3839.37	0.0005302
3849.01	0.0004097
3858.66	0.00044854
3868.31	0.00044204
3877.95	0.00045211
3887.6	0.0005201
3897.25	0.00047219
3906.89	0.00047224
3916.54	0.0003631
3926.19	0.000271
3935.83	0.0003835
3945.48	0.00047288
3955.13	0.0003323
3964.77	0.00046329
3974.42	0.0004319
3984.07	0.0004657
3993.71	0.00045806
