Infrared Spectrum: Aniline, 2-tert-butyl-N-ethyl-
Formula: C12 H19 N
CAS: 75031-45-7
State: LIQUID (NEAT)
Class: COBLENTZ III
Instrument: BECKMAN IR-4 (HYBRID PRISM-GRATING)
Instrument parameters: NaCl PRISM
Sampling: TRANSMISSION
Path length: CAPILLARY
Resolution: 2
Origin: MONSANTO (J. FREEMAN)
1/CM	TRANSMITTANCE
626	0.8725
635	0.8899
644	0.8911
653	0.8815
662	0.8658
671	0.8572
680	0.8337
689	0.8287
698	0.8111
707	0.7933
716	0.764
725	0.6877
734	0.3503
743	0.0458
752	0.2512
761	0.6626
770	0.7125
779	0.8181
788	0.8448
797	0.8517
806	0.8423
815	0.8125
824	0.8376
833	0.8525
842	0.7491
851	0.8413
860	0.8926
869	0.9061
878	0.9139
887	0.918
896	0.9186
905	0.9094
914	0.8871
923	0.788
932	0.7167
941	0.8179
950	0.88
959	0.8842
968	0.9085
977	0.9161
986	0.9182
995	0.9165
1004	0.9082
1013	0.8302
1022	0.8681
1031	0.8672
1040	0.8403
1049	0.5458
1058	0.4317
1067	0.8213
1076	0.827
1085	0.7855
1094	0.8249
1103	0.6675
1112	0.494
1121	0.5635
1130	0.7523
1139	0.7571
1148	0.66
1157	0.3173
1166	0.2392
1175	0.5528
1184	0.6964
1193	0.5346
1202	0.6312
1211	0.7776
1220	0.7742
1229	0.6545
1238	0.4264
1247	0.3683
1256	0.2723
1265	0.1333
1274	0.3729
1283	0.4487
1292	0.4016
1301	0.3845
1310	0.1768
1319	0.1477
1328	0.4545
1337	0.7117
1346	0.7743
1355	0.7479
1364	0.6262
1373	0.3436
1382	0.4202
1391	0.5412
1400	0.4371
1409	0.6652
1418	0.6516
1427	0.5494
1436	0.3102
1445	0.1013
1454	0.0949
1463	0.2747
1472	0.3362
1481	0.2528
1490	0.2044
1499	0.2857
1508	0.0977
1517	0.0829
1526	0.244
1535	0.3974
1544	0.5577
1553	0.7304
1562	0.7446
1571	0.6641
1580	0.3746
1589	0.2979
1598	0.3581
1607	0.166
1616	0.6536
1625	0.7599
1634	0.8134
1643	0.8519
1652	0.8711
1661	0.8738
1670	0.8682
1679	0.8654
1688	0.8813
1697	0.8964
1706	0.9095
1715	0.9195
1724	0.9286
1733	0.9346
1742	0.9334
1751	0.9271
1760	0.9178
1769	0.9088
1778	0.9051
1787	0.908
1796	0.9127
1805	0.9115
1814	0.9175
1823	0.9235
1832	0.9246
1841	0.9192
1850	0.9127
1859	0.9088
1868	0.9078
1877	0.8829
1886	0.8614
1895	0.8703
1904	0.9065
1913	0.9041
1922	0.8947
1931	0.905
1940	0.9178
1949	0.9275
1958	0.933
1967	0.9368
1976	0.9392
1985	0.941
1994	0.9428
2003	0.9448
2012	0.9465
2021	0.9478
2030	0.949
2039	0.9497
2048	0.9505
2057	0.9507
2066	0.9509
2075	0.9504
2084	0.95
2093	0.9494
2102	0.9487
2111	0.948
2120	0.9477
2129	0.9476
2138	0.9481
2147	0.9493
2156	0.9503
2165	0.9511
2174	0.9518
2183	0.9521
2192	0.9524
2201	0.9515
2210	0.9515
2219	0.9514
2228	0.9516
2237	0.9527
2246	0.9535
2255	0.9542
2264	0.9519
2273	0.9486
2282	0.9446
2291	0.9429
2300	0.9435
2309	0.9453
2318	0.9474
2327	0.9497
2336	0.9521
2345	0.9546
2354	0.9569
2363	0.9588
2372	0.9576
2381	0.9497
2390	0.9376
2399	0.9328
2408	0.9321
2417	0.9316
2426	0.9312
2435	0.932
2444	0.9337
2453	0.9354
2462	0.9375
2471	0.9385
2480	0.9381
2489	0.9363
2498	0.9334
2507	0.9298
2516	0.9244
2525	0.918
2534	0.9119
2543	0.907
2552	0.9005
2561	0.8938
2570	0.8924
2579	0.8953
2588	0.8957
2597	0.8958
2606	0.8979
2615	0.9022
2624	0.9065
2633	0.9121
2642	0.9173
2651	0.9166
2660	0.9137
2669	0.9091
2678	0.9011
2687	0.8893
2696	0.879
2705	0.8733
2714	0.867
2723	0.8602
2732	0.8549
2741	0.8517
2750	0.8505
2759	0.8486
2768	0.8418
2777	0.8232
2786	0.7974
2795	0.768
2804	0.7208
2813	0.6833
2822	0.6588
2831	0.6321
2840	0.5875
2849	0.5303
2858	0.4547
2867	0.3783
2876	0.3024
2885	0.2271
2894	0.2144
2903	0.2293
2912	0.2345
2921	0.2317
2930	0.2264
2939	0.2154
2948	0.1992
2957	0.1651
2966	0.1208
2975	0.0865
2984	0.0849
2993	0.2172
3002	0.3373
3011	0.4566
3020	0.5684
3029	0.5771
3038	0.5761
3047	0.5735
3056	0.5691
3065	0.5555
3074	0.5449
3083	0.5666
3092	0.6311
3101	0.6951
3110	0.7587
3119	0.8356
3128	0.8733
3137	0.8793
3146	0.8845
3155	0.8888
3164	0.8921
3173	0.8953
3182	0.8984
3191	0.9009
3200	0.9033
3209	0.9057
3218	0.9081
3227	0.9103
3236	0.9122
3245	0.913
3254	0.9133
3263	0.9135
3272	0.9135
3281	0.9129
3290	0.9125
3299	0.9119
3308	0.9113
3317	0.9105
3326	0.9095
3335	0.9085
3344	0.9075
3353	0.9062
3362	0.9047
3371	0.9033
3380	0.9016
3389	0.8985
3398	0.8925
3407	0.8829
3416	0.873
3425	0.8592
3434	0.8065
3443	0.7541
3452	0.7019
3461	0.65
3470	0.5984
3479	0.5499
3488	0.5376
3497	0.5642
3506	0.6437
3515	0.7228
3524	0.8015
3533	0.8685
3542	0.8819
3551	0.8861
3560	0.8897
3569	0.8933
3578	0.8976
3587	0.9018
3596	0.9031
3605	0.9036
3614	0.904
3623	0.9044
3632	0.9044
3641	0.9042
3650	0.904
3659	0.9039
3668	0.9037
3677	0.9036
3686	0.9035
3695	0.9033
3704	0.9031
3713	0.903
3722	0.9029
3731	0.9027
3740	0.9025
3749	0.9022
3758	0.9016
3767	0.901
3776	0.9
3785	0.898
3794	0.8948
3803	0.89
3812	0.8881
3821	0.8875
3830	0.8869
3839	0.8864
3848	0.8859
3857	0.8853
3866	0.8848
3875	0.8843
3884	0.8838
3893	0.8833
3902	0.8828
3911	0.8822
3920	0.8817
3929	0.8812
3938	0.8807
3947	0.8802
3956	0.8795
3965	0.8786
3974	0.8776
3983	0.8766
3992	0.8757
