Infrared Spectrum: CARBANILIC ACID, n-DECYL ESTER
Formula: C17 H27 N O2
CAS: 7504-86-1
State: SOLID (2.0 mg / 100 mg KBr)
Melting point: 61 C
Class: COBLENTZ
Instrument: Not specified, most likely a grating spectrometer.
Sampling: TRANSMISSION
Resolution: 4
Origin: CITRUS EXPERIMENT STATION, UNIVERSITY OF FLORIDA (G. EDWARDS)
MICROMETERS	TRANSMITTANCE
2.046	0.84
2.07915	0.84
2.11229	0.842
2.14544	0.846
2.17858	0.849
2.21173	0.849
2.24488	0.85
2.27802	0.85
2.31117	0.85
2.34432	0.852
2.37746	0.852
2.41061	0.853
2.44375	0.86
2.4769	0.865
2.51005	0.868
2.54319	0.869
2.57634	0.866
2.60948	0.868
2.64263	0.873
2.67578	0.869
2.70892	0.864
2.74207	0.869
2.77522	0.873
2.80836	0.87
2.84151	0.869
2.87465	0.86
2.9078	0.852
2.94095	0.817
2.97409	0.713
3.00724	0.411
3.04038	0.593
3.07353	0.792
3.10668	0.822
3.13982	0.838
3.17297	0.81
3.20611	0.818
3.23926	0.802
3.27241	0.829
3.30555	0.834
3.3387	0.724
3.37185	0.541
3.40499	0.451
3.43814	0.68
3.47128	0.525
3.50443	0.796
3.53758	0.858
3.57072	0.864
3.60387	0.89
3.63701	0.894
3.67016	0.896
3.70331	0.896
3.73645	0.898
3.7696	0.906
3.80275	0.91
3.83589	0.91
3.86904	0.906
3.90218	0.91
3.93533	0.92
3.96848	0.914
4.00162	0.916
4.03477	0.916
4.06791	0.92
4.10106	0.918
4.13421	0.914
4.16735	0.91
4.2005	0.897
4.23365	0.913
4.26679	0.916
4.29994	0.92
4.33308	0.917
4.36623	0.917
4.39938	0.921
4.43252	0.92
4.46567	0.918
4.49881	0.92
4.53196	0.921
4.56511	0.924
4.59825	0.918
4.6314	0.92
4.66455	0.924
4.69769	0.924
4.73084	0.924
4.76398	0.92
4.79713	0.92
4.83028	0.922
4.86342	0.922
4.89657	0.92
4.92971	0.922
4.96286	0.921
4.99601	0.924
5.02915	0.921
5.0623	0.916
5.09545	0.909
5.12859	0.916
5.16174	0.925
5.19488	0.924
5.22803	0.916
5.26118	0.908
5.29432	0.906
5.32747	0.909
5.36061	0.912
5.39376	0.909
5.42691	0.906
5.46005	0.9
5.4932	0.876
5.52634	0.881
5.55949	0.88
5.59264	0.865
5.62578	0.861
5.65893	0.834
5.69208	0.772
5.72522	0.712
5.75837	0.631
5.79151	0.468
5.82466	0.452
5.85781	0.339
5.89095	0.487
5.9241	0.705
5.95724	0.741
5.99039	0.776
6.02354	0.826
6.05668	0.857
6.08983	0.832
6.12298	0.804
6.15612	0.708
6.18927	0.619
6.22241	0.431
6.25556	0.478
6.28871	0.812
6.32185	0.809
6.355	0.754
6.38814	0.637
6.42129	0.29
6.45444	0.364
6.48758	0.613
6.52073	0.704
6.55388	0.731
6.58702	0.7
6.62017	0.588
6.65331	0.66
6.68646	0.673
6.71961	0.708
6.75275	0.573
6.7859	0.596
6.81904	0.731
6.85219	0.711
6.88534	0.468
6.91848	0.454
6.95163	0.735
6.98478	0.809
7.01792	0.832
7.05107	0.838
7.08421	0.834
7.11736	0.813
7.15051	0.793
7.18365	0.804
7.2168	0.801
7.24994	0.812
7.28309	0.816
7.31624	0.821
7.34938	0.828
7.38253	0.821
7.41568	0.805
7.44882	0.764
7.48197	0.677
7.51511	0.595
7.54826	0.37
7.58141	0.486
7.61455	0.569
7.6477	0.563
7.68084	0.717
7.71399	0.808
7.74714	0.817
7.78028	0.808
7.81343	0.788
7.84657	0.773
7.87972	0.741
7.91287	0.659
7.94601	0.536
7.97916	0.43
8.01231	0.278
8.04545	0.256
8.0786	0.173
8.11174	0.32
8.14489	0.483
8.17804	0.593
8.21118	0.653
8.24433	0.713
8.27747	0.728
8.31062	0.785
8.34377	0.817
8.37691	0.828
8.41006	0.825
8.44321	0.786
8.47635	0.825
8.5095	0.854
8.54264	0.854
8.57579	0.844
8.60894	0.832
8.64208	0.884
8.67523	0.893
8.70837	0.898
8.74152	0.897
8.77467	0.896
8.80781	0.882
8.84096	0.87
8.87411	0.88
8.90725	0.872
8.9404	0.865
8.97354	0.856
9.00669	0.842
9.03984	0.818
9.07298	0.756
9.10613	0.644
9.13927	0.619
9.17242	0.696
9.20557	0.78
9.23871	0.809
9.27186	0.809
9.30501	0.776
9.33815	0.701
9.3713	0.516
9.40444	0.423
9.43759	0.447
9.47074	0.52
9.50388	0.604
9.53703	0.705
9.57017	0.774
9.60332	0.816
9.63647	0.829
9.66961	0.777
9.70276	0.7
9.7359	0.74
9.76905	0.729
9.8022	0.774
9.83534	0.84
9.86849	0.862
9.90164	0.86
9.93478	0.86
9.96793	0.869
10.0011	0.844
10.0342	0.81
10.0674	0.88
10.1005	0.901
10.1337	0.912
10.1668	0.914
10.2	0.909
10.2331	0.896
10.2662	0.888
10.2994	0.872
10.3325	0.856
10.3657	0.846
10.3988	0.885
10.432	0.902
10.4651	0.918
10.4983	0.921
10.5314	0.922
10.5646	0.924
10.5977	0.924
10.6309	0.924
10.664	0.924
10.6971	0.922
10.7303	0.922
10.7634	0.924
10.7966	0.926
10.8297	0.926
10.8629	0.926
10.896	0.925
10.9292	0.924
10.9623	0.906
10.9955	0.846
11.0286	0.817
11.0618	0.894
11.0949	0.916
11.128	0.922
11.1612	0.924
11.1943	0.926
11.2275	0.926
11.2606	0.928
11.2938	0.928
11.3269	0.928
11.3601	0.928
11.3932	0.93
11.4264	0.93
11.4595	0.925
11.4927	0.926
11.5258	0.93
11.5589	0.926
11.5921	0.932
11.6252	0.93
11.6584	0.921
11.6915	0.904
11.7247	0.866
11.7578	0.846
11.791	0.854
11.8241	0.853
11.8573	0.838
11.8904	0.83
11.9236	0.877
11.9567	0.905
11.9898	0.918
12.023	0.921
12.0561	0.926
12.0893	0.93
12.1224	0.929
12.1556	0.928
12.1887	0.926
12.2219	0.926
12.255	0.926
12.2882	0.925
12.3213	0.926
12.3545	0.926
12.3876	0.926
12.4207	0.93
12.4539	0.934
12.487	0.93
12.5202	0.928
12.5533	0.934
12.5865	0.93
12.6196	0.93
12.6528	0.928
12.6859	0.925
12.7191	0.917
12.7522	0.912
12.7854	0.901
12.8185	0.873
12.8516	0.838
12.8848	0.768
12.9179	0.68
12.9511	0.696
12.9842	0.764
13.0174	0.785
13.0505	0.752
13.0837	0.721
13.1168	0.727
13.15	0.733
13.1831	0.739
13.2162	0.713
13.2494	0.673
13.2825	0.605
13.3157	0.555
13.3488	0.539
13.382	0.573
13.4151	0.655
13.4483	0.709
13.4814	0.77
13.5146	0.798
13.5477	0.804
13.5809	0.828
13.614	0.84
13.6471	0.84
13.6803	0.83
13.7134	0.806
13.7466	0.798
13.7797	0.765
13.8129	0.766
13.846	0.77
13.8792	0.784
13.9123	0.785
13.9455	0.773
13.9786	0.761
14.0118	0.749
14.0449	0.739
14.078	0.727
14.1112	0.703
14.1443	0.685
14.1775	0.675
14.2106	0.672
14.2438	0.669
14.2769	0.668
14.3101	0.668
14.3432	0.671
14.3764	0.673
14.4095	0.683
14.4427	0.692
14.4758	0.708
14.5089	0.727
14.5421	0.749
14.5752	0.761
14.6084	0.764
14.6415	0.768
14.6747	0.774
14.7078	0.785
14.741	0.797
14.7741	0.802
14.8073	0.804
14.8404	0.801
14.8736	0.794
14.9067	0.772
14.9398	0.768
14.973	0.794
15.0061	0.797
