Infrared Spectrum: Pyridine, 2-ethyl-, hydrochloride
Formula: C7 H10 Cl N
CAS: 75042-72-7
State: SOLID (NEAT, HYGROSCOPIC)
Class: COBLENTZ III
Instrument: PERKIN-ELMER 157
Sampling: TRANSMISSION
Resolution: 2
Origin: BRITISH PETROLEUM CO. LTD.
1/CM	TRANSMITTANCE
668	0.5077
677	0.5159
686	0.5193
695	0.5242
704	0.5288
713	0.5298
722	0.5278
731	0.5192
740	0.4913
749	0.4367
758	0.3104
767	0.1915
776	0.1935
785	0.265
794	0.2211
803	0.2578
812	0.4272
821	0.5355
830	0.5855
839	0.5897
848	0.5911
857	0.5899
866	0.5847
875	0.5787
884	0.5697
893	0.5625
902	0.5613
911	0.5571
920	0.5475
929	0.5321
938	0.5052
947	0.468
956	0.4399
965	0.4385
974	0.4569
983	0.4594
992	0.416
1001	0.3433
1010	0.4346
1019	0.4976
1028	0.4694
1037	0.4176
1046	0.4299
1055	0.4099
1064	0.4259
1073	0.4875
1082	0.5286
1091	0.5295
1100	0.5152
1109	0.4703
1118	0.5286
1127	0.5465
1136	0.5475
1145	0.5432
1154	0.4993
1163	0.4119
1172	0.4558
1181	0.5307
1190	0.5492
1199	0.5499
1208	0.5411
1217	0.5063
1226	0.4364
1235	0.4166
1244	0.3953
1253	0.4805
1262	0.5353
1271	0.533
1280	0.5051
1289	0.4553
1298	0.4194
1307	0.4111
1316	0.4443
1325	0.4801
1334	0.4922
1343	0.5113
1352	0.5504
1361	0.5367
1370	0.4915
1379	0.4658
1388	0.4209
1397	0.4163
1406	0.4836
1415	0.4914
1424	0.4888
1433	0.4622
1442	0.4422
1451	0.3062
1460	0.1582
1469	0.1512
1478	0.3618
1487	0.5247
1496	0.5256
1505	0.4992
1514	0.4504
1523	0.3704
1532	0.3342
1541	0.3925
1550	0.5142
1559	0.5217
1568	0.516
1577	0.4936
1586	0.4561
1595	0.3627
1604	0.2416
1613	0.1184
1622	0.1011
1631	0.1197
1640	0.2707
1649	0.3843
1658	0.396
1667	0.4417
1676	0.521
1685	0.5362
1694	0.5533
1703	0.5695
1712	0.5766
1721	0.5804
1730	0.582
1739	0.5829
1748	0.5823
1757	0.5811
1766	0.5799
1775	0.5781
1784	0.5766
1793	0.5754
1802	0.5725
1811	0.5655
1820	0.5579
1829	0.55
1838	0.5417
1847	0.5327
1856	0.524
1865	0.5221
1874	0.5211
1883	0.5171
1892	0.5013
1901	0.4837
1910	0.4702
1919	0.4567
1928	0.4411
1937	0.4096
1946	0.3804
1955	0.3749
1964	0.3471
1973	0.3287
1982	0.3101
1991	0.2856
2000	0.2762
2009	0.2753
2018	0.2748
2027	0.2746
2036	0.2735
2045	0.2607
2054	0.2519
2063	0.2497
2072	0.2488
2081	0.2555
2090	0.3084
2099	0.324
2108	0.3494
2117	0.3553
2126	0.3631
2135	0.3752
2144	0.3779
2153	0.3792
2162	0.3796
2171	0.3793
2180	0.3785
2189	0.3768
2198	0.3711
2207	0.3601
2216	0.3556
2225	0.3449
2234	0.3343
2243	0.3216
2252	0.3146
2261	0.3111
2270	0.3042
2279	0.2883
2288	0.2707
2297	0.2565
2306	0.2421
2315	0.2264
2324	0.2111
2333	0.1965
2342	0.1847
2351	0.181
2360	0.1746
2369	0.1681
2378	0.16
2387	0.1498
2396	0.1418
2405	0.1346
2414	0.1289
2423	0.122
2432	0.1145
2441	0.1092
2450	0.1044
2459	0.1011
2468	0.0989
2477	0.0978
2486	0.0969
2495	0.0955
2504	0.0937
2513	0.0916
2522	0.0902
2531	0.0892
2540	0.0887
2549	0.0885
2558	0.0885
2567	0.0888
2576	0.0886
2585	0.0888
2594	0.0904
2603	0.0924
2612	0.0946
2621	0.0985
2630	0.1055
2639	0.1096
2648	0.1117
2657	0.1127
2666	0.1135
2675	0.1143
2684	0.1149
2693	0.1172
2702	0.1208
2711	0.1269
2720	0.1348
2729	0.1445
2738	0.1553
2747	0.1657
2756	0.173
2765	0.177
2774	0.1781
2783	0.179
2792	0.1864
2801	0.1952
2810	0.1986
2819	0.2002
2828	0.2015
2837	0.2023
2846	0.203
2855	0.2039
2864	0.2093
2873	0.2198
2882	0.2237
2891	0.2246
2900	0.2248
2909	0.2248
2918	0.2248
2927	0.2247
2936	0.2246
2945	0.2244
2954	0.2243
2963	0.2239
2972	0.2235
2981	0.2227
2990	0.2211
2999	0.2185
3008	0.2164
3017	0.2164
3026	0.2193
3035	0.2294
3044	0.2399
3053	0.2502
3062	0.2605
3071	0.2708
3080	0.2843
3089	0.2901
3098	0.292
3107	0.2918
3116	0.2883
3125	0.2791
3134	0.2757
3143	0.2727
3152	0.2636
3161	0.2546
3170	0.2455
3179	0.2366
3188	0.2276
3197	0.2184
3206	0.2083
3215	0.1997
3224	0.1925
3233	0.1857
3242	0.1792
3251	0.1747
3260	0.1705
3269	0.1663
3278	0.1611
3287	0.1553
3296	0.1483
3305	0.1352
3314	0.1231
3323	0.1186
3332	0.1164
3341	0.1142
3350	0.1126
3359	0.1111
3368	0.1102
3377	0.1093
3386	0.1089
3395	0.1084
3404	0.1084
3413	0.1084
3422	0.1088
3431	0.1096
3440	0.1114
3449	0.1139
3458	0.1188
3467	0.1464
3476	0.1783
3485	0.2101
3494	0.2416
3503	0.273
3512	0.3043
3521	0.3354
3530	0.3663
3539	0.3971
3548	0.4277
3557	0.4581
3566	0.4884
3575	0.5186
3584	0.5486
3593	0.5784
3602	0.6081
3611	0.6377
3620	0.667
3629	0.676
3638	0.6815
3647	0.6844
3656	0.6859
3665	0.6869
3674	0.6873
3683	0.6878
3692	0.6883
3701	0.6888
3710	0.6892
3719	0.6894
3728	0.6895
3737	0.6896
3746	0.6897
3755	0.6897
3764	0.6897
3773	0.6898
3782	0.6898
3791	0.6898
3800	0.6897
3809	0.6896
3818	0.6894
3827	0.6893
3836	0.6892
3845	0.6891
3854	0.6889
3863	0.6888
3872	0.6886
3881	0.6885
3890	0.6882
3899	0.6881
3908	0.6879
3917	0.6878
3926	0.6876
3935	0.6875
3944	0.6873
3953	0.6872
3962	0.687
3971	0.6869
3980	0.6868
3989	0.6866
3998	0.6865
