Infrared Spectrum: 2-Phenylglyoxylamide
Formula: C8 H7 N O2
CAS: 7505-92-2
State: SOLID (SPLIT MULL), FLUOROLUBE FOR 3800-1330 CM^-^1, NUJOL FOR 1330-400 CM^-^1
Class: COBLENTZ II
Instrument: DOW KBr FOREPRISM-GRATING
Instrument parameters: BLAZED AT 3.5, 12.0, 20.0 MICRON AND CHANGED AT 5.0, 7.5, 14.9 MICRON
Sampling: TRANSMISSION
Resolution: 2
Origin: DOW CHEMICAL COMPANY
1/CM	TRANSMITTANCE
3810	0.7098
3801	0.7111
3792	0.7121
3783	0.7134
3774	0.7149
3765	0.7162
3756	0.7176
3747	0.7188
3738	0.7193
3729	0.7196
3720	0.7208
3711	0.7222
3702	0.7238
3693	0.725
3684	0.7261
3675	0.7271
3666	0.7278
3657	0.7283
3648	0.7288
3639	0.7282
3630	0.7275
3621	0.7262
3612	0.7251
3603	0.7234
3594	0.7207
3585	0.7162
3576	0.7151
3567	0.7142
3558	0.7132
3549	0.7128
3540	0.7128
3531	0.7126
3522	0.7125
3513	0.7115
3504	0.7099
3495	0.7072
3486	0.7014
3477	0.6821
3468	0.651
3459	0.6046
3450	0.5031
3441	0.2342
3432	0.2921
3423	0.3962
3414	0.4397
3405	0.4779
3396	0.5144
3387	0.5492
3378	0.5759
3369	0.5977
3360	0.6056
3351	0.6109
3342	0.6154
3333	0.6185
3324	0.6139
3315	0.5893
3306	0.5728
3297	0.5697
3288	0.5739
3279	0.5797
3270	0.5835
3261	0.5817
3252	0.5726
3243	0.5268
3234	0.4774
3225	0.4287
3216	0.4138
3207	0.4272
3198	0.4533
3189	0.4753
3180	0.499
3171	0.5201
3162	0.5396
3153	0.5591
3144	0.5776
3135	0.5908
3126	0.6036
3117	0.6145
3108	0.6239
3099	0.6314
3090	0.6392
3081	0.6468
3072	0.6556
3063	0.6645
3054	0.6741
3045	0.681
3036	0.6871
3027	0.6928
3018	0.6985
3009	0.704
3000	0.7093
2991	0.7135
2982	0.7178
2973	0.7219
2964	0.7264
2955	0.7308
2946	0.7351
2937	0.7393
2928	0.7434
2919	0.7468
2910	0.75
2901	0.7525
2892	0.7545
2883	0.7562
2874	0.7578
2865	0.7594
2856	0.7607
2847	0.7617
2838	0.7628
2829	0.7638
2820	0.7642
2811	0.7643
2802	0.7641
2793	0.7628
2784	0.7611
2775	0.7605
2766	0.7618
2757	0.7636
2748	0.7669
2739	0.7701
2730	0.773
2721	0.7754
2712	0.7764
2703	0.7769
2694	0.7772
2685	0.7768
2676	0.7762
2667	0.7768
2658	0.7783
2649	0.7808
2640	0.7842
2631	0.7856
2622	0.7871
2613	0.7886
2604	0.7901
2595	0.7915
2586	0.7925
2577	0.7937
2568	0.7949
2559	0.7957
2550	0.7961
2541	0.7965
2532	0.7968
2523	0.7971
2514	0.7971
2505	0.7972
2496	0.7974
2487	0.7974
2478	0.7972
2469	0.7971
2460	0.7975
2451	0.7978
2442	0.7981
2433	0.7983
2424	0.7988
2415	0.7998
2406	0.8008
2397	0.8018
2388	0.803
2379	0.8045
2370	0.806
2361	0.8069
2352	0.8081
2343	0.8097
2334	0.8115
2325	0.8117
2316	0.8103
2307	0.8088
2298	0.8082
2289	0.8078
2280	0.808
2271	0.81
2262	0.8122
2253	0.8145
2244	0.8162
2235	0.8176
2226	0.8191
2217	0.8207
2208	0.8223
2199	0.8239
2190	0.8256
2181	0.8274
2172	0.8291
2163	0.8302
2154	0.8313
2145	0.8325
2136	0.8342
2127	0.8357
2118	0.8371
2109	0.8384
2100	0.8398
2091	0.8413
2082	0.8428
2073	0.8444
2064	0.8459
2055	0.8471
2046	0.8484
2037	0.8494
2028	0.8508
2019	0.8521
2010	0.8541
2001	0.8566
1992	0.8391
1983	0.8563
1974	0.8547
1965	0.8554
1956	0.8575
1947	0.8595
1938	0.8654
1929	0.8621
1920	0.8639
1911	0.8649
1902	0.8611
1893	0.8657
1884	0.8697
1875	0.8695
1866	0.8693
1857	0.8693
1848	0.8698
1839	0.8701
1830	0.8702
1821	0.8704
1812	0.8706
1803	0.8707
1794	0.8709
1785	0.8711
1776	0.8712
1767	0.8714
1758	0.8716
1749	0.8718
1740	0.8718
1731	0.8699
1722	0.8463
1713	0.7908
1704	0.609
1695	0.3161
1686	0.2206
1677	0.2625
1668	0.1944
1659	0.1009
1650	0.2838
1641	0.545
1632	0.6359
1623	0.6878
1614	0.6847
1605	0.678
1596	0.4121
1587	0.5092
1578	0.4492
1569	0.6849
1560	0.7378
1551	0.763
1542	0.7786
1533	0.7892
1524	0.7976
1515	0.8054
1506	0.8117
1497	0.8139
1488	0.8101
1479	0.8259
1470	0.8313
1461	0.8324
1452	0.5859
1443	0.7861
1434	0.7917
1425	0.7851
1416	0.7607
1407	0.6668
1398	0.6887
1389	0.7567
1380	0.7656
1371	0.7812
1362	0.7865
1353	0.7878
1344	0.7884
1335	0.8051
1326	0.8142
1317	0.7374
1308	0.7705
1299	0.8075
1290	0.8108
1281	0.8001
1272	0.8075
1263	0.8011
1254	0.7265
1245	0.5874
1236	0.2617
1227	0.4235
1218	0.7048
1209	0.7746
1200	0.7971
1191	0.8003
1182	0.6009
1173	0.7631
1164	0.6415
1155	0.7669
1146	0.7975
1137	0.8015
1128	0.8118
1119	0.8087
1110	0.815
1101	0.773
1092	0.8088
1083	0.8285
1074	0.8041
1065	0.8175
1056	0.8489
1047	0.8564
1038	0.8573
1029	0.8439
1020	0.8547
1011	0.8658
1002	0.534
993	0.8566
984	0.7286
975	0.7231
966	0.849
957	0.8737
948	0.8799
939	0.879
930	0.8673
921	0.883
912	0.8868
903	0.8868
894	0.8866
885	0.8908
876	0.8913
867	0.8818
858	0.8721
849	0.8731
840	0.8462
831	0.8413
822	0.8612
813	0.8567
804	0.7717
795	0.7401
786	0.7905
777	0.8306
768	0.8389
759	0.7125
750	0.7117
741	0.7874
732	0.7732
723	0.4282
714	0.7401
705	0.7765
696	0.7508
687	0.5691
678	0.8005
669	0.8254
660	0.8227
651	0.8259
642	0.8119
633	0.4016
624	0.6227
615	0.621
606	0.5256
597	0.549
588	0.6082
579	0.6571
570	0.6332
561	0.7082
552	0.7812
543	0.8119
534	0.8318
525	0.8489
516	0.861
507	0.8674
498	0.8711
489	0.8739
480	0.8721
471	0.8655
462	0.7818
453	0.7304
444	0.726
435	0.7598
426	0.7625
417	0.7544
408	0.7453
399	0.7431
