Infrared Spectrum: Isothiocyanatoacetaldehyde dimethyl acetal
Formula: C 5 H 9 N O 2 S
CAS: 75052-04-9
State: gas
Origin: EPA-IR VAPOR PHASE LIBRARY
1/CM	ABSORBANCE
549.8	0.019669
559.445	0.019139
569.09	0.017829
578.734	0.015859
588.379	0.013539
598.024	0.011139
607.669	0.008509
617.313	0.006979
626.958	0.005519
636.603	0.004619
646.248	0.004629
655.893	0.004679
665.537	0.004679
675.182	0.004289
684.827	0.005239
694.472	0.008269
704.116	0.014479
713.761	0.021469
723.406	0.023449
733.051	0.019819
742.695	0.012949
752.34	0.007649
761.985	0.005219
771.63	0.004139
781.275	0.003349
790.919	0.003189
800.564	0.004159
810.209	0.007469
819.854	0.012249
829.498	0.016999
839.143	0.020649
848.788	0.018559
858.433	0.012069
868.078	0.008029
877.722	0.006049
887.367	0.005249
897.012	0.005839
906.657	0.007679
916.301	0.010299
925.946	0.011629
935.591	0.010559
945.236	0.010799
954.88	0.014049
964.525	0.019369
974.17	0.024089
983.815	0.022439
993.46	0.017029
1003.1	0.015079
1012.75	0.018329
1022.39	0.025899
1032.04	0.034219
1041.68	0.043969
1051.33	0.061489
1060.97	0.079659
1070.62	0.097409
1080.26	0.139279
1089.91	0.189329
1099.55	0.187389
1109.2	0.152939
1118.84	0.146339
1128.49	0.158769
1138.13	0.138849
1147.78	0.094849
1157.42	0.063219
1167.07	0.047199
1176.71	0.044569
1186.36	0.053439
1196	0.066139
1205.64	0.062379
1215.29	0.043139
1224.93	0.030969
1234.58	0.028659
1244.22	0.029849
1253.87	0.030269
1263.51	0.027029
1273.16	0.022029
1282.8	0.019679
1292.45	0.026149
1302.09	0.039999
1311.74	0.036799
1321.38	0.019579
1331.03	0.015239
1340.67	0.018299
1350.32	0.025979
1359.96	0.030419
1369.61	0.030179
1379.25	0.024999
1388.9	0.016779
1398.54	0.011039
1408.18	0.009049
1417.83	0.009559
1427.47	0.012649
1437.12	0.025769
1446.76	0.039839
1456.41	0.034279
1466.05	0.021729
1475.7	0.015369
1485.34	0.010549
1494.99	0.007459
1504.63	0.005809
1514.28	0.004699
1523.92	0.004179
1533.57	0.003789
1543.21	0.003689
1552.86	0.003579
1562.5	0.003509
1572.15	0.003289
1581.79	0.003099
1591.44	0.002939
1601.08	0.002719
1610.73	0.002559
1620.37	0.002489
1630.01	0.002499
1639.66	0.002569
1649.3	0.002599
1658.95	0.002429
1668.59	0.002489
1678.24	0.002379
1687.88	0.002329
1697.53	0.002229
1707.17	0.002089
1716.82	0.002159
1726.46	0.002109
1736.11	0.002119
1745.75	0.001999
1755.4	0.002009
1765.04	0.001949
1774.69	0.001839
1784.33	0.001799
1793.98	0.001849
1803.62	0.001869
1813.27	0.001879
1822.91	0.002019
1832.55	0.002169
1842.2	0.002389
1851.84	0.002739
1861.49	0.003349
1871.13	0.004039
1880.78	0.004869
1890.42	0.006049
1900.07	0.007589
1909.71	0.009349
1919.36	0.011399
1929	0.014019
1938.65	0.017569
1948.29	0.022269
1957.94	0.028769
1967.58	0.037659
1977.23	0.050109
1986.87	0.067419
1996.52	0.092099
2006.16	0.127279
2015.81	0.178559
2025.45	0.251029
2035.1	0.339829
2044.74	0.428729
2054.38	0.494319
2064.03	0.487649
2073.67	0.389419
2083.32	0.280499
2092.96	0.203549
2102.61	0.161769
2112.25	0.149699
2121.9	0.142789
2131.54	0.117419
2141.19	0.087749
2150.83	0.066899
2160.48	0.054439
2170.12	0.047789
2179.77	0.044169
2189.41	0.041479
2199.06	0.038829
2208.7	0.036649
2218.35	0.035559
2227.99	0.034569
2237.64	0.032759
2247.28	0.029429
2256.92	0.024429
2266.57	0.018479
2276.21	0.013639
2285.86	0.010159
2295.5	0.007939
2305.15	0.006299
2314.79	0.005209
2324.44	0.004349
2334.08	0.003729
2343.73	0.003399
2353.37	0.003139
2363.02	0.002909
2372.66	0.002769
2382.31	0.002639
2391.95	0.002679
2401.6	0.002449
2411.24	0.002359
2420.89	0.002289
2430.53	0.002189
2440.18	0.002169
2449.82	0.001869
2459.47	0.001899
2469.11	0.001859
2478.75	0.001979
2488.4	0.002119
2498.04	0.002209
2507.69	0.002459
2517.33	0.002509
2526.98	0.002699
2536.62	0.002959
2546.27	0.003219
2555.91	0.003669
2565.56	0.004149
2575.2	0.004059
2584.85	0.003779
2594.49	0.003519
2604.14	0.003269
2613.78	0.003079
2623.43	0.002949
2633.07	0.003139
2642.72	0.003489
2652.36	0.003809
2662.01	0.003879
2671.65	0.003839
2681.29	0.003859
2690.94	0.003849
2700.58	0.004109
2710.23	0.004329
2719.87	0.004669
2729.52	0.005269
2739.16	0.005959
2748.81	0.006719
2758.45	0.007459
2768.1	0.008479
2777.74	0.009959
2787.39	0.010749
2797.03	0.011949
2806.68	0.014199
2816.32	0.018489
2825.97	0.027759
2835.61	0.044319
2845.26	0.051699
2854.9	0.040559
2864.55	0.031599
2874.19	0.028859
2883.84	0.028449
2893.48	0.031499
2903.12	0.038569
2912.77	0.047809
2922.41	0.054309
2932.06	0.063949
2941.7	0.078759
2951.35	0.082579
2960.99	0.071489
2970.64	0.056289
2980.28	0.044279
2989.93	0.038179
2999.57	0.038449
3009.22	0.034449
3018.86	0.023689
3028.51	0.015789
3038.15	0.011969
3047.8	0.009989
3057.44	0.008999
3067.09	0.007719
3076.73	0.006869
3086.38	0.005899
3096.02	0.005019
3105.67	0.004239
3115.31	0.003369
3124.95	0.002769
3134.6	0.002089
3144.24	0.001899
3153.89	0.001609
3163.53	0.0013564
3173.18	0.0012327
3182.82	0.0009144
3192.47	0.0007688
3202.11	0.0005897
3211.76	0.0006961
3221.4	0.00050631
3231.05	0.00051894
3240.69	0.0006396
3250.34	0.0004151
3259.98	0.0003907
3269.63	0.0004047
3279.27	0.000121
3288.92	0.000249
3298.56	0.000364
3308.21	0.000198
3317.85	0.00018
3327.49	0.000346
3337.14	0.000242
3346.78	0.000106
3356.43	0.000336
3366.07	0.000269
3375.72	0.000171
3385.36	0.000328
3395.01	0.000286
3404.65	0.000245
3414.3	0.000269
3423.94	0.0004079
3433.59	0.000189
3443.23	0.0003895
3452.88	0.0004156
3462.52	0.00054184
3472.17	0.0003862
3481.81	0.000278
3491.46	0.00051744
3501.1	0.00054444
3510.75	0.000349
3520.39	0.00044
3530.04	0.00049993
3539.68	0.0004103
3549.32	0.00047775
3558.97	0.000113
3568.61	0.000188
3578.26	0.000378
3587.9	0.000113
3597.55	0.0003
3607.19	0.000346
3616.84	0.000227
3626.48	0.000141
3636.13	0.000208
3645.77	0.000348
3655.42	0.0004235
3665.06	0.00027
3674.71	0.00046992
3684.35	0.000365
3694	0.000353
3703.64	0.000273
3713.29	0.0006853
3722.93	0.000442
3732.58	0.000337
3742.22	0.000337
3751.86	0.00033
3761.51	0.000359
3771.15	0.0004213
3780.8	0.000344
3790.44	0.000348
3800.09	0.000481216
3809.73	0.0004371
3819.38	0.0006477
3829.02	0.0005949
3838.67	0.0007872
3848.31	0.0008488
3857.96	0.0008657
3867.6	0.000895
3877.25	0.0007793
3886.89	0.0008454
3896.54	0.0008104
3906.18	0.0010055
3915.83	0.0010306
3925.47	0.0014523
3935.12	0.001539
3944.76	0.0014324
3954.41	0.0013961
3964.05	0.0014312
3973.69	0.001879
3983.34	0.002079
3992.98	0.002169
