Infrared Spectrum: 2-Methylaminobenzonitrile
Formula: C8 H8 N2
CAS: 7505-81-9
State: gas
Origin: EPA-IR VAPOR PHASE LIBRARY
1/CM	ABSORBANCE
549.8	0.004217
559.445	0.002907
569.09	0.002267
578.734	0.002387
588.379	0.002297
598.024	0.002797
607.669	0.003247
617.313	0.005007
626.958	0.006557
636.603	0.005197
646.248	0.003197
655.893	0.003087
665.537	0.003257
675.182	0.003017
684.827	0.004037
694.472	0.005387
704.116	0.006567
713.761	0.005177
723.406	0.005127
733.051	0.007867
742.695	0.013967
752.34	0.008467
761.985	0.004557
771.63	0.003457
781.275	0.003287
790.919	0.003267
800.564	0.003297
810.209	0.003487
819.854	0.003487
829.498	0.003357
839.143	0.003117
848.788	0.002907
858.433	0.002317
868.078	0.002067
877.722	0.001887
887.367	0.002267
897.012	0.002097
906.657	0.001957
916.301	0.002097
925.946	0.002027
935.591	0.001947
945.236	0.001627
954.88	0.001757
964.525	0.001337
974.17	0.001427
983.815	0.001557
993.46	0.001587
1003.1	0.001567
1012.75	0.001847
1022.39	0.002197
1032.04	0.002587
1041.68	0.003107
1051.33	0.003087
1060.97	0.003077
1070.62	0.004007
1080.26	0.003817
1089.91	0.002467
1099.55	0.002997
1109.2	0.002867
1118.84	0.002307
1128.49	0.002147
1138.13	0.002197
1147.78	0.002567
1157.42	0.005177
1167.07	0.008507
1176.71	0.007777
1186.36	0.004167
1196	0.002447
1205.64	0.003127
1215.29	0.003457
1224.93	0.003807
1234.58	0.003607
1244.22	0.004407
1253.87	0.005507
1263.51	0.008787
1273.16	0.015917
1282.8	0.020157
1292.45	0.016177
1302.09	0.010967
1311.74	0.010857
1321.38	0.012477
1331.03	0.012417
1340.67	0.011897
1350.32	0.015377
1359.96	0.016977
1369.61	0.010667
1379.25	0.004097
1388.9	0.002557
1398.54	0.002107
1408.18	0.002077
1417.83	0.003447
1427.47	0.006427
1437.12	0.006947
1446.76	0.004737
1456.41	0.005107
1466.05	0.005147
1475.7	0.004797
1485.34	0.004847
1494.99	0.005477
1504.63	0.008097
1514.28	0.015027
1523.92	0.019767
1533.57	0.015107
1543.21	0.007187
1552.86	0.005897
1562.5	0.009907
1572.15	0.021117
1581.79	0.032077
1591.44	0.029567
1601.08	0.019147
1610.73	0.014347
1620.37	0.009297
1630.01	0.007057
1639.66	0.006537
1649.3	0.007727
1658.95	0.009287
1668.59	0.015367
1678.24	0.034287
1687.88	0.043297
1697.53	0.028087
1707.17	0.011527
1716.82	0.007807
1726.46	0.006117
1736.11	0.004337
1745.75	0.002577
1755.4	0.001667
1765.04	0.001327
1774.69	0.001044
1784.33	0.000924
1793.98	0.0009229
1803.62	0.0008379
1813.27	0.0008191
1822.91	0.0007186
1832.55	0.0007464
1842.2	0.0008598
1851.84	0.0008781
1861.49	0.0008161
1871.13	0.0008087
1880.78	0.0007676
1890.42	0.0008693
1900.07	0.0007602
1909.71	0.0007026
1919.36	0.0008417
1929	0.0007629
1938.65	0.000567
1948.29	0.0004874
1957.94	0.0005344
1967.58	0.0005009
1977.23	0.000449
1986.87	0.0005253
1996.52	0.0004541
2006.16	0.0004127
2015.81	0.0004103
2025.45	0.0004452
2035.1	0.00035916
2044.74	0.0002552
2054.38	0.0004089
2064.03	0.00037981
2073.67	0.0005299
2083.32	0.0004741
2092.96	0.0004442
2102.61	0.0004058
2112.25	0.00036089
2121.9	0.00036956
2131.54	0.0004601
2141.19	0.0004465
2150.83	0.0005301
2160.48	0.00035733
2170.12	0.0005102
2179.77	0.0003987
2189.41	0.0005385
2199.06	0.0004942
2208.7	0.0004289
2218.35	0.00039438
2227.99	0.00038289
2237.64	0.00034481
2247.28	0.0004467
2256.92	0.0003181
2266.57	0.00031529
2276.21	0.0004537
2285.86	0.0004219
2295.5	0.00037587
2305.15	0.0004408
2314.79	0.00036389
2324.44	0.0004539
2334.08	0.0004587
2343.73	0.0004549
2353.37	0.0004355
2363.02	0.00037755
2372.66	0.00035989
2382.31	0.0002806
2391.95	0.00039529
2401.6	0.000465
2411.24	0.0005
2420.89	0.00038946
2430.53	0.000428
2440.18	0.00035613
2449.82	0.00031563
2459.47	0.00033762
2469.11	0.0002664
2478.75	0.0002757
2488.4	0.0002504
2498.04	0.000343
2507.69	0.0003701
2517.33	0.0002543
2526.98	0.0004751
2536.62	0.00038728
2546.27	0.0004092
2555.91	0.0004295
2565.56	0.00044
2575.2	0.00038595
2584.85	0.0004649
2594.49	0.0005329
2604.14	0.0004013
2613.78	0.0005407
2623.43	0.0004437
2633.07	0.0005016
2642.72	0.00037665
2652.36	0.0006214
2662.01	0.0004209
2671.65	0.0004981
2681.29	0.0005698
2690.94	0.0004225
2700.58	0.000577
2710.23	0.0004451
2719.87	0.000427
2729.52	0.0006115
2739.16	0.0007494
2748.81	0.0007707
2758.45	0.0008183
2768.1	0.0007042
2777.74	0.0008937
2787.39	0.0009222
2797.03	0.0012429
2806.68	0.001577
2816.32	0.002687
2825.97	0.004147
2835.61	0.003857
2845.26	0.001967
2854.9	0.001787
2864.55	0.002407
2874.19	0.003087
2883.84	0.003577
2893.48	0.004017
2903.12	0.004817
2912.77	0.005287
2922.41	0.004887
2932.06	0.004107
2941.7	0.004037
2951.35	0.003597
2960.99	0.002987
2970.64	0.002417
2980.28	0.002607
2989.93	0.003137
2999.57	0.002687
3009.22	0.001827
3018.86	0.002087
3028.51	0.002387
3038.15	0.002247
3047.8	0.002447
3057.44	0.002597
3067.09	0.002957
3076.73	0.003827
3086.38	0.004287
3096.02	0.003137
3105.67	0.001997
3115.31	0.0012445
3124.95	0.000956
3134.6	0.0008626
3144.24	0.0009119
3153.89	0.0008538
3163.53	0.0007341
3173.18	0.0005234
3182.82	0.0005702
3192.47	0.000626
3202.11	0.0007159
3211.76	0.0004608
3221.4	0.0006484
3231.05	0.0005795
3240.69	0.0006767
3250.34	0.0008994
3259.98	0.0012263
3269.63	0.001477
3279.27	0.001567
3288.92	0.001667
3298.56	0.001957
3308.21	0.002327
3317.85	0.002917
3327.49	0.004317
3337.14	0.005437
3346.78	0.006357
3356.43	0.006777
3366.07	0.006547
3375.72	0.005507
3385.36	0.004647
3395.01	0.003597
3404.65	0.002987
3414.3	0.002607
3423.94	0.003967
3433.59	0.005177
3443.23	0.003997
3452.88	0.001977
3462.52	0.0012221
3472.17	0.0007978
3481.81	0.0010574
3491.46	0.0008008
3501.1	0.0008532
3510.75	0.0011845
3520.39	0.001377
3530.04	0.001767
3539.68	0.002697
3549.32	0.003467
3558.97	0.003107
3568.61	0.001657
3578.26	0.0008722
3587.9	0.0006499
3597.55	0.000629
3607.19	0.0002696
3616.84	0.0002629
3626.48	0.000154
3636.13	0.0004002
3645.77	0.0002022
3655.42	0.00033179
3665.06	0.00032667
3674.71	0.000478
3684.35	0.000231
3694	0.0002441
3703.64	0.0005064
3713.29	0.0005104
3722.93	0.00046
3732.58	0.00028901
3742.22	0.0004604
3751.86	0.0002597
3761.51	0.000177
3771.15	0.000145
3780.8	0.0002598
3790.44	0.000249
3800.09	0.0005461
3809.73	0.0004125
3819.38	0.00032771
3829.02	0.0004859
3838.67	0.0002753
3848.31	0.0003689
3857.96	0.000188
3867.6	0.000300918
3877.25	0.00032611
3886.89	0.0002225
3896.54	0.0002633
3906.18	0.00038378
3915.83	0.00035965
3925.47	0.00032318
3935.12	0.000122
3944.76	0.000172
3954.41	0.0002865
3964.05	0.0002289
3973.69	0.00036157
3983.34	0.00035954
3992.98	0.0002649
