Infrared Spectrum: 4,5-Dimethoxy-2-nitrotoluene
Formula: C 9 H 11 N O 4
CAS: 7509-11-7
State: gas
Origin: EPA-IR VAPOR PHASE LIBRARY
1/CM	ABSORBANCE
549.8	0.00071907
559.445	0.000397
569.09	0.000408
578.734	0.0008482
588.379	0.002063
598.024	0.002233
607.669	0.002353
617.313	0.001813
626.958	0.001853
636.603	0.0013013
646.248	0.0010131
655.893	0.0008763
665.537	0.0010813
675.182	0.0008622
684.827	0.0008909
694.472	0.0008008
704.116	0.0008215
713.761	0.001663
723.406	0.0012809
733.051	0.001753
742.695	0.002683
752.34	0.003633
761.985	0.004413
771.63	0.005383
781.275	0.008353
790.919	0.012943
800.564	0.010113
810.209	0.004113
819.854	0.002533
829.498	0.002473
839.143	0.004303
848.788	0.005153
858.433	0.004493
868.078	0.004363
877.722	0.005093
887.367	0.005323
897.012	0.003483
906.657	0.001913
916.301	0.0012206
925.946	0.0014481
935.591	0.0015582
945.236	0.002043
954.88	0.002543
964.525	0.004173
974.17	0.006063
983.815	0.006573
993.46	0.005693
1003.1	0.006173
1012.75	0.007943
1022.39	0.011463
1032.04	0.016173
1041.68	0.015443
1051.33	0.013373
1060.97	0.020913
1070.62	0.023413
1080.26	0.011313
1089.91	0.004113
1099.55	0.003423
1109.2	0.002603
1118.84	0.002373
1128.49	0.002443
1138.13	0.004083
1147.78	0.005983
1157.42	0.010963
1167.07	0.012093
1176.71	0.010443
1186.36	0.010293
1196	0.011533
1205.64	0.017613
1215.29	0.030893
1224.93	0.038613
1234.58	0.029063
1244.22	0.017753
1253.87	0.022003
1263.51	0.037953
1273.16	0.053013
1282.8	0.047473
1292.45	0.034783
1302.09	0.026913
1311.74	0.022843
1321.38	0.022333
1331.03	0.029943
1340.67	0.043093
1350.32	0.044283
1359.96	0.029343
1369.61	0.017573
1379.25	0.013123
1388.9	0.011443
1398.54	0.008733
1408.18	0.006553
1417.83	0.006443
1427.47	0.008303
1437.12	0.013003
1446.76	0.015373
1456.41	0.015773
1466.05	0.019543
1475.7	0.017863
1485.34	0.018863
1494.99	0.032943
1504.63	0.056613
1514.28	0.062433
1523.92	0.062713
1533.57	0.072323
1543.21	0.052843
1552.86	0.030843
1562.5	0.025623
1572.15	0.024183
1581.79	0.019603
1591.44	0.011633
1601.08	0.006853
1610.73	0.005973
1620.37	0.005373
1630.01	0.003763
1639.66	0.002803
1649.3	0.002393
1658.95	0.002013
1668.59	0.001903
1678.24	0.001843
1687.88	0.0016221
1697.53	0.001723
1707.17	0.001663
1716.82	0.001428
1726.46	0.0013901
1736.11	0.0013712
1745.75	0.0012649
1755.4	0.0012317
1765.04	0.0012762
1774.69	0.0011834
1784.33	0.0011109
1793.98	0.0010849
1803.62	0.0010016
1813.27	0.0011374
1822.91	0.0010567
1832.55	0.0010037
1842.2	0.0009547
1851.84	0.0010008
1861.49	0.0009389
1871.13	0.0009839
1880.78	0.0009115
1890.42	0.0008569
1900.07	0.0008252
1909.71	0.0008686
1919.36	0.0008382
1929	0.0009285
1938.65	0.000849
1948.29	0.0008464
1957.94	0.0009991
1967.58	0.0009386
1977.23	0.0010608
1986.87	0.0011974
1996.52	0.0013001
2006.16	0.0013952
2015.81	0.0014412
2025.45	0.0014801
2035.1	0.0015148
2044.74	0.0014798
2054.38	0.0013668
2064.03	0.0012939
2073.67	0.0011867
2083.32	0.0011061
2092.96	0.0010823
2102.61	0.0009764
2112.25	0.0009171
2121.9	0.0008451
2131.54	0.0008285
2141.19	0.00072534
2150.83	0.00063554
2160.48	0.00058
2170.12	0.0006161
2179.77	0.00070397
2189.41	0.0008164
2199.06	0.0008573
2208.7	0.00072037
2218.35	0.00074005
2227.99	0.0008409
2237.64	0.00073525
2247.28	0.0008606
2256.92	0.0008361
2266.57	0.0008369
2276.21	0.000801
2285.86	0.0008826
2295.5	0.0008273
2305.15	0.0009028
2314.79	0.0008447
2324.44	0.000776
2334.08	0.00074034
2343.73	0.00071899
2353.37	0.0007453
2363.02	0.0009079
2372.66	0.0008914
2382.31	0.0008449
2391.95	0.000801
2401.6	0.0008439
2411.24	0.0010353
2420.89	0.0008794
2430.53	0.000946
2440.18	0.0008636
2449.82	0.0008563
2459.47	0.0008579
2469.11	0.00072375
2478.75	0.00072016
2488.4	0.00070031
2498.04	0.0007623
2507.69	0.0006311
2517.33	0.00073481
2526.98	0.0008368
2536.62	0.0008345
2546.27	0.0009904
2555.91	0.0010358
2565.56	0.0011524
2575.2	0.0011926
2584.85	0.0014066
2594.49	0.0014393
2604.14	0.0014754
2613.78	0.0013397
2623.43	0.001197
2633.07	0.0011126
2642.72	0.0011546
2652.36	0.001217
2662.01	0.0011449
2671.65	0.001008
2681.29	0.0009828
2690.94	0.0009788
2700.58	0.0008081
2710.23	0.00087
2719.87	0.0008863
2729.52	0.000934
2739.16	0.0009166
2748.81	0.0010888
2758.45	0.0011494
2768.1	0.0011383
2777.74	0.0012473
2787.39	0.0012911
2797.03	0.0016141
2806.68	0.002013
2816.32	0.002793
2825.97	0.003823
2835.61	0.005763
2845.26	0.008543
2854.9	0.010043
2864.55	0.007763
2874.19	0.006003
2883.84	0.005743
2893.48	0.006103
2903.12	0.006893
2912.77	0.008213
2922.41	0.009673
2932.06	0.012323
2941.7	0.019013
2951.35	0.019203
2960.99	0.014643
2970.64	0.012213
2980.28	0.010383
2989.93	0.009613
2999.57	0.009613
3009.22	0.011943
3018.86	0.009993
3028.51	0.005093
3038.15	0.003673
3047.8	0.003193
3057.44	0.002663
3067.09	0.002783
3076.73	0.002553
3086.38	0.002623
3096.02	0.002213
3105.67	0.001693
3115.31	0.0015043
3124.95	0.0012281
3134.6	0.0011696
3144.24	0.0009603
3153.89	0.0008467
3163.53	0.00069301
3173.18	0.00072158
3182.82	0.000644296
3192.47	0.000646003
3202.11	0.0007527
3211.76	0.00064041
3221.4	0.000521
3231.05	0.000436
3240.69	0.0005784
3250.34	0.0005594
3259.98	0.000394
3269.63	0.000279
3279.27	0.000352
3288.92	0.000337
3298.56	0.000351
3308.21	0.000157
3317.85	0.00032
3327.49	0.000228
3337.14	0.000278
3346.78	0.000468
3356.43	0.000252
3366.07	0.000394
3375.72	0.000123
3385.36	0.000438
3395.01	0.000432
3404.65	0.000219
3414.3	0.000166
3423.94	0.000307
3433.59	0.000179
3443.23	0.000262
3452.88	0.000156
3462.52	0.000192
3472.17	0.000216
3481.81	0.000332
3491.46	0.000211
3501.1	0.000257
3510.75	0.000239
3520.39	0.000353
3530.04	0.00044
3539.68	0.000357
3549.32	0.000263
3558.97	0.000246
3568.61	0.000211
3578.26	0.000322
3587.9	0.00013
3597.55	0
3607.19	0.000253
3616.84	0.000218
3626.48	0.000356
3636.13	0.00022
3645.77	0.000354
3655.42	0.000419
3665.06	0.000388
3674.71	0.000402
3684.35	0.000159
3694	0.000312
3703.64	0.00018
3713.29	0.000205
3722.93	0.000233
3732.58	0.000193
3742.22	0.000338
3751.86	0.000108
3761.51	0.000415
3771.15	0.000259
3780.8	0.000228
3790.44	0.000257
3800.09	0.000304
3809.73	0.00018
3819.38	0.000484
3829.02	0.000128
3838.67	0.000128
3848.31	0.000317
3857.96	0.000156
3867.6	0.000231
3877.25	0.000109
3886.89	0.000419
3896.54	0.000319
3906.18	0.000232
3915.83	0.000367
3925.47	0.000244
3935.12	0.000212
3944.76	0.000366
3954.41	0.000288
3964.05	0.00043
3973.69	0.000164
3983.34	0.000412
3992.98	0.00072002
