Infrared Spectrum: Imidazole-4-carboxamide, N-ethyl-5-nitro
Formula: C6 H8 N4 O3
CAS: 7509-96-8
State: SOLID (0.8 mg / 650 mg KBr DISC)
Class: COBLENTZ III
Instrument: PERKIN-ELMER 221 (GRATING)
Instrument parameters: FILTER AT 980 CM^-^1. GRATING 4000-1428 CM^-^1, NaCl PRISM 1428-650 CM^-^1
Sampling: TRANSMISSION
Resolution: 2
Origin: SOUTHERN RESEARCH INSTITUTE
1/CM	TRANSMITTANCE
645	0.3792
654.027	0.4917
663.054	0.6815
672.082	0.786
681.109	0.7797
690.136	0.778
699.163	0.7798
708.191	0.7828
717.218	0.7872
726.245	0.7916
735.272	0.7883
744.3	0.7696
753.327	0.6168
762.354	0.8068
771.381	0.8044
780.408	0.7819
789.436	0.7934
798.463	0.7646
807.49	0.6967
816.517	0.3383
825.545	0.7451
834.572	0.766
843.599	0.7541
852.626	0.6864
861.654	0.365
870.681	0.2484
879.708	0.6461
888.735	0.7787
897.762	0.7697
906.79	0.7167
915.817	0.6822
924.844	0.627
933.871	0.5037
942.899	0.4558
951.926	0.3597
960.953	0.0683
969.98	0.3649
979.008	0.7564
988.035	0.8109
997.062	0.8163
1006.09	0.8172
1015.12	0.8149
1024.14	0.8057
1033.17	0.797
1042.2	0.7978
1051.23	0.8011
1060.25	0.7954
1069.28	0.7694
1078.31	0.613
1087.33	0.5529
1096.36	0.615
1105.39	0.7115
1114.42	0.7104
1123.44	0.6981
1132.47	0.6733
1141.5	0.6508
1150.52	0.656
1159.55	0.7212
1168.58	0.7227
1177.61	0.7166
1186.63	0.7096
1195.66	0.691
1204.69	0.665
1213.72	0.6352
1222.74	0.4874
1231.77	0.2584
1240.8	0.4604
1249.82	0.3852
1258.85	0.129
1267.88	0.6035
1276.91	0.641
1285.93	0.6089
1294.96	0.541
1303.99	0.3994
1313.02	0.2707
1322.04	0.2725
1331.07	0.1744
1340.1	0.2319
1349.12	0.1929
1358.15	0.0333
1367.18	0.0362
1376.21	0.3815
1385.23	0.5545
1394.26	0.5983
1403.29	0.5975
1412.31	0.5856
1421.34	0.5521
1430.37	0.4773
1439.4	0.3526
1448.42	0.1967
1457.45	0.1628
1466.48	0.1956
1475.51	0.0634
1484.53	0.2528
1493.56	0.4775
1502.59	0.4505
1511.61	0.1858
1520.64	0.0755
1529.67	0.0747
1538.7	0.1109
1547.72	0.0473
1556.75	0.093
1565.78	0.1979
1574.8	0.3712
1583.83	0.3636
1592.86	0.1996
1601.89	0.2768
1610.91	0.3322
1619.94	0.2907
1628.97	0.1722
1638	0.0213
1647.02	0.0233
1656.05	0.1026
1665.08	0.2291
1674.1	0.4225
1683.13	0.6142
1692.16	0.6664
1701.19	0.7237
1710.21	0.7218
1719.24	0.7229
1728.27	0.7138
1737.3	0.7101
1746.32	0.7193
1755.35	0.7269
1764.38	0.7236
1773.4	0.7207
1782.43	0.7177
1791.46	0.6985
1800.49	0.6734
1809.51	0.6592
1818.54	0.6491
1827.57	0.6409
1836.59	0.6362
1845.62	0.6223
1854.65	0.6114
1863.68	0.6111
1872.7	0.6159
1881.73	0.6312
1890.76	0.6558
1899.79	0.6698
1908.81	0.6855
1917.84	0.7033
1926.87	0.7338
1935.89	0.7469
1944.92	0.755
1953.95	0.7602
1962.98	0.7653
1972	0.7744
1981.03	0.7862
1990.06	0.7987
1999.08	0.8057
2008.11	0.8084
2017.14	0.8108
2026.17	0.8145
2035.19	0.8189
2044.22	0.8231
2053.25	0.8266
2062.28	0.8295
2071.3	0.8309
2080.33	0.8298
2089.36	0.828
2098.38	0.8264
2107.41	0.8242
2116.44	0.8222
2125.47	0.8218
2134.49	0.8218
2143.52	0.821
2152.55	0.819
2161.57	0.8164
2170.6	0.8091
2179.63	0.7973
2188.66	0.7914
2197.68	0.7878
2206.71	0.7851
2215.74	0.7813
2224.77	0.7768
2233.79	0.7706
2242.82	0.7623
2251.85	0.7489
2260.87	0.737
2269.9	0.7269
2278.93	0.7188
2287.96	0.7115
2296.98	0.7
2306.01	0.6713
2315.04	0.6394
2324.07	0.6055
2333.09	0.5845
2342.12	0.5745
2351.15	0.5575
2360.17	0.5081
2369.2	0.502
2378.23	0.497
2387.26	0.4926
2396.28	0.4884
2405.31	0.4847
2414.34	0.4798
2423.36	0.4719
2432.39	0.4576
2441.42	0.4236
2450.45	0.3949
2459.47	0.3929
2468.5	0.3931
2477.53	0.3954
2486.56	0.3599
2495.58	0.3295
2504.61	0.3115
2513.64	0.2841
2522.66	0.2622
2531.69	0.2618
2540.72	0.2608
2549.75	0.2572
2558.77	0.2363
2567.8	0.2132
2576.83	0.1987
2585.85	0.1983
2594.88	0.2042
2603.91	0.2208
2612.94	0.2188
2621.96	0.2104
2630.99	0.201
2640.02	0.201
2649.05	0.202
2658.07	0.2046
2667.1	0.2563
2676.13	0.2808
2685.15	0.2759
2694.18	0.2373
2703.21	0.2203
2712.24	0.2184
2721.26	0.2098
2730.29	0.2178
2739.32	0.2208
2748.34	0.221
2757.37	0.2176
2766.4	0.205
2775.43	0.2
2784.45	0.2015
2793.48	0.208
2802.51	0.2176
2811.54	0.2533
2820.56	0.2699
2829.59	0.2765
2838.62	0.2872
2847.64	0.3231
2856.67	0.3596
2865.7	0.3892
2874.73	0.3792
2883.75	0.3162
2892.78	0.2827
2901.81	0.2514
2910.84	0.2472
2919.86	0.2461
2928.89	0.2453
2937.92	0.2491
2946.94	0.2756
2955.97	0.3278
2965	0.3258
2974.03	0.2975
2983.05	0.2816
2992.08	0.3177
3001.11	0.3477
3010.13	0.4126
3019.16	0.4344
3028.19	0.4292
3037.22	0.4028
3046.24	0.3831
3055.27	0.4194
3064.3	0.4382
3073.33	0.4458
3082.35	0.458
3091.38	0.4775
3100.41	0.5086
3109.43	0.5303
3118.46	0.5661
3127.49	0.5739
3136.52	0.5668
3145.54	0.5128
3154.57	0.5468
3163.6	0.6403
3172.62	0.6413
3181.65	0.6415
3190.68	0.6413
3199.71	0.6408
3208.73	0.6373
3217.76	0.6292
3226.79	0.6142
3235.82	0.5894
3244.84	0.5574
3253.87	0.5115
3262.9	0.4472
3271.92	0.383
3280.95	0.3224
3289.98	0.2142
3299.01	0.1507
3308.03	0.1262
3317.06	0.1273
3326.09	0.1527
3335.11	0.2282
3344.14	0.3032
3353.17	0.4157
3362.2	0.4844
3371.22	0.5192
3380.25	0.5707
3389.28	0.6059
3398.31	0.6625
3407.33	0.6794
3416.36	0.6884
3425.39	0.706
3434.41	0.7271
3443.44	0.7346
3452.47	0.7397
3461.5	0.7435
3470.52	0.7471
3479.55	0.7509
3488.58	0.7546
3497.61	0.758
3506.63	0.7607
3515.66	0.7626
3524.69	0.7737
3533.71	0.7789
3542.74	0.7821
3551.77	0.7857
3560.8	0.7926
3569.82	0.8116
3578.85	0.8153
3587.88	0.827
3596.9	0.838
3605.93	0.8469
3614.96	0.8514
3623.99	0.8539
3633.01	0.8562
3642.04	0.8575
3651.07	0.8579
3660.1	0.8578
3669.12	0.8578
3678.15	0.8579
3687.18	0.8581
3696.2	0.858
3705.23	0.8577
3714.26	0.8574
3723.29	0.8575
3732.31	0.8578
3741.34	0.8581
3750.37	0.8582
3759.39	0.8584
3768.42	0.8584
3777.45	0.8584
3786.48	0.8582
3795.5	0.8564
3804.53	0.8544
3813.56	0.8507
3822.59	0.849
3831.61	0.8488
3840.64	0.8492
3849.67	0.85
3858.69	0.8507
3867.72	0.849
3876.75	0.8481
3885.78	0.8481
3894.8	0.848
3903.83	0.8476
3912.86	0.8469
3921.89	0.8465
3930.91	0.8464
3939.94	0.8458
3948.97	0.845
3957.99	0.8442
