Infrared Spectrum: Maleic acid, dioctadecyl ester
Formula: C40 H76 O4
CAS: 7516-70-3
State: SOLUTION (10% CCl4 FOR 3800-1330, 10% CS2 FOR 1330-460 CM^-^1) VS SOLVENT
Class: COBLENTZ III
Instrument: DOW KBr FOREPRISM-GRATING
Instrument parameters: BLAZED AT 3.5, 12.0, 20.0 MICRON AND CHANGED AT 5.0, 7.5, 14.9 MICRON
Sampling: TRANSMISSION
Path length: 0.011 CM, 0.011 CM
Resolution: 2
Origin: DOW CHEMICAL COMPANY
1/CM	TRANSMITTANCE
458	0.8432
467	0.8407
476	0.8376
485	0.834
494	0.8316
503	0.829
512	0.8265
521	0.825
530	0.827
539	0.8333
548	0.8408
557	0.8506
566	0.8575
575	0.8578
584	0.8528
593	0.8358
602	0.8469
611	0.8533
620	0.8592
629	0.8665
638	0.8747
647	0.8735
656	0.8808
665	0.8778
674	0.8779
683	0.8769
692	0.8667
701	0.837
710	0.7737
719	0.6161
728	0.7154
737	0.7912
746	0.8248
755	0.8391
764	0.8404
773	0.8389
782	0.8325
791	0.8009
800	0.7453
809	0.6601
818	0.6887
827	0.7398
836	0.7522
845	0.7831
854	0.7967
863	0.7986
872	0.8002
881	0.8032
890	0.7963
899	0.7968
908	0.8094
917	0.8141
926	0.8072
935	0.7949
944	0.7758
953	0.7547
962	0.7081
971	0.6827
980	0.6255
989	0.6024
998	0.6145
1007	0.6414
1016	0.6851
1025	0.6925
1034	0.6975
1043	0.7099
1052	0.7267
1061	0.7287
1070	0.7359
1079	0.7607
1088	0.7939
1097	0.7994
1106	0.801
1115	0.7886
1124	0.7581
1133	0.6986
1142	0.5763
1151	0.2774
1160	0.0912
1169	0.234
1178	0.4315
1187	0.4118
1196	0.267
1205	0.1641
1214	0.2111
1223	0.3137
1232	0.3335
1241	0.316
1250	0.3141
1259	0.3569
1268	0.4265
1277	0.4327
1286	0.3838
1295	0.419
1304	0.5298
1313	0.6307
1322	0.6971
1331	0.7618
1340	0.7777
1349	0.7475
1358	0.7028
1367	0.5633
1376	0.4996
1385	0.6787
1394	0.6727
1403	0.3513
1412	0.6181
1421	0.7732
1430	0.6918
1439	0.624
1448	0.5275
1457	0.3546
1466	0.2485
1475	0.5967
1484	0.8166
1493	0.8384
1502	0.8512
1511	0.8616
1520	0.8697
1529	0.8765
1538	0.8864
1547	0.8966
1556	0.898
1565	0.89
1574	0.8854
1583	0.8866
1592	0.8827
1601	0.8715
1610	0.8498
1619	0.8198
1628	0.7738
1637	0.6862
1646	0.6291
1655	0.7054
1664	0.792
1673	0.8129
1682	0.8013
1691	0.7715
1700	0.7338
1709	0.692
1718	0.5379
1727	0.0769
1736	0.0217
1745	0.0582
1754	0.3319
1763	0.6834
1772	0.7869
1781	0.8222
1790	0.8375
1799	0.8472
1808	0.8546
1817	0.8612
1826	0.8651
1835	0.8691
1844	0.8702
1853	0.8708
1862	0.8715
1871	0.8723
1880	0.8731
1889	0.8738
1898	0.8748
1907	0.8763
1916	0.8765
1925	0.8754
1934	0.875
1943	0.8757
1952	0.879
1961	0.8801
1970	0.8799
1979	0.8793
1988	0.8792
1997	0.8806
2006	0.8789
2015	0.8775
2024	0.8765
2033	0.8756
2042	0.8767
2051	0.8785
2060	0.8805
2069	0.8809
2078	0.8811
2087	0.8814
2096	0.8821
2105	0.8835
2114	0.8849
2123	0.8869
2132	0.8888
2141	0.8903
2150	0.8914
2159	0.8918
2168	0.8924
2177	0.8925
2186	0.8916
2195	0.8907
2204	0.8902
2213	0.8909
2222	0.8917
2231	0.8924
2240	0.8923
2249	0.8919
2258	0.8917
2267	0.8917
2276	0.8916
2285	0.8916
2294	0.8906
2303	0.8895
2312	0.8873
2321	0.8833
2330	0.8812
2339	0.8794
2348	0.8789
2357	0.8784
2366	0.8789
2375	0.8794
2384	0.88
2393	0.8804
2402	0.8809
2411	0.8813
2420	0.8817
2429	0.882
2438	0.8826
2447	0.8832
2456	0.8839
2465	0.8842
2474	0.884
2483	0.8829
2492	0.8809
2501	0.8782
2510	0.8748
2519	0.8717
2528	0.8706
2537	0.8694
2546	0.8677
2555	0.8656
2564	0.8629
2573	0.8602
2582	0.8572
2591	0.8538
2600	0.8505
2609	0.8471
2618	0.8428
2627	0.8382
2636	0.8336
2645	0.8289
2654	0.823
2663	0.8171
2672	0.8104
2681	0.8081
2690	0.8149
2699	0.8295
2708	0.828
2717	0.8229
2726	0.8139
2735	0.8131
2744	0.8142
2753	0.8157
2762	0.8166
2771	0.8094
2780	0.7972
2789	0.7773
2798	0.7505
2807	0.7212
2816	0.6774
2825	0.6334
2834	0.4603
2843	0.2279
2852	0.0134
2861	0.0146
2870	0.1752
2879	0.2696
2888	0.2012
2897	0.0983
2906	0.0428
2915	0.0016
2924	0
2933	0
2942	0.0212
2951	0.0651
2960	0.0705
2969	0.2087
2978	0.4008
2987	0.5602
2996	0.6763
3005	0.7369
3014	0.7645
3023	0.778
3032	0.7908
3041	0.8021
3050	0.8123
3059	0.8225
3068	0.8291
3077	0.8329
3086	0.8363
3095	0.8392
3104	0.842
3113	0.8442
3122	0.8466
3131	0.8482
3140	0.8494
3149	0.8506
3158	0.8519
3167	0.8529
3176	0.8539
3185	0.8549
3194	0.8567
3203	0.8588
3212	0.8609
3221	0.8623
3230	0.8638
3239	0.8648
3248	0.8658
3257	0.8665
3266	0.8672
3275	0.8674
3284	0.8672
3293	0.867
3302	0.8665
3311	0.8659
3320	0.8653
3329	0.8645
3338	0.8633
3347	0.8619
3356	0.8605
3365	0.8583
3374	0.8562
3383	0.8545
3392	0.853
3401	0.8511
3410	0.8486
3419	0.8461
3428	0.8438
3437	0.841
3446	0.8376
3455	0.8443
3464	0.8497
3473	0.8563
3482	0.8629
3491	0.8675
3500	0.8709
3509	0.8712
3518	0.8714
3527	0.8703
3536	0.8692
3545	0.8683
3554	0.8674
3563	0.8663
3572	0.8649
3581	0.8634
3590	0.8621
3599	0.8609
3608	0.8605
3617	0.86
3626	0.8591
3635	0.8584
3644	0.8588
3653	0.8591
3662	0.8591
3671	0.8585
3680	0.8562
3689	0.8598
3698	0.8645
3707	0.865
3716	0.8651
3725	0.8646
3734	0.8637
3743	0.8626
3752	0.8622
3761	0.8617
3770	0.8614
3779	0.8613
3788	0.862
3797	0.8631
