Infrared Spectrum: ACETAMIDE, NITRATE
Formula: C2 H6 N2 O4
CAS: 75238-15-2
State: SOLID (SPLIT MULL, FLUOROLUBE FOR 3800-1300 AND NUJOL FOR 1300-400 CM ^-^1)
Class: COBLENTZ III
Instrument: BECKMAN IR-9 (GRATING)
Instrument parameters: ORDER CHANGED AT 670, 1200, 2000 CM^-^1
Sampling: TRANSMISSION
Resolution: 4
Origin: DOW CHEMICAL COMPANY
1/CM	TRANSMITTANCE
396.066	0.631
404.874	0.63
413.682	0.638
422.49	0.681
431.298	0.739
440.106	0.787
448.914	0.788
457.722	0.677
466.53	0.844
475.338	0.878
484.146	0.902
492.954	0.922
501.762	0.931
510.57	0.931
519.378	0.942
528.186	0.96
536.994	0.966
545.802	0.936
554.61	0.7199
563.418	0.68
572.226	0.943
581.034	0.982
589.842	0.99
598.65	0.987
607.458	0.982
616.266	0.972
625.074	0.964
633.881	0.958
642.689	0.951
651.497	0.943
660.305	0.928
669.113	0.913
677.921	0.896
686.729	0.874
695.537	0.855
704.345	0.828
713.153	0.699
721.961	0.674
730.769	0.408
739.577	0.566
748.385	0.577
757.193	0.467
766.001	0.506
774.809	0.631
783.617	0.699
792.425	0.737
801.233	0.75
810.041	0.731
818.849	0.532
827.657	0.536
836.465	0.537
845.273	0.449
854.081	0.496
862.889	0.63
871.697	0.7
880.505	0.725
889.313	0.717
898.121	0.699
906.929	0.681
915.737	0.666
924.545	0.655
933.353	0.635
942.161	0.612
950.969	0.565
959.777	0.514
968.585	0.455
977.393	0.433
986.201	0.471
995.009	0.52
1003.82	0.543
1012.62	0.547
1021.43	0.536
1030.24	0.492
1039.05	0.411
1047.86	0.099
1056.66	0.528
1065.47	0.522
1074.28	0.496
1083.09	0.471
1091.9	0.444
1100.7	0.391
1109.51	0.303
1118.32	0.314
1127.13	0.39
1135.94	0.388
1144.74	0.386
1153.55	0.379
1162.36	0.36
1171.17	0.336
1179.98	0.304
1188.78	0.275
1197.59	0.244
1206.4	0.219
1215.21	0.195
1224.02	0.166
1232.82	0.129
1241.63	0.07
1250.44	0.044
1259.25	0.026
1268.06	0.012
1276.86	0.001
1285.67	0
1294.48	0
1303.29	0.002
1312.1	0.011
1320.9	0.024
1329.71	0.038
1338.52	0.057
1347.33	0.073
1356.14	0.08
1364.94	0.044
1373.75	0.078
1382.56	0.226
1391.37	0.328
1400.18	0.357
1408.98	0.35
1417.79	0.336
1426.6	0.36
1435.41	0.455
1444.22	0.481
1453.02	0.434
1461.83	0.502
1470.64	0.489
1479.45	0.376
1488.26	0.256
1497.06	0.208
1505.87	0.223
1514.68	0.314
1523.49	0.411
1532.3	0.495
1541.1	0.58
1549.91	0.671
1558.72	0.724
1567.53	0.758
1576.34	0.78
1585.14	0.776
1593.95	0.733
1602.76	0.677
1611.57	0.627
1620.38	0.616
1629.18	0.612
1637.99	0.598
1646.8	0.582
1655.61	0.568
1664.42	0.571
1673.22	0.591
1682.03	0.597
1690.84	0.555
1699.65	0.467
1708.46	0.34
1717.26	0.227
1726.07	0.241
1734.88	0.506
1743.69	0.815
1752.5	0.935
1761.3	0.852
1770.11	0.95
1778.92	0.954
1787.73	0.969
1796.54	0.947
1805.34	0.926
1814.15	0.911
1822.96	0.906
1831.77	0.9
1840.57	0.903
1849.38	0.896
1858.19	0.882
1867	0.852
1875.81	0.815
1884.61	0.765
1893.42	0.725
1902.23	0.713
1911.04	0.735
1919.85	0.761
1928.65	0.78
1937.46	0.802
1946.27	0.82
1955.08	0.828
1963.89	0.837
1972.69	0.841
1981.5	0.842
1990.31	0.841
1999.12	0.824
2007.93	0.805
2016.73	0.787
2025.54	0.772
2034.35	0.7561
2043.16	0.7416
2051.97	0.7276
2060.77	0.7141
2069.58	0.7016
2078.39	0.692
2087.2	0.6815
2096.01	0.6761
2104.81	0.6721
2113.62	0.67
2122.43	0.6676
2131.24	0.6651
2140.05	0.663
2148.85	0.6607
2157.66	0.6542
2166.47	0.6472
2175.28	0.6392
2184.09	0.6318
2192.89	0.6208
2201.7	0.611
2210.51	0.5993
2219.32	0.5876
2228.13	0.5813
2236.93	0.5703
2245.74	0.5616
2254.55	0.5536
2263.36	0.5426
2272.17	0.5309
2280.97	0.52
2289.78	0.509
2298.59	0.4997
2307.4	0.4927
2316.21	0.486
2325.01	0.481
2333.82	0.48
2342.63	0.48
2351.44	0.481
2360.25	0.4813
2369.05	0.4826
2377.86	0.482
2386.67	0.4724
2395.48	0.463
2404.29	0.46
2413.09	0.46
2421.9	0.463
2430.71	0.4645
2439.52	0.4715
2448.33	0.477
2457.13	0.478
2465.94	0.4773
2474.75	0.475
2483.56	0.473
2492.37	0.4695
2501.17	0.466
2509.98	0.463
2518.79	0.4616
2527.6	0.459
2536.41	0.456
2545.21	0.455
2554.02	0.455
2562.83	0.457
2571.64	0.4622
2580.45	0.4684
2589.25	0.4754
2598.06	0.4827
2606.87	0.4922
2615.68	0.5003
2624.49	0.508
2633.29	0.508
2642.1	0.5102
2650.91	0.5113
2659.72	0.5202
2668.53	0.5296
2677.33	0.5474
2686.14	0.5601
2694.95	0.569
2703.76	0.5649
2712.57	0.554
2721.37	0.551
2730.18	0.555
2738.99	0.558
2747.8	0.5622
2756.61	0.5662
2765.41	0.5711
2774.22	0.573
2783.03	0.5708
2791.84	0.565
2800.64	0.5562
2809.45	0.5369
2818.26	0.5219
2827.07	0.5201
2835.88	0.5262
2844.68	0.547
2853.49	0.553
2862.3	0.557
2871.11	0.5539
2879.92	0.544
2888.72	0.536
2897.53	0.525
2906.34	0.5169
2915.15	0.503
2923.96	0.495
2932.76	0.488
2941.57	0.478
2950.38	0.467
2959.19	0.462
2968	0.464
2976.8	0.474
2985.61	0.477
2994.42	0.473
3003.23	0.467
3012.04	0.459
3020.84	0.4491
3029.65	0.4421
3038.46	0.4261
3047.27	0.4082
3056.08	0.3875
3064.88	0.3624
3073.69	0.3376
3082.5	0.3115
3091.31	0.2862
3100.12	0.2684
3108.92	0.2493
3117.73	0.242
3126.54	0.238
3135.35	0.2419
3144.16	0.2508
3152.96	0.2734
3161.77	0.2963
3170.58	0.3236
3179.39	0.3522
3188.2	0.3684
3197	0.379
3205.81	0.382
3214.62	0.3791
3223.43	0.3733
3232.24	0.3693
3241.04	0.3652
3249.85	0.3623
3258.66	0.3542
3267.47	0.33
3276.28	0.3077
3285.08	0.2849
3293.89	0.2639
3302.7	0.2536
3311.51	0.2528
3320.32	0.2758
3329.12	0.3346
3337.93	0.4122
3346.74	0.4977
3355.55	0.5901
3364.36	0.6686
3373.16	0.7363
3381.97	0.7901
3390.78	0.8304
3399.59	0.8616
3408.4	0.8888
3417.2	0.9123
3426.01	0.9305
3434.82	0.9412
3443.63	0.9492
3452.44	0.9572
3461.24	0.9731
3470.05	0.9797
3478.86	0.987
3487.67	0.993
3496.48	0.995
3505.28	0.997
3514.09	0.998
3522.9	0.998
3531.71	0.998
3540.52	0.998
3549.32	0.998
3558.13	0.997
3566.94	0.9943
3575.75	0.991
3584.56	0.9887
3593.36	0.983
3602.17	0.986
3610.98	0.984
3619.79	0.9834
3628.6	0.983
3637.4	0.98
3646.21	0.979
3655.02	0.976
3663.83	0.9724
3672.64	0.971
3681.44	0.9684
3690.25	0.966
3699.06	0.9644
3707.87	0.962
3716.67	0.961
3725.48	0.96
3734.29	0.958
3743.1	0.957
3751.91	0.9544
3760.71	0.953
3769.52	0.951
3778.33	0.95
3787.14	0.947
3795.95	0.947
