Infrared Spectrum: DI-N-HEXYL CARBONATE
Formula: C13 H26 O3
CAS: 7523-15-1
State: LIQUID
Boiling point: 132-133 C AT 8 mmHg
Class: COBLENTZ
Instrument: Not specified, most likely a prism, grating, or hybrid spectrometer.
Sampling: TRANSMISSION
Path length: 0.003 CM
Resolution: 4
Origin: WYANDOTTE CHEMICALS CORP., WYANDOTTE, MICHIGAN, USA
MICROMETERS	TRANSMITTANCE
2.015	0.987
2.05368	1.003
2.09235	0.995
2.13103	0.985
2.16971	0.951
2.20838	0.903
2.24706	0.913
2.28574	0.935
2.32441	0.945
2.36309	0.943
2.40176	0.959
2.44044	0.972
2.47912	0.982
2.51779	0.987
2.55647	0.99
2.59515	0.983
2.63382	0.991
2.6725	0.991
2.71118	0.993
2.74985	0.995
2.78853	0.987
2.82721	0.983
2.86588	0.961
2.90456	0.982
2.94324	0.988
2.98191	0.983
3.02059	0.99
3.05927	0.99
3.09794	0.975
3.13662	0.962
3.17529	0.959
3.21397	0.938
3.25265	0.893
3.29132	0.797
3.33	0.154
3.36868	0.024
3.40735	0.041
3.44603	0.083
3.48471	0.086
3.52338	0.478
3.56206	0.771
3.60074	0.851
3.63941	0.882
3.67809	0.885
3.71677	0.911
3.75544	0.911
3.79412	0.943
3.8328	0.959
3.87147	0.966
3.91015	0.982
3.94882	0.985
3.9875	0.975
4.02618	0.967
4.06485	0.982
4.10353	0.987
4.14221	0.987
4.18088	0.982
4.21956	0.975
4.25824	0.972
4.29691	0.964
4.33559	0.958
4.37427	0.971
4.41294	0.988
4.45162	0.988
4.4903	0.982
4.52897	0.972
4.56765	0.971
4.60633	0.967
4.645	0.962
4.68368	0.977
4.72235	0.991
4.76103	0.995
4.79971	0.998
4.83838	1
4.87706	1
4.91574	0.991
4.95441	0.993
4.99309	0.988
5.03177	0.991
5.07044	0.979
5.10912	0.995
5.1478	0.998
5.18647	0.998
5.22515	0.995
5.26383	0.995
5.3025	0.993
5.34118	0.987
5.37986	0.977
5.41853	0.966
5.45721	0.94
5.49588	0.898
5.53456	0.845
5.57324	0.782
5.61191	0.679
5.65059	0.46
5.68927	0.048
5.72794	0.033
5.76662	0.115
5.8053	0.47
5.84397	0.581
5.88265	0.644
5.92133	0.755
5.96	0.811
5.99868	0.866
6.03736	0.879
6.07603	0.896
6.11471	0.9
6.15339	0.903
6.19206	0.909
6.23074	0.877
6.26941	0.83
6.30809	0.874
6.34677	0.909
6.38544	0.913
6.42412	0.916
6.4628	0.896
6.50147	0.898
6.54015	0.88
6.57883	0.853
6.6175	0.818
6.65618	0.758
6.69486	0.578
6.73353	0.299
6.77221	0.072
6.81089	0.074
6.84956	0.165
6.88824	0.315
6.92692	0.407
6.96559	0.495
7.00427	0.599
7.04294	0.458
7.08162	0.177
7.1203	0.072
7.15897	0.27
7.19765	0.312
7.23633	0.198
7.275	0.344
7.31368	0.436
7.35236	0.455
7.39103	0.499
7.42971	0.513
7.46839	0.449
7.50706	0.276
7.54574	0.275
7.58442	0.202
7.62309	0.136
7.66177	0.074
7.70045	0.048
7.73912	0.038
7.7778	0.032
7.81647	0.03
7.85515	0.03
7.89383	0.03
7.9325	0.03
7.97118	0.03
8.00986	0.03
8.04853	0.032
8.08721	0.035
8.12589	0.051
8.16456	0.127
8.20324	0.239
8.24192	0.325
8.28059	0.37
8.31927	0.436
8.35795	0.537
8.39662	0.637
8.4353	0.71
8.47398	0.75
8.51265	0.752
8.55133	0.724
8.59	0.679
8.62868	0.628
8.66736	0.624
8.70603	0.661
8.74471	0.695
8.78339	0.698
8.82206	0.685
8.86074	0.639
8.89942	0.623
8.93809	0.648
8.97677	0.669
9.01545	0.705
9.05412	0.732
9.0928	0.711
9.13148	0.673
9.17015	0.639
9.20883	0.576
9.24751	0.508
9.28618	0.479
9.32486	0.433
9.36353	0.355
9.40221	0.315
9.44089	0.331
9.47956	0.383
9.51824	0.433
9.55692	0.41
9.59559	0.36
9.63427	0.351
9.67295	0.388
9.71162	0.471
9.7503	0.516
9.78898	0.526
9.82765	0.481
9.86633	0.431
9.90501	0.396
9.94368	0.383
9.98236	0.38
10.021	0.339
10.0597	0.273
10.0984	0.223
10.1371	0.181
10.1757	0.177
10.2144	0.185
10.2531	0.223
10.2918	0.267
10.3304	0.299
10.3691	0.333
10.4078	0.341
10.4465	0.334
10.4852	0.323
10.5238	0.301
10.5625	0.289
10.6012	0.289
10.6399	0.297
10.6785	0.322
10.7172	0.359
10.7559	0.397
10.7946	0.404
10.8332	0.391
10.8719	0.365
10.9106	0.326
10.9493	0.283
10.9879	0.272
11.0266	0.293
11.0653	0.333
11.104	0.389
11.1427	0.436
11.1813	0.478
11.22	0.504
11.2587	0.547
11.2974	0.599
11.336	0.639
11.3747	0.676
11.4134	0.714
11.4521	0.739
11.4907	0.76
11.5294	0.776
11.5681	0.801
11.6068	0.809
11.6454	0.821
11.6841	0.827
11.7228	0.83
11.7615	0.827
11.8002	0.829
11.8388	0.835
11.8775	0.847
11.9162	0.85
11.9549	0.848
11.9935	0.84
12.0322	0.835
12.0709	0.829
12.1096	0.818
12.1482	0.805
12.1869	0.789
12.2256	0.785
12.2643	0.79
12.3029	0.792
12.3416	0.787
12.3803	0.777
12.419	0.747
12.4577	0.702
12.4963	0.636
12.535	0.524
12.5737	0.344
12.6124	0.173
12.651	0.132
12.6897	0.172
12.7284	0.339
12.7671	0.55
12.8057	0.648
12.8444	0.716
12.8831	0.752
12.9218	0.777
12.9604	0.779
12.9991	0.779
13.0378	0.776
13.0765	0.771
13.1152	0.771
13.1538	0.793
13.1925	0.806
13.2312	0.818
13.2699	0.826
13.3085	0.83
13.3472	0.84
13.3859	0.848
13.4246	0.848
13.4632	0.843
13.5019	0.832
13.5406	0.805
13.5793	0.774
13.6179	0.735
13.6566	0.7
13.6953	0.661
13.734	0.634
13.7727	0.61
13.8113	0.595
13.85	0.623
13.8887	0.671
13.9274	0.731
13.966	0.787
14.0047	0.813
14.0434	0.835
14.0821	0.85
14.1207	0.866
14.1594	0.863
14.1981	0.874
14.2368	0.882
14.2754	0.89
14.3141	0.898
14.3528	0.906
14.3915	0.909
14.4302	0.909
14.4688	0.911
14.5075	0.906
14.5462	0.904
14.5849	0.9
14.6235	0.898
14.6622	0.896
14.7009	0.895
14.7396	0.901
14.7782	0.895
14.8169	0.896
14.8556	0.893
14.8943	0.888
14.933	0.887
14.9716	0.882
15.0103	0.866
15.049	0.838
15.0877	0.826
15.1263	0.85
15.165	0.866
15.2037	0.866
15.2424	0.856
15.281	0.847
15.3197	0.84
15.3584	0.835
15.3971	0.829
15.4357	0.824
15.4744	0.818
15.5131	0.813
15.5518	0.814
15.5905	0.803
15.6291	0.803
15.6678	0.8
15.7065	0.795
15.7452	0.79
15.7838	0.787
15.8225	0.774
15.8612	0.777
15.8999	0.771
15.9385	0.764
15.9772	0.758
