Infrared Spectrum: PHOSPHONIC ACID, METHYL-, DIPHENYL ESTER
Formula: C13 H13 O3 P
CAS: 7526-26-3
Boiling point: 147-153 C AT 0.2 mmHg
Class: COBLENTZ
Instrument: Not specified, most likely a prism, grating, or hybrid spectrometer.
Sampling: TRANSMISSION
Path length: SMEAR
Resolution: 4
Origin: TENNESSEE EASTMAN COMPANY, RESEARCH LABORATORIES
MICROMETERS	TRANSMITTANCE
2.054	0.958
2.09396	0.958
2.13391	0.949
2.17387	0.951
2.21382	0.954
2.25378	0.951
2.29374	0.949
2.33369	0.951
2.37365	0.951
2.4136	0.951
2.45356	0.933
2.49352	0.941
2.53347	0.944
2.57343	0.936
2.61339	0.914
2.65334	0.919
2.6933	0.923
2.73325	0.909
2.77321	0.903
2.81317	0.881
2.85312	0.883
2.89308	0.883
2.93303	0.906
2.97299	0.918
3.01295	0.924
3.0529	0.919
3.09286	0.923
3.13281	0.909
3.17277	0.899
3.21273	0.884
3.25268	0.756
3.29264	0.716
3.3326	0.787
3.37255	0.879
3.41251	0.811
3.45246	0.903
3.49242	0.919
3.53238	0.924
3.57233	0.929
3.61229	0.934
3.65224	0.939
3.6922	0.944
3.73216	0.944
3.77211	0.944
3.81207	0.944
3.85202	0.939
3.89198	0.941
3.93194	0.938
3.97189	0.941
4.01185	0.939
4.05181	0.939
4.09176	0.943
4.13172	0.939
4.17167	0.934
4.21163	0.916
4.25159	0.946
4.29154	0.936
4.3315	0.934
4.37145	0.934
4.41141	0.949
4.45137	0.946
4.49132	0.934
4.53128	0.933
4.57123	0.943
4.61119	0.949
4.65115	0.949
4.6911	0.936
4.73106	0.934
4.77102	0.938
4.81097	0.941
4.85093	0.941
4.89088	0.941
4.93084	0.934
4.9708	0.926
5.01075	0.916
5.05071	0.886
5.09066	0.844
5.13062	0.843
5.17058	0.868
5.21053	0.883
5.25049	0.863
5.29044	0.863
5.3304	0.848
5.37036	0.869
5.41031	0.901
5.45027	0.923
5.49023	0.903
5.53018	0.899
5.57014	0.864
5.61009	0.876
5.65005	0.868
5.69001	0.876
5.72996	0.846
5.76992	0.831
5.80987	0.844
5.84983	0.866
5.88979	0.836
5.92974	0.853
5.9697	0.843
6.00965	0.843
6.04961	0.821
6.08957	0.814
6.12952	0.809
6.16948	0.801
6.20944	0.689
6.24939	0.363
6.28935	0.217
6.3293	0.59
6.36926	0.789
6.40922	0.806
6.44917	0.813
6.48913	0.806
6.52908	0.756
6.56904	0.697
6.609	0.534
6.64895	0.203
6.68891	0.056
6.72886	0.203
6.76882	0.559
6.80878	0.704
6.84873	0.559
6.88869	0.809
6.92865	0.843
6.9686	0.834
7.00856	0.759
7.04851	0.684
7.08847	0.771
7.12843	0.801
7.16838	0.826
7.20834	0.843
7.24829	0.846
7.28825	0.843
7.32821	0.851
7.36816	0.848
7.40812	0.843
7.44807	0.809
7.48803	0.754
7.52799	0.682
7.56794	0.357
7.6079	0.168
7.64785	0.44
7.68781	0.634
7.72777	0.616
7.76772	0.49
7.80768	0.268
7.84764	0.09
7.88759	0.053
7.92755	0.116
7.9675	0.272
8.00746	0.378
8.04742	0.39
8.08737	0.345
8.12733	0.242
8.16728	0.106
8.20724	0.068
8.2472	0.091
8.28715	0.118
8.32711	0.055
8.36706	0.035
8.40702	0.08
8.44698	0.228
8.48693	0.342
8.52689	0.24
8.56685	0.151
8.6068	0.292
8.64676	0.434
8.68671	0.646
8.72667	0.727
8.76663	0.766
8.80658	0.794
8.84654	0.806
8.88649	0.814
8.92645	0.819
8.96641	0.821
9.00636	0.819
9.04632	0.824
9.08627	0.833
9.12623	0.838
9.16619	0.836
9.20614	0.813
9.2461	0.721
9.28606	0.507
9.32601	0.56
9.36597	0.704
9.40592	0.786
9.44588	0.808
9.48584	0.814
9.52579	0.811
9.56575	0.792
9.6057	0.762
9.64566	0.691
9.68562	0.467
9.72557	0.308
9.76553	0.495
9.80548	0.631
9.84544	0.602
9.8854	0.34
9.92535	0.44
9.96531	0.55
10.0053	0.574
10.0452	0.577
10.0852	0.577
10.1251	0.562
10.1651	0.532
10.205	0.512
10.245	0.482
10.285	0.412
10.3249	0.312
10.3649	0.228
10.4048	0.14
10.4448	0.073
10.4847	0.046
10.5247	0.035
10.5647	0.028
10.6046	0.023
10.6446	0.02
10.6845	0.02
10.7245	0.018
10.7644	0.02
10.8044	0.028
10.8443	0.063
10.8843	0.121
10.9243	0.191
10.9642	0.22
11.0042	0.227
11.0441	0.228
11.0841	0.287
11.124	0.355
11.164	0.422
11.2039	0.479
11.2439	0.55
11.2839	0.611
11.3238	0.661
11.3638	0.696
11.4037	0.724
11.4437	0.749
11.4836	0.777
11.5236	0.796
11.5636	0.806
11.6035	0.818
11.6435	0.823
11.6834	0.828
11.7234	0.829
11.7633	0.828
11.8033	0.823
11.8432	0.811
11.8832	0.799
11.9232	0.776
11.9631	0.754
12.0031	0.734
12.043	0.726
12.083	0.721
12.1229	0.734
12.1629	0.754
12.2029	0.761
12.2428	0.752
12.2828	0.731
12.3227	0.679
12.3627	0.585
12.4026	0.485
12.4426	0.313
12.4825	0.213
12.5225	0.17
12.5625	0.175
12.6024	0.273
12.6424	0.412
12.6823	0.535
12.7223	0.584
12.7622	0.562
12.8022	0.499
12.8421	0.39
12.8821	0.272
12.9221	0.202
12.962	0.151
13.002	0.125
13.0419	0.108
13.0819	0.108
13.1218	0.133
13.1618	0.176
13.2018	0.278
13.2417	0.392
13.2817	0.517
13.3216	0.579
13.3616	0.604
13.4015	0.604
13.4415	0.594
13.4814	0.619
13.5214	0.659
13.5614	0.714
13.6013	0.761
13.6413	0.774
13.6812	0.792
13.7212	0.797
13.7611	0.801
13.8011	0.803
13.8411	0.801
13.881	0.797
13.921	0.776
13.9609	0.744
14.0009	0.707
14.0408	0.671
14.0808	0.657
14.1207	0.657
14.1607	0.661
14.2007	0.659
14.2406	0.637
14.2806	0.585
14.3205	0.505
14.3605	0.41
14.4004	0.283
14.4404	0.227
14.4803	0.183
14.5203	0.173
14.5603	0.237
14.6002	0.345
14.6402	0.455
14.6801	0.557
14.7201	0.616
14.76	0.659
14.8	0.674
14.84	0.689
14.8799	0.701
14.9199	0.687
14.9598	0.681
14.9998	0.697
15.0397	0.712
15.0797	0.716
15.1196	0.702
15.1596	0.691
15.1996	0.691
15.2395	0.691
15.2795	0.687
15.3194	0.686
15.3594	0.686
15.3993	0.686
15.4393	0.684
15.4793	0.681
15.5192	0.677
15.5592	0.674
15.5991	0.669
15.6391	0.667
15.679	0.664
15.719	0.659
15.7589	0.656
15.7989	0.652
15.8389	0.649
15.8788	0.641
15.9188	0.634
15.9587	0.631
15.9987	0.629
