Infrared Spectrum: 2,4,5-Trimethylphenylacetonitrile
Formula: C 11 H 13 N
CAS: 75279-58-2
State: gas
Origin: EPA-IR VAPOR PHASE LIBRARY
1/CM	ABSORBANCE
549.8	0.0006353
559.445	0.000266
569.09	0.00013
578.734	0.000143
588.379	0.000312
598.024	0.0006276
607.669	0.0006699
617.313	0.0003973
626.958	0.0003824
636.603	0.00055439
646.248	0.0003824
655.893	0.0006694
665.537	0.0008702
675.182	0.0013828
684.827	0.0014345
694.472	0.0010964
704.116	0.0010305
713.761	0.0010417
723.406	0.0008969
733.051	0.0007912
742.695	0.0010687
752.34	0.0008621
761.985	0.0008931
771.63	0.0007332
781.275	0.0011662
790.919	0.0013848
800.564	0.0014287
810.209	0.001473
819.854	0.001191
829.498	0.0012624
839.143	0.0012849
848.788	0.002953
858.433	0.006413
868.078	0.009173
877.722	0.005953
887.367	0.002743
897.012	0.001473
906.657	0.001387
916.301	0.001673
925.946	0.001723
935.591	0.002133
945.236	0.0014499
954.88	0.0011274
964.525	0.000948
974.17	0.0012486
983.815	0.001763
993.46	0.003253
1003.1	0.003793
1012.75	0.003103
1022.39	0.002763
1032.04	0.002613
1041.68	0.001883
1051.33	0.0010692
1060.97	0.0012183
1070.62	0.0009749
1080.26	0.0008949
1089.91	0.000833
1099.55	0.001113
1109.2	0.0007933
1118.84	0.0006507
1128.49	0.000883
1138.13	0.001206
1147.78	0.0011521
1157.42	0.0012155
1167.07	0.002093
1176.71	0.003343
1186.36	0.003363
1196	0.002343
1205.64	0.001923
1215.29	0.001553
1224.93	0.001513
1234.58	0.0013092
1244.22	0.0013162
1253.87	0.001503
1263.51	0.002123
1273.16	0.002153
1282.8	0.001983
1292.45	0.001923
1302.09	0.002043
1311.74	0.001733
1321.38	0.001623
1331.03	0.001653
1340.67	0.001713
1350.32	0.001863
1359.96	0.002003
1369.61	0.002373
1379.25	0.003033
1388.9	0.003823
1398.54	0.004433
1408.18	0.004763
1417.83	0.006473
1427.47	0.009683
1437.12	0.010383
1446.76	0.011263
1456.41	0.013773
1466.05	0.012593
1475.7	0.008743
1485.34	0.007173
1494.99	0.010623
1504.63	0.018353
1514.28	0.015123
1523.92	0.006123
1533.57	0.003873
1543.21	0.003263
1552.86	0.003053
1562.5	0.002823
1572.15	0.002543
1581.79	0.002233
1591.44	0.001773
1601.08	0.001643
1610.73	0.001523
1620.37	0.001343
1630.01	0.0012369
1639.66	0.0009514
1649.3	0.0008708
1658.95	0.0007902
1668.59	0.0007016
1678.24	0.0008037
1687.88	0.0007931
1697.53	0.0007158
1707.17	0.0008169
1716.82	0.0011307
1726.46	0.001633
1736.11	0.001843
1745.75	0.0014477
1755.4	0.0009571
1765.04	0.0007516
1774.69	0.0007412
1784.33	0.0007052
1793.98	0.0007218
1803.62	0.000636
1813.27	0.0006202
1822.91	0.0006147
1832.55	0.0006754
1842.2	0.0006949
1851.84	0.0005936
1861.49	0.0006334
1871.13	0.0006199
1880.78	0.0007059
1890.42	0.0007421
1900.07	0.000753
1909.71	0.0007453
1919.36	0.0005998
1929	0.0005836
1938.65	0.00049591
1948.29	0.00049671
1957.94	0.000584
1967.58	0.00045912
1977.23	0.00052697
1986.87	0.00050138
1996.52	0.00051048
2006.16	0.0003928
2015.81	0.00045435
2025.45	0.00052123
2035.1	0.00045372
2044.74	0.0004229
2054.38	0.00048132
2064.03	0.00052858
2073.67	0.0004798
2083.32	0.00048139
2092.96	0.00045686
2102.61	0.00048735
2112.25	0.00046094
2121.9	0.0005769
2131.54	0.0005774
2141.19	0.00051948
2150.83	0.0004118
2160.48	0.00052102
2170.12	0.00050756
2179.77	0.00051719
2189.41	0.0004381
2199.06	0.00052607
2208.7	0.0005633
2218.35	0.0005788
2227.99	0.0006234
2237.64	0.0009161
2247.28	0.001693
2256.92	0.001803
2266.57	0.0010439
2276.21	0.0006952
2285.86	0.0005769
2295.5	0.00049142
2305.15	0.00051952
2314.79	0.00050443
2324.44	0.0004503
2334.08	0.0005872
2343.73	0.00053023
2353.37	0.0006086
2363.02	0.000601
2372.66	0.00055079
2382.31	0.0004441
2391.95	0.0005969
2401.6	0.0006584
2411.24	0.0006349
2420.89	0.0006048
2430.53	0.0006067
2440.18	0.0007179
2449.82	0.0006995
2459.47	0.0006099
2469.11	0.0006742
2478.75	0.0006295
2488.4	0.0006416
2498.04	0.0006637
2507.69	0.00045835
2517.33	0.000598
2526.98	0.00055228
2536.62	0.0005415
2546.27	0.00054136
2555.91	0.00055741
2565.56	0.0005895
2575.2	0.0005897
2584.85	0.0005687
2594.49	0.0005919
2604.14	0.00050508
2613.78	0.0006682
2623.43	0.00053529
2633.07	0.0007199
2642.72	0.0006877
2652.36	0.00055679
2662.01	0.0006829
2671.65	0.0006867
2681.29	0.0005503
2690.94	0.000744
2700.58	0.0007714
2710.23	0.000898
2719.87	0.0009063
2729.52	0.0013795
2739.16	0.001623
2748.81	0.001703
2758.45	0.001553
2768.1	0.001503
2777.74	0.00136
2787.39	0.0014236
2797.03	0.001563
2806.68	0.001733
2816.32	0.002173
2825.97	0.002543
2835.61	0.003463
2845.26	0.004573
2854.9	0.006033
2864.55	0.009643
2874.19	0.015043
2883.84	0.016393
2893.48	0.014183
2903.12	0.013113
2912.77	0.014623
2922.41	0.022593
2932.06	0.033863
2941.7	0.030043
2951.35	0.021573
2960.99	0.017713
2970.64	0.016993
2980.28	0.017193
2989.93	0.014143
2999.57	0.013613
3009.22	0.019033
3018.86	0.018683
3028.51	0.010713
3038.15	0.006633
3047.8	0.005813
3057.44	0.005363
3067.09	0.004683
3076.73	0.003903
3086.38	0.003133
3096.02	0.002613
3105.67	0.002193
3115.31	0.002133
3124.95	0.002163
3134.6	0.001953
3144.24	0.0014525
3153.89	0.0009939
3163.53	0.0006832
3173.18	0.0008677
3182.82	0.0008903
3192.47	0.0009885
3202.11	0.0006049
3211.76	0.0007991
3221.4	0.0006014
3231.05	0.000629
3240.69	0.0006628
3250.34	0.0006964
3259.98	0.0005718
3269.63	0.0006598
3279.27	0.0006095
3288.92	0.0004181
3298.56	0.00054309
3308.21	0.00049389
3317.85	0.0005728
3327.49	0.0006423
3337.14	0.0003828
3346.78	0.00048635
3356.43	0.000351
3366.07	0.0004262
3375.72	0.0003994
3385.36	0.0004232
3395.01	0.00044
3404.65	0.00050135
3414.3	0.0006259
3423.94	0.0006314
3433.59	0.00049771
3443.23	0.000766
3452.88	0.0004078
3462.52	0.00033
3472.17	0.0006056
3481.81	0.00050189
3491.46	0.0004471
3501.1	0.00052897
3510.75	0.0007333
3520.39	0.000416
3530.04	0.0005258
3539.68	0.0003965
3549.32	0.0004798
3558.97	0.0004196
3568.61	0.00052954
3578.26	0.00047632
3587.9	0.0005732
3597.55	0.00053657
3607.19	0.00049754
3616.84	0.000164
3626.48	0.000325
3636.13	0.0005647
3645.77	0.000578
3655.42	0.0003924
3665.06	0.000331
3674.71	0.00034
3684.35	0.0004522
3694	0.0003682
3703.64	0.00052148
3713.29	0.000408
3722.93	0.0006697
3732.58	0.00053783
3742.22	0.0004394
3751.86	0.000466504
3761.51	0.0004055
3771.15	0.00056032
3780.8	0.00033
3790.44	0.00051808
3800.09	0.00045968
3809.73	0.0006457
3819.38	0.0003812
3829.02	0.0004297
3838.67	0.0007586
3848.31	0.0007357
3857.96	0.0004178
3867.6	0.00047426
3877.25	0.00053744
3886.89	0.00047419
3896.54	0.00054819
3906.18	0.0007268
3915.83	0.00053757
3925.47	0.00047769
3935.12	0.0007168
3944.76	0.0004295
3954.41	0.000435
3964.05	0.0006292
3973.69	0.00054447
3983.34	0.0007792
3992.98	0.00049208
