Infrared Spectrum: 2-Chloro-6-fluorophenylacetonitrile
Formula: C 8 H 5 Cl F N
CAS: 75279-55-9
State: gas
Origin: EPA-IR VAPOR PHASE LIBRARY
1/CM	ABSORBANCE
549.9	0.00375
559.547	0.00264
569.193	0.0019984
578.84	0.0015053
588.486	0.0011782
598.133	0.000947
607.779	0.000924
617.426	0.00094
627.072	0.001102
636.719	0.001639
646.365	0.00294
656.012	0.00305
665.658	0.0019795
675.305	0.0017644
684.951	0.0021229
694.598	0.0027
704.245	0.0043
713.891	0.00853
723.538	0.01065
733.184	0.00511
742.831	0.0021975
752.477	0.00247
762.124	0.00804
771.77	0.02574
781.417	0.0371
791.063	0.01567
800.71	0.00449
810.356	0.00469
820.003	0.00601
829.649	0.00685
839.296	0.00856
848.943	0.01218
858.589	0.01416
868.236	0.01083
877.882	0.006
887.529	0.0041
897.175	0.00393
906.822	0.00456
916.468	0.00597
926.115	0.01147
935.761	0.03092
945.408	0.04663
955.054	0.02838
964.701	0.00729
974.347	0.00338
983.994	0.0021022
993.64	0.0017578
1003.29	0.0016359
1012.93	0.0014356
1022.58	0.0013774
1032.23	0.0015377
1041.87	0.0016259
1051.52	0.0017403
1061.17	0.0022368
1070.81	0.0018918
1080.46	0.00127592
1090.11	0.001039
1099.75	0.001091
1109.4	0.0011985
1119.05	0.0015452
1128.69	0.00268
1138.34	0.00601
1147.99	0.00759
1157.63	0.00639
1167.28	0.00536
1176.92	0.00379
1186.57	0.00651
1196.22	0.00971
1205.86	0.00858
1215.51	0.00736
1225.16	0.00696
1234.8	0.00843
1244.45	0.02731
1254.1	0.04165
1263.74	0.02355
1273.39	0.00588
1283.04	0.00354
1292.68	0.00375
1302.33	0.00386
1311.98	0.00361
1321.62	0.00306
1331.27	0.00257
1340.92	0.0024
1350.56	0.0021519
1360.21	0.0019128
1369.86	0.0018481
1379.5	0.0020409
1389.15	0.00232
1398.79	0.00263
1408.44	0.00407
1418.09	0.01035
1427.73	0.0175
1437.38	0.01749
1447.03	0.03467
1456.67	0.05816
1466.32	0.05361
1475.97	0.02649
1485.61	0.00752
1495.26	0.00573
1504.91	0.00502
1514.55	0.00448
1524.2	0.00436
1533.85	0.00431
1543.49	0.00498
1553.14	0.00675
1562.79	0.01216
1572.43	0.0258
1582.08	0.03742
1591.73	0.03131
1601.37	0.02371
1611.02	0.01677
1620.67	0.0062
1630.31	0.00266
1639.96	0.0020941
1649.6	0.0020663
1659.25	0.00238
1668.9	0.0020748
1678.54	0.0016181
1688.19	0.0014982
1697.84	0.00131301
1707.48	0.0012283
1717.13	0.001135
1726.78	0.0012112
1736.42	0.0013781
1746.07	0.0015276
1755.72	0.0019788
1765.36	0.00231
1775.01	0.0017498
1784.66	0.001226
1794.3	0.00125441
1803.95	0.0012324
1813.6	0.0011703
1823.24	0.0012272
1832.89	0.0016228
1842.54	0.0022361
1852.18	0.0019366
1861.83	0.0012279
1871.47	0.001042
1881.12	0.001052
1890.77	0.001143
1900.41	0.0012821
1910.06	0.0017179
1919.71	0.00258
1929.35	0.00247
1939	0.0013948
1948.65	0.000979
1958.29	0.000955
1967.94	0.000912
1977.59	0.000938
1987.23	0.00094
1996.88	0.000945
2006.53	0.000971
2016.17	0.000929
2025.82	0.000961
2035.47	0.000973
2045.11	0.000947
2054.76	0.000966
2064.41	0.001036
2074.05	0.001095
2083.7	0.0011544
2093.35	0.0011971
2102.99	0.0012307
2112.64	0.001206
2122.28	0.001101
2131.93	0.001058
2141.58	0.000981
2151.22	0.000966
2160.87	0.000954
2170.52	0.000967
2180.16	0.000993
2189.81	0.001095
2199.46	0.001105
2209.1	0.001045
2218.75	0.001023
2228.4	0.001084
2238.04	0.0011582
2247.69	0.00128785
2257.34	0.0015247
2266.98	0.0015429
2276.63	0.00124208
2286.28	0.001112
2295.92	0.001119
2305.57	0.0011856
2315.22	0.0011844
2324.86	0.0011699
2334.51	0.001016
2344.16	0.001013
2353.8	0.001124
2363.45	0.0011746
2373.09	0.001087
2382.74	0.001052
2392.39	0.001071
2402.03	0.001105
2411.68	0.001071
2421.33	0.001045
2430.97	0.000968
2440.62	0.001018
2450.27	0.001031
2459.91	0.000999
2469.56	0.00101
2479.21	0.001007
2488.85	0.001077
2498.5	0.0012073
2508.15	0.0012255
2517.79	0.001155
2527.44	0.001051
2537.09	0.001027
2546.73	0.000962
2556.38	0.000918
2566.03	0.000878
2575.67	0.000867
2585.32	0.000916
2594.96	0.000966
2604.61	0.001032
2614.26	0.000935
2623.9	0.000867
2633.55	0.000857
2643.2	0.000795
2652.84	0.000874
2662.49	0.000834
2672.14	0.00088
2681.78	0.000885
2691.43	0.000806
2701.08	0.000797
2710.72	0.000834
2720.37	0.000933
2730.02	0.000963
2739.66	0.00098
2749.31	0.000897
2758.96	0.000769
2768.6	0.000673
2778.25	0.000604
2787.9	0.000609
2797.54	0.000624
2807.19	0.000656
2816.84	0.000648
2826.48	0.000658
2836.13	0.000643
2845.77	0.000614
2855.42	0.000527
2865.07	0.0005
2874.71	0.000469
2884.36	0.000481
2894.01	0.000485
2903.65	0.000417
2913.3	0.000386
2922.95	0.000498
2932.59	0.000646
2942.24	0.00103
2951.89	0.0012289
2961.53	0.00131525
2971.18	0.000971
2980.83	0.000652
2990.47	0.000774
3000.12	0.000886
3009.77	0.000844
3019.41	0.000959
3029.06	0.00078
3038.71	0.000601
3048.35	0.000567
3058	0.000739
3067.64	0.0013647
3077.29	0.00281
3086.94	0.00335
3096.58	0.0019904
3106.23	0.000788
3115.88	0.000384
3125.52	0.000281
3135.17	0.000273
3144.82	0.000292
3154.46	0.00034
3164.11	0.00036
3173.76	0.000326
3183.4	0.000372
3193.05	0.000496
3202.7	0.000353
3212.34	0.00021
3221.99	0.00014
3231.64	0.00011
3241.28	5e-05
3250.93	4e-05
3260.58	0.00023
3270.22	9e-05
3279.87	0.0001
3289.52	0.00013
3299.16	0.00013
3308.81	0.00023
3318.45	0.00012
3328.1	0.00019
3337.75	0.00012
3347.39	3e-05
3357.04	0.00018
3366.69	0.00016
3376.33	7e-05
3385.98	0.00015
3395.63	0.0001
3405.27	0.00016
3414.92	9e-05
3424.57	0.00012
3434.21	0.0002
3443.86	0.00024
3453.51	0.000274
3463.15	0.00022
3472.8	0.00021
3482.45	0.000282
3492.09	0.00017
3501.74	0.00024
3511.39	0.000301
3521.03	0.00039
3530.68	0.00042
3540.33	0.00026
3549.97	0.000426
3559.62	0.000353
3569.26	0.000398
3578.91	0.000474
3588.56	0.000423
3598.2	0.000421
3607.85	0.000473
3617.5	0.000462
3627.14	0.000399
3636.79	0.000416
3646.44	0.000393
3656.08	0.000502
3665.73	0.000559
3675.38	0.00046
3685.02	0.000584
3694.67	0.000451
3704.32	0.000578
3713.96	0.000551
3723.61	0.000529
3733.26	0.000612
3742.9	0.000629
3752.55	0.000556
3762.2	0.000628
3771.84	0.000583
3781.49	0.000547
3791.13	0.00045
3800.78	0.000487
3810.43	0.000593
3820.07	0.000593
3829.72	0.000635
3839.37	0.000618
3849.01	0.00058
3858.66	0.000697
3868.31	0.000718
3877.95	0.000707
3887.6	0.00066
3897.25	0.000778
3906.89	0.000764
3916.54	0.000711
3926.19	0.000723
3935.83	0.000682
3945.48	0.000662
3955.13	0.000593
3964.77	0.000674
3974.42	0.000647
3984.07	0.000572
3993.71	0.000592
