Infrared Spectrum: 1,2-Bis(allyloxy)ethane
Formula: C 8 H 14 O 2
CAS: 7529-27-3
State: gas
Origin: EPA-IR VAPOR PHASE LIBRARY
1/CM	ABSORBANCE
549.8	0.0064
559.445	0.00591
569.09	0.00412
578.734	0.00433
588.379	0.0037
598.024	0.00389
607.669	0.00414
617.313	0.00504
626.958	0.0051
636.603	0.00542
646.248	0.00521
655.893	0.00401
665.537	0.00279
675.182	0.00384
684.827	0.00184
694.472	0.001408
704.116	0.00176
713.761	0.0011943
723.406	0.0014363
733.051	0.00177
742.695	0.0009847
752.34	0.0010046
761.985	0.0011898
771.63	0.002
781.275	0.00171
790.919	0.00257
800.564	0.00292
810.209	0.00348
819.854	0.00373
829.498	0.00674
839.143	0.00801
848.788	0.00911
858.433	0.01085
868.078	0.01369
877.722	0.01509
887.367	0.01922
897.012	0.02417
906.657	0.03615
916.301	0.05984
925.946	0.07803
935.591	0.05879
945.236	0.04067
954.88	0.03392
964.525	0.03548
974.17	0.04186
983.815	0.05262
993.46	0.06236
1003.1	0.0598
1012.75	0.05066
1022.39	0.04787
1032.04	0.04683
1041.68	0.04539
1051.33	0.04449
1060.97	0.05069
1070.62	0.06915
1080.26	0.09858
1089.91	0.14407
1099.55	0.19451
1109.2	0.21522
1118.84	0.2048
1128.49	0.17222
1138.13	0.13633
1147.78	0.10751
1157.42	0.07958
1167.07	0.04823
1176.71	0.02868
1186.36	0.01805
1196	0.01236
1205.64	0.01062
1215.29	0.01076
1224.93	0.01104
1234.58	0.01595
1244.22	0.01832
1253.87	0.02183
1263.51	0.02574
1273.16	0.0234
1282.8	0.02258
1292.45	0.02236
1302.09	0.01836
1311.74	0.01645
1321.38	0.01918
1331.03	0.02476
1340.67	0.0371
1350.32	0.04193
1359.96	0.03115
1369.61	0.02182
1379.25	0.01571
1388.9	0.01307
1398.54	0.01413
1408.18	0.01847
1417.83	0.0263
1427.47	0.02825
1437.12	0.02093
1446.76	0.01819
1456.41	0.01938
1466.05	0.01777
1475.7	0.01294
1485.34	0.00875
1494.99	0.00588
1504.63	0.00416
1514.28	0.00367
1523.92	0.00304
1533.57	0.00275
1543.21	0.00283
1552.86	0.003
1562.5	0.00281
1572.15	0.00282
1581.79	0.00257
1591.44	0.00279
1601.08	0.00304
1610.73	0.00331
1620.37	0.00417
1630.01	0.00604
1639.66	0.00871
1649.3	0.00967
1658.95	0.00641
1668.59	0.0039
1678.24	0.00265
1687.88	0.00203
1697.53	0.00186
1707.17	0.00196
1716.82	0.00162
1726.46	0.00165
1736.11	0.00174
1745.75	0.00169
1755.4	0.00158
1765.04	0.0014031
1774.69	0.00164
1784.33	0.0014799
1793.98	0.0013731
1803.62	0.00173
1813.27	0.00193
1822.91	0.00283
1832.55	0.00379
1842.2	0.00577
1851.84	0.00703
1861.49	0.00583
1871.13	0.00432
1880.78	0.00326
1890.42	0.00264
1900.07	0.00247
1909.71	0.00265
1919.36	0.00245
1929	0.00271
1938.65	0.00276
1948.29	0.00301
1957.94	0.0036
1967.58	0.00387
1977.23	0.00416
1986.87	0.00432
1996.52	0.00397
2006.16	0.00397
2015.81	0.00364
2025.45	0.00359
2035.1	0.00317
2044.74	0.00312
2054.38	0.00326
2064.03	0.00308
2073.67	0.00335
2083.32	0.00337
2092.96	0.00308
2102.61	0.00348
2112.25	0.0029
2121.9	0.00282
2131.54	0.0026
2141.19	0.00262
2150.83	0.0022
2160.48	0.00224
2170.12	0.00247
2179.77	0.00187
2189.41	0.00215
2199.06	0.00228
2208.7	0.00225
2218.35	0.00237
2227.99	0.00193
2237.64	0.00209
2247.28	0.00235
2256.92	0.00201
2266.57	0.00217
2276.21	0.00184
2285.86	0.00214
2295.5	0.00202
2305.15	0.00186
2314.79	0.00184
2324.44	0.00192
2334.08	0.00167
2343.73	0.00197
2353.37	0.00172
2363.02	0.00172
2372.66	0.00199
2382.31	0.00175
2391.95	0.00168
2401.6	0.00175
2411.24	0.00192
2420.89	0.0017
2430.53	0.00199
2440.18	0.00192
2449.82	0.00168
2459.47	0.0015067
2469.11	0.0013803
2478.75	0.00203
2488.4	0.00174
2498.04	0.00159
2507.69	0.0012371
2517.33	0.00168
2526.98	0.0014935
2536.62	0.00188
2546.27	0.00194
2555.91	0.00192
2565.56	0.00196
2575.2	0.00222
2584.85	0.00241
2594.49	0.00219
2604.14	0.00248
2613.78	0.00244
2623.43	0.00252
2633.07	0.00256
2642.72	0.00303
2652.36	0.00305
2662.01	0.00326
2671.65	0.00393
2681.29	0.005
2690.94	0.00595
2700.58	0.00671
2710.23	0.00718
2719.87	0.00773
2729.52	0.00818
2739.16	0.00875
2748.81	0.00907
2758.45	0.01018
2768.1	0.01162
2777.74	0.01295
2787.39	0.01456
2797.03	0.01726
2806.68	0.02043
2816.32	0.02578
2825.97	0.03546
2835.61	0.05167
2845.26	0.07391
2854.9	0.09659
2864.55	0.10416
2874.19	0.09743
2883.84	0.08661
2893.48	0.07905
2903.12	0.07525
2912.77	0.07295
2922.41	0.07147
2932.06	0.06983
2941.7	0.0671
2951.35	0.05642
2960.99	0.04249
2970.64	0.03276
2980.28	0.02893
2989.93	0.02744
2999.57	0.02526
3009.22	0.0226
3018.86	0.02395
3028.51	0.0204
3038.15	0.01374
3047.8	0.01192
3057.44	0.0127
3067.09	0.01608
3076.73	0.02143
3086.38	0.02885
3096.02	0.02726
3105.67	0.01806
3115.31	0.01005
3124.95	0.00545
3134.6	0.0041
3144.24	0.00316
3153.89	0.00269
3163.53	0.00248
3173.18	0.00186
3182.82	0.0013424
3192.47	0.00172
3202.11	0.00209
3211.76	0.00225
3221.4	0.0015289
3231.05	0.00242
3240.69	0.00182
3250.34	0.00206
3259.98	0.0013631
3269.63	0.002
3279.27	0.000969
3288.92	0.001176
3298.56	0.0014608
3308.21	0.0010602
3317.85	0.0011651
3327.49	0.00178
3337.14	0.0013762
3346.78	0.0007545
3356.43	0.0010877
3366.07	0.0012313
3375.72	0.00065421
3385.36	0.0010309
3395.01	0.0009933
3404.65	0.0010406
3414.3	0.0007962
3423.94	0.0012412
3433.59	0.0012859
3443.23	0.0012324
3452.88	0.0012403
3462.52	0.0010355
3472.17	0.00157
3481.81	0.001455
3491.46	0.0011649
3501.1	0.000875
3510.75	0.0014096
3520.39	0.00058374
3530.04	0.001069
3539.68	0.0009874
3549.32	0.0006819
3558.97	0.001222
3568.61	0.0008335
3578.26	0.0007246
3587.9	0.0007152
3597.55	0.0011571
3607.19	0.0008226
3616.84	0.0011456
3626.48	0.0010989
3636.13	0.000564276
3645.77	0.0009132
3655.42	0.0014621
3665.06	0.0013094
3674.71	0.00061283
3684.35	0.0008828
3694	0.0009976
3703.64	0.0009437
3713.29	0.0013679
3722.93	0.0011928
3732.58	0.0015057
3742.22	0.0012974
3751.86	0.000945
3761.51	0.0013563
3771.15	0.0011931
3780.8	0.00172
3790.44	0.0011502
3800.09	0.0012786
3809.73	0.0011688
3819.38	0.0008827
3829.02	0.00167
3838.67	0.0014742
3848.31	0.0009279
3857.96	0.0013919
3867.6	0.0010165
3877.25	0.0011181
3886.89	0.001318
3896.54	0.00166
3906.18	0.0012644
3915.83	0.00163
3925.47	0.0010665
3935.12	0.0018
3944.76	0.0025
3954.41	0.00159
3964.05	0.00181
3973.69	0.00191
3983.34	0.00211
3992.98	0.00258
