Infrared Spectrum: 2,2,4,4-TETRAMETHYL-1,3-CYCLOBUTANE DIAMINE
Formula: C8 H18 N2
CAS: 7531-10-4
Boiling point: 62 C AT 2 mmHg
Class: COBLENTZ
Instrument: Not specified, most likely a prism, grating, or hybrid spectrometer.
Sampling: TRANSMISSION
Path length: SMEAR
Resolution: 4
Origin: TENNESSEE EASTMAN COMPANY, RESEARCH LABORATORIES
MICROMETERS	TRANSMITTANCE
2.007	0.93
2.04788	0.931
2.08875	0.933
2.12963	0.933
2.1705	0.933
2.21138	0.935
2.25226	0.924
2.29313	0.904
2.33401	0.899
2.37488	0.902
2.41576	0.907
2.45664	0.911
2.49751	0.926
2.53839	0.936
2.57926	0.938
2.62014	0.936
2.66102	0.94
2.70189	0.938
2.74277	0.933
2.78365	0.919
2.82452	0.909
2.8654	0.887
2.90627	0.839
2.94715	0.667
2.98803	0.645
3.0289	0.566
3.06978	0.568
3.11065	0.648
3.15153	0.691
3.19241	0.771
3.23328	0.831
3.27416	0.844
3.31503	0.786
3.35591	0.254
3.39679	0.107
3.43766	0.174
3.47854	0.209
3.51941	0.554
3.56029	0.738
3.60117	0.795
3.64204	0.81
3.68292	0.817
3.72379	0.846
3.76467	0.873
3.80555	0.897
3.84642	0.904
3.8873	0.909
3.92817	0.912
3.96905	0.921
4.00993	0.926
4.0508	0.93
4.09168	0.931
4.13256	0.933
4.17343	0.933
4.21431	0.938
4.25518	0.945
4.29606	0.943
4.33694	0.943
4.37781	0.95
4.41869	0.95
4.45956	0.95
4.50044	0.945
4.54132	0.941
4.58219	0.943
4.62307	0.947
4.66394	0.95
4.70482	0.95
4.7457	0.95
4.78657	0.952
4.82745	0.955
4.86832	0.95
4.9092	0.95
4.95008	0.952
4.99095	0.952
5.03183	0.947
5.0727	0.94
5.11358	0.935
5.15446	0.938
5.19533	0.943
5.23621	0.945
5.27708	0.947
5.31796	0.948
5.35884	0.948
5.39971	0.952
5.44059	0.953
5.48147	0.953
5.52234	0.953
5.56322	0.953
5.60409	0.953
5.64497	0.952
5.68585	0.952
5.72672	0.933
5.7676	0.919
5.80847	0.901
5.84935	0.819
5.89023	0.796
5.9311	0.813
5.97198	0.796
6.01285	0.764
6.05373	0.711
6.09461	0.585
6.13548	0.505
6.17636	0.43
6.21723	0.438
6.25811	0.489
6.29899	0.551
6.33986	0.624
6.38074	0.675
6.42161	0.704
6.46249	0.716
6.50337	0.749
6.54424	0.766
6.58512	0.784
6.62599	0.779
6.66687	0.769
6.70775	0.701
6.74862	0.52
6.7895	0.18
6.83038	0.307
6.87125	0.334
6.91213	0.503
6.953	0.677
6.99388	0.75
7.03476	0.773
7.07563	0.774
7.11651	0.742
7.15738	0.704
7.19826	0.598
7.23914	0.409
7.28001	0.337
7.32089	0.281
7.36176	0.511
7.40264	0.668
7.44352	0.73
7.48439	0.788
7.52527	0.832
7.56614	0.853
7.60702	0.858
7.6479	0.86
7.68877	0.851
7.72965	0.841
7.77052	0.839
7.8114	0.829
7.85228	0.834
7.89315	0.837
7.93403	0.834
7.9749	0.837
8.01578	0.841
8.05666	0.834
8.09753	0.837
8.13841	0.836
8.17929	0.808
8.22016	0.773
8.26104	0.713
8.30191	0.699
8.34279	0.773
8.38367	0.791
8.42454	0.795
8.46542	0.779
8.50629	0.726
8.54717	0.68
8.58805	0.674
8.62892	0.682
8.6698	0.703
8.71067	0.721
8.75155	0.732
8.79243	0.738
8.8333	0.742
8.87418	0.742
8.91505	0.725
8.95593	0.715
8.99681	0.694
9.03768	0.653
9.07856	0.585
9.11943	0.5
9.16031	0.406
9.20119	0.383
9.24206	0.38
9.28294	0.38
9.32381	0.394
9.36469	0.43
9.40557	0.486
9.44644	0.53
9.48732	0.616
9.5282	0.679
9.56907	0.713
9.60995	0.725
9.65082	0.726
9.6917	0.728
9.73258	0.735
9.77345	0.74
9.81433	0.738
9.8552	0.721
9.89608	0.703
9.93696	0.675
9.97783	0.631
10.0187	0.583
10.0596	0.542
10.1005	0.505
10.1413	0.474
10.1822	0.479
10.2231	0.447
10.264	0.411
10.3048	0.445
10.3457	0.515
10.3866	0.587
10.4275	0.622
10.4683	0.631
10.5092	0.621
10.5501	0.595
10.591	0.566
10.6318	0.563
10.6727	0.571
10.7136	0.563
10.7545	0.552
10.7954	0.539
10.8362	0.508
10.8771	0.47
10.918	0.443
10.9589	0.416
10.9997	0.392
11.0406	0.365
11.0815	0.343
11.1224	0.315
11.1632	0.302
11.2041	0.284
11.245	0.273
11.2859	0.259
11.3267	0.254
11.3676	0.252
11.4085	0.25
11.4494	0.25
11.4902	0.255
11.5311	0.262
11.572	0.267
11.6129	0.274
11.6538	0.278
11.6946	0.283
11.7355	0.286
11.7764	0.29
11.8173	0.293
11.8581	0.295
11.899	0.296
11.9399	0.296
11.9808	0.298
12.0216	0.302
12.0625	0.303
12.1034	0.303
12.1443	0.303
12.1851	0.298
12.226	0.291
12.2669	0.281
12.3078	0.278
12.3486	0.278
12.3895	0.283
12.4304	0.291
12.4713	0.3
12.5121	0.313
12.553	0.317
12.5939	0.329
12.6348	0.341
12.6757	0.356
12.7165	0.37
12.7574	0.387
12.7983	0.407
12.8392	0.423
12.88	0.441
12.9209	0.455
12.9618	0.467
13.0027	0.476
13.0435	0.482
13.0844	0.482
13.1253	0.491
13.1662	0.493
13.207	0.484
13.2479	0.467
13.2888	0.45
13.3297	0.431
13.3705	0.412
13.4114	0.395
13.4523	0.373
13.4932	0.353
13.534	0.336
13.5749	0.31
13.6158	0.3
13.6567	0.291
13.6976	0.29
13.7384	0.288
13.7793	0.291
13.8202	0.302
13.8611	0.315
13.9019	0.325
13.9428	0.341
13.9837	0.353
14.0246	0.368
14.0654	0.39
14.1063	0.411
14.1472	0.424
14.1881	0.44
14.2289	0.455
14.2698	0.47
14.3107	0.481
14.3516	0.489
14.3924	0.501
14.4333	0.51
14.4742	0.518
14.5151	0.527
14.556	0.534
14.5968	0.542
14.6377	0.549
14.6786	0.554
14.7195	0.559
14.7603	0.564
14.8012	0.568
14.8421	0.571
14.883	0.573
14.9238	0.573
14.9647	0.576
15.0056	0.581
15.0465	0.587
15.0873	0.587
15.1282	0.585
15.1691	0.585
15.21	0.583
15.2508	0.583
15.2917	0.581
15.3326	0.581
15.3735	0.583
15.4143	0.583
15.4552	0.583
15.4961	0.583
15.537	0.583
15.5779	0.583
15.6187	0.585
15.6596	0.585
15.7005	0.585
15.7414	0.585
15.7822	0.585
15.8231	0.585
15.864	0.585
15.9049	0.585
15.9457	0.585
