Infrared Spectrum: A-CYCLOPROPYL-A-(2-PYRIDYL) BENZYL ALCOHOL
Formula: C15 H15 N O
CAS: 75343-53-2
State: SOLUTION (7% CHCl3)
Class: COBLENTZ
Instrument: Not specified, most likely a grating spectrometer.
Sampling: TRANSMISSION
Path length: 0.010 CM CELL
Resolution: 4
Origin: ABBOTT LABORATORIES
MICROMETERS	TRANSMITTANCE
2.039	0.984
2.07114	0.982
2.10329	0.979
2.13543	0.977
2.16757	0.974
2.19971	0.971
2.23186	0.968
2.264	0.968
2.29614	0.969
2.32829	0.969
2.36043	0.965
2.39257	0.962
2.42471	0.96
2.45686	0.96
2.489	0.96
2.52114	0.96
2.55328	0.957
2.58543	0.96
2.61757	0.965
2.64971	0.96
2.68186	0.957
2.714	0.954
2.74614	0.95
2.77828	0.939
2.81043	0.909
2.84257	0.876
2.87471	0.832
2.90686	0.775
2.939	0.731
2.97114	0.713
3.00328	0.745
3.03543	0.822
3.06757	0.863
3.09971	0.89
3.13185	0.905
3.164	0.901
3.19614	0.818
3.22828	0.761
3.26043	0.764
3.29257	0.675
3.32471	0.805
3.35685	0.875
3.389	0.905
3.42114	0.922
3.45328	0.928
3.48543	0.931
3.51757	0.931
3.54971	0.933
3.58185	0.93
3.614	0.938
3.64614	0.943
3.67828	0.939
3.71042	0.938
3.74257	0.936
3.77471	0.933
3.80685	0.93
3.839	0.927
3.87114	0.928
3.90328	0.931
3.93542	0.93
3.96757	0.928
3.99971	0.917
4.03185	0.914
4.064	0.917
4.09614	0.924
4.12828	0.92
4.16042	0.939
4.19257	0.938
4.22471	0.938
4.25685	0.93
4.28899	0.93
4.32114	0.928
4.35328	0.927
4.38542	0.928
4.41757	0.928
4.44971	0.927
4.48185	0.922
4.51399	0.922
4.54614	0.922
4.57828	0.925
4.61042	0.927
4.64257	0.927
4.67471	0.925
4.70685	0.92
4.73899	0.92
4.77114	0.914
4.80328	0.912
4.83542	0.917
4.86757	0.92
4.89971	0.924
4.93185	0.92
4.96399	0.917
4.99614	0.906
5.02828	0.903
5.06042	0.897
5.09256	0.879
5.12471	0.9
5.15685	0.9
5.18899	0.897
5.22114	0.895
5.25328	0.892
5.28542	0.886
5.31756	0.9
5.34971	0.901
5.38185	0.898
5.41399	0.901
5.44614	0.898
5.47828	0.887
5.51042	0.89
5.54256	0.905
5.57471	0.908
5.60685	0.905
5.63899	0.903
5.67113	0.905
5.70328	0.906
5.73542	0.906
5.76756	0.906
5.79971	0.906
5.83185	0.905
5.86399	0.9
5.89613	0.897
5.92828	0.889
5.96042	0.886
5.99256	0.887
6.02471	0.884
6.05685	0.878
6.08899	0.87
6.12113	0.859
6.15328	0.846
6.18542	0.776
6.21756	0.511
6.2497	0.545
6.28185	0.746
6.31399	0.593
6.34613	0.732
6.37828	0.84
6.41042	0.875
6.44256	0.884
6.4747	0.892
6.50685	0.893
6.53899	0.893
6.57113	0.889
6.60328	0.873
6.63542	0.81
6.66756	0.688
6.6997	0.748
6.73185	0.797
6.76399	0.53
6.79613	0.625
6.82827	0.718
6.86042	0.666
6.89256	0.525
6.9247	0.56
6.95685	0.344
6.98899	0.534
7.02113	0.612
7.05327	0.569
7.08542	0.507
7.11756	0.457
7.1497	0.419
7.18185	0.411
7.21399	0.455
7.24613	0.552
7.27827	0.623
7.31042	0.648
7.34256	0.637
7.3747	0.656
7.40684	0.675
7.43899	0.688
7.47113	0.697
7.50327	0.718
7.53542	0.746
7.56756	0.767
7.5997	0.762
7.63184	0.787
7.66399	0.789
7.69613	0.735
7.72827	0.738
7.76042	0.792
7.79256	0.821
7.8247	0.827
7.85684	0.829
7.88899	0.837
7.92113	0.833
7.95327	0.821
7.98542	0.803
8.01756	0.781
8.0497	0.773
8.08184	0.764
8.11399	0.765
8.14613	0.781
8.17827	0.803
8.21041	0.813
8.24256	0.825
8.2747	0.837
8.30684	0.84
8.33899	0.748
8.37113	0.637
8.40327	0.647
8.43541	0.7
8.46756	0.713
8.4997	0.726
8.53184	0.724
8.56399	0.719
8.59613	0.691
8.62827	0.625
8.66041	0.563
8.69256	0.601
8.7247	0.634
8.75684	0.705
8.78898	0.745
8.82113	0.776
8.85327	0.789
8.88541	0.789
8.91756	0.789
8.9497	0.781
8.98184	0.778
9.01398	0.775
9.04613	0.773
9.07827	0.737
9.11041	0.732
9.14256	0.792
9.1747	0.803
9.20684	0.794
9.23898	0.786
9.27113	0.778
9.30327	0.803
9.33541	0.821
9.36755	0.825
9.3997	0.805
9.43184	0.75
9.46398	0.683
9.49613	0.65
9.52827	0.632
9.56041	0.612
9.59255	0.632
9.6247	0.662
9.65684	0.607
9.68898	0.541
9.72113	0.509
9.75327	0.501
9.78541	0.462
9.81755	0.476
9.8497	0.575
9.88184	0.64
9.91398	0.656
9.94612	0.561
9.97827	0.534
10.0104	0.582
10.0426	0.56
10.0747	0.609
10.1068	0.666
10.139	0.723
10.1711	0.775
10.2033	0.799
10.2354	0.799
10.2676	0.795
10.2997	0.781
10.3318	0.764
10.364	0.768
10.3961	0.748
10.4283	0.748
10.4604	0.792
10.4926	0.822
10.5247	0.846
10.5568	0.854
10.589	0.86
10.6211	0.865
10.6533	0.867
10.6854	0.868
10.7176	0.867
10.7497	0.857
10.7818	0.84
10.814	0.818
10.8461	0.787
10.8783	0.759
10.9104	0.742
10.9426	0.773
10.9747	0.81
11.0068	0.822
11.039	0.837
11.0711	0.84
11.1033	0.835
11.1354	0.818
11.1676	0.797
11.1997	0.754
11.2318	0.724
11.264	0.685
11.2961	0.648
11.3283	0.672
11.3604	0.715
11.3926	0.748
11.4247	0.727
11.4568	0.675
11.489	0.688
11.5211	0.761
11.5533	0.799
11.5854	0.83
11.6175	0.848
11.6497	0.86
11.6818	0.87
11.714	0.879
11.7461	0.878
11.7783	0.886
11.8104	0.879
11.8425	0.875
11.8747	0.875
11.9068	0.867
11.939	0.867
11.9711	0.859
12.0033	0.843
12.0354	0.814
12.0675	0.781
12.0997	0.768
12.1318	0.772
12.164	0.81
12.1961	0.843
12.2283	0.862
12.2604	0.879
12.2925	0.892
12.3247	0.909
12.3568	0.922
12.389	0.924
12.4211	0.924
12.4533	0.93
12.4854	0.936
12.5175	0.931
12.5497	0.941
12.5818	0.943
12.614	0.944
12.6461	0.952
12.6783	0.96
12.7104	0.968
12.7425	0.987
12.7747	0.99
12.8068	0.995
12.839	1.006
12.8711	1.015
12.9033	1.017
12.9354	1.017
12.9675	1.017
12.9997	1.015
13.0318	1.015
13.064	1.014
13.0961	1.015
13.1283	1.015
13.1604	1.015
13.1925	1.015
13.2247	1.015
13.2568	1.015
13.289	1.015
13.3211	1.015
13.3533	1.015
13.3854	1.015
13.4175	1.015
13.4497	1.014
13.4818	1.014
13.514	1.014
13.5461	1.014
13.5783	1.014
13.6104	1.015
13.6425	1.015
13.6747	1.015
13.7068	1.015
13.739	1.014
13.7711	1.015
13.8033	1.014
13.8354	1.014
13.8675	1.015
13.8997	1.014
13.9318	1.007
13.964	0.996
13.9961	0.979
14.0283	0.955
14.0604	0.922
14.0925	0.867
14.1247	0.768
14.1568	0.7
14.189	0.585
14.2211	0.511
14.2533	0.409
14.2854	0.311
14.3175	0.31
14.3497	0.386
14.3818	0.587
14.414	0.689
14.4461	0.783
14.4783	0.838
14.5104	0.876
14.5425	0.903
14.5747	0.92
14.6068	0.933
14.639	0.935
