Infrared Spectrum: 2,6-Dichlorobenzyl thiocyanate
Formula: C 8 H 5 Cl 2 N S
CAS: 7534-64-7
State: gas
Origin: EPA-IR VAPOR PHASE LIBRARY
1/CM	ABSORBANCE
549.9	0.0008865
559.547	0.0010652
569.193	0.0010644
578.84	0.0012201
588.486	0.0011342
598.133	0.0012516
607.779	0.001565
617.426	0.0015391
627.072	0.001454
636.719	0.001928
646.365	0.003428
656.012	0.004778
665.658	0.004538
675.305	0.004368
684.951	0.003538
694.598	0.002248
704.245	0.0016785
713.891	0.0016351
723.538	0.002178
733.184	0.004178
742.831	0.007278
752.477	0.013648
762.124	0.025748
771.77	0.035008
781.417	0.029608
791.063	0.008328
800.71	0.003488
810.356	0.003078
820.003	0.003588
829.649	0.003078
839.296	0.001958
848.943	0.001748
858.589	0.001898
868.236	0.003418
877.882	0.010828
887.529	0.023588
897.175	0.014698
906.822	0.003858
916.468	0.001758
926.115	0.0012216
935.761	0.0010845
945.408	0.0011201
955.054	0.0012774
964.701	0.0013955
974.347	0.0012579
983.994	0.000977
993.64	0.0009561
1003.29	0.0009897
1012.93	0.0010776
1022.58	0.0010588
1032.23	0.001114
1041.87	0.0010982
1051.52	0.0012101
1061.17	0.0014136
1070.81	0.002268
1080.46	0.005148
1090.11	0.011228
1099.75	0.010898
1109.4	0.004668
1119.05	0.005868
1128.69	0.009508
1138.34	0.008958
1147.99	0.004858
1157.63	0.003028
1167.28	0.002328
1176.92	0.002008
1186.57	0.002378
1196.22	0.003188
1205.86	0.006018
1215.51	0.006408
1225.16	0.003978
1234.8	0.005178
1244.45	0.011418
1254.1	0.009708
1263.74	0.003438
1273.39	0.001898
1283.04	0.0014113
1292.68	0.0012633
1302.33	0.001426
1311.98	0.0013629
1321.62	0.0011841
1331.27	0.001056
1340.92	0.0010491
1350.56	0.0011428
1360.21	0.0010782
1369.86	0.0011186
1379.5	0.0013286
1389.15	0.001738
1398.79	0.002298
1408.44	0.003508
1418.09	0.007688
1427.73	0.024018
1437.38	0.045538
1447.03	0.026078
1456.67	0.006008
1466.32	0.003698
1475.97	0.003168
1485.61	0.002828
1495.26	0.003078
1504.91	0.002378
1514.55	0.001888
1524.2	0.001738
1533.85	0.002118
1543.49	0.003818
1553.14	0.009788
1562.79	0.020238
1572.43	0.018338
1582.08	0.010818
1591.73	0.004208
1601.37	0.001998
1611.02	0.0017011
1620.67	0.0014696
1630.31	0.0014082
1639.96	0.0014
1649.6	0.0014171
1659.25	0.0014813
1668.9	0.001778
1678.54	0.0013089
1688.19	0.0010105
1697.84	0.0009533
1707.48	0.0009981
1717.13	0.0009932
1726.78	0.0008731
1736.42	0.0009537
1746.07	0.0009871
1755.72	0.0009941
1765.36	0.0010454
1775.01	0.0015029
1784.66	0.001738
1794.3	0.0011274
1803.95	0.0008354
1813.6	0.0008192
1823.24	0.00080701
1832.89	0.0009315
1842.54	0.0012239
1852.18	0.0016972
1861.83	0.0016615
1871.47	0.0010311
1881.12	0.0008748
1890.77	0.00077411
1900.41	0.0008268
1910.06	0.0010619
1919.71	0.0016403
1929.35	0.002118
1939	0.0016375
1948.65	0.0010042
1958.29	0.00078834
1967.94	0.0008036
1977.59	0.00080869
1987.23	0.00081622
1996.88	0.0008803
2006.53	0.0009519
2016.17	0.0010414
2025.82	0.0011202
2035.47	0.0010676
2045.11	0.0011265
2054.76	0.0010066
2064.41	0.0009709
2074.05	0.0008541
2083.7	0.0008845
2093.35	0.0008433
2102.99	0.0009103
2112.64	0.0008746
2122.28	0.0009534
2131.93	0.0012524
2141.58	0.001898
2151.22	0.003548
2160.87	0.005568
2170.52	0.003618
2180.16	0.0015371
2189.81	0.0009712
2199.46	0.0007989
2209.1	0.0007574
2218.75	0.0007078
2228.4	0.0006994
2238.04	0.0007015
2247.69	0.000717636
2257.34	0.000759
2266.98	0.00079433
2276.63	0.0008677
2286.28	0.0008581
2295.92	0.0008389
2305.57	0.0008728
2315.22	0.0009168
2324.86	0.0009102
2334.51	0.0008261
2344.16	0.0008378
2353.8	0.00073905
2363.45	0.00075577
2373.09	0.000702
2382.74	0.0007048
2392.39	0.000615
2402.03	0.00067
2411.68	0.000725861
2421.33	0.0006543
2430.97	0.0006324
2440.62	0.0006974
2450.27	0.0006902
2459.91	0.00071602
2469.56	0.00077967
2479.21	0.0007742
2488.85	0.00080189
2498.5	0.00073486
2508.15	0.0006538
2517.79	0.0007048
2527.44	0.00071924
2537.09	0.00077919
2546.73	0.00078933
2556.38	0.00077664
2566.03	0.0006644
2575.67	0.0006567
2585.32	0.0006826
2594.96	0.0007006
2604.61	0.0006882
2614.26	0.0006343
2623.9	0.00075501
2633.55	0.0008298
2643.2	0.0009173
2652.84	0.0009561
2662.49	0.0008383
2672.14	0.00080587
2681.78	0.00076015
2691.43	0.0006544
2701.08	0.000589
2710.72	0.0006752
2720.37	0.000547
2730.02	0.000511
2739.66	0.000556
2749.31	0.000515
2758.96	0.000474
2768.6	0.000503
2778.25	0.000453
2787.9	0.000506
2797.54	0.000501
2807.19	0.000561
2816.84	0.000541
2826.48	0.0006912
2836.13	0.0008785
2845.77	0.00081564
2855.42	0.00077698
2865.07	0.000588
2874.71	0.000414
2884.36	0.000394
2894.01	0.000425
2903.65	0.000397
2913.3	0.000457
2922.95	0.000519
2932.59	0.000496
2942.24	0.0006208
2951.89	0.00078306
2961.53	0.001352
2971.18	0.001114
2980.83	0.0009373
2990.47	0.0007719
3000.12	0.000543
3009.77	0.0006375
3019.41	0.0006226
3029.06	0.0007064
3038.71	0.000618
3048.35	0.000658
3058	0.0012236
3067.64	0.002318
3077.29	0.002318
3086.94	0.002008
3096.58	0.0009872
3106.23	0.0006717
3115.88	0.000553
3125.52	0.0008966
3135.17	0.00075912
3144.82	0.000394
3154.46	0.000156
3164.11	0.000186
3173.76	0.000174
3183.4	0.000125
3193.05	0.000331
3202.7	0.000275
3212.34	0.000119
3221.99	0.000332
3231.64	0.000267
3241.28	0.000186
3250.93	0.000402
3260.58	0.000298
3270.22	0.000174
3279.87	0.000309
3289.52	0.00022
3299.16	0.000303
3308.81	7.7e-05
3318.45	0.000341
3328.1	0.000201
3337.75	0.000218
3347.39	0.000272
3357.04	0.000219
3366.69	0.000313
3376.33	0.000202
3385.98	0.000152
3395.63	0.000147
3405.27	0.000374
3414.92	0.000424
3424.57	0.000162
3434.21	0.000399
3443.86	0.00027
3453.51	0.000282
3463.15	0.000447
3472.8	0.000588
3482.45	0.000365
3492.09	0.000529
3501.74	0.000458
3511.39	0.000379
3521.03	0.00034
3530.68	0.000378
3540.33	0.000461
3549.97	0.000511
3559.62	0.000612
3569.26	0.000539
3578.91	0.000454
3588.56	0.000399
3598.2	0.000514
3607.85	0.00048
3617.5	0.000306
3627.14	0.000506
3636.79	0.000476
3646.44	0.000437
3656.08	0.0006435
3665.73	0.000569
3675.38	0.0006324
3685.02	0.000411
3694.67	0.000482
3704.32	0.000536
3713.96	0.000513
3723.61	0.000586
3733.26	0.000519
3742.9	0.000406
3752.55	0.000569
3762.2	0.0006554
3771.84	0.000558
3781.49	0.00053
3791.13	0.000518
3800.78	0.000455
3810.43	0.000462
3820.07	0.000437
3829.72	0.000504
3839.37	0.0006883
3849.01	0.0006716
3858.66	0.000514
3868.31	0.0006565
3877.95	0.0006252
3887.6	0.00075344
3897.25	0.00077505
3906.89	0.000615
3916.54	0.000603
3926.19	0.000599
3935.83	0.000403
3945.48	0.000553
3955.13	0.000514
3964.77	0.000505
3974.42	0.000513
3984.07	0.000457
3993.71	0.000574
