Infrared Spectrum: 4-Methoxy-3-methylphenylacetonitrile
Formula: C 10 H 11 N O
CAS: 75391-57-0
State: gas
Origin: EPA-IR VAPOR PHASE LIBRARY
1/CM	ABSORBANCE
549.8	0.001364
559.445	0.001714
569.09	0.002344
578.734	0.001804
588.379	0.001914
598.024	0.002234
607.669	0.003214
617.313	0.003074
626.958	0.002104
636.603	0.001164
646.248	0.0008328
655.893	0.0004902
665.537	0.000818
675.182	0.0008319
684.827	0.0010532
694.472	0.001284
704.116	0.001304
713.761	0.001064
723.406	0.001244
733.051	0.002274
742.695	0.004834
752.34	0.006614
761.985	0.004104
771.63	0.002854
781.275	0.003344
790.919	0.007104
800.564	0.013644
810.209	0.015494
819.854	0.009924
829.498	0.004364
839.143	0.002254
848.788	0.002184
858.433	0.002934
868.078	0.004504
877.722	0.003994
887.367	0.002394
897.012	0.001844
906.657	0.001954
916.301	0.002284
925.946	0.002084
935.591	0.001994
945.236	0.001914
954.88	0.001974
964.525	0.001834
974.17	0.002364
983.815	0.003734
993.46	0.005014
1003.1	0.006754
1012.75	0.009644
1022.39	0.016714
1032.04	0.024984
1041.68	0.023144
1051.33	0.012814
1060.97	0.005684
1070.62	0.003664
1080.26	0.002904
1089.91	0.002854
1099.55	0.003264
1109.2	0.005564
1118.84	0.012994
1128.49	0.031544
1138.13	0.035664
1147.78	0.019224
1157.42	0.009854
1167.07	0.007054
1176.71	0.008554
1186.36	0.009794
1196	0.009424
1205.64	0.013654
1215.29	0.026674
1224.93	0.031004
1234.58	0.032484
1244.22	0.064554
1253.87	0.098034
1263.51	0.067674
1273.16	0.035344
1282.8	0.026404
1292.45	0.020514
1302.09	0.015144
1311.74	0.012144
1321.38	0.009274
1331.03	0.005894
1340.67	0.003924
1350.32	0.003224
1359.96	0.003204
1369.61	0.003224
1379.25	0.003744
1388.9	0.004124
1398.54	0.004184
1408.18	0.006614
1417.83	0.011224
1427.47	0.014734
1437.12	0.014014
1446.76	0.015054
1456.41	0.015634
1466.05	0.020474
1475.7	0.020584
1485.34	0.024884
1494.99	0.057414
1504.63	0.088144
1514.28	0.053034
1523.92	0.017724
1533.57	0.009114
1543.21	0.006274
1552.86	0.004794
1562.5	0.003864
1572.15	0.003484
1581.79	0.003694
1591.44	0.004834
1601.08	0.007564
1610.73	0.010774
1620.37	0.007954
1630.01	0.003604
1639.66	0.002334
1649.3	0.001834
1658.95	0.001514
1668.59	0.001424
1678.24	0.001224
1687.88	0.0011131
1697.53	0.0010311
1707.17	0.0010732
1716.82	0.001424
1726.46	0.001504
1736.11	0.001664
1745.75	0.001484
1755.4	0.001364
1765.04	0.001364
1774.69	0.001404
1784.33	0.001454
1793.98	0.001384
1803.62	0.0010103
1813.27	0.0008246
1822.91	0.0007661
1832.55	0.0010899
1842.2	0.001334
1851.84	0.001404
1861.49	0.001494
1871.13	0.001444
1880.78	0.001334
1890.42	0.001234
1900.07	0.0009891
1909.71	0.0008168
1919.36	0.0006613
1929	0.00056
1938.65	0.0006509
1948.29	0.0006297
1957.94	0.0007367
1967.58	0.000887
1977.23	0.0010365
1986.87	0.001344
1996.52	0.001754
2006.16	0.002034
2015.81	0.001724
2025.45	0.001454
2035.1	0.001374
2044.74	0.001414
2054.38	0.001464
2064.03	0.001484
2073.67	0.001344
2083.32	0.0010033
2092.96	0.0007089
2102.61	0.000578
2112.25	0.0006463
2121.9	0.0005633
2131.54	0.0005448
2141.19	0.0006073
2150.83	0.0006618
2160.48	0.0007454
2170.12	0.0007564
2179.77	0.000655
2189.41	0.0006791
2199.06	0.0005883
2208.7	0.0005512
2218.35	0.0006206
2227.99	0.0008947
2237.64	0.001244
2247.28	0.002034
2256.92	0.002464
2266.57	0.001614
2276.21	0.000926
2285.86	0.0007157
2295.5	0.0006982
2305.15	0.0006157
2314.79	0.0006717
2324.44	0.0005813
2334.08	0.0006277
2343.73	0.0006284
2353.37	0.0007232
2363.02	0.000632
2372.66	0.0007083
2382.31	0.0006055
2391.95	0.0004719
2401.6	0.0006197
2411.24	0.0005753
2420.89	0.0006223
2430.53	0.000627
2440.18	0.0006953
2449.82	0.0006105
2459.47	0.0005701
2469.11	0.0006246
2478.75	0.00064
2488.4	0.0009725
2498.04	0.0011187
2507.69	0.001224
2517.33	0.001124
2526.98	0.001174
2536.62	0.0010769
2546.27	0.001244
2555.91	0.001184
2565.56	0.001184
2575.2	0.0010236
2584.85	0.00089
2594.49	0.00085
2604.14	0.0009649
2613.78	0.0008493
2623.43	0.0007393
2633.07	0.000849
2642.72	0.0007633
2652.36	0.0005848
2662.01	0.0006618
2671.65	0.0005292
2681.29	0.0004487
2690.94	0.0005711
2700.58	0.0008066
2710.23	0.0007391
2719.87	0.0009742
2729.52	0.0009357
2739.16	0.001364
2748.81	0.001424
2758.45	0.0011002
2768.1	0.0010836
2777.74	0.001134
2787.39	0.001474
2797.03	0.001974
2806.68	0.002524
2816.32	0.003584
2825.97	0.005454
2835.61	0.010374
2845.26	0.014694
2854.9	0.011824
2864.55	0.009084
2874.19	0.008174
2883.84	0.007864
2893.48	0.008884
2903.12	0.011984
2912.77	0.017004
2922.41	0.021594
2932.06	0.025924
2941.7	0.028844
2951.35	0.028024
2960.99	0.023884
2970.64	0.017604
2980.28	0.013954
2989.93	0.013344
2999.57	0.017214
3009.22	0.021264
3018.86	0.016194
3028.51	0.012084
3038.15	0.009184
3047.8	0.008074
3057.44	0.006904
3067.09	0.005484
3076.73	0.004914
3086.38	0.004284
3096.02	0.003374
3105.67	0.002774
3115.31	0.002604
3124.95	0.002084
3134.6	0.001734
3144.24	0.001554
3153.89	0.001234
3163.53	0.0008888
3173.18	0.000899
3182.82	0.0008676
3192.47	0.0009092
3202.11	0.0007799
3211.76	0.0006356
3221.4	0.0005616
3231.05	0.0005449
3240.69	0.0005176
3250.34	0.0003609
3259.98	0.0003507
3269.63	0.0006571
3279.27	0.0004223
3288.92	0.000394
3298.56	0.0003224
3308.21	0.00019153
3317.85	0.00021764
3327.49	0.0003534
3337.14	0.0001121
3346.78	0.0004566
3356.43	0.0004682
3366.07	0.0004822
3375.72	0.0003028
3385.36	3.32e-05
3395.01	0.0002708
3404.65	0.00019623
3414.3	7.65e-05
3423.94	0.0002855
3433.59	0.000356
3443.23	0.0003539
3452.88	0.0004777
3462.52	0.0002479
3472.17	0.00020434
3481.81	0.0004494
3491.46	0.0003399
3501.1	0.000133451
3510.75	0.0002856
3520.39	7.84e-05
3530.04	0.0003496
3539.68	0.0003637
3549.32	0.0005015
3558.97	0.0005074
3568.61	0.00018855
3578.26	0.0003167
3587.9	0.00022216
3597.55	0.0003762
3607.19	0.0003989
3616.84	0.00044
3626.48	0.0002412
3636.13	0.00013846
3645.77	0.0003227
3655.42	0.0003012
3665.06	0.0003518
3674.71	0.0001018
3684.35	0.00015749
3694	0.00022052
3703.64	5.26e-05
3713.29	0.00017325
3722.93	0.0003895
3732.58	0.0002622
3742.22	0.0003488
3751.86	0.0002849
3761.51	0
3771.15	0.00018853
3780.8	0.0004843
3790.44	0.0004309
3800.09	0.0004275
3809.73	0.0003316
3819.38	0.0003068
3829.02	0.00017346
3838.67	0.0003061
3848.31	0.0004278
3857.96	0.0004356
3867.6	0.0004346
3877.25	0.000636
3886.89	0.0003375
3896.54	0.0005207
3906.18	0.0002537
3915.83	0.0005688
3925.47	0.0004875
3935.12	0.0005721
3944.76	0.0003626
3954.41	0.0003802
3964.05	0.0006415
3973.69	0.000615
3983.34	0.0006681
3992.98	0.0007356
