Infrared Spectrum: ETHANE SULFONYL FLUORIDE
Formula: C2 H5 F O2 S
CAS: 754-03-0
State: SOLUTION (2% CCl4 FOR 5000-1330, 2% CS2 FOR 1330-625 CM^-^1)
Class: COBLENTZ
Instrument: Not specified, most likely a prism, grating, or hybrid spectrometer.
Sampling: TRANSMISSION
Path length: 0.0118 CM, 0.0118 CM
Resolution: 4
Origin: DOW CHEMICAL COMPANY
MICROMETERS	TRANSMITTANCE
2.062	0.88
2.10303	0.88
2.14407	0.882
2.1851	0.882
2.22614	0.88
2.26717	0.882
2.30821	0.882
2.34924	0.882
2.39028	0.887
2.43131	0.885
2.47235	0.885
2.51338	0.889
2.55442	0.892
2.59545	0.889
2.63649	0.889
2.67752	0.889
2.71856	0.887
2.75959	0.877
2.80062	0.873
2.84166	0.87
2.88269	0.87
2.92373	0.87
2.96476	0.868
3.0058	0.866
3.04683	0.861
3.08787	0.861
3.1289	0.861
3.16994	0.868
3.21097	0.866
3.25201	0.868
3.29304	0.86
3.33408	0.827
3.37511	0.839
3.41615	0.87
3.45718	0.873
3.49822	0.878
3.53925	0.883
3.58028	0.887
3.62132	0.89
3.66235	0.89
3.70339	0.895
3.74442	0.897
3.78546	0.895
3.82649	0.89
3.86753	0.899
3.90856	0.901
3.9496	0.902
3.99063	0.902
4.03167	0.901
4.0727	0.901
4.11374	0.902
4.15477	0.899
4.19581	0.901
4.23684	0.89
4.27787	0.887
4.31891	0.882
4.35994	0.885
4.40098	0.899
4.44201	0.906
4.48305	0.907
4.52408	0.907
4.56512	0.907
4.60615	0.907
4.64719	0.911
4.68822	0.909
4.72926	0.909
4.77029	0.911
4.81133	0.911
4.85236	0.911
4.8934	0.909
4.93443	0.907
4.97546	0.907
5.0165	0.909
5.05753	0.909
5.09857	0.916
5.1396	0.918
5.18064	0.918
5.22167	0.918
5.26271	0.916
5.30374	0.912
5.34478	0.907
5.38581	0.909
5.42685	0.909
5.46788	0.911
5.50892	0.914
5.54995	0.918
5.59099	0.919
5.63202	0.918
5.67306	0.916
5.71409	0.909
5.75512	0.907
5.79616	0.911
5.83719	0.909
5.87823	0.906
5.91926	0.907
5.9603	0.899
6.00133	0.902
6.04237	0.897
6.0834	0.894
6.12444	0.877
6.16547	0.849
6.20651	0.776
6.24754	0.679
6.28858	0.631
6.32961	0.597
6.37065	0.547
6.41168	0.482
6.45271	0.467
6.49375	0.554
6.53478	0.6
6.57582	0.655
6.61685	0.744
6.65789	0.8
6.69892	0.841
6.73996	0.851
6.78099	0.8
6.82203	0.737
6.86306	0.8
6.9041	0.779
6.94513	0.662
6.98617	0.431
7.0272	0.182
7.06824	0.116
7.10927	0.389
7.15031	0.558
7.19134	0.522
7.23237	0.774
7.27341	0.848
7.31444	0.878
7.35548	0.897
7.39651	0.904
7.43755	0.899
7.47858	0.906
7.51962	0.902
7.56065	0.897
7.60169	0.87
7.64272	0.836
7.68376	0.795
7.72479	0.863
7.76583	0.882
7.80686	0.89
7.8479	0.89
7.88893	0.887
7.92996	0.88
7.971	0.86
8.01203	0.793
8.05307	0.767
8.0941	0.808
8.13514	0.813
8.17617	0.738
8.21721	0.571
8.25824	0.351
8.29928	0.238
8.34031	0.302
8.38135	0.691
8.42238	0.803
8.46342	0.834
8.50445	0.843
8.54549	0.853
8.58652	0.866
8.62755	0.87
8.66859	0.872
8.70962	0.875
8.75066	0.873
8.79169	0.873
8.83273	0.875
8.87376	0.875
8.9148	0.872
8.95583	0.872
8.99687	0.87
9.0379	0.873
9.07894	0.873
9.11997	0.873
9.16101	0.872
9.20204	0.87
9.24308	0.87
9.28411	0.865
9.32515	0.851
9.36618	0.82
9.40721	0.82
9.44825	0.82
9.48928	0.856
9.53032	0.87
9.57135	0.875
9.61239	0.878
9.65342	0.882
9.69446	0.887
9.73549	0.887
9.77653	0.887
9.81756	0.889
9.8586	0.89
9.89963	0.894
9.94067	0.895
9.9817	0.897
10.0227	0.897
10.0638	0.897
10.1048	0.895
10.1458	0.892
10.1869	0.89
10.2279	0.887
10.2689	0.889
10.31	0.897
10.351	0.897
10.392	0.899
10.4331	0.899
10.4741	0.899
10.5152	0.897
10.5562	0.89
10.5972	0.89
10.6383	0.887
10.6793	0.883
10.7203	0.88
10.7614	0.878
10.8024	0.878
10.8434	0.877
10.8845	0.873
10.9255	0.873
10.9665	0.873
11.0076	0.872
11.0486	0.87
11.0896	0.866
11.1307	0.861
11.1717	0.851
11.2127	0.836
11.2538	0.82
11.2948	0.802
11.3358	0.79
11.3769	0.776
11.4179	0.761
11.459	0.75
11.5	0.74
11.541	0.723
11.5821	0.711
11.6231	0.697
11.6641	0.692
11.7052	0.692
11.7462	0.706
11.7872	0.728
11.8283	0.757
11.8693	0.774
11.9103	0.783
11.9514	0.788
11.9924	0.79
12.0334	0.788
12.0745	0.776
12.1155	0.757
12.1565	0.737
12.1976	0.694
12.2386	0.651
12.2796	0.58
12.3207	0.469
12.3617	0.336
12.4027	0.194
12.4438	0.105
12.4848	0.1
12.5259	0.146
12.5669	0.194
12.6079	0.261
12.649	0.332
12.69	0.431
12.731	0.496
12.7721	0.556
12.8131	0.598
12.8541	0.619
12.8952	0.627
12.9362	0.617
12.9772	0.58
13.0183	0.558
13.0593	0.58
13.1003	0.629
13.1414	0.701
13.1824	0.728
13.2234	0.749
13.2645	0.757
13.3055	0.764
13.3465	0.767
13.3876	0.769
13.4286	0.767
13.4697	0.766
13.5107	0.764
13.5517	0.759
13.5928	0.757
13.6338	0.747
13.6748	0.732
13.7159	0.708
13.7569	0.672
13.7979	0.645
13.839	0.619
13.88	0.621
13.921	0.638
13.9621	0.65
14.0031	0.65
14.0441	0.631
14.0852	0.592
14.1262	0.542
14.1672	0.477
14.2083	0.426
14.2493	0.421
14.2903	0.455
14.3314	0.5
14.3724	0.542
14.4135	0.575
14.4545	0.595
14.4955	0.604
14.5366	0.612
14.5776	0.614
14.6186	0.614
14.6597	0.609
14.7007	0.604
14.7417	0.598
14.7828	0.593
14.8238	0.587
14.8648	0.578
14.9059	0.568
14.9469	0.563
14.9879	0.561
15.029	0.551
15.07	0.54
15.111	0.53
15.1521	0.52
15.1931	0.51
15.2341	0.501
15.2752	0.491
15.3162	0.481
15.3572	0.474
15.3983	0.467
15.4393	0.462
15.4804	0.453
15.5214	0.448
15.5624	0.44
15.6035	0.433
15.6445	0.43
15.6855	0.423
15.7266	0.419
15.7676	0.412
15.8086	0.409
15.8497	0.407
15.8907	0.412
