Infrared Spectrum: Heptafluoropropyliodide
Formula: C 3 F 7 I
CAS: 754-34-7
State: gas
Origin: EPA-IR VAPOR PHASE LIBRARY
1/CM	ABSORBANCE
501.5	0.004489
513.074	0.007759
524.648	0.021959
536.222	0.026449
547.796	0.014909
559.37	0.007669
570.944	0.006679
582.518	0.015429
594.092	0.023739
605.666	0.009099
617.24	0.010069
628.814	0.009059
640.388	0.011659
651.962	0.023409
663.536	0.055829
675.11	0.085529
686.684	0.021969
698.258	0.012219
709.832	0.012519
721.406	0.072189
732.98	0.326749
744.554	0.136749
756.128	0.061779
767.702	0.010309
779.276	0.009069
790.85	0.018919
802.423	0.092419
813.997	0.297539
825.571	0.092139
837.145	0.028249
848.719	0.027359
860.293	0.058349
871.867	0.154749
883.441	0.161099
895.015	0.052479
906.589	0.023299
918.163	0.011889
929.737	0.007909
941.311	0.007119
952.885	0.007539
964.459	0.008809
976.033	0.009959
987.607	0.010509
999.181	0.016949
1010.76	0.040069
1022.33	0.128709
1033.9	0.201059
1045.48	0.081409
1057.05	0.057869
1068.63	0.062949
1080.2	0.035119
1091.77	0.039559
1103.35	0.075519
1114.92	0.229269
1126.49	0.519929
1138.07	0.356319
1149.64	0.202479
1161.22	0.119239
1172.79	0.117129
1184.36	0.238899
1195.94	0.387639
1207.51	0.612739
1219.09	0.852479
1230.66	0.898719
1242.23	0.792739
1253.81	0.418889
1265.38	0.214569
1276.96	0.113779
1288.53	0.069169
1300.1	0.092759
1311.68	0.222809
1323.25	0.318479
1334.83	0.150099
1346.4	0.070259
1357.97	0.028759
1369.55	0.014219
1381.12	0.010199
1392.7	0.008199
1404.27	0.008929
1415.84	0.007909
1427.42	0.005749
1438.99	0.004349
1450.57	0.003909
1462.14	0.004169
1473.71	0.004479
1485.29	0.004959
1496.86	0.004059
1508.44	0.002849
1520.01	0.002259
1531.58	0.002729
1543.16	0.003429
1554.73	0.003519
1566.31	0.003299
1577.88	0.003149
1589.45	0.002649
1601.03	0.002399
1612.6	0.002579
1624.18	0.002499
1635.75	0.002309
1647.32	0.002589
1658.9	0.003289
1670.47	0.002789
1682.05	0.001689
1693.62	0.001519
1705.19	0.001539
1716.77	0.001999
1728.34	0.002689
1739.92	0.002819
1751.49	0.001919
1763.06	0.001459
1774.64	0.001379
1786.21	0.001659
1797.79	0.002179
1809.36	0.002169
1820.93	0.002019
1832.51	0.001999
1844.08	0.001889
1855.66	0.001569
1867.23	0.001329
1878.8	0.001018
1890.38	0.0006999
1901.95	0.00065
1913.53	0.0006617
1925.1	0.0009714
1936.67	0.001619
1948.25	0.001889
1959.82	0.001809
1971.4	0.001979
1982.97	0.001419
1994.54	0.0008458
2006.12	0.0007401
2017.69	0.00099
2029.27	0.001439
2040.84	0.001439
2052.41	0.001439
2063.99	0.001509
2075.56	0.001449
2087.14	0.001349
2098.71	0.0012374
2110.28	0.001409
2121.86	0.002009
2133.43	0.002339
2145.01	0.001909
2156.58	0.001619
2168.15	0.001579
2179.73	0.001959
2191.3	0.002369
2202.88	0.002599
2214.45	0.002969
2226.02	0.002689
2237.6	0.002629
2249.17	0.002889
2260.74	0.003259
2272.32	0.003709
2283.89	0.004029
2295.47	0.004239
2307.04	0.003529
2318.61	0.002529
2330.19	0.002399
2341.76	0.002369
2353.34	0.002869
2364.91	0.003629
2376.48	0.003859
2388.06	0.003669
2399.63	0.003199
2411.21	0.002959
2422.78	0.003239
2434.35	0.003319
2445.93	0.003489
2457.5	0.003289
2469.08	0.002949
2480.65	0.002559
2492.22	0.002159
2503.8	0.002109
2515.37	0.002299
2526.95	0.002519
2538.52	0.002659
2550.09	0.002629
2561.67	0.002329
2573.24	0.001559
2584.82	0.0008796
2596.39	0.0004827
2607.96	0.0002478
2619.54	0.0001813
2631.11	9.7e-05
2642.69	8.5e-05
2654.26	0
2665.83	3e-05
2677.41	9.7e-05
2688.98	0
2700.56	3.5e-05
2712.13	7.7e-05
2723.7	5.4e-05
2735.28	0.000132
2746.85	4.7e-05
2758.43	7e-06
2770	4.1e-05
2781.57	0.000113
2793.15	0.000108
2804.72	0.00012
2816.3	7.1e-05
2827.87	8.1e-05
2839.44	8.5e-05
2851.02	0.000111
2862.59	0.000122
2874.17	6e-05
2885.74	0.000122
2897.31	9.6e-05
2908.89	8.3e-05
2920.46	0.000137
2932.04	8.7e-05
2943.61	0.000166
2955.18	0.0002042
2966.76	0.000175
2978.33	0.000128
2989.91	6.3e-05
3001.48	9e-05
3013.05	0.000107
3024.63	0.000136
3036.2	0.0002478
3047.78	5.9e-05
3059.35	0.0001884
3070.92	0.0001917
3082.5	0.000174
3094.07	0.000122
3105.65	0.000102
3117.22	5.4e-05
3128.79	0.0002009
3140.37	0.000147
3151.94	0.0002339
3163.52	0.0002382
3175.09	7.1e-05
3186.66	0.0002375
3198.24	0.0002071
3209.81	0.000226
3221.39	0.0001834
3232.96	0.000122
3244.53	0.000156
3256.11	0.000278875
3267.68	0.00032301
3279.26	0.0002684
3290.83	0.00032517
3302.4	0.0002238
3313.98	0.0002575
3325.55	0.000279172
3337.13	0.00030137
3348.7	0.00031751
3360.27	0.0002303
3371.85	0.000280801
3383.42	0.00031153
3395	0.000142
3406.57	0.00027
3418.14	0.0003621
3429.72	0.00027477
3441.29	0.0002614
3452.86	0.000141
3464.44	0.00033324
3476.01	0.00032805
3487.59	0.00029491
3499.16	0.0002564
3510.73	0.0003899
3522.31	0.00031725
3533.88	0.0002406
3545.46	0.0004335
3557.03	0.0003907
3568.6	0.00037414
3580.18	0.00030716
3591.75	0.0004025
3603.33	0.00037162
3614.9	0.00030086
3626.47	0.00035866
3638.05	0.000283472
3649.62	0.0002586
3661.2	0.0002377
3672.77	0.00033659
3684.34	0.0002531
3695.92	0.00035878
3707.49	0.0002113
3719.07	0.0003481
3730.64	0.00031952
3742.21	0.00033877
3753.79	0.000165
3765.36	0.0002124
3776.94	0.0002359
3788.51	0.0002322
3800.08	0.000171
3811.66	0.0002485
3823.23	0.00033561
3834.81	0.0002316
3846.38	0.00036302
3857.95	0.0002044
3869.53	0.000145
3881.1	0.000166
3892.68	0.0002615
3904.25	0.00035775
3915.82	0.0003052
3927.4	0.00030924
3938.97	0.000286265
3950.55	0.00017
3962.12	0.0002073
3973.69	0.0002589
3985.27	0.000138
3996.84	0.0002422
