Infrared Spectrum: 2,2-Dimethylpropionamide
Formula: C 5 H 11 N O
CAS: 754-10-9
State: gas
Origin: EPA-IR VAPOR PHASE LIBRARY
1/CM	ABSORBANCE
549.8	0.002495
559.445	0.002535
569.09	0.002005
578.734	0.001425
588.379	0.0010323
598.024	0.0012353
607.669	0.0009038
617.313	0.00102
626.958	0.0011142
636.603	0.0009601
646.248	0.0008123
655.893	0.0007762
665.537	0.0009561
675.182	0.0009271
684.827	0.0011096
694.472	0.0011714
704.116	0.0013377
713.761	0.0013394
723.406	0.001485
733.051	0.001695
742.695	0.001875
752.34	0.002215
761.985	0.002715
771.63	0.002535
781.275	0.002385
790.919	0.002075
800.564	0.002005
810.209	0.001645
819.854	0.0013536
829.498	0.001395
839.143	0.001725
848.788	0.001855
858.433	0.001735
868.078	0.001595
877.722	0.001405
887.367	0.001455
897.012	0.0012696
906.657	0.001395
916.301	0.001395
925.946	0.0012828
935.591	0.001575
945.236	0.0012506
954.88	0.0010367
964.525	0.0011402
974.17	0.000886
983.815	0.0009289
993.46	0.000752
1003.1	0.0010003
1012.75	0.000733
1022.39	0.0010308
1032.04	0.0009881
1041.68	0.0007077
1051.33	0.0009074
1060.97	0.0011781
1070.62	0.001445
1080.26	0.001795
1089.91	0.001395
1099.55	0.0010636
1109.2	0.0010618
1118.84	0.0005467
1128.49	0.000254
1138.13	0.0005943
1147.78	0.0003668
1157.42	0.00045218
1167.07	0.0007713
1176.71	0.002345
1186.36	0.003365
1196	0.005925
1205.64	0.006635
1215.29	0.005575
1224.93	0.003105
1234.58	0.001805
1244.22	0.0012246
1253.87	0.0011661
1263.51	0.0010821
1273.16	0.001495
1282.8	0.001985
1292.45	0.002505
1302.09	0.003465
1311.74	0.005015
1321.38	0.006545
1331.03	0.007255
1340.67	0.006845
1350.32	0.005605
1359.96	0.004125
1369.61	0.003775
1379.25	0.003115
1388.9	0.003115
1398.54	0.002915
1408.18	0.002515
1417.83	0.001785
1427.47	0.0013057
1437.12	0.0013635
1446.76	0.001625
1456.41	0.002115
1466.05	0.002985
1475.7	0.003675
1485.34	0.003605
1494.99	0.002775
1504.63	0.001585
1514.28	0.0010547
1523.92	0.001057
1533.57	0.0011371
1543.21	0.001555
1552.86	0.002245
1562.5	0.003745
1572.15	0.006725
1581.79	0.008775
1591.44	0.009335
1601.08	0.007375
1610.73	0.003875
1620.37	0.002025
1630.01	0.001395
1639.66	0.0011232
1649.3	0.0012113
1658.95	0.001715
1668.59	0.002555
1678.24	0.004365
1687.88	0.007585
1697.53	0.012815
1707.17	0.020625
1716.82	0.023775
1726.46	0.024135
1736.11	0.021985
1745.75	0.011955
1755.4	0.005895
1765.04	0.002785
1774.69	0.001465
1784.33	0.0010041
1793.98	0.0007027
1803.62	0.0006664
1813.27	0.0005737
1822.91	0.0005072
1832.55	0.00046413
1842.2	0.0004352
1851.84	0.0003553
1861.49	0.0003583
1871.13	0.0003536
1880.78	0.000345
1890.42	0.00041944
1900.07	0.000387554
1909.71	0.000353
1919.36	0.0003427
1929	0.0003279
1938.65	0.0003165
1948.29	0.0003148
1957.94	0.0003402
1967.58	0.0003176
1977.23	0.0003068
1986.87	0.0003423
1996.52	0.000277
2006.16	0.0003347
2015.81	0.0002922
2025.45	0.0003106
2035.1	0.0003249
2044.74	0.000273
2054.38	0.0003018
2064.03	0.000206
2073.67	0.0003144
2083.32	0.0003327
2092.96	0.0003104
2102.61	0.000254
2112.25	0.000208
2121.9	0.000222
2131.54	0.000197
2141.19	0.000158
2150.83	0.000244
2160.48	0.0003517
2170.12	0.0002955
2179.77	0.000234
2189.41	0.000248
2199.06	0.0002999
2208.7	0.000241
2218.35	0.000282
2227.99	0.00026
2237.64	0.000269
2247.28	0.0003298
2256.92	0.0002911
2266.57	0.0003204
2276.21	0.000269
2285.86	0.0003327
2295.5	0.0003227
2305.15	0.0002958
2314.79	0.0002997
2324.44	0.00022
2334.08	0.0002889
2343.73	0.000256
2353.37	0.000245
2363.02	0.000234
2372.66	0.000247
2382.31	0.000254
2391.95	0.0003186
2401.6	0.000229
2411.24	0.0003114
2420.89	0.0003269
2430.53	0.000224
2440.18	0.000272
2449.82	0.000225
2459.47	0.000247
2469.11	0.0002877
2478.75	0.0003595
2488.4	0.0002912
2498.04	0.00024
2507.69	0.000214
2517.33	0.0002895
2526.98	0.000277
2536.62	0.00022
2546.27	0.0003317
2555.91	0.00024
2565.56	0.0003251
2575.2	0.00026
2584.85	0.000266
2594.49	0.00037735
2604.14	0.0003414
2613.78	0.000269
2623.43	0.00040088
2633.07	0.000284
2642.72	0.000262
2652.36	0.000229
2662.01	0.0003672
2671.65	0.000311
2681.29	0.00031
2690.94	0.000295
2700.58	0.0003155
2710.23	0.00042889
2719.87	0.00041149
2729.52	0.0003529
2739.16	0.00046782
2748.81	0.00046295
2758.45	0.00043313
2768.1	0.0005117
2777.74	0.0005306
2787.39	0.0006097
2797.03	0.0005625
2806.68	0.0005761
2816.32	0.0007392
2825.97	0.0006765
2835.61	0.000826
2845.26	0.0010325
2854.9	0.001515
2864.55	0.002445
2874.19	0.003465
2883.84	0.004005
2893.48	0.004195
2903.12	0.004325
2912.77	0.004855
2922.41	0.005305
2932.06	0.005955
2941.7	0.007315
2951.35	0.009885
2960.99	0.012765
2970.64	0.014225
2980.28	0.011975
2989.93	0.007425
2999.57	0.003845
3009.22	0.002005
3018.86	0.0009787
3028.51	0.000726
3038.15	0.0006935
3047.8	0.0003436
3057.44	0.0004579
3067.09	0.0003648
3076.73	0.0006274
3086.38	0.00045516
3096.02	0.0005123
3105.67	0.00043011
3115.31	0.000263
3124.95	0.00043141
3134.6	0.0003666
3144.24	0.0004975
3153.89	0.0005459
3163.53	0.0005093
3173.18	0.0004989
3182.82	0.0005099
3192.47	0.000491
3202.11	0.0005343
3211.76	0.0003698
3221.4	0.0004863
3231.05	0.00042265
3240.69	0.0003682
3250.34	0.00046075
3259.98	0.000339
3269.63	0.0002859
3279.27	0.000284
3288.92	0.000276
3298.56	0.0003491
3308.21	0.0003344
3317.85	0.0004993
3327.49	0.0002888
3337.14	0.0003462
3346.78	0.0003482
3356.43	0.0003412
3366.07	0.000281
3375.72	0.00046213
3385.36	0.0004248
3395.01	0.0008366
3404.65	0.0011462
3414.3	0.001545
3423.94	0.002105
3433.59	0.002295
3443.23	0.002245
3452.88	0.001645
3462.52	0.0009908
3472.17	0.0008447
3481.81	0.0006147
3491.46	0.0007272
3501.1	0.0007232
3510.75	0.0009328
3520.39	0.0010582
3530.04	0.001715
3539.68	0.002125
3549.32	0.002525
3558.97	0.002525
3568.61	0.002275
3578.26	0.001425
3587.9	0.0008787
3597.55	0.0006276
3607.19	0.00042309
3616.84	0.000279
3626.48	0.000197
3636.13	0.00025
3645.77	0.000159
3655.42	0.0003425
3665.06	0.000252
3674.71	0.000195
3684.35	0.000103
3694	0.000251
3703.64	0.000103
3713.29	0.000207
3722.93	0.0002976
3732.58	0.000262
3742.22	0.000285
3751.86	0.000227
3761.51	0.000158
3771.15	0.000176
3780.8	0.0003424
3790.44	0.000226
3800.09	0.000242
3809.73	0.000198
3819.38	0.0003254
3829.02	0.0002897
3838.67	0.000118
3848.31	0.000277
3857.96	0.000209
3867.6	0.000264
3877.25	0.0003129
3886.89	0.000173
3896.54	0.000223
3906.18	0.000203
3915.83	0.000196
3925.47	0.0003178
3935.12	0.000211
3944.76	0.000238
3954.41	0.000175
3964.05	0.000206
3973.69	0.00026
3983.34	0.00022
3992.98	0.00018
