Infrared Spectrum: 2-Nitrothiophene-4-carboxaldehyde
Formula: C 5 H 3 N O 3 S
CAS: 75428-45-4
State: gas
Origin: EPA-IR VAPOR PHASE LIBRARY
1/CM	ABSORBANCE
549.8	0.0011495
559.445	0.0010469
569.09	0.00243
578.735	0.0045
588.38	0.00507
598.025	0.00382
607.67	0.00189
617.315	0.0012995
626.96	0.0015338
636.605	0.00264
646.251	0.00773
655.896	0.01641
665.541	0.01723
675.186	0.01358
684.831	0.01108
694.476	0.00534
704.121	0.00391
713.766	0.00559
723.411	0.00727
733.056	0.00499
742.701	0.00712
752.346	0.00671
761.991	0.00588
771.636	0.01109
781.281	0.01789
790.926	0.01548
800.571	0.02106
810.216	0.02512
819.861	0.01672
829.507	0.00439
839.152	0.00194
848.797	0.00451
858.442	0.00884
868.087	0.01173
877.732	0.00951
887.377	0.00579
897.022	0.00264
906.667	0.0011503
916.312	0.0008946
925.957	0.0011003
935.602	0.00194
945.247	0.00492
954.892	0.00733
964.537	0.00473
974.182	0.00201
983.827	0.00168
993.472	0.00194
1003.12	0.00162
1012.76	0.001561
1022.41	0.00255
1032.05	0.00422
1041.7	0.00856
1051.34	0.02227
1060.99	0.0379
1070.63	0.02744
1080.28	0.00678
1089.92	0.00294
1099.57	0.0014997
1109.21	0.00108
1118.86	0.0011126
1128.5	0.00208
1138.15	0.00573
1147.79	0.01826
1157.44	0.01959
1167.08	0.00652
1176.73	0.00647
1186.37	0.0183
1196.02	0.02632
1205.66	0.01512
1215.31	0.003
1224.95	0.0015328
1234.6	0.0011346
1244.24	0.0010413
1253.89	0.0011001
1263.53	0.0012324
1273.18	0.0015809
1282.82	0.00239
1292.47	0.00384
1302.11	0.0068
1311.76	0.01338
1321.4	0.02877
1331.05	0.06765
1340.69	0.11361
1350.34	0.09849
1359.98	0.03744
1369.63	0.01002
1379.27	0.00666
1388.92	0.00801
1398.56	0.01117
1408.21	0.01497
1417.85	0.01769
1427.5	0.01878
1437.14	0.01424
1446.79	0.01052
1456.43	0.0078
1466.08	0.00653
1475.73	0.00709
1485.37	0.00833
1495.02	0.00975
1504.66	0.01381
1514.31	0.02761
1523.95	0.04686
1533.6	0.06479
1543.24	0.08854
1552.89	0.0918
1562.53	0.0577
1572.18	0.02858
1581.82	0.01746
1591.47	0.01165
1601.11	0.00814
1610.76	0.00646
1620.4	0.00493
1630.05	0.00355
1639.69	0.00284
1649.34	0.00253
1658.98	0.00273
1668.63	0.00414
1678.27	0.00682
1687.92	0.01107
1697.56	0.01797
1707.21	0.05198
1716.85	0.14213
1726.5	0.13018
1736.14	0.01947
1745.79	0.00578
1755.43	0.00376
1765.08	0.0028
1774.72	0.00211
1784.37	0.00183
1794.01	0.0016326
1803.66	0.0018
1813.3	0.0019
1822.95	0.00175
1832.59	0.0016464
1842.24	0.00171
1851.88	0.0018
1861.53	0.001605
1871.17	0.001269
1880.82	0.0008277
1890.46	0.00073278
1900.11	0.0007762
1909.75	0.00073189
1919.4	0.0006046
1929.04	0.0005988
1938.69	0.0006154
1948.33	0.0006219
1957.98	0.0005906
1967.62	0.000509
1977.27	0.000485
1986.91	0.000426
1996.56	0.000435
2006.2	0.000536
2015.85	0.0005564
2025.49	0.000492
2035.14	0.000377
2044.78	0.000319
2054.43	0.000402
2064.07	0.000389
2073.72	0.000391
2083.36	0.000417
2093.01	0.000469
2102.65	0.000535
2112.3	0.000578
2121.94	0.000545
2131.59	0.000498
2141.23	0.000505
2150.88	0.000486
2160.52	0.000424
2170.17	0.000301
2179.81	0.000328
2189.46	0.000353
2199.1	0.000413
2208.75	0.000524
2218.39	0.000601
2228.04	0.000537
2237.68	0.0005775
2247.33	0.0006324
2256.97	0.0005623
2266.62	0.000513
2276.26	0.000426
2285.91	0.000494
2295.55	0.0006822
2305.2	0.00073956
2314.84	0.00070948
2324.49	0.0005961
2334.13	0.00069224
2343.78	0.0008475
2353.42	0.0008187
2363.07	0.0008107
2372.72	0.0007806
2382.36	0.0009265
2392.01	0.0009356
2401.65	0.0009218
2411.3	0.0006394
2420.94	0.000497
2430.59	0.000401
2440.23	0.000341
2449.88	0.000373
2459.52	0.0005
2469.17	0.00068311
2478.81	0.0008163
2488.46	0.0008263
2498.1	0.0006203
2507.75	0.0006222
2517.39	0.000496
2527.04	0.000522
2536.68	0.000511
2546.33	0.0005797
2555.97	0.0005917
2565.62	0.0005578
2575.26	0.0005522
2584.91	0.0005898
2594.55	0.00072815
2604.2	0.00073475
2613.84	0.000778
2623.49	0.000769
2633.13	0.0008025
2642.78	0.0008606
2652.42	0.0009871
2662.07	0.001354
2671.71	0.00178
2681.36	0.00262
2691	0.00414
2700.65	0.00691
2710.29	0.00775
2719.94	0.00545
2729.58	0.00486
2739.23	0.00595
2748.87	0.00682
2758.52	0.00657
2768.16	0.00611
2777.81	0.00785
2787.45	0.01189
2797.1	0.01498
2806.74	0.01909
2816.39	0.02022
2826.03	0.01436
2835.68	0.0097
2845.32	0.00879
2854.97	0.00669
2864.61	0.00412
2874.26	0.00294
2883.9	0.00264
2893.55	0.00227
2903.19	0.00182
2912.84	0.0016156
2922.48	0.0014884
2932.13	0.0014499
2941.77	0.0011664
2951.42	0.0010284
2961.06	0.0007991
2970.71	0.00069246
2980.35	0.00071114
2990	0.0005606
2999.64	0.000503
3009.29	0.000472
3018.93	0.000526
3028.58	0.000355
3038.22	0.000538
3047.87	0.00069706
3057.51	0.0006414
3067.16	0.0008653
3076.8	0.0010687
3086.45	0.0015858
3096.09	0.00276
3105.74	0.00506
3115.38	0.00623
3125.03	0.00396
3134.67	0.001281
3144.32	0.000374
3153.96	0.000201
3163.61	0.000221
3173.25	0.000152
3182.9	3e-05
3192.54	0.000232
3202.19	0.000274
3211.83	9.6e-05
3221.48	0.000213
3231.12	0.000139
3240.77	0.000195
3250.41	0.000298
3260.06	0.000277
3269.7	0.000255
3279.35	0.000307
3289	0.000424
3298.64	0.000147
3308.29	3.1e-05
3317.93	0.000304
3327.58	0.000396
3337.22	0.000205
3346.87	0.00033
3356.51	0.000389
3366.16	0.000478
3375.8	0.000541
3385.45	0.00070866
3395.09	0.0009824
3404.74	0.0016136
3414.38	0.0024
3424.03	0.00243
3433.67	0.0011972
3443.32	0.000539
3452.96	0.000373
3462.61	0.000413
3472.25	0.00023
3481.9	0.00047
3491.54	0.000399
3501.19	0.000466
3510.83	0.000364
3520.48	0.000342
3530.12	0.000399
3539.77	0.000333
3549.41	0.000411
3559.06	0.000533
3568.7	0.000461
3578.35	0.000337
3587.99	0.000372
3597.64	0.000385
3607.28	0.000453
3616.93	0.000477
3626.57	0.000443
3636.22	0.000378
3645.86	0.000494
3655.51	0.000461
3665.15	0.000434
3674.8	0.000305
3684.44	0.000349
3694.09	0.0005742
3703.73	0.000394
3713.38	0.00052
3723.02	0.00037
3732.67	0.000432
3742.31	0.000362
3751.96	0.0005639
3761.6	0.0006227
3771.25	0.000494
3780.89	0.000508
3790.54	0.000503
3800.18	0.0005743
3809.83	0.000445
3819.47	0.000492
3829.12	0.000455
3838.76	0.000451
3848.41	0.000515
3858.05	0.00045
3867.7	0.0005565
3877.34	0.000541
3886.99	0.0005591
3896.63	0.000521
3906.28	0.0006601
3915.92	0.000404
3925.57	0.000492
3935.21	0.00064553
3944.86	0.0005982
3954.5	0.0005695
3964.15	0.000542
3973.79	0.000477
3983.44	0.0005875
3993.08	0.0006003
