Infrared Spectrum: PIPERAZINE MONOHYDROCHLORIDE
Formula: C4 H11 Cl N2
CAS: 7542-23-6
State: SOLID (SPLIT MULL, FLUOROLUBE FOR 3800-1333 AND NUJOL FOR 1333-460 CM ^-^1)
Class: COBLENTZ III
Instrument: DOW KBr FOREPRISM-GRATING
Instrument parameters: BLAZED AT 3.5, 12.0, 20.0 MICRON, CHANGED AT 5.0, 7.5, 14.9 MICRON
Sampling: TRANSMISSION
Resolution: 4
Origin: DOW CHEMICAL COMPANY
1/CM	TRANSMITTANCE
455.017	0.892
463.668	0.89
472.318	0.911
480.969	0.915
489.619	0.915
498.27	0.893
506.92	0.695
515.571	0.888
524.221	0.907
532.872	0.911
541.523	0.911
550.173	0.911
558.824	0.899
567.474	0.892
576.125	0.787
584.775	0.909
593.426	0.925
602.076	0.559
610.727	0.903
619.377	0.886
628.028	0.893
636.679	0.946
645.329	0.975
653.98	0.987
662.63	1.002
671.281	1.013
679.931	1.018
688.582	1.02
697.232	1.018
705.883	1.017
714.534	1.013
723.184	1.008
731.835	1.002
740.485	0.997
749.136	0.994
757.786	0.983
766.437	0.985
775.087	1.006
783.738	1.017
792.389	1.017
801.039	1.013
809.69	1.001
818.34	0.956
826.991	0.559
835.641	1.001
844.292	0.983
852.942	0.919
861.593	0.4639
870.243	0.886
878.894	0.936
887.545	0.995
896.195	1
904.846	0.997
913.496	0.987
922.147	0.975
930.797	0.866
939.448	0.916
948.098	0.857
956.749	0.757
965.4	0.932
974.05	0.868
982.701	0.913
991.351	0.93
1000	0.956
1008.65	0.932
1017.3	0.921
1025.95	0.934
1034.6	0.892
1043.25	0.746
1051.91	0.668
1060.56	0.794
1069.21	0.6989
1077.86	0.772
1086.51	0.493
1095.16	0.833
1103.81	0.915
1112.46	0.889
1121.11	0.6089
1129.76	0.829
1138.41	0.935
1147.06	0.944
1155.71	0.939
1164.36	0.921
1173.01	0.849
1181.66	0.616
1190.31	0.855
1198.96	0.6539
1207.61	0.8251
1216.27	0.965
1224.92	0.967
1233.57	0.958
1242.22	0.938
1250.87	0.925
1259.52	0.917
1268.17	0.911
1276.82	0.903
1285.47	0.885
1294.12	0.861
1302.77	0.7909
1311.42	0.857
1320.07	0.7369
1328.72	0.457
1337.37	0.872
1346.02	0.876
1354.67	0.838
1363.32	0.613
1371.98	0.977
1380.63	1.009
1389.28	1
1397.93	0.973
1406.58	0.92
1415.23	0.8811
1423.88	0.9309
1432.53	0.872
1441.18	0.85
1449.83	0.6121
1458.48	0.7379
1467.13	0.3679
1475.78	0.834
1484.43	0.977
1493.08	1.005
1501.73	0.998
1510.38	0.969
1519.03	0.913
1527.69	0.892
1536.34	0.948
1544.99	0.905
1553.64	0.948
1562.29	0.975
1570.94	0.965
1579.59	0.956
1588.24	0.944
1596.89	0.921
1605.54	0.877
1614.19	0.777
1622.84	0.5269
1631.49	0.308
1640.14	0.8201
1648.79	0.982
1657.44	1.005
1666.09	1.03
1674.74	1.034
1683.4	1.029
1692.05	1.028
1700.7	1.029
1709.35	1.022
1718	1.022
1726.65	1.012
1735.3	1.014
1743.95	1.021
1752.6	1.02
1761.25	1.018
1769.9	1.012
1778.55	0.998
1787.2	0.977
1795.85	0.965
1804.5	0.958
1813.15	0.971
1821.8	0.981
1830.45	0.979
1839.11	0.978
1847.76	0.977
1856.41	0.974
1865.06	0.974
1873.71	0.971
1882.36	0.969
1891.01	0.966
1899.66	0.959
1908.31	0.952
1916.96	0.939
1925.61	0.936
1934.26	0.947
1942.91	0.952
1951.56	0.95
1960.21	0.947
1968.86	0.943
1977.51	0.94
1986.16	0.936
1994.82	0.932
2003.47	0.928
2012.12	0.92
2020.77	0.909
2029.42	0.904
2038.07	0.89
2046.72	0.88
2055.37	0.87
2064.02	0.858
2072.67	0.8489
2081.32	0.8288
2089.97	0.8019
2098.62	0.8031
2107.27	0.81
2115.92	0.811
2124.57	0.8121
2133.22	0.83
2141.87	0.8299
2150.53	0.8117
2159.18	0.7917
2167.83	0.7688
2176.48	0.7509
2185.13	0.7339
2193.78	0.7217
2202.43	0.7089
2211.08	0.6899
2219.73	0.6707
2228.38	0.6562
2237.03	0.6781
2245.68	0.6811
2254.33	0.686
2262.98	0.6974
2271.63	0.7028
2280.28	0.6755
2288.93	0.6514
2297.58	0.6267
2306.24	0.6058
2314.89	0.596
2323.54	0.592
2332.19	0.588
2340.84	0.5847
2349.49	0.581
2358.14	0.58
2366.79	0.576
2375.44	0.573
2384.09	0.566
2392.74	0.563
2401.39	0.562
2410.04	0.562
2418.69	0.562
2427.34	0.563
2435.99	0.5661
2444.64	0.573
2453.29	0.577
2461.94	0.5851
2470.6	0.5886
2479.25	0.6061
2487.9	0.6158
2496.55	0.609
2505.2	0.602
2513.85	0.6025
2522.5	0.6133
2531.15	0.6085
2539.8	0.5958
2548.45	0.5585
2557.1	0.589
2565.75	0.5803
2574.4	0.5447
2583.05	0.5191
2591.7	0.4872
2600.35	0.4498
2609	0.4142
2617.65	0.402
2626.31	0.4211
2634.96	0.487
2643.61	0.484
2652.26	0.4768
2660.91	0.4673
2669.56	0.4487
2678.21	0.4033
2686.86	0.3408
2695.51	0.2955
2704.16	0.2468
2712.81	0.2583
2721.46	0.3264
2730.11	0.4065
2738.76	0.4108
2747.41	0.3987
2756.06	0.407
2764.71	0.376
2773.36	0.359
2782.02	0.367
2790.67	0.3818
2799.32	0.4103
2807.97	0.446
2816.62	0.4443
2825.27	0.4595
2833.92	0.454
2842.57	0.4926
2851.22	0.5317
2859.87	0.4555
2868.52	0.4489
2877.17	0.5773
2885.82	0.542
2894.47	0.5211
2903.12	0.5258
2911.77	0.557
2920.42	0.557
2929.07	0.5596
2937.73	0.58
2946.38	0.6034
2955.03	0.593
2963.68	0.6179
2972.33	0.6643
2980.98	0.6813
2989.63	0.684
2998.28	0.7539
3006.93	0.7987
3015.58	0.8333
3024.23	0.8437
3032.88	0.8503
3041.53	0.854
3050.18	0.8573
3058.83	0.8694
3067.48	0.8827
3076.13	0.8971
3084.78	0.9044
3093.44	0.9124
3102.09	0.9168
3110.74	0.924
3119.39	0.9246
3128.04	0.92
3136.69	0.9069
3145.34	0.8911
3153.99	0.8668
3162.64	0.872
3171.29	0.8589
3179.94	0.8038
3188.59	0.6762
3197.24	0.4152
3205.89	0.0872
3214.54	0.5961
3223.19	0.8786
3231.84	0.9758
3240.49	0.9728
3249.15	0.9487
3257.8	0.9897
3266.45	1.0254
3275.1	1.036
3283.75	1.036
3292.4	1.036
3301.05	1.034
3309.7	1.0311
3318.35	1.028
3327	1.0231
3335.65	1.017
3344.3	1.0096
3352.95	1.001
3361.6	0.9926
3370.25	0.9836
3378.9	0.969
3387.55	0.947
3396.2	0.9569
3404.86	0.963
3413.51	0.9496
3422.16	0.945
3430.81	0.9539
3439.46	0.97
3448.11	0.971
3456.76	0.975
3465.41	0.9705
3474.06	0.967
3482.71	0.967
3491.36	0.97
3500.01	0.978
3508.66	0.983
3517.31	0.983
3525.96	0.979
3534.61	0.975
3543.26	0.968
3551.91	0.963
3560.56	0.966
3569.22	0.976
3577.87	0.977
3586.52	0.9921
3595.17	0.9991
3603.82	0.9989
3612.47	1.0005
3621.12	0.9989
3629.77	0.997
3638.42	0.9959
3647.07	0.993
3655.72	0.99
3664.37	0.989
3673.02	0.9854
3681.67	0.9785
3690.32	0.9752
3698.97	0.9786
3707.62	0.978
3716.27	0.978
3724.93	0.977
3733.58	0.975
3742.23	0.973
3750.88	0.97
3759.53	0.969
3768.18	0.966
3776.83	0.9624
3785.48	0.96
3794.13	0.958
