Infrared Spectrum: 3,5-Bis(trifluoromethyl)benzyl chloride
Formula: C 9 H 5 Cl F 6
CAS: 75462-59-8
State: gas
Instrument: HP-GC/MS/IRD
Origin: NIST Mass Spectrometry Data Center
1/CM	ABSORBANCE
550	0.001362
562	0.0003632
574	0.0003178
586	0.000908
598	0.0017252
610	0.0034504
622	0.0074456
634	0.0044038
646	0.0014982
658	0.0014528
670	0.0050394
682	0.0529818
694	0.01589
706	0.0201576
718	0.011804
730	0.0235172
742	0.014755
754	0.0095794
766	0.0055388
778	0.0029056
790	0.0011804
802	0.0007718
814	0.0007718
826	0.0018614
838	0.0108052
850	0.0101696
862	0.004313
874	0.0054934
886	0.0070824
898	0.0137562
910	0.0250154
922	0.0125758
934	0.0049486
946	0.002497
958	0.0012712
970	0.000908
982	0.0010442
994	0.001816
1006	0.0022246
1018	0.0016344
1030	0.001362
1042	0.001362
1054	0.001589
1066	0.0022246
1078	0.003632
1090	0.0065376
1102	0.01816
1114	0.0271038
1126	0.0259234
1138	0.0776794
1150	0.317164
1162	0.281389
1174	0.202938
1186	0.357934
1198	0.102967
1210	0.03405
1222	0.0258326
1234	0.0227454
1246	0.0277848
1258	0.0582028
1270	0.205435
1282	0.454
1294	0.126893
1306	0.0355028
1318	0.0126212
1330	0.008399
1342	0.0089892
1354	0.0172066
1366	0.0647858
1378	0.0965658
1390	0.0189318
1402	0.0062198
1414	0.0044038
1426	0.003859
1438	0.0049032
1450	0.0073094
1462	0.0086714
1474	0.0041768
1486	0.0016344
1498	0.0012258
1510	0.0012258
1522	0.0010896
1534	0.000908
1546	0.0007264
1558	0.000908
1570	0.0009988
1582	0.0008172
1594	0.0009534
1606	0.0020884
1618	0.0054026
1630	0.0040406
1642	0.0016798
1654	0.0016798
1666	0.0011804
1678	0.0005448
1690	0.0003178
1702	0.0003632
1714	0.0003632
1726	0.0003632
1738	0.0005448
1750	0.000681
1762	0.000681
1774	0.0007718
1786	0.0014074
1798	0.0019522
1810	0.003178
1822	0.0028602
1834	0.0019976
1846	0.0012712
1858	0.0006356
1870	0.000454
1882	0.0004994
1894	0.0002724
1906	0.0002724
1918	0.000227
1930	0.0001362
1942	0.0001362
1954	9.08e-05
1966	0
1978	0.0001362
1990	0.0003632
2002	0.0005448
2014	0.0004994
2026	0.0003632
2038	0.000227
2050	0.000227
2062	0.0002724
2074	0.0002724
2086	0.000227
2098	0.000227
2110	0.0003178
2122	0.0001816
2134	9.08e-05
2146	4.54e-05
2158	0
2170	4.54e-05
2182	0.0001816
2194	0.0003178
2206	0.0004994
2218	0.000681
2230	0.0004994
2242	0.0005902
2254	0.000908
2266	0.0009988
2278	0.0013166
2290	0.001589
2302	0.001362
2314	0.0009534
2326	0.0008172
2338	0.0009534
2350	0.000908
2362	0.0008172
2374	0.0009534
2386	0.0007718
2398	0.000454
2410	0.0003178
2422	0.0003632
2434	0.0004086
2446	0.0002724
2458	0.0003178
2470	0.0002724
2482	0.0001362
2494	0.0001362
2506	9.08e-05
2518	0.0001362
2530	0.0001816
2542	0.000227
2554	0.0003632
2566	0.0002724
2578	0.0001362
2590	9.08e-05
2602	9.08e-05
2614	0.0001816
2626	0.000227
2638	0.0003632
2650	0.0005902
2662	0.0003632
2674	9.08e-05
2686	4.54e-05
2698	9.08e-05
2710	0.0001816
2722	0.0002724
2734	0.0001816
2746	9.08e-05
2758	4.54e-05
2770	4.54e-05
2782	0.0001362
2794	4.54e-05
2806	9.08e-05
2818	0.0001816
2830	0.000227
2842	0.0003178
2854	0.0003632
2866	0.000454
2878	0.0006356
2890	0.0007718
2902	0.0006356
2914	0.0005448
2926	0.0006356
2938	0.0012258
2950	0.0021792
2962	0.0028148
2974	0.0041768
2986	0.002497
2998	0.0021338
3010	0.001816
3022	0.000908
3034	0.0007264
3046	0.000908
3058	0.0008172
3070	0.0005902
3082	0.0005902
3094	0.0005902
3106	0.0004994
3118	0.0002724
3130	0.0001362
3142	0.0001362
3154	0.0001816
3166	0.0001362
3178	0.0001362
3190	9.08e-05
3202	9.08e-05
3214	9.08e-05
3226	9.08e-05
3238	9.08e-05
3250	9.08e-05
3262	0.0001362
3274	0.0001362
3286	9.08e-05
3298	4.54e-05
3310	9.08e-05
3322	9.08e-05
3334	0.0001362
3346	9.08e-05
3358	0.0001362
3370	9.08e-05
3382	9.08e-05
3394	9.08e-05
3406	0.0001362
3418	9.08e-05
3430	0.0001362
3442	9.08e-05
3454	9.08e-05
3466	0.0001362
3478	0.0001816
3490	0.000227
3502	0.0001362
3514	9.08e-05
3526	0.0001816
3538	0.0001816
3550	0.0001362
3562	0.0001362
3574	9.08e-05
3586	9.08e-05
3598	0.0001362
3610	0.0001362
3622	0.0001816
3634	9.08e-05
3646	9.08e-05
3658	0.0001362
3670	0.0001816
3682	9.08e-05
3694	0.0001362
3706	4.54e-05
3718	9.08e-05
3730	9.08e-05
3742	0.0001362
3754	9.08e-05
3766	9.08e-05
3778	4.54e-05
3790	4.54e-05
3802	0.0001362
3814	4.54e-05
3826	9.08e-05
3838	4.54e-05
