Infrared Spectrum: Anisyl propionate
Formula: C 11 H 14 O 3
CAS: 7549-33-9
State: gas
Instrument: HP-GC/MS/IRD
Origin: NIST Mass Spectrometry Data Center
1/CM	ABSORBANCE
550	0.0011224
562	0.0018952
574	0.0013754
586	0.000897
598	0.0004784
610	0.0003588
622	0.0002898
634	0.0002346
646	7.36e-05
658	2.3e-05
670	2.3e-05
682	5.98e-05
694	0.0001564
706	0.000207
718	0.0002668
730	0.0002392
742	0.0004186
754	0.0006486
766	0.0005428
778	0.0007452
790	0.0015594
802	0.0033028
814	0.0056028
826	0.007314
838	0.0062422
850	0.0042274
862	0.0020884
874	0.0013202
886	0.0012558
898	0.0014996
910	0.0015502
922	0.0019596
934	0.0022356
946	0.0025162
958	0.0025254
970	0.0025208
982	0.0036386
994	0.0061134
1006	0.0095358
1018	0.0110722
1030	0.0111688
1042	0.0122452
1054	0.0106996
1066	0.0106904
1078	0.0104558
1090	0.0086434
1102	0.0069092
1114	0.0067896
1126	0.0071668
1138	0.0087538
1150	0.014789
1162	0.0332902
1174	0.0438518
1186	0.0288972
1198	0.0240994
1210	0.0219098
1222	0.020792
1234	0.0240074
1246	0.035374
1258	0.0269836
1270	0.0170108
1282	0.0122268
1294	0.0103592
1306	0.00736
1318	0.0058696
1330	0.0073922
1342	0.0081052
1354	0.0058604
1366	0.0041676
1378	0.0041262
1390	0.0031602
1402	0.0021252
1414	0.002139
1426	0.0027692
1438	0.0041584
1450	0.0055798
1462	0.0070702
1474	0.0065688
1486	0.0041814
1498	0.0068172
1510	0.022356
1522	0.0160954
1534	0.0033994
1546	0.0015824
1558	0.0012604
1570	0.0015686
1582	0.0027416
1594	0.0043424
1606	0.0077188
1618	0.007935
1630	0.003059
1642	0.001449
1654	0.001035
1666	0.0008786
1678	0.0009108
1690	0.0011408
1702	0.0018538
1714	0.0031418
1726	0.0055936
1738	0.012305
1750	0.027186
1762	0.0268134
1774	0.0109434
1786	0.0045034
1798	0.002346
1810	0.001449
1822	0.0009108
1834	0.000644
1846	0.0005566
1858	0.000552
1870	0.0005888
1882	0.0005704
1894	0.0004646
1906	0.0003772
1918	0.0003634
1930	0.0002898
1942	0.0002852
1954	0.000299
1966	0.0003358
1978	0.0003726
1990	0.0004554
2002	0.0005336
2014	0.0005014
2026	0.000437
2038	0.0004416
2050	0.0004784
2062	0.000529
2074	0.0005566
2086	0.0004186
2098	0.0002576
2110	0.000161
2122	9.2e-05
2134	6.9e-05
2146	4.6e-05
2158	4.6e-05
2170	1.38e-05
2182	9.2e-06
2194	1.38e-05
2206	5.98e-05
2218	8.74e-05
2230	5.98e-05
2242	5.98e-05
2254	0.0001058
2266	0.000138
2278	0.0001656
2290	0.0001656
2302	0.0001196
2314	0.0001012
2326	8.28e-05
2338	8.28e-05
2350	8.28e-05
2362	4.6e-05
2374	9.2e-06
2386	3.68e-05
2398	1.84e-05
2410	7.82e-05
2422	0.0001426
2434	9.2e-05
2446	0.0001334
2458	9.66e-05
2470	0.0001196
2482	0.000138
2494	0.0001564
2506	0.000138
2518	0.0001472
2530	0.0002208
2542	0.0002346
2554	0.0001932
2566	0.0001242
2578	8.74e-05
2590	0.0001012
2602	9.66e-05
2614	5.06e-05
2626	8.74e-05
2638	3.68e-05
2650	6.44e-05
2662	1.84e-05
2674	9.2e-06
2686	5.98e-05
2698	6.44e-05
2710	6.44e-05
2722	9.66e-05
2734	0.0001702
2746	0.0002254
2758	0.000253
2770	0.000299
2782	0.000391
2794	0.000483
2806	0.0007176
2818	0.0010994
2830	0.0018722
2842	0.0037904
2854	0.003059
2866	0.0020976
2878	0.0024748
2890	0.0036754
2902	0.0044988
2914	0.005129
2926	0.005727
2938	0.0078338
2950	0.0107916
2962	0.0102718
2974	0.0081466
2986	0.0083766
2998	0.0078292
3010	0.007544
3022	0.00414
3034	0.0035006
3046	0.003082
3058	0.0019826
3070	0.001955
3082	0.0017526
3094	0.0013294
3106	0.0010994
3118	0.0008188
3130	0.0005888
3142	0.0004508
3154	0.0003128
3166	0.0002576
3178	0.000184
3190	0.0001518
3202	0.0001426
3214	0.0001242
3226	7.36e-05
3238	7.82e-05
3250	9.66e-05
3262	4.14e-05
3274	3.22e-05
3286	9.2e-06
3298	4.14e-05
3310	5.52e-05
3322	5.98e-05
3334	9.66e-05
3346	9.2e-05
3358	3.68e-05
3370	4.6e-05
3382	5.06e-05
3394	4.6e-05
3406	6.9e-05
3418	1.84e-05
3430	5.98e-05
3442	1.38e-05
3454	8.28e-05
3466	0.000161
3478	0.00023
3490	0.0003818
3502	0.0003036
3514	0.0002254
3526	0.0001932
3538	0.0001472
3550	7.36e-05
3562	8.74e-05
3574	4.6e-05
3586	5.98e-05
3598	4.6e-05
3610	6.9e-05
3622	7.82e-05
3634	0.0001012
3646	8.28e-05
3658	0.0001012
3670	8.28e-05
3682	8.28e-05
3694	6.44e-05
3706	7.82e-05
3718	0.0001104
3730	0.000161
3742	8.74e-05
3754	9.66e-05
3766	0.0001104
3778	0.0001196
3790	0.0001242
3802	0.0001058
3814	0.0001518
3826	0.0001426
3838	0.0001012
