Infrared Spectrum: 3,7-DIMETHYL-2,6-OCTADIENAL, DIMETHYL ACETAL
Formula: C12 H22 O2
CAS: 7549-37-3
Class: COBLENTZ III
Instrument: UNICAM SP-200
Sampling: TRANSMISSION
Resolution: 4
Origin: BUSH BOAKE ALLEN LTD. VIA SCIENTIFIC DOC. CENTRE LTD.
1/CM	TRANSMITTANCE
655.076	0.755
666.224	0.763
677.372	0.78
688.52	0.793
699.668	0.806
710.816	0.816
721.964	0.819
733.112	0.816
744.26	0.802
755.408	0.802
766.556	0.81
777.704	0.819
788.852	0.804
800	0.761
811.148	0.71
822.296	0.675
833.444	0.659
844.592	0.735
855.74	0.765
866.888	0.761
878.036	0.756
889.184	0.707
900.332	0.5411
911.48	0.454
922.628	0.65
933.776	0.637
944.924	0.501
956.072	0.3301
967.22	0.316
978.368	0.532
989.516	0.564
1000.66	0.645
1011.81	0.649
1022.96	0.576
1034.11	0.3421
1045.26	0.095
1056.4	0.095
1067.55	0.15
1078.7	0.126
1089.85	0.331
1101	0.294
1112.14	0.252
1123.29	0.101
1134.44	0.274
1145.59	0.4
1156.74	0.519
1167.88	0.541
1179.03	0.43
1190.18	0.466
1201.33	0.465
1212.48	0.554
1223.62	0.631
1234.77	0.689
1245.92	0.723
1257.07	0.747
1268.22	0.757
1279.36	0.762
1290.51	0.759
1301.66	0.75
1312.81	0.72
1323.96	0.701
1335.1	0.66
1346.25	0.611
1357.4	0.53
1368.55	0.459
1379.7	0.31
1390.84	0.559
1401.99	0.671
1413.14	0.68
1424.29	0.585
1435.44	0.402
1446.58	0.296
1457.73	0.385
1468.88	0.492
1480.03	0.666
1491.18	0.728
1502.32	0.769
1513.47	0.78
1524.62	0.791
1535.77	0.797
1546.92	0.794
1558.06	0.792
1569.21	0.783
1580.36	0.784
1591.51	0.781
1602.66	0.772
1613.8	0.769
1624.95	0.756
1636.1	0.686
1647.25	0.697
1658.4	0.554
1669.54	0.58
1680.69	0.753
1691.84	0.789
1702.99	0.808
1714.14	0.809
1725.28	0.811
1736.43	0.819
1747.58	0.83
1758.73	0.837
1769.88	0.845
1781.02	0.847
1792.17	0.848
1803.32	0.847
1814.47	0.849
1825.62	0.852
1836.76	0.852
1847.91	0.854
1859.06	0.852
1870.21	0.85
1881.36	0.852
1892.5	0.855
1903.65	0.856
1914.8	0.857
1925.95	0.853
1937.1	0.849
1948.24	0.845
1959.39	0.842
1970.54	0.845
1981.69	0.845
1992.84	0.847
2003.98	0.8447
2015.13	0.8422
2026.28	0.842
2037.43	0.842
2048.58	0.8444
2059.73	0.845
2070.87	0.8446
2082.02	0.843
2093.17	0.8435
2104.32	0.845
2115.47	0.845
2126.61	0.845
2137.76	0.845
2148.91	0.845
2160.06	0.846
2171.21	0.8472
2182.35	0.849
2193.5	0.85
2204.65	0.8528
2215.8	0.853
2226.95	0.8537
2238.09	0.8574
2249.24	0.858
2260.39	0.854
2271.54	0.857
2282.69	0.857
2293.83	0.858
2304.98	0.8596
2316.13	0.861
2327.28	0.8616
2338.43	0.8622
2349.57	0.863
2360.72	0.862
2371.87	0.862
2383.02	0.861
2394.17	0.859
2405.31	0.8563
2416.46	0.854
2427.61	0.8536
2438.76	0.8521
2449.91	0.852
2461.05	0.853
2472.2	0.854
2483.35	0.856
2494.5	0.8544
2505.65	0.852
2516.79	0.852
2527.94	0.851
2539.09	0.85
2550.24	0.848
2561.39	0.847
2572.53	0.846
2583.68	0.846
2594.83	0.8446
2605.98	0.8411
2617.13	0.8396
2628.27	0.8351
2639.42	0.8285
2650.57	0.826
2661.72	0.8225
2672.87	0.821
2684.01	0.8194
2695.16	0.8169
2706.31	0.8087
2717.46	0.7966
2728.61	0.792
2739.75	0.79
2750.9	0.79
2762.05	0.7897
2773.2	0.7825
2784.35	0.7437
2795.49	0.6632
2806.64	0.5504
2817.79	0.4217
2828.94	0.3875
2840.09	0.3767
2851.23	0.3392
2862.38	0.3104
2873.53	0.2837
2884.68	0.2277
2895.83	0.1879
2906.97	0.1654
2918.12	0.1518
2929.27	0.1377
2940.42	0.1386
2951.57	0.1549
2962.71	0.1781
2973.86	0.2069
2985.01	0.2694
2996.16	0.3853
3007.31	0.4929
3018.45	0.5651
3029.6	0.6028
3040.75	0.6461
3051.9	0.6724
3063.05	0.6919
3074.19	0.7096
3085.34	0.7255
3096.49	0.7509
3107.64	0.7608
3118.79	0.7706
3129.93	0.7758
3141.08	0.783
3152.23	0.7907
3163.38	0.7994
3174.53	0.8039
3185.67	0.8085
3196.82	0.81
3207.97	0.811
3219.12	0.812
3230.27	0.814
3241.41	0.816
3252.56	0.8186
3263.71	0.8202
3274.86	0.8193
3286.01	0.819
3297.15	0.819
3308.3	0.819
3319.45	0.82
3330.6	0.821
3341.75	0.8201
3352.89	0.819
3364.04	0.819
3375.19	0.817
3386.34	0.819
3397.49	0.8205
3408.63	0.8199
3419.78	0.819
3430.93	0.817
3442.08	0.816
3453.23	0.816
3464.37	0.8133
3475.52	0.812
3486.67	0.811
3497.82	0.809
3508.97	0.808
3520.11	0.807
3531.26	0.808
3542.41	0.811
3553.56	0.814
3564.71	0.8175
3575.85	0.819
3587	0.821
3598.15	0.821
3609.3	0.8216
3620.45	0.8231
3631.59	0.8247
3642.74	0.8262
3653.89	0.828
3665.04	0.8293
3676.19	0.83
3687.33	0.832
3698.48	0.833
3709.63	0.835
3720.78	0.8359
3731.93	0.8384
3743.07	0.839
3754.22	0.84
3765.37	0.842
3776.52	0.84
3787.67	0.842
3798.81	0.842
3809.96	0.842
3821.11	0.8413
3832.26	0.84
3843.41	0.84
3854.55	0.842
3865.7	0.842
3876.85	0.8407
3888	0.84
3899.15	0.838
3910.29	0.838
3921.44	0.838
3932.59	0.837
3943.74	0.8365
3954.89	0.835
3966.03	0.835
3977.18	0.8339
3988.33	0.833
3999.48	0.8308
4010.63	0.83
4021.77	0.828
4032.92	0.8262
4044.07	0.825
4055.22	0.826
4066.37	0.826
4077.51	0.8233
4088.66	0.822
4099.81	0.8229
4110.96	0.823
4122.11	0.821
4133.25	0.819
4144.4	0.8181
4155.55	0.8206
4166.7	0.8281
4177.85	0.8284
4188.99	0.828
4200.14	0.829
4211.29	0.829
4222.44	0.828
4233.59	0.828
4244.73	0.828
4255.88	0.827
4267.03	0.827
4278.18	0.826
4289.33	0.825
4300.47	0.8245
4311.62	0.826
4322.77	0.825
4333.92	0.823
4345.07	0.821
4356.21	0.82
4367.36	0.819
4378.51	0.818
4389.66	0.817
4400.81	0.8167
4411.95	0.816
4423.1	0.814
4434.25	0.814
4445.4	0.813
4456.55	0.8111
4467.69	0.808
4478.84	0.808
4489.99	0.81
4501.14	0.811
4512.29	0.811
4523.43	0.8111
4534.58	0.814
4545.73	0.8151
4556.88	0.8174
4568.03	0.8192
4579.17	0.8249
4590.32	0.8315
4601.47	0.8338
4612.62	0.8363
4623.77	0.838
4634.91	0.84
4646.06	0.8401
4657.21	0.8396
4668.36	0.838
4679.51	0.8385
4690.65	0.842
4701.8	0.842
4712.95	0.841
4724.1	0.84
4735.25	0.84
4746.39	0.8417
4757.54	0.8428
4768.69	0.84
4779.84	0.84
4790.99	0.8418
4802.13	0.84
4813.28	0.8399
4824.43	0.841
4835.58	0.84
4846.73	0.841
4857.88	0.842
4869.02	0.84
4880.17	0.838
4891.32	0.837
4902.47	0.8381
4913.62	0.839
4924.76	0.84
4935.91	0.84
4947.06	0.841
4958.21	0.8428
4969.36	0.8427
4980.5	0.842
4991.65	0.8423
5002.8	0.843
5013.95	0.842
