Infrared Spectrum: CYCLOPROPIOPHENONE OXIME
Formula: C10 H11 N O
CAS: 7555-72-8
State: SOLUTION (10% CHCl3)
Class: COBLENTZ
Instrument: Not specified, most likely a grating spectrometer.
Sampling: TRANSMISSION
Path length: 0.010 CM CELL
Resolution: 4
Origin: ABBOTT LABORATORIES
MICROMETERS	TRANSMITTANCE
1.986	0.972
2.02085	0.97
2.0557	0.969
2.09056	0.967
2.12541	0.963
2.16026	0.958
2.19511	0.943
2.22997	0.948
2.26482	0.96
2.29967	0.953
2.33452	0.948
2.36937	0.95
2.40423	0.951
2.43908	0.936
2.47393	0.931
2.50878	0.934
2.54364	0.939
2.57849	0.946
2.61334	0.948
2.64819	0.948
2.68304	0.943
2.7179	0.902
2.75275	0.713
2.7876	0.686
2.82245	0.777
2.85731	0.73
2.89216	0.614
2.92701	0.445
2.96186	0.36
2.99671	0.286
3.03157	0.24
3.06642	0.238
3.10127	0.257
3.13612	0.307
3.17098	0.368
3.20583	0.368
3.24068	0.343
3.27553	0.36
3.31038	0.476
3.34524	0.516
3.38009	0.53
3.41494	0.523
3.44979	0.523
3.48465	0.567
3.5195	0.656
3.55435	0.71
3.5892	0.744
3.62405	0.775
3.65891	0.806
3.69376	0.835
3.72861	0.85
3.76346	0.857
3.79832	0.864
3.83317	0.871
3.86802	0.878
3.90287	0.881
3.93772	0.885
3.97258	0.885
4.00743	0.883
4.04228	0.881
4.07713	0.886
4.11199	0.891
4.14684	0.891
4.18169	0.891
4.21654	0.895
4.25139	0.897
4.28625	0.902
4.3211	0.905
4.35595	0.909
4.3908	0.909
4.42566	0.907
4.46051	0.903
4.49536	0.9
4.53021	0.9
4.56506	0.9
4.59992	0.902
4.63477	0.898
4.66962	0.893
4.70447	0.89
4.73933	0.886
4.77418	0.881
4.80903	0.885
4.84388	0.888
4.87873	0.89
4.91359	0.891
4.94844	0.891
4.98329	0.89
5.01814	0.881
5.053	0.859
5.08785	0.852
5.1227	0.855
5.15755	0.869
5.1924	0.866
5.22726	0.85
5.26211	0.843
5.29696	0.849
5.33181	0.857
5.36667	0.866
5.40152	0.866
5.43637	0.854
5.47122	0.843
5.50607	0.854
5.54093	0.866
5.57578	0.871
5.61063	0.864
5.64548	0.85
5.68034	0.85
5.71519	0.859
5.75004	0.864
5.78489	0.867
5.81974	0.866
5.8546	0.861
5.88945	0.843
5.9243	0.835
5.95915	0.835
5.99401	0.828
6.02886	0.811
6.06371	0.773
6.09856	0.732
6.13341	0.684
6.16827	0.703
6.20312	0.759
6.23797	0.792
6.27282	0.813
6.30768	0.778
6.34253	0.783
6.37738	0.807
6.41223	0.821
6.44708	0.809
6.48194	0.809
6.51679	0.821
6.55164	0.818
6.58649	0.806
6.62135	0.766
6.6562	0.691
6.69105	0.554
6.7259	0.71
6.76075	0.723
6.79561	0.699
6.83046	0.648
6.86531	0.605
6.90016	0.516
6.93502	0.409
6.96987	0.492
7.00472	0.509
7.03957	0.576
7.07442	0.624
7.10928	0.648
7.14413	0.656
7.17898	0.674
7.21383	0.679
7.24869	0.679
7.28354	0.663
7.31839	0.62
7.35324	0.548
7.38809	0.552
7.42295	0.668
7.4578	0.708
7.49265	0.713
7.5275	0.706
7.56236	0.555
7.59721	0.401
7.63206	0.367
7.66691	0.444
7.70177	0.504
7.73662	0.528
7.77147	0.523
7.80632	0.488
7.84117	0.428
7.87603	0.432
7.91088	0.516
7.94573	0.646
7.98058	0.691
8.01544	0.694
8.05029	0.692
8.08514	0.682
8.11999	0.662
8.15484	0.648
8.1897	0.651
8.22455	0.667
8.2594	0.67
8.29425	0.686
8.32911	0.732
8.36396	0.761
8.39881	0.78
8.43366	0.782
8.46851	0.766
8.50337	0.734
8.53822	0.737
8.57307	0.787
8.60792	0.794
8.64278	0.787
8.67763	0.78
8.71248	0.785
8.74733	0.79
8.78218	0.789
8.81704	0.777
8.85189	0.759
8.88674	0.732
8.92159	0.72
8.95645	0.72
8.9913	0.711
9.02615	0.706
9.061	0.706
9.09585	0.732
9.13071	0.747
9.16556	0.746
9.20041	0.746
9.23526	0.765
9.27012	0.754
9.30497	0.711
9.33982	0.698
9.37467	0.703
9.40952	0.658
9.44438	0.631
9.47923	0.651
9.51408	0.66
9.54893	0.629
9.58379	0.56
9.61864	0.437
9.65349	0.259
9.68834	0.391
9.72319	0.514
9.75805	0.608
9.7929	0.656
9.82775	0.677
9.8626	0.65
9.89746	0.614
9.93231	0.574
9.96716	0.518
10.002	0.506
10.0369	0.43
10.0717	0.337
10.1066	0.337
10.1414	0.463
10.1763	0.579
10.2111	0.668
10.246	0.679
10.2808	0.682
10.3157	0.674
10.3505	0.636
10.3854	0.586
10.4202	0.567
10.4551	0.48
10.4899	0.435
10.5248	0.358
10.5596	0.289
10.5945	0.262
10.6294	0.25
10.6642	0.264
10.6991	0.291
10.7339	0.334
10.7688	0.365
10.8036	0.389
10.8385	0.392
10.8733	0.375
10.9082	0.329
10.943	0.296
10.9779	0.303
11.0127	0.298
11.0476	0.277
11.0824	0.267
11.1173	0.277
11.1521	0.296
11.187	0.324
11.2218	0.356
11.2567	0.385
11.2915	0.399
11.3264	0.413
11.3612	0.428
11.3961	0.439
11.431	0.449
11.4658	0.454
11.5007	0.466
11.5355	0.48
11.5704	0.499
11.6052	0.507
11.6401	0.555
11.6749	0.586
11.7098	0.615
11.7446	0.639
11.7795	0.656
11.8143	0.668
11.8492	0.675
11.884	0.687
11.9189	0.696
11.9537	0.698
11.9886	0.696
12.0234	0.686
12.0583	0.675
12.0931	0.662
12.128	0.632
12.1628	0.59
12.1977	0.571
12.2326	0.579
12.2674	0.608
12.3023	0.641
12.3371	0.658
12.372	0.668
12.4068	0.679
12.4417	0.687
12.4765	0.694
12.5114	0.704
12.5462	0.713
12.5811	0.722
12.6159	0.734
12.6508	0.742
12.6856	0.753
12.7205	0.761
12.7553	0.768
12.7902	0.775
12.825	0.778
12.8599	0.787
12.8947	0.799
12.9296	0.807
12.9645	0.813
12.9993	0.825
13.0342	0.842
13.069	0.854
13.1039	0.862
13.1387	0.869
13.1736	0.89
13.2084	0.905
13.2433	0.91
13.2781	0.912
13.313	0.922
13.3478	0.931
13.3827	0.938
13.4175	0.948
13.4524	0.951
13.4872	0.96
13.5221	0.969
13.5569	0.97
13.5918	0.972
13.6266	0.979
13.6615	0.979
13.6963	0.981
13.7312	0.986
13.7661	0.982
13.8009	0.974
13.8358	0.974
13.8706	0.951
13.9055	0.939
13.9403	0.919
13.9752	0.871
14.01	0.816
14.0449	0.753
14.0797	0.691
14.1146	0.6
14.1494	0.531
14.1843	0.435
14.2191	0.349
14.254	0.265
14.2888	0.181
14.3237	0.144
14.3585	0.133
14.3934	0.138
14.4282	0.19
14.4631	0.308
14.4979	0.38
14.5328	0.488
14.5677	0.538
14.6025	0.581
14.6374	0.605
14.6722	0.62
14.7071	0.641
14.7419	0.66
14.7768	0.677
14.8116	0.692
14.8465	0.701
14.8813	0.708
14.9162	0.715
14.951	0.72
14.9859	0.722
15.0207	0.723
15.0556	0.725
15.0904	0.713
15.1253	0.644
15.1601	0.569
15.195	0.518
15.2298	0.504
15.2647	0.518
15.2996	0.538
15.3344	0.572
15.3693	0.581
15.4041	0.588
15.439	0.598
