Infrared Spectrum: 2,3,3-Trimethyl-1,4-pentadiene
Formula: C 8 H 14
CAS: 756-02-5
State: gas
Instrument: HP-GC/MS/IRD
Origin: NIST Mass Spectrometry Data Center
1/CM	ABSORBANCE
550	0.0012192
562	0.0005088
574	0.0004872
586	0.0003936
598	0.0003288
610	0.00015
622	0.0002436
634	0.000234
646	0.0004296
658	0.0004692
670	0.0004116
682	0.000546
694	0.00048
706	0.0004464
718	0.0003924
730	0.00024
742	0.0001104
754	4.44e-05
766	0.0001248
778	1.92e-05
790	3.72e-05
802	0.0001296
814	0.0001848
826	0.00027
838	0.0003888
850	0.000396
862	0.0004944
874	0.00117
886	0.0028008
898	0.0048492
910	0.0050328
922	0.003504
934	0.0015336
946	0.0007212
958	0.0005556
970	0.0005556
982	0.0007632
994	0.0012624
1006	0.0013884
1018	0.0008532
1030	0.0004992
1042	0.0005316
1054	0.0004224
1066	0.0002304
1078	0.0001212
1090	0.0001812
1102	0.0002268
1114	0.0002532
1126	0.0005184
1138	0.0009636
1150	0.0017568
1162	0.0018024
1174	0.0011244
1186	0.0005676
1198	0.0004476
1210	0.0004308
1222	0.0004008
1234	0.0002556
1246	0.0002004
1258	0.0002028
1270	0.000174
1282	0.0001884
1294	0.00018
1306	0.0002028
1318	0.0002436
1330	0.0003084
1342	0.0004728
1354	0.0009444
1366	0.0019812
1378	0.0026256
1390	0.0020328
1402	0.0013776
1414	0.0013776
1426	0.0012996
1438	0.0013896
1450	0.0018636
1462	0.0020604
1474	0.0016188
1486	0.0009276
1498	0.0004848
1510	0.0003384
1522	0.0002436
1534	0.0002136
1546	0.0002076
1558	0.0002268
1570	0.000324
1582	0.000408
1594	0.0006228
1606	0.0009276
1618	0.001644
1630	0.0026268
1642	0.0024324
1654	0.0010752
1666	0.000396
1678	0.0002292
1690	0.0001776
1702	0.0001668
1714	0.0001452
1726	0.0001128
1738	0.0001224
1750	0.0001164
1762	0.0001608
1774	0.0001788
1786	0.0002724
1798	0.0003408
1810	0.0003492
1822	0.0003828
1834	0.0004056
1846	0.0002772
1858	0.0001596
1870	0.0001104
1882	8.76e-05
1894	6.96e-05
1906	0.0001116
1918	7.44e-05
1930	6.24e-05
1942	5.52e-05
1954	9.48e-05
1966	7.92e-05
1978	8.04e-05
1990	0.000102
2002	7.8e-05
2014	6.96e-05
2026	7.92e-05
2038	7.68e-05
2050	9e-05
2062	6.36e-05
2074	6.12e-05
2086	7.32e-05
2098	4.56e-05
2110	6.24e-05
2122	4.32e-05
2134	4.92e-05
2146	2.88e-05
2158	3.84e-05
2170	6.6e-05
2182	5.16e-05
2194	3.72e-05
2206	4.68e-05
2218	4.68e-05
2230	5.64e-05
2242	4.8e-05
2254	5.28e-05
2266	4.56e-05
2278	3.12e-05
2290	6.72e-05
2302	4.44e-05
2314	6.12e-05
2326	3.48e-05
2338	1.56e-05
2350	3.12e-05
2362	1.8e-05
2374	2.76e-05
2386	7.2e-05
2398	5.04e-05
2410	1.8e-05
2422	6e-05
2434	1.56e-05
2446	3.48e-05
2458	4.56e-05
2470	4.8e-05
2482	3.48e-05
2494	1.56e-05
2506	3.72e-05
2518	3.6e-05
2530	5.64e-05
2542	1.92e-05
2554	2.64e-05
2566	1.2e-05
2578	3.36e-05
2590	4.8e-05
2602	5.04e-05
2614	5.16e-05
2626	5.16e-05
2638	4.08e-05
2650	1.92e-05
2662	2.4e-05
2674	7.2e-05
2686	6.72e-05
2698	7.56e-05
2710	8.16e-05
2722	0.0001488
2734	0.0001548
2746	8.28e-05
2758	8.64e-05
2770	0.0001452
2782	0.0001224
2794	0.0001344
2806	0.0002076
2818	0.0002484
2830	0.0003528
2842	0.0004992
2854	0.0007992
2866	0.0015
2878	0.0024216
2890	0.0027444
2902	0.0027276
2914	0.0031668
2926	0.004092
2938	0.0048888
2950	0.005382
2962	0.008334
2974	0.012
2986	0.0101376
2998	0.0052824
3010	0.00321
3022	0.0021312
3034	0.0013068
3046	0.001044
3058	0.0010752
3070	0.0015312
3082	0.0025488
3094	0.0030672
3106	0.0018348
3118	0.000606
3130	0.0002904
3142	0.0001932
3154	0.0001728
3166	0.000162
3178	0.000174
3190	0.00015
3202	0.000138
3214	0.0001548
3226	0.0001656
3238	0.0001524
3250	0.000156
3262	0.0001224
3274	0.0001116
3286	0.000132
3298	7.32e-05
3310	7.32e-05
3322	0.0001236
3334	8.16e-05
3346	0.0001296
3358	7.08e-05
3370	5.52e-05
3382	6.36e-05
3394	0.0001092
3406	0.0001212
3418	8.4e-05
3430	0.0001224
3442	9.12e-05
3454	4.08e-05
3466	7.56e-05
3478	3.6e-05
3490	0.0001116
3502	0.0001212
3514	0.0001284
3526	7.44e-05
3538	9.6e-05
3550	8.52e-05
3562	9.48e-05
3574	0.0001092
3586	8.4e-05
3598	0.000132
3610	0.0001128
3622	7.8e-05
3634	8.64e-05
3646	5.16e-05
3658	7.32e-05
3670	0.0001128
3682	5.16e-05
3694	2.28e-05
3706	6.36e-05
3718	0.000114
3730	6.24e-05
3742	4.56e-05
3754	8.88e-05
3766	1.8e-05
3778	9.72e-05
3790	4.32e-05
3802	6.36e-05
3814	2.16e-05
3826	0.000126
3838	5.04e-05
