Infrared Spectrum: PHOSPHONIC ACID, METHYL-, DIMETHYL ESTER
Formula: C3 H9 O3 P
CAS: 756-79-6
State: GAS (3.5 mL VAPORIZED AT 100 C)
Class: COBLENTZ
Instrument: BECKMAN IR-9 (GRATING)
Instrument parameters: ORDER CHANGES AT 670, 1200, 2000 CM^-^1
Sampling: TRANSMISSION
Path length: 7 CM CELL
Resolution: 4
Origin: DOW CHEMICAL COMPANY
1/CM	TRANSMITTANCE
402.792	0.775
411.675	0.718
420.559	0.676
429.442	0.679
438.325	0.722
447.208	0.776
456.092	0.809
464.975	0.831
473.858	0.838
482.741	0.831
491.625	0.793
500.508	0.758
509.391	0.78
518.275	0.858
527.158	0.926
536.041	0.958
544.924	0.966
553.808	0.973
562.691	0.98
571.574	0.986
580.458	0.987
589.341	0.993
598.224	0.997
607.107	0.997
615.991	1.001
624.874	1.002
633.757	1.005
642.64	1.006
651.524	1.011
660.407	1.011
669.29	1.002
678.174	1.036
687.057	1.047
695.94	1.018
704.823	0.963
713.707	0.881
722.59	0.909
731.473	0.936
740.356	1.002
749.24	1.005
758.123	0.994
767.006	0.975
775.89	0.901
784.773	0.741
793.656	0.634
802.539	0.581
811.423	0.53
820.306	0.512
829.189	0.705
838.073	0.933
846.956	0.975
855.839	0.972
864.722	0.963
873.606	0.948
882.489	0.891
891.372	0.805
900.255	0.669
909.139	0.47
918.022	0.44
926.905	0.558
935.789	0.83
944.672	0.927
953.555	0.94
962.438	0.941
971.322	0.944
980.205	0.934
989.088	0.926
997.971	0.92
1006.85	0.915
1015.74	0.89
1024.62	0.806
1033.5	0.4629
1042.39	0.148
1051.27	0.075
1060.15	0.087
1069.04	0.211
1077.92	0.225
1086.8	0.33
1095.69	0.59
1104.57	0.725
1113.45	0.775
1122.34	0.802
1131.22	0.825
1140.1	0.855
1148.99	0.879
1157.87	0.891
1166.75	0.884
1175.64	0.85
1184.52	0.787
1193.4	0.762
1202.29	0.811
1211.17	0.851
1220.05	0.873
1228.94	0.879
1237.82	0.877
1246.7	0.858
1255.59	0.727
1264.47	0.475
1273.35	0.3199
1282.24	0.427
1291.12	0.545
1300	0.68
1308.89	0.62
1317.77	0.57
1326.65	0.695
1335.54	0.866
1344.42	0.936
1353.3	0.948
1362.19	0.951
1371.07	0.947
1379.95	0.943
1388.84	0.931
1397.72	0.94
1406.6	0.937
1415.49	0.922
1424.37	0.913
1433.25	0.922
1442.14	0.925
1451.02	0.918
1459.9	0.904
1468.79	0.89
1477.67	0.895
1486.55	0.909
1495.43	0.926
1504.32	0.934
1513.2	0.941
1522.08	0.947
1530.97	0.943
1539.85	0.944
1548.73	0.947
1557.62	0.947
1566.5	0.951
1575.38	0.956
1584.27	0.955
1593.15	0.959
1602.03	0.961
1610.92	0.958
1619.8	0.962
1628.68	0.952
1637.57	0.966
1646.45	0.962
1655.33	0.972
1664.22	0.969
1673.1	0.966
1681.98	0.969
1690.87	0.97
1699.75	0.97
1708.63	0.969
1717.52	0.969
1726.4	0.968
1735.28	0.968
1744.17	0.963
1753.05	0.959
1761.93	0.954
1770.82	0.95
1779.7	0.952
1788.58	0.955
1797.47	0.956
1806.35	0.959
1815.23	0.959
1824.12	0.959
1833	0.958
1841.88	0.955
1850.77	0.954
1859.65	0.947
1868.53	0.95
1877.42	0.954
1886.3	0.959
1895.18	0.961
1904.07	0.961
1912.95	0.962
1921.83	0.965
1930.72	0.965
1939.6	0.963
1948.48	0.963
1957.37	0.962
1966.25	0.961
1975.13	0.959
1984.02	0.959
1992.9	0.959
2001.78	0.958
2010.66	0.958
2019.55	0.958
2028.43	0.956
2037.31	0.956
2046.2	0.956
2055.08	0.956
2063.96	0.955
2072.85	0.954
2081.73	0.952
2090.61	0.95
2099.5	0.947
2108.38	0.945
2117.26	0.9439
2126.15	0.943
2135.03	0.944
2143.91	0.9441
2152.8	0.947
2161.68	0.951
2170.56	0.951
2179.45	0.9511
2188.33	0.952
2197.21	0.951
2206.1	0.95
2214.98	0.9479
2223.86	0.9471
2232.75	0.948
2241.63	0.948
2250.51	0.945
2259.4	0.947
2268.28	0.948
2277.16	0.948
2286.05	0.948
2294.93	0.95
2303.81	0.95
2312.7	0.951
2321.58	0.954
2330.46	0.955
2339.35	0.955
2348.23	0.952
2357.11	0.955
2366	0.955
2374.88	0.9552
2383.76	0.959
2392.65	0.9496
2401.53	0.944
2410.41	0.943
2419.3	0.943
2428.18	0.944
2437.06	0.9438
2445.95	0.941
2454.83	0.94
2463.71	0.943
2472.6	0.941
2481.48	0.941
2490.36	0.9432
2499.25	0.944
2508.13	0.944
2517.01	0.943
2525.89	0.941
2534.78	0.94
2543.66	0.94
2552.54	0.94
2561.43	0.941
2570.31	0.943
2579.19	0.943
2588.08	0.941
2596.96	0.9407
2605.84	0.938
2614.73	0.937
2623.61	0.937
2632.49	0.938
2641.38	0.937
2650.26	0.937
2659.14	0.938
2668.03	0.941
2676.91	0.936
2685.79	0.943
2694.68	0.94
2703.56	0.94
2712.44	0.9393
2721.33	0.937
2730.21	0.9373
2739.09	0.94
2747.98	0.9374
2756.86	0.9393
2765.74	0.9376
2774.63	0.937
2783.51	0.937
2792.39	0.937
2801.28	0.9352
2810.16	0.9322
2819.04	0.93
2827.93	0.926
2836.81	0.9226
2845.69	0.9004
2854.58	0.8379
2863.46	0.7836
2872.34	0.7979
2881.23	0.8618
2890.11	0.8874
2898.99	0.888
2907.88	0.8796
2916.76	0.8671
2925.64	0.8506
2934.53	0.845
2943.41	0.8387
2952.29	0.7315
2961.18	0.6536
2970.06	0.6265
2978.94	0.6917
2987.83	0.7743
2996.71	0.784
3005.59	0.784
3014.48	0.784
3023.36	0.787
3032.24	0.8149
3041.12	0.8514
3050.01	0.8725
3058.89	0.88
3067.77	0.882
3076.66	0.8865
3085.54	0.8905
3094.42	0.8975
3103.31	0.9066
3112.19	0.912
3121.07	0.9195
3129.96	0.9225
3138.84	0.9255
3147.72	0.927
3156.61	0.929
3165.49	0.93
3174.37	0.931
3183.26	0.931
3192.14	0.931
3201.02	0.93
3209.91	0.93
3218.79	0.93
3227.67	0.93
3236.56	0.93
3245.44	0.93
3254.32	0.93
3263.21	0.93
3272.09	0.9294
3280.97	0.929
3289.86	0.929
3298.74	0.927
3307.62	0.927
3316.51	0.926
3325.39	0.926
3334.27	0.926
3343.16	0.926
3352.04	0.926
3360.92	0.926
3369.81	0.926
3378.69	0.926
3387.57	0.926
3396.46	0.926
3405.34	0.926
3414.22	0.927
3423.11	0.927
3431.99	0.927
3440.87	0.927
3449.76	0.927
3458.64	0.927
3467.52	0.927
3476.41	0.929
3485.29	0.929
3494.17	0.929
3503.06	0.929
3511.94	0.929
3520.82	0.929
3529.71	0.93
3538.59	0.93
3547.47	0.93
3556.35	0.93
3565.24	0.93
3574.12	0.93
3583	0.93
3591.89	0.93
3600.77	0.93
3609.65	0.93
3618.54	0.93
3627.42	0.93
3636.3	0.931
3645.19	0.931
3654.07	0.931
3662.95	0.931
3671.84	0.931
3680.72	0.931
3689.6	0.931
3698.49	0.931
3707.37	0.931
3716.25	0.9302
3725.14	0.93
3734.02	0.933
3742.9	0.93
3751.79	0.929
3760.67	0.929
3769.55	0.927
3778.44	0.927
3787.32	0.929
3796.2	0.929
