Infrared Spectrum: CARBAMIC ACID, 2,2,3,3-TETRAFLUORO-1-METHYLPROPYL ESTER
Formula: C5 H7 F4 N O2
CAS: 756-48-9
State: SOLID (SPLIT MULL), FLUOROLUBE FOR 3800-1330 CM^-^1, NUJOL FOR 1330-400 CM^-^1
Class: COBLENTZ III
Instrument: DOW KBr FOREPRISM-GRATING
Instrument parameters: BLAZED AT 3.5, 12.0, 20.0 MICRON AND CHANGED AT 5.0, 7.5, 14.9 MICRON
Sampling: TRANSMISSION
Resolution: 2
Origin: DOW CHEMICAL COMPANY
1/CM	TRANSMITTANCE
381	0.8515
390	0.8478
399	0.8485
408	0.8454
417	0.8406
426	0.8453
435	0.849
444	0.8407
453	0.7812
462	0.8284
471	0.8637
480	0.8682
489	0.8628
498	0.8685
507	0.8617
516	0.8457
525	0.8216
534	0.8111
543	0.8032
552	0.7669
561	0.7619
570	0.6334
579	0.5772
588	0.6635
597	0.6818
606	0.7375
615	0.7932
624	0.8455
633	0.8656
642	0.8834
651	0.8484
660	0.8583
669	0.876
678	0.8868
687	0.8686
696	0.8989
705	0.903
714	0.8628
723	0.8901
732	0.8815
741	0.6397
750	0.9102
759	0.9403
768	0.9249
777	0.7615
786	0.9125
795	0.9543
804	0.9568
813	0.9409
822	0.8535
831	0.7845
840	0.9493
849	0.9524
858	0.9409
867	0.8925
876	0.9505
885	0.9508
894	0.9547
903	0.9531
912	0.9486
921	0.9436
930	0.9392
939	0.9301
948	0.9193
957	0.8984
966	0.8309
975	0.814
984	0.4302
993	0.7905
1002	0.8332
1011	0.7893
1020	0.5356
1029	0.8019
1038	0.7982
1047	0.6675
1056	0.6278
1065	0.7325
1074	0.6556
1083	0.5329
1092	0.1893
1101	0.2072
1110	0.2245
1119	0.4024
1128	0.4059
1137	0.3025
1146	0.3606
1155	0.6478
1164	0.7188
1173	0.7455
1182	0.7478
1191	0.716
1200	0.6967
1209	0.6568
1218	0.4651
1227	0.6605
1236	0.6495
1245	0.4696
1254	0.5893
1263	0.7628
1272	0.7924
1281	0.8025
1290	0.7926
1299	0.7718
1308	0.7396
1317	0.6073
1326	0.6768
1335	0.8026
1344	0.7806
1353	0.7897
1362	0.7732
1371	0.7089
1380	0.5567
1389	0.4603
1398	0.4355
1407	0.5775
1416	0.6878
1425	0.7658
1434	0.7957
1443	0.7897
1452	0.7282
1461	0.8032
1470	0.8674
1479	0.8778
1488	0.8797
1497	0.8785
1506	0.883
1515	0.889
1524	0.8931
1533	0.8937
1542	0.8918
1551	0.8881
1560	0.8849
1569	0.8809
1578	0.8702
1587	0.8536
1596	0.8011
1605	0.5052
1614	0.6661
1623	0.8204
1632	0.839
1641	0.8392
1650	0.8286
1659	0.7993
1668	0.7286
1677	0.7
1686	0.6293
1695	0.4514
1704	0.1092
1713	0.0729
1722	0.3949
1731	0.588
1740	0.7453
1749	0.8054
1758	0.8357
1767	0.8547
1776	0.8647
1785	0.8713
1794	0.8749
1803	0.8775
1812	0.8792
1821	0.8798
1830	0.8797
1839	0.8785
1848	0.8777
1857	0.8791
1866	0.8832
1875	0.8864
1884	0.8874
1893	0.8865
1902	0.8842
1911	0.8809
1920	0.8783
1929	0.882
1938	0.8886
1947	0.8878
1956	0.8988
1965	0.8778
1974	0.874
1983	0.8784
1992	0.8823
2001	0.8902
2010	0.8907
2019	0.8912
2028	0.892
2037	0.8917
2046	0.8914
2055	0.891
2064	0.8907
2073	0.8905
2082	0.8902
2091	0.8897
2100	0.8898
2109	0.8898
2118	0.8895
2127	0.8892
2136	0.8889
2145	0.8877
2154	0.8862
2163	0.8848
2172	0.8832
2181	0.8812
2190	0.8809
2199	0.8813
2208	0.8816
2217	0.8802
2226	0.8788
2235	0.8775
2244	0.8763
2253	0.8762
2262	0.8771
2271	0.8771
2280	0.8775
2289	0.873
2298	0.8873
2307	0.8742
2316	0.8821
2325	0.8865
2334	0.8884
2343	0.8821
2352	0.9024
2361	0.8951
2370	0.8885
2379	0.8851
2388	0.885
2397	0.8852
2406	0.8859
2415	0.8868
2424	0.888
2433	0.8893
2442	0.8906
2451	0.8913
2460	0.8918
2469	0.892
2478	0.8917
2487	0.8914
2496	0.8918
2505	0.8921
2514	0.8933
2523	0.8945
2532	0.8951
2541	0.8962
2550	0.8973
2559	0.8974
2568	0.8975
2577	0.8975
2586	0.8974
2595	0.8973
2604	0.897
2613	0.8966
2622	0.8963
2631	0.8963
2640	0.8963
2649	0.896
2658	0.8952
2667	0.894
2676	0.8925
2685	0.8912
2694	0.8906
2703	0.8902
2712	0.8901
2721	0.8897
2730	0.8894
2739	0.8892
2748	0.8892
2757	0.8892
2766	0.8891
2775	0.889
2784	0.8888
2793	0.8881
2802	0.8859
2811	0.8823
2820	0.8809
2829	0.8811
2838	0.8816
2847	0.8812
2856	0.881
2865	0.8808
2874	0.8809
2883	0.8821
2892	0.883
2901	0.8818
2910	0.8798
2919	0.8773
2928	0.8754
2937	0.8728
2946	0.8664
2955	0.8665
2964	0.8568
2973	0.8641
2982	0.87
2991	0.8275
3000	0.8461
3009	0.8555
3018	0.8791
3027	0.8859
3036	0.8864
3045	0.8865
3054	0.8863
3063	0.8858
3072	0.8854
3081	0.8851
3090	0.8843
3099	0.8821
3108	0.8796
3117	0.8773
3126	0.8759
3135	0.8753
3144	0.8731
3153	0.8673
3162	0.8604
3171	0.8515
3180	0.8396
3189	0.8191
3198	0.7922
3207	0.709
3216	0.6014
3225	0.6812
3234	0.785
3243	0.7972
3252	0.796
3261	0.781
3270	0.7443
3279	0.6858
3288	0.6138
3297	0.5818
3306	0.7126
3315	0.7168
3324	0.6817
3333	0.6475
3342	0.6151
3351	0.5751
3360	0.6358
3369	0.6507
3378	0.6505
3387	0.6474
3396	0.632
3405	0.5952
3414	0.5333
3423	0.4772
3432	0.3798
3441	0.3741
3450	0.434
3459	0.6071
3468	0.7086
3477	0.7756
3486	0.8214
3495	0.8497
3504	0.864
3513	0.8718
3522	0.8778
3531	0.8818
3540	0.8856
3549	0.8893
3558	0.8928
3567	0.8959
3576	0.8981
3585	0.8994
3594	0.9011
3603	0.9027
3612	0.9037
3621	0.9042
3630	0.9048
3639	0.9056
3648	0.9064
3657	0.9067
3666	0.9067
3675	0.9066
3684	0.9052
3693	0.9021
3702	0.9073
3711	0.9099
3720	0.9101
3729	0.9102
3738	0.9105
3747	0.9108
3756	0.9105
3765	0.91
3774	0.9095
3783	0.909
