Infrared Spectrum: VINYL DICHLORO ACETATE
Formula: C4 H4 Cl2 O2
CAS: 7561-04-8
State: SOLUTION (10% CCl4 FOR 5000-1330, 10% CS2 FOR 1330-625 CM^-^1)
Class: COBLENTZ
Instrument: Not specified, most likely a prism, grating, or hybrid spectrometer.
Sampling: TRANSMISSION
Path length: 0.0122 CM, 0.0115 CM
Resolution: 4
Origin: DOW CHEMICAL COMPANY
MICROMETERS	TRANSMITTANCE
2.027	0.903
2.06808	0.903
2.10916	0.904
2.15023	0.901
2.19131	0.898
2.23239	0.899
2.27347	0.899
2.31454	0.894
2.35562	0.901
2.3967	0.911
2.43778	0.913
2.47886	0.91
2.51993	0.91
2.56101	0.916
2.60209	0.913
2.64317	0.913
2.68425	0.916
2.72532	0.915
2.7664	0.903
2.80748	0.882
2.84856	0.901
2.88963	0.911
2.93071	0.913
2.97179	0.908
3.01287	0.91
3.05395	0.91
3.09502	0.903
3.1361	0.893
3.17718	0.86
3.21826	0.809
3.25934	0.872
3.30041	0.826
3.34149	0.877
3.38257	0.893
3.42365	0.904
3.46472	0.91
3.5058	0.918
3.54688	0.92
3.58796	0.918
3.62904	0.92
3.67011	0.926
3.71119	0.92
3.75227	0.925
3.79335	0.928
3.83443	0.921
3.8755	0.928
3.91658	0.921
3.95766	0.913
3.99874	0.926
4.03981	0.921
4.08089	0.908
4.12197	0.915
4.16305	0.926
4.20413	0.923
4.2452	0.918
4.28628	0.904
4.32736	0.893
4.36844	0.889
4.40952	0.91
4.45059	0.925
4.49167	0.94
4.53275	0.942
4.57383	0.923
4.6149	0.926
4.65598	0.926
4.69706	0.91
4.73814	0.906
4.77922	0.923
4.82029	0.928
4.86137	0.913
4.90245	0.884
4.94353	0.913
4.98461	0.911
5.02568	0.92
5.06676	0.923
5.10784	0.93
5.14892	0.923
5.18999	0.925
5.23107	0.915
5.27215	0.899
5.31323	0.862
5.35431	0.847
5.39538	0.87
5.43646	0.847
5.47754	0.796
5.51862	0.719
5.5597	0.414
5.60077	0.076
5.64185	0.073
5.68293	0.059
5.72401	0.432
5.76508	0.668
5.80616	0.741
5.84724	0.828
5.88832	0.853
5.9294	0.859
5.97047	0.791
6.01155	0.585
6.05263	0.285
6.09371	0.602
6.13479	0.764
6.17586	0.786
6.21694	0.75
6.25802	0.672
6.2991	0.614
6.34017	0.585
6.38125	0.536
6.42233	0.48
6.46341	0.495
6.50449	0.606
6.54556	0.658
6.58664	0.711
6.62772	0.779
6.6688	0.831
6.70988	0.872
6.75095	0.881
6.79203	0.886
6.83311	0.891
6.87419	0.898
6.91526	0.889
6.95634	0.881
6.99742	0.874
7.0385	0.842
7.07958	0.828
7.12065	0.85
7.16173	0.843
7.20281	0.803
7.24389	0.828
7.28497	0.872
7.32604	0.874
7.36712	0.865
7.4082	0.833
7.44928	0.782
7.49035	0.755
7.53143	0.68
7.57251	0.482
7.61359	0.292
7.65467	0.101
7.69574	0.081
7.73682	0.151
7.7779	0.083
7.81898	0.137
7.86006	0.152
7.90113	0.061
7.94221	0.028
7.98329	0.146
8.02437	0.224
8.06544	0.178
8.10652	0.152
8.1476	0.263
8.18868	0.332
8.22976	0.349
8.27083	0.395
8.31191	0.466
8.35299	0.49
8.39407	0.465
8.43515	0.39
8.47622	0.269
8.5173	0.154
8.55838	0.056
8.59946	0.018
8.64053	0.008
8.68161	0.01
8.72269	0.045
8.76377	0.13
8.80485	0.203
8.84592	0.181
8.887	0.096
8.92808	0.081
8.96916	0.29
9.01024	0.451
9.05131	0.614
9.09239	0.699
9.13347	0.767
9.17455	0.801
9.21562	0.823
9.2567	0.833
9.29778	0.838
9.33886	0.847
9.37994	0.857
9.42101	0.86
9.46209	0.862
9.50317	0.865
9.54425	0.869
9.58533	0.867
9.6264	0.867
9.66748	0.864
9.70856	0.855
9.74964	0.84
9.79071	0.828
9.83179	0.804
9.87287	0.767
9.91395	0.702
9.95503	0.573
9.9961	0.434
10.0372	0.305
10.0783	0.305
10.1193	0.283
10.1604	0.232
10.2015	0.327
10.2426	0.531
10.2836	0.667
10.3247	0.721
10.3658	0.748
10.4069	0.752
10.448	0.731
10.489	0.692
10.5301	0.602
10.5712	0.482
10.6123	0.244
10.6533	0.105
10.6944	0.224
10.7355	0.471
10.7766	0.634
10.8177	0.699
10.8587	0.728
10.8998	0.75
10.9409	0.758
10.982	0.758
11.0231	0.752
11.0641	0.738
11.1052	0.704
11.1463	0.646
11.1874	0.555
11.2284	0.471
11.2695	0.293
11.3106	0.151
11.3517	0.103
11.3928	0.196
11.4338	0.359
11.4749	0.483
11.516	0.551
11.5571	0.584
11.5981	0.601
11.6392	0.612
11.6803	0.619
11.7214	0.624
11.7625	0.645
11.8035	0.665
11.8446	0.684
11.8857	0.694
11.9268	0.694
11.9678	0.672
12.0089	0.645
12.05	0.604
12.0911	0.544
12.1322	0.477
12.1732	0.392
12.2143	0.247
12.2554	0.147
12.2965	0.079
12.3375	0.074
12.3786	0.173
12.4197	0.308
12.4608	0.402
12.5019	0.492
12.5429	0.534
12.584	0.56
12.6251	0.575
12.6662	0.584
12.7072	0.575
12.7483	0.556
12.7894	0.533
12.8305	0.502
12.8716	0.488
12.9126	0.483
12.9537	0.495
12.9948	0.521
13.0359	0.55
13.0769	0.57
13.118	0.585
13.1591	0.597
13.2002	0.602
13.2413	0.606
13.2823	0.601
13.3234	0.59
13.3645	0.575
13.4056	0.558
13.4466	0.538
13.4877	0.521
13.5288	0.509
13.5699	0.504
13.611	0.507
13.652	0.514
13.6931	0.522
13.7342	0.534
13.7753	0.539
13.8163	0.543
13.8574	0.543
13.8985	0.539
13.9396	0.533
13.9807	0.524
14.0217	0.514
14.0628	0.502
14.1039	0.492
14.145	0.487
14.186	0.482
14.2271	0.48
14.2682	0.48
14.3093	0.477
14.3504	0.466
14.3914	0.46
14.4325	0.441
14.4736	0.426
14.5147	0.407
14.5557	0.388
14.5968	0.366
14.6379	0.341
14.679	0.322
14.7201	0.307
14.7611	0.297
14.8022	0.288
14.8433	0.283
14.8844	0.276
14.9254	0.269
14.9665	0.273
15.0076	0.281
15.0487	0.278
15.0898	0.275
15.1308	0.269
15.1719	0.268
15.213	0.266
15.2541	0.261
15.2951	0.261
15.3362	0.261
15.3773	0.259
15.4184	0.261
15.4595	0.263
15.5005	0.266
15.5416	0.268
15.5827	0.271
15.6238	0.271
15.6648	0.271
15.7059	0.271
15.747	0.271
15.7881	0.269
15.8292	0.266
15.8702	0.268
15.9113	0.269
