Infrared Spectrum: N-Pentafluorobenzoylimidazole
Formula: C 10 H 3 F 5 N 2 O
CAS: 75641-06-4
State: gas
Origin: EPA-IR VAPOR PHASE LIBRARY
1/CM	ABSORBANCE
549.8	0.0010192
559.445	0.000302
569.09	0.001676
578.734	0.005106
588.379	0.006066
598.024	0.002566
607.669	0.002896
617.313	0.004136
626.958	0.012676
636.603	0.041296
646.248	0.042606
655.893	0.022416
665.537	0.016196
675.182	0.015896
684.827	0.013106
694.472	0.010116
704.116	0.015966
713.761	0.031506
723.406	0.027326
733.051	0.085776
742.695	0.068626
752.34	0.030686
761.985	0.014566
771.63	0.024356
781.275	0.059626
790.919	0.201456
800.564	0.238856
810.209	0.106136
819.854	0.043886
829.498	0.027126
839.143	0.024956
848.788	0.010126
858.433	0.007676
868.078	0.009066
877.722	0.009266
887.367	0.017936
897.012	0.007776
906.657	0.004516
916.301	0.005416
925.946	0.007026
935.591	0.011416
945.236	0.017456
954.88	0.044756
964.525	0.062266
974.17	0.045776
983.815	0.079526
993.46	0.235176
1003.1	0.301036
1012.75	0.167826
1022.39	0.202166
1032.04	0.114746
1041.68	0.050676
1051.33	0.025696
1060.97	0.035926
1070.62	0.037586
1080.26	0.026866
1089.91	0.086446
1099.55	0.089586
1109.2	0.027936
1118.84	0.039836
1128.49	0.148526
1138.13	0.171076
1147.78	0.037046
1157.42	0.018986
1167.07	0.012296
1176.71	0.011566
1186.36	0.011866
1196	0.016636
1205.64	0.025976
1215.29	0.045426
1224.93	0.115896
1234.58	0.331666
1244.22	0.240566
1253.87	0.046366
1263.51	0.063066
1273.16	0.211866
1282.8	0.330366
1292.45	0.149436
1302.09	0.052306
1311.74	0.072426
1321.38	0.211636
1331.03	0.311036
1340.67	0.052786
1350.32	0.024816
1359.96	0.046846
1369.61	0.194886
1379.25	0.448196
1388.9	0.297386
1398.54	0.088756
1408.18	0.068866
1417.83	0.138656
1427.47	0.146926
1437.12	0.068416
1446.76	0.058706
1456.41	0.069866
1466.05	0.126236
1475.7	0.195516
1485.34	0.291006
1494.99	0.527206
1504.63	0.680966
1514.28	0.566916
1523.92	0.322066
1533.57	0.124656
1543.21	0.048546
1552.86	0.032016
1562.5	0.026886
1572.15	0.021946
1581.79	0.024496
1591.44	0.021986
1601.08	0.022176
1610.73	0.026546
1620.37	0.036186
1630.01	0.038606
1639.66	0.077766
1649.3	0.116006
1658.95	0.042596
1668.59	0.020176
1678.24	0.018426
1687.88	0.020456
1697.53	0.025176
1707.17	0.031846
1716.82	0.041406
1726.46	0.076536
1736.11	0.249496
1745.75	0.480986
1755.4	0.226666
1765.04	0.079936
1774.69	0.035526
1784.33	0.029126
1793.98	0.023126
1803.62	0.015666
1813.27	0.011866
1822.91	0.010556
1832.55	0.007566
1842.2	0.005016
1851.84	0.004086
1861.49	0.004516
1871.13	0.005016
1880.78	0.004026
1890.42	0.002796
1900.07	0.002646
1909.71	0.002986
1919.36	0.004526
1929	0.005126
1938.65	0.003816
1948.29	0.002886
1957.94	0.002896
1967.58	0.003056
1977.23	0.002966
1986.87	0.002586
1996.52	0.002256
2006.16	0.002556
2015.81	0.002666
2025.45	0.002636
2035.1	0.002506
2044.74	0.002776
2054.38	0.002496
2064.03	0.002296
2073.67	0.002766
2083.32	0.003076
2092.96	0.002956
2102.61	0.002696
2112.25	0.002486
2121.9	0.002626
2131.54	0.002306
2141.19	0.002326
2150.83	0.002836
2160.48	0.002136
2170.12	0.002016
2179.77	0.002276
2189.41	0.002116
2199.06	0.0014148
2208.7	0.0015416
2218.35	0.001886
2227.99	0.002516
2237.64	0.002016
2247.28	0.001796
2256.92	0.002256
2266.57	0.002696
2276.21	0.002196
2285.86	0.002006
2295.5	0.002316
2305.15	0.002566
2314.79	0.002086
2324.44	0.002106
2334.08	0.002236
2343.73	0.002436
2353.37	0.002256
2363.02	0.002256
2372.66	0.002666
2382.31	0.002716
2391.95	0.003226
2401.6	0.004026
2411.24	0.004796
2420.89	0.004806
2430.53	0.003826
2440.18	0.002926
2449.82	0.002506
2459.47	0.002836
2469.11	0.003746
2478.75	0.004876
2488.4	0.004166
2498.04	0.003416
2507.69	0.003846
2517.33	0.004676
2526.98	0.004556
2536.62	0.004626
2546.27	0.004456
2555.91	0.004416
2565.56	0.004076
2575.2	0.003546
2584.85	0.003436
2594.49	0.002916
2604.14	0.003236
2613.78	0.003696
2623.43	0.003986
2633.07	0.004236
2642.72	0.005276
2652.36	0.006306
2662.01	0.005736
2671.65	0.004096
2681.29	0.002646
2690.94	0.001766
2700.58	0.001936
2710.23	0.001986
2719.87	0.0016111
2729.52	0.0015077
2739.16	0.002436
2748.81	0.003166
2758.45	0.003366
2768.1	0.002766
2777.74	0.002486
2787.39	0.002156
2797.03	0.001766
2806.68	0.0014527
2816.32	0.001126
2825.97	0.0009578
2835.61	0.0009699
2845.26	0.0009996
2854.9	0.0009125
2864.55	0.0010324
2874.19	0.0013484
2883.84	0.001686
2893.48	0.002016
2903.12	0.001946
2912.77	0.002726
2922.41	0.003416
2932.06	0.003446
2941.7	0.003076
2951.35	0.002036
2960.99	0.001636
2970.64	0.0012954
2980.28	0.0011218
2989.93	0.0010837
2999.57	0.0013278
3009.22	0.0012727
3018.86	0.0013406
3028.51	0.001796
3038.15	0.001836
3047.8	0.001826
3057.44	0.001636
3067.09	0.0008975
3076.73	0.0010209
3086.38	0.0009516
3096.02	0.0007341
3105.67	0.0011526
3115.31	0.002006
3124.95	0.004496
3134.6	0.010146
3144.24	0.006596
3153.89	0.003806
3163.53	0.005636
3173.18	0.004786
3182.82	0.0013363
3192.47	0.0007544
3202.11	0.00065949
3211.76	0.0005952
3221.4	0.00071007
3231.05	0.00068428
3240.69	0.00072013
3250.34	0.000634403
3259.98	0.0006694
3269.63	0.0007074
3279.27	0.000630596
3288.92	0.0008175
3298.56	0.0007349
3308.21	0.000207
3317.85	0.00065224
3327.49	0.00031
3337.14	0.000485
3346.78	0.0005978
3356.43	0.000429
3366.07	0.000498
3375.72	0.00037
3385.36	0.00069013
3395.01	0.0007459
3404.65	0.0007752
3414.3	0.0008034
3423.94	0.0010138
3433.59	0.0012051
3443.23	0.001429
3452.88	0.002436
3462.52	0.004326
3472.17	0.006056
3481.81	0.004126
3491.46	0.002336
3501.1	0.0014919
3510.75	0.0015934
3520.39	0.0009748
3530.04	0.0009507
3539.68	0.000483
3549.32	0.000298
3558.97	0.0005779
3568.61	0.000319
3578.26	0.0005596
3587.9	0.000204
3597.55	0.000458
3607.19	0.000261
3616.84	0.000459
3626.48	0.000425
3636.13	0.000299
3645.77	0.000155
3655.42	0.000526
3665.06	0.000498
3674.71	0.000291
3684.35	0.000304
3694	0.000307
3703.64	1.5e-05
3713.29	0.000258
3722.93	0.000545
3732.58	0.000469
3742.22	0.0005955
3751.86	0.000505
3761.51	0.000475
3771.15	0.000454
3780.8	0.000411
3790.44	0.0005522
3800.09	0.00052
3809.73	0.000524
3819.38	0.000361
3829.02	0.000344
3838.67	0.000282
3848.31	0.000523
3857.96	0.0004
3867.6	0.00068816
3877.25	0.00066886
3886.89	0.0007949
3896.54	0.000145
3906.18	0.000305
3915.83	0.0005425
3925.47	0.000575
3935.12	0.000354
3944.76	0.000382
3954.41	0.000405
3964.05	0.00072209
3973.69	0.000494
3983.34	0.000566
3992.98	0.0005987
