Infrared Spectrum: Tributyl aconitate
Formula: C18 H30 O6
CAS: 7568-58-3
State: SOLUTION (10% CCl4 FOR 2.7-7.5, 10% CS2 FOR 7.5-26 MICRON) VS SOLVENT
Class: COBLENTZ III
Instrument: DOW KBr FOREPRISM-GRATING
Instrument parameters: BLAZED AT 3.5, 12.0, 20.0 MICRON AND CHANGED AT 5.0, 7.5, 14.9 MICRON
Sampling: TRANSMISSION
Path length: 0.011 CM, 0.011 CM
Resolution: 2
Origin: DOW CHEMICAL COMPANY
1/CM	TRANSMITTANCE
3800	0.8531
3791	0.8524
3782	0.8516
3773	0.8508
3764	0.8506
3755	0.8503
3746	0.8502
3737	0.8501
3728	0.85
3719	0.8499
3710	0.8499
3701	0.8498
3692	0.8498
3683	0.8498
3674	0.8498
3665	0.8501
3656	0.8504
3647	0.8507
3638	0.8511
3629	0.8515
3620	0.8518
3611	0.8524
3602	0.8534
3593	0.8544
3584	0.8555
3575	0.8571
3566	0.8589
3557	0.8604
3548	0.8618
3539	0.8628
3530	0.864
3521	0.8658
3512	0.868
3503	0.8701
3494	0.8718
3485	0.8721
3476	0.8709
3467	0.8668
3458	0.8603
3449	0.857
3440	0.8556
3431	0.8538
3422	0.8441
3413	0.8402
3404	0.846
3395	0.857
3386	0.8652
3377	0.8701
3368	0.873
3359	0.8752
3350	0.8775
3341	0.8791
3332	0.8807
3323	0.8823
3314	0.8838
3305	0.8852
3296	0.8867
3287	0.8868
3278	0.8871
3269	0.8871
3260	0.887
3251	0.8868
3242	0.8865
3233	0.886
3224	0.8855
3215	0.8839
3206	0.8814
3197	0.8801
3188	0.8797
3179	0.8791
3170	0.8788
3161	0.8787
3152	0.8778
3143	0.8765
3134	0.8756
3125	0.8749
3116	0.8739
3107	0.872
3098	0.8683
3089	0.8614
3080	0.8543
3071	0.8502
3062	0.846
3053	0.842
3044	0.8361
3035	0.8278
3026	0.8201
3017	0.8064
3008	0.7664
2999	0.6547
2990	0.4786
2981	0.2611
2972	0.067
2963	0.0296
2954	0.0465
2945	0.1457
2936	0.1182
2927	0.1749
2918	0.281
2909	0.3154
2900	0.3366
2891	0.3849
2882	0.4346
2873	0.1889
2864	0.3743
2855	0.5496
2846	0.5781
2837	0.6453
2828	0.7204
2819	0.7564
2810	0.7844
2801	0.8018
2792	0.8148
2783	0.8238
2774	0.8314
2765	0.8355
2756	0.8368
2747	0.8357
2738	0.8331
2729	0.8298
2720	0.8292
2711	0.832
2702	0.8368
2693	0.8404
2684	0.8434
2675	0.8446
2666	0.8446
2657	0.844
2648	0.8462
2639	0.8487
2630	0.8508
2621	0.8525
2612	0.8534
2603	0.8542
2594	0.854
2585	0.8537
2576	0.8542
2567	0.8546
2558	0.8565
2549	0.8586
2540	0.8601
2531	0.861
2522	0.862
2513	0.8624
2504	0.8623
2495	0.8621
2486	0.8621
2477	0.8621
2468	0.8624
2459	0.8625
2450	0.8624
2441	0.8623
2432	0.8612
2423	0.8599
2414	0.8586
2405	0.8557
2396	0.8517
2387	0.8502
2378	0.8498
2369	0.8495
2360	0.8494
2351	0.8497
2342	0.8502
2333	0.8514
2324	0.8528
2315	0.8544
2306	0.8545
2297	0.8538
2288	0.8549
2279	0.8562
2270	0.8575
2261	0.859
2252	0.8598
2243	0.8606
2234	0.8613
2225	0.8616
2216	0.8618
2207	0.8617
2198	0.8614
2189	0.861
2180	0.8616
2171	0.865
2162	0.8627
2153	0.8612
2144	0.8602
2135	0.8594
2126	0.8586
2117	0.8578
2108	0.8568
2099	0.8566
2090	0.8567
2081	0.8568
2072	0.8568
2063	0.8568
2054	0.8567
2045	0.8565
2036	0.8561
2027	0.8558
2018	0.8563
2009	0.8577
2000	0.8632
1991	0.8606
1982	0.8585
1973	0.8584
1964	0.8584
1955	0.858
1946	0.8564
1937	0.8543
1928	0.8521
1919	0.852
1910	0.8514
1901	0.8507
1892	0.8504
1883	0.8499
1874	0.8492
1865	0.8482
1856	0.8468
1847	0.8451
1838	0.8405
1829	0.8343
1820	0.8198
1811	0.8081
1802	0.7967
1793	0.7833
1784	0.7589
1775	0.7267
1766	0.6636
1757	0.4898
1748	0.1145
1739	0.0066
1730	0.0048
1721	0.0045
1712	0.0079
1703	0.3144
1694	0.4918
1685	0.5583
1676	0.6119
1667	0.6334
1658	0.4265
1649	0.4064
1640	0.6101
1631	0.7196
1622	0.7698
1613	0.7926
1604	0.8071
1595	0.8126
1586	0.8201
1577	0.8224
1568	0.8223
1559	0.8218
1550	0.8251
1541	0.8306
1532	0.8291
1523	0.8228
1514	0.8119
1505	0.7945
1496	0.7774
1487	0.7555
1478	0.4386
1469	0.2523
1460	0.3075
1451	0.412
1442	0.6196
1433	0.5878
1424	0.6614
1415	0.467
1406	0.545
1397	0.461
1388	0.3181
1379	0.4275
1370	0.417
1361	0.4225
1352	0.4451
1343	0.4676
1334	0.4189
1325	0.201
1316	0.0932
1307	0.2947
1298	0.3034
1289	0.1989
1280	0.0264
1271	0.0064
1262	0.049
1253	0.1222
1244	0.1296
1235	0.1367
1226	0.1546
1217	0.127
1208	0.1357
1199	0.1042
1190	0.0419
1181	0.0203
1172	0.0095
1163	0.005
1154	0.0698
1145	0.2869
1136	0.432
1127	0.4898
1118	0.4708
1109	0.5073
1100	0.3243
1091	0.2063
1082	0.3714
1073	0.5126
1064	0.3566
1055	0.34
1046	0.6202
1037	0.6086
1028	0.3891
1019	0.2761
1010	0.3856
1001	0.4315
992	0.4637
983	0.5003
974	0.5053
965	0.4812
956	0.4903
947	0.5169
938	0.5599
929	0.598
920	0.6112
911	0.5512
902	0.5353
893	0.6458
884	0.693
875	0.7165
866	0.7274
857	0.724
848	0.7251
839	0.6671
830	0.6933
821	0.7197
812	0.7094
803	0.6728
794	0.5872
785	0.4368
776	0.5818
767	0.6836
758	0.7234
749	0.7264
740	0.7201
731	0.658
722	0.7646
713	0.7921
704	0.8055
695	0.8074
686	0.8103
677	0.8047
668	0.7895
659	0.8043
650	0.7894
641	0.7969
632	0.8048
623	0.8104
614	0.8115
605	0.7998
596	0.7862
587	0.7718
578	0.7611
569	0.7561
560	0.7549
551	0.7574
542	0.7638
533	0.7725
524	0.7744
515	0.7658
506	0.7411
497	0.7496
488	0.7639
479	0.7682
470	0.7683
461	0.7676
452	0.7645
443	0.7615
434	0.7542
425	0.7525
416	0.7521
407	0.753
398	0.7538
