Infrared Spectrum: Dimethyl allylphosphate
Formula: C 5 H 11 O 3 P
CAS: 757-54-0
State: gas
Origin: EPA-IR VAPOR PHASE LIBRARY
1/CM	ABSORBANCE
549.8	0.000785
559.445	0.0013822
569.09	0.0013024
578.735	0.001098
588.38	0.00239
598.025	0.0038
607.67	0.00695
617.315	0.00845
626.96	0.00573
636.605	0.00236
646.251	0.0015921
655.896	0.0011378
665.541	0.001207
675.186	0.00120124
684.831	0.0011294
694.476	0.0013627
704.121	0.0017259
713.766	0.0021785
723.411	0.00303
733.056	0.00353
742.701	0.00305
752.346	0.00258
761.991	0.00331
771.636	0.00514
781.281	0.009
790.926	0.01391
800.571	0.01522
810.216	0.01142
819.861	0.00821
829.507	0.0087
839.152	0.01002
848.797	0.01304
858.442	0.01362
868.087	0.0089
877.732	0.00405
887.377	0.00246
897.022	0.00276
906.667	0.00445
916.312	0.00689
925.957	0.00724
935.602	0.00549
945.247	0.00404
954.892	0.00281
964.537	0.00294
974.182	0.00346
983.827	0.00464
993.472	0.00529
1003.12	0.00566
1012.76	0.00895
1022.41	0.0185
1032.05	0.04013
1041.7	0.06069
1051.34	0.06227
1060.99	0.0497
1070.63	0.03976
1080.28	0.02693
1089.92	0.01565
1099.57	0.01075
1109.21	0.00858
1118.86	0.00711
1128.5	0.00569
1138.15	0.00468
1147.79	0.00423
1157.44	0.00391
1167.08	0.00445
1176.73	0.00561
1186.37	0.00618
1196.02	0.00562
1205.66	0.00527
1215.31	0.00566
1224.95	0.00653
1234.6	0.00639
1244.24	0.00597
1253.89	0.00764
1263.53	0.01333
1273.18	0.02194
1282.82	0.02414
1292.47	0.01814
1302.11	0.01015
1311.76	0.00525
1321.4	0.00276
1331.05	0.0019927
1340.69	0.0015772
1350.34	0.0014275
1359.98	0.0014048
1369.63	0.0013778
1379.27	0.0015946
1388.92	0.0021042
1398.56	0.0025
1408.21	0.00266
1417.85	0.00257
1427.5	0.00231
1437.14	0.0018915
1446.79	0.0021354
1456.43	0.00235
1466.08	0.00225
1475.73	0.0020608
1485.37	0.001802
1495.02	0.0015597
1504.66	0.0014244
1514.31	0.0014236
1523.95	0.0014946
1533.6	0.0013578
1543.24	0.0015327
1552.89	0.0014141
1562.53	0.00133
1572.18	0.0012829
1581.82	0.00117737
1591.47	0.0012614
1601.11	0.00127345
1610.76	0.00127787
1620.4	0.0016883
1630.05	0.00252
1639.69	0.00306
1649.34	0.0025
1658.98	0.00124495
1668.63	0.001022
1678.27	0.000875
1687.92	0.00096
1697.56	0.000808
1707.21	0.000869
1716.85	0.000888
1726.5	0.00089
1736.14	0.00086
1745.79	0.000991
1755.43	0.000992
1765.08	0.0011326
1774.72	0.001164
1784.37	0.0011264
1794.01	0.001134
1803.66	0.0011282
1813.3	0.0012081
1822.95	0.0014164
1832.59	0.0017187
1842.24	0.0017803
1851.88	0.0015643
1861.53	0.0012893
1871.17	0.00122781
1880.82	0.00118759
1890.46	0.0011691
1900.11	0.00121425
1909.75	0.0011114
1919.4	0.0011087
1929.04	0.00102
1938.69	0.001042
1948.33	0.000905
1957.98	0.001021
1967.62	0.00094
1977.27	0.000874
1986.91	0.000974
1996.56	0.00095
2006.2	0.000939
2015.85	0.000942
2025.49	0.000931
2035.14	0.001044
2044.78	0.000927
2054.43	0.000934
2064.07	0.001019
2073.72	0.001028
2083.36	0.0011088
2093.01	0.0011351
2102.65	0.000966
2112.3	0.001058
2121.94	0.00106
2131.59	0.001055
2141.23	0.001075
2150.88	0.001013
2160.52	0.000942
2170.17	0.00095
2179.81	0.00103
2189.46	0.001
2199.1	0.001026
2208.75	0.000968
2218.39	0.000966
2228.04	0.001028
2237.68	0.001022
2247.33	0.0010853
2256.97	0.001031
2266.62	0.001053
2276.26	0.001005
2285.91	0.001023
2295.55	0.001048
2305.2	0.0010955
2314.84	0.000952
2324.49	0.001021
2334.13	0.001036
2343.78	0.001078
2353.42	0.001059
2363.07	0.001078
2372.72	0.000992
2382.36	0.001075
2392.01	0.0011416
2401.65	0.00118997
2411.3	0.00103
2420.94	0.000992
2430.59	0.0011502
2440.23	0.001048
2449.88	0.0011465
2459.52	0.001055
2469.17	0.0010946
2478.81	0.00123596
2488.46	0.00118848
2498.1	0.0010973
2507.75	0.001015
2517.39	0.0011501
2527.04	0.00121139
2536.68	0.00117158
2546.33	0.0011671
2555.97	0.0011329
2565.62	0.0010994
2575.26	0.0011214
2584.91	0.00124211
2594.55	0.00123754
2604.2	0.0012509
2613.84	0.00125196
2623.49	0.0012825
2633.13	0.0012862
2642.78	0.00125798
2652.42	0.0012043
2662.07	0.0012916
2671.71	0.00126279
2681.36	0.00124657
2691	0.0012882
2700.65	0.00122153
2710.29	0.00124029
2719.94	0.00127801
2729.58	0.0013393
2739.23	0.00124511
2748.87	0.00123005
2758.52	0.001398
2768.16	0.00125522
2777.81	0.00123727
2787.45	0.0013377
2797.1	0.0014604
2806.74	0.0015887
2816.39	0.0017546
2826.03	0.0018992
2835.68	0.0021604
2845.32	0.00358
2854.97	0.00515
2864.61	0.00512
2874.26	0.00338
2883.9	0.00273
2893.55	0.0028
2903.19	0.00341
2912.84	0.00427
2922.48	0.00454
2932.13	0.00463
2941.77	0.00559
2951.42	0.00992
2961.06	0.01221
2970.71	0.00974
2980.35	0.00633
2990	0.00558
2999.64	0.00539
3009.29	0.00516
3018.93	0.00476
3028.58	0.00446
3038.22	0.00352
3047.87	0.00306
3057.51	0.00299
3067.16	0.00295
3076.8	0.00321
3086.45	0.00408
3096.09	0.00362
3105.74	0.0024
3115.38	0.0017091
3125.03	0.0013867
3134.67	0.0014593
3144.32	0.001071
3153.96	0.000986
3163.61	0.000982
3173.25	0.00088
3182.9	0.000664
3192.54	0.000634
3202.19	0.000818
3211.83	0.000647
3221.48	0.000719
3231.12	0.000529
3240.77	0.000543
3250.41	0.000861
3260.06	0.000445
3269.7	0.00056
3279.35	0.000413
3289	0.000541
3298.64	0.000388
3308.29	0.000545
3317.93	0.000526
3327.58	0.00053
3337.22	0.000412
3346.87	0.000452
3356.51	0.000605
3366.16	0.000305
3375.8	0.000389
3385.45	0.000278
3395.09	0.000437
3404.74	0.000526
3414.38	0.000389
3424.03	0.0001
3433.67	0.000516
3443.32	0.000398
3452.96	0.000438
3462.61	0.00017
3472.25	0.000341
3481.9	0.000435
3491.54	0.000491
3501.19	0.00015
3510.83	0.000481
3520.48	0.000414
3530.12	0.000229
3539.77	0.000284
3549.41	0.000234
3559.06	0.00034
3568.7	0.000394
3578.35	0.000552
3587.99	0.00049
3597.64	0.000449
3607.28	0.000485
3616.93	0.00026
3626.57	0.000307
3636.22	0.00047
3645.86	0.000442
3655.51	0.00043
3665.15	0.000428
3674.8	0.00036
3684.44	0.000539
3694.09	0.000344
3703.73	0.000395
3713.38	0.000522
3723.02	0.000592
3732.67	0.000458
3742.31	0.000333
3751.96	0.000481
3761.6	0.000428
3771.25	0.000497
3780.89	0.000576
3790.54	0.000497
3800.18	0.000374
3809.83	0.000702
3819.47	0.00052
3829.12	0.000598
3838.76	0.00051
3848.41	0.000421
3858.05	0.000507
3867.7	0.000414
3877.34	0.00084
3886.99	0.000765
3896.63	0.000746
3906.28	0.000628
3915.92	0.000724
3925.57	0.000599
3935.21	0.000719
3944.86	0.000461
3954.5	0.000794
3964.15	0.000695
3973.79	0.000916
3983.44	0.000841
3993.08	0.000784
