Infrared Spectrum: Tris(2,6-dimethylphenyl)borane
Formula: C 24 H 27 B
CAS: 75700-28-6
State: gas
Origin: EPA-IR VAPOR PHASE LIBRARY
1/CM	ABSORBANCE
549.8	0.009685
559.445	0.002595
569.09	0.0005784
578.734	0.0010672
588.379	0.0003427
598.024	0.000179
607.669	0.0006502
617.313	0.001705
626.958	0.0010382
636.603	0.002125
646.248	0.003885
655.893	0.012575
665.537	0.020435
675.182	0.014285
684.827	0.018995
694.472	0.091555
704.116	0.041475
713.761	0.008665
723.406	0.007035
733.051	0.006375
742.695	0.009875
752.34	0.015075
761.985	0.104005
771.63	0.122825
781.275	0.012565
790.919	0.006605
800.564	0.005445
810.209	0.006745
819.854	0.004075
829.498	0.003875
839.143	0.005075
848.788	0.008535
858.433	0.023595
868.078	0.085765
877.722	0.038195
887.367	0.012155
897.012	0.010195
906.657	0.027515
916.301	0.015645
925.946	0.004305
935.591	0.002715
945.236	0.002245
954.88	0.003255
964.525	0.003505
974.17	0.003135
983.815	0.002655
993.46	0.003565
1003.1	0.004795
1012.75	0.006645
1022.39	0.010075
1032.04	0.011135
1041.68	0.008595
1051.33	0.006725
1060.97	0.004995
1070.62	0.004015
1080.26	0.003945
1089.91	0.004085
1099.55	0.005625
1109.2	0.005465
1118.84	0.004365
1128.49	0.004435
1138.13	0.006155
1147.78	0.007255
1157.42	0.015795
1167.07	0.020675
1176.71	0.021655
1186.36	0.063645
1196	0.165385
1205.64	0.126835
1215.29	0.070165
1224.93	0.049515
1234.58	0.089865
1244.22	0.113005
1253.87	0.039255
1263.51	0.018885
1273.16	0.010395
1282.8	0.008955
1292.45	0.009095
1302.09	0.008715
1311.74	0.008625
1321.38	0.008935
1331.03	0.009905
1340.67	0.011135
1350.32	0.013025
1359.96	0.016435
1369.61	0.021255
1379.25	0.035035
1388.9	0.037045
1398.54	0.048715
1408.18	0.068935
1417.83	0.065125
1427.47	0.046345
1437.12	0.075655
1446.76	0.162365
1456.41	0.084915
1466.05	0.047035
1475.7	0.035325
1485.34	0.030005
1494.99	0.022205
1504.63	0.018645
1514.28	0.017925
1523.92	0.018535
1533.57	0.024425
1543.21	0.027325
1552.86	0.037995
1562.5	0.043215
1572.15	0.036955
1581.79	0.058245
1591.44	0.050915
1601.08	0.014325
1610.73	0.008135
1620.37	0.006055
1630.01	0.005855
1639.66	0.005665
1649.3	0.007635
1658.95	0.005855
1668.59	0.003625
1678.24	0.003005
1687.88	0.002775
1697.53	0.002795
1707.17	0.003285
1716.82	0.003585
1726.46	0.004085
1736.11	0.003285
1745.75	0.002525
1755.4	0.003625
1765.04	0.006775
1774.69	0.007045
1784.33	0.003495
1793.98	0.003035
1803.62	0.002665
1813.27	0.001915
1822.91	0.001825
1832.55	0.002325
1842.2	0.004575
1851.84	0.005685
1861.49	0.002375
1871.13	0.001845
1880.78	0.001895
1890.42	0.001955
1900.07	0.002625
1909.71	0.004455
1919.36	0.009205
1929	0.012545
1938.65	0.004715
1948.29	0.001985
1957.94	0.001655
1967.58	0.001525
1977.23	0.001465
1986.87	0.0011876
1996.52	0.0011435
2006.16	0.0013256
2015.81	0.0009154
2025.45	0.0009894
2035.1	0.0008218
2044.74	0.0008584
2054.38	0.0011704
2064.03	0.0013573
2073.67	0.001495
2083.32	0.0011695
2092.96	0.0012442
2102.61	0.001435
2112.25	0.001475
2121.9	0.001475
2131.54	0.001435
2141.19	0.001475
2150.83	0.0013235
2160.48	0.0010454
2170.12	0.0010703
2179.77	0.0008642
2189.41	0.0008797
2199.06	0.0009739
2208.7	0.0009919
2218.35	0.0012114
2227.99	0.0013837
2237.64	0.001505
2247.28	0.001515
2256.92	0.0013325
2266.57	0.001475
2276.21	0.001795
2285.86	0.002025
2295.5	0.001925
2305.15	0.001575
2314.79	0.001765
2324.44	0.002485
2334.08	0.002955
2343.73	0.002195
2353.37	0.001895
2363.02	0.001525
2372.66	0.001635
2382.31	0.001765
2391.95	0.002015
2401.6	0.002285
2411.24	0.002025
2420.89	0.001935
2430.53	0.002085
2440.18	0.001945
2449.82	0.001875
2459.47	0.001895
2469.11	0.002075
2478.75	0.002015
2488.4	0.001765
2498.04	0.001505
2507.69	0.001378
2517.33	0.001178
2526.98	0.001164
2536.62	0.0013292
2546.27	0.001455
2555.91	0.0013672
2565.56	0.0012778
2575.2	0.0013838
2584.85	0.001795
2594.49	0.002095
2604.14	0.002135
2613.78	0.002525
2623.43	0.002285
2633.07	0.002415
2642.72	0.002205
2652.36	0.002245
2662.01	0.002065
2671.65	0.002265
2681.29	0.002055
2690.94	0.002565
2700.58	0.002595
2710.23	0.002805
2719.87	0.003305
2729.52	0.004315
2739.16	0.007155
2748.81	0.005715
2758.45	0.003625
2768.1	0.003805
2777.74	0.004485
2787.39	0.005495
2797.03	0.006295
2806.68	0.007205
2816.32	0.008515
2825.97	0.010455
2835.61	0.013065
2845.26	0.016945
2854.9	0.023755
2864.55	0.032905
2874.19	0.037035
2883.84	0.034455
2893.48	0.032075
2903.12	0.033795
2912.77	0.043045
2922.41	0.066965
2932.06	0.099415
2941.7	0.080515
2951.35	0.059855
2960.99	0.064085
2970.64	0.067115
2980.28	0.060805
2989.93	0.053725
2999.57	0.058975
3009.22	0.055225
3018.86	0.040635
3028.51	0.043095
3038.15	0.063265
3047.8	0.118985
3057.44	0.147415
3067.09	0.051455
3076.73	0.023805
3086.38	0.016735
3096.02	0.014545
3105.67	0.013425
3115.31	0.012665
3124.95	0.010655
3134.6	0.007245
3144.24	0.005145
3153.89	0.003855
3163.53	0.003145
3173.18	0.002535
3182.82	0.002115
3192.47	0.001755
3202.11	0.001495
3211.76	0.0012378
3221.4	0.0012276
3231.05	0.0012929
3240.69	0.0012031
3250.34	0.0012332
3259.98	0.0010089
3269.63	0.0011579
3279.27	0.0012255
3288.92	0.0011141
3298.56	0.0011014
3308.21	0.0010371
3317.85	0.0010849
3327.49	0.001028
3337.14	0.0006356
3346.78	0.0005208
3356.43	0.0007571
3366.07	0.000833
3375.72	0.0008423
3385.36	0.0009789
3395.01	0.000941
3404.65	0.0010478
3414.3	0.000942
3423.94	0.0008307
3433.59	0.000882
3443.23	0.0008771
3452.88	0.0011374
3462.52	0.000903
3472.17	0.0008315
3481.81	0.0009021
3491.46	0.0007138
3501.1	0.0005827
3510.75	0.00047903
3520.39	0.0006598
3530.04	0.0005387
3539.68	0.0007288
3549.32	0.000853
3558.97	0.0007494
3568.61	0.0008004
3578.26	0.0009023
3587.9	0.0007504
3597.55	0.0005934
3607.19	0.0005903
3616.84	0.0005129
3626.48	0.0006256
3636.13	0.0005422
3645.77	0.0003568
3655.42	0.00040879
3665.06	0.000636
3674.71	0.0006181
3684.35	0.000208
3694	0.0004388
3703.64	0.0003824
3713.29	0.0009205
3722.93	0.0005413
3732.58	0.0008648
3742.22	0.0007095
3751.86	0.0009758
3761.51	0.0007041
3771.15	0.0008532
3780.8	0.0006252
3790.44	0.0010338
3800.09	0.0008907
3809.73	0.0010714
3819.38	0.0008364
3829.02	0.000778
3838.67	0.000638
3848.31	0.000966
3857.96	0.0008132
3867.6	0.0011682
3877.25	0.000885
3886.89	0.0011809
3896.54	0.0012812
3906.18	0.001545
3915.83	0.0013803
3925.47	0.001565
3935.12	0.0013059
3944.76	0.0013371
3954.41	0.0012836
3964.05	0.0013456
3973.69	0.0011738
3983.34	0.0009304
3992.98	0.0008028
