Infrared Spectrum: 4-PYRIDINECARBOXYLIC ACID, 3-AMINO-
Formula: C6 H6 N2 O2
CAS: 7579-20-6
State: SOLID (1 mg / 500 mg KBr DISC)
Class: COBLENTZ III
Instrument: PERKIN-ELMER 621
Sampling: TRANSMISSION
Resolution: 4
Origin: SOUTHERN RESEARCH INSTITUTE
1/CM	TRANSMITTANCE
301.837	0.634
312.327	0.639
322.816	0.639
333.306	0.635
343.795	0.6101
354.285	0.5572
364.774	0.5001
375.264	0.4881
385.753	0.4796
396.243	0.5441
406.732	0.5566
417.222	0.5621
427.711	0.5526
438.201	0.5537
448.69	0.5328
459.18	0.5986
469.669	0.6555
480.159	0.669
490.648	0.6613
501.138	0.6523
511.627	0.6346
522.117	0.6055
532.606	0.5846
543.096	0.5702
553.585	0.5742
564.075	0.5529
574.564	0.4688
585.054	0.34
595.543	0.5434
606.033	0.544
616.522	0.545
627.012	0.549
637.501	0.553
647.991	0.5608
658.48	0.6149
668.97	0.6517
679.459	0.5659
689.949	0.5577
700.438	0.5603
710.928	0.554
721.417	0.544
731.907	0.5313
742.396	0.5186
752.886	0.5013
763.375	0.4742
773.865	0.4299
784.354	0.3673
794.844	0.2897
805.333	0.2494
815.823	0.4233
826.312	0.4021
836.802	0.4016
847.291	0.5788
857.781	0.7565
868.27	0.7723
878.76	0.7558
889.249	0.8416
899.739	0.8434
910.228	0.8288
920.718	0.8072
931.207	0.7823
941.697	0.7539
952.186	0.7374
962.676	0.7173
973.165	0.6948
983.655	0.6694
994.144	0.6449
1004.63	0.6189
1015.12	0.591
1025.61	0.5584
1036.1	0.5094
1046.59	0.4775
1057.08	0.5759
1067.57	0.6416
1078.06	0.5881
1088.55	0.5416
1099.04	0.5141
1109.53	0.5095
1120.02	0.5447
1130.51	0.6126
1141	0.5903
1151.49	0.5463
1161.98	0.5327
1172.47	0.5275
1182.96	0.4868
1193.44	0.4608
1203.93	0.4358
1214.42	0.4072
1224.91	0.394
1235.4	0.3725
1245.89	0.3393
1256.38	0.3414
1266.87	0.3858
1277.36	0.4725
1287.85	0.496
1298.34	0.4753
1308.83	0.4351
1319.32	0.3572
1329.81	0.2731
1340.3	0.2655
1350.79	0.3635
1361.28	0.4765
1371.77	0.5416
1382.26	0.5407
1392.75	0.532
1403.24	0.5353
1413.72	0.5533
1424.21	0.638
1434.7	0.7105
1445.19	0.723
1455.68	0.7116
1466.17	0.6906
1476.66	0.6535
1487.15	0.6144
1497.64	0.6646
1508.13	0.6666
1518.62	0.6359
1529.11	0.5911
1539.6	0.5515
1550.09	0.5015
1560.58	0.422
1571.07	0.3245
1581.56	0.2236
1592.05	0.2516
1602.54	0.3659
1613.03	0.2747
1623.51	0.2151
1634	0.2848
1644.49	0.4474
1654.98	0.5034
1665.47	0.5273
1675.96	0.5582
1686.45	0.5901
1696.94	0.6182
1707.43	0.6421
1717.92	0.6611
1728.41	0.676
1738.9	0.6821
1749.39	0.69
1759.88	0.697
1770.37	0.701
1780.86	0.703
1791.35	0.703
1801.84	0.706
1812.33	0.704
1822.82	0.703
1833.3	0.701
1843.79	0.698
1854.28	0.695
1864.77	0.6911
1875.26	0.6811
1885.75	0.6761
1896.24	0.674
1906.73	0.673
1917.22	0.6671
1927.71	0.6652
1938.2	0.663
1948.69	0.661
1959.18	0.66
1969.67	0.66
1980.16	0.659
1990.65	0.659
2001.14	0.659
2011.63	0.659
2022.12	0.6551
2032.61	0.6501
2043.09	0.646
2053.58	0.6373
2064.07	0.631
2074.56	0.6211
2085.05	0.6071
2095.54	0.5993
2106.03	0.5933
2116.52	0.59
2127.01	0.588
2137.5	0.59
2147.99	0.5929
2158.48	0.6
2168.97	0.6066
2179.46	0.6209
2189.95	0.6349
2200.44	0.6519
2210.93	0.6647
2221.42	0.6854
2231.91	0.701
2242.4	0.7176
2252.88	0.7329
2263.37	0.7449
2273.86	0.7527
2284.35	0.755
2294.84	0.755
2305.33	0.751
2315.82	0.748
2326.31	0.742
2336.8	0.7371
2347.29	0.7254
2357.78	0.718
2368.27	0.712
2378.76	0.704
2389.25	0.6941
2399.74	0.6851
2410.23	0.6743
2420.72	0.665
2431.21	0.66
2441.7	0.655
2452.19	0.652
2462.68	0.651
2473.16	0.651
2483.65	0.654
2494.14	0.656
2504.63	0.657
2515.12	0.6609
2525.61	0.664
2536.1	0.667
2546.59	0.6719
2557.08	0.674
2567.57	0.678
2578.06	0.684
2588.55	0.6899
2599.04	0.6939
2609.53	0.6989
2620.02	0.706
2630.51	0.71
2641	0.715
2651.49	0.723
2661.98	0.728
2672.47	0.732
2682.95	0.737
2693.44	0.74
2703.93	0.744
2714.42	0.745
2724.91	0.745
2735.4	0.746
2745.89	0.7477
2756.38	0.7499
2766.87	0.7539
2777.36	0.7567
2787.85	0.757
2798.34	0.757
2808.83	0.757
2819.32	0.758
2829.81	0.7619
2840.3	0.7619
2850.79	0.763
2861.28	0.766
2871.77	0.767
2882.26	0.7661
2892.74	0.768
2903.23	0.768
2913.72	0.767
2924.21	0.766
2934.7	0.767
2945.19	0.768
2955.68	0.77
2966.17	0.775
2976.66	0.776
2987.15	0.776
2997.64	0.775
3008.13	0.7723
3018.62	0.7701
3029.11	0.7593
3039.6	0.7455
3050.09	0.7193
3060.58	0.72
3071.07	0.719
3081.56	0.7141
3092.05	0.7011
3102.53	0.6873
3113.02	0.6801
3123.51	0.6761
3134	0.6671
3144.49	0.6573
3154.98	0.6461
3165.47	0.6331
3175.96	0.6223
3186.45	0.6073
3196.94	0.599
3207.43	0.5874
3217.92	0.5693
3228.41	0.5454
3238.9	0.5145
3249.39	0.4845
3259.88	0.471
3270.37	0.4747
3280.86	0.4973
3291.35	0.5362
3301.84	0.5785
3312.33	0.6027
3322.81	0.604
3333.3	0.5885
3343.79	0.5411
3354.28	0.4848
3364.77	0.4387
3375.26	0.42
3385.75	0.4299
3396.24	0.4535
3406.73	0.4891
3417.22	0.5301
3427.71	0.5793
3438.2	0.6235
3448.69	0.6585
3459.18	0.6796
3469.67	0.7037
3480.16	0.7236
3490.65	0.7396
3501.14	0.7509
3511.63	0.7619
3522.12	0.7759
3532.6	0.7907
3543.09	0.8057
3553.58	0.8167
3564.07	0.832
3574.56	0.8399
3585.05	0.8529
3595.54	0.8617
3606.03	0.8749
3616.52	0.8859
3627.01	0.894
3637.5	0.899
3647.99	0.9029
3658.48	0.902
3668.97	0.899
3679.46	0.9039
3689.95	0.911
3700.44	0.911
3710.93	0.911
3721.42	0.911
3731.91	0.911
3742.39	0.911
3752.88	0.911
3763.37	0.911
3773.86	0.911
3784.35	0.909
3794.84	0.909
3805.33	0.909
3815.82	0.908
3826.31	0.908
3836.8	0.908
3847.29	0.907
3857.78	0.906
3868.27	0.906
3878.76	0.904
3889.25	0.904
3899.74	0.903
3910.23	0.903
3920.72	0.903
3931.21	0.902
3941.7	0.902
3952.18	0.902
3962.67	0.903
3973.16	0.903
3983.65	0.903
3994.14	0.9057
