Infrared Spectrum: N,N-Dimethylpropionamide
Formula: C 5 H 11 N O
CAS: 758-96-3
State: gas
Origin: EPA-IR VAPOR PHASE LIBRARY
1/CM	ABSORBANCE
501.5	0.000185
513.074	0.000307
524.648	0.000528
536.222	0.000337
547.796	0.00074489
559.37	0.0011001
570.944	0.001788
582.518	0.002108
594.092	0.0015707
605.666	0.0010893
617.24	0.000645
628.814	0.000428
640.388	0.000339
651.962	0.000434
663.536	0.000622
675.11	0.000492
686.684	0.0006978
698.258	0.000596
709.832	0.0006347
721.406	0.00072778
732.98	0.0007169
744.554	0.0009249
756.128	0.0009808
767.702	0.0008541
779.276	0.0008729
790.85	0.0008977
802.423	0.0011675
813.997	0.001381
825.571	0.0016265
837.145	0.0012812
848.719	0.00103
860.293	0.0006994
871.867	0.0006615
883.441	0.0006597
895.015	0.00081438
906.589	0.0008837
918.163	0.0009031
929.737	0.0009955
941.311	0.0011076
952.885	0.0012406
964.459	0.0015802
976.033	0.002258
987.607	0.003298
999.181	0.004078
1010.76	0.004598
1022.33	0.005568
1033.9	0.008708
1045.48	0.012848
1057.05	0.015028
1068.63	0.012768
1080.2	0.008738
1091.77	0.006278
1103.35	0.006188
1114.92	0.007598
1126.49	0.011188
1138.07	0.015548
1149.64	0.018068
1161.22	0.017498
1172.79	0.014198
1184.36	0.009558
1195.94	0.005628
1207.51	0.003798
1219.09	0.003258
1230.66	0.003908
1242.23	0.005678
1253.81	0.008868
1265.38	0.010688
1276.96	0.009498
1288.53	0.006908
1300.1	0.006908
1311.68	0.007388
1323.25	0.007368
1334.83	0.007318
1346.4	0.008428
1357.97	0.011898
1369.55	0.020858
1381.12	0.034038
1392.7	0.040888
1404.27	0.033878
1415.84	0.021678
1427.42	0.014418
1438.99	0.013988
1450.57	0.017598
1462.14	0.020088
1473.71	0.018068
1485.29	0.014278
1496.86	0.011138
1508.44	0.009608
1520.01	0.008778
1531.58	0.008008
1543.16	0.007038
1554.73	0.005898
1566.31	0.004998
1577.88	0.004298
1589.45	0.003888
1601.03	0.003718
1612.6	0.004088
1624.18	0.005198
1635.75	0.007508
1647.32	0.012808
1658.9	0.028758
1670.47	0.066328
1682.05	0.091878
1693.62	0.083348
1705.19	0.034418
1716.77	0.010878
1728.34	0.005578
1739.92	0.004018
1751.49	0.003098
1763.06	0.002438
1774.64	0.001998
1786.21	0.001738
1797.79	0.0014857
1809.36	0.0013578
1820.93	0.0012436
1832.51	0.0011234
1844.08	0.0009906
1855.66	0.0009698
1867.23	0.0010001
1878.8	0.0010078
1890.38	0.0010168
1901.95	0.0009662
1913.53	0.0009672
1925.1	0.0009146
1936.67	0.0008762
1948.25	0.0008489
1959.82	0.000836
1971.4	0.00081711
1982.97	0.00080408
1994.54	0.0008441
2006.12	0.0008496
2017.69	0.0008497
2029.27	0.0008564
2040.84	0.0008932
2052.41	0.0008969
2063.99	0.0009601
2075.56	0.0009698
2087.14	0.0009798
2098.71	0.0009683
2110.28	0.0009447
2121.86	0.0009211
2133.43	0.0009366
2145.01	0.0009795
2156.58	0.0009577
2168.15	0.0009441
2179.73	0.0009504
2191.3	0.0009608
2202.88	0.0009509
2214.45	0.0009411
2226.02	0.0009181
2237.6	0.00089
2249.17	0.0008613
2260.74	0.0008406
2272.32	0.0008357
2283.89	0.000849
2295.47	0.0008521
2307.04	0.0008465
2318.61	0.0008169
2330.19	0.0008461
2341.76	0.0008439
2353.34	0.0008766
2364.91	0.0008375
2376.48	0.0009074
2388.06	0.0009226
2399.63	0.0009095
2411.21	0.000889
2422.78	0.0009355
2434.35	0.0009714
2445.93	0.001021
2457.5	0.0009438
2469.08	0.0009631
2480.65	0.0009201
2492.22	0.0009667
2503.8	0.0009681
2515.37	0.0010111
2526.95	0.0010195
2538.52	0.0010602
2550.09	0.0010191
2561.67	0.0009939
2573.24	0.0010355
2584.82	0.0009962
2596.39	0.0010468
2607.96	0.0010038
2619.54	0.0010754
2631.11	0.0010453
2642.69	0.0011285
2654.26	0.0011046
2665.83	0.0011831
2677.41	0.0011965
2688.98	0.0012511
2700.56	0.0013062
2712.13	0.0014097
2723.7	0.0014986
2735.28	0.0016718
2746.85	0.001938
2758.43	0.002198
2770	0.002538
2781.57	0.003188
2793.15	0.004028
2804.72	0.005038
2816.3	0.006148
2827.87	0.006988
2839.44	0.008008
2851.02	0.009638
2862.59	0.011858
2874.17	0.014718
2885.74	0.017698
2897.31	0.020098
2908.89	0.022888
2920.46	0.026618
2932.04	0.030678
2943.61	0.031098
2955.18	0.026398
2966.76	0.020178
2978.33	0.018498
2989.91	0.017408
3001.48	0.014338
3013.05	0.010688
3024.63	0.008648
3036.2	0.007388
3047.78	0.006018
3059.35	0.004748
3070.92	0.003788
3082.5	0.003068
3094.07	0.002498
3105.65	0.002208
3117.22	0.001828
3128.79	0.0016924
3140.37	0.0015933
3151.94	0.0014305
3163.52	0.0013155
3175.09	0.0012399
3186.66	0.0011957
3198.24	0.001136
3209.81	0.0010434
3221.39	0.0011208
3232.96	0.00096
3244.53	0.0009324
3256.11	0.0008466
3267.68	0.000977
3279.26	0.0009065
3290.83	0.0009592
3302.4	0.0009608
3313.98	0.0011344
3325.55	0.0013085
3337.13	0.0016018
3348.7	0.001778
3360.27	0.001738
3371.85	0.0014425
3383.42	0.0010568
3395	0.0009515
3406.57	0.0009526
3418.14	0.00076712
3429.72	0.00076202
3441.29	0.0008835
3452.86	0.00081872
3464.44	0.00077025
3476.01	0.00074333
3487.59	0.00080148
3499.16	0.00075188
3510.73	0.000736113
3522.31	0.000737908
3533.88	0.00075828
3545.46	0.00076917
3557.03	0.00081968
3568.6	0.0007133
3580.18	0.00078821
3591.75	0.00079699
3603.33	0.00078676
3614.9	0.00079211
3626.47	0.00077257
3638.05	0.00076999
3649.62	0.0007128
3661.2	0.0006884
3672.77	0.00080876
3684.34	0.00076161
3695.92	0.000730126
3707.49	0.00081582
3719.07	0.0008443
3730.64	0.000736881
3742.21	0.00078001
3753.79	0.00081706
3765.36	0.0007947
3776.94	0.0008178
3788.51	0.00078182
3800.08	0.0008465
3811.66	0.0009181
3823.23	0.00082207
3834.81	0.0008788
3846.38	0.0008343
3857.95	0.00077343
3869.53	0.00075578
3881.1	0.0008862
3892.68	0.0008622
3904.25	0.0008908
3915.82	0.0008876
3927.4	0.0008365
3938.97	0.0009346
3950.55	0.0010142
3962.12	0.0008808
3973.69	0.0009253
3985.27	0.0009996
3996.84	0.0009529
