Infrared Spectrum: DL-Alpha-AMINOTHIOPROPIONIC ACID
Formula: C3 H7 N O S
CAS: 758-28-1
State: SOLID(MINERAL OIL MULL)
Melting point: 245-253 C (DECOMPOSE)
Class: COBLENTZ
Instrument: Not specified, most likely a prism, grating, or hybrid spectrometer.
Sampling: TRANSMISSION
Resolution: 4
Origin: ARTHUR D. LITTLE, INC.
1/CM	TRANSMITTANCE
582.305	0.595
590.422	0.596
598.539	0.603
606.656	0.612
614.773	0.619
622.89	0.644
631.006	0.652
639.123	0.663
647.24	0.728
655.357	0.754
663.474	0.775
671.591	0.79
679.708	0.802
687.825	0.809
695.942	0.797
704.059	0.769
712.175	0.764
720.292	0.763
728.409	0.722
736.526	0.835
744.643	0.836
752.76	0.836
760.877	0.847
768.994	0.86
777.111	0.864
785.228	0.864
793.345	0.861
801.461	0.858
809.578	0.85
817.695	0.845
825.812	0.841
833.929	0.822
842.046	0.816
850.163	0.775
858.28	0.683
866.397	0.574
874.514	0.804
882.631	0.802
890.747	0.79
898.864	0.777
906.981	0.762
915.098	0.75
923.215	0.71
931.332	0.697
939.449	0.654
947.566	0.629
955.683	0.565
963.8	0.485
971.916	0.402
980.033	0.436
988.15	0.351
996.267	0.21
1004.38	0.156
1012.5	0.256
1020.62	0.407
1028.73	0.457
1036.85	0.638
1044.97	0.77
1053.09	0.811
1061.2	0.812
1069.32	0.789
1077.44	0.705
1085.55	0.538
1093.67	0.52
1101.79	0.725
1109.9	0.686
1118.02	0.528
1126.14	0.62
1134.25	0.797
1142.37	0.804
1150.49	0.804
1158.61	0.801
1166.72	0.807
1174.84	0.809
1182.96	0.794
1191.07	0.775
1199.19	0.808
1207.31	0.813
1215.42	0.812
1223.54	0.804
1231.66	0.793
1239.77	0.779
1247.89	0.767
1256.01	0.763
1264.13	0.758
1272.24	0.745
1280.36	0.707
1288.48	0.676
1296.59	0.633
1304.71	0.701
1312.83	0.703
1320.94	0.698
1329.06	0.668
1337.18	0.623
1345.29	0.582
1353.41	0.559
1361.53	0.445
1369.64	0.335
1377.76	0.414
1385.88	0.561
1394	0.591
1402.11	0.567
1410.23	0.528
1418.35	0.482
1426.46	0.434
1434.58	0.354
1442.7	0.23
1450.81	0.165
1458.93	0.148
1467.05	0.171
1475.16	0.186
1483.28	0.281
1491.4	0.403
1499.52	0.402
1507.63	0.377
1515.75	0.36
1523.87	0.37
1531.98	0.442
1540.1	0.508
1548.22	0.486
1556.33	0.392
1564.45	0.334
1572.57	0.349
1580.68	0.427
1588.8	0.476
1596.92	0.43
1605.04	0.51
1613.15	0.701
1621.27	0.764
1629.39	0.8
1637.5	0.823
1645.62	0.847
1653.74	0.875
1661.85	0.883
1669.97	0.888
1678.09	0.891
1686.2	0.892
1694.32	0.888
1702.44	0.888
1710.55	0.889
1718.67	0.891
1726.79	0.892
1734.91	0.894
1743.02	0.894
1751.14	0.894
1759.26	0.891
1767.37	0.887
1775.49	0.883
1783.61	0.877
1791.72	0.873
1799.84	0.866
1807.96	0.862
1816.07	0.854
1824.19	0.845
1832.31	0.834
1840.43	0.816
1848.54	0.808
1856.66	0.804
1864.78	0.8
1872.89	0.797
1881.01	0.797
1889.13	0.797
1897.24	0.798
1905.36	0.798
1913.48	0.801
1921.59	0.802
1929.71	0.807
1937.83	0.809
1945.95	0.811
1954.06	0.812
1962.18	0.813
1970.3	0.815
1978.41	0.819
1986.53	0.823
1994.65	0.827
2002.76	0.83
2010.88	0.83
2019	0.828
2027.11	0.827
2035.23	0.83
2043.35	0.832
2051.47	0.835
2059.58	0.839
2067.7	0.839
2075.82	0.838
2083.93	0.836
2092.05	0.836
2100.17	0.835
2108.28	0.834
2116.4	0.834
2124.52	0.834
2132.63	0.832
2140.75	0.83
2148.87	0.827
2156.98	0.822
2165.1	0.817
2173.22	0.813
2181.34	0.811
2189.45	0.805
2197.57	0.8
2205.69	0.792
2213.8	0.786
2221.92	0.789
2230.04	0.79
2238.15	0.786
2246.27	0.781
2254.39	0.782
2262.5	0.783
2270.62	0.783
2278.74	0.785
2286.86	0.785
2294.97	0.781
2303.09	0.764
2311.21	0.75
2319.32	0.74
2327.44	0.737
2335.56	0.739
2343.67	0.739
2351.79	0.736
2359.91	0.737
2368.02	0.74
2376.14	0.747
2384.26	0.747
2392.38	0.74
2400.49	0.73
2408.61	0.721
2416.73	0.71
2424.84	0.694
2432.96	0.664
2441.08	0.642
2449.19	0.619
2457.31	0.623
2465.43	0.633
2473.54	0.646
2481.66	0.649
2489.78	0.642
2497.89	0.639
2506.01	0.638
2514.13	0.637
2522.25	0.631
2530.36	0.611
2538.48	0.599
2546.6	0.578
2554.71	0.547
2562.83	0.529
2570.95	0.523
2579.06	0.512
2587.18	0.51
2595.3	0.523
2603.41	0.529
2611.53	0.557
2619.65	0.567
2627.77	0.558
2635.88	0.551
2644	0.543
2652.12	0.512
2660.23	0.493
2668.35	0.48
2676.47	0.472
2684.58	0.47
2692.7	0.467
2700.82	0.463
2708.93	0.451
2717.05	0.441
2725.17	0.438
2733.29	0.448
2741.4	0.442
2749.52	0.438
2757.64	0.432
2765.75	0.419
2773.87	0.408
2781.99	0.398
2790.1	0.384
2798.22	0.372
2806.34	0.342
2814.45	0.305
2822.57	0.274
2830.69	0.232
2838.8	0.15
2846.92	0.061
2855.04	0.04
2863.16	0.042
2871.27	0.05
2879.39	0.055
2887.51	0.052
2895.62	0.043
2903.74	0.038
2911.86	0.036
2919.97	0.033
2928.09	0.032
2936.21	0.033
2944.32	0.038
2952.44	0.036
2960.56	0.036
2968.68	0.048
2976.79	0.082
2984.91	0.134
2993.03	0.156
3001.14	0.18
3009.26	0.19
3017.38	0.199
3025.49	0.209
3033.61	0.221
3041.73	0.23
3049.84	0.237
3057.96	0.239
3066.08	0.239
3074.2	0.247
3082.31	0.256
3090.43	0.263
3098.55	0.275
3106.66	0.293
3114.78	0.309
3122.9	0.324
3131.01	0.347
3139.13	0.361
3147.25	0.379
3155.36	0.399
3163.48	0.421
3171.6	0.449
3179.71	0.472
3187.83	0.497
3195.95	0.527
3204.07	0.562
3212.18	0.593
3220.3	0.626
3228.42	0.656
3236.53	0.683
3244.65	0.718
3252.77	0.74
3260.88	0.759
3269	0.777
3277.12	0.79
3285.23	0.797
3293.35	0.808
3301.47	0.812
3309.59	0.816
3317.7	0.816
3325.82	0.819
3333.94	0.82
3342.05	0.822
3350.17	0.82
