Infrared Spectrum: 2,3-Dimethyl-1,4-pentadiene
Formula: C 7 H 12
CAS: 758-86-1
State: gas
Instrument: HP-GC/MS/IRD
Origin: NIST Mass Spectrometry Data Center
1/CM	ABSORBANCE
550	0.0004725
562	0.0003612
574	0.0002856
586	0.0001848
598	0.000126
610	0.0002478
622	0.0002478
634	0.0005145
646	0.0009345
658	0.0014616
670	0.001071
682	0.0006636
694	0.000378
706	0.0003759
718	0.0003171
730	0.0001302
742	0
754	5.25e-05
766	0.0001092
778	0.0002289
790	0.0001848
802	0.0002016
814	0.0003192
826	0.0005754
838	0.0005964
850	0.001008
862	0.0018165
874	0.0045654
886	0.0089859
898	0.0125895
910	0.012264
922	0.0093072
934	0.0047523
946	0.0022596
958	0.0017178
970	0.001932
982	0.0032928
994	0.0041874
1006	0.0033579
1018	0.001869
1030	0.0014301
1042	0.0014784
1054	0.0015225
1066	0.0016128
1078	0.0017724
1090	0.0015414
1102	0.0010458
1114	0.0005838
1126	0.0004578
1138	0.0005376
1150	0.0003675
1162	0.0002415
1174	0.0002016
1186	8.82e-05
1198	0.0001785
1210	0.0004599
1222	0.0008274
1234	0.0009471
1246	0.0006636
1258	0.000546
1270	0.000777
1282	0.0009765
1294	0.000819
1306	0.0006048
1318	0.000483
1330	0.0005103
1342	0.0006678
1354	0.001302
1366	0.0028056
1378	0.0040425
1390	0.0034965
1402	0.0024969
1414	0.0026544
1426	0.0029043
1438	0.0034923
1450	0.0043155
1462	0.0042651
1474	0.0027237
1486	0.0013356
1498	0.0008148
1510	0.0005523
1522	0.0004179
1534	0.0004242
1546	0.0004788
1558	0.0005964
1570	0.0006993
1582	0.0008211
1594	0.0010584
1606	0.0016128
1618	0.0032529
1630	0.0055314
1642	0.0062727
1654	0.0041958
1666	0.0018858
1678	0.0006741
1690	0.000336
1702	0.0002457
1714	0.0001575
1726	0.0001281
1738	0.0001029
1750	0.0001092
1762	0.0001995
1774	0.0003927
1786	0.0006657
1798	0.0007266
1810	0.0006048
1822	0.0007749
1834	0.0008841
1846	0.0006636
1858	0.0002457
1870	0.0001071
1882	8.82e-05
1894	3.99e-05
1906	7.98e-05
1918	6.3e-05
1930	8.19e-05
1942	5.88e-05
1954	5.67e-05
1966	6.72e-05
1978	7.56e-05
1990	9.03e-05
2002	7.35e-05
2014	2.52e-05
2026	5.25e-05
2038	1.47e-05
2050	5.04e-05
2062	7.56e-05
2074	3.78e-05
2086	4.83e-05
2098	4.41e-05
2110	8.4e-06
2122	6.3e-05
2134	5.46e-05
2146	7.77e-05
2158	5.88e-05
2170	4.41e-05
2182	3.15e-05
2194	2.94e-05
2206	8.4e-06
2218	3.36e-05
2230	6.3e-05
2242	7.77e-05
2254	8.82e-05
2266	6.3e-05
2278	7.77e-05
2290	9.87e-05
2302	0.0001071
2314	0.0001407
2326	0.000105
2338	9.66e-05
2350	8.19e-05
2362	9.03e-05
2374	0.0001218
2386	9.03e-05
2398	0.000105
2410	0.0001302
2422	0.0001197
2434	0.0001407
2446	9.24e-05
2458	5.88e-05
2470	0.0001071
2482	0.0001071
2494	0.0001071
2506	0.000147
2518	0.0001323
2530	0.0001764
2542	0.0001785
2554	0.0001491
2566	0.0001449
2578	0.0002016
2590	0.0001386
2602	0.0001596
2614	9.03e-05
2626	0.000168
2638	0.000168
2650	0.0001386
2662	0.0001575
2674	0.0001848
2686	0.0001743
2698	0.0002268
2710	0.0002709
2722	0.0003738
2734	0.0003759
2746	0.000399
2758	0.0003654
2770	0.0003843
2782	0.0004494
2794	0.0005607
2806	0.0007182
2818	0.0008988
2830	0.0012264
2842	0.0017514
2854	0.0031122
2866	0.0051303
2878	0.007035
2890	0.0073563
2902	0.0069951
2914	0.0073794
2926	0.0086415
2938	0.0096411
2950	0.0104202
2962	0.0146454
2974	0.0208362
2986	0.0183456
2998	0.0103593
3010	0.0062118
3022	0.0041874
3034	0.0029169
3046	0.0028014
3058	0.0038934
3070	0.0065373
3082	0.0090741
3094	0.0073269
3106	0.0035847
3118	0.0013902
3130	0.0008316
3142	0.0006216
3154	0.0004704
3166	0.000483
3178	0.0003885
3190	0.0003465
3202	0.0003423
3214	0.0003003
3226	0.000231
3238	0.0002394
3250	0.0001974
3262	0.0002247
3274	0.0001701
3286	0.0001764
3298	0.0001785
3310	0.0001911
3322	0.0001659
3334	0.0001092
3346	9.45e-05
3358	0.0001596
3370	9.66e-05
3382	6.51e-05
3394	7.35e-05
3406	9.66e-05
3418	0.000126
3430	0.0001218
3442	0.0001008
3454	0.0001176
3466	9.24e-05
3478	7.98e-05
3490	0.0001155
3502	8.19e-05
3514	0.0001428
3526	6.51e-05
3538	4.62e-05
3550	7.35e-05
3562	1.05e-05
3574	6.09e-05
3586	7.77e-05
3598	0.0001134
3610	8.19e-05
3622	0.000126
3634	9.87e-05
3646	0.0001365
3658	0.0001029
3670	0.0001029
3682	0.0001617
3694	4.62e-05
3706	3.78e-05
3718	6.72e-05
3730	6.93e-05
3742	9.24e-05
3754	0.0001449
3766	0.0001575
3778	0.0001722
3790	0.0001008
3802	0.0001008
3814	8.19e-05
3826	0.0001071
3838	9.87e-05
