Infrared Spectrum: Alpha-MERCAPTOPROPIONHYDRAZIDE
Formula: C3 H8 N2 O S
CAS: 758-95-2
State: SOLID(MINERAL OIL MULL)
Melting point: 94-95 C
Class: COBLENTZ
Instrument: Not specified, most likely a prism, grating, or hybrid spectrometer.
Sampling: TRANSMISSION
Resolution: 4
Origin: ARTHUR D. LITTLE, INC.
1/CM	TRANSMITTANCE
695.964	0.604
704.036	0.654
712.107	0.723
720.179	0.79
728.251	0.831
736.323	0.86
744.394	0.871
752.466	0.869
760.538	0.848
768.61	0.807
776.681	0.821
784.753	0.89
792.825	0.914
800.897	0.919
808.968	0.92
817.04	0.917
825.112	0.916
833.184	0.912
841.255	0.906
849.327	0.893
857.399	0.866
865.471	0.839
873.542	0.831
881.614	0.825
889.686	0.812
897.758	0.784
905.829	0.765
913.901	0.774
921.973	0.769
930.045	0.738
938.116	0.682
946.188	0.601
954.26	0.496
962.332	0.47
970.403	0.487
978.475	0.596
986.547	0.638
994.619	0.484
1002.69	0.419
1010.76	0.699
1018.83	0.819
1026.91	0.829
1034.98	0.823
1043.05	0.812
1051.12	0.761
1059.19	0.662
1067.26	0.58
1075.34	0.701
1083.41	0.695
1091.48	0.699
1099.55	0.712
1107.62	0.761
1115.69	0.777
1123.77	0.754
1131.84	0.701
1139.91	0.705
1147.98	0.761
1156.05	0.78
1164.13	0.781
1172.2	0.777
1180.27	0.763
1188.34	0.73
1196.41	0.681
1204.48	0.576
1212.56	0.458
1220.63	0.462
1228.7	0.515
1236.77	0.519
1244.84	0.55
1252.91	0.524
1260.99	0.535
1269.06	0.605
1277.13	0.612
1285.2	0.589
1293.27	0.551
1301.34	0.503
1309.42	0.458
1317.49	0.433
1325.56	0.434
1333.63	0.429
1341.7	0.411
1349.78	0.371
1357.85	0.318
1365.92	0.325
1373.99	0.406
1382.06	0.529
1390.13	0.569
1398.21	0.57
1406.28	0.558
1414.35	0.522
1422.42	0.491
1430.49	0.406
1438.56	0.28
1446.64	0.238
1454.71	0.296
1462.78	0.341
1470.85	0.45
1478.92	0.48
1487	0.449
1495.07	0.414
1503.14	0.337
1511.21	0.279
1519.28	0.207
1527.35	0.186
1535.43	0.23
1543.5	0.315
1551.57	0.363
1559.64	0.372
1567.71	0.367
1575.78	0.337
1583.86	0.315
1591.93	0.251
1600	0.209
1608.07	0.152
1616.14	0.114
1624.21	0.106
1632.29	0.109
1640.36	0.124
1648.43	0.184
1656.5	0.234
1664.57	0.299
1672.65	0.372
1680.72	0.443
1688.79	0.514
1696.86	0.596
1704.93	0.638
1713	0.678
1721.08	0.73
1729.15	0.757
1737.22	0.79
1745.29	0.807
1753.36	0.825
1761.43	0.838
1769.51	0.851
1777.58	0.859
1785.65	0.87
1793.72	0.874
1801.79	0.877
1809.87	0.879
1817.94	0.882
1826.01	0.883
1834.08	0.886
1842.15	0.89
1850.22	0.892
1858.3	0.892
1866.37	0.893
1874.44	0.894
1882.51	0.896
1890.58	0.898
1898.65	0.9
1906.73	0.901
1914.8	0.902
1922.87	0.904
1930.94	0.905
1939.01	0.906
1947.08	0.908
1955.16	0.909
1963.23	0.91
1971.3	0.912
1979.37	0.913
1987.44	0.914
1995.52	0.916
2003.59	0.917
2011.66	0.919
2019.73	0.92
2027.8	0.921
2035.87	0.923
2043.95	0.924
2052.02	0.925
2060.09	0.927
2068.16	0.928
2076.23	0.929
2084.3	0.931
2092.38	0.932
2100.45	0.935
2108.52	0.937
2116.59	0.94
2124.66	0.943
2132.73	0.946
2140.81	0.948
2148.88	0.951
2156.95	0.954
2165.02	0.955
2173.09	0.958
2181.17	0.96
2189.24	0.963
2197.31	0.966
2205.38	0.97
2213.45	0.973
2221.52	0.975
2229.6	0.978
2237.67	0.981
2245.74	0.985
2253.81	0.987
2261.88	0.989
2269.95	0.99
2278.03	0.99
2286.1	0.986
2294.17	0.978
2302.24	0.963
2310.31	0.958
2318.39	0.954
2326.46	0.951
2334.53	0.951
2342.6	0.95
2350.67	0.948
2358.74	0.948
2366.82	0.951
2374.89	0.955
2382.96	0.959
2391.03	0.959
2399.1	0.958
2407.17	0.954
2415.25	0.946
2423.32	0.937
2431.39	0.909
2439.46	0.898
2447.53	0.893
2455.6	0.885
2463.68	0.877
2471.75	0.865
2479.82	0.858
2487.89	0.852
2495.96	0.846
2504.04	0.825
2512.11	0.805
2520.18	0.773
2528.25	0.75
2536.32	0.735
2544.39	0.732
2552.47	0.742
2560.54	0.788
2568.61	0.85
2576.68	0.863
2584.75	0.862
2592.82	0.856
2600.9	0.854
2608.97	0.85
2617.04	0.847
2625.11	0.842
2633.18	0.838
2641.25	0.835
2649.33	0.831
2657.4	0.824
2665.47	0.819
2673.54	0.815
2681.61	0.812
2689.69	0.811
2697.76	0.811
2705.83	0.805
2713.9	0.801
2721.97	0.8
2730.04	0.798
2738.12	0.801
2746.19	0.8
2754.26	0.79
2762.33	0.78
2770.4	0.77
2778.47	0.744
2786.55	0.72
2794.62	0.701
2802.69	0.692
2810.76	0.665
2818.83	0.618
2826.91	0.533
2834.98	0.381
2843.05	0.215
2851.12	0.137
2859.19	0.134
2867.26	0.137
2875.34	0.139
2883.41	0.134
2891.48	0.105
2899.55	0.08
2907.62	0.071
2915.69	0.067
2923.77	0.07
2931.84	0.08
2939.91	0.097
2947.98	0.106
2956.05	0.118
2964.12	0.139
2972.2	0.187
2980.27	0.246
2988.34	0.331
2996.41	0.391
3004.48	0.394
3012.56	0.385
3020.63	0.377
3028.7	0.358
3036.77	0.352
3044.84	0.361
3052.91	0.402
3060.99	0.462
3069.06	0.502
3077.13	0.511
3085.2	0.507
3093.27	0.499
3101.34	0.479
3109.42	0.452
3117.49	0.43
3125.56	0.396
3133.63	0.368
3141.7	0.33
3149.77	0.294
3157.85	0.264
3165.92	0.253
3173.99	0.249
3182.06	0.248
3190.13	0.249
3198.21	0.251
3206.28	0.253
3214.35	0.255
3222.42	0.249
3230.49	0.219
3238.56	0.191
3246.64	0.164
3254.71	0.129
3262.78	0.094
3270.85	0.083
3278.92	0.079
3286.99	0.083
3295.07	0.097
3303.14	0.117
3311.21	0.151
3319.28	0.195
3327.35	0.241
3335.43	0.302
3343.5	0.35
3351.57	0.412
3359.64	0.464
3367.71	0.52
3375.78	0.565
3383.86	0.6
3391.93	0.632
3400	0.659
3408.07	0.682
3416.14	0.703
3424.21	0.726
3432.29	0.74
3440.36	0.755
3448.43	0.77
3456.5	0.78
3464.57	0.786
3472.64	0.797
3480.72	0.809
3488.79	0.817
3496.86	0.823
