Infrared Spectrum: AMINOTHIOACETIC ACID
Formula: C2 H5 N O S
CAS: 758-10-1
State: SOLID (KBr PELLET)
Melting point: 154 C (DECOMPOSE)
Class: COBLENTZ
Instrument: Not specified, most likely a prism, grating, or hybrid spectrometer.
Sampling: TRANSMISSION
Resolution: 4
Origin: ARTHUR D. LITTLE, INC.
MICROMETERS	TRANSMITTANCE
2.01	0.478
2.0458	0.479
2.0816	0.481
2.1174	0.481
2.1532	0.482
2.189	0.481
2.22479	0.482
2.26059	0.487
2.29639	0.5
2.33219	0.505
2.36799	0.508
2.40379	0.514
2.43959	0.521
2.47539	0.53
2.51119	0.534
2.54699	0.536
2.58278	0.536
2.61858	0.546
2.65438	0.56
2.69018	0.563
2.72598	0.558
2.76178	0.536
2.79758	0.466
2.83338	0.427
2.86918	0.399
2.90498	0.38
2.94078	0.393
2.97657	0.439
3.01237	0.484
3.04817	0.485
3.08397	0.448
3.11977	0.32
3.15557	0.21
3.19137	0.203
3.22717	0.199
3.26297	0.202
3.29877	0.234
3.33456	0.257
3.37036	0.283
3.40616	0.274
3.44196	0.289
3.47776	0.329
3.51356	0.378
3.54936	0.43
3.58516	0.451
3.62096	0.468
3.65676	0.484
3.69256	0.497
3.72835	0.503
3.76415	0.512
3.79995	0.518
3.83575	0.534
3.87155	0.542
3.90735	0.545
3.94315	0.548
3.97895	0.558
4.01475	0.582
4.05055	0.592
4.08634	0.597
4.12214	0.607
4.15794	0.61
4.19374	0.621
4.22954	0.613
4.26534	0.615
4.30114	0.625
4.33694	0.641
4.37274	0.65
4.40854	0.656
4.44434	0.664
4.48013	0.667
4.51593	0.673
4.55173	0.677
4.58753	0.683
4.62333	0.686
4.65913	0.692
4.69493	0.695
4.73073	0.698
4.76653	0.707
4.80233	0.708
4.83812	0.711
4.87392	0.716
4.90972	0.711
4.94552	0.717
4.98132	0.722
5.01712	0.726
5.05292	0.731
5.08872	0.722
5.12452	0.731
5.16032	0.744
5.19612	0.745
5.23191	0.747
5.26771	0.754
5.30351	0.757
5.33931	0.757
5.37511	0.757
5.41091	0.76
5.44671	0.762
5.48251	0.765
5.51831	0.769
5.55411	0.774
5.5899	0.777
5.6257	0.774
5.6615	0.765
5.6973	0.754
5.7331	0.747
5.7689	0.731
5.8047	0.702
5.8405	0.652
5.8763	0.638
5.9121	0.625
5.9479	0.615
5.98369	0.618
6.01949	0.613
6.05529	0.61
6.09109	0.61
6.12689	0.615
6.16269	0.618
6.19849	0.603
6.23429	0.552
6.27009	0.49
6.30589	0.471
6.34168	0.414
6.37748	0.356
6.41328	0.257
6.44908	0.202
6.48488	0.144
6.52068	0.139
6.55648	0.216
6.59228	0.31
6.62808	0.41
6.66388	0.45
6.69968	0.453
6.73547	0.392
6.77127	0.222
6.80707	0.161
6.84287	0.239
6.87867	0.332
6.91447	0.398
6.95027	0.369
6.98607	0.34
7.02187	0.439
7.05767	0.479
7.09346	0.496
7.12926	0.494
7.16506	0.496
7.20086	0.521
7.23666	0.56
7.27246	0.591
7.30826	0.607
7.34406	0.616
7.37986	0.534
7.41566	0.5
7.45145	0.558
7.48725	0.621
7.52305	0.656
7.55885	0.679
7.59465	0.696
7.63045	0.705
7.66625	0.714
7.70205	0.708
7.73785	0.67
7.77365	0.656
7.80945	0.705
7.84524	0.729
7.88104	0.734
7.91684	0.736
7.95264	0.744
7.98844	0.753
8.02424	0.757
8.06004	0.766
8.09584	0.771
8.13164	0.778
8.16744	0.784
8.20323	0.791
8.23903	0.794
8.27483	0.799
8.31063	0.802
8.34643	0.805
8.38223	0.806
8.41803	0.809
8.45383	0.809
8.48963	0.811
8.52543	0.811
8.56123	0.811
8.59702	0.809
8.63282	0.809
8.66862	0.809
8.70442	0.809
8.74022	0.809
8.77602	0.809
8.81182	0.809
8.84762	0.809
8.88342	0.793
8.91922	0.769
8.95501	0.723
8.99081	0.656
9.02661	0.514
9.06241	0.39
9.09821	0.362
9.13401	0.386
9.16981	0.389
9.20561	0.307
9.24141	0.285
9.27721	0.268
9.31301	0.28
9.3488	0.322
9.3846	0.411
9.4204	0.479
9.4562	0.518
9.492	0.563
9.5278	0.591
9.5636	0.628
9.5994	0.647
9.6352	0.661
9.671	0.674
9.70679	0.686
9.74259	0.698
9.77839	0.707
9.81419	0.725
9.84999	0.738
9.88579	0.748
9.92159	0.757
9.95739	0.766
9.99319	0.771
10.029	0.771
10.0648	0.771
10.1006	0.766
10.1364	0.754
10.1722	0.728
10.208	0.689
10.2438	0.61
10.2796	0.482
10.3154	0.323
10.3512	0.221
10.387	0.215
10.4228	0.251
10.4586	0.343
10.4944	0.445
10.5302	0.514
10.566	0.56
10.6018	0.601
10.6376	0.63
10.6734	0.659
10.7092	0.684
10.745	0.698
10.7808	0.71
10.8166	0.719
10.8524	0.726
10.8882	0.728
10.924	0.734
10.9598	0.741
10.9956	0.754
11.0314	0.762
11.0672	0.774
11.103	0.778
11.1388	0.78
11.1746	0.78
11.2104	0.783
11.2462	0.786
11.282	0.787
11.3178	0.78
11.3536	0.769
11.3894	0.72
11.4251	0.64
11.4609	0.573
11.4967	0.564
11.5325	0.576
11.5683	0.588
11.6041	0.635
11.6399	0.679
11.6757	0.713
11.7115	0.722
11.7473	0.726
11.7831	0.732
11.8189	0.739
11.8547	0.744
11.8905	0.748
11.9263	0.754
11.9621	0.76
11.9979	0.768
12.0337	0.775
12.0695	0.78
12.1053	0.786
12.1411	0.79
12.1769	0.794
12.2127	0.8
12.2485	0.802
12.2843	0.799
12.3201	0.794
12.3559	0.786
12.3917	0.781
12.4275	0.784
12.4633	0.79
12.4991	0.797
12.5349	0.8
12.5707	0.803
12.6065	0.808
12.6423	0.809
12.6781	0.814
12.7139	0.815
12.7497	0.817
12.7855	0.82
12.8213	0.823
12.8571	0.823
12.8929	0.821
12.9287	0.818
12.9645	0.812
13.0003	0.806
13.0361	0.802
13.0719	0.805
13.1077	0.818
13.1435	0.823
13.1793	0.826
13.2151	0.827
13.2509	0.829
13.2867	0.829
13.3225	0.83
13.3583	0.83
13.3941	0.833
13.4299	0.832
13.4657	0.832
13.5015	0.833
13.5373	0.835
13.5731	0.835
13.6089	0.835
13.6447	0.835
13.6805	0.833
13.7163	0.832
13.7521	0.832
13.7879	0.832
13.8237	0.832
13.8595	0.83
13.8953	0.832
13.9311	0.833
13.9669	0.835
14.0027	0.833
14.0385	0.832
14.0743	0.829
14.1101	0.83
14.1459	0.829
14.1817	0.826
14.2175	0.824
14.2533	0.821
14.2891	0.818
14.3249	0.821
14.3607	0.821
14.3965	0.817
14.4323	0.817
14.4681	0.814
14.5039	0.812
