Infrared Spectrum: 1,2,3,4-Tetrahydronaphthalene-d12
Formula: C 10 D 12
CAS: 75840-23-2
State: gas
Instrument: HP-GC/MS/IRD
Origin: NIST Mass Spectrometry Data Center
1/CM	ABSORBANCE
550	0.0006435
562	0.0029979
574	0.0053973
586	0.0022041
598	0.000333
610	0.0001539
622	5.67e-05
634	0.0001233
646	0.0001575
658	4.95e-05
670	2.16e-05
682	3.06e-05
694	0.0001485
706	0.0001692
718	0.0003348
730	0.0002772
742	3.6e-05
754	0.0001305
766	0.0001206
778	8.64e-05
790	0.0001521
802	0.0001242
814	0.0001143
826	0.0003717
838	0.0004329
850	0.0004671
862	0.0004374
874	0.0003708
886	0.0001764
898	8.1e-05
910	9.9e-05
922	9.9e-05
934	8.37e-05
946	0.0001395
958	0.0001629
970	3.15e-05
982	0.0001458
994	0.0003996
1006	0.0004815
1018	0.0005814
1030	0.000702
1042	0.0003753
1054	0.0005355
1066	0.0007137
1078	0.0005994
1090	0.00036
1102	0.000216
1114	0.0002169
1126	0.0001917
1138	0.0002772
1150	0.0004662
1162	0.0004239
1174	0.0003807
1186	0.0005337
1198	0.0004482
1210	0.0002061
1222	0.0001296
1234	6.93e-05
1246	9.09e-05
1258	0.0002232
1270	0.0003924
1282	0.0004437
1294	0.0002205
1306	0.0001125
1318	0.0001719
1330	0.0002565
1342	0.0003555
1354	0.0004779
1366	0.0004689
1378	0.0004086
1390	0.0011223
1402	0.0016938
1414	0.0007317
1426	0.0002241
1438	0.0001476
1450	7.92e-05
1462	7.92e-05
1474	3.33e-05
1486	7.2e-05
1498	0.0001386
1510	0.0001683
1522	0.0001557
1534	0.0002187
1546	0.0008037
1558	0.0010629
1570	0.0006687
1582	0.0004563
1594	0.0003753
1606	0.0003384
1618	0.0001359
1630	6.75e-05
1642	2.61e-05
1654	5.67e-05
1666	8.19e-05
1678	5.67e-05
1690	3.33e-05
1702	3.6e-05
1714	3.78e-05
1726	3.96e-05
1738	4.14e-05
1750	5.13e-05
1762	6.3e-06
1774	5.04e-05
1786	5.94e-05
1798	4.95e-05
1810	5.49e-05
1822	5.85e-05
1834	7.56e-05
1846	3.51e-05
1858	5.76e-05
1870	9.81e-05
1882	5.13e-05
1894	4.5e-05
1906	3.42e-05
1918	3.42e-05
1930	5.67e-05
1942	4.77e-05
1954	6.12e-05
1966	9.63e-05
1978	0.0001089
1990	0.0001467
2002	0.0001332
2014	0.0001989
2026	0.0002925
2038	0.0004122
2050	0.0006147
2062	0.000873
2074	0.0013005
2086	0.0024453
2098	0.004815
2110	0.0067878
2122	0.0053388
2134	0.0036315
2146	0.0028881
2158	0.0024633
2170	0.0027486
2182	0.0041094
2194	0.0067761
2206	0.0089676
2218	0.0070767
2230	0.0036909
2242	0.0024768
2254	0.0025812
2266	0.0039852
2278	0.0048519
2290	0.0038304
2302	0.0016884
2314	0.0005544
2326	0.0003087
2338	0.000243
2350	0.0002151
2362	0.0001854
2374	0.0002043
2386	0.0002556
2398	0.0002988
2410	0.0002124
2422	0.0001881
2434	0.0001314
2446	9.72e-05
2458	9.18e-05
2470	3.51e-05
2482	4.05e-05
2494	3.78e-05
2506	4.77e-05
2518	4.59e-05
2530	5.4e-06
2542	5.76e-05
2554	4.41e-05
2566	5.94e-05
2578	7.02e-05
2590	8.1e-05
2602	9.72e-05
2614	8.55e-05
2626	2.52e-05
2638	6.84e-05
2650	4.14e-05
2662	4.41e-05
2674	3.15e-05
2686	2.7e-05
2698	5.76e-05
2710	9.9e-06
2722	6.21e-05
2734	5.22e-05
2746	4.14e-05
2758	3.6e-05
2770	6.39e-05
2782	3.15e-05
2794	9e-05
2806	4.59e-05
2818	9.45e-05
2830	5.31e-05
2842	9.27e-05
2854	4.05e-05
2866	7.02e-05
2878	0.0001305
2890	0.0001818
2902	0.0001773
2914	0.0002232
2926	0.0003321
2938	0.0002538
2950	0.0001584
2962	0.0001224
2974	8.55e-05
2986	0.0001017
2998	7.11e-05
3010	5.58e-05
3022	9.54e-05
3034	0.0001017
3046	5.04e-05
3058	0.0001143
3070	9.09e-05
3082	8.01e-05
3094	9.36e-05
3106	0.0001188
3118	0.0001584
3130	0.0001386
3142	0.0001692
3154	0.0001728
3166	0.0001863
3178	0.0001359
3190	0.0001674
3202	0.0001197
3214	0.0001404
3226	0.0001386
3238	0.0001458
3250	7.02e-05
3262	0.0001125
3274	0.0001485
3286	0.0001629
3298	0.0001341
3310	9.45e-05
3322	0.0001143
3334	8.73e-05
3346	2.88e-05
3358	7.56e-05
3370	5.22e-05
3382	7.11e-05
3394	9.18e-05
3406	0.0001071
3418	0.0001764
3430	0.0001017
3442	0.0001179
3454	0.0001332
3466	0.0001287
3478	6.66e-05
3490	0.0001017
3502	0.0001251
3514	6.75e-05
3526	0.0001188
3538	9.99e-05
3550	0.0001062
3562	5.85e-05
3574	9.54e-05
3586	6.03e-05
3598	7.83e-05
3610	5.58e-05
3622	9.99e-05
3634	0
3646	7.74e-05
3658	7.47e-05
3670	0.0001116
3682	8.91e-05
3694	8.82e-05
3706	0.0001197
3718	0.000117
3730	0.0001035
3742	4.68e-05
3754	7.38e-05
3766	4.14e-05
3778	0.0001035
3790	0.0001845
3802	0.0001764
3814	0.0001341
3826	0.000117
3838	9.9e-05
