Infrared Spectrum: 2,5-Difluorobenzyl alcohol
Formula: C 7 H 6 F 2 O
CAS: 75853-20-2
State: gas
Origin: EPA-IR VAPOR PHASE LIBRARY
1/CM	ABSORBANCE
549.8	0.006228
559.445	0.007688
569.09	0.007388
578.734	0.004958
588.379	0.003338
598.024	0.002518
607.669	0.002478
617.313	0.003048
626.958	0.003718
636.603	0.002948
646.248	0.002248
655.893	0.001918
665.537	0.001438
675.182	0.001908
684.827	0.002838
694.472	0.005908
704.116	0.016268
713.761	0.027218
723.406	0.027678
733.051	0.026728
742.695	0.029428
752.34	0.025188
761.985	0.018608
771.63	0.016208
781.275	0.017108
790.919	0.019718
800.564	0.028258
810.209	0.044178
819.854	0.031218
829.498	0.016068
839.143	0.007008
848.788	0.007318
858.433	0.015378
868.078	0.029788
877.722	0.037748
887.367	0.020318
897.012	0.008448
906.657	0.005698
916.301	0.006308
925.946	0.009118
935.591	0.014728
945.236	0.018418
954.88	0.018348
964.525	0.016038
974.17	0.013938
983.815	0.013268
993.46	0.015398
1003.1	0.021878
1012.75	0.034068
1022.39	0.053348
1032.04	0.063768
1041.68	0.051528
1051.33	0.028498
1060.97	0.014808
1070.62	0.010808
1080.26	0.008968
1089.91	0.009138
1099.55	0.008248
1109.2	0.008788
1118.84	0.013428
1128.49	0.029098
1138.13	0.036418
1147.78	0.030158
1157.42	0.017988
1167.07	0.023748
1176.71	0.046228
1186.36	0.075708
1196	0.089968
1205.64	0.078868
1215.29	0.065588
1224.93	0.057348
1234.58	0.051728
1244.22	0.045308
1253.87	0.034638
1263.51	0.028718
1273.16	0.033838
1282.8	0.029788
1292.45	0.016768
1302.09	0.011078
1311.74	0.009428
1321.38	0.009018
1331.03	0.009278
1340.67	0.010138
1350.32	0.012078
1359.96	0.016018
1369.61	0.022098
1379.25	0.026678
1388.9	0.024918
1398.54	0.020188
1408.18	0.019248
1417.83	0.028018
1427.47	0.041868
1437.12	0.039888
1446.76	0.023288
1456.41	0.024138
1466.05	0.036448
1475.7	0.059968
1485.34	0.129578
1494.99	0.206658
1504.63	0.173058
1514.28	0.066708
1523.92	0.020588
1533.57	0.009278
1543.21	0.005858
1552.86	0.004558
1562.5	0.004068
1572.15	0.004628
1581.79	0.006488
1591.44	0.008288
1601.08	0.008848
1610.73	0.007498
1620.37	0.005908
1630.01	0.004688
1639.66	0.003258
1649.3	0.002378
1658.95	0.001848
1668.59	0.001658
1678.24	0.001698
1687.88	0.001518
1697.53	0.001448
1707.17	0.0013608
1716.82	0.001558
1726.46	0.002558
1736.11	0.003738
1745.75	0.003768
1755.4	0.002658
1765.04	0.001498
1774.69	0.0010475
1784.33	0.0007375
1793.98	0.0009756
1803.62	0.0010575
1813.27	0.0010904
1822.91	0.0012027
1832.55	0.001808
1842.2	0.003478
1851.84	0.004628
1861.49	0.003558
1871.13	0.001758
1880.78	0.0009712
1890.42	0.000831
1900.07	0.0006861
1909.71	0.0006314
1919.36	0.0007443
1929	0.0007897
1938.65	0.0008582
1948.29	0.0009961
1957.94	0.0011325
1967.58	0.001388
1977.23	0.001608
1986.87	0.001718
1996.52	0.001718
2006.16	0.001638
2015.81	0.001628
2025.45	0.001698
2035.1	0.001708
2044.74	0.001598
2054.38	0.001508
2064.03	0.0012452
2073.67	0.0011217
2083.32	0.0009568
2092.96	0.0008669
2102.61	0.0006927
2112.25	0.000761
2121.9	0.0007155
2131.54	0.0009195
2141.19	0.0008698
2150.83	0.0008944
2160.48	0.0008295
2170.12	0.0007701
2179.77	0.0007712
2189.41	0.0006744
2199.06	0.0006627
2208.7	0.0008208
2218.35	0.0008559
2227.99	0.0008186
2237.64	0.0009337
2247.28	0.0007858
2256.92	0.0007769
2266.57	0.0009203
2276.21	0.0011272
2285.86	0.0010574
2295.5	0.0008786
2305.15	0.0009689
2314.79	0.0010599
2324.44	0.0010513
2334.08	0.0010245
2343.73	0.0009466
2353.37	0.0009099
2363.02	0.0009869
2372.66	0.0010347
2382.31	0.0010672
2391.95	0.0011728
2401.6	0.0012477
2411.24	0.001538
2420.89	0.001408
2430.53	0.001408
2440.18	0.001418
2449.82	0.001588
2459.47	0.001568
2469.11	0.0013586
2478.75	0.0013351
2488.4	0.0011897
2498.04	0.0010147
2507.69	0.000987
2517.33	0.0010601
2526.98	0.0010486
2536.62	0.0009942
2546.27	0.0009063
2555.91	0.0008865
2565.56	0.0007428
2575.2	0.000776
2584.85	0.0006483
2594.49	0.000647
2604.14	0.0006928
2613.78	0.0005444
2623.43	0.0006552
2633.07	0.0005301
2642.72	0.0007204
2652.36	0.0006326
2662.01	0.0007445
2671.65	0.0007449
2681.29	0.0007739
2690.94	0.0008041
2700.58	0.0008942
2710.23	0.0009742
2719.87	0.0012416
2729.52	0.0012468
2739.16	0.0013561
2748.81	0.001508
2758.45	0.0013213
2768.1	0.0013633
2777.74	0.0013197
2787.39	0.0013263
2797.03	0.001668
2806.68	0.001848
2816.32	0.002008
2825.97	0.002448
2835.61	0.003358
2845.26	0.003938
2854.9	0.005278
2864.55	0.007128
2874.19	0.009958
2883.84	0.013638
2893.48	0.015948
2903.12	0.014668
2912.77	0.012448
2922.41	0.011448
2932.06	0.012238
2941.7	0.013218
2951.35	0.012798
2960.99	0.011448
2970.64	0.009638
2980.28	0.007878
2989.93	0.005978
2999.57	0.003878
3009.22	0.002368
3018.86	0.001868
3028.51	0.001628
3038.15	0.001788
3047.8	0.002098
3057.44	0.002738
3067.09	0.002868
3076.73	0.002398
3086.38	0.002398
3096.02	0.002108
3105.67	0.0011864
3115.31	0.0010512
3124.95	0.0008035
3134.6	0.0007901
3144.24	0.0003122
3153.89	0.0003172
3163.53	0.0005556
3173.18	0.00047716
3182.82	0.00040859
3192.47	0.00044986
3202.11	0.00043079
3211.76	0.0005332
3221.4	0.0005656
3231.05	0.000131
3240.69	0.000215
3250.34	0.000397905
3259.98	0.000232
3269.63	0.0005067
3279.27	0.00038398
3288.92	0.000274
3298.56	0.0003742
3308.21	0.0005267
3317.85	0.0005206
3327.49	0.0007301
3337.14	0.00042624
3346.78	0.0005361
3356.43	0.0007844
3366.07	0.00056
3375.72	0.0007007
3385.36	0.0004708
3395.01	0.0005525
3404.65	0.000645
3414.3	0.0010873
3423.94	0.00097
3433.59	0.0008265
3443.23	0.0007004
3452.88	0.0009795
3462.52	0.0008496
3472.17	0.0007959
3481.81	0.0011378
3491.46	0.0009099
3501.1	0.0008932
3510.75	0.0009793
3520.39	0.0008858
3530.04	0.0010321
3539.68	0.0006684
3549.32	0.0009311
3558.97	0.0006568
3568.61	0.0008589
3578.26	0.0009514
3587.9	0.0008993
3597.55	0.001738
3607.19	0.002298
3616.84	0.003148
3626.48	0.004208
3636.13	0.006288
3645.77	0.010808
3655.42	0.017138
3665.06	0.017128
3674.71	0.013078
3684.35	0.009198
3694	0.006208
3703.64	0.003958
3713.29	0.002448
3722.93	0.001808
3732.58	0.001468
3742.22	0.0011683
3751.86	0.0010622
3761.51	0.0012589
3771.15	0.0008029
3780.8	0.0010096
3790.44	0.0008849
3800.09	0.0009177
3809.73	0.0012586
3819.38	0.001188
3829.02	0.0010587
3838.67	0.0011387
3848.31	0.0010967
3857.96	0.0011745
3867.6	0.0011262
3877.25	0.0010219
3886.89	0.0010551
3896.54	0.0007912
3906.18	0.0009238
3915.83	0.0010784
3925.47	0.0005834
3935.12	0.000789
3944.76	0.0006178
3954.41	0.0007341
3964.05	0.0006202
3973.69	0.0005087
3983.34	0.0007659
3992.98	0.0005664
