Infrared Spectrum: 2,3-Difluorobenzyl alcohol
Formula: C 7 H 6 F 2 O
CAS: 75853-18-8
State: gas
Origin: EPA-IR VAPOR PHASE LIBRARY
1/CM	ABSORBANCE
549.8	0.00463
559.445	0.00383
569.09	0.00391
578.734	0.0019739
588.379	0.00249
598.024	0.0019608
607.669	0.00259
617.313	0.0024
626.958	0.0033
636.603	0.00632
646.248	0.00797
655.893	0.00856
665.537	0.00914
675.182	0.00893
684.827	0.00817
694.472	0.00773
704.116	0.00638
713.761	0.0047
723.406	0.00296
733.051	0.0019589
742.695	0.0019995
752.34	0.0015868
761.985	0.0015929
771.63	0.0013873
781.275	0.0016106
790.919	0.0013473
800.564	0.00224
810.209	0.0021473
819.854	0.00398
829.498	0.00673
839.143	0.01938
848.788	0.04009
858.433	0.03092
868.078	0.01662
877.722	0.00639
887.367	0.00449
897.012	0.00436
906.657	0.00406
916.301	0.0055
925.946	0.00726
935.591	0.01083
945.236	0.01886
954.88	0.02602
964.525	0.02647
974.17	0.02367
983.815	0.02571
993.46	0.02995
1003.1	0.02836
1012.75	0.02092
1022.39	0.01676
1032.04	0.01653
1041.68	0.018
1051.33	0.01868
1060.97	0.01472
1070.62	0.01192
1080.26	0.00943
1089.91	0.00978
1099.55	0.01229
1109.2	0.03154
1118.84	0.07433
1128.49	0.07627
1138.13	0.02353
1147.78	0.0067
1157.42	0.00591
1167.07	0.00638
1176.71	0.00673
1186.36	0.00627
1196	0.00522
1205.64	0.00454
1215.29	0.00553
1224.93	0.00435
1234.58	0.00397
1244.22	0.00602
1253.87	0.00508
1263.51	0.00478
1273.16	0.00585
1282.8	0.00631
1292.45	0.00898
1302.09	0.01611
1311.74	0.03284
1321.38	0.04661
1331.03	0.03623
1340.67	0.0179
1350.32	0.0126
1359.96	0.01501
1369.61	0.01864
1379.25	0.01827
1388.9	0.01402
1398.54	0.01117
1408.18	0.01006
1417.83	0.01198
1427.47	0.02074
1437.12	0.03291
1446.76	0.03871
1456.41	0.04309
1466.05	0.04273
1475.7	0.02761
1485.34	0.01345
1494.99	0.008
1504.63	0.00777
1514.28	0.0075
1523.92	0.00667
1533.57	0.00555
1543.21	0.00549
1552.86	0.00615
1562.5	0.00898
1572.15	0.01692
1581.79	0.03544
1591.44	0.05539
1601.08	0.06051
1610.73	0.05671
1620.37	0.0679
1630.01	0.05562
1639.66	0.02652
1649.3	0.01253
1658.95	0.00735
1668.59	0.00597
1678.24	0.00554
1687.88	0.00462
1697.53	0.00389
1707.17	0.00269
1716.82	0.00236
1726.46	0.0020375
1736.11	0.0019171
1745.75	0.0015165
1755.4	0.00132552
1765.04	0.00124005
1774.69	0.001124
1784.33	0.001072
1793.98	0.0011684
1803.62	0.001093
1813.27	0.001035
1822.91	0.0011522
1832.55	0.001004
1842.2	0.001133
1851.84	0.001032
1861.49	0.0011597
1871.13	0.001
1880.78	0.000986
1890.42	0.000945
1900.07	0.000803
1909.71	0.0011
1919.36	0.000951
1929	0.001086
1938.65	0.00124188
1948.29	0.0011335
1957.94	0.001124
1967.58	0.001226
1977.23	0.00124104
1986.87	0.00123258
1996.52	0.001086
2006.16	0.0011934
2015.81	0.001106
2025.45	0.000932
2035.1	0.001086
2044.74	0.001168
2054.38	0.00125427
2064.03	0.0011778
2073.67	0.0014413
2083.32	0.0016773
2092.96	0.0016099
2102.61	0.0014826
2112.25	0.0014934
2121.9	0.0015329
2131.54	0.00130971
2141.19	0.001191
2150.83	0.001188
2160.48	0.001089
2170.12	0.000961
2179.77	0.0009
2189.41	0.0011865
2199.06	0.000951
2208.7	0.001084
2218.35	0.000729
2227.99	0.00096
2237.64	0.00122253
2247.28	0.0013509
2256.92	0.001333
2266.57	0.0014258
2276.21	0.00125861
2285.86	0.00123794
2295.5	0.0012464
2305.15	0.0012996
2314.79	0.001044
2324.44	0.0014191
2334.08	0.000903
2343.73	0.0011527
2353.37	0.00125938
2363.02	0.0012186
2372.66	0.001108
2382.31	0.000954
2391.95	0.0011968
2401.6	0.001071
2411.24	0.0016931
2420.89	0.0017855
2430.53	0.0020931
2440.18	0.0019872
2449.82	0.0014043
2459.47	0.0013241
2469.11	0.0012119
2478.75	0.001103
2488.4	0.000833
2498.04	0.001122
2507.69	0.000916
2517.33	0.001108
2526.98	0.001048
2536.62	0.000723
2546.27	0.000913
2555.91	0.0013385
2565.56	0.001058
2575.2	0.00130711
2584.85	0.00125341
2594.49	0.001107
2604.14	0.00125622
2613.78	0.00107
2623.43	0.000911
2633.07	0.0011631
2642.72	0.0011617
2652.36	0.000974
2662.01	0.0011651
2671.65	0.00078
2681.29	0.001061
2690.94	0.0013347
2700.58	0.001036
2710.23	0.00122585
2719.87	0.0011591
2729.52	0.001013
2739.16	0.0014207
2748.81	0.0015299
2758.45	0.00125213
2768.1	0.0014269
2777.74	0.0015864
2787.39	0.0019989
2797.03	0.0020687
2806.68	0.0019721
2816.32	0.0021383
2825.97	0.00251
2835.61	0.00318
2845.26	0.00374
2854.9	0.00484
2864.55	0.00597
2874.19	0.00756
2883.84	0.00971
2893.48	0.0097
2903.12	0.00919
2912.77	0.00849
2922.41	0.0088
2932.06	0.0089
2941.7	0.00849
2951.35	0.0071
2960.99	0.00601
2970.64	0.00487
2980.28	0.00343
2989.93	0.0020938
2999.57	0.0021325
3009.22	0.0016996
3018.86	0.00125683
3028.51	0.0011665
3038.15	0.0011787
3047.8	0.001029
3057.44	0.001088
3067.09	0.0016782
3076.73	0.0014078
3086.38	0.0018875
3096.02	0.0016611
3105.67	0.0014356
3115.31	0.000809
3124.95	0.000382
3134.6	0.000839
3144.24	0.000861
3153.89	0.000683
3163.53	0.000674
3173.18	0.000671
3182.82	0.000703
3192.47	0.00099
3202.11	0.000843
3211.76	0.000995
3221.4	0.000245
3231.05	0.00082
3240.69	0.001335
3250.34	0.000642
3259.98	0.000523
3269.63	0.000334
3279.27	0.000757
3288.92	0.0008
3298.56	0.000314
3308.21	0.000759
3317.85	0.000842
3327.49	0.000453
3337.14	0.00032
3346.78	0.000897
3356.43	0.001048
3366.07	0.000847
3375.72	0.000682
3385.36	0.000941
3395.01	0.000532
3404.65	0.000493
3414.3	0.000943
3423.94	0.0011378
3433.59	0.0016999
3443.23	0.000762
3452.88	0.001102
3462.52	0.000775
3472.17	0.0011921
3481.81	0.000677
3491.46	0.0012089
3501.1	0.000906
3510.75	0.000766
3520.39	0.000612
3530.04	0.0013469
3539.68	0.000324
3549.32	0.001088
3558.97	0.000996
3568.61	0.0011848
3578.26	0.000804
3587.9	0.001033
3597.55	0.0016169
3607.19	0.0014775
3616.84	0.0019791
3626.48	0.00269
3636.13	0.00421
3645.77	0.00616
3655.42	0.00832
3665.06	0.00763
3674.71	0.00666
3684.35	0.00431
3694	0.00281
3703.64	0.0017454
3713.29	0.0014027
3722.93	0.00113
3732.58	0.00130802
3742.22	0.000598
3751.86	0.000675
3761.51	0.000492
3771.15	0.000973
3780.8	0.001049
3790.44	0.001111
3800.09	0.000957
3809.73	0.001066
3819.38	0.0014829
3829.02	0.000692
3838.67	0.0015804
3848.31	0.000584
3857.96	0.001089
3867.6	0.000771
3877.25	0.001016
3886.89	0.0013753
3896.54	0.000533
3906.18	0.0013867
3915.83	0.000977
3925.47	0.0011865
3935.12	0.000554
3944.76	0.001113
3954.41	0.000923
3964.05	0.000788
3973.69	0.000863
3983.34	0.000606
3992.98	0.000787
