Infrared Spectrum: S-Ethyldipropylthiocarbamate
Formula: C 9 H 19 N O S
CAS: 759-94-4
State: gas
Origin: EPA-IR VAPOR PHASE LIBRARY
1/CM	ABSORBANCE
549.8	0.001905
559.445	0.0011892
569.09	0.0008272
578.734	0.000917
588.379	0.0009577
598.024	0.0007843
607.669	0.001245
617.313	0.001345
626.958	0.001245
636.603	0.001915
646.248	0.004235
655.893	0.009005
665.537	0.012745
675.182	0.009695
684.827	0.005395
694.472	0.004345
704.116	0.006415
713.761	0.010015
723.406	0.007655
733.051	0.005695
742.695	0.007305
752.34	0.010675
761.985	0.011135
771.63	0.009785
781.275	0.007465
790.919	0.006045
800.564	0.004315
810.209	0.002785
819.854	0.002475
829.498	0.003035
839.143	0.004935
848.788	0.005825
858.433	0.005315
868.078	0.006805
877.722	0.009075
887.367	0.011895
897.012	0.012695
906.657	0.009145
916.301	0.006845
925.946	0.008855
935.591	0.013005
945.236	0.016255
954.88	0.013295
964.525	0.010775
974.17	0.010125
983.815	0.006495
993.46	0.004195
1003.1	0.004105
1012.75	0.004725
1022.39	0.006415
1032.04	0.007665
1041.68	0.009185
1051.33	0.012375
1060.97	0.014405
1070.62	0.018705
1080.26	0.027885
1089.91	0.042015
1099.55	0.069005
1109.2	0.099425
1118.84	0.112135
1128.49	0.062195
1138.13	0.022325
1147.78	0.011635
1157.42	0.008755
1167.07	0.009265
1176.71	0.011715
1186.36	0.020065
1196	0.041585
1205.64	0.080495
1215.29	0.122755
1224.93	0.095695
1234.58	0.038755
1244.22	0.021185
1253.87	0.021395
1263.51	0.031075
1273.16	0.034195
1282.8	0.030485
1292.45	0.031775
1302.09	0.030195
1311.74	0.026275
1321.38	0.021535
1331.03	0.020905
1340.67	0.026095
1350.32	0.028715
1359.96	0.034245
1369.61	0.045315
1379.25	0.057805
1388.9	0.071905
1398.54	0.075115
1408.18	0.054075
1417.83	0.033715
1427.47	0.023975
1437.12	0.024565
1446.76	0.030345
1456.41	0.038045
1466.05	0.039365
1475.7	0.025695
1485.34	0.012985
1494.99	0.008335
1504.63	0.006495
1514.28	0.005335
1523.92	0.004585
1533.57	0.004085
1543.21	0.003695
1552.86	0.003375
1562.5	0.003485
1572.15	0.003675
1581.79	0.003985
1591.44	0.004295
1601.08	0.005085
1610.73	0.006395
1620.37	0.009095
1630.01	0.013825
1639.66	0.020655
1649.3	0.043265
1658.95	0.130645
1668.59	0.273465
1678.24	0.189725
1687.88	0.043785
1697.53	0.015475
1707.17	0.009105
1716.82	0.006425
1726.46	0.005065
1736.11	0.004175
1745.75	0.003515
1755.4	0.003015
1765.04	0.002575
1774.69	0.002165
1784.33	0.001765
1793.98	0.001525
1803.62	0.001315
1813.27	0.0011611
1822.91	0.0010931
1832.55	0.0010043
1842.2	0.0009894
1851.84	0.0008805
1861.49	0.0007575
1871.13	0.0007309
1880.78	0.0006374
1890.42	0.0008102
1900.07	0.0006474
1909.71	0.0006689
1919.36	0.0007262
1929	0.0007879
1938.65	0.0007095
1948.29	0.0006582
1957.94	0.0005909
1967.58	0.0005504
1977.23	0.0006596
1986.87	0.000508
1996.52	0.0006682
2006.16	0.0007652
2015.81	0.0006314
2025.45	0.0006065
2035.1	0.0006567
2044.74	0.0007592
2054.38	0.0008339
2064.03	0.0008421
2073.67	0.0007386
2083.32	0.0006836
2092.96	0.0007407
2102.61	0.0006184
2112.25	0.0005994
2121.9	0.0007026
2131.54	0.0006959
2141.19	0.0006542
2150.83	0.0006139
2160.48	0.0006594
2170.12	0.0007651
2179.77	0.0007553
2189.41	0.0007625
2199.06	0.0007396
2208.7	0.0007629
2218.35	0.0008498
2227.99	0.0009278
2237.64	0.0008866
2247.28	0.0007738
2256.92	0.0006507
2266.57	0.0005265
2276.21	0.0005873
2285.86	0.0005752
2295.5	0.0006588
2305.15	0.0006911
2314.79	0.0008032
2324.44	0.0008765
2334.08	0.0010994
2343.73	0.0009915
2353.37	0.0008126
2363.02	0.000769
2372.66	0.0007597
2382.31	0.0008938
2391.95	0.0011446
2401.6	0.0011004
2411.24	0.0012001
2420.89	0.0012048
2430.53	0.0010285
2440.18	0.0008574
2449.82	0.0007548
2459.47	0.0007682
2469.11	0.0007508
2478.75	0.0009207
2488.4	0.0010203
2498.04	0.0009023
2507.69	0.0009583
2517.33	0.0008271
2526.98	0.0008039
2536.62	0.0008793
2546.27	0.0007049
2555.91	0.0006965
2565.56	0.0008074
2575.2	0.0007026
2584.85	0.0007601
2594.49	0.000797
2604.14	0.0009145
2613.78	0.0009062
2623.43	0.0008482
2633.07	0.0009495
2642.72	0.0008925
2652.36	0.0011122
2662.01	0.001335
2671.65	0.001645
2681.29	0.001905
2690.94	0.001935
2700.58	0.001885
2710.23	0.002015
2719.87	0.002225
2729.52	0.002725
2739.16	0.003295
2748.81	0.003435
2758.45	0.003115
2768.1	0.003065
2777.74	0.003465
2787.39	0.003735
2797.03	0.004505
2806.68	0.004875
2816.32	0.005825
2825.97	0.007045
2835.61	0.008545
2845.26	0.010535
2854.9	0.014535
2864.55	0.024275
2874.19	0.042625
2883.84	0.061895
2893.48	0.053065
2903.12	0.041275
2912.77	0.045495
2922.41	0.061245
2932.06	0.088475
2941.7	0.104395
2951.35	0.081295
2960.99	0.085495
2970.64	0.133045
2980.28	0.111275
2989.93	0.050795
2999.57	0.027325
3009.22	0.017065
3018.86	0.012575
3028.51	0.009665
3038.15	0.007795
3047.8	0.006435
3057.44	0.005465
3067.09	0.004525
3076.73	0.003935
3086.38	0.003385
3096.02	0.003085
3105.67	0.002965
3115.31	0.002765
3124.95	0.002605
3134.6	0.002265
3144.24	0.002255
3153.89	0.001825
3163.53	0.001695
3173.18	0.001955
3182.82	0.001685
3192.47	0.001565
3202.11	0.001465
3211.76	0.0011471
3221.4	0.0010062
3231.05	0.0011951
3240.69	0.0010045
3250.34	0.0008136
3259.98	0.0007173
3269.63	0.0008834
3279.27	0.0008494
3288.92	0.0008357
3298.56	0.001375
3308.21	0.001695
3317.85	0.002385
3327.49	0.001995
3337.14	0.001365
3346.78	0.0009538
3356.43	0.0008531
3366.07	0.0005685
3375.72	0.0004675
3385.36	0.0001929
3395.01	0.0006382
3404.65	0.0005674
3414.3	0.000464
3423.94	0.0004786
3433.59	0.0004903
3443.23	0.0003724
3452.88	0.0004436
3462.52	0.00026929
3472.17	0.000144
3481.81	0.0003741
3491.46	0.0004312
3501.1	0.000122
3510.75	0.00026346
3520.39	0.0003287
3530.04	0.0006019
3539.68	0.0001551
3549.32	0.0001639
3558.97	0.0003754
3568.61	0.00026474
3578.26	0.000325
3587.9	0.000244
3597.55	0.0003639
3607.19	0.00032352
3616.84	0.0001716
3626.48	0.0004036
3636.13	0.0002104
3645.77	0.0004343
3655.42	0.000246747
3665.06	0.000249454
3674.71	0.0004308
3684.35	0.0002001
3694	0.0004991
3703.64	0.00030586
3713.29	0.0003177
3722.93	0.0005856
3732.58	0.0003763
3742.22	0.0003895
3751.86	0.0004469
3761.51	0.0005584
3771.15	0.0004635
3780.8	0.0004079
3790.44	0.0004011
3800.09	0.0003942
3809.73	0.0004058
3819.38	0.0004464
3829.02	0.0004032
3838.67	0.0005256
3848.31	0.00016
3857.96	0.0001951
3867.6	0.0004008
3877.25	0.000495
3886.89	0.0004854
3896.54	0.0003813
3906.18	0.0005356
3915.83	0.0004145
3925.47	0.0005768
3935.12	0.0004229
3944.76	0.0004732
3954.41	0.0005782
3964.05	0.0006066
3973.69	0.0008711
3983.34	0.0006779
3992.98	0.0009822
