Infrared Spectrum: Ethyl isopropylidenecyanoacetate
Formula: C 8 H 11 N O 2
CAS: 759-58-0
State: gas
Origin: EPA-IR VAPOR PHASE LIBRARY
1/CM	ABSORBANCE
549.8	0.00019796
559.445	0.0008775
569.09	0
578.734	0.0004476
588.379	0.00055
598.024	0.00028799
607.669	0.0004441
617.313	0.0003559
626.958	0.00021442
636.603	0.0003843
646.248	0.0004433
655.893	0.0005319
665.537	0.000554
675.182	0.0006421
684.827	0.0006597
694.472	0.0005084
704.116	0.0005158
713.761	0.000457
723.406	0.0006077
733.051	0.0008661
742.695	0.00133
752.34	0.00211
761.985	0.00392
771.63	0.00657
781.275	0.00685
790.919	0.00526
800.564	0.00424
810.209	0.00372
819.854	0.00329
829.498	0.00234
839.143	0.00242
848.788	0.00332
858.433	0.00467
868.078	0.00417
877.722	0.00282
887.367	0.00217
897.012	0.00233
906.657	0.00242
916.301	0.00302
925.946	0.00302
935.591	0.00211
945.236	0.00196
954.88	0.00197
964.525	0.00191
974.17	0.00262
983.815	0.00283
993.46	0.00409
1003.1	0.00614
1012.75	0.00863
1022.39	0.00916
1032.04	0.00808
1041.68	0.00827
1051.33	0.0115
1060.97	0.01948
1070.62	0.03808
1080.26	0.06134
1089.91	0.06765
1099.55	0.04736
1109.2	0.02328
1118.84	0.01244
1128.49	0.01076
1138.13	0.00989
1147.78	0.00742
1157.42	0.00653
1167.07	0.00725
1176.71	0.0087
1186.36	0.01224
1196	0.02087
1205.64	0.03893
1215.29	0.07297
1224.93	0.11921
1234.58	0.1149
1244.22	0.05498
1253.87	0.02434
1263.51	0.02918
1273.16	0.06403
1282.8	0.0797
1292.45	0.04342
1302.09	0.02586
1311.74	0.02057
1321.38	0.0126
1331.03	0.00753
1340.67	0.00594
1350.32	0.00619
1359.96	0.00919
1369.61	0.01519
1379.25	0.01829
1388.9	0.01546
1398.54	0.01042
1408.18	0.00788
1417.83	0.00759
1427.47	0.00833
1437.12	0.00989
1446.76	0.01085
1456.41	0.01069
1466.05	0.01042
1475.7	0.00937
1485.34	0.00718
1494.99	0.00548
1504.63	0.00472
1514.28	0.00436
1523.92	0.00417
1533.57	0.00427
1543.21	0.00449
1552.86	0.00467
1562.5	0.0048
1572.15	0.0048
1581.79	0.00534
1591.44	0.00692
1601.08	0.01049
1610.73	0.01699
1620.37	0.0226
1630.01	0.01744
1639.66	0.00789
1649.3	0.00427
1658.95	0.0034
1668.59	0.00333
1678.24	0.00375
1687.88	0.00492
1697.53	0.00717
1707.17	0.01063
1716.82	0.01763
1726.46	0.03649
1736.11	0.07841
1745.75	0.08933
1755.4	0.05057
1765.04	0.02147
1774.69	0.01269
1784.33	0.00682
1793.98	0.00368
1803.62	0.00229
1813.27	0.00165
1822.91	0.00145
1832.55	0.0013
1842.2	0.0011871
1851.84	0.0011111
1861.49	0.0011049
1871.13	0.0010081
1880.78	0.0009576
1890.42	0.0009239
1900.07	0.000872
1909.71	0.0009287
1919.36	0.0008926
1929	0.0010264
1938.65	0.0010878
1948.29	0.0011015
1957.94	0.0010155
1967.58	0.0008152
1977.23	0.0007853
1986.87	0.0006525
1996.52	0.0006657
2006.16	0.0006437
2015.81	0.000536
2025.45	0.0005309
2035.1	0.0005508
2044.74	0.0005179
2054.38	0.0006503
2064.03	0.0007854
2073.67	0.0008876
2083.32	0.0009318
2092.96	0.0008875
2102.61	0.0007478
2112.25	0.0006682
2121.9	0.0007297
2131.54	0.0006509
2141.19	0.0006927
2150.83	0.000626
2160.48	0.0005305
2170.12	0.0005676
2179.77	0.000659
2189.41	0.0007395
2199.06	0.0009293
2208.7	0.00149
2218.35	0.0022
2227.99	0.00268
2237.64	0.00222
2247.28	0.0011979
2256.92	0.0007927
2266.57	0.0007783
2276.21	0.0007404
2285.86	0.0006794
2295.5	0.0008033
2305.15	0.0008707
2314.79	0.0008267
2324.44	0.0006854
2334.08	0.0006333
2343.73	0.0005738
2353.37	0.0006274
2363.02	0.0006643
2372.66	0.0006635
2382.31	0.000677
2391.95	0.0006927
2401.6	0.0007073
2411.24	0.0005844
2420.89	0.0006074
2430.53	0.0005141
2440.18	0.0005043
2449.82	0.0006369
2459.47	0.000579
2469.11	0.0006399
2478.75	0.0005305
2488.4	0.0005214
2498.04	0.0005573
2507.69	0.0005838
2517.33	0.0004802
2526.98	0.0004356
2536.62	0.0004009
2546.27	0.0004241
2555.91	0.0003346
2565.56	0.0003566
2575.2	0.0003737
2584.85	0.0003801
2594.49	0.0004006
2604.14	0.000488
2613.78	0.0004764
2623.43	0.0003417
2633.07	0.0003783
2642.72	0.0003712
2652.36	0.0004571
2662.01	0.0003427
2671.65	0.0004124
2681.29	0.0004292
2690.94	0.0005066
2700.58	0.000513
2710.23	0.0005481
2719.87	0.0006203
2729.52	0.0008216
2739.16	0.00099
2748.81	0.0010896
2758.45	0.00098
2768.1	0.0009031
2777.74	0.0008086
2787.39	0.0010427
2797.03	0.0010639
2806.68	0.00122
2816.32	0.00133
2825.97	0.00159
2835.61	0.00196
2845.26	0.00236
2854.9	0.00325
2864.55	0.004
2874.19	0.00467
2883.84	0.00532
2893.48	0.00584
2903.12	0.00682
2912.77	0.00902
2922.41	0.01258
2932.06	0.01477
2941.7	0.0153
2951.35	0.014
2960.99	0.01174
2970.64	0.01297
2980.28	0.01758
2989.93	0.02012
2999.57	0.01581
3009.22	0.01085
3018.86	0.00766
3028.51	0.00547
3038.15	0.00428
3047.8	0.00348
3057.44	0.00316
3067.09	0.00283
3076.73	0.00236
3086.38	0.0023
3096.02	0.00177
3105.67	0.00153
3115.31	0.00127
3124.95	0.0011644
3134.6	0.000861
3144.24	0.0007544
3153.89	0.000703
3163.53	0.0006862
3173.18	0.0007092
3182.82	0.0006777
3192.47	0.0006076
3202.11	0.0006587
3211.76	0.0004456
3221.4	0.000487
3231.05	0.0006257
3240.69	0.0004469
3250.34	0.0004106
3259.98	0.0004063
3269.63	0.0003577
3279.27	0.0003546
3288.92	0.0004129
3298.56	0.0004528
3308.21	0.0003441
3317.85	0.0003969
3327.49	0.0004462
3337.14	0.0004935
3346.78	0.0005205
3356.43	0.0004471
3366.07	0.000631
3375.72	0.0004453
3385.36	0.0003686
3395.01	0.0003969
3404.65	0.0004526
3414.3	0.0003941
3423.94	0.0004545
3433.59	0.000582
3443.23	0.0007934
3452.88	0.0009103
3462.52	0.001113
3472.17	0.0011997
3481.81	0.0009502
3491.46	0.0007442
3501.1	0.0005137
3510.75	0.0004781
3520.39	0.0003629
3530.04	0.0003203
3539.68	0.0003776
3549.32	0.0001549
3558.97	0.00027472
3568.61	0.0003479
3578.26	0.0003055
3587.9	0.00026917
3597.55	0.00026957
3607.19	0.00029757
3616.84	0.00025389
3626.48	0.00022403
3636.13	0.00021305
3645.77	0.0003534
3655.42	0.00022042
3665.06	0.00026345
3674.71	0.000183
3684.35	0.0003074
3694	0.00028027
3703.64	0.000141
3713.29	0.00025353
3722.93	0.00028809
3732.58	0.0003073
3742.22	0.00027565
3751.86	0.00022669
3761.51	0.0003997
3771.15	0.0001622
3780.8	0.0003051
3790.44	0.000208467
3800.09	0.0003757
3809.73	0.00029956
3819.38	0.00024666
3829.02	0.000502
3838.67	0.0004443
3848.31	0.00025887
3857.96	0.0003617
3867.6	0.0003469
3877.25	0.0003562
3886.89	0.0003461
3896.54	0.000406
3906.18	0.0003668
3915.83	0.0003059
3925.47	0.0003715
3935.12	0.0001624
3944.76	0.00021961
3954.41	0.0005226
3964.05	0.0003915
3973.69	0.0004368
3983.34	0.00028306
3992.98	0.0004106
