Infrared Spectrum: BENZENE, 1,4-BIS(METHYLTHIOMETHYL)
Formula: C10 H14 S2
CAS: 75919-81-2
State: SOLUTION (10% IN CCl4 FOR 3800-1340, 10% IN CS2 FOR 1340-470 CM^-^1) VS SOLVENT
Class: COBLENTZ III
Instrument: DOW KBr FOREPRISM-GRATING
Instrument parameters: BLAZED AT 3.5, 12.0, 20.0 MICRON, CHANGED AT 5.0, 7.5, 14.9 MICRON
Sampling: TRANSMISSION
Path length: 0.010, 0.010 CM
Resolution: 4
Origin: DOW CHEMICAL COMPANY
1/CM	TRANSMITTANCE
469.643	0.973
478.572	0.99
487.5	0.987
496.429	0.974
505.357	0.917
514.286	0.854
523.214	0.948
532.143	0.973
541.072	0.998
550	0.986
558.929	0.926
567.857	0.863
576.786	0.998
585.715	1.011
594.643	1.015
603.572	1.015
612.5	1.015
621.429	1.013
630.357	1.002
639.286	0.995
648.215	0.979
657.143	0.959
666.072	0.847
675	0.744
683.929	0.746
692.857	0.81
701.786	0.771
710.715	0.871
719.643	0.859
728.572	0.778
737.5	0.794
746.429	0.921
755.358	0.937
764.286	0.931
773.215	0.82
782.143	0.803
791.072	0.921
800	0.921
808.929	0.866
817.858	0.79
826.786	0.683
835.715	0.679
844.643	0.794
853.572	0.843
862.5	0.794
871.429	0.785
880.358	0.91
889.286	0.938
898.215	0.958
907.143	0.965
916.072	0.966
925.001	0.96
933.929	0.948
942.858	0.902
951.786	0.829
960.715	0.6901
969.643	0.741
978.572	0.548
987.501	0.794
996.429	0.934
1005.36	0.959
1014.29	0.934
1023.21	0.7542
1032.14	0.981
1041.07	0.983
1050	0.979
1058.93	0.967
1067.86	0.963
1076.79	0.953
1085.71	0.919
1094.64	0.841
1103.57	0.644
1112.5	0.896
1121.43	0.927
1130.36	0.944
1139.29	0.934
1148.21	0.888
1157.14	0.903
1166.07	0.921
1175	0.92
1183.93	0.914
1192.86	0.873
1201.79	0.79
1210.72	0.923
1219.64	0.927
1228.57	0.854
1237.5	0.599
1246.43	0.707
1255.36	0.889
1264.29	0.94
1273.22	0.945
1282.14	0.94
1291.07	0.92
1300	0.888
1308.93	0.849
1317.86	0.767
1326.79	0.933
1335.72	0.963
1344.64	0.962
1353.57	0.953
1362.5	0.965
1371.43	0.965
1380.36	0.956
1389.29	0.947
1398.22	0.91
1407.14	0.841
1416.07	0.633
1425	0.3449
1433.93	0.44
1442.86	0.4493
1451.79	0.871
1460.72	0.917
1469.64	0.935
1478.57	0.942
1487.5	0.934
1496.43	0.906
1505.36	0.7759
1514.29	0.4679
1523.22	0.895
1532.14	0.97
1541.07	0.993
1550	1.011
1558.93	1.008
1567.86	0.998
1576.79	0.981
1585.72	0.991
1594.64	0.993
1603.57	0.984
1612.5	0.97
1621.43	0.976
1630.36	0.979
1639.29	0.98
1648.22	0.974
1657.14	0.966
1666.07	0.965
1675	0.97
1683.93	0.976
1692.86	0.976
1701.79	0.974
1710.72	0.976
1719.64	0.983
1728.57	0.984
1737.5	0.986
1746.43	0.988
1755.36	0.988
1764.29	0.986
1773.22	0.983
1782.14	0.979
1791.07	0.959
1800	0.965
1808.93	0.984
1817.86	0.99
1826.79	0.995
1835.72	0.998
1844.64	0.998
1853.57	0.998
1862.5	0.998
1871.43	0.997
1880.36	0.99
1889.29	0.977
1898.22	0.962
1907.14	0.917
1916.07	0.966
1925	0.986
1933.93	0.99
1942.86	0.993
1951.79	0.997
1960.72	0.994
1969.64	0.994
1978.57	0.997
1987.5	0.994
1996.43	0.995
2005.36	0.994
2014.29	0.994
2023.22	0.993
2032.14	0.993
2041.07	0.993
2050	0.991
2058.93	0.994
2067.86	0.995
2076.79	0.995
2085.72	0.994
2094.64	0.993
2103.57	0.9928
2112.5	0.991
2121.43	0.9912
2130.36	0.993
2139.29	0.991
2148.22	0.991
2157.14	0.991
2166.07	0.991
2175	0.9901
2183.93	0.9927
2192.86	0.987
2201.79	0.987
2210.72	0.987
2219.64	0.986
2228.57	0.9856
2237.5	0.984
2246.43	0.984
2255.36	0.9798
2264.29	0.9756
2273.22	0.9698
2282.14	0.9645
2291.07	0.963
2300	0.9635
2308.93	0.967
2317.86	0.97
2326.79	0.9697
2335.72	0.966
2344.64	0.965
2353.57	0.963
2362.5	0.9644
2371.43	0.963
2380.36	0.963
2389.29	0.963
2398.22	0.962
2407.14	0.9627
2416.07	0.963
2425	0.9637
2433.93	0.966
2442.86	0.965
2451.79	0.963
2460.72	0.963
2469.64	0.963
2478.57	0.963
2487.5	0.9642
2496.43	0.963
2505.36	0.962
2514.29	0.962
2523.22	0.9611
2532.14	0.962
2541.07	0.962
2550	0.96
2558.93	0.9595
2567.86	0.9571
2576.79	0.956
2585.72	0.956
2594.64	0.954
2603.57	0.953
2612.5	0.9525
2621.43	0.95
2630.36	0.947
2639.29	0.948
2648.22	0.952
2657.14	0.9485
2666.07	0.945
2675	0.948
2683.93	0.952
2692.86	0.9526
2701.79	0.955
2710.72	0.953
2719.64	0.949
2728.57	0.949
2737.5	0.9458
2746.43	0.945
2755.36	0.944
2764.29	0.945
2773.22	0.945
2782.14	0.9427
2791.07	0.9387
2800	0.9317
2808.93	0.916
2817.86	0.8876
2826.79	0.8309
2835.72	0.71
2844.64	0.7671
2853.57	0.7673
2862.5	0.7577
2871.43	0.8211
2880.36	0.8523
2889.29	0.8331
2898.22	0.7708
2907.14	0.5993
2916.07	0.294
2925	0.1773
2933.93	0.5771
2942.86	0.6941
2951.79	0.7159
2960.72	0.7406
2969.65	0.7
2978.57	0.6096
2987.5	0.6416
2996.43	0.6528
3005.36	0.7298
3014.29	0.7535
3023.22	0.7495
3032.15	0.6821
3041.07	0.7779
3050	0.7778
3058.93	0.7592
3067.86	0.851
3076.79	0.891
3085.72	0.888
3094.65	0.8741
3103.57	0.9088
3112.5	0.9229
3121.43	0.924
3130.36	0.92
3139.29	0.9298
3148.22	0.9369
3157.15	0.94
3166.07	0.942
3175	0.945
3183.93	0.945
3192.86	0.947
3201.79	0.947
3210.72	0.947
3219.65	0.948
3228.57	0.948
3237.5	0.949
3246.43	0.949
3255.36	0.948
3264.29	0.951
3273.22	0.953
3282.15	0.953
3291.07	0.953
3300	0.952
3308.93	0.952
3317.86	0.953
3326.79	0.953
3335.72	0.953
3344.65	0.9551
3353.57	0.955
3362.5	0.955
3371.43	0.955
3380.36	0.956
3389.29	0.956
3398.22	0.955
3407.15	0.955
3416.07	0.956
3425	0.956
3433.93	0.956
3442.86	0.958
3451.79	0.956
3460.72	0.958
3469.65	0.959
3478.57	0.96
3487.5	0.959
3496.43	0.959
3505.36	0.958
3514.29	0.958
3523.22	0.958
3532.15	0.96
3541.07	0.96
3550	0.96
3558.93	0.959
3567.86	0.956
3576.79	0.955
3585.72	0.9583
3594.65	0.962
3603.57	0.96
3612.5	0.96
3621.43	0.958
3630.36	0.958
3639.29	0.9584
3648.22	0.9586
3657.15	0.953
3666.07	0.956
3675	0.955
3683.93	0.956
3692.86	0.956
3701.79	0.956
3710.72	0.9554
3719.65	0.959
3728.57	0.9594
3737.5	0.962
3746.43	0.956
3755.36	0.956
3764.29	0.955
3773.22	0.955
3782.15	0.956
3791.07	0.956
