Infrared Spectrum: Formamide, N-[4-amino-2,6-bis-(methylthio)-5-pyrimidinyl]-
Formula: C7 H10 N4 O S2
CAS: 7595-53-1
State: SOLID (0.8 mg / 650 mg KBr DISC)
Class: COBLENTZ III
Instrument: PERKIN-ELMER 221 (GRATING)
Instrument parameters: FILTER AT 980 CM^-^1. GRATING 4000-1428 CM^-^1, NaCl PRISM 1428-650 CM^-^1
Sampling: TRANSMISSION
Resolution: 2
Origin: SOUTHERN RESEARCH INSTITUTE
1/CM	TRANSMITTANCE
597.96	0.846
607.013	0.8516
616.066	0.8605
625.119	0.8695
634.172	0.8762
643.225	0.8785
652.278	0.8701
661.331	0.8498
670.384	0.8786
679.437	0.8671
688.49	0.8747
697.543	0.9254
706.596	0.9318
715.649	0.9333
724.702	0.9438
733.755	0.9528
742.808	0.9449
751.861	0.9158
760.914	0.8208
769.967	0.9404
779.02	0.9481
788.073	0.9471
797.126	0.9388
806.179	0.9266
815.232	0.9135
824.285	0.8992
833.338	0.8774
842.391	0.8248
851.444	0.6209
860.497	0.7317
869.55	0.8808
878.603	0.8334
887.656	0.7833
896.709	0.9292
905.762	0.941
914.815	0.9385
923.868	0.9321
932.921	0.9234
941.974	0.9116
951.027	0.89
960.08	0.8137
969.133	0.8431
978.186	0.8753
987.239	0.8675
996.292	0.8216
1005.34	0.6357
1014.4	0.8466
1023.45	0.8862
1032.5	0.885
1041.56	0.8764
1050.61	0.8794
1059.66	0.8808
1068.72	0.878
1077.77	0.8717
1086.82	0.8632
1095.87	0.8534
1104.93	0.8394
1113.98	0.8087
1123.03	0.7354
1132.09	0.7236
1141.14	0.8387
1150.19	0.8476
1159.25	0.8445
1168.3	0.8349
1177.35	0.8176
1186.4	0.7883
1195.46	0.722
1204.51	0.7092
1213.56	0.7756
1222.62	0.7761
1231.67	0.7539
1240.72	0.6413
1249.78	0.6049
1258.83	0.5773
1267.88	0.3197
1276.93	0.5316
1285.99	0.7068
1295.04	0.637
1304.09	0.654
1313.15	0.594
1322.2	0.702
1331.25	0.5386
1340.31	0.2705
1349.36	0.4031
1358.41	0.6582
1367.46	0.6672
1376.52	0.5479
1385.57	0.5751
1394.62	0.7501
1403.68	0.7539
1412.73	0.748
1421.78	0.7089
1430.84	0.7101
1439.89	0.6988
1448.94	0.6636
1457.99	0.5589
1467.05	0.5534
1476.1	0.4357
1485.15	0.2326
1494.21	0.3648
1503.26	0.5382
1512.31	0.5966
1521.36	0.5737
1530.42	0.4136
1539.47	0.2442
1548.52	0.2231
1557.58	0.3794
1566.63	0.6234
1575.68	0.7281
1584.74	0.7482
1593.79	0.7416
1602.84	0.6978
1611.89	0.5885
1620.95	0.4269
1630	0.2654
1639.05	0.2327
1648.11	0.3264
1657.16	0.3257
1666.21	0.176
1675.27	0.2576
1684.32	0.4613
1693.37	0.6747
1702.42	0.787
1711.48	0.8195
1720.53	0.8558
1729.58	0.8757
1738.64	0.8865
1747.69	0.8955
1756.74	0.9022
1765.8	0.9072
1774.85	0.9097
1783.9	0.9114
1792.95	0.9133
1802.01	0.9148
1811.06	0.9154
1820.11	0.9159
1829.17	0.9163
1838.22	0.9166
1847.27	0.9167
1856.33	0.9165
1865.38	0.9173
1874.43	0.9182
1883.48	0.9182
1892.54	0.9187
1901.59	0.9182
1910.64	0.9174
1919.7	0.9159
1928.75	0.9149
1937.8	0.9141
1946.86	0.9139
1955.91	0.9135
1964.96	0.913
1974.01	0.9122
1983.07	0.9109
1992.12	0.9095
2001.17	0.9081
2010.23	0.9068
2019.28	0.9059
2028.33	0.905
2037.39	0.9039
2046.44	0.9027
2055.49	0.9015
2064.54	0.9005
2073.6	0.8998
2082.65	0.8991
2091.7	0.8984
2100.76	0.8978
2109.81	0.8972
2118.86	0.8966
2127.92	0.896
2136.97	0.8959
2146.02	0.896
2155.07	0.896
2164.13	0.8961
2173.18	0.8963
2182.23	0.8965
2191.29	0.8964
2200.34	0.8963
2209.39	0.8963
2218.45	0.8964
2227.5	0.8945
2236.55	0.892
2245.6	0.8899
2254.66	0.8883
2263.71	0.8872
2272.76	0.8867
2281.82	0.8885
2290.87	0.8895
2299.92	0.8878
2308.97	0.8857
2318.03	0.8833
2327.08	0.8803
2336.13	0.8793
2345.19	0.879
2354.24	0.8787
2363.29	0.88
2372.35	0.8834
2381.4	0.8871
2390.45	0.8873
2399.5	0.8867
2408.56	0.8863
2417.61	0.8842
2426.66	0.8833
2435.72	0.8821
2444.77	0.8806
2453.82	0.8794
2462.88	0.8787
2471.93	0.8786
2480.98	0.8815
2490.03	0.8713
2499.09	0.8704
2508.14	0.871
2517.19	0.8704
2526.25	0.8699
2535.3	0.8689
2544.35	0.8669
2553.41	0.8649
2562.46	0.8628
2571.51	0.8607
2580.56	0.8586
2589.62	0.8571
2598.67	0.8557
2607.72	0.8544
2616.78	0.8526
2625.83	0.8508
2634.88	0.8485
2643.94	0.8458
2652.99	0.8422
2662.04	0.8373
2671.09	0.8333
2680.15	0.8307
2689.2	0.8306
2698.25	0.8343
2707.31	0.8373
2716.36	0.8383
2725.41	0.8386
2734.47	0.8379
2743.52	0.8365
2752.57	0.8345
2761.62	0.8319
2770.68	0.8291
2779.73	0.8267
2788.78	0.8236
2797.84	0.8202
2806.89	0.8173
2815.94	0.8144
2825	0.8113
2834.05	0.8044
2843.1	0.7953
2852.15	0.7901
2861.21	0.7849
2870.26	0.7778
2879.31	0.7695
2888.37	0.7592
2897.42	0.746
2906.47	0.7125
2915.53	0.58
2924.58	0.7069
2933.63	0.7559
2942.68	0.7629
2951.74	0.7638
2960.79	0.7624
2969.84	0.7572
2978.9	0.7486
2987.95	0.745
2997	0.7476
3006.06	0.7519
3015.11	0.7463
3024.16	0.7302
3033.21	0.7201
3042.27	0.7105
3051.32	0.701
3060.37	0.6907
3069.43	0.6786
3078.48	0.6648
3087.53	0.6484
3096.59	0.6296
3105.64	0.6099
3114.69	0.5845
3123.74	0.5506
3132.8	0.5154
3141.85	0.4769
3150.9	0.4342
3159.96	0.4231
3169.01	0.4303
3178.06	0.4475
3187.11	0.4485
3196.17	0.4484
3205.22	0.4482
3214.27	0.4474
3223.33	0.4448
3232.38	0.4402
3241.43	0.435
3250.49	0.4298
3259.54	0.4253
3268.59	0.4327
3277.64	0.4627
3286.7	0.4411
3295.75	0.4378
3304.8	0.4356
3313.86	0.4303
3322.91	0.4273
3331.96	0.4257
3341.02	0.4357
3350.07	0.4655
3359.12	0.4983
3368.17	0.5492
3377.23	0.5965
3386.28	0.6337
3395.33	0.6589
3404.39	0.6799
3413.44	0.6956
3422.49	0.7054
3431.55	0.7106
3440.6	0.7178
3449.65	0.7271
3458.7	0.7372
3467.76	0.7473
3476.81	0.7567
3485.86	0.766
3494.92	0.7751
3503.97	0.7849
3513.02	0.793
3522.08	0.7987
3531.13	0.8025
3540.18	0.8048
3549.23	0.8081
3558.29	0.8128
3567.34	0.819
3576.39	0.8257
3585.45	0.8322
3594.5	0.8387
3603.55	0.845
3612.61	0.8512
3621.66	0.8555
3630.71	0.8585
3639.76	0.8603
3648.82	0.8611
3657.87	0.8618
3666.92	0.862
3675.98	0.8623
3685.03	0.8628
3694.08	0.8633
3703.14	0.8639
3712.19	0.8642
3721.24	0.8644
3730.29	0.8646
3739.35	0.865
3748.4	0.8656
3757.45	0.8661
3766.51	0.8666
3775.56	0.8663
3784.61	0.8646
3793.67	0.8621
3802.72	0.8597
3811.77	0.8581
3820.82	0.8567
3829.88	0.8552
3838.93	0.8538
3847.98	0.8531
3857.04	0.8525
3866.09	0.8525
3875.14	0.8526
3884.2	0.8537
3893.25	0.8549
3902.3	0.8561
3911.35	0.8573
3920.41	0.8578
3929.46	0.858
3938.51	0.8576
3947.57	0.8572
3956.62	0.8568
3965.67	0.8568
3974.73	0.857
3983.78	0.8573
3992.83	0.8576
4001.88	0.8585
4010.94	0.8594
4019.99	0.8602
