Infrared Spectrum: Acetic acid, 5-amino-6-chloro-4-pyrimidinyl hydrazide
Formula: C6 H8 Cl N5 O
CAS: 7597-91-3
State: SOLID (1 mg / 650 mg KBr DISC)
Class: COBLENTZ III
Instrument: PERKIN-ELMER 221 (GRATING)
Instrument parameters: FILTER AT 980 CM^-^1. GRATING 4000-1428 CM^-^1, NaCl PRISM 1428-650 CM^-^1
Sampling: TRANSMISSION
Resolution: 2
Origin: SOUTHERN RESEARCH INSTITUTE
1/CM	TRANSMITTANCE
614.32	0.4134
623.351	0.4243
632.382	0.4341
641.413	0.4301
650.444	0.4139
659.475	0.4089
668.506	0.4198
677.537	0.4375
686.569	0.4873
695.6	0.5366
704.631	0.6174
713.662	0.6472
722.693	0.6623
731.724	0.6613
740.755	0.6343
749.786	0.547
758.817	0.5088
767.848	0.4632
776.879	0.6637
785.91	0.6993
794.941	0.6981
803.972	0.6908
813.003	0.6859
822.034	0.6529
831.066	0.5325
840.097	0.4141
849.128	0.4335
858.159	0.5988
867.19	0.629
876.221	0.6254
885.252	0.6055
894.283	0.5573
903.314	0.4513
912.345	0.4682
921.376	0.5874
930.407	0.5315
939.438	0.4969
948.469	0.5266
957.5	0.6307
966.531	0.6001
975.563	0.5365
984.594	0.4941
993.625	0.6473
1002.66	0.6469
1011.69	0.6392
1020.72	0.6181
1029.75	0.5873
1038.78	0.5862
1047.81	0.5999
1056.84	0.5895
1065.87	0.5723
1074.9	0.5456
1083.94	0.5016
1092.97	0.4414
1102	0.419
1111.03	0.4549
1120.06	0.5091
1129.09	0.5161
1138.12	0.4569
1147.15	0.4534
1156.18	0.5433
1165.21	0.5424
1174.25	0.5264
1183.28	0.4718
1192.31	0.5175
1201.34	0.4887
1210.37	0.3941
1219.4	0.3546
1228.43	0.4903
1237.46	0.5285
1246.49	0.5203
1255.53	0.4996
1264.56	0.47
1273.59	0.402
1282.62	0.3527
1291.65	0.4042
1300.68	0.5233
1309.71	0.5126
1318.74	0.4397
1327.77	0.2737
1336.81	0.4533
1345.84	0.4294
1354.87	0.3337
1363.9	0.3269
1372.93	0.4152
1381.96	0.4098
1390.99	0.3561
1400.02	0.2633
1409.05	0.1717
1418.08	0.3036
1427.12	0.3512
1436.15	0.3523
1445.18	0.3116
1454.21	0.1743
1463.24	0.2021
1472.27	0.4415
1481.3	0.4388
1490.33	0.3528
1499.36	0.3489
1508.4	0.3299
1517.43	0.239
1526.46	0.1648
1535.49	0.2562
1544.52	0.3154
1553.55	0.2417
1562.58	0.1241
1571.61	0.1266
1580.64	0.2741
1589.67	0.4297
1598.71	0.4342
1607.74	0.3865
1616.77	0.2976
1625.8	0.2087
1634.83	0.2174
1643.86	0.3178
1652.89	0.34
1661.92	0.2681
1670.95	0.1584
1679.99	0.1728
1689.02	0.3152
1698.05	0.4602
1707.08	0.5608
1716.11	0.6162
1725.14	0.6717
1734.17	0.7089
1743.2	0.7448
1752.23	0.7774
1761.27	0.8111
1770.3	0.8258
1779.33	0.8355
1788.36	0.8431
1797.39	0.8454
1806.42	0.8457
1815.45	0.8419
1824.48	0.8367
1833.51	0.8298
1842.54	0.8189
1851.58	0.8049
1860.61	0.7861
1869.64	0.7375
1878.67	0.8036
1887.7	0.8213
1896.73	0.8233
1905.76	0.8218
1914.79	0.8201
1923.82	0.8171
1932.86	0.8135
1941.89	0.8094
1950.92	0.8053
1959.95	0.8003
1968.98	0.7969
1978.01	0.7933
1987.04	0.7878
1996.07	0.7823
2005.1	0.7768
2014.13	0.7712
2023.17	0.7657
2032.2	0.7607
2041.23	0.7575
2050.26	0.7549
2059.29	0.7528
2068.32	0.7502
2077.35	0.7472
2086.38	0.7443
2095.41	0.7418
2104.45	0.7392
2113.48	0.7365
2122.51	0.7341
2131.54	0.7334
2140.57	0.7329
2149.6	0.731
2158.63	0.727
2167.66	0.7211
2176.69	0.7179
2185.73	0.7178
2194.76	0.7173
2203.79	0.7165
2212.82	0.7155
2221.85	0.7147
2230.88	0.7138
2239.91	0.7122
2248.94	0.7105
2257.97	0.7091
2267	0.7073
2276.04	0.7035
2285.07	0.6991
2294.1	0.6941
2303.13	0.6876
2312.16	0.6811
2321.19	0.6759
2330.22	0.6698
2339.25	0.6668
2348.28	0.665
2357.32	0.6638
2366.35	0.664
2375.38	0.6642
2384.41	0.6621
2393.44	0.6572
2402.47	0.6528
2411.5	0.6507
2420.53	0.6496
2429.56	0.6488
2438.59	0.645
2447.63	0.6413
2456.66	0.6375
2465.69	0.6316
2474.72	0.6278
2483.75	0.6154
2492.78	0.6312
2501.81	0.6286
2510.84	0.6277
2519.87	0.6307
2528.91	0.6313
2537.94	0.6293
2546.97	0.6245
2556	0.6215
2565.03	0.6221
2574.06	0.621
2583.09	0.6189
2592.12	0.6161
2601.15	0.6063
2610.19	0.6015
2619.22	0.5985
2628.25	0.5942
2637.28	0.5905
2646.31	0.5873
2655.34	0.5841
2664.37	0.581
2673.4	0.5774
2682.43	0.5737
2691.46	0.5696
2700.5	0.5655
2709.53	0.5608
2718.56	0.5561
2727.59	0.5515
2736.62	0.5478
2745.65	0.5454
2754.68	0.5457
2763.71	0.5446
2772.74	0.5408
2781.78	0.5344
2790.81	0.5256
2799.84	0.5178
2808.87	0.5134
2817.9	0.5135
2826.93	0.5143
2835.96	0.5138
2844.99	0.5081
2854.02	0.5009
2863.05	0.4934
2872.09	0.485
2881.12	0.4758
2890.15	0.4652
2899.18	0.452
2908.21	0.4438
2917.24	0.4362
2926.27	0.4287
2935.3	0.4217
2944.33	0.4147
2953.37	0.4074
2962.4	0.3998
2971.43	0.3906
2980.46	0.38
2989.49	0.37
2998.52	0.3609
3007.55	0.3526
3016.58	0.3483
3025.61	0.3508
3034.65	0.3651
3043.68	0.3977
3052.71	0.4166
3061.74	0.4134
3070.77	0.4085
3079.8	0.3999
3088.83	0.3877
3097.86	0.3707
3106.89	0.3675
3115.92	0.3536
3124.96	0.3374
3133.99	0.3365
3143.02	0.3322
3152.05	0.3172
3161.08	0.2943
3170.11	0.2688
3179.14	0.241
3188.17	0.2148
3197.2	0.1971
3206.24	0.1903
3215.27	0.1668
3224.3	0.1382
3233.33	0.1288
3242.36	0.1333
3251.39	0.1527
3260.42	0.1851
3269.45	0.2298
3278.48	0.2515
3287.51	0.2533
3296.55	0.2466
3305.58	0.2363
3314.61	0.2325
3323.64	0.2377
3332.67	0.3083
3341.7	0.3705
3350.73	0.4403
3359.76	0.4823
3368.79	0.4968
3377.83	0.4974
3386.86	0.4965
3395.89	0.4916
3404.92	0.4838
3413.95	0.4681
3422.98	0.4398
3432.01	0.3774
3441.04	0.2182
3450.07	0.436
3459.11	0.5882
3468.14	0.5987
3477.17	0.5998
3486.2	0.6004
3495.23	0.601
3504.26	0.6024
3513.29	0.6064
3522.32	0.6101
3531.35	0.6137
3540.38	0.617
3549.42	0.6201
3558.45	0.6224
3567.48	0.6243
3576.51	0.6258
3585.54	0.627
3594.57	0.6282
3603.6	0.6292
3612.63	0.63
3621.66	0.6305
3630.7	0.631
3639.73	0.6316
3648.76	0.632
3657.79	0.6318
3666.82	0.6303
3675.85	0.6291
3684.88	0.6283
3693.91	0.6288
3702.94	0.6296
3711.97	0.6296
3721.01	0.6268
3730.04	0.6218
3739.07	0.616
3748.1	0.6147
3757.13	0.6149
3766.16	0.6151
3775.19	0.615
3784.22	0.6141
3793.25	0.6119
3802.29	0.608
3811.32	0.6041
3820.35	0.6008
3829.38	0.5982
3838.41	0.5964
3847.44	0.595
3856.47	0.5937
3865.5	0.5933
3874.53	0.593
3883.57	0.5932
3892.6	0.5933
3901.63	0.5933
3910.66	0.5934
3919.69	0.5934
3928.72	0.5936
3937.75	0.5938
3946.78	0.594
3955.81	0.5937
3964.84	0.5934
3973.88	0.5938
3982.91	0.5942
3991.94	0.5948
4000.97	0.5968
4010	0.5992
