Infrared Spectrum: 6-NITROINDAZOLE
Formula: C7 H5 N3 O2
CAS: 7597-18-4
State: SOLID (OIL MULL)
Melting point: 181-182.5 C
Class: COBLENTZ
Instrument: Not specified, most likely a prism, grating, or hybrid spectrometer.
Sampling: TRANSMISSION
Resolution: 4
Origin: WYANDOTTE CHEMICALS CORP., WYANDOTTE, MICHIGAN, USA
MICROMETERS	TRANSMITTANCE
2.044	0.375
2.08382	0.376
2.12363	0.386
2.16345	0.403
2.20326	0.385
2.24308	0.388
2.28289	0.395
2.32271	0.406
2.36252	0.421
2.40234	0.431
2.44215	0.44
2.48197	0.435
2.52178	0.448
2.5616	0.466
2.60141	0.476
2.64123	0.49
2.68104	0.498
2.72086	0.51
2.76067	0.518
2.80049	0.53
2.8403	0.538
2.88012	0.545
2.91994	0.553
2.95975	0.56
2.99957	0.52
3.03938	0.335
3.0792	0.178
3.11901	0.095
3.15883	0.086
3.19864	0.105
3.23846	0.13
3.27827	0.158
3.31809	0.105
3.3579	0.021
3.39772	0.035
3.43753	0.045
3.47735	0.06
3.51716	0.195
3.55698	0.366
3.59679	0.431
3.63661	0.476
3.67643	0.48
3.71624	0.485
3.75606	0.508
3.79587	0.535
3.83569	0.551
3.8755	0.568
3.91532	0.576
3.95513	0.591
3.99495	0.605
4.03476	0.611
4.07458	0.62
4.11439	0.618
4.15421	0.623
4.19402	0.608
4.23384	0.6
4.27365	0.601
4.31347	0.631
4.35328	0.673
4.3931	0.686
4.43291	0.661
4.47273	0.68
4.51255	0.691
4.55236	0.703
4.59218	0.705
4.63199	0.713
4.67181	0.723
4.71162	0.73
4.75144	0.731
4.79125	0.741
4.83107	0.753
4.87088	0.758
4.9107	0.76
4.95051	0.765
4.99033	0.771
5.03014	0.77
5.06996	0.788
5.10977	0.796
5.14959	0.813
5.1894	0.823
5.22922	0.82
5.26903	0.781
5.30885	0.816
5.34867	0.83
5.38848	0.85
5.4283	0.853
5.46811	0.868
5.50793	0.876
5.54774	0.873
5.58756	0.886
5.62737	0.893
5.66719	0.805
5.707	0.831
5.74682	0.868
5.78663	0.871
5.82645	0.833
5.86626	0.87
5.90608	0.871
5.94589	0.905
5.98571	0.906
6.02552	0.933
6.06534	0.945
6.10516	0.891
6.14497	0.948
6.18479	0.551
6.2246	0.448
6.26442	0.706
6.30423	0.741
6.34405	0.665
6.38386	0.795
6.42368	0.67
6.46349	0.23
6.50331	0.045
6.54312	0.133
6.58294	0.248
6.62275	0.28
6.66257	0.4
6.70238	0.366
6.7422	0.288
6.78201	0.185
6.82183	0.186
6.86164	0.16
6.90146	0.231
6.94128	0.473
6.98109	0.51
7.02091	0.571
7.06072	0.638
7.10054	0.651
7.14035	0.5
7.18017	0.266
7.21998	0.23
7.2598	0.298
7.29961	0.231
7.33943	0.036
7.37924	0.023
7.41906	0.028
7.45887	0.09
7.49869	0.24
7.5385	0.31
7.57832	0.263
7.61813	0.315
7.65795	0.31
7.69776	0.308
7.73758	0.471
7.7774	0.541
7.81721	0.56
7.85703	0.536
7.89684	0.633
7.93666	0.701
7.97647	0.703
8.01629	0.703
8.0561	0.655
8.09592	0.59
8.13573	0.703
8.17555	0.726
8.21536	0.725
8.25518	0.651
8.29499	0.346
8.33481	0.456
8.37462	0.6
8.41444	0.71
8.45425	0.743
8.49407	0.768
8.53388	0.78
8.5737	0.788
8.61352	0.818
8.65333	0.826
8.69315	0.856
8.73296	0.881
8.77278	0.908
8.81259	0.78
8.85241	0.783
8.89222	0.906
8.93204	0.94
8.97185	0.97
9.01167	0.991
9.05148	0.976
9.0913	0.831
9.13111	0.503
9.17093	0.513
9.21074	0.711
9.25056	0.588
9.29037	0.23
9.33019	0.236
9.37001	0.423
9.40982	0.568
9.44964	0.665
9.48945	0.726
9.52927	0.745
9.56908	0.756
9.6089	0.761
9.64871	0.795
9.68853	0.828
9.72834	0.853
9.76816	0.868
9.80797	0.883
9.84779	0.903
9.8876	0.908
9.92742	0.913
9.96723	0.918
10.007	0.916
10.0469	0.928
10.0867	0.945
10.1265	0.955
10.1663	0.97
10.2061	0.978
10.2459	0.986
10.2858	0.995
10.3256	0.996
10.3654	0.953
10.4052	0.788
10.445	0.453
10.4848	0.146
10.5246	0.146
10.5645	0.083
10.6043	0.141
10.6441	0.256
10.6839	0.42
10.7237	0.431
10.7635	0.453
10.8034	0.598
10.8432	0.665
10.883	0.71
10.9228	0.726
10.9626	0.74
11.0024	0.753
11.0422	0.756
11.0821	0.76
11.1219	0.75
11.1617	0.73
11.2015	0.706
11.2413	0.666
11.2811	0.483
11.321	0.31
11.3608	0.373
11.4006	0.326
11.4404	0.118
11.4802	0.243
11.52	0.628
11.5598	0.671
11.5997	0.568
11.6395	0.348
11.6793	0.108
11.7191	0.1
11.7589	0.47
11.7987	0.751
11.8386	0.831
11.8784	0.808
11.9182	0.6
11.958	0.218
11.9978	0.156
12.0376	0.465
12.0774	0.653
12.1173	0.751
12.1571	0.791
12.1969	0.811
12.2367	0.796
12.2765	0.683
12.3163	0.478
12.3561	0.581
12.396	0.801
12.4358	0.828
12.4756	0.846
12.5154	0.835
12.5552	0.788
12.595	0.65
12.6349	0.326
12.6747	0.221
12.7145	0.518
12.7543	0.658
12.7941	0.731
12.8339	0.741
12.8737	0.761
12.9136	0.768
12.9534	0.761
12.9932	0.761
13.033	0.75
13.0728	0.741
13.1126	0.726
13.1525	0.711
13.1923	0.691
13.2321	0.665
13.2719	0.63
13.3117	0.53
13.3515	0.411
13.3913	0.428
13.4312	0.62
13.471	0.64
13.5108	0.591
13.5506	0.543
13.5904	0.453
13.6302	0.32
13.6701	0.153
13.7099	0.15
13.7497	0.196
13.7895	0.221
13.8293	0.225
13.8691	0.211
13.9089	0.206
13.9488	0.211
13.9886	0.203
14.0284	0.206
14.0682	0.201
14.108	0.215
14.1478	0.218
14.1876	0.216
14.2275	0.22
14.2673	0.223
14.3071	0.23
14.3469	0.243
14.3867	0.251
14.4265	0.258
14.4664	0.263
14.5062	0.266
14.546	0.263
14.5858	0.258
14.6256	0.255
14.6654	0.266
14.7052	0.28
14.7451	0.311
14.7849	0.325
14.8247	0.351
14.8645	0.378
14.9043	0.398
14.9441	0.421
14.984	0.435
15.0238	0.436
15.0636	0.44
15.1034	0.446
15.1432	0.473
15.183	0.503
15.2228	0.54
15.2627	0.553
15.3025	0.57
15.3423	0.581
15.3821	0.59
15.4219	0.595
15.4617	0.613
15.5016	0.625
15.5414	0.63
15.5812	0.633
15.621	0.635
15.6608	0.635
15.7006	0.636
15.7404	0.636
15.7803	0.635
15.8201	0.635
15.8599	0.631
15.8997	0.625
15.9395	0.615
