Infrared Spectrum: Diethyl 2,2-diethoxyethylphosphonate
Formula: C 10 H 23 O 5 P
CAS: 7598-61-0
State: gas
Origin: EPA-IR VAPOR PHASE LIBRARY
1/CM	ABSORBANCE
501.5	0.007029
513.074	0.008849
524.648	0.013139
536.222	0.020449
547.796	0.024719
559.37	0.015649
570.944	0.008239
582.518	0.005389
594.092	0.003539
605.666	0.002599
617.24	0.002059
628.814	0.001829
640.388	0.002059
651.962	0.002289
663.536	0.002549
675.11	0.002369
686.684	0.002349
698.258	0.002879
709.832	0.004469
721.406	0.006909
732.98	0.008009
744.554	0.008539
756.128	0.011199
767.702	0.013899
779.276	0.014379
790.85	0.016499
802.423	0.022519
813.997	0.023209
825.571	0.017189
837.145	0.010439
848.719	0.007379
860.293	0.006109
871.867	0.005679
883.441	0.006779
895.015	0.009309
906.589	0.012599
918.163	0.018869
929.737	0.035769
941.311	0.065549
952.885	0.068309
964.459	0.050219
976.033	0.047029
987.607	0.063329
999.181	0.072319
1010.76	0.074629
1022.33	0.100129
1033.9	0.152229
1045.48	0.175669
1057.05	0.186249
1068.63	0.156909
1080.2	0.101499
1091.77	0.083809
1103.35	0.074769
1114.92	0.063169
1126.49	0.061419
1138.07	0.048569
1149.64	0.035659
1161.22	0.028699
1172.79	0.024519
1184.36	0.022079
1195.94	0.021059
1207.51	0.018259
1219.09	0.018809
1230.66	0.030619
1242.23	0.036349
1253.81	0.033939
1265.38	0.053219
1276.96	0.056159
1288.53	0.040429
1300.1	0.021319
1311.68	0.013879
1323.25	0.011369
1334.83	0.014079
1346.4	0.021499
1357.97	0.020489
1369.55	0.022469
1381.12	0.026379
1392.7	0.023429
1404.27	0.018269
1415.84	0.011489
1427.42	0.008099
1438.99	0.007679
1450.57	0.008109
1462.14	0.006799
1473.71	0.005919
1485.29	0.005529
1496.86	0.003809
1508.44	0.002809
1520.01	0.002249
1531.58	0.001859
1543.16	0.001599
1554.73	0.001379
1566.31	0.0012293
1577.88	0.0011782
1589.45	0.0012063
1601.03	0.001549
1612.6	0.001919
1624.18	0.001989
1635.75	0.002039
1647.32	0.001579
1658.9	0.001479
1670.47	0.001479
1682.05	0.001469
1693.62	0.001469
1705.19	0.001439
1716.77	0.001369
1728.34	0.001379
1739.92	0.001459
1751.49	0.001629
1763.06	0.001729
1774.64	0.001749
1786.21	0.001699
1797.79	0.001659
1809.36	0.001639
1820.93	0.001629
1832.51	0.001669
1844.08	0.001749
1855.66	0.001839
1867.23	0.001819
1878.8	0.001739
1890.38	0.001599
1901.95	0.001379
1913.53	0.0012413
1925.1	0.0011507
1936.67	0.0011572
1948.25	0.0011703
1959.82	0.0011563
1971.4	0.0010972
1982.97	0.0010557
1994.54	0.0009619
2006.12	0.000918
2017.69	0.0008524
2029.27	0.0008277
2040.84	0.000805
2052.41	0.0008049
2063.99	0.0007597
2075.56	0.0007591
2087.14	0.0007484
2098.71	0.0007911
2110.28	0.0008059
2121.86	0.0007926
2133.43	0.0008022
2145.01	0.0007616
2156.58	0.0007391
2168.15	0.0007076
2179.73	0.000668
2191.3	0.0006329
2202.88	0.0005819
2214.45	0.000563
2226.02	0.0005324
2237.6	0.0005205
2249.17	0.0005177
2260.74	0.0005757
2272.32	0.0005879
2283.89	0.0005079
2295.47	0.000469
2307.04	0.0004617
2318.61	0.0004411
2330.19	0.0004267
2341.76	0.0004374
2353.34	0.0004078
2364.91	0.00035262
2376.48	0.0003674
2388.06	0.00036834
2399.63	0.00037516
2411.21	0.000416
2422.78	0.000465
2434.35	0.0005089
2445.93	0.0005019
2457.5	0.0005036
2469.08	0.0005014
2480.65	0.0004034
2492.22	0.0003792
2503.8	0.0003915
2515.37	0.00035552
2526.95	0.00033298
2538.52	0.00030598
2550.09	0.00032137
2561.67	0.00034062
2573.24	0.00036272
2584.82	0.0004178
2596.39	0.0005133
2607.96	0.0006556
2619.54	0.0007312
2631.11	0.0007933
2642.69	0.0008374
2654.26	0.0009195
2665.83	0.0009728
2677.41	0.0010404
2688.98	0.001089
2700.56	0.0011787
2712.13	0.001469
2723.7	0.001869
2735.28	0.002269
2746.85	0.002479
2758.43	0.002709
2770	0.003149
2781.57	0.003519
2793.15	0.003819
2804.72	0.004199
2816.3	0.004739
2827.87	0.005619
2839.44	0.007059
2851.02	0.009869
2862.59	0.014789
2874.17	0.023059
2885.74	0.029249
2897.31	0.028889
2908.89	0.031799
2920.46	0.034209
2932.04	0.041919
2943.61	0.047519
2955.18	0.034489
2966.76	0.038369
2978.33	0.060579
2989.91	0.058579
3001.48	0.030399
3013.05	0.017679
3024.63	0.010939
3036.2	0.007039
3047.78	0.004799
3059.35	0.003359
3070.92	0.002579
3082.5	0.002059
3094.07	0.001819
3105.65	0.001639
3117.22	0.001499
3128.79	0.001389
3140.37	0.0012231
3151.94	0.0011691
3163.52	0.0011106
3175.09	0.0010408
3186.66	0.0009979
3198.24	0.0009093
3209.81	0.0008656
3221.39	0.0007094
3232.96	0.0006243
3244.53	0.0005062
3256.11	0.00037053
3267.68	0.00031546
3279.26	0.000278437
3290.83	0.0002221
3302.4	0.0002258
3313.98	0.0002352
3325.55	0.00017
3337.13	0.0002281
3348.7	0.0002042
3360.27	0.0001919
3371.85	0.000154
3383.42	0.0002
3395	0.000154
3406.57	0.000126
3418.14	0.000115
3429.72	0.00011
3441.29	0.000159
3452.86	9.3e-05
3464.44	0.000131
3476.01	0.000136
3487.59	0.000101
3499.16	8.7e-05
3510.73	0.000103
3522.31	0.000108
3533.88	9.1e-05
3545.46	9.7e-05
3557.03	7.7e-05
3568.6	0.000137
3580.18	9.2e-05
3591.75	4.5e-05
3603.33	5.4e-05
3614.9	0.000118
3626.47	0.000117
3638.05	0.00013
3649.62	0.000157
3661.2	7.4e-05
3672.77	0.000124
3684.34	0.0002009
3695.92	0.0001939
3707.49	0.0001799
3719.07	0.0002089
3730.64	0.0002458
3742.21	0.0001954
3753.79	0.0002156
3765.36	0.00031173
3776.94	0.0002172
3788.51	0.00031826
3800.08	0.00019
3811.66	0.0002342
3823.23	0.0002047
3834.81	0.000168
3846.38	0.0002012
3857.95	0.000219
3869.53	0.00029293
3881.1	0.000239
3892.68	0.00030165
3904.25	0.00030955
3915.82	0.00036329
3927.4	0.00037417
3938.97	0.0003881
3950.55	0.0004164
3962.12	0.0004817
3973.69	0.0006046
3985.27	0.0006127
3996.84	0.000615
