Infrared Spectrum: 2,3-Dimethyl-2,3-butanediol
Formula: C 6 H 14 O 2
CAS: 76-09-5
State: gas
Instrument: HP-GC/MS/IRD
Origin: NIST Mass Spectrometry Data Center
1/CM	ABSORBANCE
550	0.001407
562	0.0007742
574	0.0004284
586	0.0002394
598	0.0002072
610	0.0001484
622	9.52e-05
634	0.0001134
646	0.0002114
658	0.0002912
670	0.0003234
682	0.000217
694	0.0001736
706	9.52e-05
718	9.24e-05
730	0.0001078
742	9.94e-05
754	2.8e-05
766	7e-05
778	7.98e-05
790	0.0001918
802	0.0003794
814	0.0007854
826	0.0011116
838	0.0007812
850	0.0005922
862	0.000882
874	0.0015148
886	0.001771
898	0.0012348
910	0.001078
922	0.0019628
934	0.0037898
946	0.0051212
958	0.0038766
970	0.0018256
982	0.0008148
994	0.0006426
1006	0.0006132
1018	0.0006328
1030	0.0007322
1042	0.0009282
1054	0.0013958
1066	0.002352
1078	0.0038794
1090	0.0055664
1102	0.006209
1114	0.0061726
1126	0.0062762
1138	0.0068866
1150	0.0080696
1162	0.0089376
1174	0.0081214
1186	0.005964
1198	0.0038332
1210	0.0023786
1222	0.001701
1234	0.0014266
1246	0.001351
1258	0.001414
1270	0.0015708
1282	0.001813
1294	0.00217
1306	0.0026418
1318	0.00315
1330	0.003689
1342	0.003969
1354	0.0044352
1366	0.006503
1378	0.0080388
1390	0.0056014
1402	0.0022526
1414	0.0011312
1426	0.001064
1438	0.0012712
1450	0.001652
1462	0.001995
1474	0.0018354
1486	0.0011578
1498	0.000567
1510	0.0003346
1522	0.0002296
1534	0.0001708
1546	0.000161
1558	0.000154
1570	9.1e-05
1582	7.28e-05
1594	8.96e-05
1606	7.56e-05
1618	9.38e-05
1630	6.86e-05
1642	8.82e-05
1654	7.7e-05
1666	6.16e-05
1678	7.14e-05
1690	5.04e-05
1702	7.14e-05
1714	8.12e-05
1726	7e-05
1738	8.54e-05
1750	5.88e-05
1762	5.74e-05
1774	4.9e-05
1786	6.58e-05
1798	4.62e-05
1810	6.16e-05
1822	7.42e-05
1834	8.12e-05
1846	4.9e-05
1858	5.32e-05
1870	4.62e-05
1882	5.6e-05
1894	4.76e-05
1906	3.78e-05
1918	3.36e-05
1930	2.38e-05
1942	2.52e-05
1954	2.94e-05
1966	2.52e-05
1978	3.08e-05
1990	4.48e-05
2002	3.92e-05
2014	2.8e-05
2026	5.74e-05
2038	5.88e-05
2050	6.86e-05
2062	6.02e-05
2074	3.92e-05
2086	2.94e-05
2098	2.94e-05
2110	4.62e-05
2122	1.4e-05
2134	3.5e-05
2146	3.78e-05
2158	2.8e-06
2170	1.26e-05
2182	3.78e-05
2194	3.64e-05
2206	3.78e-05
2218	4.34e-05
2230	1.96e-05
2242	1.82e-05
2254	3.78e-05
2266	3.92e-05
2278	3.78e-05
2290	4.9e-05
2302	5.32e-05
2314	6.58e-05
2326	3.78e-05
2338	3.08e-05
2350	1.4e-05
2362	2.24e-05
2374	3.5e-05
2386	1.82e-05
2398	1.26e-05
2410	5.04e-05
2422	2.1e-05
2434	3.08e-05
2446	3.64e-05
2458	1.96e-05
2470	2.38e-05
2482	1.26e-05
2494	1.54e-05
2506	3.22e-05
2518	2.38e-05
2530	2.8e-06
2542	3.08e-05
2554	0
2566	2.66e-05
2578	4.34e-05
2590	4.48e-05
2602	2.52e-05
2614	3.64e-05
2626	6.02e-05
2638	4.48e-05
2650	3.08e-05
2662	6.3e-05
2674	2.52e-05
2686	5.74e-05
2698	4.2e-05
2710	5.6e-05
2722	8.96e-05
2734	0.0001232
2746	0.0001204
2758	0.0001358
2770	0.00014
2782	0.0001316
2794	0.0001764
2806	0.0002492
2818	0.0002968
2830	0.000399
2842	0.0004858
2854	0.000749
2866	0.0012474
2878	0.0020286
2890	0.00259
2902	0.0029344
2914	0.0033502
2926	0.0041258
2938	0.005145
2950	0.0056938
2962	0.0067074
2974	0.0107086
2986	0.014
2998	0.0107716
3010	0.004599
3022	0.0014868
3034	0.0006314
3046	0.0004774
3058	0.0003864
3070	0.0003458
3082	0.0002744
3094	0.0002436
3106	0.00021
3118	0.000231
3130	0.0002226
3142	0.0001932
3154	0.0002156
3166	0.0002212
3178	0.0002184
3190	0.000238
3202	0.0002268
3214	0.0002254
3226	0.000182
3238	0.0001596
3250	0.0001036
3262	0.0001036
3274	9.52e-05
3286	7.28e-05
3298	8.82e-05
3310	4.76e-05
3322	5.88e-05
3334	9.52e-05
3346	6.58e-05
3358	5.88e-05
3370	7.14e-05
3382	4.62e-05
3394	2.94e-05
3406	5.6e-05
3418	5.04e-05
3430	9.8e-05
3442	8.26e-05
3454	9.38e-05
3466	0.0001092
3478	0.0001162
3490	7.98e-05
3502	0.0001316
3514	0.0001988
3526	0.0002072
3538	0.0001932
3550	0.0002548
3562	0.0003262
3574	0.0006132
3586	0.0010332
3598	0.0015386
3610	0.0017178
3622	0.0016548
3634	0.0015722
3646	0.0016044
3658	0.0012054
3670	0.000714
3682	0.0003332
3694	0.0002366
3706	0.0001778
3718	9.24e-05
3730	5.32e-05
3742	8.12e-05
3754	2.52e-05
3766	2.94e-05
3778	2.66e-05
3790	0
3802	5.32e-05
3814	9.8e-06
3826	7.42e-05
3838	9.94e-05
