Infrared Spectrum: TRICHLOROACETYL CHLORIDE
Formula: C2 Cl4 O
CAS: 76-02-8
State: SOLUTION (10% CCl4 FOR 2.5-7.5, 10% CS2 FOR 7.5-16 MICRON)
Class: COBLENTZ
Instrument: Not specified, most likely a prism, grating, or hybrid spectrometer.
Sampling: TRANSMISSION
Path length: 0.01 CM, 0.01 CM
Resolution: 4
MICROMETERS	TRANSMITTANCE
2.093	0.903
2.13303	0.905
2.17305	0.91
2.21308	0.907
2.25311	0.905
2.29313	0.908
2.33316	0.908
2.37319	0.91
2.41322	0.91
2.45324	0.91
2.49327	0.912
2.5333	0.92
2.57332	0.922
2.61335	0.92
2.65338	0.923
2.6934	0.918
2.73343	0.903
2.77346	0.865
2.81348	0.87
2.85351	0.874
2.89354	0.87
2.93357	0.867
2.97359	0.869
3.01362	0.872
3.05365	0.867
3.09367	0.865
3.1337	0.862
3.17373	0.857
3.21375	0.854
3.25378	0.855
3.29381	0.859
3.33383	0.864
3.37386	0.86
3.41389	0.87
3.45392	0.874
3.49394	0.877
3.53397	0.88
3.574	0.884
3.61402	0.887
3.65405	0.89
3.69408	0.895
3.7341	0.897
3.77413	0.902
3.81416	0.905
3.85418	0.908
3.89421	0.91
3.93424	0.908
3.97427	0.913
4.01429	0.912
4.05432	0.912
4.09435	0.912
4.13437	0.912
4.1744	0.913
4.21443	0.912
4.25445	0.91
4.29448	0.905
4.33451	0.895
4.37453	0.908
4.41456	0.913
4.45459	0.922
4.49462	0.925
4.53464	0.928
4.57467	0.927
4.6147	0.928
4.65472	0.928
4.69475	0.93
4.73478	0.93
4.7748	0.932
4.81483	0.932
4.85486	0.923
4.89488	0.899
4.93491	0.89
4.97494	0.918
5.01497	0.923
5.05499	0.925
5.09502	0.933
5.13505	0.938
5.17507	0.942
5.2151	0.938
5.25513	0.927
5.29515	0.917
5.33518	0.902
5.37521	0.874
5.41523	0.839
5.45526	0.67
5.49529	0.339
5.53532	0.057
5.57534	0.541
5.61537	0.663
5.6554	0.6
5.69542	0.566
5.73545	0.736
5.77548	0.875
5.8155	0.9
5.85553	0.912
5.89556	0.913
5.93558	0.91
5.97561	0.9
6.01564	0.89
6.05567	0.884
6.09569	0.884
6.13572	0.872
6.17575	0.839
6.21577	0.759
6.2558	0.68
6.29583	0.639
6.33585	0.596
6.37588	0.534
6.41591	0.481
6.45593	0.495
6.49596	0.605
6.53599	0.647
6.57602	0.715
6.61604	0.791
6.65607	0.827
6.6961	0.874
6.73612	0.88
6.77615	0.894
6.81618	0.908
6.8562	0.915
6.89623	0.913
6.93626	0.913
6.97628	0.91
7.01631	0.912
7.05634	0.917
7.09637	0.925
7.13639	0.93
7.17642	0.932
7.21645	0.928
7.25647	0.927
7.2965	0.933
7.33653	0.943
7.37655	0.945
7.41658	0.943
7.45661	0.938
7.49663	0.928
7.53666	0.927
7.57669	0.923
7.61672	0.923
7.65674	0.918
7.69677	0.925
7.7368	0.928
7.77682	0.93
7.81685	0.93
7.85688	0.928
7.8969	0.925
7.93693	0.933
7.97696	0.928
8.01698	0.923
8.05701	0.932
8.09704	0.938
8.13707	0.942
8.17709	0.947
8.21712	0.951
8.25715	0.95
8.29717	0.95
8.3372	0.951
8.37723	0.955
8.41725	0.955
8.45728	0.955
8.49731	0.955
8.53733	0.947
8.57736	0.947
8.61739	0.951
8.65742	0.953
8.69744	0.953
8.73747	0.953
8.7775	0.951
8.81752	0.95
8.85755	0.951
8.89758	0.951
8.9376	0.95
8.97763	0.937
9.01766	0.915
9.05768	0.894
9.09771	0.882
9.13774	0.89
9.17777	0.902
9.21779	0.908
9.25782	0.908
9.29785	0.907
9.33787	0.899
9.3779	0.894
9.41793	0.887
9.45795	0.879
9.49798	0.864
9.53801	0.836
9.57803	0.796
9.61806	0.723
9.65809	0.562
9.69812	0.364
9.73814	0.173
9.77817	0.129
9.8182	0.092
9.85822	0.119
9.89825	0.394
9.93828	0.6
9.9783	0.716
10.0183	0.798
10.0584	0.85
10.0984	0.872
10.1384	0.879
10.1784	0.882
10.2185	0.885
10.2585	0.885
10.2985	0.889
10.3385	0.894
10.3786	0.9
10.4186	0.903
10.4586	0.907
10.4987	0.912
10.5387	0.912
10.5787	0.91
10.6187	0.91
10.6588	0.913
10.6988	0.918
10.7388	0.923
10.7788	0.923
10.8189	0.92
10.8589	0.913
10.8989	0.903
10.939	0.895
10.979	0.884
11.019	0.88
11.059	0.88
11.0991	0.882
11.1391	0.877
11.1791	0.864
11.2191	0.847
11.2592	0.819
11.2992	0.796
11.3392	0.754
11.3792	0.708
11.4193	0.658
11.4593	0.609
11.4993	0.574
11.5394	0.529
11.5794	0.461
11.6194	0.357
11.6594	0.271
11.6995	0.231
11.7395	0.201
11.7795	0.177
11.8195	0.173
11.8596	0.211
11.8996	0.294
11.9396	0.39
11.9796	0.468
12.0197	0.519
12.0597	0.541
12.0997	0.549
12.1398	0.538
12.1798	0.516
12.2198	0.48
12.2598	0.432
12.2999	0.369
12.3399	0.264
12.3799	0.18
12.4199	0.1
12.46	0.051
12.5	0.036
12.54	0.041
12.5801	0.067
12.6201	0.134
12.6601	0.2
12.7001	0.264
12.7402	0.332
12.7802	0.392
12.8202	0.468
12.8602	0.524
12.9003	0.556
12.9403	0.579
12.9803	0.592
13.0203	0.589
13.0604	0.574
13.1004	0.543
13.1404	0.498
13.1805	0.437
13.2205	0.344
13.2605	0.243
13.3005	0.19
13.3406	0.149
13.3806	0.097
13.4206	0.061
13.4606	0.023
13.5007	0
13.5407	0
13.5807	0
13.6208	0
13.6608	0
13.7008	0.034
13.7408	0.11
13.7809	0.23
13.8209	0.354
13.8609	0.448
13.9009	0.526
13.941	0.571
13.981	0.597
14.021	0.62
14.061	0.63
14.1011	0.64
14.1411	0.649
14.1811	0.655
14.2212	0.66
14.2612	0.662
14.3012	0.662
14.3412	0.665
14.3813	0.662
14.4213	0.657
14.4613	0.652
14.5013	0.647
14.5414	0.639
14.5814	0.629
14.6214	0.622
14.6615	0.617
14.7015	0.607
14.7415	0.599
14.7815	0.594
14.8216	0.587
14.8616	0.582
14.9016	0.574
14.9416	0.569
14.9817	0.561
15.0217	0.549
15.0617	0.543
15.1017	0.533
15.1418	0.521
15.1818	0.509
15.2218	0.501
15.2619	0.495
15.3019	0.485
15.3419	0.476
15.3819	0.471
15.422	0.461
15.462	0.455
15.502	0.447
15.542	0.44
15.5821	0.433
15.6221	0.42
15.6621	0.413
15.7022	0.405
15.7422	0.397
15.7822	0.387
15.8222	0.379
15.8623	0.37
15.9023	0.374
15.9423	0.403
