Infrared Spectrum: 1,1-DIFLUORO-1,2,2,2-TETRACHLORO ETHANE
Formula: C2 Cl4 F2
CAS: 76-11-9
State: SOLUTION (10% CCl4 FOR 5000-1330, 10% CS2 FOR 1330-625 CM^-^1)
Class: COBLENTZ
Instrument: Not specified, most likely a prism, grating, or hybrid spectrometer.
Sampling: TRANSMISSION
Path length: 0.0125 CM, 0.0119 CM
Resolution: 4
Origin: DOW CHEMICAL COMPANY
MICROMETERS	TRANSMITTANCE
2.027	0.897
2.06812	0.902
2.10923	0.902
2.15035	0.901
2.19147	0.901
2.23258	0.901
2.2737	0.897
2.31481	0.897
2.35593	0.901
2.39705	0.901
2.43816	0.902
2.47928	0.901
2.5204	0.901
2.56151	0.902
2.60263	0.899
2.64375	0.904
2.68486	0.899
2.72598	0.902
2.76709	0.896
2.80821	0.896
2.84933	0.894
2.89044	0.889
2.93156	0.892
2.97268	0.89
3.01379	0.89
3.05491	0.896
3.09603	0.894
3.13714	0.89
3.17826	0.896
3.21937	0.902
3.26049	0.902
3.30161	0.902
3.34272	0.894
3.38384	0.872
3.42496	0.885
3.46607	0.885
3.50719	0.897
3.54831	0.902
3.58942	0.897
3.63054	0.901
3.67165	0.901
3.71277	0.901
3.75389	0.899
3.795	0.899
3.83612	0.899
3.87724	0.901
3.91835	0.901
3.95947	0.901
4.00059	0.899
4.0417	0.901
4.08282	0.901
4.12393	0.901
4.16505	0.899
4.20617	0.887
4.24728	0.868
4.2884	0.855
4.32952	0.865
4.37063	0.882
4.41175	0.892
4.45287	0.897
4.49398	0.894
4.5351	0.884
4.57621	0.882
4.61733	0.897
4.65845	0.901
4.69956	0.902
4.74068	0.902
4.7818	0.902
4.82291	0.901
4.86403	0.899
4.90515	0.897
4.94626	0.887
4.98738	0.885
5.02849	0.896
5.06961	0.899
5.11073	0.901
5.15184	0.901
5.19296	0.901
5.23408	0.897
5.27519	0.896
5.31631	0.892
5.35743	0.889
5.39854	0.885
5.43966	0.892
5.48077	0.89
5.52189	0.887
5.56301	0.88
5.60412	0.887
5.64524	0.892
5.68636	0.894
5.72747	0.894
5.76859	0.892
5.80971	0.89
5.85082	0.885
5.89194	0.88
5.93305	0.88
5.97417	0.884
6.01529	0.882
6.0564	0.872
6.09752	0.867
6.13864	0.856
6.17975	0.816
6.22087	0.747
6.26199	0.667
6.3031	0.62
6.34422	0.574
6.38533	0.529
6.42645	0.459
6.46757	0.463
6.50868	0.577
6.5498	0.621
6.59092	0.674
6.63203	0.73
6.67315	0.783
6.71427	0.826
6.75538	0.846
6.7965	0.856
6.83761	0.865
6.87873	0.872
6.91985	0.872
6.96096	0.867
7.00208	0.867
7.0432	0.87
7.08431	0.867
7.12543	0.863
7.16655	0.868
7.20766	0.873
7.24878	0.872
7.28989	0.87
7.33101	0.863
7.37213	0.853
7.41324	0.862
7.45436	0.853
7.49548	0.851
7.53659	0.863
7.57771	0.87
7.61883	0.853
7.65994	0.868
7.70106	0.863
7.74217	0.865
7.78329	0.87
7.82441	0.873
7.86552	0.872
7.90664	0.867
7.94776	0.862
7.98887	0.862
8.02999	0.873
8.07111	0.87
8.11222	0.858
8.15334	0.855
8.19445	0.836
8.23557	0.826
8.27669	0.822
8.3178	0.805
8.35892	0.754
8.40004	0.717
8.44115	0.623
8.48227	0.439
8.52339	0.182
8.5645	0.027
8.60562	0.018
8.64673	0.023
8.68785	0.182
8.72897	0.497
8.77008	0.616
8.8112	0.689
8.85232	0.73
8.89343	0.763
8.93455	0.788
8.97567	0.79
9.01678	0.771
9.0579	0.764
9.09901	0.771
9.14013	0.817
9.18125	0.829
9.22236	0.819
9.26348	0.768
9.3046	0.752
9.34571	0.749
9.38683	0.768
9.42795	0.807
9.46906	0.816
9.51018	0.802
9.55129	0.764
9.59241	0.717
9.63353	0.597
9.67464	0.4
9.71576	0.156
9.75688	0.02
9.79799	0.032
9.83911	0.252
9.88023	0.543
9.92134	0.674
9.96246	0.71
10.0036	0.773
10.0447	0.826
10.0858	0.868
10.1269	0.873
10.168	0.885
10.2092	0.882
10.2503	0.884
10.2914	0.889
10.3325	0.889
10.3736	0.892
10.4147	0.887
10.4559	0.879
10.497	0.872
10.5381	0.873
10.5792	0.875
10.6203	0.868
10.6614	0.855
10.7026	0.858
10.7437	0.863
10.7848	0.868
10.8259	0.873
10.867	0.875
10.9081	0.879
10.9493	0.863
10.9904	0.856
11.0315	0.848
11.0726	0.831
11.1137	0.81
11.1548	0.804
11.1959	0.781
11.2371	0.751
11.2782	0.71
11.3193	0.645
11.3604	0.55
11.4015	0.458
11.4426	0.419
11.4838	0.454
11.5249	0.497
11.566	0.502
11.6071	0.436
11.6482	0.32
11.6893	0.149
11.7305	0.028
11.7716	0.001
11.8127	0
11.8538	0
11.8949	0
11.936	0.035
11.9772	0.151
12.0183	0.356
12.0594	0.478
12.1005	0.572
12.1416	0.645
12.1827	0.683
12.2239	0.706
12.265	0.732
12.3061	0.754
12.3472	0.763
12.3883	0.773
12.4294	0.776
12.4706	0.763
12.5117	0.741
12.5528	0.717
12.5939	0.691
12.635	0.645
12.6761	0.591
12.7173	0.516
12.7584	0.422
12.7995	0.293
12.8406	0.131
12.8817	0.025
12.9228	0
12.964	0
13.0051	0
13.0462	0.052
13.0873	0.236
13.1284	0.395
13.1695	0.504
13.2107	0.546
13.2518	0.55
13.2929	0.511
13.334	0.466
13.3751	0.448
13.4162	0.459
13.4573	0.505
13.4985	0.555
13.5396	0.626
13.5807	0.674
13.6218	0.717
13.6629	0.741
13.704	0.754
13.7452	0.759
13.7863	0.759
13.8274	0.759
13.8685	0.756
13.9096	0.752
13.9507	0.749
13.9919	0.744
14.033	0.741
14.0741	0.737
14.1152	0.734
14.1563	0.729
14.1974	0.724
14.2386	0.718
14.2797	0.71
14.3208	0.701
14.3619	0.696
14.403	0.691
14.4441	0.684
14.4853	0.678
14.5264	0.671
14.5675	0.664
14.6086	0.655
14.6497	0.65
14.6908	0.645
14.732	0.637
14.7731	0.626
14.8142	0.616
14.8553	0.608
14.8964	0.599
14.9375	0.592
14.9787	0.582
15.0198	0.577
15.0609	0.567
15.102	0.558
15.1431	0.546
15.1842	0.536
15.2254	0.528
15.2665	0.519
15.3076	0.511
15.3487	0.504
15.3898	0.495
15.4309	0.49
15.4721	0.485
15.5132	0.477
15.5543	0.468
15.5954	0.456
15.6365	0.451
15.6776	0.441
15.7187	0.431
15.7599	0.417
15.801	0.41
15.8421	0.398
15.8832	0.386
15.9243	0.386
15.9654	0.396
