Infrared Spectrum: 1,1,2,3,3-PENTAFLUORO-1,2,3-TRICHLORO PROPANE
Formula: C3 Cl3 F5
CAS: 76-17-5
State: SOLUTION (10% CCl4 FOR 5000-1330, 10% CS2 FOR 1330-625 CM^-^1)
Class: COBLENTZ
Instrument: Not specified, most likely a prism, grating, or hybrid spectrometer.
Sampling: TRANSMISSION
Path length: 0.0110 CM, 0.0111 CM
Resolution: 4
Origin: DOW CHEMICAL COMPANY
MICROMETERS	TRANSMITTANCE
2.034	0.856
2.07514	0.856
2.11627	0.858
2.15741	0.858
2.19854	0.858
2.23968	0.86
2.28081	0.858
2.32195	0.863
2.36309	0.868
2.40422	0.868
2.44536	0.87
2.48649	0.872
2.52763	0.872
2.56876	0.873
2.6099	0.877
2.65104	0.877
2.69217	0.877
2.73331	0.873
2.77444	0.872
2.81558	0.872
2.85671	0.867
2.89785	0.858
2.93899	0.856
2.98012	0.856
3.02126	0.86
3.06239	0.863
3.10353	0.867
3.14466	0.875
3.1858	0.877
3.22694	0.877
3.26807	0.877
3.30921	0.877
3.35034	0.877
3.39148	0.877
3.43261	0.877
3.47375	0.877
3.51489	0.882
3.55602	0.889
3.59716	0.89
3.63829	0.889
3.67943	0.889
3.72056	0.89
3.7617	0.89
3.80284	0.89
3.84397	0.894
3.88511	0.897
3.92624	0.897
3.96738	0.897
4.00851	0.897
4.04965	0.897
4.09079	0.892
4.13192	0.889
4.17306	0.89
4.21419	0.894
4.25533	0.894
4.29646	0.877
4.3376	0.858
4.37874	0.867
4.41987	0.873
4.46101	0.875
4.50214	0.875
4.54328	0.877
4.58441	0.884
4.62555	0.892
4.66669	0.896
4.70782	0.899
4.74896	0.902
4.79009	0.902
4.83123	0.902
4.87236	0.902
4.9135	0.901
4.95463	0.896
4.99577	0.892
5.03691	0.89
5.07804	0.89
5.11918	0.894
5.16031	0.896
5.20145	0.897
5.24258	0.897
5.28372	0.896
5.32486	0.89
5.36599	0.889
5.40713	0.887
5.44826	0.885
5.4894	0.884
5.53053	0.884
5.57167	0.882
5.61281	0.879
5.65394	0.879
5.69508	0.88
5.73621	0.882
5.77735	0.882
5.81848	0.882
5.85962	0.882
5.90076	0.88
5.94189	0.88
5.98303	0.875
6.02416	0.875
6.0653	0.867
6.10643	0.855
6.14757	0.853
6.18871	0.831
6.22984	0.775
6.27098	0.696
6.31211	0.643
6.35325	0.623
6.39438	0.582
6.43552	0.507
6.47666	0.494
6.51779	0.551
6.55893	0.608
6.60006	0.66
6.6412	0.718
6.68233	0.776
6.72347	0.814
6.76461	0.834
6.80574	0.844
6.84688	0.855
6.88801	0.856
6.92915	0.863
6.97028	0.862
7.01142	0.86
7.05256	0.86
7.09369	0.86
7.13483	0.86
7.17596	0.862
7.2171	0.86
7.25823	0.858
7.29937	0.856
7.34051	0.855
7.38164	0.855
7.42278	0.856
7.46391	0.858
7.50505	0.858
7.54618	0.86
7.58732	0.86
7.62846	0.846
7.66959	0.843
7.71073	0.834
7.75186	0.827
7.793	0.816
7.83413	0.795
7.87527	0.766
7.91641	0.722
7.95754	0.647
7.99868	0.528
8.03981	0.342
8.08095	0.219
8.12208	0.185
8.16322	0.056
8.20436	0.015
8.24549	0.023
8.28663	0.059
8.32776	0.052
8.3689	0.034
8.41003	0.054
8.45117	0.034
8.49231	0.023
8.53344	0.023
8.57458	0.056
8.61571	0.132
8.65685	0.16
8.69798	0.161
8.73912	0.202
8.78026	0.298
8.82139	0.313
8.86253	0.156
8.90366	0.057
8.9448	0.177
8.98593	0.367
9.02707	0.42
9.06821	0.422
9.10934	0.487
9.15048	0.509
9.19161	0.434
9.23275	0.275
9.27388	0.156
9.31502	0.12
9.35616	0.199
9.39729	0.289
9.43843	0.269
9.47956	0.459
9.5207	0.54
9.56183	0.456
9.60297	0.434
9.64411	0.502
9.68524	0.466
9.72638	0.323
9.76751	0.306
9.80865	0.323
9.84978	0.229
9.89092	0.16
9.93206	0.201
9.97319	0.219
10.0143	0.383
10.0555	0.529
10.0966	0.638
10.1377	0.703
10.1789	0.729
10.22	0.749
10.2611	0.778
10.3023	0.78
10.3434	0.761
10.3845	0.729
10.4257	0.669
10.4668	0.453
10.508	0.221
10.5491	0.303
10.5902	0.505
10.6314	0.57
10.6725	0.446
10.7136	0.34
10.7548	0.35
10.7959	0.456
10.837	0.531
10.8782	0.57
10.9193	0.599
10.9604	0.601
11.0016	0.533
11.0427	0.344
11.0839	0.272
11.125	0.315
11.1661	0.367
11.2073	0.369
11.2484	0.342
11.2895	0.328
11.3307	0.332
11.3718	0.385
11.4129	0.458
11.4541	0.49
11.4952	0.495
11.5363	0.499
11.5775	0.511
11.6186	0.545
11.6598	0.57
11.7009	0.579
11.742	0.58
11.7832	0.586
11.8243	0.582
11.8654	0.546
11.9066	0.422
11.9477	0.304
11.9888	0.26
12.03	0.301
12.0711	0.356
12.1122	0.345
12.1534	0.189
12.1945	0.081
12.2357	0.097
12.2768	0.187
12.3179	0.316
12.3591	0.444
12.4002	0.521
12.4413	0.558
12.4825	0.466
12.5236	0.26
12.5647	0.12
12.6059	0.156
12.647	0.396
12.6881	0.529
12.7293	0.623
12.7704	0.681
12.8116	0.725
12.8527	0.746
12.8938	0.758
12.935	0.771
12.9761	0.776
13.0172	0.78
13.0584	0.78
13.0995	0.776
13.1406	0.77
13.1818	0.758
13.2229	0.751
13.264	0.739
13.3052	0.72
13.3463	0.693
13.3875	0.637
13.4286	0.511
13.4697	0.291
13.5109	0.109
13.552	0.04
13.5931	0.073
13.6343	0.19
13.6754	0.33
13.7165	0.42
13.7577	0.504
13.7988	0.557
13.8399	0.616
13.8811	0.652
13.9222	0.669
13.9634	0.678
14.0045	0.679
14.0456	0.678
14.0868	0.667
14.1279	0.64
14.169	0.582
14.2102	0.519
14.2513	0.499
14.2924	0.524
14.3336	0.58
14.3747	0.614
14.4158	0.63
14.457	0.635
14.4981	0.638
14.5393	0.635
14.5804	0.63
14.6215	0.625
14.6627	0.62
14.7038	0.608
14.7449	0.597
14.7861	0.592
14.8272	0.582
14.8683	0.574
14.9095	0.568
14.9506	0.555
14.9917	0.531
15.0329	0.495
15.074	0.478
15.1152	0.471
15.1563	0.471
15.1974	0.471
15.2386	0.473
15.2797	0.473
15.3208	0.47
15.362	0.465
15.4031	0.461
15.4442	0.461
15.4854	0.459
15.5265	0.458
15.5676	0.456
15.6088	0.451
15.6499	0.448
15.6911	0.439
15.7322	0.431
15.7733	0.425
15.8145	0.42
15.8556	0.417
15.8967	0.412
