Infrared Spectrum: Pregna-1,4-diene-3,20-dione,9Alpha-fluoro-11Beta,21-dihydroxy-16Alpha,17Alpha-isopropylidenedioxy-,
Formula: C24 H31 F O6
CAS: 76-25-5
State: SOLID (1.5 mg / 300 mg KBr DISC)
Melting point: 292-294 C
Class: COBLENTZ III
Instrument: PERKIN-ELMER 21 (GRATING)
Resolution: 2
Origin: THE SQUIBB INSTITUTE FOR MEDICAL RESEARCH
1/CM	TRANSMITTANCE
662	0.7791
671	0.7773
680	0.7819
689	0.7798
698	0.6186
707	0.7867
716	0.7559
725	0.8295
734	0.8303
743	0.7971
752	0.7309
761	0.7837
770	0.7271
779	0.7696
788	0.81
797	0.7994
806	0.7512
815	0.6625
824	0.643
833	0.7023
842	0.7635
851	0.5606
860	0.4753
869	0.6703
878	0.4964
887	0.4001
896	0.0983
905	0.5894
914	0.6141
923	0.5133
932	0.6052
941	0.546
950	0.5366
959	0.6303
968	0.4609
977	0.5733
986	0.6029
995	0.6793
1004	0.5747
1013	0.5393
1022	0.6731
1031	0.5397
1040	0.449
1049	0.2398
1058	0.0444
1067	0.2066
1076	0.0987
1085	0.29
1094	0.523
1103	0.5553
1112	0.5987
1121	0.4452
1130	0.6011
1139	0.6195
1148	0.6111
1157	0.3794
1166	0.3189
1175	0.3906
1184	0.5407
1193	0.4732
1202	0.2893
1211	0.269
1220	0.3747
1229	0.5648
1238	0.4869
1247	0.2648
1256	0.3355
1265	0.3334
1274	0.2647
1283	0.3464
1292	0.4672
1301	0.3853
1310	0.4957
1319	0.6738
1328	0.6741
1337	0.734
1346	0.6871
1355	0.6517
1364	0.6053
1373	0.4607
1382	0.3463
1391	0.4529
1400	0.4328
1409	0.3767
1418	0.4249
1427	0.4972
1436	0.3981
1445	0.4157
1454	0.4223
1463	0.4858
1472	0.7125
1481	0.7776
1490	0.8392
1499	0.847
1508	0.8504
1517	0.8497
1526	0.8464
1535	0.8404
1544	0.8323
1553	0.8248
1562	0.8136
1571	0.7483
1580	0.6992
1589	0.5842
1598	0.3354
1607	0.1011
1616	0.0932
1625	0.324
1634	0.5443
1643	0.4392
1652	0.2138
1661	0.036
1670	0.0995
1679	0.4151
1688	0.7135
1697	0.598
1706	0.2321
1715	0.5156
1724	0.6255
1733	0.8364
1742	0.8522
1751	0.8585
1760	0.8615
1769	0.8624
1778	0.863
1787	0.8676
1796	0.8961
1805	0.9059
1814	0.9092
1823	0.9128
1832	0.9164
1841	0.9199
1850	0.9228
1859	0.9256
1868	0.9285
1877	0.9313
1886	0.9337
1895	0.9352
1904	0.9353
1913	0.9354
1922	0.9357
1931	0.936
1940	0.9362
1949	0.936
1958	0.9359
1967	0.9357
1976	0.9356
1985	0.9355
1994	0.9354
2003	0.9353
2012	0.9351
2021	0.935
2030	0.9348
2039	0.9347
2048	0.9345
2057	0.9344
2066	0.9344
2075	0.9343
2084	0.9343
2093	0.9341
2102	0.9339
2111	0.9338
2120	0.9332
2129	0.9326
2138	0.932
2147	0.9313
2156	0.9307
2165	0.9301
2174	0.93
2183	0.9299
2192	0.9297
2201	0.9295
2210	0.9292
2219	0.9287
2228	0.9284
2237	0.928
2246	0.9277
2255	0.9275
2264	0.9274
2273	0.9273
2282	0.9272
2291	0.9271
2300	0.927
2309	0.927
2318	0.9267
2327	0.9265
2336	0.9262
2345	0.9259
2354	0.9254
2363	0.9249
2372	0.9242
2381	0.9233
2390	0.9224
2399	0.9206
2408	0.9184
2417	0.9161
2426	0.9143
2435	0.9125
2444	0.9115
2453	0.9109
2462	0.9102
2471	0.9093
2480	0.9084
2489	0.9075
2498	0.9064
2507	0.9053
2516	0.9041
2525	0.9029
2534	0.9012
2543	0.8996
2552	0.898
2561	0.8956
2570	0.893
2579	0.8904
2588	0.8878
2597	0.8852
2606	0.8821
2615	0.8803
2624	0.8795
2633	0.8792
2642	0.879
2651	0.8789
2660	0.8786
2669	0.8784
2678	0.8782
2687	0.8776
2696	0.8771
2705	0.8765
2714	0.8759
2723	0.8742
2732	0.8711
2741	0.867
2750	0.8614
2759	0.8546
2768	0.8478
2777	0.8413
2786	0.8351
2795	0.8229
2804	0.8069
2813	0.7829
2822	0.7483
2831	0.7114
2840	0.6745
2849	0.6379
2858	0.6014
2867	0.5651
2876	0.5292
2885	0.4786
2894	0.4387
2903	0.4192
2912	0.4073
2921	0.4126
2930	0.418
2939	0.4665
2948	0.516
2957	0.5652
2966	0.6141
2975	0.6627
2984	0.711
2993	0.7591
3002	0.8052
3011	0.8273
3020	0.8332
3029	0.8369
3038	0.8422
3047	0.8487
3056	0.8517
3065	0.8512
3074	0.8501
3083	0.8481
3092	0.8444
3101	0.8392
3110	0.8325
3119	0.8247
3128	0.8158
3137	0.805
3146	0.7931
3155	0.7811
3164	0.7692
3173	0.7575
3182	0.7456
3191	0.7325
3200	0.7202
3209	0.7084
3218	0.6931
3227	0.6803
3236	0.6649
3245	0.6503
3254	0.632
3263	0.6102
3272	0.5954
3281	0.5744
3290	0.5459
3299	0.5169
3308	0.4672
3317	0.4359
3326	0.3905
3335	0.3311
3344	0.272
3353	0.2146
3362	0.1906
3371	0.1899
3380	0.1916
3389	0.2043
3398	0.2623
3407	0.3213
3416	0.3424
3425	0.3489
3434	0.357
3443	0.3671
3452	0.3837
3461	0.4015
3470	0.516
3479	0.5754
3488	0.6076
3497	0.6361
3506	0.6603
3515	0.6844
3524	0.7468
3533	0.8015
3542	0.816
3551	0.8273
3560	0.835
3569	0.8426
3578	0.8545
3587	0.8751
3596	0.8937
3605	0.9059
3614	0.9142
3623	0.9217
3632	0.9272
3641	0.932
3650	0.9364
3659	0.9432
3668	0.9554
3677	0.9628
3686	0.9634
3695	0.9638
3704	0.964
3713	0.964
3722	0.964
3731	0.9641
3740	0.9642
3749	0.9642
3758	0.9643
3767	0.9644
3776	0.9644
3785	0.9645
3794	0.9645
3803	0.9645
3812	0.9645
3821	0.9645
3830	0.9646
3839	0.9646
3848	0.9646
3857	0.9646
3866	0.9646
3875	0.9646
3884	0.9646
3893	0.9646
3902	0.9647
3911	0.9647
3920	0.9647
3929	0.9647
3938	0.9649
3947	0.9649
3956	0.9651
3965	0.9652
3974	0.9652
3983	0.9654
3992	0.9655
