Infrared Spectrum: DL- Camphor
Formula: C10 H16 O
CAS: 76-22-2
State: SOLUTION (5% CCl4 FOR 4000-1350, 5% CS2 FOR 1350-450 CM^-^1) VS SOLVENT
Class: COBLENTZ III
Instrument: CARY 90 (GRATING)
Instrument parameters: ORDER CHANGES: 3000, 2000, 1200 CM^-^1
Sampling: TRANSMISSION
Path length: 0.011 CM, AND 0.010 CM
Resolution: 2
Origin: WESTERN REGIONAL RES. USDA
1/CM	TRANSMITTANCE
451	0.8127
460	0.9742
469	0.9392
478	0.9685
487	0.9168
496	0.9699
505	0.9632
514	0.8274
523	0.8981
532	0.9591
541	0.9687
550	0.8859
559	0.9722
568	0.9431
577	0.9717
586	0.9797
595	0.9709
604	0.9439
613	0.9623
622	0.9684
631	0.9628
640	0.9416
649	0.8992
658	0.9494
667	0.9601
676	0.9584
685	0.9598
694	0.9598
703	0.9507
712	0.95
721	0.9515
730	0.9476
739	0.9229
748	0.7779
757	0.9397
766	0.9586
775	0.9623
784	0.9612
793	0.9504
802	0.9503
811	0.9515
820	0.946
829	0.9371
838	0.9329
847	0.919
856	0.8456
865	0.904
874	0.9213
883	0.9337
892	0.9394
901	0.9308
910	0.9098
919	0.8739
928	0.8743
937	0.8884
946	0.8436
955	0.9031
964	0.9258
973	0.9245
982	0.9146
991	0.9106
1000	0.9003
1009	0.8428
1018	0.6292
1027	0.8195
1036	0.6645
1045	0.5082
1054	0.7176
1063	0.8729
1072	0.8267
1081	0.8547
1090	0.7515
1099	0.878
1108	0.9052
1117	0.9082
1126	0.8879
1135	0.9018
1144	0.9047
1153	0.8901
1162	0.8256
1171	0.8905
1180	0.9036
1189	0.8542
1198	0.822
1207	0.8943
1216	0.8714
1225	0.8909
1234	0.876
1243	0.84
1252	0.8724
1261	0.8685
1270	0.8065
1279	0.7472
1288	0.8624
1297	0.7931
1306	0.8817
1315	0.8342
1324	0.6921
1333	0.8911
1342	0.9031
1351	0.9006
1360	0.8858
1369	0.6025
1378	0.6383
1387	0.4682
1396	0.8159
1405	0.8491
1414	0.5008
1423	0.8184
1432	0.7967
1441	0.6492
1450	0.5552
1459	0.7285
1468	0.6928
1477	0.7401
1486	0.8381
1495	0.8605
1504	0.8656
1513	0.8655
1522	0.859
1531	0.8454
1540	0.8285
1549	0.8123
1558	0.8192
1567	0.8345
1576	0.839
1585	0.8437
1594	0.8503
1603	0.858
1612	0.8661
1621	0.8748
1630	0.8824
1639	0.8889
1648	0.8896
1657	0.8868
1666	0.8874
1675	0.8845
1684	0.8661
1693	0.8386
1702	0.7968
1711	0.7928
1720	0.7668
1729	0.6332
1738	0.1359
1747	0.0002
1756	0.2316
1765	0.6181
1774	0.7746
1783	0.8065
1792	0.8156
1801	0.8369
1810	0.8681
1819	0.9001
1828	0.9027
1837	0.9039
1846	0.904
1855	0.9038
1864	0.9037
1873	0.9039
1882	0.9042
1891	0.9052
1900	0.9072
1909	0.9109
1918	0.9154
1927	0.9144
1936	0.9089
1945	0.9133
1954	0.9165
1963	0.9139
1972	0.9136
1981	0.9126
1990	0.9116
1999	0.9111
2008	0.9107
2017	0.9104
2026	0.9101
2035	0.9098
2044	0.9094
2053	0.9091
2062	0.9091
2071	0.9103
2080	0.9115
2089	0.9127
2098	0.9139
2107	0.9151
2116	0.9163
2125	0.9175
2134	0.9184
2143	0.9194
2152	0.9203
2161	0.9212
2170	0.9219
2179	0.9224
2188	0.923
2197	0.9225
2206	0.9222
2215	0.9217
2224	0.9214
2233	0.9209
2242	0.9199
2251	0.9188
2260	0.9178
2269	0.9168
2278	0.9161
2287	0.9153
2296	0.9145
2305	0.9137
2314	0.9134
2323	0.9135
2332	0.9136
2341	0.9139
2350	0.9142
2359	0.9144
2368	0.9145
2377	0.9146
2386	0.9146
2395	0.9146
2404	0.9145
2413	0.9141
2422	0.9137
2431	0.9131
2440	0.9126
2449	0.9121
2458	0.9118
2467	0.9115
2476	0.9112
2485	0.9119
2494	0.9131
2503	0.9141
2512	0.9145
2521	0.9147
2530	0.9141
2539	0.9127
2548	0.9109
2557	0.9095
2566	0.9091
2575	0.9088
2584	0.9113
2593	0.9139
2602	0.9163
2611	0.9174
2620	0.9161
2629	0.9147
2638	0.9134
2647	0.912
2656	0.9128
2665	0.9136
2674	0.9139
2683	0.9134
2692	0.9129
2701	0.9114
2710	0.9089
2719	0.9064
2728	0.9002
2737	0.8956
2746	0.9015
2755	0.9052
2764	0.9048
2773	0.9036
2782	0.9022
2791	0.9004
2800	0.8961
2809	0.891
2818	0.8897
2827	0.8789
2836	0.8725
2845	0.8654
2854	0.8522
2863	0.7957
2872	0.5996
2881	0.4584
2890	0.5046
2899	0.5576
2908	0.5509
2917	0.4911
2926	0.4076
2935	0.3241
2944	0.2992
2953	0.203
2962	0.1068
2971	0.0971
2980	0.2708
2989	0.4225
2998	0.5405
3007	0.7637
3016	0.8284
3025	0.8519
3034	0.8647
3043	0.8719
3052	0.883
3061	0.8801
3070	0.8831
3079	0.8853
3088	0.8873
3097	0.8886
3106	0.89
3115	0.8916
3124	0.8932
3133	0.8943
3142	0.8953
3151	0.8964
3160	0.8979
3169	0.8994
3178	0.9003
3187	0.9012
3196	0.9021
3205	0.9027
3214	0.9033
3223	0.9039
3232	0.9045
3241	0.9051
3250	0.9054
3259	0.9053
3268	0.9053
3277	0.9052
3286	0.9052
3295	0.9052
3304	0.9054
3313	0.9055
3322	0.9057
3331	0.9059
3340	0.9061
3349	0.9062
3358	0.9064
3367	0.9065
3376	0.9067
3385	0.9068
3394	0.9069
3403	0.9071
3412	0.9069
3421	0.9057
3430	0.9046
3439	0.9027
3448	0.8979
3457	0.8932
3466	0.8827
3475	0.8699
3484	0.8566
3493	0.8664
3502	0.8786
3511	0.8843
3520	0.8884
3529	0.891
3538	0.8933
3547	0.8941
3556	0.8947
3565	0.8948
3574	0.8949
3583	0.8942
3592	0.8935
3601	0.8929
3610	0.8927
3619	0.8926
3628	0.8929
3637	0.8943
3646	0.8984
3655	0.9019
3664	0.9053
3673	0.9074
3682	0.9089
3691	0.9104
3700	0.9115
3709	0.9125
3718	0.9135
3727	0.9145
3736	0.9154
3745	0.9164
3754	0.9172
3763	0.9177
3772	0.9182
3781	0.917
3790	0.9151
3799	0.9131
3808	0.9103
3817	0.9091
3826	0.912
3835	0.9147
3844	0.9151
3853	0.9153
3862	0.9151
3871	0.912
3880	0.909
3889	0.9076
3898	0.9124
3907	0.9175
3916	0.9207
3925	0.9209
3934	0.9198
3943	0.9184
3952	0.9155
3961	0.9126
3970	0.9104
3979	0.9134
3988	0.9169
3997	0.9198
4006	0.9188
4015	0.9178
