Infrared Spectrum: ALLOXANTIN
Formula: C8 H6 N4 O8
CAS: 76-24-4
State: SOLID (MINERAL OIL MULL)
Class: COBLENTZ
Instrument: Not specified, most likely a prism, grating, or hybrid spectrometer.
Sampling: TRANSMISSION
Resolution: 4
Origin: WYANDOTTE CHEMICALS CORP., WYANDOTTE, MICHIGAN, USA
MICROMETERS	TRANSMITTANCE
2.027	0.611
2.068	0.609
2.10899	0.631
2.14999	0.643
2.19099	0.652
2.23199	0.66
2.27298	0.669
2.31398	0.683
2.35498	0.695
2.39597	0.712
2.43697	0.719
2.47797	0.719
2.51896	0.738
2.55996	0.773
2.60096	0.796
2.64196	0.821
2.68295	0.816
2.72395	0.736
2.76495	0.429
2.80594	0.318
2.84694	0.407
2.88794	0.539
2.92894	0.559
2.96993	0.505
3.01093	0.407
3.05193	0.267
3.09292	0.174
3.13392	0.152
3.17492	0.22
3.21591	0.238
3.25691	0.246
3.29791	0.224
3.33891	0.186
3.3799	0.065
3.4209	0.035
3.4619	0.066
3.50289	0.068
3.54389	0.164
3.58489	0.299
3.62589	0.388
3.66688	0.46
3.70788	0.5
3.74888	0.542
3.78987	0.578
3.83087	0.601
3.87187	0.626
3.91286	0.66
3.95386	0.681
3.99486	0.702
4.03586	0.708
4.07685	0.708
4.11785	0.71
4.15885	0.734
4.19984	0.75
4.24084	0.755
4.28184	0.77
4.32284	0.794
4.36383	0.82
4.40483	0.839
4.44583	0.845
4.48682	0.852
4.52782	0.868
4.56882	0.873
4.60981	0.883
4.65081	0.888
4.69181	0.898
4.73281	0.904
4.7738	0.922
4.8148	0.936
4.8558	0.934
4.89679	0.931
4.93779	0.919
4.97879	0.936
5.01979	0.953
5.06078	0.941
5.10178	0.946
5.14278	0.941
5.18377	0.929
5.22477	0.924
5.26577	0.907
5.30677	0.893
5.34776	0.856
5.38876	0.811
5.42976	0.755
5.47075	0.702
5.51175	0.655
5.55275	0.568
5.59374	0.464
5.63474	0.311
5.67574	0.15
5.71674	0.075
5.75773	0.077
5.79873	0.068
5.83973	0.075
5.88072	0.109
5.92172	0.164
5.96272	0.232
6.00372	0.301
6.04471	0.371
6.08571	0.354
6.12671	0.253
6.1677	0.126
6.2087	0.188
6.2497	0.311
6.29069	0.421
6.33169	0.488
6.37269	0.52
6.41369	0.582
6.45468	0.566
6.49568	0.535
6.53668	0.568
6.57767	0.647
6.61867	0.672
6.65967	0.674
6.70067	0.633
6.74166	0.539
6.78266	0.265
6.82366	0.188
6.86465	0.279
6.90565	0.33
6.94665	0.273
6.98764	0.13
7.02864	0.162
7.06964	0.193
7.11064	0.154
7.15163	0.152
7.19263	0.169
7.23363	0.142
7.27462	0.116
7.31562	0.102
7.35662	0.082
7.39762	0.066
7.43861	0.068
7.47961	0.082
7.52061	0.116
7.5616	0.155
7.6026	0.202
7.6436	0.251
7.68459	0.292
7.72559	0.327
7.76659	0.356
7.80759	0.392
7.84858	0.41
7.88958	0.421
7.93058	0.404
7.97157	0.345
8.01257	0.261
8.05357	0.171
8.09457	0.191
8.13556	0.282
8.17656	0.351
8.21756	0.422
8.25855	0.453
8.29955	0.481
8.34055	0.469
8.38154	0.438
8.42254	0.369
8.46354	0.268
8.50454	0.162
8.54553	0.102
8.58653	0.131
8.62753	0.2
8.66852	0.261
8.70952	0.303
8.75052	0.333
8.79152	0.356
8.83251	0.381
8.87351	0.407
8.91451	0.419
8.9555	0.429
8.9965	0.436
9.0375	0.434
9.07849	0.445
9.11949	0.45
9.16049	0.455
9.20149	0.46
9.24248	0.467
9.28348	0.477
9.32448	0.489
9.36547	0.496
9.40647	0.501
9.44747	0.515
9.48847	0.523
9.52946	0.53
9.57046	0.53
9.61146	0.532
9.65245	0.532
9.69345	0.51
9.73445	0.431
9.77544	0.359
9.81644	0.434
9.85744	0.496
9.89844	0.534
9.93943	0.551
9.98043	0.568
10.0214	0.568
10.0624	0.541
10.1034	0.494
10.1444	0.429
10.1854	0.357
10.2264	0.347
10.2674	0.402
10.3084	0.445
10.3494	0.482
10.3904	0.505
10.4314	0.523
10.4724	0.537
10.5134	0.551
10.5544	0.563
10.5954	0.57
10.6364	0.577
10.6774	0.583
10.7184	0.587
10.7594	0.585
10.8004	0.57
10.8414	0.518
10.8824	0.539
10.9234	0.558
10.9644	0.571
11.0054	0.577
11.0464	0.58
11.0874	0.58
11.1283	0.577
11.1693	0.57
11.2103	0.558
11.2513	0.544
11.2923	0.532
11.3333	0.511
11.3743	0.498
11.4153	0.476
11.4563	0.446
11.4973	0.417
11.5383	0.383
11.5793	0.34
11.6203	0.32
11.6613	0.294
11.7023	0.279
11.7433	0.273
11.7843	0.272
11.8253	0.301
11.8663	0.327
11.9073	0.363
11.9483	0.412
11.9893	0.45
12.0303	0.482
12.0713	0.511
12.1123	0.529
12.1533	0.561
12.1943	0.578
12.2353	0.595
12.2763	0.613
12.3173	0.631
12.3583	0.65
12.3993	0.66
12.4403	0.671
12.4813	0.681
12.5222	0.683
12.5632	0.688
12.6042	0.69
12.6452	0.69
12.6862	0.688
12.7272	0.667
12.7682	0.647
12.8092	0.625
12.8502	0.595
12.8912	0.539
12.9322	0.46
12.9732	0.398
13.0142	0.38
13.0552	0.417
13.0962	0.421
13.1372	0.39
13.1782	0.327
13.2192	0.273
13.2602	0.299
13.3012	0.433
13.3422	0.5
13.3832	0.477
13.4242	0.405
13.4652	0.363
13.5062	0.356
13.5472	0.39
13.5882	0.446
13.6292	0.508
13.6702	0.546
13.7112	0.589
13.7522	0.607
13.7932	0.626
13.8342	0.642
13.8752	0.65
13.9161	0.66
13.9571	0.69
13.9981	0.696
14.0391	0.71
14.0801	0.717
14.1211	0.719
14.1621	0.719
14.2031	0.702
14.2441	0.648
14.2851	0.57
14.3261	0.496
14.3671	0.51
14.4081	0.601
14.4491	0.676
14.4901	0.714
14.5311	0.722
14.5721	0.724
14.6131	0.722
14.6541	0.71
14.6951	0.698
14.7361	0.672
14.7771	0.662
14.8181	0.657
14.8591	0.655
14.9001	0.655
14.9411	0.655
14.9821	0.64
15.0231	0.599
15.0641	0.554
15.1051	0.547
15.1461	0.568
15.1871	0.59
15.2281	0.618
15.2691	0.618
15.31	0.609
15.351	0.613
15.392	0.606
15.433	0.59
15.474	0.575
15.515	0.571
15.556	0.565
15.597	0.558
15.638	0.559
15.679	0.554
15.72	0.549
15.761	0.535
15.802	0.529
15.843	0.52
15.884	0.515
15.925	0.513
15.966	0.5
