Infrared Spectrum: D-3-BROMO CAMPHOR
Formula: C10 H15 Br O
CAS: 76-29-9
State: SOLID (MINERAL OIL MULL)
Melting point: 76-78 C
Class: COBLENTZ
Instrument: Not specified, most likely a prism, grating, or hybrid spectrometer.
Sampling: TRANSMISSION
Resolution: 4
MICROMETERS	TRANSMITTANCE
2.02	0.24
2.05979	0.24
2.09959	0.24
2.13938	0.237
2.17918	0.228
2.21897	0.213
2.25877	0.202
2.29856	0.2
2.33835	0.203
2.37815	0.203
2.41794	0.203
2.45774	0.21
2.49753	0.22
2.53733	0.23
2.57712	0.238
2.61691	0.24
2.65671	0.24
2.6965	0.247
2.7363	0.255
2.77609	0.262
2.81589	0.263
2.85568	0.257
2.89547	0.25
2.93527	0.237
2.97506	0.235
3.01486	0.243
3.05465	0.25
3.09445	0.25
3.13424	0.24
3.17403	0.218
3.21383	0.202
3.25362	0.189
3.29342	0.162
3.33321	0.051
3.37301	0.014
3.4128	0.028
3.4526	0.019
3.49239	0.019
3.53218	0.034
3.57198	0.094
3.61177	0.23
3.65157	0.298
3.69136	0.305
3.73116	0.306
3.77095	0.323
3.81074	0.346
3.85054	0.351
3.89033	0.361
3.93013	0.376
3.96992	0.389
4.00972	0.398
4.04951	0.412
4.0893	0.424
4.1291	0.429
4.16889	0.424
4.20869	0.411
4.24848	0.401
4.28828	0.394
4.32807	0.399
4.36786	0.409
4.40766	0.434
4.44745	0.452
4.48725	0.454
4.52704	0.467
4.56684	0.472
4.60663	0.477
4.64642	0.49
4.68622	0.499
4.72601	0.502
4.76581	0.514
4.8056	0.524
4.8454	0.53
4.88519	0.524
4.92498	0.53
4.96478	0.54
5.00457	0.555
5.04437	0.567
5.08416	0.582
5.12396	0.595
5.16375	0.603
5.20354	0.615
5.24334	0.615
5.28313	0.615
5.32293	0.616
5.36272	0.611
5.40252	0.615
5.44231	0.606
5.4821	0.593
5.5219	0.595
5.56169	0.466
5.60149	0.306
5.64128	0.184
5.68108	0.059
5.72087	0.029
5.76067	0.039
5.80046	0.059
5.84025	0.112
5.88005	0.144
5.91984	0.199
5.95964	0.242
5.99943	0.281
6.03923	0.296
6.07902	0.346
6.11881	0.374
6.15861	0.388
6.1984	0.407
6.2382	0.434
6.27799	0.454
6.31779	0.459
6.35758	0.472
6.39737	0.474
6.43717	0.48
6.47696	0.48
6.51676	0.474
6.55655	0.469
6.59635	0.432
6.63614	0.409
6.67593	0.333
6.71573	0.119
6.75552	0.026
6.79532	0.023
6.83511	0.024
6.87491	0.024
6.9147	0.028
6.95449	0.046
6.99429	0.154
7.03408	0.344
7.07388	0.368
7.11367	0.356
7.15347	0.26
7.19326	0.096
7.23305	0.071
7.27285	0.026
7.31264	0.044
7.35244	0.213
7.39223	0.325
7.43203	0.359
7.47182	0.381
7.51161	0.389
7.55141	0.262
7.5912	0.092
7.631	0.165
7.67079	0.192
7.71059	0.361
7.75038	0.134
7.79017	0.202
7.82997	0.142
7.86976	0.155
7.90956	0.356
7.94935	0.449
7.98915	0.364
8.02894	0.194
8.06874	0.31
8.10853	0.494
8.14832	0.363
8.18812	0.388
8.22791	0.295
8.26771	0.101
8.3075	0.131
8.3473	0.25
8.38709	0.348
8.42688	0.436
8.46668	0.422
8.50647	0.368
8.54627	0.467
8.58606	0.522
8.62586	0.509
8.66565	0.441
8.70544	0.507
8.74524	0.603
8.78503	0.636
8.82483	0.645
8.86462	0.636
8.90442	0.613
8.94421	0.547
8.984	0.364
9.0238	0.159
9.06359	0.301
9.10339	0.461
9.14318	0.601
9.18298	0.593
9.22277	0.593
9.26256	0.641
9.30236	0.665
9.34215	0.669
9.38195	0.663
9.42174	0.636
9.46154	0.635
9.50133	0.595
9.54112	0.472
9.58092	0.285
9.62071	0.049
9.66051	0.031
9.7003	0.051
9.7401	0.165
9.77989	0.276
9.81968	0.437
9.85948	0.489
9.89927	0.348
9.93907	0.111
9.97886	0.135
10.0187	0.361
10.0585	0.404
10.0982	0.49
10.138	0.538
10.1778	0.567
10.2176	0.568
10.2574	0.583
10.2972	0.598
10.337	0.601
10.3768	0.587
10.4166	0.535
10.4564	0.417
10.4962	0.407
10.536	0.525
10.5758	0.606
10.6156	0.625
10.6554	0.349
10.6952	0.321
10.735	0.489
10.7747	0.618
10.8145	0.691
10.8543	0.688
10.8941	0.615
10.9339	0.424
10.9737	0.258
11.0135	0.228
11.0533	0.502
11.0931	0.633
11.1329	0.704
11.1727	0.742
11.2125	0.767
11.2523	0.777
11.2921	0.734
11.3319	0.543
11.3717	0.646
11.4115	0.747
11.4513	0.81
11.491	0.844
11.5308	0.849
11.5706	0.839
11.6104	0.776
11.6502	0.658
11.69	0.631
11.7298	0.708
11.7696	0.809
11.8094	0.872
11.8492	0.895
11.889	0.907
11.9288	0.903
11.9686	0.862
12.0084	0.742
12.0482	0.53
12.088	0.655
12.1278	0.809
12.1675	0.887
12.2073	0.951
12.2471	0.95
12.2869	0.897
12.3267	0.81
12.3665	0.681
12.4063	0.232
12.4461	0.517
12.4859	0.656
12.5257	0.777
12.5655	0.814
12.6053	0.824
12.6451	0.817
12.6849	0.782
12.7247	0.747
12.7645	0.698
12.8043	0.63
12.8441	0.497
12.8838	0.212
12.9236	0.149
12.9634	0.058
13.0032	0.039
13.043	0.044
13.0828	0.061
13.1226	0.097
13.1624	0.15
13.2022	0.222
13.242	0.298
13.2818	0.376
13.3216	0.427
13.3614	0.469
13.4012	0.507
13.441	0.545
13.4808	0.567
13.5206	0.582
13.5603	0.595
13.6001	0.608
13.6399	0.628
13.6797	0.64
13.7195	0.65
13.7593	0.653
13.7991	0.658
13.8389	0.66
13.8787	0.673
13.9185	0.698
13.9583	0.728
13.9981	0.746
14.0379	0.716
14.0777	0.643
14.1175	0.555
14.1573	0.474
14.1971	0.411
14.2369	0.358
14.2766	0.356
14.3164	0.424
14.3562	0.477
14.396	0.47
14.4358	0.358
14.4756	0.285
14.5154	0.222
14.5552	0.255
14.595	0.359
14.6348	0.472
14.6746	0.578
14.7144	0.651
14.7542	0.696
14.794	0.724
14.8338	0.747
14.8736	0.769
14.9134	0.782
14.9532	0.787
14.9929	0.779
15.0327	0.749
15.0725	0.736
15.1123	0.751
15.1521	0.766
15.1919	0.782
15.2317	0.784
15.2715	0.777
15.3113	0.772
15.3511	0.769
15.3909	0.764
15.4307	0.757
15.4705	0.747
15.5103	0.736
15.5501	0.736
15.5899	0.726
15.6297	0.711
15.6694	0.694
15.7092	0.674
15.749	0.663
15.7888	0.648
15.8286	0.633
15.8684	0.616
15.9082	0.601
15.948	0.583
15.9878	0.572
