Infrared Spectrum: Heptachlor
Formula: C 10 H 5 Cl 7
CAS: 76-44-8
State: gas
Instrument: HP-GC/MS/IRD
Origin: NIST Mass Spectrometry Data Center
1/CM	ABSORBANCE
550	0.0041195
562	0.0005742
574	0.0002431
586	9.79e-05
598	0.0001749
610	0.0001474
622	0.0006303
634	0.0006435
646	0.0019448
658	0.005819
670	0.0025905
682	0.0029832
694	0.0006424
706	0.0011363
718	0.0035112
730	0.0036773
742	0.0022495
754	0.0019591
766	0.0085635
778	0.0037345
790	0.011
802	0.0032505
814	0.0018777
826	0.0066682
838	0.0052019
850	0.0027423
862	0.0012122
874	0.0011979
886	0.0023903
898	0.0046233
910	0.0055594
922	0.001727
934	0.0007667
946	0.0007436
958	0.0007623
970	0.0010846
982	0.0016863
994	0.0034727
1006	0.002024
1018	0.0019129
1030	0.0038137
1042	0.0074591
1054	0.0060973
1066	0.0051403
1078	0.0038599
1090	0.0055517
1102	0.0045001
1114	0.0026356
1126	0.0009361
1138	0.00066
1150	0.0015499
1162	0.0042075
1174	0.002992
1186	0.0008998
1198	0.0006952
1210	0.0014344
1222	0.0018986
1234	0.0023595
1246	0.0041536
1258	0.0060907
1270	0.0020867
1282	0.0014212
1294	0.0014773
1306	0.0012958
1318	0.0006226
1330	0.0003982
1342	0.0009482
1354	0.001518
1366	0.0003102
1378	0.0001199
1390	7.48e-05
1402	9.68e-05
1414	6.93e-05
1426	2.86e-05
1438	1.54e-05
1450	3.3e-05
1462	3.52e-05
1474	3.19e-05
1486	2.86e-05
1498	4.73e-05
1510	0
1522	3.52e-05
1534	8.25e-05
1546	1.87e-05
1558	9.57e-05
1570	0.0003234
1582	0.0006743
1594	0.0031702
1606	0.0058091
1618	0.0008921
1630	0.0002057
1642	8.69e-05
1654	3.85e-05
1666	3.52e-05
1678	7.7e-05
1690	0.0001056
1702	0.0002134
1714	0.0002827
1726	8.91e-05
1738	9.35e-05
1750	7.26e-05
1762	9.79e-05
1774	0.0001606
1786	8.69e-05
1798	3.63e-05
1810	2.64e-05
1822	9.9e-06
1834	3.41e-05
1846	3.08e-05
1858	3.74e-05
1870	4.4e-05
1882	0.0001342
1894	8.25e-05
1906	5.5e-05
1918	2.42e-05
1930	4.07e-05
1942	5.39e-05
1954	3.85e-05
1966	5.94e-05
1978	7.15e-05
1990	2.64e-05
2002	4.95e-05
2014	7.26e-05
2026	5.17e-05
2038	6.6e-05
2050	4.07e-05
2062	1.76e-05
2074	3.85e-05
2086	3.52e-05
2098	4.07e-05
2110	3.63e-05
2122	6.05e-05
2134	3.74e-05
2146	7.26e-05
2158	6.27e-05
2170	4.29e-05
2182	6.82e-05
2194	3.74e-05
2206	9.79e-05
2218	5.83e-05
2230	0.0001287
2242	6.38e-05
2254	4.95e-05
2266	3.85e-05
2278	4.84e-05
2290	4.95e-05
2302	7.37e-05
2314	9.79e-05
2326	4.95e-05
2338	9.79e-05
2350	7.81e-05
2362	8.91e-05
2374	8.14e-05
2386	7.59e-05
2398	6.71e-05
2410	7.04e-05
2422	4.62e-05
2434	8.69e-05
2446	6.82e-05
2458	6.49e-05
2470	5.94e-05
2482	6.49e-05
2494	6.71e-05
2506	8.03e-05
2518	6.93e-05
2530	4.84e-05
2542	3.96e-05
2554	9.02e-05
2566	8.03e-05
2578	5.72e-05
2590	6.49e-05
2602	3.41e-05
2614	0.0001001
2626	5.28e-05
2638	7.59e-05
2650	4.07e-05
2662	1.1e-05
2674	4.29e-05
2686	6.27e-05
2698	6.16e-05
2710	5.94e-05
2722	3.3e-05
2734	4.51e-05
2746	2.64e-05
2758	5.83e-05
2770	4.95e-05
2782	2.75e-05
2794	6.38e-05
2806	4.51e-05
2818	5.83e-05
2830	5.28e-05
2842	8.58e-05
2854	7.7e-05
2866	7.04e-05
2878	0.0001144
2890	9.02e-05
2902	9.57e-05
2914	0.0001199
2926	9.9e-05
2938	0.000143
2950	0.0003102
2962	0.000737
2974	0.0003949
2986	0.0001364
2998	6.27e-05
3010	5.06e-05
3022	4.4e-05
3034	6.49e-05
3046	6.05e-05
3058	9.79e-05
3070	0.0004873
3082	0.00077
3094	0.0001265
3106	6.82e-05
3118	3.19e-05
3130	5.72e-05
3142	2.97e-05
3154	4.95e-05
3166	9.02e-05
3178	7.37e-05
3190	9.13e-05
3202	6.93e-05
3214	8.14e-05
3226	7.92e-05
3238	5.72e-05
3250	3.63e-05
3262	2.2e-05
3274	4.95e-05
3286	2.53e-05
3298	3.74e-05
3310	5.06e-05
3322	7.37e-05
3334	4.95e-05
3346	4.29e-05
3358	9.13e-05
3370	5.06e-05
3382	9.9e-06
3394	5.17e-05
3406	5.94e-05
3418	8.14e-05
3430	4.73e-05
3442	7.26e-05
3454	0.0001364
3466	6.82e-05
3478	4.29e-05
3490	4.95e-05
3502	1.98e-05
3514	8.36e-05
3526	0.0001078
3538	6.27e-05
3550	6.93e-05
3562	8.69e-05
3574	0.0001276
3586	0.0001045
3598	6.49e-05
3610	0.0001408
3622	7.48e-05
3634	0.0001034
3646	5.72e-05
3658	0.0001243
3670	0.0001023
3682	0.0001298
3694	0.0001078
3706	9.68e-05
3718	8.03e-05
3730	9.02e-05
3742	9.46e-05
3754	5.72e-05
3766	0.000132
3778	0.0001529
3790	0.0001034
3802	0.0001529
3814	0.0001353
3826	9.24e-05
3838	8.91e-05
