Infrared Spectrum: HYDROCORTAMATE
Formula: C27 H41 N O6
CAS: 76-47-1
State: SOLID (KBr DISC)
Class: COBLENTZ III
Instrument: PERKIN-ELMER 21 (GRATING)
Instrument parameters: NaCl PRISM
Sampling: TRANSMISSION
Resolution: 2
MICROMETERS	TRANSMITTANCE
2.001	0.956
2.03487	0.956
2.06873	0.956
2.1026	0.956
2.13647	0.957
2.17034	0.957
2.2042	0.957
2.23807	0.956
2.27194	0.956
2.30581	0.947
2.33967	0.945
2.37354	0.945
2.40741	0.946
2.44128	0.949
2.47514	0.95
2.50901	0.95
2.54288	0.953
2.57675	0.953
2.61061	0.953
2.64448	0.954
2.67835	0.954
2.71221	0.954
2.74608	0.952
2.77995	0.946
2.81382	0.918
2.84768	0.879
2.88155	0.787
2.91542	0.665
2.94929	0.549
2.98315	0.469
3.01702	0.479
3.05089	0.488
3.08476	0.568
3.11862	0.706
3.15249	0.77
3.18636	0.817
3.22023	0.843
3.25409	0.852
3.28796	0.849
3.32183	0.731
3.35569	0.565
3.38956	0.471
3.42343	0.447
3.4573	0.566
3.49116	0.631
3.52503	0.69
3.5589	0.76
3.59277	0.777
3.62663	0.776
3.6605	0.774
3.69437	0.774
3.72824	0.77
3.7621	0.767
3.79597	0.77
3.82984	0.774
3.8637	0.783
3.89757	0.789
3.93144	0.798
3.96531	0.811
3.99917	0.821
4.03304	0.825
4.06691	0.829
4.10078	0.841
4.13464	0.85
4.16851	0.867
4.20238	0.876
4.23625	0.877
4.27011	0.877
4.30398	0.884
4.33785	0.894
4.37172	0.912
4.40558	0.922
4.43945	0.925
4.47332	0.929
4.50718	0.933
4.54105	0.938
4.57492	0.94
4.60879	0.943
4.64265	0.946
4.67652	0.949
4.71039	0.953
4.74426	0.954
4.77812	0.956
4.81199	0.956
4.84586	0.956
4.87973	0.956
4.91359	0.957
4.94746	0.959
4.98133	0.962
5.0152	0.963
5.04906	0.963
5.08293	0.963
5.1168	0.963
5.15066	0.963
5.18453	0.963
5.2184	0.963
5.25227	0.962
5.28613	0.962
5.32	0.962
5.35387	0.962
5.38774	0.96
5.4216	0.959
5.45547	0.953
5.48934	0.947
5.52321	0.94
5.55707	0.924
5.59094	0.877
5.62481	0.721
5.65868	0.33
5.69254	0.627
5.72641	0.734
5.76028	0.502
5.79414	0.438
5.82801	0.648
5.86188	0.776
5.89575	0.815
5.92961	0.791
5.96348	0.686
5.99735	0.563
6.03122	0.502
6.06508	0.34
6.09895	0.175
6.13282	0.316
6.16669	0.548
6.20055	0.644
6.23442	0.787
6.26829	0.852
6.30216	0.895
6.33602	0.902
6.36989	0.909
6.40376	0.915
6.43762	0.919
6.47149	0.925
6.50536	0.928
6.53923	0.928
6.57309	0.928
6.60696	0.925
6.64083	0.919
6.6747	0.904
6.70856	0.877
6.74243	0.783
6.7763	0.649
6.81017	0.616
6.84403	0.617
6.8779	0.637
6.91177	0.666
6.94563	0.669
6.9795	0.609
7.01337	0.531
7.04724	0.478
7.0811	0.502
7.11497	0.544
7.14884	0.603
7.18271	0.517
7.21657	0.52
7.25044	0.5
7.28431	0.517
7.31818	0.582
7.35204	0.603
7.38591	0.597
7.41978	0.599
7.45365	0.727
7.48751	0.76
7.52138	0.762
7.55525	0.738
7.58911	0.714
7.62298	0.725
7.65685	0.708
7.69072	0.693
7.72458	0.689
7.75845	0.665
7.79232	0.616
7.82619	0.497
7.86005	0.451
7.89392	0.464
7.92779	0.462
7.96166	0.509
7.99552	0.545
8.02939	0.545
8.06326	0.462
8.09713	0.465
8.13099	0.579
8.16486	0.583
8.19873	0.49
8.23259	0.386
8.26646	0.32
8.30033	0.374
8.3342	0.421
8.36806	0.39
8.40193	0.472
8.4358	0.592
8.46967	0.638
8.50353	0.675
8.5374	0.639
8.57127	0.659
8.60514	0.694
8.639	0.694
8.67287	0.665
8.70674	0.659
8.74061	0.672
8.77447	0.694
8.80834	0.606
8.84221	0.624
8.87607	0.7
8.90994	0.738
8.94381	0.696
8.97768	0.569
9.01154	0.576
9.04541	0.673
9.07928	0.78
9.11315	0.805
9.14701	0.808
9.18088	0.769
9.21475	0.735
9.24862	0.769
9.28248	0.789
9.31635	0.796
9.35022	0.796
9.38409	0.787
9.41795	0.766
9.45182	0.687
9.48569	0.62
9.51955	0.59
9.55342	0.578
9.58729	0.587
9.62116	0.62
9.65502	0.62
9.68889	0.625
9.72276	0.654
9.75663	0.696
9.79049	0.742
9.82436	0.776
9.85823	0.797
9.8921	0.789
9.92596	0.787
9.95983	0.827
9.9937	0.859
10.0276	0.804
10.0614	0.804
10.0953	0.805
10.1292	0.801
10.163	0.769
10.1969	0.769
10.2308	0.776
10.2646	0.789
10.2985	0.814
10.3324	0.831
10.3662	0.862
10.4001	0.869
10.434	0.867
10.4678	0.838
10.5017	0.776
10.5356	0.758
10.5694	0.776
10.6033	0.822
10.6372	0.824
10.671	0.801
10.7049	0.784
10.7388	0.808
10.7726	0.85
10.8065	0.886
10.8404	0.893
10.8742	0.891
10.9081	0.886
10.942	0.884
10.9759	0.891
11.0097	0.887
11.0436	0.879
11.0775	0.864
11.1113	0.85
11.1452	0.805
11.1791	0.759
11.2129	0.725
11.2468	0.718
11.2807	0.79
11.3145	0.832
11.3484	0.845
11.3823	0.832
11.4161	0.798
11.45	0.738
11.4839	0.668
11.5177	0.675
11.5516	0.734
11.5855	0.763
11.6193	0.787
11.6532	0.817
11.6871	0.839
11.7209	0.874
11.7548	0.893
11.7887	0.9
11.8225	0.908
11.8564	0.915
11.8903	0.925
11.9241	0.928
11.958	0.926
11.9919	0.926
12.0257	0.929
12.0596	0.926
12.0935	0.924
12.1273	0.914
12.1612	0.895
12.1951	0.872
12.2289	0.805
12.2628	0.79
12.2967	0.803
12.3305	0.831
12.3644	0.857
12.3983	0.87
12.4321	0.867
12.466	0.859
12.4999	0.867
12.5337	0.873
12.5676	0.89
12.6015	0.897
12.6354	0.894
12.6692	0.893
12.7031	0.883
12.737	0.839
12.7708	0.832
12.8047	0.832
12.8386	0.827
12.8724	0.817
12.9063	0.808
12.9402	0.797
12.974	0.791
13.0079	0.812
13.0418	0.834
13.0756	0.863
13.1095	0.89
13.1434	0.895
13.1772	0.9
13.2111	0.904
13.245	0.905
13.2788	0.904
13.3127	0.894
13.3466	0.874
13.3804	0.825
13.4143	0.814
13.4482	0.841
13.482	0.862
13.5159	0.883
13.5498	0.904
13.5836	0.915
13.6175	0.919
13.6514	0.928
13.6852	0.932
13.7191	0.933
13.753	0.932
13.7868	0.931
13.8207	0.928
13.8546	0.924
13.8884	0.924
13.9223	0.928
13.9562	0.928
13.99	0.921
14.0239	0.908
14.0578	0.893
14.0916	0.877
14.1255	0.869
14.1594	0.872
14.1933	0.886
14.2271	0.893
14.261	0.89
14.2949	0.88
14.3287	0.876
14.3626	0.88
14.3965	0.887
14.4303	0.89
14.4642	0.891
14.4981	0.893
14.5319	0.893
14.5658	0.891
14.5997	0.89
14.6335	0.89
14.6674	0.883
14.7013	0.877
14.7351	0.874
14.769	0.873
14.8029	0.867
14.8367	0.86
14.8706	0.853
14.9045	0.85
14.9383	0.842
14.9722	0.835
