Infrared Spectrum: 4-Androsten-3-one, 9Alpha-fluoro-11Beta,17Beta-dihydroxy-17Alpha-methyl-,
Formula: C20 H29 F O3
CAS: 76-43-7
State: SOLID (NUJOL MULL) VS NUJOL
Melting point: 270 C DECOMP.
Class: COBLENTZ III
Instrument: PERKIN-ELMER 21 (GRATING)
Resolution: 2
Origin: THE SQUIBB INSTITUTE FOR MEDICAL RESEARCH
1/CM	TRANSMITTANCE
662	0.9304
671	0.8539
680	0.8441
689	0.9494
698	0.9591
707	0.9509
716	0.9816
725	0.9864
734	0.9883
743	0.9859
752	0.9792
761	0.9635
770	0.9499
779	0.8773
788	0.9489
797	0.9541
806	0.8762
815	0.9727
824	0.9677
833	0.9558
842	0.9354
851	0.8946
860	0.8099
869	0.6085
878	0.8455
887	0.9243
896	0.8473
905	0.736
914	0.8746
923	0.7236
932	0.5531
941	0.7473
950	0.58
959	0.8461
968	0.8694
977	0.72
986	0.8268
995	0.9189
1004	0.8922
1013	0.7134
1022	0.7115
1031	0.6233
1040	0.5284
1049	0.7724
1058	0.7102
1067	0.715
1076	0.748
1085	0.5582
1094	0.7515
1103	0.7633
1112	0.6802
1121	0.8516
1130	0.8024
1139	0.6651
1148	0.6239
1157	0.7147
1166	0.738
1175	0.5658
1184	0.831
1193	0.765
1202	0.7821
1211	0.6321
1220	0.6267
1229	0.7729
1238	0.5783
1247	0.6164
1256	0.8628
1265	0.8445
1274	0.5955
1283	0.5859
1292	0.837
1301	0.8044
1310	0.8569
1319	0.8196
1328	0.7145
1337	0.5401
1346	0.4571
1355	0.6557
1364	0.7566
1373	0.7451
1382	0.7059
1391	0.818
1400	0.7701
1409	0.7861
1418	0.6841
1427	0.5996
1436	0.7892
1445	0.7716
1454	0.8593
1463	0.8675
1472	0.8677
1481	0.9022
1490	0.9532
1499	0.9561
1508	0.9571
1517	0.9578
1526	0.9578
1535	0.9568
1544	0.9546
1553	0.952
1562	0.948
1571	0.9425
1580	0.9346
1589	0.9212
1598	0.8982
1607	0.8504
1616	0.7642
1625	0.5648
1634	0.5768
1643	0.3343
1652	0.0585
1661	0.0507
1670	0.2951
1679	0.5767
1688	0.8188
1697	0.8494
1706	0.8544
1715	0.8649
1724	0.9116
1733	0.9382
1742	0.9593
1751	0.9705
1760	0.9762
1769	0.9803
1778	0.9841
1787	0.9863
1796	0.9878
1805	0.9889
1814	0.9898
1823	0.9907
1832	0.9916
1841	0.992
1850	0.9921
1859	0.9922
1868	0.9923
1877	0.9923
1886	0.9922
1895	0.9922
1904	0.9921
1913	0.9921
1922	0.992
1931	0.9917
1940	0.9914
1949	0.991
1958	0.9907
1967	0.9904
1976	0.9896
1985	0.9884
1994	0.9874
2003	0.9864
2012	0.9853
2021	0.985
2030	0.9846
2039	0.9842
2048	0.9837
2057	0.9833
2066	0.9829
2075	0.9826
2084	0.9826
2093	0.9825
2102	0.9818
2111	0.9809
2120	0.9799
2129	0.9789
2138	0.9777
2147	0.9765
2156	0.976
2165	0.9755
2174	0.9753
2183	0.9752
2192	0.9749
2201	0.9745
2210	0.9742
2219	0.9738
2228	0.9732
2237	0.9726
2246	0.972
2255	0.97
2264	0.9678
2273	0.9644
2282	0.9602
2291	0.9587
2300	0.9576
2309	0.9574
2318	0.9573
2327	0.9571
2336	0.957
2345	0.9568
2354	0.9564
2363	0.9559
2372	0.9555
2381	0.9551
2390	0.9547
2399	0.9543
2408	0.9539
2417	0.9534
2426	0.9528
2435	0.9521
2444	0.9514
2453	0.9509
2462	0.9502
2471	0.9496
2480	0.949
2489	0.9484
2498	0.9478
2507	0.9473
2516	0.9467
2525	0.9462
2534	0.9456
2543	0.9451
2552	0.9445
2561	0.9435
2570	0.942
2579	0.9405
2588	0.9389
2597	0.9375
2606	0.9359
2615	0.9337
2624	0.9313
2633	0.929
2642	0.9266
2651	0.9243
2660	0.9222
2669	0.9207
2678	0.9193
2687	0.9188
2696	0.9217
2705	0.9246
2714	0.9284
2723	0.933
2732	0.9373
2741	0.9399
2750	0.9425
2759	0.9429
2768	0.9424
2777	0.9395
2786	0.9358
2795	0.9293
2804	0.9166
2813	0.9014
2822	0.8847
2831	0.8653
2840	0.8323
2849	0.7907
2858	0.7558
2867	0.7419
2876	0.7322
2885	0.7256
2894	0.7215
2903	0.7195
2912	0.7187
2921	0.719
2930	0.7193
2939	0.7198
2948	0.7204
2957	0.7212
2966	0.7229
2975	0.746
2984	0.7702
2993	0.7945
3002	0.8187
3011	0.8446
3020	0.8601
3029	0.8684
3038	0.8705
3047	0.8719
3056	0.8728
3065	0.8726
3074	0.8719
3083	0.8706
3092	0.8688
3101	0.8671
3110	0.8651
3119	0.8631
3128	0.8609
3137	0.8576
3146	0.8544
3155	0.8505
3164	0.8461
3173	0.8411
3182	0.8358
3191	0.8302
3200	0.8231
3209	0.8149
3218	0.8037
3227	0.7921
3236	0.7797
3245	0.7544
3254	0.7246
3263	0.6951
3272	0.6657
3281	0.6365
3290	0.6073
3299	0.5794
3308	0.5578
3317	0.5468
3326	0.5374
3335	0.4795
3344	0.3891
3353	0.2993
3362	0.2545
3371	0.25
3380	0.2598
3389	0.328
3398	0.4036
3407	0.4789
3416	0.5515
3425	0.5853
3434	0.6027
3443	0.6206
3452	0.6384
3461	0.6562
3470	0.6821
3479	0.7067
3488	0.7111
3497	0.7119
3506	0.7122
3515	0.7134
3524	0.7173
3533	0.7302
3542	0.764
3551	0.7815
3560	0.7969
3569	0.8054
3578	0.8124
3587	0.8279
3596	0.8564
3605	0.8849
3614	0.9033
3623	0.906
3632	0.9065
3641	0.9067
3650	0.907
3659	0.9073
3668	0.9076
3677	0.908
3686	0.908
3695	0.908
3704	0.9081
3713	0.9081
3722	0.9081
3731	0.9081
3740	0.9081
3749	0.9082
3758	0.9082
3767	0.9082
3776	0.9082
3785	0.9082
3794	0.9083
3803	0.9083
3812	0.9083
3821	0.9083
3830	0.9083
3839	0.9083
3848	0.9084
3857	0.9084
3866	0.9084
3875	0.9084
3884	0.9084
3893	0.9085
3902	0.9085
3911	0.9085
3920	0.9085
3929	0.9085
3938	0.9085
3947	0.9086
3956	0.9086
3965	0.9086
3974	0.9086
3983	0.9086
3992	0.9086
