Infrared Spectrum: PHENAZASILINE, 5-ETHYL-10,10-DIPHENYL-
Formula: C26 H23 N Si
CAS: 76-51-7
State: SOLID (KBr PELLET)
Class: COBLENTZ
Instrument: Not specified, most likely a prism, grating, or hybrid spectrometer.
Sampling: TRANSMISSION
Resolution: 4
Origin: TENNESSEE EASTMAN COMPANY, RESEARCH LABORATORIES
MICROMETERS	TRANSMITTANCE
2.02	0.673
2.05981	0.683
2.09962	0.688
2.13943	0.692
2.17924	0.7
2.21905	0.705
2.25886	0.708
2.29867	0.713
2.33848	0.717
2.37829	0.72
2.4181	0.722
2.45791	0.727
2.49772	0.737
2.53753	0.748
2.57734	0.75
2.61715	0.752
2.65697	0.752
2.69678	0.75
2.73659	0.718
2.7764	0.668
2.81621	0.647
2.85602	0.61
2.89583	0.595
2.93564	0.602
2.97545	0.643
3.01526	0.678
3.05507	0.703
3.09488	0.723
3.13469	0.745
3.1745	0.753
3.21431	0.748
3.25412	0.615
3.29393	0.7
3.33374	0.653
3.37355	0.74
3.41336	0.693
3.45317	0.68
3.49298	0.768
3.53279	0.797
3.5726	0.811
3.61241	0.816
3.65222	0.815
3.69203	0.815
3.73184	0.82
3.77165	0.825
3.81146	0.823
3.85128	0.828
3.89109	0.828
3.9309	0.815
3.97071	0.821
4.01052	0.833
4.05033	0.835
4.09014	0.84
4.12995	0.843
4.16976	0.848
4.20957	0.851
4.24938	0.87
4.28919	0.851
4.329	0.835
4.36881	0.853
4.40862	0.856
4.44843	0.86
4.48824	0.86
4.52805	0.861
4.56786	0.86
4.60767	0.863
4.64748	0.863
4.68729	0.863
4.7271	0.863
4.76691	0.865
4.80672	0.871
4.84653	0.87
4.88634	0.868
4.92615	0.87
4.96596	0.868
5.00577	0.87
5.04558	0.856
5.0854	0.836
5.12521	0.85
5.16502	0.86
5.20483	0.826
5.24464	0.84
5.28445	0.83
5.32426	0.86
5.36407	0.858
5.40388	0.868
5.44369	0.846
5.4835	0.831
5.52331	0.86
5.56312	0.851
5.60293	0.855
5.64274	0.853
5.68255	0.873
5.72236	0.858
5.76217	0.848
5.80198	0.853
5.84179	0.818
5.8816	0.828
5.92141	0.826
5.96122	0.793
6.00103	0.79
6.04084	0.801
6.08065	0.782
6.12046	0.787
6.16027	0.785
6.20008	0.785
6.23989	0.78
6.2797	0.484
6.31952	0.201
6.35933	0.475
6.39914	0.482
6.43895	0.798
6.47876	0.816
6.51857	0.838
6.55838	0.828
6.59819	0.833
6.638	0.811
6.67781	0.767
6.71762	0.492
6.75743	0.342
6.79724	0.633
6.83705	0.45
6.87686	0.415
6.91667	0.129
6.95648	0.066
6.99629	0.342
7.0361	0.69
7.07591	0.768
7.11572	0.785
7.15553	0.755
7.19534	0.727
7.23515	0.612
7.27496	0.7
7.31477	0.658
7.35458	0.705
7.39439	0.737
7.4342	0.673
7.47401	0.244
7.51383	0.256
7.55364	0.665
7.59345	0.747
7.63326	0.727
7.67307	0.652
7.71288	0.572
7.75269	0.402
7.7925	0.386
7.83231	0.572
7.87212	0.647
7.91193	0.74
7.95174	0.787
7.99155	0.826
8.03136	0.826
8.07117	0.758
8.11098	0.745
8.15079	0.72
8.1906	0.505
8.23041	0.366
8.27022	0.537
8.31003	0.742
8.34984	0.758
8.38965	0.715
8.42946	0.718
8.46927	0.782
8.50908	0.723
8.54889	0.484
8.5887	0.658
8.62851	0.77
8.66832	0.733
8.70813	0.564
8.74795	0.655
8.78776	0.612
8.82757	0.57
8.86738	0.5
8.90719	0.452
8.947	0.287
8.98681	0.151
9.02662	0.306
9.06643	0.452
9.10624	0.688
9.14605	0.801
9.18586	0.768
9.22567	0.622
9.26548	0.645
9.30529	0.685
9.3451	0.645
9.38491	0.76
9.42472	0.813
9.46453	0.821
9.50434	0.795
9.54415	0.59
9.58396	0.53
9.62377	0.71
9.66358	0.778
9.70339	0.757
9.7432	0.84
9.78301	0.85
9.82282	0.86
9.86263	0.861
9.90244	0.868
9.94226	0.866
9.98207	0.765
10.0219	0.795
10.0617	0.861
10.1015	0.87
10.1413	0.868
10.1811	0.853
10.2209	0.87
10.2607	0.861
10.3005	0.87
10.3404	0.893
10.3802	0.901
10.42	0.903
10.4598	0.905
10.4996	0.903
10.5394	0.891
10.5792	0.868
10.619	0.871
10.6588	0.878
10.6987	0.86
10.7385	0.868
10.7783	0.893
10.8181	0.898
10.8579	0.906
10.8977	0.9
10.9375	0.883
10.9773	0.903
11.0171	0.913
11.0569	0.913
11.0968	0.871
11.1366	0.753
11.1764	0.792
11.2162	0.848
11.256	0.88
11.2958	0.891
11.3356	0.905
11.3754	0.908
11.4152	0.91
11.455	0.911
11.4949	0.91
11.5347	0.893
11.5745	0.861
11.6143	0.858
11.6541	0.81
11.6939	0.813
11.7337	0.863
11.7735	0.888
11.8133	0.905
11.8532	0.908
11.893	0.908
11.9328	0.91
11.9726	0.911
12.0124	0.911
12.0522	0.911
12.092	0.911
12.1318	0.911
12.1716	0.905
12.2114	0.903
12.2513	0.896
12.2911	0.873
12.3309	0.86
12.3707	0.825
12.4105	0.795
12.4503	0.702
12.4901	0.652
12.5299	0.707
12.5697	0.79
12.6095	0.835
12.6494	0.855
12.6892	0.865
12.729	0.866
12.7688	0.863
12.8086	0.853
12.8484	0.835
12.8882	0.8
12.928	0.673
12.9678	0.419
13.0077	0.124
13.0475	0.186
13.0873	0.391
13.1271	0.509
13.1669	0.412
13.2067	0.239
13.2465	0.314
13.2863	0.439
13.3261	0.387
13.3659	0.407
13.4058	0.489
13.4456	0.407
13.4854	0.332
13.5252	0.424
13.565	0.489
13.6048	0.495
13.6446	0.459
13.6844	0.494
13.7242	0.673
13.764	0.757
13.8039	0.797
13.8437	0.805
13.8835	0.8
13.9233	0.782
13.9631	0.723
14.0029	0.617
14.0427	0.477
14.0825	0.296
14.1223	0.232
14.1621	0.224
14.202	0.188
14.2418	0.124
14.2816	0.088
14.3214	0.101
14.3612	0.171
14.401	0.281
14.4408	0.417
14.4806	0.574
14.5204	0.672
14.5603	0.728
14.6001	0.768
14.6399	0.797
14.6797	0.806
14.7195	0.816
14.7593	0.82
14.7991	0.821
14.8389	0.823
14.8787	0.826
14.9185	0.831
14.9584	0.831
14.9982	0.831
15.038	0.828
15.0778	0.826
15.1176	0.83
15.1574	0.821
15.1972	0.816
15.237	0.818
15.2768	0.82
15.3166	0.82
15.3565	0.816
15.3963	0.81
15.4361	0.8
15.4759	0.79
15.5157	0.787
15.5555	0.782
15.5953	0.775
15.6351	0.765
15.6749	0.762
15.7148	0.758
15.7546	0.752
15.7944	0.742
15.8342	0.732
15.874	0.73
15.9138	0.728
15.9536	0.725
15.9934	0.723
