Infrared Spectrum: AMETHONE BASE
Formula: C20 H23 N O2
CAS: 76-65-3
State: LIQUID
Class: COBLENTZ
Instrument: Not specified, most likely a grating spectrometer.
Sampling: TRANSMISSION
Path length: CAPILLARY
Resolution: 4
Origin: ABBOTT LABORATORIES
MICROMETERS	TRANSMITTANCE
1.88	0.9
1.91988	0.9
1.95976	0.902
1.99963	0.902
2.03951	0.903
2.07939	0.903
2.11927	0.903
2.15915	0.903
2.19902	0.902
2.2389	0.902
2.27878	0.9
2.31866	0.894
2.35854	0.899
2.39841	0.897
2.43829	0.89
2.47817	0.892
2.51805	0.895
2.55793	0.899
2.59781	0.897
2.63768	0.9
2.67756	0.902
2.71744	0.899
2.75732	0.882
2.7972	0.876
2.83707	0.881
2.87695	0.881
2.91683	0.879
2.95671	0.877
2.99659	0.876
3.03646	0.884
3.07634	0.884
3.11622	0.882
3.1561	0.877
3.19598	0.838
3.23585	0.752
3.27573	0.763
3.31561	0.509
3.35549	0.478
3.39537	0.587
3.43524	0.638
3.47512	0.654
3.515	0.516
3.55488	0.617
3.59476	0.732
3.63464	0.781
3.67451	0.812
3.71439	0.843
3.75427	0.853
3.79415	0.868
3.83403	0.876
3.8739	0.876
3.91378	0.882
3.95366	0.887
3.99354	0.887
4.03342	0.889
4.07329	0.889
4.11317	0.892
4.15305	0.894
4.19293	0.899
4.23281	0.907
4.27268	0.903
4.31256	0.897
4.35244	0.889
4.39232	0.889
4.4322	0.887
4.47207	0.889
4.51195	0.889
4.55183	0.889
4.59171	0.887
4.63159	0.887
4.67146	0.887
4.71134	0.881
4.75122	0.877
4.7911	0.879
4.83098	0.879
4.87086	0.884
4.91073	0.885
4.95061	0.885
4.99049	0.881
5.03037	0.876
5.07025	0.861
5.11012	0.853
5.15	0.856
5.18988	0.863
5.22976	0.859
5.26964	0.853
5.30951	0.851
5.34939	0.845
5.38927	0.84
5.42915	0.786
5.46903	0.57
5.5089	0.153
5.54878	0.053
5.58866	0.364
5.62854	0.705
5.66842	0.754
5.70829	0.806
5.74817	0.828
5.78805	0.838
5.82793	0.845
5.86781	0.848
5.90769	0.85
5.94756	0.848
5.98744	0.845
6.02732	0.846
6.0672	0.845
6.10708	0.83
6.14695	0.615
6.18683	0.635
6.22671	0.648
6.26659	0.695
6.30647	0.768
6.34634	0.83
6.38622	0.85
6.4261	0.858
6.46598	0.858
6.50586	0.858
6.54573	0.858
6.58561	0.85
6.62549	0.819
6.66537	0.589
6.70525	0.571
6.74512	0.42
6.785	0.385
6.82488	0.2
6.86476	0.399
6.90464	0.503
6.94451	0.6
6.98439	0.701
7.02427	0.789
7.06415	0.811
7.10403	0.814
7.14391	0.799
7.18378	0.643
7.22366	0.583
7.26354	0.604
7.30342	0.592
7.3433	0.701
7.38317	0.781
7.42305	0.775
7.46293	0.739
7.50281	0.739
7.54269	0.695
7.58256	0.7
7.62244	0.736
7.66232	0.734
7.7022	0.666
7.74208	0.6
7.78195	0.578
7.82183	0.649
7.86171	0.675
7.90159	0.671
7.94147	0.688
7.98134	0.654
8.02122	0.656
8.0611	0.633
8.10098	0.394
8.14086	0.426
8.18074	0.584
8.22061	0.684
8.26049	0.716
8.30037	0.675
8.34025	0.547
8.38013	0.607
8.42	0.662
8.45988	0.622
8.49976	0.501
8.53964	0.4
8.57952	0.464
8.61939	0.622
8.65927	0.682
8.69915	0.701
8.73903	0.745
8.77891	0.737
8.81878	0.597
8.85866	0.485
8.89854	0.439
8.93842	0.545
8.9783	0.666
9.01817	0.718
9.05805	0.731
9.09793	0.731
9.13781	0.675
9.17769	0.607
9.21756	0.589
9.25744	0.563
9.29732	0.465
9.3372	0.343
9.37708	0.325
9.41696	0.456
9.45683	0.482
9.49671	0.462
9.53659	0.416
9.57647	0.314
9.61635	0.219
9.65622	0.177
9.6961	0.166
9.73598	0.208
9.77586	0.28
9.81574	0.325
9.85561	0.464
9.89549	0.516
9.93537	0.587
9.97525	0.558
10.0151	0.501
10.055	0.503
10.0949	0.597
10.1348	0.679
10.1746	0.729
10.2145	0.771
10.2544	0.791
10.2943	0.802
10.3342	0.812
10.374	0.817
10.4139	0.817
10.4538	0.78
10.4937	0.731
10.5335	0.728
10.5734	0.76
10.6133	0.767
10.6532	0.714
10.6931	0.679
10.7329	0.697
10.7728	0.744
10.8127	0.768
10.8526	0.771
10.8924	0.75
10.9323	0.737
10.9722	0.737
11.0121	0.739
11.052	0.744
11.0918	0.739
11.1317	0.708
11.1716	0.664
11.2115	0.64
11.2513	0.64
11.2912	0.653
11.3311	0.612
11.371	0.537
11.4109	0.517
11.4507	0.617
11.4906	0.71
11.5305	0.75
11.5704	0.776
11.6102	0.794
11.6501	0.798
11.69	0.809
11.7299	0.825
11.7698	0.846
11.8096	0.858
11.8495	0.859
11.8894	0.861
11.9293	0.861
11.9692	0.859
12.009	0.848
12.0489	0.845
12.0888	0.845
12.1287	0.848
12.1685	0.851
12.2084	0.851
12.2483	0.853
12.2882	0.846
12.3281	0.835
12.3679	0.812
12.4078	0.801
12.4477	0.807
12.4876	0.809
12.5274	0.811
12.5673	0.819
12.6072	0.822
12.6471	0.825
12.687	0.822
12.7268	0.817
12.7667	0.807
12.8066	0.804
12.8465	0.798
12.8863	0.796
12.9262	0.773
12.9661	0.721
13.006	0.635
13.0459	0.496
13.0857	0.363
13.1256	0.255
13.1655	0.219
13.2054	0.198
13.2453	0.195
13.2851	0.206
13.325	0.25
13.3649	0.289
13.4048	0.358
13.4446	0.438
13.4845	0.532
13.5244	0.597
13.5643	0.627
13.6042	0.664
13.644	0.68
13.6839	0.695
13.7238	0.701
13.7637	0.711
13.8035	0.724
13.8434	0.734
13.8833	0.745
13.9232	0.75
13.9631	0.747
14.0029	0.731
14.0428	0.675
14.0827	0.61
14.1226	0.542
14.1624	0.472
14.2023	0.444
14.2422	0.436
14.2821	0.421
14.322	0.397
14.3618	0.366
14.4017	0.346
14.4416	0.342
14.4815	0.376
14.5213	0.472
14.5612	0.552
14.6011	0.615
14.641	0.648
14.6809	0.666
14.7207	0.674
14.7606	0.682
14.8005	0.688
14.8404	0.692
14.8803	0.693
14.9201	0.693
14.96	0.695
14.9999	0.697
15.0398	0.692
15.0796	0.684
15.1195	0.679
15.1594	0.667
15.1993	0.649
15.2392	0.635
15.279	0.625
15.3189	0.596
15.3588	0.568
15.3987	0.566
15.4385	0.581
15.4784	0.604
15.5183	0.604
