Infrared Spectrum: 3',3'',5',5''-TETRABROMOPHENOLPHTHALEIN
Formula: C20 H10 Br4 O4
CAS: 76-62-0
State: SOLID
Melting point: 294 C
Class: COBLENTZ
Instrument: Not specified, most likely a prism, grating, or hybrid spectrometer.
Sampling: TRANSMISSION
Resolution: 4
Origin: WYANDOTTE CHEMICALS CORP., WYANDOTTE, MICHIGAN, USA
MICROMETERS	TRANSMITTANCE
2.034	0.261
2.0749	0.268
2.11579	0.282
2.15669	0.285
2.19759	0.29
2.23849	0.29
2.27938	0.29
2.32028	0.297
2.36118	0.304
2.40207	0.318
2.44297	0.324
2.48387	0.326
2.52476	0.333
2.56566	0.348
2.60656	0.35
2.64746	0.362
2.68835	0.365
2.72925	0.362
2.77015	0.37
2.81104	0.346
2.85194	0.246
2.89284	0.26
2.93373	0.28
2.97463	0.258
3.01553	0.217
3.05643	0.18
3.09732	0.161
3.13822	0.159
3.17912	0.185
3.22001	0.193
3.26091	0.18
3.30181	0.19
3.3427	0.093
3.3836	0.04
3.4245	0.032
3.4654	0.039
3.50629	0.069
3.54719	0.397
3.58809	0.5
3.62898	0.513
3.66988	0.508
3.71078	0.51
3.75167	0.522
3.79257	0.53
3.83347	0.532
3.87437	0.554
3.91526	0.568
3.95616	0.578
3.99706	0.59
4.03795	0.608
4.07885	0.598
4.11975	0.61
4.16065	0.629
4.20154	0.634
4.24244	0.613
4.28334	0.612
4.32423	0.639
4.36513	0.683
4.40603	0.695
4.44692	0.693
4.48782	0.705
4.52872	0.719
4.56962	0.724
4.61051	0.729
4.65141	0.744
4.69231	0.753
4.7332	0.761
4.7741	0.778
4.815	0.792
4.85589	0.802
4.89679	0.804
4.93769	0.816
4.97859	0.828
5.01948	0.846
5.06038	0.85
5.10128	0.852
5.14217	0.855
5.18307	0.892
5.22397	0.899
5.26486	0.911
5.30576	0.909
5.34666	0.909
5.38756	0.93
5.42845	0.88
5.46935	0.911
5.51025	0.894
5.55114	0.826
5.59204	0.77
5.63294	0.585
5.67383	0.369
5.71473	0.163
5.75563	0.078
5.79653	0.168
5.83742	0.38
5.87832	0.477
5.91922	0.542
5.96011	0.646
6.00101	0.698
6.04191	0.739
6.0828	0.811
6.1237	0.811
6.1646	0.629
6.2055	0.503
6.24639	0.663
6.28729	0.778
6.32819	0.831
6.36908	0.656
6.40998	0.537
6.45088	0.712
6.49178	0.869
6.53267	0.867
6.57357	0.879
6.61447	0.777
6.65536	0.571
6.69626	0.318
6.73716	0.079
6.77805	0.037
6.81895	0.069
6.85985	0.221
6.90075	0.411
6.94164	0.588
6.98254	0.755
7.02344	0.738
7.06433	0.568
7.10523	0.275
7.14613	0.212
7.18702	0.25
7.22792	0.345
7.26882	0.498
7.30972	0.551
7.35061	0.756
7.39151	0.784
7.43241	0.7
7.4733	0.542
7.5142	0.35
7.5551	0.204
7.59599	0.484
7.63689	0.465
7.67779	0.251
7.71869	0.057
7.75958	0.073
7.80048	0.183
7.84138	0.418
7.88227	0.42
7.92317	0.173
7.96407	0.137
8.00496	0.12
8.04586	0.064
8.08676	0.178
8.12766	0.265
8.16855	0.224
8.20945	0.215
8.25035	0.251
8.29124	0.343
8.33214	0.508
8.37304	0.579
8.41394	0.523
8.45483	0.423
8.49573	0.261
8.53663	0.105
8.57752	0.073
8.61842	0.079
8.65932	0.102
8.70021	0.188
8.74111	0.284
8.78201	0.369
8.82291	0.38
8.8638	0.209
8.9047	0.078
8.9456	0.069
8.98649	0.149
9.02739	0.28
9.06829	0.202
9.10918	0.227
9.15008	0.372
9.19098	0.455
9.23188	0.498
9.27277	0.535
9.31367	0.588
9.35457	0.579
9.39546	0.641
9.43636	0.683
9.47726	0.707
9.51815	0.712
9.55905	0.715
9.59995	0.727
9.64085	0.751
9.68174	0.784
9.72264	0.802
9.76354	0.722
9.80443	0.602
9.84533	0.768
9.88623	0.823
9.92712	0.848
9.96802	0.863
10.0089	0.841
10.0498	0.768
10.0907	0.698
10.1316	0.571
10.1725	0.51
10.2134	0.712
10.2543	0.804
10.2952	0.814
10.3361	0.767
10.377	0.732
10.4179	0.768
10.4588	0.629
10.4997	0.316
10.5406	0.156
10.5815	0.12
10.6224	0.287
10.6633	0.488
10.7042	0.602
10.7451	0.692
10.786	0.767
10.8269	0.833
10.8678	0.889
10.9087	0.92
10.9496	0.892
10.9904	0.828
11.0313	0.889
11.0722	0.945
11.1131	0.994
11.154	1.001
11.1949	0.981
11.2358	0.789
11.2767	0.683
11.3176	0.406
11.3585	0.273
11.3994	0.455
11.4403	0.569
11.4812	0.802
11.5221	0.914
11.563	0.977
11.6039	1
11.6448	0.991
11.6857	0.841
11.7266	0.818
11.7675	0.976
11.8084	1.006
11.8493	1.011
11.8902	1.011
11.9311	0.982
11.972	0.78
12.0129	0.758
12.0538	0.95
12.0947	1.005
12.1356	1.005
12.1765	1.003
12.2174	1.01
12.2583	1.017
12.2992	1.015
12.34	0.991
12.3809	0.88
12.4218	0.79
12.4627	0.7
12.5036	0.853
12.5445	0.991
12.5854	1.01
12.6263	1.015
12.6672	1.015
12.7081	1.015
12.749	1.013
12.7899	1.013
12.8308	1.008
12.8717	0.994
12.9126	0.923
12.9535	0.683
12.9944	0.365
13.0353	0.348
13.0762	0.459
13.1171	0.656
13.158	0.801
13.1989	0.872
13.2398	0.909
13.2807	0.92
13.3216	0.901
13.3625	0.85
13.4034	0.729
13.4443	0.527
13.4852	0.241
13.5261	0.142
13.567	0.168
13.6079	0.294
13.6488	0.488
13.6897	0.63
13.7305	0.729
13.7714	0.772
13.8123	0.714
13.8532	0.656
13.8941	0.586
13.935	0.377
13.9759	0.292
14.0168	0.45
14.0577	0.613
14.0986	0.688
14.1395	0.698
14.1804	0.642
14.2213	0.52
14.2622	0.341
14.3031	0.222
14.344	0.204
14.3849	0.333
14.4258	0.488
14.4667	0.593
14.5076	0.666
14.5485	0.685
14.5894	0.67
14.6303	0.639
14.6712	0.629
14.7121	0.651
14.753	0.688
14.7939	0.71
14.8348	0.707
14.8757	0.702
14.9166	0.668
14.9575	0.619
14.9984	0.556
15.0393	0.479
15.0801	0.462
15.121	0.498
15.1619	0.54
15.2028	0.602
15.2437	0.622
15.2846	0.629
15.3255	0.619
15.3664	0.596
15.4073	0.571
15.4482	0.547
15.4891	0.52
15.53	0.484
15.5709	0.445
15.6118	0.401
15.6527	0.367
15.6936	0.341
15.7345	0.328
15.7754	0.328
15.8163	0.353
15.8572	0.38
15.8981	0.411
15.939	0.428
15.9799	0.433
