Infrared Spectrum: THYMOLSULFONEPHTHALEIN
Formula: C27 H30 O5 S
CAS: 76-61-9
State: SOLID (MINERAL OIL MULL)
Class: COBLENTZ
Instrument: Not specified, most likely a prism, grating, or hybrid spectrometer.
Sampling: TRANSMISSION
Resolution: 4
Origin: WYANDOTTE CHEMICALS CORP., WYANDOTTE, MICHIGAN, USA
MICROMETERS	TRANSMITTANCE
2.041	0.074
2.08188	0.074
2.12275	0.076
2.16363	0.078
2.2045	0.091
2.24538	0.095
2.28626	0.1
2.32713	0.117
2.36801	0.122
2.40888	0.129
2.44976	0.134
2.49064	0.137
2.53151	0.158
2.57239	0.17
2.61327	0.183
2.65414	0.199
2.69502	0.207
2.73589	0.219
2.77677	0.24
2.81765	0.258
2.85852	0.269
2.8994	0.277
2.94027	0.286
2.98115	0.301
3.02203	0.304
3.0629	0.267
3.10378	0.199
3.14465	0.136
3.18553	0.109
3.22641	0.083
3.26728	0.064
3.30816	0.052
3.34904	0.027
3.38991	0.02
3.43079	0.022
3.47166	0.028
3.51254	0.032
3.55342	0.183
3.59429	0.209
3.63517	0.204
3.67604	0.19
3.71692	0.223
3.7578	0.255
3.79867	0.267
3.83955	0.255
3.88042	0.286
3.9213	0.311
3.96218	0.327
4.00305	0.328
4.04393	0.323
4.0848	0.356
4.12568	0.386
4.16656	0.398
4.20743	0.424
4.24831	0.444
4.28919	0.459
4.33006	0.471
4.37094	0.495
4.41181	0.514
4.45269	0.534
4.49357	0.55
4.53444	0.565
4.57532	0.584
4.61619	0.587
4.65707	0.599
4.69795	0.611
4.73882	0.633
4.7797	0.652
4.82057	0.679
4.86145	0.684
4.90233	0.688
4.9432	0.71
4.98408	0.712
5.02496	0.727
5.06583	0.732
5.10671	0.746
5.14758	0.764
5.18846	0.768
5.22934	0.785
5.27021	0.8
5.31109	0.816
5.35196	0.831
5.39284	0.836
5.43372	0.855
5.47459	0.867
5.51547	0.872
5.55634	0.879
5.59722	0.884
5.6381	0.882
5.67897	0.839
5.71985	0.625
5.76072	0.701
5.8016	0.761
5.84248	0.875
5.88335	0.909
5.92423	0.928
5.96511	0.94
6.00598	0.935
6.04686	0.914
6.08773	0.839
6.12861	0.55
6.16949	0.187
6.21036	0.117
6.25124	0.12
6.29211	0.33
6.33299	0.269
6.37387	0.236
6.41474	0.296
6.45562	0.422
6.49649	0.533
6.53737	0.596
6.57825	0.562
6.61912	0.275
6.66	0.497
6.70088	0.589
6.74175	0.468
6.78263	0.136
6.8235	0.117
6.86438	0.183
6.90526	0.207
6.94613	0.311
6.98701	0.475
7.02788	0.54
7.06876	0.65
7.10964	0.601
7.15051	0.453
7.19139	0.201
7.23226	0.161
7.27314	0.105
7.31402	0.081
7.35489	0.066
7.39577	0.056
7.43664	0.078
7.47752	0.105
7.5184	0.086
7.55927	0.059
7.60015	0.061
7.64103	0.097
7.6819	0.158
7.72278	0.172
7.76365	0.122
7.80453	0.091
7.84541	0.085
7.88628	0.189
7.92716	0.148
7.96803	0.076
8.00891	0.068
8.04979	0.097
8.09066	0.091
8.13154	0.091
8.17241	0.105
8.21329	0.105
8.25417	0.107
8.29504	0.098
8.33592	0.083
8.3768	0.074
8.41767	0.081
8.45855	0.059
8.49942	0.052
8.5403	0.052
8.58118	0.057
8.62205	0.044
8.66293	0.049
8.7038	0.061
8.74468	0.042
8.78556	0.063
8.82643	0.098
8.86731	0.149
8.90818	0.199
8.94906	0.236
8.98994	0.269
9.03081	0.291
9.07169	0.17
9.11256	0.192
9.15344	0.143
9.19432	0.124
9.23519	0.216
9.27607	0.296
9.31695	0.357
9.35782	0.396
9.3987	0.306
9.43957	0.275
9.48045	0.299
9.52133	0.407
9.5622	0.328
9.60308	0.303
9.64395	0.299
9.68483	0.362
9.72571	0.258
9.76658	0.146
9.80746	0.093
9.84833	0.137
9.88921	0.257
9.93009	0.337
9.97096	0.376
10.0118	0.422
10.0527	0.436
10.0936	0.454
10.1345	0.488
10.1753	0.514
10.2162	0.536
10.2571	0.546
10.298	0.574
10.3388	0.58
10.3797	0.58
10.4206	0.567
10.4615	0.545
10.5024	0.582
10.5432	0.608
10.5841	0.633
10.625	0.643
10.6659	0.657
10.7067	0.637
10.7476	0.632
10.7885	0.655
10.8294	0.597
10.8702	0.369
10.9111	0.361
10.952	0.509
10.9929	0.483
11.0337	0.345
11.0746	0.339
11.1155	0.466
11.1564	0.427
11.1972	0.396
11.2381	0.371
11.279	0.371
11.3199	0.328
11.3608	0.357
11.4016	0.369
11.4425	0.367
11.4834	0.488
11.5243	0.526
11.5651	0.56
11.606	0.582
11.6469	0.603
11.6878	0.608
11.7286	0.611
11.7695	0.614
11.8104	0.618
11.8513	0.613
11.8921	0.616
11.933	0.618
11.9739	0.614
12.0148	0.611
12.0556	0.608
12.0965	0.608
12.1374	0.606
12.1783	0.604
12.2191	0.604
12.26	0.596
12.3009	0.594
12.3418	0.596
12.3827	0.599
12.4235	0.601
12.4644	0.603
12.5053	0.604
12.5462	0.606
12.587	0.609
12.6279	0.613
12.6688	0.597
12.7097	0.541
12.7505	0.553
12.7914	0.613
12.8323	0.647
12.8732	0.657
12.914	0.666
12.9549	0.657
12.9958	0.635
13.0367	0.597
13.0775	0.533
13.1184	0.478
13.1593	0.49
13.2002	0.514
13.2411	0.49
13.2819	0.458
13.3228	0.5
13.3637	0.553
13.4046	0.584
13.4454	0.609
13.4863	0.618
13.5272	0.608
13.5681	0.557
13.6089	0.488
13.6498	0.442
13.6907	0.483
13.7316	0.563
13.7724	0.614
13.8133	0.611
13.8542	0.579
13.8951	0.58
13.9359	0.642
13.9768	0.683
14.0177	0.72
14.0586	0.703
14.0994	0.625
14.1403	0.534
14.1812	0.514
14.2221	0.582
14.263	0.621
14.3038	0.635
14.3447	0.637
14.3856	0.645
14.4265	0.678
14.4673	0.701
14.5082	0.717
14.5491	0.72
14.59	0.724
14.6308	0.727
14.6717	0.727
14.7126	0.724
14.7535	0.722
14.7943	0.72
14.8352	0.713
14.8761	0.708
14.917	0.701
14.9578	0.689
14.9987	0.64
15.0396	0.586
15.0805	0.555
15.1214	0.557
15.1622	0.563
15.2031	0.572
15.244	0.586
15.2849	0.589
15.3257	0.596
15.3666	0.584
15.4075	0.58
15.4484	0.57
15.4892	0.553
15.5301	0.533
15.571	0.521
15.6119	0.485
15.6527	0.442
15.6936	0.415
15.7345	0.408
15.7754	0.405
15.8162	0.403
15.8571	0.403
15.898	0.4
15.9389	0.393
15.9797	0.376
