Infrared Spectrum: 5-ETHYL-5-(1-METHYLBUTYL)-2-THIOBARBITURIC ACID
Formula: C11 H18 N2 O2 S
CAS: 76-75-5
State: SOLUTION (5% CHCl3)
Class: COBLENTZ
Instrument: Not specified, most likely a prism, grating, or hybrid spectrometer.
Sampling: TRANSMISSION
Path length: 0.01 CM
Resolution: 4
MICROMETERS	TRANSMITTANCE
2.042	0.912
2.08058	0.912
2.11917	0.912
2.15775	0.909
2.19634	0.907
2.23492	0.906
2.27351	0.903
2.31209	0.898
2.35068	0.898
2.38926	0.899
2.42785	0.906
2.46643	0.901
2.50502	0.898
2.5436	0.899
2.58219	0.903
2.62077	0.904
2.65936	0.899
2.69794	0.895
2.73653	0.88
2.77511	0.907
2.81369	0.875
2.85228	0.847
2.89086	0.839
2.92945	0.697
2.96803	0.451
3.00662	0.682
3.0452	0.709
3.08379	0.647
3.12237	0.618
3.16096	0.572
3.19954	0.567
3.23813	0.591
3.27671	0.662
3.3153	0.634
3.35388	0.491
3.39247	0.391
3.43105	0.481
3.46964	0.54
3.50822	0.655
3.54681	0.737
3.58539	0.804
3.62397	0.829
3.66256	0.841
3.70114	0.856
3.73973	0.86
3.77831	0.864
3.8169	0.866
3.85548	0.866
3.89407	0.866
3.93265	0.863
3.97124	0.863
4.00982	0.866
4.04841	0.869
4.08699	0.874
4.12558	0.875
4.16416	0.88
4.20275	0.883
4.24133	0.885
4.27992	0.885
4.3185	0.885
4.35708	0.885
4.39567	0.887
4.43425	0.887
4.47284	0.887
4.51142	0.887
4.55001	0.887
4.58859	0.885
4.62718	0.882
4.66576	0.874
4.70435	0.883
4.74293	0.887
4.78152	0.887
4.8201	0.888
4.85869	0.89
4.89727	0.89
4.93586	0.89
4.97444	0.89
5.01303	0.888
5.05161	0.888
5.0902	0.887
5.12878	0.885
5.16736	0.883
5.20595	0.882
5.24453	0.877
5.28312	0.872
5.3217	0.871
5.36029	0.869
5.39887	0.866
5.43746	0.866
5.47604	0.863
5.51463	0.85
5.55321	0.833
5.5918	0.81
5.63038	0.763
5.66897	0.643
5.70755	0.257
5.74614	0.111
5.78472	0.179
5.82331	0.1
5.86189	0.027
5.90047	0.042
5.93906	0.246
5.97764	0.47
6.01623	0.661
6.05481	0.715
6.0934	0.759
6.13198	0.777
6.17057	0.774
6.20915	0.764
6.24774	0.78
6.28632	0.783
6.32491	0.747
6.36349	0.689
6.40208	0.612
6.44066	0.465
6.47925	0.34
6.51783	0.181
6.55642	0.124
6.595	0.077
6.63359	0.049
6.67217	0.163
6.71075	0.468
6.74934	0.586
6.78792	0.57
6.82651	0.47
6.86509	0.461
6.90368	0.524
6.94226	0.418
6.98085	0.389
7.01943	0.297
7.05802	0.248
7.0966	0.246
7.13519	0.322
7.17377	0.348
7.21236	0.344
7.25094	0.411
7.28953	0.386
7.32811	0.33
7.3667	0.243
7.40528	0.201
7.44386	0.284
7.48245	0.319
7.52103	0.335
7.55962	0.321
7.5982	0.298
7.63679	0.168
7.67537	0.095
7.71396	0.081
7.75254	0.1
7.79113	0.149
7.82971	0.235
7.8683	0.324
7.90688	0.408
7.94547	0.546
7.98405	0.643
8.02264	0.634
8.06122	0.612
8.09981	0.602
8.13839	0.593
8.17697	0.586
8.21556	0.583
8.25414	0.578
8.29273	0.57
8.33131	0.572
8.3699	0.623
8.40848	0.688
8.44707	0.696
8.48565	0.626
8.52424	0.48
8.56282	0.314
8.60141	0.235
8.63999	0.219
8.67858	0.267
8.71716	0.289
8.75575	0.278
8.79433	0.19
8.83292	0.17
8.8715	0.222
8.91009	0.314
8.94867	0.446
8.98725	0.608
9.02584	0.68
9.06442	0.699
9.10301	0.729
9.14159	0.775
9.18018	0.786
9.21876	0.794
9.25735	0.815
9.29593	0.812
9.33452	0.812
9.3731	0.825
9.41169	0.841
9.45027	0.858
9.48886	0.877
9.52744	0.871
9.56603	0.848
9.60461	0.834
9.6432	0.842
9.68178	0.853
9.72036	0.871
9.75895	0.872
9.79753	0.841
9.83612	0.798
9.8747	0.798
9.91329	0.826
9.95187	0.842
9.99046	0.858
10.029	0.863
10.0676	0.868
10.1062	0.871
10.1448	0.871
10.1834	0.872
10.222	0.872
10.2606	0.869
10.2991	0.864
10.3377	0.86
10.3763	0.86
10.4149	0.853
10.4535	0.847
10.4921	0.837
10.5306	0.833
10.5692	0.828
10.6078	0.826
10.6464	0.828
10.685	0.829
10.7236	0.836
10.7622	0.848
10.8007	0.85
10.8393	0.845
10.8779	0.834
10.9165	0.806
10.9551	0.798
10.9937	0.807
11.0322	0.812
11.0708	0.817
11.1094	0.817
11.148	0.817
11.1866	0.815
11.2252	0.813
11.2638	0.812
11.3023	0.81
11.3409	0.806
11.3795	0.801
11.4181	0.791
11.4567	0.785
11.4953	0.788
11.5338	0.788
11.5724	0.783
11.611	0.783
11.6496	0.788
11.6882	0.793
11.7268	0.794
11.7654	0.796
11.8039	0.791
11.8425	0.786
11.8811	0.782
11.9197	0.78
11.9583	0.783
11.9969	0.786
12.0354	0.79
12.074	0.791
12.1126	0.794
12.1512	0.798
12.1898	0.801
12.2284	0.804
12.267	0.809
12.3055	0.81
12.3441	0.817
12.3827	0.826
12.4213	0.834
12.4599	0.836
12.4985	0.841
12.5371	0.841
12.5756	0.836
12.6142	0.823
12.6528	0.818
12.6914	0.81
12.73	0.802
12.7686	0.796
12.8071	0.794
12.8457	0.79
12.8843	0.785
12.9229	0.78
12.9615	0.775
13.0001	0.769
13.0387	0.764
13.0772	0.755
13.1158	0.75
13.1544	0.745
13.193	0.739
13.2316	0.731
13.2702	0.723
13.3087	0.715
13.3473	0.709
13.3859	0.707
13.4245	0.705
13.4631	0.699
13.5017	0.694
13.5403	0.689
13.5788	0.682
13.6174	0.677
13.656	0.672
13.6946	0.669
13.7332	0.667
13.7718	0.667
13.8103	0.672
13.8489	0.678
13.8875	0.683
13.9261	0.693
13.9647	0.709
14.0033	0.721
14.0419	0.737
14.0804	0.737
14.119	0.732
14.1576	0.715
14.1962	0.694
14.2348	0.658
14.2734	0.626
14.3119	0.596
14.3505	0.572
14.3891	0.548
14.4277	0.543
14.4663	0.55
14.5049	0.57
14.5435	0.6
14.582	0.634
14.6206	0.656
14.6592	0.667
14.6978	0.68
14.7364	0.689
14.775	0.691
14.8136	0.688
14.8521	0.68
14.8907	0.67
14.9293	0.664
14.9679	0.662
15.0065	0.662
15.0451	0.686
15.0836	0.721
15.1222	0.742
15.1608	0.761
15.1994	0.772
15.238	0.786
15.2766	0.794
15.3152	0.801
15.3537	0.809
15.3923	0.812
15.4309	0.812
