Infrared Spectrum: BARBITURIC ACID, 5-ETHYL-5-ISOPROPYL-
Formula: C9 H14 N2 O3
CAS: 76-76-6
State: SOLID (5 mg / 200 mg KBr DISC)
Melting point: 202-203 C
Class: COBLENTZ III
Instrument: PERKIN-ELMER 21 (GRATING)
Instrument parameters: FILTER AT ABOUT 10 MICRONS
Sampling: TRANSMISSION
Resolution: 2
1/CM	TRANSMITTANCE
4000	0.9021
3991	0.9025
3982	0.9032
3973	0.9037
3964	0.9043
3955	0.9049
3946	0.9055
3937	0.9061
3928	0.9065
3919	0.9068
3910	0.9071
3901	0.9075
3892	0.9078
3883	0.9082
3874	0.9085
3865	0.9088
3856	0.9092
3847	0.9095
3838	0.9098
3829	0.9101
3820	0.9104
3811	0.9107
3802	0.9111
3793	0.9115
3784	0.9118
3775	0.9121
3766	0.9121
3757	0.9121
3748	0.9121
3739	0.9121
3730	0.9121
3721	0.9121
3712	0.912
3703	0.9118
3694	0.9116
3685	0.9114
3676	0.9111
3667	0.911
3658	0.9108
3649	0.9105
3640	0.9104
3631	0.9102
3622	0.9099
3613	0.9088
3604	0.9074
3595	0.906
3586	0.9044
3577	0.9015
3568	0.8985
3559	0.8953
3550	0.891
3541	0.8866
3532	0.8825
3523	0.8792
3514	0.8759
3505	0.8721
3496	0.8683
3487	0.8637
3478	0.8587
3469	0.8537
3460	0.8451
3451	0.8331
3442	0.824
3433	0.8191
3424	0.8158
3415	0.8142
3406	0.814
3397	0.8136
3388	0.8128
3379	0.812
3370	0.8111
3361	0.8075
3352	0.7977
3343	0.7849
3334	0.7665
3325	0.7353
3316	0.7049
3307	0.6743
3298	0.6435
3289	0.6125
3280	0.5812
3271	0.5501
3262	0.5186
3253	0.487
3244	0.4551
3235	0.4232
3226	0.404
3217	0.3916
3208	0.389
3199	0.388
3190	0.3881
3181	0.3919
3172	0.4019
3163	0.4122
3154	0.4259
3145	0.4343
3136	0.4371
3127	0.4385
3118	0.4336
3109	0.426
3100	0.4229
3091	0.4221
3082	0.427
3073	0.4588
3064	0.4899
3055	0.5212
3046	0.5528
3037	0.5845
3028	0.6164
3019	0.6289
3010	0.6315
3001	0.6314
2992	0.6282
2983	0.6128
2974	0.6017
2965	0.6008
2956	0.6072
2947	0.6256
2938	0.6453
2929	0.6589
2920	0.6721
2911	0.6817
2902	0.6897
2893	0.694
2884	0.6955
2875	0.6961
2866	0.6971
2857	0.6991
2848	0.7014
2839	0.7057
2830	0.714
2821	0.7295
2812	0.7465
2803	0.7665
2794	0.7837
2785	0.7999
2776	0.815
2767	0.8294
2758	0.8442
2749	0.8552
2740	0.8655
2731	0.8754
2722	0.8833
2713	0.8906
2704	0.8956
2695	0.9006
2686	0.9048
2677	0.9085
2668	0.9113
2659	0.9141
2650	0.9151
2641	0.9128
2632	0.9125
2623	0.9125
2614	0.914
2605	0.9155
2596	0.917
2587	0.9192
2578	0.9215
2569	0.9238
2560	0.9262
2551	0.9286
2542	0.931
2533	0.9334
2524	0.9341
2515	0.9337
2506	0.9311
2497	0.9285
2488	0.9255
2479	0.9227
2470	0.9203
2461	0.9193
2452	0.9188
2443	0.9206
2434	0.9237
2425	0.9274
2416	0.9304
2407	0.9323
2398	0.9341
2389	0.9356
2380	0.9367
2371	0.9373
2362	0.9371
2353	0.9371
2344	0.9373
2335	0.9381
2326	0.939
2317	0.9415
2308	0.9443
2299	0.9464
2290	0.9485
2281	0.9499
2272	0.9505
2263	0.9511
2254	0.9517
2245	0.9523
2236	0.953
2227	0.9528
2218	0.9521
2209	0.9506
2200	0.95
2191	0.9513
2182	0.9525
2173	0.9523
2164	0.9467
2155	0.943
2146	0.947
2137	0.9454
2128	0.9424
2119	0.9395
2110	0.9368
2101	0.9346
2092	0.932
2083	0.9327
2074	0.9351
2065	0.9368
2056	0.9378
2047	0.9383
2038	0.9387
2029	0.9383
2020	0.9354
2011	0.9345
2002	0.9361
1993	0.9352
1984	0.9333
1975	0.93
1966	0.9256
1957	0.9189
1948	0.9078
1939	0.8993
1930	0.8928
1921	0.8924
1912	0.8913
1903	0.8901
1894	0.8868
1885	0.8811
1876	0.8728
1867	0.8628
1858	0.8506
1849	0.8421
1840	0.8283
1831	0.8074
1822	0.7907
1813	0.7701
1804	0.7489
1795	0.7224
1786	0.6825
1777	0.5699
1768	0.458
1759	0.2403
1750	0.2103
1741	0.2141
1732	0.112
1723	0.1105
1714	0.0515
1705	0.0442
1696	0.0469
1687	0.0824
1678	0.331
1669	0.4046
1660	0.4586
1651	0.5354
1642	0.6067
1633	0.6567
1624	0.7053
1615	0.7454
1606	0.7808
1597	0.8021
1588	0.8159
1579	0.8273
1570	0.8356
1561	0.8221
1552	0.7989
1543	0.8163
1534	0.8565
1525	0.8589
1516	0.8473
1507	0.8662
1498	0.8584
1489	0.8286
1480	0.7494
1471	0.6053
1462	0.4358
1453	0.4603
1444	0.3158
1435	0.1925
1426	0.2396
1417	0.4186
1408	0.4474
1399	0.5497
1390	0.5931
1381	0.546
1372	0.3349
1363	0.2687
1354	0.4684
1345	0.6151
1336	0.4875
1327	0.5162
1318	0.222
1309	0.3059
1300	0.5682
1291	0.6838
1282	0.5969
1273	0.6128
1264	0.7369
1255	0.7897
1246	0.7977
1237	0.7626
1228	0.5384
1219	0.3359
1210	0.5847
1201	0.7019
1192	0.7689
1183	0.8091
1174	0.7806
1165	0.7551
1156	0.7104
1147	0.7725
1138	0.8425
1129	0.8553
1120	0.8641
1111	0.8698
1102	0.8542
1093	0.8521
1084	0.855
1075	0.8016
1066	0.8534
1057	0.8841
1048	0.8128
1039	0.8309
1030	0.8778
1021	0.8913
1012	0.903
1003	0.904
994	0.9041
985	0.9052
976	0.8897
967	0.8652
958	0.8871
949	0.8727
940	0.8707
931	0.8777
922	0.8761
913	0.8804
904	0.8725
895	0.866
886	0.8468
877	0.8101
868	0.7669
859	0.6811
850	0.5548
841	0.5839
832	0.6691
823	0.6532
814	0.5785
805	0.5688
796	0.6388
787	0.7203
778	0.7724
769	0.8048
760	0.8143
751	0.8293
742	0.6683
733	0.7997
724	0.8599
715	0.8784
706	0.892
697	0.8806
688	0.9082
679	0.8075
670	0.8975
