Infrared Spectrum: Triphenylmethyl chloride
Formula: C 19 H 15 Cl
CAS: 76-83-5
State: gas
Instrument: HP-GC/MS/IRD
Origin: NIST Mass Spectrometry Data Center
1/CM	ABSORBANCE
550	0.0005694
562	0.0006474
574	0.000702
586	0.0009854
598	0.0011362
610	0.0029432
622	0.007865
634	0.0041548
646	0.0015756
658	0.0029198
670	0.0072644
682	0.0097162
694	0.0230724
706	0.0160056
718	0.0057304
730	0.009685
742	0.0182156
754	0.0158782
766	0.0057018
778	0.0019604
790	0.0012558
802	0.0012064
814	0.001833
826	0.0035698
838	0.0027872
850	0.002457
862	0.0015548
874	0.0012402
886	0.002548
898	0.0013416
910	0.0004446
922	0.0004004
934	0.000234
946	5.46e-05
958	9.36e-05
970	0.0001274
982	0.0002652
994	0.0008086
1006	0.0011154
1018	0.0009828
1030	0.0030108
1042	0.0023296
1054	0.0004056
1066	0.0004888
1078	0.0007332
1090	0.0004472
1102	0.0005044
1114	0.00052
1126	0.000585
1138	0.0012168
1150	0.001625
1162	0.001638
1174	0.0024674
1186	0.005265
1198	0.0044434
1210	0.003627
1222	0.00221
1234	0.0016432
1246	0.0014222
1258	0.0012844
1270	0.0012792
1282	0.0010842
1294	0.0009542
1306	0.0011726
1318	0.0016068
1330	0.0012272
1342	0.0008268
1354	0.000637
1366	0.0006916
1378	0.0008684
1390	0.0006682
1402	0.000559
1414	0.0007488
1426	0.0013962
1438	0.0048464
1450	0.0072358
1462	0.0023504
1474	0.0037206
1486	0.0059306
1498	0.0071188
1510	0.002002
1522	0.0006968
1534	0.0006474
1546	0.0005434
1558	0.0004602
1570	0.0008736
1582	0.0016952
1594	0.0028574
1606	0.0019318
1618	0.0007228
1630	0.0004342
1642	0.0002912
1654	0.0003458
1666	0.0004966
1678	0.0005772
1690	0.0004082
1702	0.0002158
1714	0.0002444
1726	0.0003536
1738	0.0003406
1750	0.0004836
1762	0.0007514
1774	0.0007332
1786	0.0007722
1798	0.0017524
1810	0.001378
1822	0.0005902
1834	0.0003328
1846	0.0003666
1858	0.0005486
1870	0.0005798
1882	0.0007826
1894	0.0010322
1906	0.0008866
1918	0.0005122
1930	0.0005902
1942	0.0014248
1954	0.0013754
1966	0.0007436
1978	0.0002496
1990	0.0001222
2002	0.000104
2014	9.1e-05
2026	7.54e-05
2038	6.76e-05
2050	7.02e-05
2062	5.72e-05
2074	5.46e-05
2086	6.24e-05
2098	2.86e-05
2110	4.68e-05
2122	4.42e-05
2134	2.34e-05
2146	7.8e-06
2158	2.86e-05
2170	5.72e-05
2182	8.58e-05
2194	4.94e-05
2206	1.56e-05
2218	2.6e-05
2230	4.16e-05
2242	3.12e-05
2254	0.00013
2266	0.0001924
2278	9.1e-05
2290	5.2e-05
2302	8.06e-05
2314	0.0002184
2326	0.0001352
2338	8.58e-05
2350	0.0001196
2362	5.2e-05
2374	8.84e-05
2386	7.02e-05
2398	8.32e-05
2410	6.76e-05
2422	3.9e-05
2434	6.5e-05
2446	9.36e-05
2458	4.42e-05
2470	4.16e-05
2482	4.16e-05
2494	4.68e-05
2506	3.38e-05
2518	5.46e-05
2530	3.38e-05
2542	5.72e-05
2554	3.38e-05
2566	5.2e-05
2578	8.84e-05
2590	9.62e-05
2602	0.0001092
2614	8.32e-05
2626	9.36e-05
2638	0.0001066
2650	0.0001118
2662	8.84e-05
2674	3.64e-05
2686	0.0001014
2698	6.24e-05
2710	2.86e-05
2722	4.68e-05
2734	6.24e-05
2746	0.0001482
2758	0.0001352
2770	0.0001638
2782	9.62e-05
2794	9.88e-05
2806	5.46e-05
2818	7.02e-05
2830	7.8e-05
2842	0.0001014
2854	0.0001118
2866	0.000117
2878	0.0002028
2890	0.0002938
2902	0.000195
2914	0.0001586
2926	0.000234
2938	0.0002782
2950	0.0002262
2962	0.0002522
2974	0.00039
2986	0.0006006
2998	0.0009152
3010	0.0017498
3022	0.0040092
3034	0.0064194
3046	0.0063804
3058	0.0099892
3070	0.0185848
3082	0.0097006
3094	0.006812
3106	0.003159
3118	0.0015392
3130	0.000741
3142	0.0005382
3154	0.0005746
3166	0.0004992
3178	0.0002262
3190	0.0002054
3202	0.0001612
3214	0.0001222
3226	0.000117
3238	0.0001248
3250	0.000117
3262	7.02e-05
3274	9.62e-05
3286	7.28e-05
3298	8.58e-05
3310	0.0001118
3322	0.0001482
3334	0.0001716
3346	0.0001742
3358	0.0001508
3370	0.0001846
3382	0.0002184
3394	0.0001144
3406	0.0001482
3418	0.000182
3430	0.0002262
3442	0.000234
3454	0.000299
3466	0.0002886
3478	0.0002444
3490	0.000208
3502	0.0002184
3514	0.0002418
3526	0.00026
3538	0.0003016
3550	0.0002652
3562	0.0003146
3574	0.0003198
3586	0.000312
3598	0.0002912
3610	0.0002496
3622	0.0002314
3634	0.0003068
3646	0.0003848
3658	0.0004004
3670	0.0003432
3682	0.000364
3694	0.0003822
3706	0.0004342
3718	0.0003926
3730	0.0002964
3742	0.000247
3754	0.0002548
3766	0.0003224
3778	0.0002366
3790	0.00026
3802	0.0002652
3814	0.00026
3826	0.0002132
3838	0.0001716
