Infrared Spectrum: Triphenylmethanol
Formula: C 19 H 16 O
CAS: 76-84-6
State: gas
Instrument: HP-GC/MS/IRD
Origin: NIST Mass Spectrometry Data Center
1/CM	ABSORBANCE
550	0.0005082
562	5.06e-05
574	0.0004466
586	0.0007788
598	0.0004114
610	0.0006182
622	0.001529
634	0.0094776
646	0.0026598
658	0.0013376
670	0.0027544
682	0.0055946
694	0.0165748
706	0.0178398
718	0.0050402
730	0.002882
742	0.0049038
754	0.013035
766	0.0093962
778	0.0023716
790	0.0008404
802	0.000462
814	0.0004246
826	0.0003982
838	0.0003498
850	0.000451
862	0.000627
874	0.001276
886	0.0029744
898	0.0028402
910	0.0016368
922	0.0011792
934	0.001045
946	0.000825
958	0.0007788
970	0.0009878
982	0.0015048
994	0.0033022
1006	0.0099484
1018	0.0064724
1030	0.0047828
1042	0.0022132
1054	0.0006534
1066	0.0005764
1078	0.0005764
1090	0.0004906
1102	0.0004752
1114	0.0004818
1126	0.0006952
1138	0.0014278
1150	0.0033066
1162	0.0039116
1174	0.002926
1186	0.0043472
1198	0.002937
1210	0.0023914
1222	0.0020306
1234	0.001826
1246	0.0017556
1258	0.0019162
1270	0.0023166
1282	0.00286
1294	0.0034056
1306	0.0038104
1318	0.0041162
1330	0.0037532
1342	0.0027258
1354	0.0017842
1366	0.001342
1378	0.0012056
1390	0.0008866
1402	0.0006908
1414	0.000748
1426	0.001265
1438	0.003476
1450	0.0060456
1462	0.002321
1474	0.002112
1486	0.0049522
1498	0.0046068
1510	0.0012166
1522	0.0005412
1534	0.0004906
1546	0.0004554
1558	0.0003344
1570	0.0005038
1582	0.001287
1594	0.0026114
1606	0.001727
1618	0.0005456
1630	0.0003212
1642	0.0002068
1654	0.0001672
1666	0.000231
1678	0.0003146
1690	0.0003014
1702	0.0001276
1714	0.0001056
1726	0.0001672
1738	0.0001892
1750	0.0002508
1762	0.0003388
1774	0.0004664
1786	0.00044
1798	0.0010296
1810	0.0011176
1822	0.0004334
1834	0.0002046
1846	0.000242
1858	0.0003894
1870	0.0004818
1882	0.000594
1894	0.000627
1906	0.0005632
1918	0.0003608
1930	0.0004422
1942	0.0010098
1954	0.0010824
1966	0.0005588
1978	0.0001496
1990	7.92e-05
2002	7.26e-05
2014	5.72e-05
2026	4.4e-05
2038	4.84e-05
2050	4.18e-05
2062	6.38e-05
2074	2.2e-05
2086	4.62e-05
2098	5.06e-05
2110	1.98e-05
2122	2.86e-05
2134	1.98e-05
2146	4.4e-05
2158	5.28e-05
2170	6.6e-05
2182	7.7e-05
2194	5.06e-05
2206	3.3e-05
2218	2.86e-05
2230	3.74e-05
2242	3.74e-05
2254	4.18e-05
2266	2.64e-05
2278	6.6e-05
2290	6.16e-05
2302	9.02e-05
2314	0.0002024
2326	9.24e-05
2338	0.0001364
2350	0.000121
2362	6.16e-05
2374	5.28e-05
2386	7.04e-05
2398	4.84e-05
2410	6.82e-05
2422	7.26e-05
2434	6.6e-05
2446	6.82e-05
2458	4.4e-05
2470	7.26e-05
2482	6.82e-05
2494	5.5e-05
2506	4.4e-05
2518	5.28e-05
2530	6.38e-05
2542	6.16e-05
2554	7.48e-05
2566	9.02e-05
2578	6.82e-05
2590	0.00011
2602	0.0001034
2614	7.92e-05
2626	8.14e-05
2638	8.8e-05
2650	8.8e-05
2662	5.06e-05
2674	4.62e-05
2686	4.84e-05
2698	4.4e-05
2710	5.06e-05
2722	5.06e-05
2734	5.06e-05
2746	9.24e-05
2758	0.0001342
2770	0.0001342
2782	0.0001056
2794	8.8e-05
2806	7.92e-05
2818	0.0001166
2830	8.36e-05
2842	0.0001474
2854	0.0001518
2866	0.0001628
2878	0.0002178
2890	0.0002596
2902	0.0001848
2914	0.000187
2926	0.0002508
2938	0.0002618
2950	0.00022
2962	0.0002332
2974	0.0003454
2986	0.0004466
2998	0.0007106
3010	0.001584
3022	0.0039578
3034	0.0066374
3046	0.0057662
3058	0.0084018
3070	0.0150018
3082	0.007854
3094	0.0056496
3106	0.0027346
3118	0.0011594
3130	0.0005632
3142	0.0003696
3154	0.000429
3166	0.0003762
3178	0.0001716
3190	9.9e-05
3202	9.24e-05
3214	3.08e-05
3226	4.18e-05
3238	8.14e-05
3250	3.96e-05
3262	4.4e-05
3274	4.18e-05
3286	4.18e-05
3298	6.16e-05
3310	7.7e-05
3322	2.86e-05
3334	5.28e-05
3346	5.28e-05
3358	6.6e-05
3370	7.92e-05
3382	6.16e-05
3394	7.26e-05
3406	8.36e-05
3418	5.94e-05
3430	5.5e-05
3442	5.06e-05
3454	8.58e-05
3466	5.5e-05
3478	1.32e-05
3490	5.72e-05
3502	5.94e-05
3514	1.98e-05
3526	3.96e-05
3538	3.52e-05
3550	6.6e-06
3562	1.76e-05
3574	3.52e-05
3586	6.6e-05
3598	0.0001518
3610	0.0003388
3622	0.0009614
3634	0.002629
3646	0.0011946
3658	0.0004796
3670	0.0002464
3682	0.0001716
3694	0.0001738
3706	0.0001936
3718	0.000132
3730	7.92e-05
3742	6.16e-05
3754	3.08e-05
3766	6.6e-05
3778	8.36e-05
3790	7.92e-05
3802	6.16e-05
3814	1.98e-05
3826	5.5e-05
3838	2.2e-05
