Infrared Spectrum: CHLOROTRIPHENYLSILANE
Formula: C18 H15 Cl Si
CAS: 76-86-8
State: SOLUTION (10% IN CCl4 FOR 3800-1272, 2% IN CS2 FOR 1272-650, AND 10% IN CCl4 FOR 650-250 CM^-^1)
Melting point: 111 C
Class: COBLENTZ III
Instrument: PERKIN-ELMER 521 (GRATING)
Instrument parameters: FILTERS AT 3150, 2500, 2000, 1150, 700, 410. GRATING CHANGES: 2000, 630 CM^-^1
Sampling: TRANSMISSION
Path length: 0.012 CM, 0.011 CM, AND 0.011 CM
Resolution: 2
Origin: DOW CORNING CORP.
1/CM	TRANSMITTANCE
253.613	0.786
262.937	0.796
272.261	0.81
281.585	0.815
290.909	0.829
300.233	0.847
309.557	0.861
318.881	0.877
328.205	0.891
337.529	0.9
346.853	0.905
356.177	0.907
365.501	0.905
374.825	0.905
384.149	0.901
393.473	0.886
402.797	0.889
412.121	0.872
421.445	0.823
430.769	0.689
440.093	0.669
449.417	0.747
458.741	0.788
468.065	0.822
477.389	0.779
486.713	0.646
496.037	0.151
505.361	0.035
514.685	0.504
524.009	0.751
533.333	0.711
542.658	0.302
551.982	0.027
561.306	0.533
570.63	0.823
579.954	0.866
589.278	0.875
598.602	0.872
607.926	0.865
617.25	0.717
626.574	0.881
635.898	0.881
645.222	0.881
654.546	0.881
663.87	0.876
673.194	0.847
682.518	0.769
691.842	0.723
701.166	0.316
710.49	0.566
719.814	0.46
729.138	0.858
738.462	0.732
747.786	0.833
757.11	0.894
766.434	0.904
775.758	0.904
785.082	0.902
794.406	0.9
803.73	0.899
813.054	0.9
822.378	0.905
831.702	0.906
841.026	0.896
850.35	0.89
859.674	0.896
868.998	0.904
878.322	0.91
887.646	0.916
896.97	0.912
906.294	0.91
915.618	0.907
924.942	0.912
934.266	0.912
943.59	0.909
952.914	0.906
962.238	0.906
971.562	0.902
980.886	0.897
990.21	0.891
999.534	0.876
1008.86	0.883
1018.18	0.883
1027.51	0.843
1036.83	0.889
1046.15	0.887
1055.48	0.887
1064.8	0.882
1074.13	0.885
1083.45	0.871
1092.77	0.862
1102.1	0.744
1111.42	0.452
1120.75	0.648
1130.07	0.853
1139.39	0.886
1148.72	0.901
1158.04	0.909
1167.37	0.91
1176.69	0.896
1186.01	0.86
1195.34	0.907
1204.66	0.923
1213.99	0.923
1223.31	0.923
1232.63	0.918
1241.96	0.911
1251.28	0.899
1260.61	0.889
1269.93	0.91
1279.25	0.906
1288.58	0.905
1297.9	0.757
1307.23	0.738
1316.55	0.847
1325.87	0.805
1335.2	0.75
1344.52	0.856
1353.85	0.857
1363.17	0.852
1372.49	0.785
1381.82	0.842
1391.14	0.853
1400.47	0.847
1409.79	0.823
1419.12	0.7488
1428.44	0.0969
1437.76	0.778
1447.09	0.854
1456.41	0.861
1465.74	0.858
1475.06	0.824
1484.38	0.627
1493.71	0.86
1503.03	0.887
1512.36	0.891
1521.68	0.886
1531	0.875
1540.33	0.862
1549.65	0.862
1558.98	0.862
1568.3	0.829
1577.62	0.833
1586.95	0.641
1596.27	0.848
1605.6	0.862
1614.92	0.842
1624.24	0.877
1633.57	0.881
1642.89	0.872
1652.22	0.834
1661.54	0.832
1670.86	0.876
1680.19	0.881
1689.51	0.883
1698.84	0.885
1708.16	0.882
1717.48	0.883
1726.81	0.883
1736.13	0.886
1745.46	0.886
1754.78	0.882
1764.1	0.853
1773.43	0.846
1782.75	0.876
1792.08	0.878
1801.4	0.868
1810.72	0.847
1820.05	0.757
1829.37	0.838
1838.7	0.838
1848.02	0.882
1857.34	0.883
1866.67	0.881
1875.99	0.86
1885.32	0.786
1894.64	0.803
1903.96	0.803
1913.29	0.875
1922.61	0.885
1931.94	0.883
1941.26	0.881
1950.58	0.841
1959.91	0.764
1969.23	0.839
1978.56	0.851
1987.88	0.891
1997.2	0.9
2006.53	0.9045
2015.85	0.905
2025.18	0.905
2034.5	0.904
2043.82	0.904
2053.15	0.902
2062.47	0.902
2071.8	0.902
2081.12	0.901
2090.44	0.8995
2099.77	0.899
2109.09	0.8979
2118.42	0.8965
2127.74	0.896
2137.06	0.894
2146.39	0.8931
2155.71	0.897
2165.04	0.8996
2174.36	0.8994
2183.68	0.897
2193.01	0.895
2202.33	0.892
2211.66	0.889
2220.98	0.887
2230.3	0.89
2239.63	0.891
2248.95	0.891
2258.28	0.892
2267.6	0.892
2276.92	0.892
2286.25	0.892
2295.57	0.892
2304.9	0.894
2314.22	0.895
2323.54	0.8983
2332.87	0.902
2342.19	0.901
2351.52	0.897
2360.84	0.901
2370.16	0.899
2379.49	0.8953
2388.81	0.894
2398.14	0.8913
2407.46	0.89
2416.78	0.89
2426.11	0.891
2435.43	0.89
2444.76	0.89
2454.08	0.89
2463.4	0.89
2472.73	0.8893
2482.05	0.887
2491.38	0.885
2500.7	0.885
2510.02	0.885
2519.35	0.883
2528.67	0.883
2538	0.883
2547.32	0.882
2556.65	0.882
2565.97	0.883
2575.29	0.8813
2584.62	0.8735
2593.94	0.8802
2603.27	0.882
2612.59	0.8813
2621.91	0.8815
2631.24	0.883
2640.56	0.885
2649.89	0.885
2659.21	0.883
2668.53	0.882
2677.86	0.8812
2687.18	0.8754
2696.51	0.8712
2705.83	0.8726
2715.15	0.8818
2724.48	0.883
2733.8	0.883
2743.13	0.883
2752.45	0.883
2761.77	0.883
2771.1	0.882
2780.42	0.883
2789.75	0.883
2799.07	0.882
2808.39	0.8802
2817.72	0.877
2827.04	0.873
2836.37	0.873
2845.69	0.872
2855.01	0.8702
2864.34	0.867
2873.66	0.866
2882.99	0.8624
2892.31	0.8579
2901.63	0.8523
2910.96	0.8443
2920.28	0.8488
2929.61	0.857
2938.93	0.8561
2948.25	0.8511
2957.58	0.8443
2966.9	0.8415
2976.23	0.8383
2985.55	0.8252
2994.87	0.7963
3004.2	0.6191
3013.52	0.664
3022.85	0.6338
3032.17	0.5979
3041.49	0.6626
3050.82	0.4843
3060.14	0.38
3069.47	0.4913
3078.79	0.303
3088.11	0.694
3097.44	0.6962
3106.76	0.8509
3116.09	0.8699
3125.41	0.878
3134.73	0.8562
3144.06	0.8609
3153.38	0.886
3162.71	0.894
3172.03	0.896
3181.35	0.896
3190.68	0.897
3200	0.9
3209.33	0.9
3218.65	0.9
3227.97	0.901
3237.3	0.901
3246.62	0.901
3255.95	0.9
3265.27	0.9
3274.59	0.899
3283.92	0.899
3293.24	0.897
3302.57	0.896
3311.89	0.895
3321.21	0.894
3330.54	0.894
3339.86	0.894
3349.19	0.894
3358.51	0.894
3367.83	0.892
3377.16	0.892
3386.48	0.892
3395.81	0.891
3405.13	0.892
3414.45	0.892
3423.78	0.892
3433.1	0.892
3442.43	0.892
3451.75	0.892
3461.07	0.894
3470.4	0.894
3479.72	0.894
3489.05	0.8941
3498.37	0.895
3507.69	0.895
3517.02	0.895
3526.34	0.895
3535.67	0.895
3544.99	0.895
3554.31	0.895
3563.64	0.895
3572.96	0.895
3582.29	0.895
3591.61	0.8952
3600.93	0.896
3610.26	0.8975
3619.58	0.8998
3628.91	0.896
3638.23	0.891
3647.55	0.8942
3656.88	0.901
3666.2	0.9
3675.53	0.8986
3684.85	0.894
3694.17	0.892
3703.5	0.8942
3712.82	0.8962
3722.15	0.899
3731.47	0.9
3740.8	0.9
3750.12	0.901
3759.44	0.899
3768.77	0.897
3778.09	0.899
3787.42	0.899
3796.74	0.9
3806.06	0.9008
