Infrared Spectrum: Methyl benzilate
Formula: C 15 H 14 O 3
CAS: 76-89-1
State: gas
Origin: EPA-IR VAPOR PHASE LIBRARY
1/CM	ABSORBANCE
549.8	0.00353
559.445	0.00375
569.09	0.00529
578.734	0.00688
588.379	0.00862
598.024	0.01488
607.669	0.02514
617.313	0.01904
626.958	0.01065
636.603	0.00612
646.248	0.00565
655.893	0.00768
665.537	0.01739
675.182	0.03498
684.827	0.05215
694.472	0.0884
704.116	0.0648
713.761	0.03099
723.406	0.02121
733.051	0.02909
742.695	0.04915
752.34	0.06097
761.985	0.04489
771.63	0.02397
781.275	0.01253
790.919	0.01286
800.564	0.01266
810.209	0.00619
819.854	0.00428
829.498	0.00376
839.143	0.00344
848.788	0.00375
858.433	0.00441
868.078	0.00674
877.722	0.01036
887.367	0.0117
897.012	0.00994
906.657	0.0105
916.301	0.0095
925.946	0.00954
935.591	0.01115
945.236	0.00959
954.88	0.00667
964.525	0.00676
974.17	0.01144
983.815	0.02478
993.46	0.03787
1003.1	0.03366
1012.75	0.03479
1022.39	0.0365
1032.04	0.03473
1041.68	0.03293
1051.33	0.05054
1060.97	0.056
1070.62	0.03232
1080.26	0.02454
1089.91	0.02739
1099.55	0.024
1109.2	0.02087
1118.84	0.01787
1128.49	0.01459
1138.13	0.01765
1147.78	0.02998
1157.42	0.05919
1167.07	0.08656
1176.71	0.07408
1186.36	0.06974
1196	0.07517
1205.64	0.09352
1215.29	0.11015
1224.93	0.11829
1234.58	0.13382
1244.22	0.1502
1253.87	0.12174
1263.51	0.06672
1273.16	0.03742
1282.8	0.0257
1292.45	0.02044
1302.09	0.01919
1311.74	0.01864
1321.38	0.01787
1331.03	0.01825
1340.67	0.01967
1350.32	0.02149
1359.96	0.02186
1369.61	0.02068
1379.25	0.01599
1388.9	0.01084
1398.54	0.0082
1408.18	0.00787
1417.83	0.00894
1427.47	0.01637
1437.12	0.03819
1446.76	0.03559
1456.41	0.02464
1466.05	0.01536
1475.7	0.01508
1485.34	0.02453
1494.99	0.03294
1504.63	0.01791
1514.28	0.00762
1523.92	0.00571
1533.57	0.00535
1543.21	0.00471
1552.86	0.00434
1562.5	0.00434
1572.15	0.00505
1581.79	0.00691
1591.44	0.0112
1601.08	0.01239
1610.73	0.00675
1620.37	0.00425
1630.01	0.00365
1639.66	0.00366
1649.3	0.00395
1658.95	0.00479
1668.59	0.00577
1678.24	0.00693
1687.88	0.00815
1697.53	0.00953
1707.17	0.01152
1716.82	0.01743
1726.46	0.03855
1736.11	0.11449
1745.75	0.16676
1755.4	0.08993
1765.04	0.05647
1774.69	0.03155
1784.33	0.01838
1793.98	0.01551
1803.62	0.01322
1813.27	0.00779
1822.91	0.00488
1832.55	0.00343
1842.2	0.00288
1851.84	0.00285
1861.49	0.0033
1871.13	0.00404
1880.78	0.00461
1890.42	0.00427
1900.07	0.00306
1909.71	0.00255
1919.36	0.00255
1929	0.00317
1938.65	0.00463
1948.29	0.0056
1957.94	0.00528
1967.58	0.00302
1977.23	0.00175
1986.87	0.00157
1996.52	0.00114
2006.16	0.00111
2015.81	0.00116
2025.45	0.00128
2035.1	0.00129
2044.74	0.00117
2054.38	0.00108
2064.03	0.0009368
2073.67	0.0008314
2083.32	0.0008724
2092.96	0.0008679
2102.61	0.0007759
2112.25	0.0008193
2121.9	0.000721
2131.54	0.0007575
2141.19	0.0007543
2150.83	0.0007891
2160.48	0.0007951
2170.12	0.0008343
2179.77	0.0008349
2189.41	0.0008545
2199.06	0.0005866
2208.7	0.0004574
2218.35	0.0004359
2227.99	0.0003323
2237.64	0.0003505
2247.28	0.00026
2256.92	0.0002462
2266.57	0.0002388
2276.21	0.0002462
2285.86	0.0002974
2295.5	0.0003821
2305.15	0.000507
2314.79	0.0009545
2324.44	0.0007988
2334.08	0.0005398
2343.73	0.00071
2353.37	0.0006389
2363.02	0.0004667
2372.66	0.0005569
2382.31	0.0005163
2391.95	0.0002873
2401.6	0.0003537
2411.24	0.0004669
2420.89	0.0004163
2430.53	0.0004529
2440.18	0.0003615
2449.82	0.000312
2459.47	0.0003269
2469.11	0.0003841
2478.75	0.0003991
2488.4	0.0002659
2498.04	0.0002189
2507.69	0.0001934
2517.33	0.0001469
2526.98	0.0001801
2536.62	0.0001727
2546.27	0.0001314
2555.91	0.0001566
2565.56	0.000149
2575.2	0.0001187
2584.85	0.0003148
2594.49	0.0004262
2604.14	0.0004339
2613.78	0.0001887
2623.43	0.0002032
2633.07	0.0003592
2642.72	0.0004257
2652.36	0.0002648
2662.01	0.000295
2671.65	0.0002017
2681.29	0.0002797
2690.94	0.0002488
2700.58	0.0001232
2710.23	0.000199
2719.87	0.0001247
2729.52	0.0001178
2739.16	0.0002901
2748.81	0.0003703
2758.45	0.0003113
2768.1	0.0004958
2777.74	0.000489
2787.39	0.000419
2797.03	0.0003936
2806.68	0.0005428
2816.32	0.0006008
2825.97	0.0009432
2835.61	0.00206
2845.26	0.00472
2854.9	0.00512
2864.55	0.00229
2874.19	0.00218
2883.84	0.00278
2893.48	0.00424
2903.12	0.00511
2912.77	0.00541
2922.41	0.00511
2932.06	0.00523
2941.7	0.00722
2951.35	0.01705
2960.99	0.03856
2970.64	0.02132
2980.28	0.00799
2989.93	0.00758
2999.57	0.00994
3009.22	0.01256
3018.86	0.01569
3028.51	0.02434
3038.15	0.03282
3047.8	0.03015
3057.44	0.03358
3067.09	0.05834
3076.73	0.0525
3086.38	0.02735
3096.02	0.02326
3105.67	0.01533
3115.31	0.00831
3124.95	0.00408
3134.6	0.00281
3144.24	0.00204
3153.89	0.00198
3163.53	0.00197
3173.18	0.0017
3182.82	0.00111
3192.47	0.000957
3202.11	0.0008622
3211.76	0.0004949
3221.4	0.0005535
3231.05	0.0005327
3240.69	0.0004917
3250.34	0.0002687
3259.98	0.0003713
3269.63	0.000488
3279.27	0.0004487
3288.92	0.0003683
3298.56	0.0003643
3308.21	0.0004188
3317.85	0.0002521
3327.49	0.0005591
3337.14	0.0005421
3346.78	0.0005578
3356.43	0.0005192
3366.07	0.0004421
3375.72	0.0005606
3385.36	0.0003663
3395.01	0.0003986
3404.65	0.0004655
3414.3	0.0004537
3423.94	0.0006307
3433.59	0.0006049
3443.23	0.00109
3452.88	0.00161
3462.52	0.00234
3472.17	0.00247
3481.81	0.00259
3491.46	0.00304
3501.1	0.00408
3510.75	0.00512
3520.39	0.00781
3530.04	0.01418
3539.68	0.02675
3549.32	0.0321
3558.97	0.02335
3568.61	0.01339
3578.26	0.00768
3587.9	0.00497
3597.55	0.00415
3607.19	0.005
3616.84	0.0099
3626.48	0.01337
3636.13	0.00603
3645.77	0.00252
3655.42	0.00175
3665.06	0.00115
3674.71	0.0011
3684.35	0.0006318
3694	0.0007441
3703.64	0.0006597
3713.29	0.0006431
3722.93	0.0005408
3732.58	0.0007698
3742.22	0.0003735
3751.86	0.0005712
3761.51	0.0004906
3771.15	0.0002127
3780.8	0.0003539
3790.44	0.0003082
3800.09	0.0003171
3809.73	0.000387
3819.38	0.0004377
3829.02	0.000426
3838.67	0.0003924
3848.31	0.0003514
3857.96	0.0002969
3867.6	0.000693
3877.25	0.0006323
3886.89	0.0005596
3896.54	0.0004743
3906.18	0.0005721
3915.83	0.0005217
3925.47	0.0004973
3935.12	0.0005454
3944.76	0.0005283
3954.41	0.0003013
3964.05	0.0007285
3973.69	0.000375
3983.34	0.0002549
3992.98	0.0006335
