Infrared Spectrum: 6-DIMETHYLAMINO-4,4-DIPHENYL-3-HEPTANONE
Formula: C21 H27 N O
CAS: 76-99-3
State: SOLUTION (7% CHCl3)
Class: COBLENTZ
Instrument: Not specified, most likely a prism, grating, or hybrid spectrometer.
Sampling: TRANSMISSION
Path length: 0.009 CM
Resolution: 4
MICROMETERS	TRANSMITTANCE
1.964	0.976
2.00027	0.976
2.03654	0.978
2.07281	0.98
2.10909	0.973
2.14536	0.975
2.18163	0.971
2.2179	0.971
2.25417	0.969
2.29044	0.96
2.32671	0.96
2.36299	0.964
2.39926	0.96
2.43553	0.959
2.4718	0.959
2.50807	0.959
2.54434	0.966
2.58061	0.966
2.61689	0.96
2.65316	0.96
2.68943	0.96
2.7257	0.959
2.76197	0.964
2.79824	0.942
2.83451	0.939
2.87079	0.942
2.90706	0.941
2.94333	0.937
2.9796	0.937
3.01587	0.941
3.05214	0.939
3.08841	0.935
3.12469	0.928
3.16096	0.923
3.19723	0.9
3.2335	0.846
3.26977	0.812
3.30604	0.729
3.34231	0.57
3.37859	0.534
3.41486	0.59
3.45113	0.679
3.4874	0.686
3.52367	0.727
3.55994	0.784
3.59621	0.711
3.63249	0.823
3.66876	0.885
3.70503	0.909
3.7413	0.926
3.77757	0.93
3.81384	0.93
3.85011	0.93
3.88639	0.928
3.92266	0.925
3.95893	0.921
3.9952	0.919
4.03147	0.919
4.06774	0.921
4.10401	0.925
4.14029	0.928
4.17656	0.937
4.21283	0.948
4.2491	0.953
4.28537	0.95
4.32164	0.944
4.35791	0.939
4.39419	0.941
4.43046	0.941
4.46673	0.941
4.503	0.941
4.53927	0.941
4.57554	0.941
4.61181	0.941
4.64809	0.941
4.68436	0.939
4.72063	0.939
4.7569	0.937
4.79317	0.937
4.82944	0.937
4.86571	0.937
4.90199	0.935
4.93826	0.935
4.97453	0.937
5.0108	0.935
5.04707	0.93
5.08334	0.919
5.11961	0.909
5.15589	0.919
5.19216	0.926
5.22843	0.928
5.2647	0.925
5.30097	0.914
5.33724	0.919
5.37352	0.928
5.40979	0.932
5.44606	0.926
5.48233	0.923
5.5186	0.916
5.55487	0.916
5.59114	0.921
5.62742	0.923
5.66369	0.918
5.69996	0.91
5.73623	0.905
5.7725	0.896
5.80877	0.875
5.84504	0.663
5.88132	0.395
5.91759	0.417
5.95386	0.705
5.99013	0.852
6.0264	0.866
6.06267	0.885
6.09894	0.894
6.13522	0.894
6.17149	0.9
6.20776	0.898
6.24403	0.875
6.2803	0.811
6.31657	0.871
6.35284	0.88
6.38912	0.901
6.42539	0.91
6.46166	0.912
6.49793	0.914
6.5342	0.921
6.57047	0.923
6.60674	0.926
6.64302	0.907
6.67929	0.846
6.71556	0.613
6.75183	0.675
6.7881	0.784
6.82437	0.759
6.86064	0.645
6.89692	0.593
6.93319	0.59
6.96946	0.584
7.00573	0.727
7.042	0.809
7.07827	0.848
7.11454	0.846
7.15082	0.844
7.18709	0.869
7.22336	0.88
7.25963	0.862
7.2959	0.766
7.33217	0.766
7.36844	0.8
7.40472	0.828
7.44099	0.85
7.47726	0.825
7.51353	0.793
7.5498	0.777
7.58607	0.809
7.62234	0.832
7.65862	0.853
7.69489	0.864
7.73116	0.873
7.76743	0.878
7.8037	0.875
7.83997	0.86
7.87624	0.855
7.91252	0.852
7.94879	0.836
7.98506	0.809
8.02133	0.803
8.0576	0.828
8.09387	0.841
8.13014	0.832
8.16642	0.827
8.20269	0.827
8.23896	0.843
8.27523	0.85
8.3115	0.855
8.34777	0.857
8.38404	0.871
8.42032	0.877
8.45659	0.869
8.49286	0.868
8.52913	0.864
8.5654	0.853
8.60167	0.823
8.63794	0.786
8.67422	0.759
8.71049	0.766
8.74676	0.803
8.78303	0.814
8.8193	0.803
8.85557	0.705
8.89184	0.664
8.92812	0.661
8.96439	0.652
9.00066	0.664
9.03693	0.682
9.0732	0.727
9.10947	0.777
9.14574	0.8
9.18202	0.739
9.21829	0.729
9.25456	0.777
9.29083	0.803
9.3271	0.809
9.36337	0.802
9.39964	0.793
9.43592	0.786
9.47219	0.793
9.50846	0.798
9.54473	0.787
9.581	0.75
9.61727	0.721
9.65354	0.725
9.68982	0.73
9.72609	0.7
9.76236	0.721
9.79863	0.775
9.8349	0.798
9.87117	0.811
9.90744	0.848
9.94372	0.864
9.97999	0.871
10.0163	0.871
10.0525	0.864
10.0888	0.868
10.1251	0.868
10.1613	0.868
10.1976	0.862
10.2339	0.857
10.2702	0.85
10.3064	0.839
10.3427	0.823
10.379	0.809
10.4152	0.805
10.4515	0.846
10.4878	0.866
10.5241	0.885
10.5603	0.894
10.5966	0.898
10.6329	0.9
10.6691	0.9
10.7054	0.894
10.7417	0.887
10.778	0.873
10.8142	0.866
10.8505	0.869
10.8868	0.871
10.923	0.871
10.9593	0.869
10.9956	0.877
11.0319	0.882
11.0681	0.878
11.1044	0.866
11.1407	0.862
11.1769	0.88
11.2132	0.893
11.2495	0.898
11.2858	0.905
11.322	0.901
11.3583	0.898
11.3946	0.901
11.4308	0.9
11.4671	0.894
11.5034	0.896
11.5397	0.893
11.5759	0.893
11.6122	0.896
11.6485	0.9
11.6847	0.896
11.721	0.898
11.7573	0.9
11.7936	0.903
11.8298	0.905
11.8661	0.907
11.9024	0.91
11.9386	0.914
11.9749	0.921
12.0112	0.925
12.0475	0.925
12.0837	0.921
12.12	0.918
12.1563	0.91
12.1925	0.907
12.2288	0.91
12.2651	0.916
12.3014	0.923
12.3376	0.925
12.3739	0.923
12.4102	0.926
12.4464	0.939
12.4827	0.948
12.519	0.953
12.5553	0.966
12.5915	0.971
12.6278	0.975
12.6641	0.978
12.7003	0.983
12.7366	0.989
12.7729	0.989
12.8092	0.991
12.8454	0.992
12.8817	0.994
12.918	0.992
12.9542	0.992
12.9905	0.992
13.0268	0.998
13.0631	0.998
13.0993	0.998
13.1356	1.001
13.1719	1.001
13.2081	1.001
13.2444	1
13.2807	1.001
13.317	1.001
13.3532	1.005
13.3895	1.005
13.4258	1.001
13.462	1.001
13.4983	1.001
13.5346	1.003
13.5709	1.005
13.6071	1.001
13.6434	1.005
13.6797	1.005
13.7159	1.005
13.7522	1.001
13.7885	0.998
13.8248	0.992
13.861	0.985
13.8973	0.982
13.9336	0.967
13.9698	0.939
14.0061	0.9
14.0424	0.832
14.0787	0.75
14.1149	0.67
14.1512	0.531
14.1875	0.385
14.2237	0.29
14.26	0.27
14.2963	0.292
14.3326	0.376
14.3688	0.495
14.4051	0.616
14.4414	0.704
14.4776	0.775
14.5139	0.819
14.5502	0.85
14.5865	0.862
14.6227	0.875
14.659	0.882
14.6953	0.889
14.7315	0.896
14.7678	0.901
14.8041	0.91
14.8404	0.925
14.8766	0.944
14.9129	0.95
14.9492	0.95
14.9854	0.96
15.0217	0.964
15.058	0.962
15.0943	0.919
15.1305	0.86
15.1668	0.834
15.2031	0.827
15.2393	0.834
15.2756	0.853
15.3119	0.869
15.3482	0.887
15.3844	0.898
15.4207	0.907
15.457	0.912
15.4932	0.918
