Infrared Spectrum: Methacrylic anhydride
Formula: C 8 H 10 O 3
CAS: 760-93-0
State: gas
Origin: EPA-IR VAPOR PHASE LIBRARY
1/CM	ABSORBANCE
549.8	0.002452
559.445	0.003852
569.09	0.006462
578.734	0.006762
588.379	0.004512
598.024	0.003532
607.669	0.003222
617.313	0.003262
626.958	0.003562
636.603	0.004442
646.248	0.004372
655.893	0.003922
665.537	0.002912
675.182	0.002282
684.827	0.001802
694.472	0.001842
704.116	0.001952
713.761	0.001882
723.406	0.002312
733.051	0.002732
742.695	0.003352
752.34	0.003982
761.985	0.005662
771.63	0.007422
781.275	0.007552
790.919	0.007202
800.564	0.007902
810.209	0.008412
819.854	0.007052
829.498	0.005672
839.143	0.005092
848.788	0.005102
858.433	0.005772
868.078	0.007322
877.722	0.008422
887.367	0.009122
897.012	0.009292
906.657	0.011462
916.301	0.016482
925.946	0.027642
935.591	0.043122
945.236	0.043692
954.88	0.028372
964.525	0.019772
974.17	0.022972
983.815	0.035502
993.46	0.063032
1003.1	0.090192
1012.75	0.093482
1022.39	0.121612
1032.04	0.215742
1041.68	0.297062
1051.33	0.254372
1060.97	0.148202
1070.62	0.084872
1080.26	0.058972
1089.91	0.049122
1099.55	0.046922
1109.2	0.046832
1118.84	0.043422
1128.49	0.040522
1138.13	0.035952
1147.78	0.026002
1157.42	0.015702
1167.07	0.010252
1176.71	0.007922
1186.36	0.006292
1196	0.005362
1205.64	0.004222
1215.29	0.003442
1224.93	0.003202
1234.58	0.003522
1244.22	0.004722
1253.87	0.007412
1263.51	0.014482
1273.16	0.030352
1282.8	0.045702
1292.45	0.044182
1302.09	0.029662
1311.74	0.017892
1321.38	0.012912
1331.03	0.009822
1340.67	0.007932
1350.32	0.006792
1359.96	0.006862
1369.61	0.008572
1379.25	0.011112
1388.9	0.013272
1398.54	0.015772
1408.18	0.016772
1417.83	0.014342
1427.47	0.012232
1437.12	0.012492
1446.76	0.015682
1456.41	0.018992
1466.05	0.015332
1475.7	0.008702
1485.34	0.005432
1494.99	0.004212
1504.63	0.003632
1514.28	0.003272
1523.92	0.002932
1533.57	0.002842
1543.21	0.002832
1552.86	0.003042
1562.5	0.003272
1572.15	0.003462
1581.79	0.003762
1591.44	0.003882
1601.08	0.004172
1610.73	0.004902
1620.37	0.006942
1630.01	0.010962
1639.66	0.012842
1649.3	0.008492
1658.95	0.004742
1668.59	0.003922
1678.24	0.003912
1687.88	0.004902
1697.53	0.006272
1707.17	0.008622
1716.82	0.013942
1726.46	0.027892
1736.11	0.054092
1745.75	0.069682
1755.4	0.054292
1765.04	0.038832
1774.69	0.043222
1784.33	0.066662
1793.98	0.102122
1803.62	0.103212
1813.27	0.065832
1822.91	0.033452
1832.55	0.018092
1842.2	0.010762
1851.84	0.007142
1861.49	0.005782
1871.13	0.005492
1880.78	0.005542
1890.42	0.005082
1900.07	0.003992
1909.71	0.002992
1919.36	0.002422
1929	0.002152
1938.65	0.001922
1948.29	0.001682
1957.94	0.001612
1967.58	0.001632
1977.23	0.001582
1986.87	0.001372
1996.52	0.001262
2006.16	0.001242
2015.81	0.001182
2025.45	0.001182
2035.1	0.001292
2044.74	0.001282
2054.38	0.001382
2064.03	0.001452
2073.67	0.001442
2083.32	0.001342
2092.96	0.001292
2102.61	0.001192
2112.25	0.0010187
2121.9	0.0009027
2131.54	0.0008392
2141.19	0.0008486
2150.83	0.0007792
2160.48	0.0008728
2170.12	0.0007927
2179.77	0.0006683
2189.41	0.0007422
2199.06	0.0006772
2208.7	0.0006509
2218.35	0.0006601
2227.99	0.0006115
2237.64	0.0005849
2247.28	0.0006141
2256.92	0.0005615
2266.57	0.0006077
2276.21	0.0005262
2285.86	0.0005253
2295.5	0.0006089
2305.15	0.0006933
2314.79	0.0007092
2324.44	0.0005892
2334.08	0.0005866
2343.73	0.0004669
2353.37	0.0004028
2363.02	0.0003637
2372.66	0.0004336
2382.31	0.0004722
2391.95	0.0004854
2401.6	0.0004437
2411.24	0.0004422
2420.89	0.0005829
2430.53	0.0005349
2440.18	0.0004304
2449.82	0.0004024
2459.47	0.0003509
2469.11	0.000356
2478.75	0.0004493
2488.4	0.0004101
2498.04	0.0002794
2507.69	0.0004069
2517.33	0.0004376
2526.98	0.0004035
2536.62	0.0003512
2546.27	0.0003998
2555.91	0.0004906
2565.56	0.000461
2575.2	0.0004899
2584.85	0.0004703
2594.49	0.0004751
2604.14	0.0004854
2613.78	0.0003978
2623.43	0.0004112
2633.07	0.0003288
2642.72	0.0004676
2652.36	0.0003739
2662.01	0.0004449
2671.65	0.0004251
2681.29	0.0005071
2690.94	0.0005226
2700.58	0.000444
2710.23	0.0004125
2719.87	0.0005128
2729.52	0.0005094
2739.16	0.0006682
2748.81	0.0006839
2758.45	0.0006254
2768.1	0.0005128
2777.74	0.0005243
2787.39	0.0006036
2797.03	0.0007016
2806.68	0.0007942
2816.32	0.0009623
2825.97	0.001053
2835.61	0.001232
2845.26	0.001672
2854.9	0.002042
2864.55	0.002842
2874.19	0.003282
2883.84	0.003362
2893.48	0.003442
2903.12	0.003922
2912.77	0.004222
2922.41	0.004942
2932.06	0.009152
2941.7	0.012542
2951.35	0.009592
2960.99	0.007472
2970.64	0.009522
2980.28	0.012002
2989.93	0.014992
2999.57	0.012482
3009.22	0.008312
3018.86	0.006502
3028.51	0.005142
3038.15	0.003962
3047.8	0.003362
3057.44	0.002952
3067.09	0.002312
3076.73	0.002082
3086.38	0.002092
3096.02	0.002822
3105.67	0.005102
3115.31	0.004982
3124.95	0.002082
3134.6	0.001202
3144.24	0.000853
3153.89	0.0007953
3163.53	0.0006701
3173.18	0.0003811
3182.82	0.0003106
3192.47	0.0005332
3202.11	0.0002748
3211.76	0.0004016
3221.4	0.00025511
3231.05	0.000276
3240.69	0.00024171
3250.34	0.00022936
3259.98	0.00026567
3269.63	0.0003844
3279.27	0.0003357
3288.92	0.0003063
3298.56	0.0004236
3308.21	0.0002785
3317.85	0.0002839
3327.49	0.0004012
3337.14	0.0002995
3346.78	0.0004303
3356.43	0.00024287
3366.07	0.00021221
3375.72	0.0005611
3385.36	0.0004742
3395.01	0.000406
3404.65	0.00038
3414.3	0.0003856
3423.94	0.0005799
3433.59	0.0005
3443.23	0.0005545
3452.88	0.000587
3462.52	0.0010576
3472.17	0.001252
3481.81	0.001282
3491.46	0.0010026
3501.1	0.0009581
3510.75	0.0011386
3520.39	0.001452
3530.04	0.0009507
3539.68	0.0009999
3549.32	0.0010012
3558.97	0.0009438
3568.61	0.001156
3578.26	0.0011116
3587.9	0.0010557
3597.55	0.000953
3607.19	0.000944
3616.84	0.0007776
3626.48	0.0004974
3636.13	0.0004738
3645.77	0.0003008
3655.42	0.00026901
3665.06	0.00025669
3674.71	0.00018377
3684.35	0.00019065
3694	0.0002911
3703.64	0.0001072
3713.29	0.00018303
3722.93	0.0001281
3732.58	0.0003809
3742.22	0.00018998
3751.86	0.00022819
3761.51	0.000283
3771.15	0.0004243
3780.8	0.00020426
3790.44	0.00024603
3800.09	0.00024049
3809.73	0.0003416
3819.38	0.0003074
3829.02	0.0001329
3838.67	0.0001254
3848.31	0.0001275
3857.96	0.00024954
3867.6	0.0001594
3877.25	0.0004097
3886.89	0.00022006
3896.54	0.00023429
3906.18	0.0002785
3915.83	0.0003589
3925.47	0.0005294
3935.12	0.0005582
3944.76	0.0005511
3954.41	0.0004755
3964.05	0.0004308
3973.69	0.0003322
3983.34	0.0006495
3992.98	0.0005866
