Infrared Spectrum: N,N-Dimethylbutyramide
Formula: C 6 H 13 N O
CAS: 760-79-2
State: gas
Origin: EPA-IR VAPOR PHASE LIBRARY
1/CM	ABSORBANCE
549.8	0.00022
559.445	0.0008992
569.09	0.0008889
578.734	0.001635
588.379	0.002005
598.024	0.001705
607.669	0.001595
617.313	0.0012033
626.958	0.0006399
636.603	0.0004862
646.248	0.0001564
655.893	0.0004122
665.537	0.0004511
675.182	0.00031085
684.827	0.00033446
694.472	0.0004369
704.116	0.0006067
713.761	0.0005087
723.406	0.0007976
733.051	0.000711
742.695	0.0007466
752.34	0.0009338
761.985	0.0009486
771.63	0.0007948
781.275	0.0007589
790.919	0.0007919
800.564	0.0009612
810.209	0.001385
819.854	0.001575
829.498	0.001235
839.143	0.0008329
848.788	0.0006019
858.433	0.0007786
868.078	0.0008801
877.722	0.0009487
887.367	0.001435
897.012	0.001735
906.657	0.001585
916.301	0.0008479
925.946	0.0011851
935.591	0.0009528
945.236	0.001915
954.88	0.002965
964.525	0.003145
974.17	0.002305
983.815	0.001595
993.46	0.001565
1003.1	0.002055
1012.75	0.002935
1022.39	0.004075
1032.04	0.006115
1041.68	0.008525
1051.33	0.011205
1060.97	0.012465
1070.62	0.013845
1080.26	0.014455
1089.91	0.012865
1099.55	0.010085
1109.2	0.007905
1118.84	0.008435
1128.49	0.011495
1138.13	0.016675
1147.78	0.021935
1157.42	0.022855
1167.07	0.018745
1176.71	0.013135
1186.36	0.008125
1196	0.004605
1205.64	0.003625
1215.29	0.003345
1224.93	0.003415
1234.58	0.004485
1244.22	0.006685
1253.87	0.010315
1263.51	0.012695
1273.16	0.011595
1282.8	0.008435
1292.45	0.006435
1302.09	0.006315
1311.74	0.008205
1321.38	0.010405
1331.03	0.011615
1340.67	0.011575
1350.32	0.012195
1359.96	0.015785
1369.61	0.024905
1379.25	0.038105
1388.9	0.047465
1398.54	0.043835
1408.18	0.032555
1417.83	0.022435
1427.47	0.016375
1437.12	0.016285
1446.76	0.021225
1456.41	0.025025
1466.05	0.024035
1475.7	0.019425
1485.34	0.015495
1494.99	0.012675
1504.63	0.011045
1514.28	0.009835
1523.92	0.009105
1533.57	0.008425
1543.21	0.007755
1552.86	0.006945
1562.5	0.006015
1572.15	0.005145
1581.79	0.004345
1591.44	0.003885
1601.08	0.003795
1610.73	0.003965
1620.37	0.005015
1630.01	0.006905
1639.66	0.009965
1649.3	0.017095
1658.95	0.035765
1668.59	0.075865
1678.24	0.110125
1687.88	0.106575
1697.53	0.058685
1707.17	0.021535
1716.82	0.009165
1726.46	0.005385
1736.11	0.003735
1745.75	0.002745
1755.4	0.002185
1765.04	0.001895
1774.69	0.001455
1784.33	0.001325
1793.98	0.001171
1803.62	0.0010372
1813.27	0.001016
1822.91	0.0008708
1832.55	0.0008532
1842.2	0.0006945
1851.84	0.0007282
1861.49	0.0006723
1871.13	0.0007599
1880.78	0.0007936
1890.42	0.000741
1900.07	0.000804
1909.71	0.0007057
1919.36	0.0007066
1929	0.000618
1938.65	0.0006307
1948.29	0.0006059
1957.94	0.0006005
1967.58	0.0006232
1977.23	0.0006624
1986.87	0.0006305
1996.52	0.000478
2006.16	0.0005279
2015.81	0.0005012
2025.45	0.0006485
2035.1	0.000658
2044.74	0.0006234
2054.38	0.0006169
2064.03	0.0006505
2073.67	0.0006776
2083.32	0.0007415
2092.96	0.0006841
2102.61	0.000671
2112.25	0.0007111
2121.9	0.0007278
2131.54	0.0006604
2141.19	0.0006732
2150.83	0.0006635
2160.48	0.0007406
2170.12	0.0007428
2179.77	0.00059
2189.41	0.0006646
2199.06	0.0007302
2208.7	0.0007898
2218.35	0.0006927
2227.99	0.0007688
2237.64	0.000571
2247.28	0.0005806
2256.92	0.000614
2266.57	0.0006215
2276.21	0.0006402
2285.86	0.0006385
2295.5	0.0006109
2305.15	0.0005486
2314.79	0.0006166
2324.44	0.0005797
2334.08	0.0005801
2343.73	0.0005902
2353.37	0.0005145
2363.02	0.0006319
2372.66	0.0005799
2382.31	0.0005804
2391.95	0.0005106
2401.6	0.0006077
2411.24	0.0007128
2420.89	0.0006287
2430.53	0.0005508
2440.18	0.0005142
2449.82	0.0006776
2459.47	0.0005736
2469.11	0.0006452
2478.75	0.0006566
2488.4	0.0006626
2498.04	0.0007494
2507.69	0.0007057
2517.33	0.0006825
2526.98	0.0007523
2536.62	0.0008442
2546.27	0.0007478
2555.91	0.0007758
2565.56	0.0008718
2575.2	0.0007725
2584.85	0.0008184
2594.49	0.0008488
2604.14	0.0007442
2613.78	0.0008871
2623.43	0.0007974
2633.07	0.0008253
2642.72	0.0009909
2652.36	0.0009539
2662.01	0.0009797
2671.65	0.0009461
2681.29	0.0011045
2690.94	0.0010363
2700.58	0.001335
2710.23	0.001255
2719.87	0.001325
2729.52	0.001585
2739.16	0.001745
2748.81	0.001995
2758.45	0.002185
2768.1	0.002585
2777.74	0.003215
2787.39	0.004085
2797.03	0.004995
2806.68	0.006175
2816.32	0.007115
2825.97	0.007965
2835.61	0.008975
2845.26	0.010555
2854.9	0.013055
2864.55	0.017175
2874.19	0.022715
2883.84	0.026175
2893.48	0.027535
2903.12	0.029005
2912.77	0.033225
2922.41	0.038645
2932.06	0.043465
2941.7	0.043225
2951.35	0.039925
2960.99	0.039065
2970.64	0.039175
2980.28	0.032365
2989.93	0.021195
2999.57	0.013995
3009.22	0.010765
3018.86	0.009425
3028.51	0.008705
3038.15	0.007645
3047.8	0.006095
3057.44	0.004875
3067.09	0.004085
3076.73	0.003365
3086.38	0.002805
3096.02	0.002335
3105.67	0.002085
3115.31	0.001875
3124.95	0.001535
3134.6	0.001405
3144.24	0.001255
3153.89	0.001335
3163.53	0.001096
3173.18	0.0009781
3182.82	0.0008664
3192.47	0.0009598
3202.11	0.0008011
3211.76	0.0007661
3221.4	0.0007605
3231.05	0.0005453
3240.69	0.0006387
3250.34	0.0005474
3259.98	0.0005498
3269.63	0.0006129
3279.27	0.0006855
3288.92	0.0006109
3298.56	0.0006758
3308.21	0.0007519
3317.85	0.0009783
3327.49	0.0011448
3337.14	0.001415
3346.78	0.001535
3356.43	0.001295
3366.07	0.0010037
3375.72	0.0007258
3385.36	0.0007618
3395.01	0.0004713
3404.65	0.00032096
3414.3	0.00028917
3423.94	0.0006462
3433.59	0.0002091
3443.23	0.0004005
3452.88	0.0005191
3462.52	0.00031624
3472.17	0.0004761
3481.81	0.00033446
3491.46	0.0004685
3501.1	0.0004036
3510.75	0.0003202
3520.39	0.0004726
3530.04	0.00024571
3539.68	0.0001744
3549.32	0.0005532
3558.97	0.0002135
3568.61	0.00032598
3578.26	0.00026389
3587.9	0.00032553
3597.55	0.0003672
3607.19	0.0001563
3616.84	0.00022782
3626.48	0.00029567
3636.13	0.0003698
3645.77	0.00030702
3655.42	0.00033362
3665.06	0.0005275
3674.71	0.0005814
3684.35	0.0004144
3694	0.0005471
3703.64	0.0005
3713.29	0.0006059
3722.93	0.0005064
3732.58	0.0003552
3742.22	0.00024667
3751.86	0.00029735
3761.51	0.0004138
3771.15	0.0003511
3780.8	0.0001873
3790.44	0.0005977
3800.09	0.0004697
3809.73	0.0004195
3819.38	0.0006728
3829.02	0.0008084
3838.67	0.0004318
3848.31	0.0004801
3857.96	0.0005643
3867.6	0.000449
3877.25	0.0005192
3886.89	0.0003541
3896.54	0.0005576
3906.18	0.0006814
3915.83	0.0005876
3925.47	0.0005683
3935.12	0.0006909
3944.76	0.0003946
3954.41	0.000353
3964.05	0.0006348
3973.69	0.0007342
3983.34	0.0005685
3992.98	0.0008829
