Infrared Spectrum: SUCCINIC ACID, BROMO-, DIMETHYL ESTER
Formula: C6 H9 Br O4
CAS: 760-90-7
State: LIQUID (NEAT)
Class: COBLENTZ III
Instrument: PERKIN-ELMER 21 (GRATING)
Instrument parameters: FILTER CHANGE AT ABOUT 1085 CM^-^1.
Sampling: TRANSMISSION
Path length: CAPILLARY
Resolution: 2
Origin: SOUTHERN RESEARCH INSTITUTE
1/CM	TRANSMITTANCE
554.839	0.791
563.093	0.791
571.346	0.792
579.6	0.792
587.853	0.792
596.107	0.7916
604.36	0.7753
612.614	0.774
620.867	0.778
629.121	0.7905
637.374	0.7989
645.628	0.8149
653.881	0.83
662.135	0.8247
670.388	0.8181
678.642	0.8322
686.895	0.8705
695.149	0.8861
703.402	0.889
711.656	0.8801
719.909	0.8789
728.163	0.885
736.416	0.8804
744.67	0.8673
752.923	0.8643
761.177	0.8559
769.43	0.8369
777.684	0.8125
785.937	0.8149
794.191	0.8082
802.444	0.7887
810.698	0.8041
818.951	0.8182
827.205	0.8138
835.458	0.8049
843.712	0.7718
851.965	0.6989
860.219	0.6289
868.472	0.727
876.726	0.7297
884.979	0.768
893.233	0.7545
901.486	0.7013
909.74	0.7399
917.993	0.771
926.247	0.7595
934.5	0.7405
942.754	0.7172
951.007	0.7223
959.261	0.7237
967.514	0.6918
975.768	0.6974
984.021	0.6714
992.275	0.565
1000.53	0.5019
1008.78	0.4738
1017.04	0.5251
1025.29	0.5727
1033.54	0.5958
1041.8	0.6805
1050.05	0.728
1058.3	0.728
1066.56	0.728
1074.81	0.7245
1083.06	0.7067
1091.32	0.693
1099.57	0.7054
1107.82	0.7189
1116.08	0.7145
1124.33	0.6995
1132.58	0.6661
1140.84	0.5897
1149.09	0.4019
1157.35	0.3024
1165.6	0.2205
1173.85	0.1933
1182.11	0.2859
1190.36	0.3532
1198.61	0.3396
1206.87	0.34
1215.12	0.2956
1223.37	0.2641
1231.63	0.3027
1239.88	0.325
1248.13	0.3162
1256.39	0.306
1264.64	0.3038
1272.89	0.3
1281.15	0.3135
1289.4	0.3394
1297.65	0.407
1305.91	0.3941
1314.16	0.2981
1322.42	0.331
1330.67	0.4408
1338.92	0.4158
1347.18	0.3104
1355.43	0.3377
1363.68	0.4394
1371.94	0.426
1380.19	0.4415
1388.44	0.5166
1396.7	0.6074
1404.95	0.6164
1413.2	0.5647
1421.46	0.5182
1429.71	0.581
1437.96	0.5714
1446.22	0.3116
1454.47	0.3081
1462.72	0.4836
1470.98	0.5415
1479.23	0.5948
1487.49	0.6583
1495.74	0.6761
1503.99	0.6896
1512.25	0.697
1520.5	0.7015
1528.75	0.704
1537.01	0.707
1545.26	0.7049
1553.51	0.704
1561.77	0.706
1570.02	0.7064
1578.27	0.707
1586.53	0.704
1594.78	0.703
1603.03	0.699
1611.29	0.695
1619.54	0.693
1627.79	0.693
1636.05	0.7008
1644.3	0.704
1652.56	0.7004
1660.81	0.695
1669.06	0.693
1677.32	0.6746
1685.57	0.6507
1693.82	0.6303
1702.08	0.5584
1710.33	0.5375
1718.58	0.4162
1726.84	0.2747
1735.09	0.0918
1743.34	0.0631
1751.6	0.081
1759.85	0.1177
1768.1	0.2967
1776.36	0.4882
1784.61	0.5674
1792.87	0.6092
1801.12	0.6283
1809.37	0.6502
1817.63	0.6615
1825.88	0.67
1834.13	0.6734
1842.39	0.6764
1850.64	0.674
1858.89	0.6768
1867.15	0.681
1875.4	0.681
1883.65	0.6851
1891.91	0.689
1900.16	0.689
1908.41	0.69
1916.67	0.6891
1924.92	0.6882
1933.17	0.6837
1941.43	0.6864
1949.68	0.6913
1957.94	0.687
1966.19	0.688
1974.44	0.6885
1982.7	0.688
1990.95	0.6894
1999.2	0.6877
2007.46	0.685
2015.71	0.688
2023.96	0.6874
2032.22	0.682
2040.47	0.682
2048.72	0.686
2056.98	0.687
2065.23	0.681
2073.48	0.683
2081.74	0.682
2089.99	0.681
2098.24	0.682
2106.5	0.6763
2114.75	0.676
2123.01	0.6803
2131.26	0.6836
2139.51	0.685
2147.77	0.686
2156.02	0.686
2164.27	0.687
2172.53	0.6893
2180.78	0.69
2189.03	0.688
2197.29	0.688
2205.54	0.6883
2213.79	0.6906
2222.05	0.6874
2230.3	0.683
2238.55	0.683
2246.81	0.6836
2255.06	0.6867
2263.32	0.687
2271.57	0.6836
2279.82	0.68
2288.08	0.682
2296.33	0.68
2304.58	0.677
2312.84	0.6767
2321.09	0.676
2329.34	0.674
2337.6	0.6757
2345.85	0.673
2354.1	0.673
2362.36	0.673
2370.61	0.6757
2378.86	0.679
2387.12	0.68
2395.37	0.68
2403.62	0.681
2411.88	0.676
2420.13	0.676
2428.39	0.681
2436.64	0.681
2444.89	0.676
2453.15	0.68
2461.4	0.6727
2469.65	0.673
2477.91	0.673
2486.16	0.6733
2494.41	0.6747
2502.67	0.676
2510.92	0.673
2519.17	0.6747
2527.43	0.673
2535.68	0.674
2543.93	0.6757
2552.19	0.675
2560.44	0.675
2568.69	0.672
2576.95	0.672
2585.2	0.674
2593.46	0.6744
2601.71	0.67
2609.96	0.67
2618.22	0.67
2626.47	0.674
2634.72	0.668
2642.98	0.667
2651.23	0.674
2659.48	0.674
2667.74	0.669
2675.99	0.674
2684.24	0.6733
2692.5	0.6747
2700.75	0.6727
2709	0.668
2717.26	0.67
2725.51	0.669
2733.76	0.672
2742.02	0.6706
2750.27	0.672
2758.53	0.6657
2766.78	0.663
2775.03	0.663
2783.29	0.665
2791.54	0.665
2799.79	0.662
2808.05	0.6617
2816.3	0.6554
2824.55	0.6477
2832.81	0.646
2841.06	0.639
2849.31	0.635
2857.57	0.6343
2865.82	0.6426
2874.07	0.6443
2882.33	0.644
2890.58	0.637
2898.84	0.6267
2907.09	0.62
2915.34	0.6164
2923.6	0.6117
2931.85	0.6007
2940.1	0.5831
2948.36	0.5524
2956.61	0.52
2964.86	0.515
2973.12	0.5462
2981.37	0.581
2989.62	0.5824
2997.88	0.5727
3006.13	0.571
3014.38	0.572
3022.64	0.577
3030.89	0.5783
3039.14	0.586
3047.4	0.591
3055.65	0.6053
3063.91	0.6193
3072.16	0.6296
3080.41	0.635
3088.67	0.6356
3096.92	0.637
3105.17	0.639
3113.43	0.64
3121.68	0.641
3129.93	0.64
3138.19	0.6403
3146.44	0.6426
3154.69	0.649
3162.95	0.6377
3171.2	0.6337
3179.45	0.6356
3187.71	0.6434
3195.96	0.641
3204.21	0.64
3212.47	0.64
3220.72	0.64
3228.98	0.64
3237.23	0.641
3245.48	0.6387
3253.74	0.638
3261.99	0.639
3270.24	0.64
3278.5	0.644
3286.75	0.64
3295	0.637
3303.26	0.635
3311.51	0.637
3319.76	0.637
3328.02	0.635
3336.27	0.634
3344.52	0.632
3352.78	0.6317
3361.03	0.629
3369.29	0.629
3377.54	0.629
3385.79	0.629
3394.05	0.6313
3402.3	0.6343
3410.55	0.637
3418.81	0.6347
3427.06	0.631
3435.31	0.6257
3443.57	0.6177
3451.82	0.615
3460.07	0.614
3468.33	0.6156
3476.58	0.6203
3484.83	0.62
3493.09	0.6203
3501.34	0.6273
3509.59	0.632
3517.85	0.632
3526.1	0.632
3534.36	0.632
3542.61	0.632
3550.86	0.631
3559.12	0.6287
3567.37	0.629
3575.62	0.629
3583.88	0.629
3592.13	0.629
3600.38	0.631
3608.64	0.631
3616.89	0.631
3625.14	0.631
3633.4	0.6257
3641.65	0.6217
3649.9	0.621
3658.16	0.6226
3666.41	0.6253
3674.66	0.628
3682.92	0.626
3691.17	0.628
3699.43	0.633
3707.68	0.635
3715.93	0.6373
3724.19	0.6393
3732.44	0.64
3740.69	0.641
3748.95	0.641
3757.2	0.639
3765.45	0.634
3773.71	0.634
3781.96	0.637
3790.21	0.6443
3798.47	0.6463
3806.72	0.648
