Infrared Spectrum: TRIFLUOROACETYLUREA
Formula: C3 H3 F3 N2 O2
CAS: 760-41-8
State: SOLID (NUJOL MULL)
Class: COBLENTZ
Instrument: PERKIN-ELMER
Sampling: TRANSMISSION
Resolution: 4
Origin: ABBOTT LABORATORIES - WASHBURN
MICROMETERS	TRANSMITTANCE
1.992	0.789
2.02634	0.791
2.06068	0.786
2.09502	0.7808
2.12936	0.7841
2.1637	0.793
2.19804	0.798
2.23238	0.794
2.26672	0.7976
2.30106	0.781
2.3354	0.7819
2.36974	0.775
2.40408	0.774
2.43842	0.782
2.47276	0.793
2.5071	0.794
2.54144	0.7961
2.57578	0.8083
2.61012	0.82
2.64446	0.817
2.6788	0.815
2.71314	0.824
2.74748	0.8181
2.78182	0.8173
2.81616	0.808
2.8505	0.796
2.88484	0.7372
2.91918	0.6273
2.95352	0.3785
2.98786	0.2757
3.0222	0.2617
3.05654	0.281
3.09088	0.277
3.12522	0.3178
3.15956	0.3608
3.1939	0.4582
3.22824	0.5502
3.26258	0.6132
3.29692	0.6549
3.33126	0.6461
3.3656	0.504
3.39994	0.1508
3.43428	0.0499
3.46862	0.0204
3.50296	0.079
3.5373	0.1029
3.57164	0.4769
3.60598	0.6837
3.64032	0.7314
3.67466	0.756
3.709	0.76
3.74334	0.763
3.77768	0.762
3.81202	0.7674
3.84636	0.7771
3.8807	0.7871
3.91504	0.803
3.94938	0.82
3.98372	0.8239
4.01806	0.825
4.0524	0.827
4.08674	0.8272
4.12108	0.829
4.15542	0.834
4.18976	0.834
4.2241	0.8359
4.25844	0.855
4.29278	0.8507
4.32712	0.848
4.36146	0.834
4.3958	0.8339
4.43014	0.832
4.46448	0.8321
4.49882	0.8341
4.53316	0.8361
4.5675	0.834
4.60184	0.836
4.63618	0.8409
4.67052	0.843
4.70486	0.8407
4.7392	0.8341
4.77354	0.836
4.80788	0.839
4.84222	0.8341
4.87656	0.831
4.9109	0.827
4.94524	0.829
4.97958	0.829
5.01392	0.82
5.04826	0.812
5.0826	0.82
5.11694	0.808
5.15128	0.81
5.18562	0.8013
5.21996	0.7859
5.2543	0.7719
5.28864	0.7511
5.32298	0.744
5.35732	0.741
5.39166	0.718
5.426	0.6913
5.46034	0.6654
5.49468	0.66
5.52902	0.6341
5.56336	0.5984
5.5977	0.5813
5.63204	0.544
5.66638	0.5144
5.70072	0.4623
5.73506	0.4029
5.7694	0.23
5.80374	0.1841
5.83808	0.2998
5.87242	0.277
5.90676	0.2015
5.9411	0.1018
5.97544	0.1081
6.00978	0.152
6.04412	0.2089
6.07846	0.2596
6.1128	0.247
6.14714	0.2153
6.18148	0.3395
6.21582	0.439
6.25016	0.401
6.2845	0.4613
6.31884	0.4991
6.35318	0.5359
6.38752	0.5525
6.42186	0.5947
6.4562	0.6106
6.49054	0.6324
6.52488	0.6381
6.55922	0.631
6.59356	0.5832
6.6279	0.4242
6.66224	0.4357
6.69658	0.4747
6.73092	0.4835
6.76526	0.4804
6.7996	0.4611
6.83394	0.3624
6.86828	0.2292
6.90262	0.2304
6.93696	0.2794
6.9713	0.3276
7.00564	0.3706
7.03998	0.386
7.07432	0.3638
7.10866	0.3085
7.143	0.3222
7.17734	0.3638
7.21168	0.4144
7.24602	0.3849
7.28036	0.2945
7.3147	0.2479
7.34904	0.3203
7.38338	0.3853
7.41772	0.4465
7.45206	0.4671
7.4864	0.476
7.52074	0.4936
7.55508	0.4495
7.58942	0.3479
7.62375	0.3127
7.65809	0.4069
7.69243	0.4723
7.72677	0.5056
7.76111	0.5413
7.79545	0.5548
7.82979	0.57
7.86413	0.5807
7.89847	0.584
7.93281	0.584
7.96715	0.5828
8.00149	0.5689
8.03583	0.568
8.07017	0.5674
8.10451	0.5384
8.13885	0.5007
8.17319	0.4542
8.20753	0.3799
8.24187	0.3072
8.27621	0.2338
8.31055	0.137
8.34489	0.1043
8.37923	0.065
8.41357	0.0675
8.44791	0.0904
8.48225	0.1172
8.51659	0.1388
8.55093	0.1254
8.58527	0.1145
8.61961	0.1094
8.65395	0.1866
8.68829	0.2871
8.72263	0.3658
8.75697	0.4363
8.79131	0.485
8.82565	0.532
8.85999	0.5584
8.89433	0.5941
8.92867	0.6278
8.96301	0.657
8.99735	0.6643
9.03169	0.6388
9.06603	0.4381
9.10037	0.2303
9.13471	0.1658
9.16905	0.321
9.20339	0.4326
9.23773	0.4976
9.27207	0.5496
9.30641	0.5856
9.34075	0.6135
9.37509	0.6342
9.40943	0.6642
9.44377	0.6757
9.47811	0.685
9.51245	0.7
9.54679	0.7036
9.58113	0.7085
9.61547	0.715
9.64981	0.715
9.68415	0.7213
9.71849	0.7313
9.75283	0.734
9.78717	0.7346
9.82151	0.734
9.85585	0.7379
9.89019	0.746
9.92453	0.7484
9.95887	0.758
9.99321	0.7658
10.0276	0.775
10.0619	0.7785
10.0962	0.7794
10.1306	0.782
10.1649	0.7837
10.1993	0.7787
10.2336	0.777
10.2679	0.7765
10.3023	0.7736
10.3366	0.7678
10.371	0.763
10.4053	0.757
10.4396	0.7322
10.474	0.6491
10.5083	0.4664
10.5427	0.42
10.577	0.4996
10.6113	0.5945
10.6457	0.6452
10.68	0.6913
10.7144	0.7151
10.7487	0.7362
10.783	0.745
10.8174	0.76
10.8517	0.7722
10.8861	0.7772
10.9204	0.781
10.9547	0.782
10.9891	0.784
11.0234	0.789
11.0578	0.8001
11.0921	0.8001
11.1264	0.7978
11.1608	0.7909
11.1951	0.789
11.2295	0.7909
11.2638	0.793
11.2981	0.8009
11.3325	0.801
11.3668	0.8082
11.4012	0.812
11.4355	0.8181
11.4698	0.82
11.5042	0.817
11.5385	0.82
11.5729	0.8203
11.6072	0.8238
11.6415	0.824
11.6759	0.82
11.7102	0.82
11.7446	0.817
11.7789	0.808
11.8132	0.8098
11.8476	0.8062
11.8819	0.806
11.9163	0.81
11.9506	0.808
11.9849	0.805
12.0193	0.8056
12.0536	0.8032
12.088	0.8001
12.1223	0.7893
12.1566	0.781
12.191	0.775
12.2253	0.7753
12.2597	0.763
12.294	0.758
12.3283	0.748
12.3627	0.7369
12.397	0.7191
12.4314	0.7089
12.4657	0.6824
12.5	0.6635
12.5344	0.6344
12.5687	0.6033
12.6031	0.5795
12.6374	0.5622
12.6717	0.5731
12.7061	0.6021
12.7404	0.6418
12.7748	0.6835
12.8091	0.6931
12.8434	0.7
12.8778	0.6932
12.9121	0.6383
12.9465	0.5582
12.9808	0.518
13.0151	0.5541
13.0495	0.6227
13.0838	0.6885
13.1182	0.7007
13.1525	0.716
13.1868	0.7214
13.2212	0.7226
13.2555	0.722
13.2898	0.717
13.3242	0.7075
13.3585	0.6903
13.3929	0.6796
13.4272	0.6609
13.4615	0.639
13.4959	0.6173
13.5302	0.5765
13.5646	0.5247
13.5989	0.4573
13.6332	0.4214
13.6676	0.445
13.7019	0.4586
13.7363	0.467
13.7706	0.4645
13.8049	0.4638
13.8393	0.46
13.8736	0.46
13.908	0.446
13.9423	0.446
13.9766	0.4378
14.011	0.4314
14.0453	0.425
14.0797	0.42
14.114	0.4257
14.1483	0.4383
14.1827	0.4556
14.217	0.4703
14.2514	0.4983
14.2857	0.5175
14.32	0.5326
14.3544	0.54
14.3887	0.55
14.4231	0.5612
14.4574	0.5642
14.4917	0.563
14.5261	0.5609
14.5604	0.554
14.5948	0.546
14.6291	0.5342
14.6634	0.5246
14.6978	0.5039
14.7321	0.4919
14.7665	0.4755
14.8008	0.451
14.8351	0.4356
14.8695	0.4157
14.9038	0.4018
14.9382	0.3882
14.9725	0.378
15.0068	0.372
15.0412	0.3779
15.0755	0.3711
15.1099	0.3592
15.1442	0.3492
15.1785	0.3517
15.2129	0.355
15.2472	0.36
15.2816	0.362
15.3159	0.3663
15.3502	0.372
15.3846	0.377
15.4189	0.3864
