Infrared Spectrum: Ethyl 5-bromo-2-chlorobenzoate
Formula: C 9 H 8 Br Cl O 2
CAS: 76008-73-6
State: gas
Origin: EPA-IR VAPOR PHASE LIBRARY
1/CM	ABSORBANCE
549.8	0.004841
559.445	0.005991
569.09	0.008561
578.735	0.010101
588.38	0.006131
598.025	0.003311
607.67	0.002291
617.315	0.002031
626.96	0.001546
636.605	0.0011255
646.251	0.001462
655.896	0.005131
665.541	0.006851
675.186	0.002931
684.831	0.002841
694.476	0.003031
704.121	0.002721
713.766	0.002451
723.411	0.002971
733.056	0.005631
742.701	0.016881
752.346	0.014321
761.991	0.007791
771.636	0.010331
781.281	0.012331
790.926	0.010271
800.571	0.012001
810.216	0.035471
819.861	0.038851
829.507	0.011011
839.152	0.007251
848.797	0.008621
858.442	0.012511
868.087	0.013381
877.732	0.018541
887.377	0.021271
897.022	0.015391
906.667	0.007211
916.312	0.003811
925.957	0.003031
935.602	0.002921
945.247	0.003491
954.892	0.003831
964.537	0.004181
974.182	0.004951
983.827	0.006721
993.472	0.011391
1003.12	0.024391
1012.76	0.046911
1022.41	0.043331
1032.05	0.036371
1041.7	0.057471
1051.34	0.092021
1060.99	0.075251
1070.63	0.035171
1080.28	0.041511
1089.92	0.063161
1099.57	0.058991
1109.21	0.089441
1118.86	0.130891
1128.5	0.128271
1138.15	0.086601
1147.79	0.058331
1157.44	0.032351
1167.08	0.026361
1176.73	0.027421
1186.37	0.028701
1196.02	0.031991
1205.66	0.041901
1215.31	0.070951
1224.95	0.140831
1234.6	0.210151
1244.24	0.132361
1253.89	0.083451
1263.53	0.143771
1273.18	0.289821
1282.82	0.253641
1292.47	0.096211
1302.11	0.047191
1311.76	0.028281
1321.4	0.017641
1331.05	0.012011
1340.69	0.010141
1350.34	0.011241
1359.98	0.018701
1369.63	0.035571
1379.27	0.060921
1388.92	0.050291
1398.56	0.036851
1408.21	0.026441
1417.85	0.017611
1427.5	0.016121
1437.14	0.019741
1446.79	0.033521
1456.43	0.064851
1466.08	0.065561
1475.73	0.033751
1485.37	0.014481
1495.02	0.007521
1504.66	0.005351
1514.31	0.004591
1523.95	0.004541
1533.6	0.005441
1543.24	0.007791
1552.89	0.011131
1562.53	0.008741
1572.18	0.007081
1581.82	0.008541
1591.47	0.006931
1601.11	0.005081
1610.76	0.004461
1620.4	0.005171
1630.05	0.006531
1639.69	0.005011
1649.34	0.004061
1658.98	0.004351
1668.63	0.005171
1678.27	0.006261
1687.92	0.008271
1697.56	0.012231
1707.21	0.019601
1716.85	0.035061
1726.5	0.066021
1736.14	0.117771
1745.79	0.147911
1755.43	0.155781
1765.08	0.097251
1774.72	0.044531
1784.37	0.020801
1794.01	0.011341
1803.66	0.007041
1813.3	0.004921
1822.95	0.004111
1832.59	0.003781
1842.24	0.003461
1851.88	0.003041
1861.53	0.002691
1871.17	0.002621
1880.82	0.003171
1890.46	0.004411
1900.11	0.004101
1909.75	0.002551
1919.4	0.001951
1929.04	0.0016717
1938.69	0.0015202
1948.33	0.0014679
1957.98	0.0014807
1967.62	0.0016439
1977.27	0.0017408
1986.91	0.0017943
1996.56	0.0017182
2006.2	0.0014454
2015.85	0.0013107
2025.49	0.0012725
2035.14	0.001219
2044.78	0.0012126
2054.43	0.0012225
2064.07	0.0012191
2073.72	0.0013495
2083.36	0.0015185
2093.01	0.0017262
2102.65	0.0016332
2112.3	0.0014703
2121.94	0.0014436
2131.59	0.0014596
2141.23	0.0013377
2150.88	0.0013171
2160.52	0.0010017
2170.17	0.0009584
2179.81	0.00080874
2189.46	0.000756
2199.1	0.0007991
2208.75	0.0007397
2218.39	0.000815428
2228.04	0.00083323
2237.68	0.00091028
2247.33	0.0009969
2256.97	0.0009861
2266.62	0.0010649
2276.26	0.0010934
2285.91	0.00117
2295.55	0.0009639
2305.2	0.0009706
2314.84	0.00087593
2324.49	0.0009132
2334.13	0.0010227
2343.78	0.0011181
2353.42	0.0009748
2363.07	0.0009595
2372.72	0.0010598
2382.36	0.0009652
2392.01	0.0010997
2401.65	0.0010085
2411.3	0.0009859
2420.94	0.0008357
2430.59	0.0007425
2440.23	0.000622
2449.88	0.000597
2459.52	0.000589
2469.17	0.000654
2478.81	0.000651
2488.46	0.000695
2498.1	0.000675
2507.75	0.000709
2517.39	0.0007177
2527.04	0.000645
2536.68	0.000591
2546.33	0.000481
2555.97	0.000403
2565.62	0.000329
2575.26	0.000376
2584.91	0.000465
2594.55	0.000414
2604.2	0.000499
2613.84	0.000472
2623.49	0.000546
2633.13	0.00047
2642.78	0.00037
2652.42	0.000306
2662.07	0.000448
2671.71	0.000416
2681.36	0.000319
2691	0.000364
2700.65	0.000375
2710.29	0.000245
2719.94	0.000269
2729.58	0.000437
2739.23	0.000427
2748.87	0.000438
2758.52	0.000451
2768.16	0.000689
2777.81	0.00090379
2787.45	0.0010616
2797.1	0.0009871
2806.74	0.0012436
2816.39	0.0014846
2826.03	0.0016977
2835.68	0.001881
2845.32	0.001951
2854.97	0.002381
2864.61	0.002961
2874.26	0.004241
2883.9	0.006451
2893.55	0.006821
2903.19	0.008001
2912.84	0.009661
2922.48	0.009601
2932.13	0.011711
2941.77	0.018861
2951.42	0.018491
2961.06	0.015451
2970.71	0.020981
2980.35	0.034711
2990	0.042791
2999.64	0.024961
3009.29	0.016661
3018.93	0.010081
3028.58	0.005741
3038.22	0.003551
3047.87	0.002401
3057.51	0.002121
3067.16	0.002751
3076.8	0.003931
3086.45	0.002671
3096.09	0.001861
3105.74	0.0013433
3115.38	0.00118
3125.03	0.0011339
3134.67	0.00080753
3144.32	0.00087417
3153.96	0.00082189
3163.61	0.000585
3173.25	0.000611
3182.9	0.000565
3192.54	0.00053
3202.19	0.000341
3211.83	0.000343
3221.48	0.000106
3231.12	0.000203
3240.77	0.000235
3250.41	0.000263
3260.06	0.000148
3269.7	0.000194
3279.35	0.00011
3289	0.000102
3298.64	6.7e-05
3308.29	0.000252
3317.93	0.000236
3327.58	0.000137
3337.22	0.000295
3346.87	0.000323
3356.51	0.000265
3366.16	0.000429
3375.8	0.000283
3385.45	0.000381
3395.09	0.000436
3404.74	0.000476
3414.38	0.000455
3424.03	0.00063
3433.67	0.00086476
3443.32	0.0011388
3452.96	0.001138
3462.61	0.0013591
3472.25	0.0012742
3481.9	0.0016011
3491.54	0.0016575
3501.19	0.0011849
3510.83	0.00086358
3520.48	0.000653
3530.12	0.000635
3539.77	0.000555
3549.41	0.000523
3559.06	0.000685
3568.7	0.000604
3578.35	0.000493
3587.99	0.00052
3597.64	0.000306
3607.28	0.000493
3616.93	0.000576
3626.57	0.000364
3636.22	0.000364
3645.86	0.000519
3655.51	0.000691
3665.15	0.000644
3674.8	0.000413
3684.44	0.000682
3694.09	0.00054
3703.73	0.000485
3713.38	0.0007892
3723.02	0.000609
3732.67	0.00080346
3742.31	0.0009046
3751.96	0.00088209
3761.6	0.000722
3771.25	0.00064
3780.89	0.000603
3790.54	0.000422
3800.18	0.000573
3809.83	0.0008096
3819.47	0.000629
3829.12	0.0007187
3838.76	0.0007648
3848.41	0.0008232
3858.05	0.0007737
3867.7	0.000657
3877.34	0.000571
3886.99	0.000676
3896.63	0.000605
3906.28	0.000531
3915.92	0.000496
3925.57	0.000525
3935.21	0.000579
3944.86	0.0007654
3954.5	0.0007342
3964.15	0.00080606
3973.79	0.0007132
3983.44	0.000654
3993.08	0.00064
