Infrared Spectrum: Piperidine, 4-(3-phenylpropyl)-, hydrochloride
Formula: C14 H22 Cl N
CAS: 76000-08-3
State: SOLID (KBr DISC, 0.8, 0.2% WT.)
Class: COBLENTZ III
Instrument: PERKIN-ELMER 157
Sampling: TRANSMISSION
Resolution: 2
Origin: BRITISH PETROLEUM CO. LTD., ENGLAND
1/CM	TRANSMITTANCE
668	0.9268
677	0.8476
686	0.6696
695	0.1423
704	0.5448
713	0.8007
722	0.4293
731	0.3679
740	0.101
749	0.6618
758	0.8698
767	0.8858
776	0.8671
785	0.7967
794	0.8789
803	0.8463
812	0.695
821	0.8359
830	0.8655
839	0.8456
848	0.7779
857	0.7511
866	0.822
875	0.8202
884	0.7946
893	0.6973
902	0.7747
911	0.6156
920	0.4176
929	0.3851
938	0.7036
947	0.7243
956	0.5568
965	0.7708
974	0.7449
983	0.6594
992	0.3533
1001	0.7587
1010	0.7942
1019	0.7647
1028	0.4299
1037	0.5528
1046	0.6912
1055	0.6547
1064	0.4639
1073	0.4332
1082	0.7854
1091	0.7728
1100	0.6641
1109	0.7617
1118	0.7087
1127	0.6864
1136	0.7609
1145	0.7333
1154	0.6981
1163	0.724
1172	0.6748
1181	0.6935
1190	0.7448
1199	0.7294
1208	0.7367
1217	0.7047
1226	0.7015
1235	0.7076
1244	0.6894
1253	0.6238
1262	0.6145
1271	0.6467
1280	0.6889
1289	0.663
1298	0.6684
1307	0.6038
1316	0.5352
1325	0.6429
1334	0.6166
1343	0.5626
1352	0.4332
1361	0.5173
1370	0.4796
1379	0.2862
1388	0.4935
1397	0.5536
1406	0.5095
1415	0.4278
1424	0.3152
1433	0.2138
1442	0.1642
1451	0.0837
1460	0.3668
1469	0.3894
1478	0.5406
1487	0.3883
1496	0.2399
1505	0.6157
1514	0.6423
1523	0.6429
1532	0.6443
1541	0.6338
1550	0.6281
1559	0.5934
1568	0.5155
1577	0.3254
1586	0.1663
1595	0.4982
1604	0.4471
1613	0.6948
1622	0.6955
1631	0.6952
1640	0.6952
1649	0.6955
1658	0.6958
1667	0.6959
1676	0.696
1685	0.6959
1694	0.6955
1703	0.6952
1712	0.6949
1721	0.6947
1730	0.6946
1739	0.6929
1748	0.6831
1757	0.6661
1766	0.6585
1775	0.6577
1784	0.6573
1793	0.644
1802	0.6152
1811	0.6147
1820	0.6331
1829	0.6333
1838	0.6328
1847	0.6318
1856	0.6299
1865	0.6206
1874	0.6079
1883	0.6078
1892	0.6072
1901	0.608
1910	0.602
1919	0.5917
1928	0.574
1937	0.5445
1946	0.5567
1955	0.5934
1964	0.6079
1973	0.6214
1982	0.6222
1991	0.6219
2000	0.6199
2009	0.6078
2018	0.5978
2027	0.5968
2036	0.5968
2045	0.5956
2054	0.5866
2063	0.5806
2072	0.5807
2081	0.5808
2090	0.5816
2099	0.5805
2108	0.575
2117	0.5668
2126	0.5531
2135	0.5144
2144	0.4807
2153	0.4661
2162	0.4677
2171	0.4965
2180	0.5294
2189	0.5417
2198	0.5418
2207	0.5335
2216	0.5256
2225	0.5184
2234	0.5106
2243	0.5045
2252	0.5017
2261	0.5002
2270	0.4976
2279	0.4927
2288	0.4824
2297	0.4707
2306	0.4612
2315	0.4504
2324	0.4392
2333	0.4278
2342	0.4151
2351	0.3992
2360	0.3727
2369	0.3572
2378	0.3499
2387	0.3446
2396	0.3222
2405	0.3036
2414	0.2983
2423	0.2881
2432	0.2442
2441	0.2048
2450	0.211
2459	0.2165
2468	0.1882
2477	0.15
2486	0.112
2495	0.09
2504	0.1098
2513	0.1928
2522	0.2204
2531	0.2186
2540	0.2065
2549	0.1936
2558	0.1821
2567	0.1813
2576	0.1906
2585	0.1972
2594	0.1967
2603	0.1609
2612	0.1354
2621	0.1236
2630	0.1224
2639	0.1235
2648	0.1229
2657	0.1129
2666	0.0945
2675	0.0762
2684	0.058
2693	0.0426
2702	0.0359
2711	0.0336
2720	0.0333
2729	0.0333
2738	0.0333
2747	0.0337
2756	0.0341
2765	0.0342
2774	0.0332
2783	0.0291
2792	0.0226
2801	0.0185
2810	0.0176
2819	0.0203
2828	0.0237
2837	0.0276
2846	0.0321
2855	0.0376
2864	0.042
2873	0.0431
2882	0.0429
2891	0.0398
2900	0.0291
2909	0.0206
2918	0.017
2927	0.017
2936	0.0199
2945	0.0248
2954	0.0261
2963	0.0268
2972	0.0288
2981	0.0379
2990	0.0702
2999	0.0827
3008	0.0993
3017	0.1642
3026	0.2192
3035	0.2532
3044	0.287
3053	0.3185
3062	0.3408
3071	0.3629
3080	0.3854
3089	0.4113
3098	0.4268
3107	0.4366
3116	0.4449
3125	0.4467
3134	0.4444
3143	0.4413
3152	0.4408
3161	0.4606
3170	0.4837
3179	0.4978
3188	0.5011
3197	0.5062
3206	0.5108
3215	0.5109
3224	0.5108
3233	0.5102
3242	0.5091
3251	0.5077
3260	0.5057
3269	0.5032
3278	0.5006
3287	0.4975
3296	0.4941
3305	0.4907
3314	0.487
3323	0.483
3332	0.4795
3341	0.4762
3350	0.4729
3359	0.4696
3368	0.4664
3377	0.4632
3386	0.4602
3395	0.4576
3404	0.4553
3413	0.4529
3422	0.4506
3431	0.4488
3440	0.4471
3449	0.4455
3458	0.4438
3467	0.4431
3476	0.4427
3485	0.4424
3494	0.4421
3503	0.4417
3512	0.4414
3521	0.4411
3530	0.441
3539	0.441
3548	0.4409
3557	0.4409
3566	0.4408
3575	0.4406
3584	0.4401
3593	0.439
3602	0.4359
3611	0.4331
3620	0.4306
3629	0.4282
3638	0.4263
3647	0.4244
3656	0.4237
3665	0.423
3674	0.4224
3683	0.4216
3692	0.4195
3701	0.4174
3710	0.4155
3719	0.4137
3728	0.412
3737	0.4102
3746	0.4087
3755	0.4074
3764	0.406
3773	0.4046
3782	0.4033
3791	0.402
3800	0.4008
3809	0.3995
3818	0.3975
3827	0.3943
3836	0.3907
3845	0.387
3854	0.3837
3863	0.3807
3872	0.3777
3881	0.3752
3890	0.3731
3899	0.3709
3908	0.3689
3917	0.3674
3926	0.366
3935	0.3648
3944	0.3641
3953	0.3634
3962	0.3629
3971	0.3625
3980	0.3621
3989	0.3617
3998	0.3615
