Infrared Spectrum: Phenylsulphonylacetonitrile
Formula: C 8 H 7 N O 2 S
CAS: 7605-28-9
State: gas
Origin: EPA-IR VAPOR PHASE LIBRARY
1/CM	ABSORBANCE
549.9	0.006228
559.547	0.009218
569.193	0.019408
578.84	0.025268
588.486	0.016028
598.133	0.008748
607.779	0.007998
617.426	0.004958
627.072	0.002528
636.719	0.001968
646.365	0.002178
656.012	0.002858
665.658	0.004748
675.305	0.010168
684.951	0.018358
694.598	0.014348
704.245	0.008588
713.891	0.009348
723.538	0.013668
733.184	0.028038
742.831	0.034398
752.477	0.017248
762.124	0.015278
771.77	0.012358
781.417	0.006408
791.063	0.003708
800.71	0.002488
810.356	0.001968
820.003	0.001818
829.649	0.001948
839.296	0.002488
848.943	0.004938
858.589	0.011548
868.236	0.016518
877.882	0.010118
887.529	0.003218
897.175	0.001708
906.822	0.0012582
916.468	0.001104
926.115	0.0010909
935.761	0.0010219
945.408	0.0010698
955.054	0.0010497
964.701	0.0009928
974.347	0.0009389
983.994	0.0010721
993.64	0.001908
1003.29	0.002048
1012.93	0.001698
1022.58	0.002428
1032.23	0.001978
1041.87	0.0013079
1051.52	0.001818
1061.17	0.003038
1070.81	0.004898
1080.46	0.011028
1090.11	0.014928
1099.75	0.007518
1109.4	0.002788
1119.05	0.002278
1128.69	0.004308
1138.34	0.015988
1147.99	0.031308
1157.63	0.033158
1167.28	0.054028
1176.92	0.065118
1186.57	0.031068
1196.22	0.010258
1205.86	0.006898
1215.51	0.007498
1225.16	0.010268
1234.8	0.015788
1244.45	0.013648
1254.1	0.005348
1263.74	0.003128
1273.39	0.003468
1283.04	0.003758
1292.68	0.003388
1302.33	0.003508
1311.98	0.004298
1321.62	0.004968
1331.27	0.007278
1340.92	0.009868
1350.56	0.019798
1360.21	0.049288
1369.86	0.069818
1379.5	0.039658
1389.15	0.013938
1398.79	0.008118
1408.44	0.005138
1418.09	0.003128
1427.73	0.002828
1437.38	0.005758
1447.03	0.010258
1456.67	0.007058
1466.32	0.002618
1475.97	0.002638
1485.61	0.002578
1495.26	0.0015765
1504.91	0.0012899
1514.55	0.0011299
1524.2	0.0010684
1533.85	0.0009233
1543.49	0.0008601
1553.14	0.0008975
1562.79	0.0009662
1572.43	0.001311
1582.08	0.001988
1591.73	0.001818
1601.37	0.0011547
1611.02	0.0009915
1620.67	0.0008032
1630.31	0.0007866
1639.96	0.00074917
1649.6	0.0007786
1659.25	0.0009281
1668.9	0.0010492
1678.54	0.0010701
1688.19	0.001029
1697.84	0.0009194
1707.48	0.00074623
1717.13	0.00074595
1726.78	0.00077075
1736.42	0.0007971
1746.07	0.0008982
1755.72	0.0010068
1765.36	0.0011461
1775.01	0.0012124
1784.66	0.0010261
1794.3	0.0011557
1803.95	0.0016256
1813.6	0.0015857
1823.24	0.0011079
1832.89	0.0009493
1842.54	0.0008745
1852.18	0.0008699
1861.83	0.0008344
1871.47	0.0008047
1881.12	0.001009
1890.77	0.0012918
1900.41	0.001538
1910.06	0.0015186
1919.71	0.0012855
1929.35	0.0010082
1939	0.0008465
1948.65	0.0010963
1958.29	0.0014223
1967.94	0.0014167
1977.59	0.0013104
1987.23	0.000999
1996.88	0.00072282
2006.53	0.00070108
2016.17	0.0006412
2025.82	0.0006332
2035.47	0.0006408
2045.11	0.0006038
2054.76	0.000575
2064.41	0.000565
2074.05	0.000556
2083.7	0.000563
2093.35	0.000565
2102.99	0.000603
2112.64	0.00069256
2122.28	0.0006125
2131.93	0.000557
2141.58	0.000513
2151.22	0.0006221
2160.87	0.00071905
2170.52	0.00072633
2180.16	0.0006694
2189.81	0.0005995
2199.46	0.000573
2209.1	0.0006052
2218.75	0.00064
2228.4	0.000682082
2238.04	0.0008812
2247.69	0.0011271
2257.34	0.001297
2266.98	0.0010868
2276.63	0.0008481
2286.28	0.00073849
2295.92	0.00073033
2305.57	0.00067156
2315.22	0.0008066
2324.86	0.0009709
2334.51	0.0009379
2344.16	0.0007983
2353.8	0.000687202
2363.45	0.000651
2373.09	0.0006605
2382.74	0.0006084
2392.39	0.000608
2402.03	0.0005844
2411.68	0.000542
2421.33	0.000548
2430.97	0.0006017
2440.62	0.00071961
2450.27	0.0008336
2459.91	0.0008652
2469.56	0.0008284
2479.21	0.00072487
2488.85	0.0006451
2498.5	0.00071458
2508.15	0.00077374
2517.79	0.0008165
2527.44	0.00071267
2537.09	0.00076629
2546.73	0.000726
2556.38	0.00066945
2566.03	0.0006179
2575.67	0.00070823
2585.32	0.000680003
2594.96	0.000680756
2604.61	0.00067614
2614.26	0.0006626
2623.9	0.0006069
2633.55	0.000556
2643.2	0.000512
2652.84	0.000518
2662.49	0.0006653
2672.14	0.0006349
2681.78	0.000455
2691.43	0.000427
2701.08	0.000317
2710.72	0.000327
2720.37	0.000394
2730.02	0.000463
2739.66	0.000424
2749.31	0.000391
2758.96	0.000371
2768.6	0.000388
2778.25	0.000372
2787.9	0.000306
2797.54	0.000223
2807.19	0.000247
2816.84	0.000294
2826.48	0.000226
2836.13	0.000233
2845.77	0.000259
2855.42	0.000279
2865.07	0.00031
2874.71	0.000433
2884.36	0.000314
2894.01	0.000401
2903.65	0.000378
2913.3	0.000304
2922.95	0.000321
2932.59	0.00072555
2942.24	0.001748
2951.89	0.0015959
2961.53	0.000484
2971.18	0.00039
2980.83	0.000413
2990.47	0.0009438
3000.12	0.0010059
3009.77	0.00076095
3019.41	0.00077621
3029.06	0.0009785
3038.71	0.0008951
3048.35	0.0011073
3058	0.002478
3067.64	0.005898
3077.29	0.008758
3086.94	0.005728
3096.58	0.002298
3106.23	0.0010162
3115.88	0.000331
3125.52	0.000492
3135.17	0.000487
3144.82	0.000435
3154.46	0.000283
3164.11	0.000524
3173.76	0.000391
3183.4	0.000144
3193.05	0.000218
3202.7	0.000269
3212.34	0.00037
3221.99	0.000333
3231.64	0.000164
3241.28	0.000304
3250.93	0.000235
3260.58	0.000203
3270.22	0.000156
3279.87	0.000205
3289.52	0.000143
3299.16	0
3308.81	0.000247
3318.45	6.4e-05
3328.1	0.000101
3337.75	8e-05
3347.39	0.000154
3357.04	0.000251
3366.69	0.000174
3376.33	0.000313
3385.98	0.00033
3395.63	0.00023
3405.27	0.000266
3414.92	0.00026
3424.57	0.000221
3434.21	0.000206
3443.86	0.000283
3453.51	0.000255
3463.15	0.000289
3472.8	0.000257
3482.45	0.000388
3492.09	0.000387
3501.74	0.000301
3511.39	0.000416
3521.03	0.000418
3530.68	0.000345
3540.33	0.000293
3549.97	0.000248
3559.62	0.000439
3569.26	0.000423
3578.91	0.000461
3588.56	0.000372
3598.2	0.000266
3607.85	0.000415
3617.5	0.00048
3627.14	0.000484
3636.79	0.000456
3646.44	0.000503
3656.08	0.000472
3665.73	0.00042
3675.38	0.000334
3685.02	0.000562
3694.67	0.000383
3704.32	0.0006094
3713.96	0.000553
3723.61	0.000323
3733.26	0.000292
3742.9	0.000443
3752.55	0.000449
3762.2	0.000427
3771.84	0.000405
3781.49	0.00044
3791.13	0.000392
3800.78	0.000405
3810.43	0.000463
3820.07	0.000376
3829.72	0.000415
3839.37	0.00035
3849.01	0.000371
3858.66	0.000488
3868.31	0.0005785
3877.95	0.000482
3887.6	0.000421
3897.25	0.000407
3906.89	0.000361
3916.54	0.000424
3926.19	0.000403
3935.83	0.000485
3945.48	0.000548
3955.13	0.000406
3964.77	0.000267
3974.42	0.000357
3984.07	0.000471
3993.71	0.000424
