Infrared Spectrum: FORMAMIDE, N,N-DIBUTYL-
Formula: C9 H19 N O
CAS: 761-65-9
State: SOLUTION (10% CCl4 FOR 3800-1330, 10% CS2 FOR 1330-400 CM^-^1))
Class: COBLENTZ III
Instrument: BECKMAN IR-9 (GRATING)
Instrument parameters: ORDER CHANGES: 670, 1200, 2000 CM^-^1
Sampling: TRANSMISSION
Path length: 0.011 CM, 0.012 CM
Resolution: 2
Origin: DOW CHEMICAL COMPANY
1/CM	TRANSMITTANCE
403	0.1786
412	0.1798
421	0.2446
430	0.4208
439	0.6437
448	0.6903
457	0.7657
466	0.8131
475	0.8434
484	0.8644
493	0.8765
502	0.8671
511	0.851
520	0.8378
529	0.8423
538	0.839
547	0.8546
556	0.8895
565	0.9594
574	0.9898
583	0.994
592	0.9962
601	0.997
610	0.9954
619	0.9917
628	0.9783
637	0.9271
646	0.7839
655	0.8154
664	0.9277
673	0.9535
682	0.9435
691	0.8099
700	0.8558
709	0.9404
718	0.9514
727	0.9082
736	0.6784
745	0.7725
754	0.7311
763	0.9159
772	0.9423
781	0.9123
790	0.9053
799	0.9089
808	0.9068
817	0.9416
826	0.9311
835	0.9496
844	0.8812
853	0.8108
862	0.8022
871	0.8332
880	0.8628
889	0.9071
898	0.9289
907	0.9033
916	0.9437
925	0.943
934	0.8019
943	0.6919
952	0.578
961	0.8387
970	0.8844
979	0.8877
988	0.9007
997	0.9318
1006	0.897
1015	0.8894
1024	0.9213
1033	0.9414
1042	0.9392
1051	0.9208
1060	0.8825
1069	0.8914
1078	0.8908
1087	0.8216
1096	0.6526
1105	0.3937
1114	0.2415
1123	0.1939
1132	0.4962
1141	0.8278
1150	0.8728
1159	0.8837
1168	0.8666
1177	0.7497
1186	0.5979
1195	0.4418
1204	0.3342
1213	0.3077
1222	0.6882
1231	0.7956
1240	0.736
1249	0.5953
1258	0.5384
1267	0.5445
1276	0.6421
1285	0.5288
1294	0.5147
1303	0.5909
1312	0.5203
1321	0.6596
1330	0.7549
1339	0.7096
1348	0.6687
1357	0.5947
1366	0.5405
1375	0.3972
1384	0.2549
1393	0.3494
1402	0.1183
1411	0.4431
1420	0.379
1429	0.0806
1438	0.18
1447	0.2482
1456	0.2596
1465	0.1848
1474	0.382
1483	0.6587
1492	0.7115
1501	0.7182
1510	0.6941
1519	0.6582
1528	0.62
1537	0.5557
1546	0.4781
1555	0.4653
1564	0.5185
1573	0.5822
1582	0.5949
1591	0.624
1600	0.6896
1609	0.7267
1618	0.7342
1627	0.6932
1636	0.5897
1645	0.5458
1654	0.3572
1663	0.0817
1672	0.0003
1681	0.0001
1690	0.0257
1699	0.2826
1708	0.5203
1717	0.6606
1726	0.7275
1735	0.7654
1744	0.7875
1753	0.8071
1762	0.8261
1771	0.8439
1780	0.8549
1789	0.8656
1798	0.8744
1807	0.8801
1816	0.8834
1825	0.8861
1834	0.8871
1843	0.8874
1852	0.8895
1861	0.8918
1870	0.893
1879	0.8936
1888	0.8973
1897	0.8959
1906	0.8947
1915	0.8944
1924	0.8947
1933	0.895
1942	0.8949
1951	0.8941
1960	0.8928
1969	0.8907
1978	0.887
1987	0.8831
1996	0.8434
2005	0.883
2014	0.8854
2023	0.8909
2032	0.8938
2041	0.8943
2050	0.8945
2059	0.8948
2068	0.895
2077	0.8944
2086	0.8939
2095	0.8948
2104	0.8967
2113	0.8968
2122	0.8973
2131	0.8981
2140	0.8989
2149	0.8988
2158	0.8986
2167	0.8983
2176	0.8975
2185	0.8961
2194	0.8945
2203	0.8928
2212	0.8912
2221	0.8895
2230	0.8875
2239	0.8855
2248	0.8834
2257	0.881
2266	0.8788
2275	0.8766
2284	0.8745
2293	0.8727
2302	0.871
2311	0.8699
2320	0.8691
2329	0.8706
2338	0.8725
2347	0.875
2356	0.8762
2365	0.8771
2374	0.8782
2383	0.8785
2392	0.8788
2401	0.879
2410	0.8789
2419	0.879
2428	0.8794
2437	0.8809
2446	0.8841
2455	0.8878
2464	0.8899
2473	0.8899
2482	0.8885
2491	0.8863
2500	0.8841
2509	0.882
2518	0.8802
2527	0.8783
2536	0.8765
2545	0.8757
2554	0.8749
2563	0.8742
2572	0.8735
2581	0.8727
2590	0.872
2599	0.8716
2608	0.8707
2617	0.869
2626	0.866
2635	0.8613
2644	0.8566
2653	0.8509
2662	0.8452
2671	0.8389
2680	0.8325
2689	0.8262
2698	0.8201
2707	0.8143
2716	0.809
2725	0.8018
2734	0.7868
2743	0.7668
2752	0.7435
2761	0.6938
2770	0.6348
2779	0.6417
2788	0.6931
2797	0.7011
2806	0.6781
2815	0.6394
2824	0.5836
2833	0.4904
2842	0.4233
2851	0.3163
2860	0.1129
2869	0.0744
2878	0.073
2887	0.1892
2896	0.2839
2905	0.2407
2914	0.1996
2923	0.1081
2932	0.0421
2941	0.0315
2950	0.0481
2959	0.031
2968	0.0175
2977	0.0386
2986	0.3206
2995	0.5599
3004	0.6625
3013	0.7147
3022	0.7555
3031	0.7828
3040	0.8022
3049	0.8157
3058	0.8216
3067	0.8252
3076	0.8268
3085	0.831
3094	0.8412
3103	0.8412
3112	0.8427
3121	0.8494
3130	0.8566
3139	0.8625
3148	0.8674
3157	0.87
3166	0.8717
3175	0.873
3184	0.8738
3193	0.8742
3202	0.8748
3211	0.8755
3220	0.8774
3229	0.8793
3238	0.8821
3247	0.8855
3256	0.8871
3265	0.8881
3274	0.8882
3283	0.8868
3292	0.8849
3301	0.88
3310	0.8718
3319	0.8596
3328	0.8434
3337	0.8246
3346	0.8196
3355	0.8296
3364	0.8446
3373	0.8641
3382	0.8773
3391	0.8786
3400	0.88
3409	0.8799
3418	0.8795
3427	0.8788
3436	0.8777
3445	0.8761
3454	0.8746
3463	0.8731
3472	0.8728
3481	0.8728
3490	0.8738
3499	0.8752
3508	0.877
3517	0.8789
3526	0.881
3535	0.8834
3544	0.8864
3553	0.8889
3562	0.8911
3571	0.8932
3580	0.8952
3589	0.896
3598	0.8968
3607	0.8967
3616	0.8964
3625	0.8955
3634	0.8943
3643	0.8925
3652	0.8898
3661	0.8868
3670	0.8825
3679	0.8761
3688	0.8737
3697	0.884
3706	0.8928
3715	0.8953
3724	0.8971
3733	0.8986
3742	0.8999
3751	0.9008
3760	0.9005
3769	0.9001
3778	0.8996
3787	0.899
3796	0.8985
