Infrared Spectrum: CIS-1-CHLORO-1-BUTENE
Formula: C4 H7 Cl
CAS: 7611-86-1
Class: COBLENTZ
Instrument: Not specified, most likely a prism, grating, or hybrid spectrometer.
Sampling: TRANSMISSION
Path length: 0.0025 CM
Resolution: 4
Origin: W.T. BOLLETER
MICROMETERS	TRANSMITTANCE
14.523	0
14.5933	0
14.6637	0
14.734	0
14.8044	0
14.8747	0
14.9451	0
15.0154	0.008
15.0857	0.019
15.1561	0.028
15.2264	0.049
15.2968	0.085
15.3671	0.131
15.4375	0.174
15.5078	0.226
15.5781	0.279
15.6485	0.32
15.7188	0.347
15.7892	0.37
15.8595	0.376
15.9299	0.374
16.0002	0.36
16.0705	0.311
16.1409	0.27
16.2112	0.222
16.2816	0.172
16.3519	0.124
16.4223	0.08
16.4926	0.074
16.563	0.087
16.6333	0.137
16.7036	0.203
16.774	0.281
16.8443	0.34
16.9147	0.376
16.985	0.399
17.0554	0.409
17.1257	0.406
17.196	0.399
17.2664	0.39
17.3367	0.385
17.4071	0.383
17.4774	0.379
17.5478	0.368
17.6181	0.363
17.6884	0.372
17.7588	0.402
17.8291	0.426
17.8995	0.452
17.9698	0.486
18.0402	0.543
18.1105	0.597
18.1808	0.625
18.2512	0.659
18.3215	0.688
18.3919	0.704
18.4622	0.718
18.5326	0.729
18.6029	0.736
18.6732	0.739
18.7436	0.741
18.8139	0.741
18.8843	0.745
18.9546	0.754
19.025	0.766
19.0953	0.775
19.1656	0.784
19.236	0.791
19.3063	0.798
19.3767	0.802
19.447	0.803
19.5174	0.807
19.5877	0.809
19.658	0.809
19.7284	0.811
19.7987	0.812
19.8691	0.812
19.9394	0.812
20.0098	0.811
20.0801	0.809
20.1504	0.807
20.2208	0.807
20.2911	0.805
20.3615	0.805
20.4318	0.805
20.5022	0.805
20.5725	0.803
20.6429	0.803
20.7132	0.803
20.7835	0.803
20.8539	0.802
20.9242	0.798
20.9946	0.795
21.0649	0.789
21.1353	0.786
21.2056	0.78
21.2759	0.771
21.3463	0.755
21.4166	0.734
21.487	0.698
21.5573	0.654
21.6277	0.611
21.698	0.579
21.7683	0.577
21.8387	0.598
21.909	0.636
21.9794	0.672
22.0497	0.7
22.1201	0.721
22.1904	0.732
22.2607	0.741
22.3311	0.75
22.4014	0.762
22.4718	0.766
22.5421	0.771
22.6125	0.771
22.6828	0.771
22.7531	0.771
22.8235	0.77
22.8938	0.773
22.9642	0.77
23.0345	0.762
23.1049	0.759
23.1752	0.755
23.2455	0.754
23.3159	0.752
23.3862	0.757
23.4566	0.764
23.5269	0.771
23.5973	0.78
23.6676	0.796
23.7379	0.805
23.8083	0.812
23.8786	0.819
23.949	0.83
24.0193	0.834
24.0897	0.837
24.16	0.839
24.2303	0.839
24.3007	0.836
24.371	0.834
24.4414	0.832
24.5117	0.83
24.5821	0.825
24.6524	0.818
24.7228	0.811
24.7931	0.811
24.8634	0.811
24.9338	0.812
25.0041	0.812
25.0745	0.814
25.1448	0.814
25.2152	0.814
25.2855	0.816
25.3558	0.818
25.4262	0.827
25.4965	0.834
25.5669	0.839
25.6372	0.844
25.7076	0.85
25.7779	0.855
25.8482	0.86
25.9186	0.866
25.9889	0.871
26.0593	0.875
26.1296	0.875
26.2	0.877
26.2703	0.88
26.3406	0.884
26.411	0.887
26.4813	0.891
26.5517	0.893
26.622	0.894
26.6924	0.896
26.7627	0.9
26.833	0.901
26.9034	0.901
26.9737	0.903
27.0441	0.903
27.1144	0.903
27.1848	0.905
27.2551	0.909
27.3254	0.914
27.3958	0.921
27.4661	0.926
27.5365	0.934
27.6068	0.937
27.6772	0.948
27.7475	0.948
27.8178	0.948
27.8882	0.95
27.9585	0.95
28.0289	0.953
28.0992	0.951
28.1696	0.951
28.2399	0.951
28.3103	0.955
28.3806	0.957
28.4509	0.96
28.5213	0.96
28.5916	0.96
28.662	0.959
28.7323	0.959
28.8027	0.957
28.873	0.951
28.9433	0.948
29.0137	0.946
29.084	0.942
29.1544	0.942
29.2247	0.937
29.2951	0.937
29.3654	0.937
29.4357	0.937
29.5061	0.937
29.5764	0.937
29.6468	0.941
29.7171	0.942
29.7875	0.944
29.8578	0.944
29.9281	0.944
29.9985	0.944
30.0688	0.944
30.1392	0.944
30.2095	0.946
30.2799	0.948
30.3502	0.948
30.4205	0.944
30.4909	0.95
30.5612	0.95
30.6316	0.948
30.7019	0.95
30.7723	0.948
30.8426	0.95
30.9129	0.951
30.9833	0.951
31.0536	0.95
31.124	0.95
31.1943	0.951
31.2647	0.953
31.335	0.95
31.4053	0.948
31.4757	0.95
31.546	0.948
31.6164	0.948
31.6867	0.946
31.7571	0.946
31.8274	0.944
31.8977	0.942
31.9681	0.941
32.0384	0.939
32.1088	0.937
32.1791	0.932
32.2495	0.93
32.3198	0.926
32.3902	0.93
32.4605	0.93
32.5308	0.928
32.6012	0.925
32.6715	0.925
32.7419	0.925
32.8122	0.923
32.8826	0.925
32.9529	0.925
33.0232	0.923
33.0936	0.923
33.1639	0.919
33.2343	0.919
33.3046	0.914
33.375	0.907
33.4453	0.905
33.5156	0.903
33.586	0.903
33.6563	0.905
33.7267	0.907
33.797	0.907
33.8674	0.905
33.9377	0.903
34.008	0.903
34.0784	0.903
34.1487	0.901
34.2191	0.901
34.2894	0.9
34.3598	0.9
34.4301	0.896
34.5004	0.893
34.5708	0.889
34.6411	0.88
34.7115	0.877
34.7818	0.875
34.8522	0.862
34.9225	0.85
34.9928	0.844
35.0632	0.839
35.1335	0.832
35.2039	0.828
35.2742	0.827
35.3446	0.827
35.4149	0.825
35.4852	0.823
35.5556	0.818
35.6259	0.812
35.6963	0.811
35.7666	0.805
35.837	0.803
35.9073	0.802
35.9776	0.8
36.048	0.796
36.1183	0.791
36.1887	0.784
36.259	0.773
36.3294	0.77
36.3997	0.768
36.4701	0.766
36.5404	0.766
36.6107	0.762
36.6811	0.761
36.7514	0.759
36.8218	0.757
36.8921	0.755
36.9625	0.755
37.0328	0.754
37.1031	0.755
37.1735	0.757
37.2438	0.757
37.3142	0.757
37.3845	0.757
37.4549	0.759
37.5252	0.761
37.5955	0.762
37.6659	0.766
37.7362	0.766
37.8066	0.766
37.8769	0.764
37.9473	0.768
38.0176	0.77
