Infrared Spectrum: TRANS-1-CHLORO-1-BUTENE
Formula: C4 H7 Cl
CAS: 7611-87-2
Class: COBLENTZ
Instrument: Not specified, most likely a prism, grating, or hybrid spectrometer.
Sampling: TRANSMISSION
Path length: 0.0025 CM
Resolution: 4
Origin: W.T. BOLLETER
MICROMETERS	TRANSMITTANCE
14.572	0.244
14.6425	0.265
14.713	0.268
14.7835	0.225
14.854	0.149
14.9246	0.081
14.9951	0.074
15.0656	0.159
15.1361	0.317
15.2066	0.457
15.2771	0.556
15.3476	0.623
15.4181	0.672
15.4887	0.71
15.5592	0.734
15.6297	0.76
15.7002	0.774
15.7707	0.778
15.8412	0.781
15.9117	0.781
15.9822	0.779
16.0528	0.778
16.1233	0.772
16.1938	0.764
16.2643	0.755
16.3348	0.748
16.4053	0.741
16.4758	0.734
16.5463	0.734
16.6169	0.75
16.6874	0.767
16.7579	0.79
16.8284	0.809
16.8989	0.823
16.9694	0.831
17.0399	0.833
17.1104	0.835
17.181	0.833
17.2515	0.831
17.322	0.828
17.3925	0.828
17.463	0.826
17.5335	0.826
17.604	0.826
17.6745	0.826
17.7451	0.824
17.8156	0.826
17.8861	0.83
17.9566	0.835
18.0271	0.842
18.0976	0.849
18.1681	0.856
18.2386	0.863
18.3092	0.864
18.3797	0.864
18.4502	0.866
18.5207	0.866
18.5912	0.863
18.6617	0.859
18.7322	0.854
18.8027	0.842
18.8732	0.837
18.9438	0.824
19.0143	0.802
19.0848	0.771
19.1553	0.727
19.2258	0.674
19.2963	0.616
19.3668	0.571
19.4373	0.564
19.5079	0.599
19.5784	0.656
19.6489	0.719
19.7194	0.762
19.7899	0.798
19.8604	0.816
19.9309	0.83
20.0014	0.84
20.072	0.845
20.1425	0.849
20.213	0.852
20.2835	0.854
20.354	0.849
20.4245	0.85
20.495	0.847
20.5655	0.847
20.6361	0.845
20.7066	0.84
20.7771	0.835
20.8476	0.831
20.9181	0.828
20.9886	0.826
21.0591	0.816
21.1296	0.809
21.2002	0.804
21.2707	0.802
21.3412	0.798
21.4117	0.797
21.4822	0.792
21.5527	0.779
21.6232	0.764
21.6937	0.748
21.7643	0.727
21.8348	0.708
21.9053	0.686
21.9758	0.665
22.0463	0.629
22.1168	0.597
22.1873	0.554
22.2578	0.502
22.3283	0.441
22.3989	0.388
22.4694	0.322
22.5399	0.253
22.6104	0.201
22.6809	0.164
22.7514	0.143
22.8219	0.135
22.8924	0.136
22.963	0.142
23.0335	0.152
23.104	0.171
23.1745	0.216
23.245	0.285
23.3155	0.358
23.386	0.436
23.4565	0.514
23.5271	0.589
23.5976	0.636
23.6681	0.693
23.7386	0.726
23.8091	0.736
23.8796	0.759
23.9501	0.788
24.0206	0.816
24.0912	0.826
24.1617	0.833
24.2322	0.845
24.3027	0.85
24.3732	0.854
24.4437	0.856
24.5142	0.859
24.5847	0.863
24.6553	0.87
24.7258	0.868
24.7963	0.866
24.8668	0.864
24.9373	0.864
25.0078	0.861
25.0783	0.856
25.1488	0.845
25.2194	0.838
25.2899	0.828
25.3604	0.814
25.4309	0.8
25.5014	0.781
25.5719	0.757
25.6424	0.734
25.7129	0.7
25.7835	0.656
25.854	0.608
25.9245	0.558
25.995	0.497
26.0655	0.428
26.136	0.362
26.2065	0.299
26.277	0.24
26.3475	0.192
26.4181	0.162
26.4886	0.154
26.5591	0.152
26.6296	0.161
26.7001	0.195
26.7706	0.258
26.8411	0.332
26.9116	0.4
26.9822	0.462
27.0527	0.521
27.1232	0.577
27.1937	0.629
27.2642	0.675
27.3347	0.708
27.4052	0.734
27.4757	0.766
27.5463	0.783
27.6168	0.802
27.6873	0.812
27.7578	0.823
27.8283	0.83
27.8988	0.835
27.9693	0.84
28.0398	0.842
28.1104	0.844
28.1809	0.849
28.2514	0.85
28.3219	0.854
28.3924	0.857
28.4629	0.859
28.5334	0.859
28.6039	0.861
28.6745	0.866
28.745	0.871
28.8155	0.876
28.886	0.88
28.9565	0.885
29.027	0.892
29.0975	0.894
29.168	0.894
29.2386	0.89
29.3091	0.889
29.3796	0.885
29.4501	0.883
29.5206	0.882
29.5911	0.878
29.6616	0.878
29.7321	0.875
29.8026	0.863
29.8732	0.849
29.9437	0.83
30.0142	0.826
30.0847	0.819
30.1552	0.816
30.2257	0.816
30.2962	0.812
30.3667	0.807
30.4373	0.802
30.5078	0.797
30.5783	0.793
30.6488	0.793
30.7193	0.798
30.7898	0.805
30.8603	0.812
30.9308	0.821
31.0014	0.83
31.0719	0.842
31.1424	0.857
31.2129	0.871
31.2834	0.882
31.3539	0.887
31.4244	0.892
31.4949	0.897
31.5655	0.897
31.636	0.896
31.7065	0.896
31.777	0.894
31.8475	0.892
31.918	0.894
31.9885	0.894
32.059	0.897
32.1296	0.897
32.2001	0.897
32.2706	0.892
32.3411	0.892
32.4116	0.892
32.4821	0.89
32.5526	0.89
32.6231	0.887
32.6937	0.887
32.7642	0.885
32.8347	0.885
32.9052	0.883
32.9757	0.876
33.0462	0.868
33.1167	0.849
33.1872	0.838
33.2578	0.824
33.3283	0.819
33.3988	0.818
33.4693	0.816
33.5398	0.818
33.6103	0.812
33.6808	0.811
33.7513	0.804
33.8218	0.802
33.8924	0.798
33.9629	0.797
34.0334	0.793
34.1039	0.788
34.1744	0.785
34.2449	0.783
34.3154	0.781
34.3859	0.779
34.4565	0.778
34.527	0.772
34.5975	0.762
34.668	0.748
34.7385	0.733
34.809	0.724
34.8795	0.714
34.95	0.708
35.0206	0.703
35.0911	0.696
35.1616	0.693
35.2321	0.691
35.3026	0.689
35.3731	0.686
35.4436	0.682
35.5141	0.679
35.5847	0.675
35.6552	0.668
35.7257	0.667
35.7962	0.663
35.8667	0.662
35.9372	0.656
36.0077	0.655
36.0782	0.655
36.1488	0.651
36.2193	0.651
36.2898	0.649
36.3603	0.648
36.4308	0.646
36.5013	0.646
36.5718	0.644
36.6423	0.642
36.7129	0.641
36.7834	0.641
36.8539	0.641
36.9244	0.641
36.9949	0.642
37.0654	0.642
37.1359	0.641
37.2064	0.639
37.2769	0.641
37.3475	0.639
37.418	0.636
37.4885	0.636
37.559	0.637
37.6295	0.637
37.7	0.637
37.7705	0.637
37.841	0.637
37.9116	0.637
37.9821	0.637
