Infrared Spectrum: 4-Phenylazophenyl isothiocyanate
Formula: C 13 H 9 N 3 S
CAS: 7612-96-6
State: gas
Origin: EPA-IR VAPOR PHASE LIBRARY
1/CM	ABSORBANCE
549.8	0.018782
559.445	0.008132
569.09	0.004002
578.734	0.002582
588.379	0.002882
598.024	0.005472
607.669	0.004602
617.313	0.003742
626.958	0.004222
636.603	0.005452
646.248	0.005372
655.893	0.006762
665.537	0.009702
675.182	0.015802
684.827	0.024662
694.472	0.020592
704.116	0.019112
713.761	0.015452
723.406	0.009702
733.051	0.008652
742.695	0.009512
752.34	0.012982
761.985	0.018792
771.63	0.014162
781.275	0.008362
790.919	0.006532
800.564	0.006652
810.209	0.009552
819.854	0.015842
829.498	0.026482
839.143	0.037752
848.788	0.031572
858.433	0.013712
868.078	0.006852
877.722	0.005622
887.367	0.006812
897.012	0.011502
906.657	0.014882
916.301	0.017452
925.946	0.021172
935.591	0.026652
945.236	0.027452
954.88	0.018222
964.525	0.009712
974.17	0.005732
983.815	0.004332
993.46	0.003872
1003.1	0.006022
1012.75	0.011242
1022.39	0.009542
1032.04	0.002472
1041.68	0.002242
1051.33	0.002542
1060.97	0.003912
1070.62	0.004262
1080.26	0.003782
1089.91	0.006062
1099.55	0.007392
1109.2	0.004622
1118.84	0.002612
1128.49	0.002832
1138.13	0.004482
1147.78	0.016612
1157.42	0.027472
1167.07	0.004232
1176.71	0.002022
1186.36	0.001822
1196	0.002292
1205.64	0.004642
1215.29	0.004912
1224.93	0.003892
1234.58	0.007152
1244.22	0.014722
1253.87	0.019072
1263.51	0.013062
1273.16	0.010952
1282.8	0.010832
1292.45	0.009032
1302.09	0.008212
1311.74	0.004702
1321.38	0.003112
1331.03	0.002832
1340.67	0.002292
1350.32	0.002192
1359.96	0.002142
1369.61	0.002152
1379.25	0.002322
1388.9	0.002392
1398.54	0.002872
1408.18	0.004512
1417.83	0.005022
1427.47	0.004332
1437.12	0.004592
1446.76	0.006062
1456.41	0.006942
1466.05	0.008882
1475.7	0.017182
1485.34	0.044142
1494.99	0.050122
1504.63	0.037672
1514.28	0.008122
1523.92	0.005312
1533.57	0.004992
1543.21	0.005342
1552.86	0.007012
1562.5	0.010332
1572.15	0.018902
1581.79	0.032752
1591.44	0.053612
1601.08	0.041932
1610.73	0.016242
1620.37	0.008632
1630.01	0.006702
1639.66	0.005952
1649.3	0.005722
1658.95	0.005452
1668.59	0.004532
1678.24	0.004132
1687.88	0.003552
1697.53	0.002552
1707.17	0.002222
1716.82	0.002302
1726.46	0.002302
1736.11	0.002732
1745.75	0.003082
1755.4	0.003312
1765.04	0.004042
1774.69	0.004832
1784.33	0.004612
1793.98	0.005712
1803.62	0.004642
1813.27	0.004352
1822.91	0.004612
1832.55	0.005292
1842.2	0.006572
1851.84	0.007972
1861.49	0.008762
1871.13	0.009362
1880.78	0.010312
1890.42	0.011892
1900.07	0.013862
1909.71	0.015102
1919.36	0.017852
1929	0.023262
1938.65	0.031572
1948.29	0.043602
1957.94	0.059382
1967.58	0.078432
1977.23	0.105632
1986.87	0.142202
1996.52	0.189012
2006.16	0.247632
2015.81	0.314902
2025.45	0.365472
2035.1	0.390272
2044.74	0.369852
2054.38	0.276992
2064.03	0.235762
2073.67	0.261182
2083.32	0.277672
2092.96	0.222562
2102.61	0.167482
2112.25	0.147492
2121.9	0.127052
2131.54	0.089262
2141.19	0.067592
2150.83	0.061502
2160.48	0.053992
2170.12	0.041862
2179.77	0.034192
2189.41	0.031592
2199.06	0.028342
2208.7	0.020432
2218.35	0.013692
2227.99	0.010142
2237.64	0.007922
2247.28	0.006182
2256.92	0.005172
2266.57	0.004552
2276.21	0.004012
2285.86	0.003612
2295.5	0.003452
2305.15	0.003312
2314.79	0.003322
2324.44	0.002622
2334.08	0.002322
2343.73	0.002162
2353.37	0.002022
2363.02	0.001942
2372.66	0.001922
2382.31	0.002062
2391.95	0.002102
2401.6	0.002132
2411.24	0.002102
2420.89	0.002232
2430.53	0.002342
2440.18	0.002552
2449.82	0.002972
2459.47	0.003022
2469.11	0.003382
2478.75	0.003582
2488.4	0.004282
2498.04	0.004852
2507.69	0.004542
2517.33	0.004432
2526.98	0.004642
2536.62	0.005162
2546.27	0.005342
2555.91	0.005512
2565.56	0.005012
2575.2	0.004322
2584.85	0.003982
2594.49	0.003802
2604.14	0.003882
2613.78	0.003892
2623.43	0.003962
2633.07	0.003932
2642.72	0.003852
2652.36	0.003652
2662.01	0.003442
2671.65	0.003132
2681.29	0.003212
2690.94	0.003042
2700.58	0.003122
2710.23	0.003172
2719.87	0.003552
2729.52	0.003952
2739.16	0.004242
2748.81	0.003982
2758.45	0.003282
2768.1	0.002492
2777.74	0.002222
2787.39	0.001922
2797.03	0.001822
2806.68	0.001332
2816.32	0.0013103
2825.97	0.0010791
2835.61	0.0010864
2845.26	0.0010918
2854.9	0.0010829
2864.55	0.0012635
2874.19	0.0013993
2883.84	0.001212
2893.48	0.0014061
2903.12	0.0014296
2912.77	0.0014564
2922.41	0.001662
2932.06	0.001812
2941.7	0.002042
2951.35	0.002282
2960.99	0.002602
2970.64	0.002832
2980.28	0.002832
2989.93	0.002812
2999.57	0.002482
3009.22	0.002902
3018.86	0.003962
3028.51	0.005712
3038.15	0.008612
3047.8	0.011522
3057.44	0.013372
3067.09	0.019202
3076.73	0.028122
3086.38	0.015432
3096.02	0.010942
3105.67	0.006012
3115.31	0.002762
3124.95	0.0014112
3134.6	0.0010633
3144.24	0.0009162
3153.89	0.0008685
3163.53	0.000912
3173.18	0.0008863
3182.82	0.0006505
3192.47	0.0004327
3202.11	0.000245
3211.76	0.000151
3221.4	0.00024
3231.05	0.000282
3240.69	0.000298
3250.34	0.000278
3259.98	5.4e-05
3269.63	0.000227
3279.27	0.000273
3288.92	0.000233
3298.56	0.000117
3308.21	0.000138
3317.85	0.000159
3327.49	0.000405
3337.14	0.000346
3346.78	0.000108
3356.43	6.9e-05
3366.07	0.00028
3375.72	0.000136
3385.36	0.0004592
3395.01	0.000292
3404.65	0.000272
3414.3	0.000399
3423.94	0.000277
3433.59	0.000389
3443.23	0.0004327
3452.88	0.000426
3462.52	0.0004433
3472.17	0.0004953
3481.81	0.000414
3491.46	0.000344
3501.1	0.00054999
3510.75	0.000312
3520.39	0.000426
3530.04	0.00060337
3539.68	0.00052382
3549.32	0.000371
3558.97	0.000424
3568.61	0.0004856
3578.26	0.000363
3587.9	0.000402
3597.55	0.0004918
3607.19	0.0004346
3616.84	0.000391
3626.48	0.00057261
3636.13	0.0005568
3645.77	0.0007064
3655.42	0.0006871
3665.06	0.00057566
3674.71	0.00059807
3684.35	0.0007325
3694	0.0008943
3703.64	0.0007329
3713.29	0.00062639
3722.93	0.0005182
3732.58	0.00054567
3742.22	0.0006512
3751.86	0.0004796
3761.51	0.0005051
3771.15	0.0007058
3780.8	0.0004791
3790.44	0.0007201
3800.09	0.00054399
3809.73	0.00061562
3819.38	0.0007066
3829.02	0.0006433
3838.67	0.0006815
3848.31	0.000651
3857.96	0.00060034
3867.6	0.0008045
3877.25	0.000883
3886.89	0.0008325
3896.54	0.0009778
3906.18	0.0009173
3915.83	0.0009385
3925.47	0.0011026
3935.12	0.0011166
3944.76	0.0010437
3954.41	0.0014198
3964.05	0.001552
3973.69	0.001582
3983.34	0.001612
3992.98	0.001592
