Infrared Spectrum: 2'-HYDROXY-5,9-DIMEHTYL-2-ALLYL-6,7-BENZOMORPHAN
Formula: C17 H23 N O
CAS: 7619-35-4
State: SOLID (KBr DISC)
Class: COBLENTZ III
Instrument: PERKIN-ELMER 21 (GRATING)
Instrument parameters: NaCl PRISM
Sampling: TRANSMISSION
Resolution: 2
Origin: SMITH, KLINE & FRENCH LABS.
1/CM	TRANSMITTANCE
659	0.7406
668	0.7313
677	0.723
686	0.7111
695	0.6671
704	0.5613
713	0.6857
722	0.6331
731	0.6026
740	0.634
749	0.5378
758	0.3411
767	0.6908
776	0.6803
785	0.6291
794	0.4677
803	0.5046
812	0.612
821	0.5059
830	0.5643
839	0.5266
848	0.479
857	0.5701
866	0.4851
875	0.6551
884	0.6671
893	0.6194
902	0.5225
911	0.3769
920	0.286
929	0.4976
938	0.5752
947	0.6637
956	0.645
965	0.5608
974	0.6894
983	0.65
992	0.3617
1001	0.6362
1010	0.6833
1019	0.5751
1028	0.6695
1037	0.6813
1046	0.6639
1055	0.5942
1064	0.4363
1073	0.4452
1082	0.5822
1091	0.4082
1100	0.4424
1109	0.5063
1118	0.5809
1127	0.5128
1136	0.4555
1145	0.4557
1154	0.5594
1163	0.6039
1172	0.4995
1181	0.5104
1190	0.4497
1199	0.4753
1208	0.3317
1217	0.495
1226	0.4494
1235	0.2941
1244	0.2444
1253	0.332
1262	0.3764
1271	0.516
1280	0.3542
1289	0.479
1298	0.4049
1307	0.3731
1316	0.457
1325	0.4579
1334	0.2835
1343	0.2714
1352	0.2892
1361	0.3747
1370	0.306
1379	0.4384
1388	0.522
1397	0.6663
1406	0.6501
1415	0.4645
1424	0.5167
1433	0.525
1442	0.4931
1451	0.3604
1460	0.3058
1469	0.2756
1478	0.2685
1487	0.2994
1496	0.3064
1505	0.295
1514	0.5908
1523	0.7816
1532	0.7858
1541	0.7675
1550	0.7367
1559	0.6917
1568	0.6234
1577	0.3861
1586	0.276
1595	0.5727
1604	0.583
1613	0.4816
1622	0.3856
1631	0.526
1640	0.6757
1649	0.6982
1658	0.792
1667	0.7893
1676	0.7797
1685	0.7726
1694	0.7696
1703	0.7483
1712	0.727
1721	0.7081
1730	0.7212
1739	0.7232
1748	0.7321
1757	0.7445
1766	0.7514
1775	0.7518
1784	0.7575
1793	0.7554
1802	0.754
1811	0.7542
1820	0.7498
1829	0.7411
1838	0.7282
1847	0.6936
1856	0.7054
1865	0.7244
1874	0.7317
1883	0.7364
1892	0.7442
1901	0.7482
1910	0.7435
1919	0.7355
1928	0.732
1937	0.7282
1946	0.7248
1955	0.7221
1964	0.7188
1973	0.7152
1982	0.7108
1991	0.7065
2000	0.7084
2009	0.7088
2018	0.7053
2027	0.7009
2036	0.6966
2045	0.6924
2054	0.6883
2063	0.6843
2072	0.6804
2081	0.6766
2090	0.673
2099	0.6697
2108	0.6663
2117	0.6631
2126	0.6602
2135	0.658
2144	0.6567
2153	0.6548
2162	0.6412
2171	0.6347
2180	0.6294
2189	0.6259
2198	0.6224
2207	0.6197
2216	0.6171
2225	0.6139
2234	0.6103
2243	0.6067
2252	0.6019
2261	0.5969
2270	0.5922
2279	0.5876
2288	0.5832
2297	0.5806
2306	0.5767
2315	0.5673
2324	0.5574
2333	0.551
2342	0.5438
2351	0.5387
2360	0.5379
2369	0.535
2378	0.5238
2387	0.5088
2396	0.5015
2405	0.4961
2414	0.49
2423	0.4827
2432	0.4752
2441	0.4676
2450	0.4591
2459	0.4506
2468	0.4423
2477	0.4353
2486	0.4284
2495	0.4218
2504	0.4153
2513	0.4089
2522	0.4036
2531	0.3984
2540	0.3931
2549	0.3853
2558	0.3765
2567	0.3728
2576	0.3737
2585	0.3767
2594	0.3804
2603	0.3835
2612	0.3839
2621	0.3816
2630	0.378
2639	0.367
2648	0.3549
2657	0.3515
2666	0.3526
2675	0.3546
2684	0.3585
2693	0.3711
2702	0.3849
2711	0.3855
2720	0.3825
2729	0.3769
2738	0.3669
2747	0.3572
2756	0.3472
2765	0.3218
2774	0.3114
2783	0.3031
2792	0.2939
2801	0.283
2810	0.2727
2819	0.2689
2828	0.2842
2837	0.3179
2846	0.3234
2855	0.3076
2864	0.2707
2873	0.2482
2882	0.2346
2891	0.2218
2900	0.213
2909	0.2158
2918	0.2407
2927	0.2702
2936	0.2816
2945	0.2867
2954	0.2905
2963	0.3
2972	0.3226
2981	0.3403
2990	0.3544
2999	0.3664
3008	0.3758
3017	0.3818
3026	0.3876
3035	0.409
3044	0.4119
3053	0.4119
3062	0.4118
3071	0.4125
3080	0.4158
3089	0.4298
3098	0.4571
3107	0.4773
3116	0.4861
3125	0.4977
3134	0.5088
3143	0.5182
3152	0.5287
3161	0.5394
3170	0.5519
3179	0.564
3188	0.5749
3197	0.5855
3206	0.5936
3215	0.6004
3224	0.6077
3233	0.6172
3242	0.6281
3251	0.6385
3260	0.645
3269	0.652
3278	0.6612
3287	0.6721
3296	0.6786
3305	0.679
3314	0.6795
3323	0.6797
3332	0.6799
3341	0.6801
3350	0.6797
3359	0.6789
3368	0.6777
3377	0.6754
3386	0.6721
3395	0.6666
3404	0.6607
3413	0.6537
3422	0.6457
3431	0.6417
3440	0.641
3449	0.6417
3458	0.6423
3467	0.6433
3476	0.6452
3485	0.6509
3494	0.658
3503	0.6613
3512	0.6634
3521	0.6684
3530	0.6755
3539	0.6773
3548	0.6791
3557	0.681
3566	0.6842
3575	0.6889
3584	0.6961
3593	0.7012
3602	0.7059
3611	0.7105
3620	0.7151
3629	0.7235
3638	0.7314
3647	0.7367
3656	0.7389
3665	0.7402
3674	0.7405
3683	0.7407
3692	0.7404
3701	0.7397
3710	0.7385
3719	0.7373
3728	0.7359
3737	0.7348
3746	0.734
3755	0.7335
3764	0.7332
3773	0.7331
3782	0.7325
3791	0.7295
3800	0.7262
3809	0.7227
3818	0.7196
3827	0.7172
3836	0.7148
3845	0.7125
3854	0.7101
3863	0.7078
3872	0.7061
3881	0.7045
3890	0.703
3899	0.7014
3908	0.6999
3917	0.6986
3926	0.6975
3935	0.6964
3944	0.6954
3953	0.6943
3962	0.6932
3971	0.6921
3980	0.6911
3989	0.6903
3998	0.6893
