Infrared Spectrum: Silane, allyltrimethyl-
Formula: C6 H14 Si
CAS: 762-72-1
State: SOLUTION (5% CCl4 FOR 3800-1300, 2% CS2 FOR 1300-650, AND 5% CCl4 FOR 650-250)
Class: COBLENTZ III
Instrument: PERKIN-ELMER 521 (GRATING)
Instrument parameters: FILTERS AT 3150, 2500, 2000, 1150, 700, 410. GRATING CHANGES: 2000, 630
Path length: 0.011 CM, 0.011 CM, AND 0.020 CM
Resolution: 2
Origin: DOW CORNING CORP.
1/CM	TRANSMITTANCE
246	1.0259
255	0.9877
264	0.9784
273	0.9394
282	0.9039
291	0.8777
300	0.8808
309	0.8777
318	0.8614
327	0.8109
336	0.8631
345	0.9097
354	0.9114
363	0.9011
372	0.8941
381	0.8783
390	0.8538
399	0.8122
408	0.7937
417	0.8453
426	0.8924
435	0.9024
444	0.9255
453	0.9259
462	0.9257
471	0.9309
480	0.9471
489	0.9449
498	0.9395
507	0.9434
516	0.9385
525	0.9336
534	0.9273
543	0.8572
552	0.5896
561	0.7742
570	0.9553
579	0.9872
588	0.992
597	0.9756
606	0.9625
615	0.8744
624	0.3771
633	0.4316
642	0.795
651	0.8523
660	0.8488
669	0.8327
678	0.8208
687	0.7109
696	0.6189
705	0.8058
714	0.8554
723	0.8619
732	0.8646
741	0.8619
750	0.8181
759	0.7913
768	0.8541
777	0.8554
786	0.8252
795	0.8137
804	0.7881
813	0.7363
822	0.5686
831	0.3306
840	0.1732
849	0.1904
858	0.4096
867	0.6397
876	0.7105
885	0.4925
894	0.6258
903	0.8698
912	0.8773
921	0.8425
930	0.8064
939	0.9216
948	0.9302
957	0.9268
966	0.9142
975	0.8943
984	0.7671
993	0.8952
1002	0.894
1011	0.8862
1020	0.847
1029	0.767
1038	0.7601
1047	0.7636
1056	0.7979
1065	0.8505
1074	0.8954
1083	0.9055
1092	0.9097
1101	0.9085
1110	0.9009
1119	0.886
1128	0.867
1137	0.8038
1146	0.6525
1155	0.7925
1164	0.8976
1173	0.8877
1182	0.8724
1191	0.878
1200	0.9009
1209	0.9002
1218	0.8901
1227	0.8462
1236	0.7226
1245	0.3871
1254	0.6091
1263	0.8107
1272	0.8604
1281	0.873
1290	0.8695
1299	0.8428
1308	0.8262
1317	0.8247
1326	0.8388
1335	0.8459
1344	0.8479
1353	0.8486
1362	0.8278
1371	0.8222
1380	0.7915
1389	0.6714
1398	0.736
1407	0.6298
1416	0.5413
1425	0.776
1434	0.8072
1443	0.8153
1452	0.8385
1461	0.8407
1470	0.8441
1479	0.8634
1488	0.8771
1497	0.8812
1506	0.8867
1515	0.8923
1524	0.8977
1533	0.8998
1542	0.8956
1551	0.895
1560	0.8951
1569	0.8817
1578	0.8776
1587	0.8714
1596	0.8603
1605	0.8456
1614	0.7938
1623	0.5523
1632	0.5274
1641	0.85
1650	0.8736
1659	0.8775
1668	0.8809
1677	0.8846
1686	0.8849
1695	0.8758
1704	0.8515
1713	0.833
1722	0.8593
1731	0.8791
1740	0.8843
1749	0.8855
1758	0.8825
1767	0.8802
1776	0.8755
1785	0.8599
1794	0.8551
1803	0.8691
1812	0.8841
1821	0.8904
1830	0.8945
1839	0.8962
1848	0.8931
1857	0.8886
1866	0.8823
1875	0.8813
1884	0.8867
1893	0.8952
1902	0.8947
1911	0.8926
1920	0.8898
1929	0.8868
1938	0.8805
1947	0.8793
1956	0.8833
1965	0.8894
1974	0.892
1983	0.8928
1992	0.8895
2001	0.8756
2010	0.873
2019	0.8727
2028	0.874
2037	0.8776
2046	0.8771
2055	0.8721
2064	0.8687
2073	0.8689
2082	0.8696
2091	0.8724
2100	0.8761
2109	0.88
2118	0.8843
2127	0.8855
2136	0.8865
2145	0.8872
2154	0.8874
2163	0.8875
2172	0.8878
2181	0.8879
2190	0.8881
2199	0.8869
2208	0.8855
2217	0.8841
2226	0.8812
2235	0.8787
2244	0.8788
2253	0.8789
2262	0.8792
2271	0.8796
2280	0.8809
2289	0.8826
2298	0.8849
2307	0.8894
2316	0.8945
2325	0.8964
2334	0.8975
2343	0.8983
2352	0.8946
2361	0.89
2370	0.8851
2379	0.8828
2388	0.8816
2397	0.881
2406	0.8811
2415	0.8811
2424	0.8813
2433	0.8814
2442	0.8816
2451	0.8817
2460	0.8818
2469	0.8819
2478	0.882
2487	0.8823
2496	0.882
2505	0.8811
2514	0.8784
2523	0.8754
2532	0.8728
2541	0.8716
2550	0.8725
2559	0.8746
2568	0.8761
2577	0.8734
2586	0.8721
2595	0.8714
2604	0.8726
2613	0.8739
2622	0.8741
2631	0.8742
2640	0.8744
2649	0.8743
2658	0.8739
2667	0.8735
2676	0.8732
2685	0.8728
2694	0.8727
2703	0.8726
2712	0.8724
2721	0.8668
2730	0.8557
2739	0.8533
2748	0.8533
2757	0.8462
2766	0.8305
2775	0.8204
2784	0.816
2793	0.8069
2802	0.803
2811	0.808
2820	0.8089
2829	0.8051
2838	0.7989
2847	0.7864
2856	0.7602
2865	0.7325
2874	0.6578
2883	0.5963
2892	0.5584
2901	0.5792
2910	0.5905
2919	0.6634
2928	0.6643
2937	0.6474
2946	0.492
2955	0.2739
2964	0.2992
2973	0.4452
2982	0.6805
2991	0.6784
3000	0.731
3009	0.7765
3018	0.7824
3027	0.774
3036	0.7788
3045	0.7706
3054	0.7414
3063	0.728
3072	0.6609
3081	0.6394
3090	0.7924
3099	0.8168
3108	0.8285
3117	0.833
3126	0.8467
3135	0.8505
3144	0.853
3153	0.8553
3162	0.8572
3171	0.8581
3180	0.8577
3189	0.8595
3198	0.8628
3207	0.8668
3216	0.8651
3225	0.8658
3234	0.8698
3243	0.871
3252	0.871
3261	0.8711
3270	0.8713
3279	0.8718
3288	0.8723
3297	0.8728
3306	0.8732
3315	0.8736
3324	0.874
3333	0.8739
3342	0.8738
3351	0.8741
3360	0.8745
3369	0.8748
3378	0.8752
3387	0.8755
3396	0.8754
3405	0.8753
3414	0.8752
3423	0.875
3432	0.8746
3441	0.8741
3450	0.8737
3459	0.8732
3468	0.8728
3477	0.8723
3486	0.8719
3495	0.8715
3504	0.8711
3513	0.8707
3522	0.8703
3531	0.8699
3540	0.8697
3549	0.8698
3558	0.8698
3567	0.8699
3576	0.87
3585	0.87
3594	0.8703
3603	0.8706
3612	0.871
3621	0.8713
3630	0.8709
3639	0.8703
3648	0.8698
3657	0.8701
3666	0.8735
3675	0.8782
3684	0.8742
3693	0.8694
3702	0.8683
3711	0.8691
3720	0.8699
3729	0.8711
3738	0.8728
3747	0.8747
3756	0.8775
3765	0.8737
3774	0.8723
3783	0.8726
3792	0.8722
3801	0.8721
