Infrared Spectrum: Dimethyl acetylenedicarboxylate
Formula: C 6 H 6 O 4
CAS: 762-42-5
State: gas
Instrument: HP-GC/MS/IRD
Origin: NIST Mass Spectrometry Data Center
1/CM	ABSORBANCE
550	0.0012152
562	0.0005488
574	9.8e-05
586	0
598	0.000196
610	0.0003136
622	0.000294
634	0.000294
646	0.000294
658	0.0005684
670	0.0034888
682	0.0048608
694	0.0009604
706	0.0006272
718	0.0008036
730	0.0018228
742	0.0034888
754	0.0044492
766	0.0035476
778	0.0018032
790	0.0008428
802	0.0011368
814	0.0016268
826	0.0016268
838	0.0011956
850	0.0009212
862	0.0013916
874	0.003038
886	0.0051156
898	0.0043512
910	0.002156
922	0.0010976
934	0.0005096
946	0.0004116
958	0.0003528
970	0.00049
982	0.0007056
994	0.0014112
1006	0.0021168
1018	0.0038612
1030	0.011466
1042	0.02891
1054	0.0186788
1066	0.0041944
1078	0.0022736
1090	0.0018228
1102	0.0018424
1114	0.0021756
1126	0.0021364
1138	0.0024696
1150	0.0031948
1162	0.0041944
1174	0.00637
1186	0.0099568
1198	0.0162288
1210	0.0276556
1222	0.0454328
1234	0.074774
1246	0.134358
1258	0.196
1270	0.101724
1282	0.0303408
1294	0.0164444
1306	0.0104272
1318	0.0060956
1330	0.0038024
1342	0.0028616
1354	0.0024696
1366	0.0022344
1378	0.0022932
1390	0.0021952
1402	0.0023324
1414	0.003136
1426	0.0058212
1438	0.0190512
1450	0.0092316
1462	0.0039592
1474	0.0029988
1486	0.0026264
1498	0.0025676
1510	0.0020776
1522	0.0016072
1534	0.0014896
1546	0.0015288
1558	0.0015876
1570	0.001568
1582	0.0016268
1594	0.0015876
1606	0.0014112
1618	0.0010976
1630	0.0008428
1642	0.0007252
1654	0.0008036
1666	0.0012152
1678	0.0024304
1690	0.0033516
1702	0.0051156
1714	0.0123872
1726	0.0308896
1738	0.0660912
1750	0.0901208
1762	0.051254
1774	0.02058
1786	0.0065464
1798	0.0031752
1810	0.0021952
1822	0.0011956
1834	0.0007056
1846	0.0005488
1858	0.0005488
1870	0.0005488
1882	0.0004508
1894	0.0003724
1906	0.000294
1918	0.0002352
1930	0.000196
1942	0.000196
1954	0.0001764
1966	0.0001764
1978	0.0002548
1990	0.0004116
2002	0.0006272
2014	0.0008232
2026	0.0006468
2038	0.0004704
2050	0.0005292
2062	0.0007056
2074	0.0009016
2086	0.0008624
2098	0.0007252
2110	0.0008232
2122	0.0010388
2134	0.0009996
2146	0.0007056
2158	0.000392
2170	0.0002548
2182	0.0001568
2194	0.0001568
2206	0.0001372
2218	9.8e-05
2230	0.0001372
2242	0.0001568
2254	0.0001568
2266	0.0002156
2278	0.0002744
2290	0.0004704
2302	0.0008036
2314	0.0011956
2326	0.0014896
2338	0.0013328
2350	0.0010584
2362	0.0018424
2374	0.001372
2386	0.0003332
2398	9.8e-05
2410	0.0001568
2422	0.0001764
2434	0.0002352
2446	0.0002156
2458	0.0002548
2470	0.000294
2482	0.0002744
2494	0.0002352
2506	0.0001568
2518	5.88e-05
2530	5.88e-05
2542	0
2554	7.84e-05
2566	5.88e-05
2578	9.8e-05
2590	5.88e-05
2602	5.88e-05
2614	1.96e-05
2626	5.88e-05
2638	5.88e-05
2650	9.8e-05
2662	3.92e-05
2674	3.92e-05
2686	7.84e-05
2698	1.96e-05
2710	3.92e-05
2722	3.92e-05
2734	3.92e-05
2746	1.96e-05
2758	1.96e-05
2770	5.88e-05
2782	7.84e-05
2794	0.0001372
2806	0.0001372
2818	0.0002352
2830	0.0004704
2842	0.0011564
2854	0.0019208
2866	0.0008428
2878	0.000588
2890	0.0009604
2902	0.0015876
2914	0.0018032
2926	0.0015288
2938	0.001764
2950	0.0036848
2962	0.012054
2974	0.007742
2986	0.002744
2998	0.0026264
3010	0.0029792
3022	0.0028812
3034	0.0025284
3046	0.0019796
3058	0.0013524
3070	0.000882
3082	0.0007644
3094	0.0007056
3106	0.0006076
3118	0.0005096
3130	0.0003332
3142	0.000294
3154	0.0002156
3166	0.000196
3178	0.0001568
3190	0.0001176
3202	9.8e-05
3214	1.96e-05
3226	5.88e-05
3238	3.92e-05
3250	0
3262	5.88e-05
3274	1.96e-05
3286	3.92e-05
3298	7.84e-05
3310	0.0001372
3322	0.0001764
3334	0.0001568
3346	5.88e-05
3358	7.84e-05
3370	1.96e-05
3382	1.96e-05
3394	7.84e-05
3406	9.8e-05
3418	0.0001764
3430	0.0001764
3442	0.0003724
3454	0.0006076
3466	0.001176
3478	0.0014308
3490	0.0009212
3502	0.0005684
3514	0.0003332
3526	0.0002548
3538	0.0001372
3550	0.0001372
3562	0.0001372
3574	0.0001176
3586	9.8e-05
3598	0.0001764
3610	3.92e-05
3622	7.84e-05
3634	3.92e-05
3646	7.84e-05
3658	3.92e-05
3670	3.92e-05
3682	7.84e-05
3694	9.8e-05
3706	5.88e-05
3718	3.92e-05
3730	9.8e-05
3742	0.0001176
3754	5.88e-05
3766	3.92e-05
3778	7.84e-05
3790	0.0001176
3802	3.92e-05
3814	9.8e-05
3826	7.84e-05
3838	9.8e-05
