Infrared Spectrum: cis-4,4-Dimethyl-2-pentene
Formula: C 7 H 14
CAS: 762-63-0
State: gas
Instrument: HP-GC/MS/IRD
Origin: NIST Mass Spectrometry Data Center
1/CM	ABSORBANCE
550	0.0001537
562	2.65e-05
574	0.0002703
586	0.0002862
598	0.0003551
610	0.0006996
622	0.0009328
634	0.0010335
646	0.0007579
658	0.0007102
670	0.0012455
682	0.002862
694	0.0057982
706	0.0084535
718	0.007632
730	0.0055597
742	0.0033231
754	0.0015953
766	0.0007526
778	0.0005618
790	0.0005035
802	0.0004081
814	0.000371
826	0.000318
838	0.0004134
850	0.0004558
862	0.0005671
874	0.0007102
886	0.0005618
898	0.0006095
910	0.0008321
922	0.001325
934	0.002332
946	0.0032224
958	0.0028461
970	0.0016377
982	0.0009328
994	0.0008003
1006	0.0009646
1018	0.0011077
1030	0.0010971
1042	0.0008851
1054	0.0006784
1066	0.0006254
1078	0.0005989
1090	0.0005459
1102	0.0004505
1114	0.0004081
1126	0.0003816
1138	0.0004134
1150	0.0005459
1162	0.0007579
1174	0.0014363
1186	0.0031959
1198	0.0059996
1210	0.0061692
1222	0.0035457
1234	0.0024963
1246	0.0015847
1258	0.0008639
1270	0.0005512
1282	0.0005194
1294	0.0004982
1306	0.0005406
1318	0.0006413
1330	0.0009116
1342	0.0020246
1354	0.0045845
1366	0.0073882
1378	0.0063706
1390	0.0041605
1402	0.0034715
1414	0.0035828
1426	0.0033761
1438	0.0032118
1450	0.0046057
1462	0.0062858
1474	0.0070278
1486	0.005459
1498	0.0032383
1510	0.0017172
1522	0.0012826
1534	0.0010229
1546	0.0008639
1558	0.0007208
1570	0.0005989
1582	0.0004929
1594	0.0004717
1606	0.00053
1618	0.0006413
1630	0.0009752
1642	0.0014522
1654	0.0017755
1666	0.0016695
1678	0.0012137
1690	0.000742
1702	0.00053
1714	0.0004823
1726	0.0004452
1738	0.0004134
1750	0.0003498
1762	0.0002544
1774	0.0001749
1786	0.0001643
1798	0.0001749
1810	0.0001484
1822	0.0001484
1834	0.0001431
1846	0.0001272
1858	0.0001219
1870	0.0001272
1882	0.0001113
1894	0.0001166
1906	0.0001484
1918	0.0001431
1930	0.0001431
1942	0.0001272
1954	0.0001431
1966	0.0001537
1978	0.0002173
1990	0.0002279
2002	0.0001802
2014	0.000106
2026	8.48e-05
2038	3.71e-05
2050	4.77e-05
2062	4.24e-05
2074	2.65e-05
2086	4.77e-05
2098	5.3e-05
2110	3.71e-05
2122	4.77e-05
2134	1.59e-05
2146	3.71e-05
2158	3.71e-05
2170	4.24e-05
2182	2.12e-05
2194	3.71e-05
2206	3.18e-05
2218	2.65e-05
2230	4.24e-05
2242	4.77e-05
2254	5.3e-05
2266	5.3e-05
2278	6.36e-05
2290	0.0001113
2302	0.0001325
2314	6.89e-05
2326	9.01e-05
2338	7.42e-05
2350	9.54e-05
2362	0.000106
2374	9.01e-05
2386	0.0001219
2398	0.0001484
2410	8.48e-05
2422	9.54e-05
2434	9.01e-05
2446	7.95e-05
2458	9.01e-05
2470	5.83e-05
2482	0.0001007
2494	0.0001007
2506	0.0001007
2518	0.0001219
2530	8.48e-05
2542	0.0001325
2554	0.0002067
2566	0.0002438
2578	0.0002226
2590	0.0002014
2602	0.0002067
2614	0.0002173
2626	0.0002226
2638	0.0002279
2650	0.0002809
2662	0.0003392
2674	0.0004081
2686	0.0004823
2698	0.0005565
2710	0.0007685
2722	0.0008904
2734	0.000901
2746	0.0008321
2758	0.0009169
2770	0.001007
2782	0.0011713
2794	0.0013727
2806	0.0016536
2818	0.0019663
2830	0.0025228
2842	0.0036782
2854	0.0066091
2866	0.0122271
2878	0.0168805
2890	0.0176808
2902	0.0184334
2914	0.0210516
2926	0.0240302
2938	0.0286624
2950	0.0400309
2962	0.0522103
2974	0.0463909
2986	0.0287472
2998	0.0172515
3010	0.0153647
3022	0.0139019
3034	0.0098792
3046	0.0058512
3058	0.0037471
3070	0.0027401
3082	0.0020829
3094	0.0015582
3106	0.0012614
3118	0.0010865
3130	0.0009646
3142	0.000901
3154	0.0008745
3166	0.0008374
3178	0.0008321
3190	0.0008745
3202	0.0008109
3214	0.0007632
3226	0.0006572
3238	0.0006095
3250	0.0005088
3262	0.0004187
3274	0.0003869
3286	0.0003604
3298	0.0003127
3310	0.0002915
3322	0.0002756
3334	0.0003286
3346	0.0003127
3358	0.0003816
3370	0.000318
3382	0.0002279
3394	0.0002067
3406	0.0001537
3418	0.0001431
3430	0.0001802
3442	0.0001696
3454	9.54e-05
3466	5.3e-05
3478	0.0001219
3490	0.0001166
3502	2.65e-05
3514	4.77e-05
3526	6.36e-05
3538	8.48e-05
3550	5.83e-05
3562	7.42e-05
3574	0.000106
3586	0.0001272
3598	0.0001007
3610	5.3e-05
3622	9.01e-05
3634	7.42e-05
3646	9.54e-05
3658	0.0001166
3670	7.42e-05
3682	0.0001113
3694	0.0001484
3706	0.0001166
3718	0.0001537
3730	0.0001802
3742	0.0001219
3754	0.000106
3766	0.0001113
3778	9.01e-05
3790	0.0001696
3802	0.0001378
3814	0.000106
3826	9.54e-05
3838	0.0001537
