Infrared Spectrum: 2-Chloropropionyl chloride
Formula: C 3 H 4 Cl 2 O
CAS: 7623-09-8
State: gas
Instrument: HP-GC/MS/IRD
Origin: NIST Mass Spectrometry Data Center
1/CM	ABSORBANCE
550	0.005874
562	0.0061644
574	0.0023166
586	0.0017226
598	0.0012936
610	0.001716
622	0.0027192
634	0.0039864
646	0.005841
658	0.0075174
670	0.0103818
682	0.0183018
694	0.0295416
706	0.0319704
718	0.0216348
730	0.0126126
742	0.008712
754	0.0048048
766	0.0015972
778	0.0009438
790	0.0005874
802	0.0004158
814	0.0001782
826	0.0005478
838	0.0009174
850	0.0015246
862	0.0025806
874	0.0043692
886	0.0071082
898	0.0120846
910	0.0246444
922	0.0438702
934	0.048543
946	0.0304458
958	0.0109956
970	0.0067254
982	0.0088638
994	0.0140118
1006	0.015609
1018	0.0097548
1030	0.0036762
1042	0.002145
1054	0.0024816
1066	0.0039468
1078	0.0046662
1090	0.0051612
1102	0.0055506
1114	0.0060852
1126	0.0073194
1138	0.0064878
1150	0.0031482
1162	0.0012936
1174	0.000792
1186	0.0005808
1198	0.0005412
1210	0.0011748
1222	0.0024816
1234	0.0038808
1246	0.0036432
1258	0.0017754
1270	0.000528
1282	0.000726
1294	0.001386
1306	0.0017556
1318	0.0014784
1330	0.0008646
1342	0.0004818
1354	0.0006204
1366	0.0014454
1378	0.0030162
1390	0.003465
1402	0.0019338
1414	0.0010164
1426	0.0016236
1438	0.0035244
1450	0.005445
1462	0.0042768
1474	0.0020526
1486	0.0006732
1498	0.0002574
1510	7.92e-05
1522	4.62e-05
1534	4.62e-05
1546	2.64e-05
1558	1.98e-05
1570	3.96e-05
1582	7.92e-05
1594	6.6e-05
1606	9.24e-05
1618	0.0001122
1630	0.0001386
1642	0.0001848
1654	0.000231
1666	0.0002442
1678	0.000264
1690	0.0002904
1702	0.000363
1714	0.00066
1726	0.0014256
1738	0.0032208
1750	0.0067782
1762	0.0154836
1774	0.0360822
1786	0.0613074
1798	0.0639606
1810	0.042669
1822	0.024684
1834	0.0180642
1846	0.0156288
1858	0.014223
1870	0.0109956
1882	0.0062304
1894	0.0029502
1906	0.0016698
1918	0.0012606
1930	0.0011022
1942	0.0008184
1954	0.0006006
1966	0.000429
1978	0.0003234
1990	0.0002706
2002	0.0002706
2014	0.0003498
2026	0.0002838
2038	0.0003168
2050	0.000264
2062	0.000231
2074	0.0001848
2086	0.000198
2098	0.0002574
2110	0.0004554
2122	0.0007656
2134	0.0009174
2146	0.0008316
2158	0.0004488
2170	0.0002442
2182	0.0001782
2194	0.0001716
2206	0.0001386
2218	0.0001848
2230	0.0002178
2242	0.0002508
2254	0.0002046
2266	0.0002178
2278	0.0001914
2290	0.0002178
2302	0.0002376
2314	0.0003696
2326	0.0003762
2338	0.0003498
2350	0.0003102
2362	0.0004356
2374	0.000396
2386	0.0003234
2398	0.0002574
2410	0.000198
2422	0.000198
2434	0.0002244
2446	0.0002574
2458	0.0003102
2470	0.0002904
2482	0.0002376
2494	0.000231
2506	0.000231
2518	0.0002508
2530	0.0002904
2542	0.0002838
2554	0.0002508
2566	0.0002046
2578	0.0001782
2590	0.0002376
2602	0.0002178
2614	0.0002178
2626	0.0002046
2638	0.0001848
2650	0.0002376
2662	0.000231
2674	0.0002178
2686	0.0003102
2698	0.0003432
2710	0.0003564
2722	0.0003498
2734	0.0002112
2746	0.0003168
2758	0.0002508
2770	0.000297
2782	0.0003432
2794	0.0003564
2806	0.0003432
2818	0.000396
2830	0.0004554
2842	0.0004884
2854	0.0004818
2866	0.0007392
2878	0.0011022
2890	0.0011484
2902	0.0010692
2914	0.0010494
2926	0.0015906
2938	0.0028248
2950	0.0031416
2962	0.0025476
2974	0.0022638
2986	0.0038412
2998	0.005577
3010	0.0049236
3022	0.0023826
3034	0.0009306
3046	0.0004224
3058	0.0003498
3070	0.0003498
3082	0.0002574
3094	0.0003036
3106	0.0003036
3118	0.000297
3130	0.0003234
3142	0.0002706
3154	0.0003168
3166	0.0001782
3178	0.0003168
3190	0.0002574
3202	0.0003762
3214	0.0002772
3226	0.0003168
3238	0.000363
3250	0.0002772
3262	0.0002904
3274	0.0003234
3286	0.000297
3298	0.0003366
3310	0.000231
3322	0.0001782
3334	0.0003036
3346	0.00033
3358	0.0002442
3370	0.000231
3382	0.0003036
3394	0.0002178
3406	0.000198
3418	0.0002112
3430	0.0002442
3442	0.000231
3454	0.000264
3466	0.0002904
3478	0.0002706
3490	0.0004158
3502	0.0003696
3514	0.000528
3526	0.0006468
3538	0.0009174
3550	0.0012408
3562	0.0014718
3574	0.0013266
3586	0.0010758
3598	0.0009438
3610	0.0008052
3622	0.0007854
3634	0.0008514
3646	0.0006996
3658	0.0005346
3670	0.0005082
3682	0.0004818
3694	0.0004224
3706	0.0004818
3718	0.0003828
3730	0.0003894
3742	0.0003762
3754	0.000363
3766	0.000396
3778	0.0003564
3790	0.0002772
3802	0.0002904
3814	0.00033
3826	0.0004026
3838	0.0003696
