Infrared Spectrum: 2,4,6,8-TETRAETHYL-2,4,6,8-TETRAMETHYLCYCLOTETRASILOXANE
Formula: C12 H32 O4 Si4
CAS: 7623-01-0
State: SOLUTION (5% IN CCl4 FOR 3800-1300, 2% IN CS2 FOR 1300-620, AND 5% IN CCl4 FOR 620-250 CM^-^1) VS. SOLVENT
Boiling point: 110 C
Class: COBLENTZ III
Instrument: PERKIN-ELMER 521 (GRATING)
Instrument parameters: FILTERS AT 3150, 2500, 2000, 1150, 700, 410. GRATING CHANGES: 2000, 630 CM^-^1
Sampling: TRANSMISSION
Path length: 0.011 CM, 0.011 CM, AND 0.021 CM
Resolution: 2
Origin: DOW CORNING CORP.
1/CM	TRANSMITTANCE
253.372	0.901
262.594	0.881
271.816	0.851
281.038	0.83
290.26	0.818
299.482	0.792
308.703	0.765
317.925	0.747
327.147	0.693
336.369	0.637
345.591	0.527
354.813	0.354
364.035	0.251
373.257	0.251
382.479	0.274
391.701	0.346
400.923	0.486
410.144	0.455
419.366	0.425
428.588	0.556
437.81	0.723
447.032	0.814
456.254	0.83
465.476	0.845
474.698	0.838
483.92	0.846
493.142	0.869
502.364	0.881
511.585	0.879
520.807	0.864
530.029	0.81
539.251	0.701
548.473	0.59
557.695	0.557
566.917	0.604
576.139	0.709
585.361	0.798
594.583	0.844
603.805	0.867
613.027	0.867
622.248	0.868
631.47	0.868
640.692	0.868
649.914	0.868
659.136	0.749
668.358	0.822
677.58	0.853
686.802	0.87
696.024	0.893
705.246	0.898
714.468	0.881
723.689	0.807
732.911	0.711
742.133	0.629
751.355	0.383
760.577	0.479
769.799	0.487
779.021	0.408
788.243	0.304
797.465	0.322
806.687	0.612
815.909	0.623
825.13	0.694
834.352	0.779
843.574	0.84
852.796	0.874
862.018	0.881
871.24	0.898
880.462	0.908
889.684	0.911
898.906	0.915
908.128	0.918
917.35	0.918
926.571	0.918
935.793	0.914
945.015	0.892
954.237	0.783
963.459	0.844
972.681	0.889
981.903	0.864
991.125	0.806
1000.35	0.639
1009.57	0.465
1018.79	0.615
1028.01	0.646
1037.23	0.535
1046.46	0.381
1055.68	0.159
1064.9	0.061
1074.12	0.045
1083.34	0.051
1092.57	0.113
1101.79	0.279
1111.01	0.467
1120.23	0.615
1129.45	0.697
1138.68	0.77
1147.9	0.819
1157.12	0.863
1166.34	0.885
1175.56	0.899
1184.78	0.9
1194.01	0.9
1203.23	0.892
1212.45	0.877
1221.67	0.824
1230.89	0.687
1240.12	0.607
1249.34	0.4469
1258.56	0.244
1267.78	0.812
1277	0.876
1286.23	0.879
1295.45	0.879
1304.67	0.879
1313.89	0.879
1323.11	0.879
1332.34	0.879
1341.56	0.879
1350.78	0.879
1360	0.874
1369.22	0.846
1378.45	0.815
1387.67	0.811
1396.89	0.764
1406.11	0.655
1415.33	0.664
1424.55	0.787
1433.78	0.829
1443	0.822
1452.22	0.6779
1461.44	0.608
1470.66	0.808
1479.89	0.863
1489.11	0.882
1498.33	0.886
1507.55	0.885
1516.77	0.884
1526	0.882
1535.22	0.877
1544.44	0.876
1553.66	0.879
1562.88	0.883
1572.11	0.886
1581.33	0.899
1590.55	0.9
1599.77	0.897
1608.99	0.894
1618.21	0.897
1627.44	0.9
1636.66	0.901
1645.88	0.906
1655.1	0.908
1664.32	0.907
1673.55	0.907
1682.77	0.907
1691.99	0.907
1701.21	0.909
1710.43	0.91
1719.66	0.911
1728.88	0.91
1738.1	0.91
1747.32	0.91
1756.54	0.911
1765.77	0.914
1774.99	0.915
1784.21	0.919
1793.43	0.922
1802.65	0.921
1811.87	0.923
1821.1	0.923
1830.32	0.923
1839.54	0.924
1848.76	0.924
1857.98	0.922
1867.21	0.921
1876.43	0.919
1885.65	0.918
1894.87	0.918
1904.09	0.918
1913.32	0.919
1922.54	0.919
1931.76	0.923
1940.98	0.927
1950.2	0.93
1959.43	0.931
1968.65	0.931
1977.87	0.931
1987.09	0.932
1996.31	0.932
2005.53	0.932
2014.76	0.932
2023.98	0.932
2033.2	0.932
2042.42	0.932
2051.64	0.933
2060.87	0.933
2070.09	0.933
2079.31	0.933
2088.53	0.933
2097.75	0.933
2106.98	0.933
2116.2	0.933
2125.42	0.933
2134.64	0.933
2143.86	0.933
2153.09	0.933
2162.31	0.933
2171.53	0.932
2180.75	0.932
2189.97	0.932
2199.2	0.932
2208.42	0.932
2217.64	0.932
2226.86	0.932
2236.08	0.931
2245.3	0.931
2254.53	0.931
2263.75	0.931
2272.97	0.933
2282.19	0.934
2291.41	0.934
2300.64	0.934
2309.86	0.9342
2319.08	0.934
2328.3	0.934
2337.52	0.934
2346.75	0.9339
2355.97	0.933
2365.19	0.933
2374.41	0.932
2383.63	0.932
2392.86	0.932
2402.08	0.931
2411.3	0.931
2420.52	0.931
2429.74	0.93
2438.96	0.927
2448.19	0.9257
2457.41	0.927
2466.63	0.927
2475.85	0.927
2485.07	0.929
2494.3	0.929
2503.52	0.93
2512.74	0.931
2521.96	0.931
2531.18	0.93
2540.41	0.929
2549.63	0.927
2558.85	0.9267
2568.07	0.926
2577.29	0.9256
2586.52	0.925
2595.74	0.924
2604.96	0.9234
2614.18	0.9224
2623.4	0.922
2632.62	0.922
2641.85	0.922
2651.07	0.921
2660.29	0.9192
2669.51	0.918
2678.73	0.917
2687.96	0.917
2697.18	0.9169
2706.4	0.916
2715.62	0.915
2724.84	0.9041
2734.07	0.9014
2743.29	0.911
2752.51	0.911
2761.73	0.91
2770.95	0.9047
2780.18	0.8852
2789.4	0.8603
2798.62	0.855
2807.84	0.8576
2817.06	0.856
2826.29	0.853
2835.51	0.856
2844.73	0.853
2853.95	0.8222
2863.17	0.7171
2872.39	0.3466
2881.62	0.4496
2890.84	0.4982
2900.06	0.4876
2909.28	0.4146
2918.5	0.4825
2927.73	0.5175
2936.95	0.4359
2946.17	0.3841
2955.39	0.1392
2964.61	0.2516
2973.84	0.543
2983.06	0.7481
2992.28	0.8186
3001.5	0.8529
3010.72	0.875
3019.95	0.889
3029.17	0.8932
3038.39	0.901
3047.61	0.903
3056.83	0.905
3066.05	0.906
3075.28	0.906
3084.5	0.907
3093.72	0.908
3102.94	0.91
3112.16	0.9128
3121.39	0.9203
3130.61	0.923
3139.83	0.923
3149.05	0.9248
3158.27	0.926
3167.5	0.929
3176.72	0.931
3185.94	0.932
3195.16	0.932
3204.38	0.9322
3213.61	0.9332
3222.83	0.934
3232.05	0.935
3241.27	0.9357
3250.49	0.937
3259.71	0.938
3268.94	0.938
3278.16	0.938
3287.38	0.938
3296.6	0.938
3305.82	0.938
3315.05	0.938
3324.27	0.938
3333.49	0.938
3342.71	0.939
3351.93	0.939
3361.16	0.939
3370.38	0.9389
3379.6	0.937
3388.82	0.937
3398.04	0.937
3407.27	0.9363
3416.49	0.935
3425.71	0.935
3434.93	0.935
3444.15	0.935
3453.37	0.935
3462.6	0.935
3471.82	0.935
3481.04	0.935
3490.26	0.935
3499.48	0.935
3508.71	0.935
3517.93	0.934
3527.15	0.933
3536.37	0.9329
3545.59	0.932
3554.82	0.931
3564.04	0.9307
3573.26	0.927
3582.48	0.927
3591.7	0.93
3600.93	0.931
3610.15	0.932
3619.37	0.932
3628.59	0.931
3637.81	0.929
3647.04	0.926
3656.26	0.925
3665.48	0.923
3674.7	0.922
3683.92	0.923
3693.14	0.922
3702.37	0.922
3711.59	0.922
3720.81	0.922
3730.03	0.925
3739.25	0.9277
3748.48	0.9304
3757.7	0.932
3766.92	0.932
3776.14	0.931
3785.36	0.931
3794.59	0.93
