Infrared Spectrum: 5-Methyl-1,4-hexadiene
Formula: C 7 H 12
CAS: 763-88-2
State: gas
Instrument: HP-GC/MS/IRD
Origin: NIST Mass Spectrometry Data Center
1/CM	ABSORBANCE
550	0.0005918
562	0.0001606
574	0.0001298
586	0.0001452
598	0.0003322
610	0.0006974
622	0.0009218
634	0.0011242
646	0.0010538
658	0.0007678
670	0.000319
682	0.000264
694	0.0001738
706	6.38e-05
718	2.2e-06
730	2.2e-05
742	0.0002332
754	0.0003542
766	0.000682
778	0.0007854
790	0.001133
802	0.0015752
814	0.0023144
826	0.0026708
838	0.0025828
850	0.002112
862	0.001826
874	0.0022088
886	0.003773
898	0.0075174
910	0.0110682
922	0.0089078
934	0.005236
946	0.0035596
958	0.0029876
970	0.0034254
982	0.0047234
994	0.0050754
1006	0.0037774
1018	0.00231
1030	0.0015906
1042	0.0012518
1054	0.0012078
1066	0.0011088
1078	0.0013794
1090	0.0020526
1102	0.0029084
1114	0.0030624
1126	0.0020108
1138	0.0010912
1150	0.0007766
1162	0.0008998
1174	0.0010956
1186	0.001276
1198	0.0011264
1210	0.0009372
1222	0.0010494
1234	0.001078
1246	0.000913
1258	0.0010296
1270	0.0014366
1282	0.0015488
1294	0.001188
1306	0.0010472
1318	0.0009372
1330	0.000968
1342	0.0013816
1354	0.0019998
1366	0.0030778
1378	0.0042548
1390	0.0044858
1402	0.003498
1414	0.0033792
1426	0.0040084
1438	0.0047454
1450	0.0047718
1462	0.0038896
1474	0.0027192
1486	0.0017776
1498	0.0012496
1510	0.0010934
1522	0.0010956
1534	0.0010494
1546	0.0010472
1558	0.0010714
1570	0.0009416
1582	0.000858
1594	0.0009812
1606	0.0013134
1618	0.002321
1630	0.0046794
1642	0.0052844
1654	0.0032472
1666	0.0019822
1678	0.0013772
1690	0.0006908
1702	0.0004532
1714	0.0003454
1726	0.0002266
1738	0.0002486
1750	0.0002134
1762	0.00022
1774	0.0001936
1786	0.0002332
1798	0.0003982
1810	0.0007304
1822	0.0010978
1834	0.0010362
1846	0.0006116
1858	0.0003476
1870	0.000209
1882	0.0001276
1894	0.000154
1906	0.0001188
1918	9.68e-05
1930	0.0001232
1942	0.000121
1954	0.0001826
1966	0.0001958
1978	0.0002486
1990	0.0001738
2002	9.46e-05
2014	8.58e-05
2026	3.96e-05
2038	1.76e-05
2050	1.76e-05
2062	2.86e-05
2074	3.96e-05
2086	2.2e-05
2098	2.42e-05
2110	1.54e-05
2122	2.2e-05
2134	6.82e-05
2146	6.16e-05
2158	6.16e-05
2170	6.82e-05
2182	6.38e-05
2194	7.92e-05
2206	3.74e-05
2218	4.4e-05
2230	4.4e-06
2242	1.76e-05
2254	2.2e-06
2266	2.2e-05
2278	8.8e-06
2290	1.32e-05
2302	2.42e-05
2314	3.08e-05
2326	5.06e-05
2338	6.6e-05
2350	5.28e-05
2362	0.0001166
2374	9.9e-05
2386	6.16e-05
2398	6.16e-05
2410	6.82e-05
2422	5.5e-05
2434	3.08e-05
2446	5.94e-05
2458	4.4e-05
2470	4.84e-05
2482	4.84e-05
2494	2.86e-05
2506	4.62e-05
2518	0
2530	2.64e-05
2542	4.18e-05
2554	9.02e-05
2566	1.54e-05
2578	7.04e-05
2590	2.2e-06
2602	3.08e-05
2614	4.18e-05
2626	2.64e-05
2638	2.86e-05
2650	3.3e-05
2662	4.4e-05
2674	8.36e-05
2686	0.000143
2698	0.0002288
2710	0.000385
2722	0.0005456
2734	0.0009152
2746	0.0010186
2758	0.000737
2770	0.0007062
2782	0.0007766
2794	0.0010626
2806	0.00154
2818	0.0023122
2830	0.0035156
2842	0.0052536
2854	0.0080344
2866	0.0114004
2878	0.0132088
2890	0.0142714
2902	0.0161832
2914	0.019899
2926	0.022
2938	0.0192456
2950	0.0145024
2962	0.014267
2974	0.0165374
2986	0.0171028
2998	0.0144254
3010	0.0115412
3022	0.0089804
3034	0.0068728
3046	0.005984
3058	0.0057376
3070	0.006204
3082	0.007623
3094	0.0066286
3106	0.0032868
3118	0.0018062
3130	0.0011594
3142	0.000792
3154	0.0005192
3166	0.0003696
3178	0.000209
3190	0.0001518
3202	0.0001188
3214	0.0001276
3226	9.9e-05
3238	0.0001056
3250	0.0001452
3262	8.58e-05
3274	5.72e-05
3286	6.38e-05
3298	6.6e-05
3310	5.06e-05
3322	8.36e-05
3334	0.0001144
3346	7.26e-05
3358	5.72e-05
3370	7.04e-05
3382	8.36e-05
3394	8.58e-05
3406	9.68e-05
3418	3.08e-05
3430	0.0001254
3442	7.48e-05
3454	8.8e-05
3466	9.46e-05
3478	2.2e-06
3490	5.06e-05
3502	4.18e-05
3514	0.0001034
3526	0.0001144
3538	4.4e-05
3550	5.28e-05
3562	5.28e-05
3574	5.28e-05
3586	3.96e-05
3598	5.94e-05
3610	0.0001122
3622	5.72e-05
3634	6.16e-05
3646	5.06e-05
3658	3.96e-05
3670	0.0001386
3682	5.28e-05
3694	5.72e-05
3706	0.00011
3718	9.68e-05
3730	9.02e-05
3742	9.24e-05
3754	0.0001254
3766	0.0001364
3778	4.62e-05
3790	0.000143
3802	0.0001386
3814	0.0001254
3826	0.0001958
3838	0.0001694
