Infrared Spectrum: DIETHYLENEGLYCOL DI-ISOBUTYRATE
Formula: C12 H22 O5
CAS: 76343-97-0
Boiling point: 178-180 C AT 40 mmHg
Class: COBLENTZ
Instrument: Not specified, most likely a prism, grating, or hybrid spectrometer.
Sampling: TRANSMISSION
Path length: SMEAR
Resolution: 4
Origin: TENNESSEE EASTMAN COMPANY, RESEARCH LABORATORIES
MICROMETERS	TRANSMITTANCE
2.198	0.929
2.23894	0.928
2.27987	0.912
2.32081	0.905
2.36175	0.912
2.40268	0.919
2.44362	0.919
2.48456	0.917
2.52549	0.921
2.56643	0.929
2.60737	0.931
2.6483	0.929
2.68924	0.929
2.73018	0.931
2.77111	0.91
2.81205	0.912
2.85299	0.905
2.89392	0.9
2.93486	0.878
2.9758	0.902
3.01673	0.907
3.05767	0.91
3.09861	0.912
3.13954	0.916
3.18048	0.91
3.22141	0.917
3.26235	0.917
3.30329	0.898
3.34422	0.633
3.38516	0.248
3.4261	0.416
3.46703	0.409
3.50797	0.698
3.54891	0.803
3.58984	0.857
3.63078	0.892
3.67172	0.897
3.71265	0.914
3.75359	0.934
3.79453	0.943
3.83546	0.948
3.8764	0.952
3.91734	0.946
3.95827	0.95
3.99921	0.952
4.04015	0.953
4.08108	0.958
4.12202	0.962
4.16296	0.964
4.20389	0.964
4.24483	0.953
4.28577	0.94
4.3267	0.938
4.36764	0.945
4.40858	0.957
4.44951	0.962
4.49045	0.965
4.53139	0.967
4.57232	0.967
4.61326	0.967
4.6542	0.97
4.69513	0.97
4.73607	0.97
4.77701	0.969
4.81794	0.965
4.85888	0.964
4.89982	0.958
4.94075	0.955
4.98169	0.955
5.02262	0.958
5.06356	0.952
5.1045	0.953
5.14543	0.957
5.18637	0.962
5.22731	0.965
5.26824	0.964
5.30918	0.962
5.35012	0.962
5.39105	0.96
5.43199	0.96
5.47293	0.95
5.51386	0.934
5.5548	0.914
5.59574	0.861
5.63667	0.784
5.67761	0.585
5.71855	0.169
5.75948	0.034
5.80042	0.118
5.84136	0.404
5.88229	0.585
5.92323	0.695
5.96417	0.78
6.0051	0.832
6.04604	0.869
6.08698	0.878
6.12791	0.892
6.16885	0.902
6.20979	0.914
6.25072	0.931
6.29166	0.94
6.3326	0.941
6.37353	0.933
6.41447	0.928
6.45541	0.924
6.49634	0.904
6.53728	0.895
6.57822	0.876
6.61915	0.869
6.66009	0.849
6.70103	0.773
6.74196	0.59
6.7829	0.289
6.82383	0.378
6.86477	0.424
6.90571	0.542
6.94664	0.648
6.98758	0.746
7.02852	0.789
7.06945	0.78
7.11039	0.719
7.15133	0.52
7.19226	0.373
7.2332	0.498
7.27414	0.614
7.31507	0.597
7.35601	0.597
7.39695	0.571
7.43788	0.47
7.47882	0.398
7.51976	0.57
7.56069	0.642
7.60163	0.688
7.64257	0.702
7.6835	0.614
7.72444	0.554
7.76538	0.541
7.80631	0.501
7.84725	0.438
7.88819	0.347
7.92912	0.267
7.97006	0.253
8.011	0.294
8.05193	0.356
8.09287	0.416
8.13381	0.452
8.17474	0.428
8.21568	0.345
8.25662	0.244
8.29755	0.138
8.33849	0.068
8.37943	0.058
8.42036	0.106
8.4613	0.22
8.50224	0.25
8.54317	0.102
8.58411	0.047
8.62505	0.054
8.66598	0.097
8.70692	0.104
8.74785	0.078
8.78879	0.071
8.82973	0.087
8.87066	0.113
8.9116	0.143
8.95254	0.186
8.99347	0.226
9.03441	0.26
9.07535	0.241
9.11628	0.226
9.15722	0.232
9.19816	0.215
9.23909	0.202
9.28003	0.261
9.32097	0.363
9.3619	0.479
9.40284	0.563
9.44378	0.582
9.48471	0.559
9.52565	0.537
9.56659	0.527
9.60752	0.53
9.64846	0.57
9.6894	0.607
9.73033	0.652
9.77127	0.702
9.81221	0.75
9.85314	0.773
9.89408	0.78
9.93502	0.761
9.97595	0.739
10.0169	0.739
10.0578	0.758
10.0988	0.784
10.1397	0.809
10.1806	0.827
10.2216	0.83
10.2625	0.813
10.3034	0.777
10.3444	0.717
10.3853	0.671
10.4263	0.642
10.4672	0.636
10.5081	0.643
10.5491	0.669
10.59	0.688
10.6309	0.705
10.6719	0.715
10.7128	0.717
10.7537	0.717
10.7947	0.736
10.8356	0.755
10.8766	0.779
10.9175	0.784
10.9584	0.791
10.9994	0.809
11.0403	0.832
11.0812	0.844
11.1222	0.856
11.1631	0.869
11.2041	0.875
11.245	0.866
11.2859	0.835
11.3269	0.799
11.3678	0.763
11.4087	0.715
11.4497	0.683
11.4906	0.671
11.5315	0.678
11.5725	0.702
11.6134	0.729
11.6544	0.75
11.6953	0.767
11.7362	0.772
11.7772	0.772
11.8181	0.765
11.859	0.772
11.9	0.794
11.9409	0.811
11.9818	0.833
12.0228	0.845
12.0637	0.852
12.1047	0.863
12.1456	0.866
12.1865	0.869
12.2275	0.875
12.2684	0.875
12.3093	0.878
12.3503	0.88
12.3912	0.88
12.4321	0.881
12.4731	0.883
12.514	0.886
12.555	0.89
12.5959	0.89
12.6368	0.895
12.6778	0.898
12.7187	0.902
12.7596	0.909
12.8006	0.909
12.8415	0.904
12.8825	0.9
12.9234	0.888
12.9643	0.866
13.0053	0.842
13.0462	0.815
13.0871	0.784
13.1281	0.765
13.169	0.751
13.2099	0.746
13.2509	0.743
13.2918	0.753
13.3328	0.779
13.3737	0.804
13.4146	0.835
13.4556	0.851
13.4965	0.866
13.5374	0.873
13.5784	0.88
13.6193	0.881
13.6602	0.881
13.7012	0.881
13.7421	0.883
13.7831	0.883
13.824	0.878
13.8649	0.873
13.9059	0.873
13.9468	0.873
13.9877	0.869
14.0287	0.868
14.0696	0.866
14.1105	0.863
14.1515	0.857
14.1924	0.854
14.2334	0.851
14.2743	0.847
14.3152	0.844
14.3562	0.84
14.3971	0.837
14.438	0.832
14.479	0.825
14.5199	0.821
14.5609	0.813
14.6018	0.811
14.6427	0.804
14.6837	0.801
14.7246	0.796
14.7655	0.791
14.8065	0.787
14.8474	0.782
14.8883	0.777
14.9293	0.768
14.9702	0.753
15.0112	0.75
15.0521	0.746
15.093	0.741
15.134	0.734
15.1749	0.722
15.2158	0.717
15.2568	0.714
15.2977	0.705
15.3386	0.695
15.3796	0.693
15.4205	0.688
15.4615	0.686
15.5024	0.684
15.5433	0.681
15.5843	0.678
15.6252	0.676
15.6661	0.674
15.7071	0.672
15.748	0.671
15.7889	0.671
15.8299	0.671
15.8708	0.671
15.9118	0.671
15.9527	0.671
15.9936	0.671
