Infrared Spectrum: PROPIONIC ACID, 3-MERCAPTO-2-(MERCAPTOMETHYL)-
Formula: C4 H8 O2 S2
CAS: 7634-96-0
State: SOLID (1 mg / 650 mg KBr DISC)
Class: COBLENTZ III
Instrument: PERKIN-ELMER 521 (GRATING)
Instrument parameters: FILTERS AT 3130, 2475, 2000, 620 CM ^-^1, GRATING CHANGES AT 2000, 620 CM^-^1
Sampling: TRANSMISSION
Resolution: 4
Origin: SOUTHERN RES. INSTITUTE
1/CM	TRANSMITTANCE
238.371	0.229
247.498	0.234
256.624	0.238
265.751	0.277
274.877	0.36
284.004	0.432
293.131	0.477
302.257	0.528
311.384	0.585
320.51	0.593
329.637	0.573
338.764	0.509
347.89	0.566
357.017	0.731
366.144	0.778
375.27	0.804
384.397	0.822
393.523	0.808
402.65	0.751
411.777	0.843
420.903	0.871
430.03	0.875
439.156	0.879
448.283	0.885
457.41	0.889
466.536	0.893
475.663	0.896
484.789	0.901
493.916	0.901
503.043	0.896
512.169	0.876
521.296	0.834
530.422	0.777
539.549	0.871
548.676	0.885
557.802	0.897
566.929	0.896
576.055	0.893
585.182	0.889
594.309	0.882
603.435	0.877
612.562	0.858
621.689	0.844
630.815	0.824
639.942	0.725
649.068	0.703
658.195	0.852
667.322	0.812
676.448	0.818
685.575	0.885
694.701	0.887
703.828	0.885
712.955	0.867
722.081	0.834
731.208	0.867
740.334	0.874
749.461	0.854
758.588	0.831
767.714	0.756
776.841	0.764
785.967	0.731
795.094	0.732
804.221	0.761
813.347	0.727
822.474	0.823
831.6	0.845
840.727	0.84
849.854	0.821
858.98	0.803
868.107	0.77
877.234	0.739
886.36	0.707
895.487	0.678
904.613	0.606
913.74	0.517
922.867	0.458
931.993	0.448
941.12	0.503
950.246	0.654
959.373	0.717
968.5	0.749
977.626	0.773
986.753	0.777
995.879	0.773
1005.01	0.744
1014.13	0.722
1023.26	0.7
1032.39	0.714
1041.51	0.747
1050.64	0.789
1059.77	0.804
1068.89	0.792
1078.02	0.762
1087.15	0.738
1096.27	0.768
1105.4	0.809
1114.53	0.808
1123.65	0.797
1132.78	0.786
1141.91	0.765
1151.03	0.73
1160.16	0.675
1169.28	0.633
1178.41	0.609
1187.54	0.493
1196.66	0.423
1205.79	0.583
1214.92	0.665
1224.04	0.581
1233.17	0.429
1242.3	0.285
1251.42	0.448
1260.55	0.637
1269.68	0.631
1278.8	0.462
1287.93	0.321
1297.06	0.49
1306.18	0.341
1315.31	0.373
1324.44	0.598
1333.56	0.801
1342.69	0.778
1351.82	0.683
1360.94	0.548
1370.07	0.7
1379.2	0.761
1388.32	0.76
1397.45	0.739
1406.58	0.67
1415.7	0.588
1424.83	0.409
1433.96	0.295
1443.08	0.436
1452.21	0.687
1461.34	0.747
1470.46	0.803
1479.59	0.822
1488.72	0.85
1497.84	0.856
1506.97	0.854
1516.1	0.843
1525.22	0.839
1534.35	0.831
1543.48	0.829
1552.6	0.815
1561.73	0.811
1570.86	0.793
1579.98	0.786
1589.11	0.776
1598.24	0.768
1607.36	0.743
1616.49	0.712
1625.62	0.681
1634.74	0.654
1643.87	0.636
1653	0.605
1662.12	0.567
1671.25	0.509
1680.37	0.405
1689.5	0.252
1698.63	0.085
1707.75	0.104
1716.88	0.242
1726.01	0.414
1735.13	0.542
1744.26	0.663
1753.39	0.729
1762.51	0.78
1771.64	0.801
1780.77	0.826
1789.89	0.842
1799.02	0.85
1808.15	0.875
1817.27	0.884
1826.4	0.888
1835.53	0.895
1844.65	0.898
1853.78	0.898
1862.91	0.896
1872.03	0.896
1881.16	0.898
1890.29	0.898
1899.41	0.896
1908.54	0.894
1917.67	0.895
1926.79	0.897
1935.92	0.896
1945.05	0.894
1954.17	0.889
1963.3	0.887
1972.43	0.886
1981.55	0.888
1990.68	0.889
1999.81	0.885
2008.93	0.882
2018.06	0.884
2027.19	0.884
2036.31	0.882
2045.44	0.878
2054.57	0.878
2063.69	0.875
2072.82	0.872
2081.95	0.869
2091.07	0.866
2100.2	0.866
2109.33	0.863
2118.45	0.859
2127.58	0.856
2136.71	0.853
2145.83	0.85
2154.96	0.847
2164.09	0.847
2173.21	0.85
2182.34	0.85
2191.46	0.85
2200.59	0.846
2209.72	0.84
2218.84	0.837
2227.97	0.831
2237.1	0.829
2246.22	0.828
2255.35	0.827
2264.48	0.823
2273.6	0.818
2282.73	0.812
2291.86	0.808
2300.98	0.803
2310.11	0.799
2319.24	0.796
2328.36	0.786
2337.49	0.777
2346.62	0.77
2355.74	0.763
2364.87	0.76
2374	0.761
2383.12	0.76
2392.25	0.752
2401.38	0.742
2410.5	0.734
2419.63	0.723
2428.76	0.715
2437.88	0.71
2447.01	0.701
2456.14	0.684
2465.26	0.672
2474.39	0.663
2483.52	0.654
2492.64	0.643
2501.77	0.63
2510.9	0.614
2520.02	0.605
2529.15	0.591
2538.28	0.576
2547.4	0.567
2556.53	0.571
2565.66	0.568
2574.78	0.524
2583.91	0.544
2593.04	0.561
2602.16	0.558
2611.29	0.551
2620.42	0.548
2629.54	0.55
2638.67	0.553
2647.8	0.554
2656.92	0.555
2666.05	0.554
2675.18	0.547
2684.3	0.538
2693.43	0.545
2702.55	0.564
2711.68	0.569
2720.81	0.565
2729.93	0.557
2739.06	0.555
2748.19	0.55
2757.31	0.544
2766.44	0.54
2775.57	0.543
2784.69	0.547
2793.82	0.552
2802.95	0.552
2812.07	0.548
2821.2	0.533
2830.33	0.515
2839.45	0.5
2848.58	0.49
2857.71	0.477
2866.83	0.474
2875.96	0.474
2885.09	0.471
2894.21	0.465
2903.34	0.45
2912.47	0.442
2921.59	0.436
2930.72	0.433
2939.85	0.431
2948.97	0.433
2958.1	0.435
2967.23	0.443
2976.35	0.446
2985.48	0.455
2994.61	0.457
3003.73	0.451
3012.86	0.443
3021.99	0.439
3031.11	0.442
3040.24	0.449
3049.37	0.461
3058.49	0.467
3067.62	0.47
3076.75	0.471
3085.87	0.474
3095	0.477
3104.13	0.492
3113.25	0.502
3122.38	0.516
3131.51	0.53
3140.63	0.547
3149.76	0.561
3158.89	0.565
3168.01	0.581
3177.14	0.589
3186.27	0.6
3195.39	0.611
3204.52	0.627
3213.64	0.639
3222.77	0.652
3231.9	0.662
3241.02	0.671
3250.15	0.681
3259.28	0.69
3268.4	0.698
3277.53	0.706
3286.66	0.711
3295.78	0.714
3304.91	0.719
3314.04	0.721
3323.16	0.72
3332.29	0.719
3341.42	0.721
3350.54	0.722
3359.67	0.719
3368.8	0.717
3377.92	0.713
3387.05	0.712
3396.18	0.709
3405.3	0.707
3414.43	0.705
3423.56	0.704
3432.68	0.704
3441.81	0.706
3450.94	0.707
3460.06	0.71
3469.19	0.713
3478.32	0.716
3487.44	0.72
3496.57	0.724
3505.7	0.73
3514.82	0.734
3523.95	0.743
3533.08	0.75
3542.2	0.757
3551.33	0.762
3560.46	0.766
3569.58	0.77
3578.71	0.777
3587.84	0.789
3596.96	0.797
3606.09	0.802
3615.22	0.812
3624.34	0.818
3633.47	0.824
3642.6	0.829
3651.72	0.832
3660.85	0.834
3669.98	0.835
3679.1	0.833
3688.23	0.834
3697.36	0.838
3706.48	0.837
3715.61	0.835
3724.73	0.833
3733.86	0.831
3742.99	0.831
3752.11	0.832
3761.24	0.834
3770.37	0.836
3779.49	0.836
3788.62	0.834
3797.75	0.833
