Infrared Spectrum: Boron trifluoride
Formula: F3 B
CAS: 7637-07-2
State: GAS (100 mmHg, N2 ADDED, TOTAL PRESSURE 600 mmHg)
Class: COBLENTZ
Instrument: DOW KBr FOREPRISM-GRATING
Instrument parameters: GRATING CHANGED AT 5.0, 7.5, 15.0 MICRON
Sampling: TRANSMISSION
Path length: 5 CM
Resolution: 2
Origin: DOW CHEMICAL COMPANY
1/CM	TRANSMITTANCE
392	0.8314
401	0.8296
410	0.8215
419	0.8049
428	0.7778
437	0.7155
446	0.5999
455	0.3589
464	0.368
473	0.5685
482	0.2087
491	0.3574
500	0.2769
509	0.4089
518	0.5704
527	0.7211
536	0.7275
545	0.738
554	0.7534
563	0.7586
572	0.7586
581	0.7676
590	0.7668
599	0.7658
608	0.7684
617	0.7691
626	0.7672
635	0.7575
644	0.6831
653	0.4715
662	0.2992
671	0.3179
680	0.2284
689	0.0241
698	0.2465
707	0.1587
716	0.1691
725	0.3559
734	0.4449
743	0.5065
752	0.7004
761	0.7871
770	0.8031
779	0.8008
788	0.7862
797	0.7568
806	0.6724
815	0.6283
824	0.627
833	0.6914
842	0.7584
851	0.7675
860	0.7706
869	0.7711
878	0.7682
887	0.739
896	0.6644
905	0.5716
914	0.5918
923	0.6117
932	0.5924
941	0.6051
950	0.6489
959	0.6651
968	0.7475
977	0.7708
986	0.7864
995	0.7921
1004	0.7875
1013	0.7658
1022	0.7272
1031	0.7522
1040	0.7661
1049	0.7669
1058	0.7761
1067	0.7871
1076	0.7833
1085	0.7785
1094	0.7781
1103	0.7805
1112	0.7849
1121	0.7858
1130	0.7853
1139	0.7851
1148	0.7851
1157	0.7857
1166	0.7858
1175	0.7856
1184	0.7858
1193	0.7851
1202	0.7838
1211	0.7826
1220	0.7826
1229	0.7835
1238	0.7831
1247	0.7665
1256	0.733
1265	0.7165
1274	0.736
1283	0.7549
1292	0.7848
1301	0.7797
1310	0.7575
1319	0.6618
1328	0.4466
1337	0.3264
1346	0.3804
1355	0.1316
1364	0.4557
1373	0.2003
1382	0.213
1391	0.318
1400	0.3502
1409	0.197
1418	0.0343
1427	0.0039
1436	0.0037
1445	0.0038
1454	0.0048
1463	0.0059
1472	0.0072
1481	0.0046
1490	0.0049
1499	0.0057
1508	0.0113
1517	0.0412
1526	0.2349
1535	0.4565
1544	0.6564
1553	0.7231
1562	0.7435
1571	0.7475
1580	0.754
1589	0.7557
1598	0.7556
1607	0.7565
1616	0.7575
1625	0.7585
1634	0.7611
1643	0.7626
1652	0.7614
1661	0.7576
1670	0.7534
1679	0.7497
1688	0.7485
1697	0.75
1706	0.7521
1715	0.7528
1724	0.7532
1733	0.7545
1742	0.753
1751	0.7528
1760	0.7534
1769	0.7536
1778	0.7532
1787	0.7528
1796	0.7542
1805	0.7544
1814	0.7553
1823	0.7561
1832	0.7565
1841	0.758
1850	0.7588
1859	0.759
1868	0.7585
1877	0.7576
1886	0.7565
1895	0.7554
1904	0.7539
1913	0.7518
1922	0.7494
1931	0.7515
1940	0.7522
1949	0.7587
1958	0.7601
1967	0.7601
1976	0.7598
1985	0.7597
1994	0.7603
2003	0.7615
2012	0.7622
2021	0.7636
2030	0.765
2039	0.7661
2048	0.7675
2057	0.7685
2066	0.7694
2075	0.7703
2084	0.7715
2093	0.7726
2102	0.7739
2111	0.7748
2120	0.7755
2129	0.7761
2138	0.7769
2147	0.7778
2156	0.7785
2165	0.779
2174	0.7795
2183	0.7795
2192	0.7775
2201	0.7746
2210	0.7722
2219	0.7698
2228	0.7664
2237	0.7624
2246	0.7744
2255	0.7719
2264	0.7733
2273	0.7817
2282	0.7825
2291	0.7754
2300	0.7639
2309	0.7442
2318	0.6572
2327	0.5323
2336	0.5668
2345	0.6281
2354	0.7421
2363	0.7361
2372	0.713
2381	0.7071
2390	0.6638
2399	0.7704
2408	0.7901
2417	0.7945
2426	0.7969
2435	0.7983
2444	0.7994
2453	0.8004
2462	0.8012
2471	0.8021
2480	0.8028
2489	0.8036
2498	0.8044
2507	0.8053
2516	0.8067
2525	0.8081
2534	0.8095
2543	0.8107
2552	0.8117
2561	0.8128
2570	0.8139
2579	0.8146
2588	0.8153
2597	0.8158
2606	0.8165
2615	0.8171
2624	0.8176
2633	0.8182
2642	0.8188
2651	0.8193
2660	0.82
2669	0.8206
2678	0.8212
2687	0.8218
2696	0.8224
2705	0.8228
2714	0.8234
2723	0.8239
2732	0.8241
2741	0.8242
2750	0.824
2759	0.823
2768	0.8198
2777	0.8165
2786	0.8145
2795	0.8137
2804	0.8148
2813	0.8168
2822	0.8198
2831	0.8233
2840	0.8271
2849	0.8108
2858	0.7891
2867	0.7741
2876	0.7674
2885	0.7682
2894	0.7287
2903	0.683
2912	0.7958
2921	0.766
2930	0.7856
2939	0.8072
2948	0.8174
2957	0.8171
2966	0.8121
2975	0.8057
2984	0.8051
2993	0.8028
3002	0.7993
3011	0.8198
3020	0.8181
3029	0.8208
3038	0.8338
3047	0.8383
3056	0.8402
3065	0.8412
3074	0.8418
3083	0.8423
3092	0.8428
3101	0.8433
3110	0.8439
3119	0.8442
3128	0.8445
3137	0.8447
3146	0.8448
3155	0.8449
3164	0.8444
3173	0.8433
3182	0.842
3191	0.8406
3200	0.8393
3209	0.8387
3218	0.8384
3227	0.8381
3236	0.8387
3245	0.8391
3254	0.8396
3263	0.84
3272	0.8404
3281	0.8406
3290	0.841
3299	0.8413
3308	0.8413
3317	0.8412
3326	0.8412
3335	0.841
3344	0.8408
3353	0.8411
3362	0.8418
3371	0.8425
3380	0.8436
3389	0.8436
3398	0.8425
3407	0.8412
3416	0.8399
3425	0.8395
3434	0.8394
3443	0.8392
3452	0.8392
3461	0.8393
3470	0.8393
3479	0.8394
3488	0.8394
3497	0.8395
3506	0.8395
3515	0.8396
3524	0.8398
3533	0.8403
3542	0.8408
3551	0.8413
3560	0.8418
3569	0.8418
3578	0.842
3587	0.842
3596	0.8424
3605	0.8427
3614	0.843
3623	0.843
3632	0.843
3641	0.843
3650	0.8428
3659	0.8428
3668	0.8406
3677	0.835
3686	0.8274
3695	0.8188
3704	0.819
3713	0.821
3722	0.8238
3731	0.8299
3740	0.8409
3749	0.8439
3758	0.844
3767	0.8433
3776	0.842
3785	0.8428
3794	0.8451
