Infrared Spectrum: 2-Ethoxycarbonylphenylisocyanate
Formula: C10 H9 N O3
CAS: 76393-16-3
State: gas
Origin: EPA-IR VAPOR PHASE LIBRARY
1/CM	ABSORBANCE
549.8	0.0035642
559.445	0.0040442
569.09	0.0055442
578.734	0.0076142
588.379	0.0114742
598.024	0.0149142
607.669	0.0113242
617.313	0.0073042
626.958	0.0053942
636.603	0.0047842
646.248	0.0052642
655.893	0.0050742
665.537	0.0037842
675.182	0.0027242
684.827	0.0043342
694.472	0.0081042
704.116	0.0076242
713.761	0.0046042
723.406	0.0035342
733.051	0.0057442
742.695	0.0234842
752.34	0.0621242
761.985	0.0336742
771.63	0.0100342
781.275	0.0060642
790.919	0.0047342
800.564	0.0033842
810.209	0.0025842
819.854	0.0024342
829.498	0.0023342
839.143	0.0032642
848.788	0.0048942
858.433	0.0057342
868.078	0.0058642
877.722	0.0041442
887.367	0.0019042
897.012	0.0009899
906.657	0.0007525
916.301	0.0011442
925.946	0.0009333
935.591	0.0013542
945.236	0.0022042
954.88	0.0024742
964.525	0.0017442
974.17	0.0019542
983.815	0.0028742
993.46	0.0043142
1003.1	0.0077542
1012.75	0.0102742
1022.39	0.0104742
1032.04	0.0156142
1041.68	0.0210442
1051.33	0.0183242
1060.97	0.0369642
1070.62	0.0709342
1080.26	0.0511842
1089.91	0.0233042
1099.55	0.0256842
1109.2	0.0474142
1118.84	0.0734042
1128.49	0.0587842
1138.13	0.0366142
1147.78	0.0269142
1157.42	0.0260142
1167.07	0.0246442
1176.71	0.0176942
1186.36	0.0129742
1196	0.0104242
1205.64	0.0105742
1215.29	0.0138142
1224.93	0.0223742
1234.58	0.0472642
1244.22	0.0977242
1253.87	0.0999342
1263.51	0.0515342
1273.16	0.0658742
1282.8	0.114254
1292.45	0.118874
1302.09	0.0533042
1311.74	0.0233742
1321.38	0.0121142
1331.03	0.0073342
1340.67	0.0051842
1350.32	0.0049442
1359.96	0.0082242
1369.61	0.0145642
1379.25	0.0101442
1388.9	0.0068842
1398.54	0.0067242
1408.18	0.0067042
1417.83	0.0090942
1427.47	0.0151542
1437.12	0.0144542
1446.76	0.0106742
1456.41	0.0114042
1466.05	0.0143942
1475.7	0.0142142
1485.34	0.0116942
1494.99	0.0139842
1504.63	0.0211242
1514.28	0.0302042
1523.92	0.0306242
1533.57	0.0194342
1543.21	0.0101642
1552.86	0.0072342
1562.5	0.0095042
1572.15	0.0155642
1581.79	0.0184442
1591.44	0.0249342
1601.08	0.0375342
1610.73	0.0245142
1620.37	0.0085342
1630.01	0.0049542
1639.66	0.0037142
1649.3	0.0031942
1658.95	0.0032942
1668.59	0.0037242
1678.24	0.0046042
1687.88	0.0071442
1697.53	0.0114542
1707.17	0.0187542
1716.82	0.0355042
1726.46	0.0787142
1736.11	0.115244
1745.75	0.0830142
1755.4	0.0410442
1765.04	0.0236742
1774.69	0.0126142
1784.33	0.0069042
1793.98	0.0042642
1803.62	0.0031942
1813.27	0.0029242
1822.91	0.0027742
1832.55	0.0021542
1842.2	0.0018842
1851.84	0.0017842
1861.49	0.0014742
1871.13	0.0014742
1880.78	0.0015942
1890.42	0.0016142
1900.07	0.0017442
1909.71	0.0018842
1919.36	0.0023742
1929	0.0027742
1938.65	0.0022142
1948.29	0.0022242
1957.94	0.0023142
1967.58	0.0015142
1977.23	0.0012442
1986.87	0.0011942
1996.52	0.0011042
2006.16	0.0010739
2015.81	0.0010842
2025.45	0.0012542
2035.1	0.0014242
2044.74	0.0014342
2054.38	0.0016742
2064.03	0.0019342
2073.67	0.0023742
2083.32	0.0026842
2092.96	0.0031842
2102.61	0.0036242
2112.25	0.0043942
2121.9	0.0052342
2131.54	0.0061542
2141.19	0.0069842
2150.83	0.0085242
2160.48	0.0106842
2170.12	0.0133842
2179.77	0.0165342
2189.41	0.0197942
2199.06	0.0234842
2208.7	0.0300342
2218.35	0.0394642
2227.99	0.0509542
2237.64	0.0691542
2247.28	0.110744
2256.92	0.200794
2266.57	0.322154
2276.21	0.396734
2285.86	0.403734
2295.5	0.338054
2305.15	0.220744
2314.79	0.129604
2324.44	0.0808742
2334.08	0.0534142
2343.73	0.0371042
2353.37	0.0283342
2363.02	0.0242942
2372.66	0.0227042
2382.31	0.0213342
2391.95	0.0186842
2401.6	0.0149742
2411.24	0.0111442
2420.89	0.0079342
2430.53	0.0056642
2440.18	0.0041442
2449.82	0.0031742
2459.47	0.0026742
2469.11	0.0022542
2478.75	0.0020042
2488.4	0.0017242
2498.04	0.0014642
2507.69	0.0012442
2517.33	0.0010841
2526.98	0.0011142
2536.62	0.0010942
2546.27	0.0010354
2555.91	0.0010334
2565.56	0.0011342
2575.2	0.0013542
2584.85	0.0012942
2594.49	0.0013342
2604.14	0.0011442
2613.78	0.0008755
2623.43	0.0008506
2633.07	0.0008186
2642.72	0.0007413
2652.36	0.0009065
2662.01	0.0007947
2671.65	0.0007585
2681.29	0.0007755
2690.94	0.0007921
2700.58	0.0008647
2710.23	0.0009579
2719.87	0.0010317
2729.52	0.0011642
2739.16	0.0012642
2748.81	0.0014542
2758.45	0.0014542
2768.1	0.0013042
2777.74	0.0014642
2787.39	0.0012442
2797.03	0.0012342
2806.68	0.0013142
2816.32	0.0014742
2825.97	0.0014842
2835.61	0.0015042
2845.26	0.0016942
2854.9	0.0019542
2864.55	0.0025642
2874.19	0.0034642
2883.84	0.0049842
2893.48	0.0053842
2903.12	0.0057242
2912.77	0.0064642
2922.41	0.0063342
2932.06	0.0075942
2941.7	0.0113842
2951.35	0.0112642
2960.99	0.0094942
2970.64	0.0129342
2980.28	0.0200742
2989.93	0.0227942
2999.57	0.0151542
3009.22	0.0107642
3018.86	0.0078942
3028.51	0.0059042
3038.15	0.0049642
3047.8	0.0051642
3057.44	0.0068042
3067.09	0.0092542
3076.73	0.0123142
3086.38	0.0105042
3096.02	0.0049242
3105.67	0.0028642
3115.31	0.0020242
3124.95	0.0017142
3134.6	0.0015242
3144.24	0.0013342
3153.89	0.0011742
3163.53	0.0008687
3173.18	0.0008318
3182.82	0.0005632
3192.47	0.0004076
3202.11	0.0002984
3211.76	0.0002478
3221.4	0.0002452
3231.05	0.00016618
3240.69	0.0002395
3250.34	0.00010231
3259.98	0.0002836
3269.63	0.000288
3279.27	0.00010991
3288.92	0.0002671
3298.56	0.0003246
3308.21	0.0005358
3317.85	0.0006617
3327.49	0.0007207
3337.14	0.0010405
3346.78	0.0010236
3356.43	0.0011442
3366.07	0.0012442
3375.72	0.0014442
3385.36	0.0014942
3395.01	0.0016542
3404.65	0.0017442
3414.3	0.0019342
3423.94	0.0025042
3433.59	0.0026442
3443.23	0.0025842
3452.88	0.0023442
3462.52	0.0016342
3472.17	0.0013942
3481.81	0.0012142
3491.46	0.0009977
3501.1	0.0006857
3510.75	0.0005547
3520.39	0.0005184
3530.04	0.0005912
3539.68	0.0005067
3549.32	0.0004308
3558.97	0.0006396
3568.61	0.0006472
3578.26	0.0005408
3587.9	0.0003772
3597.55	0.0002757
3607.19	0.0004614
3616.84	0.000672
3626.48	0.0006558
3636.13	0.0006697
3645.77	0.0006115
3655.42	0.0010103
3665.06	0.0011142
3674.71	0.0014542
3684.35	0.0017442
3694	0.0019542
3703.64	0.0019642
3713.29	0.0020442
3722.93	0.0016642
3732.58	0.0014542
3742.22	0.0014742
3751.86	0.0014942
3761.51	0.0014642
3771.15	0.0015142
3780.8	0.0014742
3790.44	0.0013442
3800.09	0.0014842
3809.73	0.0011942
3819.38	0.0011542
3829.02	0.0009262
3838.67	0.0008122
3848.31	0.0008707
3857.96	0.0006366
3867.6	0.0004032
3877.25	0.000633
3886.89	0.000523
3896.54	0.0003456
3906.18	0.0004459
3915.83	0.0002843
3925.47	0.000377
3935.12	0.0003501
3944.76	0.0004303
3954.41	0.0002709
3964.05	0.0004079
3973.69	0.0003245
3983.34	0.0003582
3992.98	0.00012051
