Infrared Spectrum: trans-5-Undecene
Formula: C 11 H 22
CAS: 764-97-6
State: gas
Instrument: HP-GC/MS/IRD
Origin: NIST Mass Spectrometry Data Center
1/CM	ABSORBANCE
550	0.001002
562	6e-05
574	0.000224
586	0.0002
598	0.00033
610	0.000104
622	0.000182
634	0.00018
646	0.000252
658	0.00012
670	0.000274
682	0.000252
694	0.000274
706	0.000326
718	0.00038
730	0.00049
742	0.00051
754	0.000464
766	0.000364
778	0.000384
790	0.000318
802	0.000262
814	0.000164
826	4.8e-05
838	0.000276
850	0.000304
862	0.000258
874	0.000318
886	0.000402
898	0.000436
910	0.000454
922	0.000574
934	0.000646
946	0.001026
958	0.002142
970	0.002544
982	0.00144
994	0.000784
1006	0.000604
1018	0.000564
1030	0.000452
1042	0.00044
1054	0.000432
1066	0.000408
1078	0.000364
1090	0.000334
1102	0.000306
1114	0.00027
1126	0.000166
1138	0.00016
1150	0.00011
1162	0.00021
1174	0.000206
1186	0.000254
1198	0.00029
1210	0.00024
1222	0.000306
1234	0.000302
1246	0.00037
1258	0.00031
1270	0.000432
1282	0.000514
1294	0.000604
1306	0.000642
1318	0.00071
1330	0.000722
1342	0.000948
1354	0.0008
1366	0.0008
1378	0.000936
1390	0.00098
1402	0.00068
1414	0.000674
1426	0.000824
1438	0.001512
1450	0.001904
1462	0.002176
1474	0.00173
1486	0.000938
1498	0.000662
1510	0.000986
1522	0.000736
1534	0.000476
1546	0.00052
1558	0.000594
1570	0.000234
1582	0.000162
1594	0.000142
1606	0.000188
1618	0.00028
1630	0.000224
1642	0.000292
1654	0.000532
1666	0.000344
1678	0.000412
1690	0.000342
1702	0.000514
1714	0.00047
1726	0.00026
1738	0.000452
1750	0.000502
1762	0.00036
1774	0.000334
1786	0.00034
1798	0.000314
1810	0.00024
1822	0.000248
1834	0.000192
1846	0.00027
1858	0.000148
1870	0.00021
1882	9.2e-05
1894	0.000126
1906	0.000108
1918	0.000148
1930	0.0001
1942	0.000148
1954	9.8e-05
1966	0.000124
1978	5.8e-05
1990	0.000126
2002	8e-05
2014	7.2e-05
2026	6.6e-05
2038	9e-05
2050	6.2e-05
2062	6e-05
2074	5e-05
2086	4.8e-05
2098	2.8e-05
2110	4.4e-05
2122	4.4e-05
2134	5.2e-05
2146	7e-05
2158	5e-05
2170	2.4e-05
2182	5.2e-05
2194	3.2e-05
2206	3e-05
2218	3e-05
2230	3.4e-05
2242	4.2e-05
2254	2.2e-05
2266	0
2278	3.8e-05
2290	6.8e-05
2302	8.8e-05
2314	0.00013
2326	0.00015
2338	0.000168
2350	0.000122
2362	0.00019
2374	0.000136
2386	7e-05
2398	4.8e-05
2410	2.2e-05
2422	3.6e-05
2434	5e-05
2446	4.6e-05
2458	1.8e-05
2470	2.2e-05
2482	2.2e-05
2494	5.8e-05
2506	2.4e-05
2518	2.4e-05
2530	6.8e-05
2542	9.6e-05
2554	7.4e-05
2566	0.000108
2578	6.8e-05
2590	9.4e-05
2602	0.000126
2614	0.000126
2626	0.000138
2638	0.000166
2650	0.00019
2662	0.000224
2674	0.000268
2686	0.00023
2698	0.00023
2710	0.000194
2722	0.000258
2734	0.0003
2746	0.000382
2758	0.00038
2770	0.000394
2782	0.000476
2794	0.00061
2806	0.00083
2818	0.001068
2830	0.00168
2842	0.003062
2854	0.00571
2866	0.007594
2878	0.007416
2890	0.006922
2902	0.007714
2914	0.011684
2926	0.018206
2938	0.019066
2950	0.01345
2962	0.013068
2974	0.01121
2986	0.005502
2998	0.003304
3010	0.002514
3022	0.002148
3034	0.001586
3046	0.001042
3058	0.00072
3070	0.000546
3082	0.000504
3094	0.000404
3106	0.000374
3118	0.00034
3130	0.000322
3142	0.000256
3154	0.000248
3166	0.000252
3178	0.000256
3190	0.000246
3202	0.000194
3214	0.000188
3226	0.000126
3238	0.000146
3250	0.000126
3262	9.6e-05
3274	0.000142
3286	8.8e-05
3298	7.4e-05
3310	9.8e-05
3322	0.000104
3334	0.0001
3346	7.8e-05
3358	8.8e-05
3370	6.6e-05
3382	9.6e-05
3394	7.4e-05
3406	4.4e-05
3418	8e-05
3430	1e-05
3442	5.2e-05
3454	7e-05
3466	6e-06
3478	5e-05
3490	5.6e-05
3502	0.000152
3514	2.8e-05
3526	0.000122
3538	4.4e-05
3550	8.8e-05
3562	0.00015
3574	8.2e-05
3586	0.000266
3598	0.000192
3610	0.000286
3622	0.00015
3634	0.000132
3646	0.000206
3658	0.000116
3670	0.000254
3682	7.4e-05
3694	8.2e-05
3706	4.6e-05
3718	0.00019
3730	0.000184
3742	0.00033
3754	0.000248
3766	7.8e-05
3778	7e-05
3790	1e-05
3802	0.000126
3814	0.000132
3826	6.4e-05
3838	0.000232
