Infrared Spectrum: 1-Decyne
Formula: C 10 H 18
CAS: 764-93-2
State: gas
Instrument: HP-GC/MS/IRD
Origin: NIST Mass Spectrometry Data Center
1/CM	ABSORBANCE
550	0.0006656
562	0.0005252
574	0.000416
586	0.0006084
598	0.0012116
610	0.0036504
622	0.0115336
634	0.0273208
646	0.0109512
658	0.0027976
670	0.00091
682	0.0004212
694	0.0003276
706	0.0005616
718	0.0008528
730	0.000754
742	0.0005824
754	0.0004368
766	0.0003536
778	0.000286
790	0.0001872
802	0.000182
814	8.84e-05
826	0.0001092
838	0.0001144
850	0.0001248
862	0.0001144
874	0.00013
886	0.0001196
898	0.000104
910	0.000104
922	0.0001456
934	0.000208
946	0.0002912
958	0.0002236
970	0.0001144
982	6.76e-05
994	5.72e-05
1006	5.72e-05
1018	0.000104
1030	0.00013
1042	0.0001456
1054	0.0001248
1066	0.00013
1078	0.000104
1090	0.0001612
1102	0.0001508
1114	0.0002496
1126	0.00013
1138	7.28e-05
1150	7.28e-05
1162	0.000104
1174	0.0001976
1186	0.0002392
1198	0.000364
1210	0.00052
1222	0.0010452
1234	0.0029744
1246	0.0067756
1258	0.00429
1270	0.0017108
1282	0.0012116
1294	0.001118
1306	0.0012272
1318	0.0014508
1330	0.0017056
1342	0.0018044
1354	0.0017108
1366	0.0014664
1378	0.00143
1390	0.0012064
1402	0.0008164
1414	0.0009048
1426	0.0015444
1438	0.0030836
1450	0.0040612
1462	0.0045916
1474	0.0031876
1486	0.001482
1498	0.0007332
1510	0.0004368
1522	0.000312
1534	0.0002132
1546	0.0001612
1558	0.0001144
1570	0.0001144
1582	0.0001352
1594	0.000104
1606	8.84e-05
1618	5.72e-05
1630	8.84e-05
1642	4.68e-05
1654	0
1666	4.68e-05
1678	5.72e-05
1690	4.16e-05
1702	2.08e-05
1714	1.56e-05
1726	1.04e-05
1738	1.56e-05
1750	4.68e-05
1762	5.2e-05
1774	2.6e-05
1786	2.08e-05
1798	1.56e-05
1810	4.16e-05
1822	3.12e-05
1834	2.08e-05
1846	2.08e-05
1858	3.12e-05
1870	1.56e-05
1882	2.6e-05
1894	4.16e-05
1906	2.6e-05
1918	4.16e-05
1930	4.68e-05
1942	3.64e-05
1954	3.64e-05
1966	5.2e-05
1978	5.2e-05
1990	4.16e-05
2002	5.2e-05
2014	7.8e-05
2026	9.88e-05
2038	0.0001196
2050	8.84e-05
2062	0.0001248
2074	0.0001768
2086	0.0002756
2098	0.0005772
2110	0.0011544
2122	0.0012948
2134	0.0005512
2146	0.0001872
2158	0.0001196
2170	9.88e-05
2182	0.0001092
2194	8.32e-05
2206	8.84e-05
2218	5.72e-05
2230	4.68e-05
2242	5.72e-05
2254	3.64e-05
2266	6.24e-05
2278	6.76e-05
2290	5.72e-05
2302	8.84e-05
2314	6.24e-05
2326	7.28e-05
2338	5.2e-05
2350	7.8e-05
2362	7.28e-05
2374	5.72e-05
2386	8.84e-05
2398	8.84e-05
2410	0.000104
2422	7.8e-05
2434	7.8e-05
2446	8.32e-05
2458	8.32e-05
2470	7.8e-05
2482	6.24e-05
2494	7.8e-05
2506	9.36e-05
2518	0.0001144
2530	0.0001352
2542	0.0001404
2554	0.0001508
2566	0.000182
2578	0.0002236
2590	0.0002132
2602	0.0002496
2614	0.0003016
2626	0.0003484
2638	0.000416
2650	0.000468
2662	0.0005408
2674	0.000598
2686	0.000624
2698	0.0006344
2710	0.0005356
2722	0.0005616
2734	0.0006292
2746	0.0006864
2758	0.0007228
2770	0.0008216
2782	0.000936
2794	0.0012584
2806	0.0016484
2818	0.0022464
2830	0.0033072
2842	0.0060164
2854	0.0129012
2866	0.0191776
2878	0.017264
2890	0.0140556
2902	0.0156884
2914	0.0253812
2926	0.0430404
2938	0.052
2950	0.039416
2962	0.0264472
2974	0.018356
2986	0.0080548
2998	0.004264
3010	0.0027092
3022	0.0019448
3034	0.0014872
3046	0.00117
3058	0.0009724
3070	0.000806
3082	0.000676
3094	0.0005876
3106	0.0004992
3118	0.0004524
3130	0.0004212
3142	0.0003848
3154	0.0003224
3166	0.0003172
3178	0.0002808
3190	0.0002808
3202	0.0002236
3214	0.0001664
3226	0.000182
3238	0.0002288
3250	0.0003068
3262	0.0004836
3274	0.000832
3286	0.0016276
3298	0.0027716
3310	0.0051584
3322	0.0082888
3334	0.00845
3346	0.0025948
3358	0.0012792
3370	0.0005668
3382	0.0003016
3394	0.000208
3406	0.000156
3418	0.0001092
3430	8.84e-05
3442	9.36e-05
3454	8.32e-05
3466	5.72e-05
3478	7.28e-05
3490	6.24e-05
3502	5.72e-05
3514	6.24e-05
3526	3.12e-05
3538	3.64e-05
3550	7.28e-05
3562	4.16e-05
3574	6.24e-05
3586	8.84e-05
3598	7.8e-05
3610	6.76e-05
3622	0.00013
3634	6.76e-05
3646	6.76e-05
3658	9.88e-05
3670	8.32e-05
3682	0.0001092
3694	0.0001352
3706	0.0001092
3718	0.0001144
3730	0.0001248
3742	7.8e-05
3754	0.0001144
3766	0.0001092
3778	8.32e-05
3790	0.0001196
3802	0.0001248
3814	0.0001092
3826	0.000104
3838	9.36e-05
