Infrared Spectrum: Nonanoyl chloride
Formula: C 9 H 17 Cl O
CAS: 764-85-2
State: gas
Origin: EPA-IR VAPOR PHASE LIBRARY
1/CM	ABSORBANCE
549.8	0.01166
559.445	0.01747
569.09	0.02404
578.734	0.02446
588.379	0.02254
598.024	0.01783
607.669	0.01201
617.313	0.00774
626.958	0.00576
636.603	0.00554
646.248	0.00611
655.893	0.0073
665.537	0.01007
675.182	0.01732
684.827	0.02248
694.472	0.01722
704.116	0.01718
713.761	0.02184
723.406	0.02561
733.051	0.02345
742.695	0.01853
752.34	0.0152
761.985	0.01325
771.63	0.01228
781.275	0.01089
790.919	0.0089
800.564	0.00796
810.209	0.00782
819.854	0.00827
829.498	0.00878
839.143	0.00883
848.788	0.0091
858.433	0.00931
868.078	0.0097
877.722	0.01088
887.367	0.01328
897.012	0.01743
906.657	0.02196
916.301	0.02488
925.946	0.02764
935.591	0.033
945.236	0.03832
954.88	0.03919
964.525	0.03696
974.17	0.03676
983.815	0.03782
993.46	0.03599
1003.1	0.03155
1012.75	0.02605
1022.39	0.02283
1032.04	0.02067
1041.68	0.01985
1051.33	0.01853
1060.97	0.0159
1070.62	0.01248
1080.26	0.00968
1089.91	0.00748
1099.55	0.00717
1109.2	0.00839
1118.84	0.01061
1128.49	0.01073
1138.13	0.00819
1147.78	0.00584
1157.42	0.00573
1167.07	0.00631
1176.71	0.00698
1186.36	0.007
1196	0.0065
1205.64	0.00575
1215.29	0.00497
1224.93	0.00511
1234.58	0.00492
1244.22	0.00488
1253.87	0.00513
1263.51	0.00498
1273.16	0.00533
1282.8	0.00598
1292.45	0.00607
1302.09	0.0062
1311.74	0.00634
1321.38	0.00636
1331.03	0.00718
1340.67	0.00893
1350.32	0.00937
1359.96	0.0087
1369.61	0.00739
1379.25	0.00716
1388.9	0.00679
1398.54	0.0063
1408.18	0.00806
1417.83	0.00976
1427.47	0.00998
1437.12	0.01033
1446.76	0.01364
1456.41	0.01919
1466.05	0.01913
1475.7	0.01218
1485.34	0.00623
1494.99	0.00366
1504.63	0.00251
1514.28	0.0019
1523.92	0.00152
1533.57	0.00126
1543.21	0.00111
1552.86	0.00105
1562.5	0.00101
1572.15	0.0009779
1581.79	0.0009753
1591.44	0.000948
1601.08	0.0009566
1610.73	0.0009269
1620.37	0.00101
1630.01	0.00103
1639.66	0.00105
1649.3	0.00105
1658.95	0.00127
1668.59	0.00129
1678.24	0.00142
1687.88	0.00152
1697.53	0.00174
1707.17	0.002
1716.82	0.00246
1726.46	0.00316
1736.11	0.00432
1745.75	0.00641
1755.4	0.01017
1765.04	0.01694
1774.69	0.02938
1784.33	0.05303
1793.98	0.0955
1803.62	0.14613
1813.27	0.14837
1822.91	0.09678
1832.55	0.052
1842.2	0.02803
1851.84	0.01673
1861.49	0.01122
1871.13	0.00811
1880.78	0.00626
1890.42	0.00512
1900.07	0.0043
1909.71	0.00373
1919.36	0.00315
1929	0.00277
1938.65	0.00246
1948.29	0.00216
1957.94	0.00192
1967.58	0.0017
1977.23	0.00157
1986.87	0.00138
1996.52	0.00126
2006.16	0.00122
2015.81	0.00114
2025.45	0.00111
2035.1	0.00109
2044.74	0.00105
2054.38	0.0009371
2064.03	0.0009309
2073.67	0.0008788
2083.32	0.0009577
2092.96	0.00104
2102.61	0.00137
2112.25	0.00183
2121.9	0.00227
2131.54	0.00198
2141.19	0.00128
2150.83	0.0009302
2160.48	0.0007655
2170.12	0.0007409
2179.77	0.0007241
2189.41	0.000667
2199.06	0.0006799
2208.7	0.0008126
2218.35	0.0008338
2227.99	0.0009814
2237.64	0.00108
2247.28	0.00116
2256.92	0.00107
2266.57	0.0008928
2276.21	0.0008195
2285.86	0.0007174
2295.5	0.0008058
2305.15	0.0008407
2314.79	0.0008233
2324.44	0.0008599
2334.08	0.0007682
2343.73	0.0007891
2353.37	0.0007617
2363.02	0.0007867
2372.66	0.0008344
2382.31	0.0008634
2391.95	0.0007521
2401.6	0.0008367
2411.24	0.0007397
2420.89	0.0007315
2430.53	0.0005953
2440.18	0.0006585
2449.82	0.0006513
2459.47	0.0005741
2469.11	0.0005909
2478.75	0.000568
2488.4	0.0006402
2498.04	0.0006191
2507.69	0.0006595
2517.33	0.0007052
2526.98	0.0007724
2536.62	0.0008621
2546.27	0.0008411
2555.91	0.0008899
2565.56	0.0009085
2575.2	0.00104
2584.85	0.00101
2594.49	0.00108
2604.14	0.00111
2613.78	0.00128
2623.43	0.00132
2633.07	0.00153
2642.72	0.00164
2652.36	0.00173
2662.01	0.0018
2671.65	0.00214
2681.29	0.00219
2690.94	0.00224
2700.58	0.00221
2710.23	0.00211
2719.87	0.00216
2729.52	0.00238
2739.16	0.00265
2748.81	0.00295
2758.45	0.00296
2768.1	0.00314
2777.74	0.00343
2787.39	0.00414
2797.03	0.00494
2806.68	0.00599
2816.32	0.00724
2825.97	0.00937
2835.61	0.01281
2845.26	0.02051
2854.9	0.04027
2864.55	0.06387
2874.19	0.06342
2883.84	0.0533
2893.48	0.04436
2903.12	0.04943
2912.77	0.07235
2922.41	0.1189
2932.06	0.16908
2941.7	0.16155
2951.35	0.11886
2960.99	0.09651
2970.64	0.08675
2980.28	0.0491
2989.93	0.02548
2999.57	0.01578
3009.22	0.01094
3018.86	0.00793
3028.51	0.00628
3038.15	0.00509
3047.8	0.0041
3057.44	0.00356
3067.09	0.00308
3076.73	0.00273
3086.38	0.00245
3096.02	0.00221
3105.67	0.00192
3115.31	0.00177
3124.95	0.00168
3134.6	0.00157
3144.24	0.00149
3153.89	0.00133
3163.53	0.0013
3173.18	0.00126
3182.82	0.00122
3192.47	0.00111
3202.11	0.0009587
3211.76	0.0009168
3221.4	0.0007291
3231.05	0.0007233
3240.69	0.0006731
3250.34	0.0005516
3259.98	0.000533
3269.63	0.0006577
3279.27	0.0005624
3288.92	0.0005537
3298.56	0.0006346
3308.21	0.0004539
3317.85	0.0003402
3327.49	0.0005667
3337.14	0.0005599
3346.78	0.0004923
3356.43	0.0003565
3366.07	0.0004649
3375.72	0.0006538
3385.36	0.0003364
3395.01	0.0003427
3404.65	0.0004079
3414.3	0.0004036
3423.94	0.000447
3433.59	0.00045
3443.23	0.0005519
3452.88	0.000562
3462.52	0.0004888
3472.17	0.0002828
3481.81	0.0005025
3491.46	0.0003756
3501.1	0.0004856
3510.75	0.0004841
3520.39	0.0005068
3530.04	0.0004981
3539.68	0.0006183
3549.32	0.0008596
3558.97	0.00104
3568.61	0.00173
3578.26	0.00233
3587.9	0.00299
3597.55	0.00314
3607.19	0.00276
3616.84	0.00212
3626.48	0.00166
3636.13	0.00141
3645.77	0.0012
3655.42	0.00107
3665.06	0.0009073
3674.71	0.0006779
3684.35	0.000827
3694	0.0007843
3703.64	0.0006389
3713.29	0.000623
3722.93	0.0006011
3732.58	0.0006734
3742.22	0.000656
3751.86	0.0007889
3761.51	0.0006658
3771.15	0.0005745
3780.8	0.0006373
3790.44	0.0006384
3800.09	0.000632
3809.73	0.000711
3819.38	0.0007045
3829.02	0.0006473
3838.67	0.0006635
3848.31	0.0006227
3857.96	0.000655
3867.6	0.0005838
3877.25	0.0005348
3886.89	0.0006191
3896.54	0.0006562
3906.18	0.0007789
3915.83	0.0008223
3925.47	0.0008564
3935.12	0.0007571
3944.76	0.0006986
3954.41	0.0006499
3964.05	0.0007714
3973.69	0.0008539
3983.34	0.0008476
3992.98	0.0007361
