Infrared Spectrum: 2-Hydroxyhexadecanoic acid
Formula: C 16 H 32 O 3
CAS: 764-67-0
State: gas
Origin: EPA-IR VAPOR PHASE LIBRARY
1/CM	ABSORBANCE
549.8	0.01128
559.445	0.01261
569.09	0.0131
578.734	0.01306
588.379	0.01159
598.024	0.01132
607.669	0.01
617.313	0.00948
626.958	0.01031
636.603	0.00996
646.248	0.00886
655.893	0.00789
665.537	0.00696
675.182	0.00667
684.827	0.00658
694.472	0.00714
704.116	0.00793
713.761	0.00895
723.406	0.0088
733.051	0.00816
742.695	0.00856
752.34	0.00788
761.985	0.00677
771.63	0.00658
781.275	0.00641
790.919	0.0051768
800.564	0.004606
810.209	0.00304
819.854	0.003519
829.498	0.004678
839.143	0.0048987
848.788	0.0048494
858.433	0.0047977
868.078	0.004102
877.722	0.00273
887.367	0.00296
897.012	0.00318
906.657	0.00286
916.301	0.00152
925.946	0
935.591	0.00163
945.236	0.00303
954.88	0.0042933
964.525	0.0044881
974.17	0.0052646
983.815	0.0050468
993.46	0.00566
1003.1	0.00637
1012.75	0.00709
1022.39	0.00791
1032.04	0.00875
1041.68	0.01056
1051.33	0.01204
1060.97	0.01434
1070.62	0.01684
1080.26	0.02089
1089.91	0.02542
1099.55	0.02702
1109.2	0.02778
1118.84	0.02854
1128.49	0.02608
1138.13	0.02412
1147.78	0.0205
1157.42	0.0133
1167.07	0.00866
1176.71	0.00658
1186.36	0.0052202
1196	0.00631
1205.64	0.00676
1215.29	0.00784
1224.93	0.00776
1234.58	0.00947
1244.22	0.00948
1253.87	0.01
1263.51	0.00896
1273.16	0.00991
1282.8	0.0117
1292.45	0.01226
1302.09	0.01326
1311.74	0.01382
1321.38	0.01452
1331.03	0.01482
1340.67	0.01535
1350.32	0.01508
1359.96	0.01396
1369.61	0.01251
1379.25	0.0112
1388.9	0.00977
1398.54	0.00842
1408.18	0.00771
1417.83	0.00715
1427.47	0.00732
1437.12	0.00815
1446.76	0.01033
1456.41	0.01226
1466.05	0.0123
1475.7	0.00907
1485.34	0.00659
1494.99	0.00576
1504.63	0.00556
1514.28	0.0053531
1523.92	0.0049751
1533.57	0.005098
1543.21	0.0051466
1552.86	0.00537
1562.5	0.0051106
1572.15	0.0052432
1581.79	0.00614
1591.44	0.0052979
1601.08	0.0049515
1610.73	0.0048214
1620.37	0.004692
1630.01	0.0049274
1639.66	0.0047289
1649.3	0.0046617
1658.95	0.0049826
1668.59	0.0049763
1678.24	0.0051085
1687.88	0.0051554
1697.53	0.00546
1707.17	0.00606
1716.82	0.00712
1726.46	0.0084
1736.11	0.01029
1745.75	0.01381
1755.4	0.02156
1765.04	0.03723
1774.69	0.0486
1784.33	0.03197
1793.98	0.01691
1803.62	0.01143
1813.27	0.01038
1822.91	0.00843
1832.55	0.00682
1842.2	0.00583
1851.84	0.00543
1861.49	0.0049933
1871.13	0.0049133
1880.78	0.0048261
1890.42	0.0046888
1900.07	0.0046532
1909.71	0.0046361
1919.36	0.0045234
1929	0.0044868
1938.65	0.00436347
1948.29	0.0046188
1957.94	0.00442838
1967.58	0.0045597
1977.23	0.0045578
1986.87	0.0046307
1996.52	0.0045575
2006.16	0.00446597
2015.81	0.0046987
2025.45	0.0045743
2035.1	0.0045123
2044.74	0.0045341
2054.38	0.0045675
2064.03	0.0045667
2073.67	0.0046158
2083.32	0.0045993
2092.96	0.0045853
2102.61	0.0045601
2112.25	0.00444036
2121.9	0.0043365
2131.54	0.0045318
2141.19	0.00444933
2150.83	0.0046332
2160.48	0.004505
2170.12	0.0046515
2179.77	0.004527
2189.41	0.0046101
2199.06	0.0046519
2208.7	0.004504
2218.35	0.0046731
2227.99	0.0045731
2237.64	0.0047754
2247.28	0.0045187
2256.92	0.0047096
2266.57	0.0046016
2276.21	0.0046534
2285.86	0.0046431
2295.5	0.0046868
2305.15	0.0046889
2314.79	0.0046825
2324.44	0.0047733
2334.08	0.004719
2343.73	0.0046257
2353.37	0.0046622
2363.02	0.0048139
2372.66	0.0046227
2382.31	0.0045014
2391.95	0.0045153
2401.6	0.0047364
2411.24	0.0046168
2420.89	0.0046754
2430.53	0.0045689
2440.18	0.004716
2449.82	0.0046098
2459.47	0.0047689
2469.11	0.0045732
2478.75	0.004535
2488.4	0.0047015
2498.04	0.0046068
2507.69	0.0046662
2517.33	0.0045769
2526.98	0.0047941
2536.62	0.0048122
2546.27	0.0046645
2555.91	0.0047042
2565.56	0.0049272
2575.2	0.0048906
2584.85	0.0048614
2594.49	0.0049155
2604.14	0.0051659
2613.78	0.0048087
2623.43	0.004891
2633.07	0.0050517
2642.72	0.0050989
2652.36	0.0051605
2662.01	0.0053025
2671.65	0.0052613
2681.29	0.00542
2690.94	0.00541
2700.58	0.00542
2710.23	0.00524
2719.87	0.0051916
2729.52	0.00547
2739.16	0.00554
2748.81	0.00545
2758.45	0.00556
2768.1	0.00565
2777.74	0.00612
2787.39	0.00639
2797.03	0.0066
2806.68	0.00729
2816.32	0.00799
2825.97	0.00937
2835.61	0.01105
2845.26	0.01609
2854.9	0.03111
2864.55	0.04344
2874.19	0.03228
2883.84	0.02537
2893.48	0.02423
2903.12	0.03073
2912.77	0.04525
2922.41	0.07441
2932.06	0.10867
2941.7	0.08206
2951.35	0.04934
2960.99	0.03608
2970.64	0.0279
2980.28	0.01659
2989.93	0.01118
2999.57	0.00928
3009.22	0.00745
3018.86	0.00682
3028.51	0.00633
3038.15	0.00605
3047.8	0.00587
3057.44	0.00567
3067.09	0.0053218
3076.73	0.00541
3086.38	0.00543
3096.02	0.0050455
3105.67	0.0048137
3115.31	0.0051133
3124.95	0.0050126
3134.6	0.0047287
3144.24	0.0050294
3153.89	0.0051267
3163.53	0.0050654
3173.18	0.0050439
3182.82	0.0047734
3192.47	0.0048121
3202.11	0.0046211
3211.76	0.0045364
3221.4	0.0049573
3231.05	0.0044958
3240.69	0.00442123
3250.34	0.0043337
3259.98	0.0043549
3269.63	0.0045603
3279.27	0.0048229
3288.92	0.0045299
3298.56	0.00440988
3308.21	0.00446042
3317.85	0.0045764
3327.49	0.00443452
3337.14	0.0043159
3346.78	0.0046505
3356.43	0.0046721
3366.07	0.004067
3375.72	0.0046541
3385.36	0.0043691
3395.01	0.00437632
3404.65	0.0046036
3414.3	0.0047043
3423.94	0.0044948
3433.59	0.0049171
3443.23	0.0044043
3452.88	0.0044922
3462.52	0.0049058
3472.17	0.0052338
3481.81	0.00538
3491.46	0.00679
3501.1	0.00673
3510.75	0.00648
3520.39	0.00583
3530.04	0.00601
3539.68	0.00628
3549.32	0.00717
3558.97	0.01121
3568.61	0.02194
3578.26	0.02584
3587.9	0.01407
3597.55	0.00928
3607.19	0.00757
3616.84	0.00659
3626.48	0.00586
3636.13	0.00638
3645.77	0.0071
3655.42	0.00664
3665.06	0.00588
3674.71	0.0052466
3684.35	0.005311
3694	0.0051196
3703.64	0.0049819
3713.29	0.0045552
3722.93	0.0048843
3732.58	0.0045943
3742.22	0.0047395
3751.86	0.0048898
3761.51	0.00442115
3771.15	0.0048581
3780.8	0.0048832
3790.44	0.0045463
3800.09	0.0048509
3809.73	0.00437423
3819.38	0.0046994
3829.02	0.0048111
3838.67	0.0048905
3848.31	0.0047425
3857.96	0.0048808
3867.6	0.0049001
3877.25	0.0046042
3886.89	0.0049298
3896.54	0.0046968
3906.18	0.0043318
3915.83	0.0045766
3925.47	0.0044737
3935.12	0.0045391
3944.76	0.0048284
3954.41	0.0049127
3964.05	0.004854
3973.69	0.0046807
3983.34	0.0048553
3992.98	0.0046964
