Infrared Spectrum: DITHIODIGLYCOLICDIHYDROXAMIC ACID
Formula: C4 H8 N2 O4 S2
CAS: 764-29-4
State: SOLID (MINERAL OIL MULL)
Melting point: 141 C (DECOMPOSE)
Class: COBLENTZ
Instrument: Not specified, most likely a prism, grating, or hybrid spectrometer.
Sampling: TRANSMISSION
Resolution: 4
Origin: ARTHUR D. LITTLE, INC.
1/CM	TRANSMITTANCE
554.082	0.538
562.365	0.468
570.649	0.403
578.932	0.396
587.215	0.394
595.499	0.393
603.782	0.394
612.065	0.398
620.349	0.404
628.632	0.416
636.915	0.433
645.198	0.463
653.482	0.486
661.765	0.531
670.048	0.569
678.332	0.588
686.615	0.577
694.898	0.513
703.182	0.382
711.465	0.414
719.748	0.533
728.032	0.624
736.315	0.703
744.598	0.74
752.882	0.706
761.165	0.695
769.448	0.731
777.732	0.775
786.015	0.821
794.298	0.887
802.582	0.932
810.865	0.958
819.148	0.973
827.431	0.973
835.715	0.979
843.998	0.975
852.281	0.969
860.565	0.957
868.848	0.914
877.131	0.854
885.415	0.987
893.698	1.004
901.981	0.993
910.265	0.987
918.548	0.979
926.831	0.986
935.115	0.973
943.398	0.957
951.681	0.891
959.965	0.761
968.248	0.505
976.531	0.488
984.814	0.724
993.098	0.844
1001.38	0.84
1009.66	0.824
1017.95	0.783
1026.23	0.738
1034.51	0.624
1042.8	0.445
1051.08	0.317
1059.36	0.537
1067.65	0.772
1075.93	0.864
1084.21	0.872
1092.5	0.882
1100.78	0.876
1109.06	0.869
1117.35	0.836
1125.63	0.763
1133.91	0.652
1142.2	0.736
1150.48	0.806
1158.76	0.813
1167.05	0.799
1175.33	0.782
1183.61	0.763
1191.9	0.739
1200.18	0.693
1208.46	0.602
1216.75	0.67
1225.03	0.736
1233.31	0.74
1241.6	0.713
1249.88	0.686
1258.16	0.66
1266.45	0.609
1274.73	0.565
1283.01	0.538
1291.3	0.527
1299.58	0.531
1307.86	0.555
1316.15	0.57
1324.43	0.558
1332.71	0.573
1341	0.558
1349.28	0.527
1357.56	0.439
1365.85	0.364
1374.13	0.267
1382.41	0.222
1390.7	0.236
1398.98	0.293
1407.26	0.386
1415.55	0.47
1423.83	0.504
1432.11	0.502
1440.4	0.48
1448.68	0.441
1456.96	0.415
1465.25	0.422
1473.53	0.439
1481.81	0.427
1490.1	0.358
1498.38	0.303
1506.66	0.236
1514.95	0.253
1523.23	0.311
1531.51	0.375
1539.8	0.534
1548.08	0.603
1556.36	0.627
1564.65	0.623
1572.93	0.616
1581.21	0.602
1589.5	0.572
1597.78	0.487
1606.06	0.405
1614.35	0.282
1622.63	0.185
1630.91	0.131
1639.2	0.114
1647.48	0.12
1655.76	0.162
1664.05	0.229
1672.33	0.371
1680.61	0.542
1688.9	0.677
1697.18	0.739
1705.46	0.799
1713.75	0.828
1722.03	0.843
1730.31	0.872
1738.6	0.89
1746.88	0.896
1755.16	0.905
1763.45	0.907
1771.73	0.908
1780.01	0.912
1788.3	0.916
1796.58	0.919
1804.86	0.925
1813.15	0.922
1821.43	0.923
1829.71	0.919
1838	0.919
1846.28	0.923
1854.56	0.925
1862.85	0.925
1871.13	0.925
1879.41	0.922
1887.7	0.918
1895.98	0.915
1904.26	0.914
1912.55	0.909
1920.83	0.907
1929.11	0.904
1937.4	0.905
1945.68	0.903
1953.96	0.901
1962.25	0.9
1970.53	0.897
1978.81	0.894
1987.1	0.883
1995.38	0.879
2003.66	0.878
2011.95	0.875
2020.23	0.873
2028.51	0.873
2036.8	0.872
2045.08	0.872
2053.36	0.872
2061.65	0.867
2069.93	0.864
2078.21	0.86
2086.5	0.858
2094.78	0.858
2103.06	0.857
2111.35	0.857
2119.63	0.855
2127.91	0.855
2136.2	0.855
2144.48	0.854
2152.76	0.855
2161.05	0.851
2169.33	0.849
2177.61	0.849
2185.9	0.847
2194.18	0.847
2202.46	0.843
2210.75	0.833
2219.03	0.828
2227.31	0.825
2235.6	0.822
2243.88	0.821
2252.16	0.819
2260.45	0.818
2268.73	0.818
2277.01	0.822
2285.3	0.821
2293.58	0.811
2301.86	0.795
2310.15	0.775
2318.43	0.767
2326.71	0.764
2335	0.76
2343.28	0.76
2351.56	0.757
2359.85	0.761
2368.13	0.761
2376.41	0.761
2384.7	0.77
2392.98	0.772
2401.26	0.77
2409.54	0.767
2417.83	0.764
2426.11	0.76
2434.39	0.756
2442.68	0.75
2450.96	0.745
2459.24	0.742
2467.53	0.74
2475.81	0.738
2484.09	0.727
2492.38	0.724
2500.66	0.72
2508.94	0.717
2517.23	0.714
2525.51	0.709
2533.79	0.695
2542.08	0.689
2550.36	0.685
2558.64	0.668
2566.93	0.663
2575.21	0.659
2583.49	0.655
2591.78	0.646
2600.06	0.631
2608.34	0.617
2616.63	0.61
2624.91	0.606
2633.19	0.601
2641.48	0.591
2649.76	0.58
2658.04	0.57
2666.33	0.558
2674.61	0.545
2682.89	0.534
2691.18	0.519
2699.46	0.502
2707.74	0.48
2716.03	0.462
2724.31	0.44
2732.59	0.419
2740.88	0.398
2749.16	0.379
2757.44	0.361
2765.73	0.346
2774.01	0.337
2782.29	0.329
2790.58	0.324
2798.86	0.314
2807.14	0.303
2815.43	0.288
2823.71	0.277
2831.99	0.242
2840.28	0.193
2848.56	0.159
2856.84	0.112
2865.13	0.121
2873.41	0.135
2881.69	0.139
2889.98	0.127
2898.26	0.096
2906.54	0.072
2914.83	0.063
2923.11	0.055
2931.39	0.045
2939.68	0.047
2947.96	0.059
2956.24	0.072
2964.53	0.09
2972.81	0.11
2981.09	0.139
2989.38	0.149
2997.66	0.156
3005.94	0.155
3014.23	0.152
3022.51	0.152
3030.79	0.153
3039.08	0.155
3047.36	0.156
3055.64	0.157
3063.93	0.152
3072.21	0.144
3080.49	0.135
3088.78	0.128
3097.06	0.124
3105.34	0.121
3113.63	0.119
3121.91	0.116
3130.19	0.116
3138.48	0.117
3146.76	0.119
3155.04	0.12
3163.33	0.123
3171.61	0.123
3179.89	0.12
3188.18	0.123
3196.46	0.124
3204.74	0.116
3213.03	0.112
3221.31	0.112
3229.59	0.116
3237.88	0.13
3246.16	0.142
3254.44	0.149
3262.73	0.156
3271.01	0.167
3279.29	0.188
3287.58	0.214
3295.86	0.254
3304.14	0.3
3312.43	0.346
3320.71	0.4
3328.99	0.44
3337.28	0.497
3345.56	0.551
3353.84	0.603
3362.13	0.631
3370.41	0.675
3378.69	0.71
3386.98	0.746
3395.26	0.771
3403.54	0.788
3411.83	0.797
3420.11	0.807
3428.39	0.815
3436.68	0.817
3444.96	0.813
3453.24	0.821
3461.53	0.819
3469.81	0.826
3478.09	0.825
3486.38	0.824
3494.66	0.819
