Infrared Spectrum: 2,6-Octadiyne
Formula: C 8 H 10
CAS: 764-73-8
State: gas
Origin: EPA-IR VAPOR PHASE LIBRARY
1/CM	ABSORBANCE
549.8	0.011596
559.445	0.011226
569.09	0.010806
578.734	0.009556
588.379	0.008096
598.024	0.006086
607.669	0.005526
617.313	0.003816
626.958	0.002546
636.603	0.002486
646.248	0.002746
655.893	0.003486
665.537	0.002506
675.182	0.002226
684.827	0.002166
694.472	0.001916
704.116	0.002146
713.761	0.002006
723.406	0.0012895
733.051	0.0013569
742.695	0.001636
752.34	0.002006
761.985	0.002186
771.63	0.002056
781.275	0.002426
790.919	0.002146
800.564	0.0013914
810.209	0.001506
819.854	0.000181
829.498	0.0009054
839.143	0.001646
848.788	0.00051178
858.433	0.0011227
868.078	0.0009147
877.722	0.0009855
887.367	0.001936
897.012	0.002436
906.657	0.002046
916.301	0.001796
925.946	0.0012838
935.591	0.0014835
945.236	0.0013722
954.88	0.0004664
964.525	0.001806
974.17	0.00049882
983.815	0.0012291
993.46	0.001736
1003.1	0.001756
1012.75	0.002886
1022.39	0.003286
1032.04	0.002326
1041.68	0.002326
1051.33	0.001706
1060.97	0.002276
1070.62	0.002466
1080.26	0.002406
1089.91	0.002446
1099.55	0.002006
1109.2	0.002976
1118.84	0.004476
1128.49	0.003026
1138.13	0.005276
1147.78	0.004536
1157.42	0.003136
1167.07	0.001756
1176.71	0.002266
1186.36	0.001966
1196	0.003646
1205.64	0.0013699
1215.29	0.001806
1224.93	0.002766
1234.58	0.004436
1244.22	0.006736
1253.87	0.018546
1263.51	0.026206
1273.16	0.015786
1282.8	0.010246
1292.45	0.010586
1302.09	0.012406
1311.74	0.016736
1321.38	0.024436
1331.03	0.033706
1340.67	0.032176
1350.32	0.023726
1359.96	0.015156
1369.61	0.017276
1379.25	0.024996
1388.9	0.020046
1398.54	0.012126
1408.18	0.013746
1417.83	0.020896
1427.47	0.022876
1437.12	0.027586
1446.76	0.028646
1456.41	0.023146
1466.05	0.019956
1475.7	0.015186
1485.34	0.013186
1494.99	0.014316
1504.63	0.012516
1514.28	0.010916
1523.92	0.008996
1533.57	0.009176
1543.21	0.010606
1552.86	0.007576
1562.5	0.006526
1572.15	0.006156
1581.79	0.005686
1591.44	0.004696
1601.08	0.003996
1610.73	0.003336
1620.37	0.003186
1630.01	0.002556
1639.66	0.002436
1649.3	0.002276
1658.95	0.001736
1668.59	0.001626
1678.24	0.0013182
1687.88	0.001726
1697.53	0.0013147
1707.17	0.001626
1716.82	0.0011763
1726.46	0.0013025
1736.11	0.001012
1745.75	0.0011357
1755.4	0.0013081
1765.04	0.0013158
1774.69	0.0010846
1784.33	0.0014029
1793.98	0.0011776
1803.62	0.0010377
1813.27	0.0011688
1822.91	0.0011206
1832.55	0.0013204
1842.2	0.0012669
1851.84	0.0009074
1861.49	0.0009055
1871.13	0.0007587
1880.78	0.0010317
1890.42	0.0009046
1900.07	0.0011108
1909.71	0.0010933
1919.36	0.0011557
1929	0.0011877
1938.65	0.0008785
1948.29	0.0009887
1957.94	0.0010713
1967.58	0.0010282
1977.23	0.000802
1986.87	0.0009156
1996.52	0.0013745
2006.16	0.0011709
2015.81	0.0011912
2025.45	0.001656
2035.1	0.001936
2044.74	0.003196
2054.38	0.004026
2064.03	0.003006
2073.67	0.001646
2083.32	0.0013165
2092.96	0.0012078
2102.61	0.0011072
2112.25	0.0012055
2121.9	0.0012176
2131.54	0.0010847
2141.19	0.0010844
2150.83	0.0007917
2160.48	0.0010045
2170.12	0.0009296
2179.77	0.0012731
2189.41	0.00126
2199.06	0.0014852
2208.7	0.001716
2218.35	0.002486
2227.99	0.002666
2237.64	0.002716
2247.28	0.001946
2256.92	0.0013311
2266.57	0.0014633
2276.21	0.0012505
2285.86	0.0014817
2295.5	0.0012204
2305.15	0.0010162
2314.79	0.001171
2324.44	0.0011743
2334.08	0.0009288
2343.73	0.0012818
2353.37	0.0011305
2363.02	0.0010838
2372.66	0.0012271
2382.31	0.0012641
2391.95	0.0012147
2401.6	0.001496
2411.24	0.001896
2420.89	0.002016
2430.53	0.001996
2440.18	0.001866
2449.82	0.002386
2459.47	0.002356
2469.11	0.002126
2478.75	0.002016
2488.4	0.001936
2498.04	0.002046
2507.69	0.002066
2517.33	0.001866
2526.98	0.002016
2536.62	0.001776
2546.27	0.001746
2555.91	0.001676
2565.56	0.001976
2575.2	0.002036
2584.85	0.002756
2594.49	0.002586
2604.14	0.001786
2613.78	0.0012772
2623.43	0.0014633
2633.07	0.0011869
2642.72	0.0011639
2652.36	0.001666
2662.01	0.001836
2671.65	0.001946
2681.29	0.002236
2690.94	0.001786
2700.58	0.001896
2710.23	0.002336
2719.87	0.002256
2729.52	0.003266
2739.16	0.005776
2748.81	0.007656
2758.45	0.006476
2768.1	0.004226
2777.74	0.003346
2787.39	0.003806
2797.03	0.003706
2806.68	0.004406
2816.32	0.005696
2825.97	0.008706
2835.61	0.013126
2845.26	0.023706
2854.9	0.038266
2864.55	0.055606
2874.19	0.062946
2883.84	0.048716
2893.48	0.034936
2903.12	0.037146
2912.77	0.066006
2922.41	0.135026
2932.06	0.217926
2941.7	0.191216
2951.35	0.090406
2960.99	0.050336
2970.64	0.037866
2980.28	0.033336
2989.93	0.023216
2999.57	0.022266
3009.22	0.021426
3018.86	0.015356
3028.51	0.015876
3038.15	0.015636
3047.8	0.011026
3057.44	0.010246
3067.09	0.009256
3076.73	0.006276
3086.38	0.005676
3096.02	0.004436
3105.67	0.003366
3115.31	0.003526
3124.95	0.002716
3134.6	0.002616
3144.24	0.002676
3153.89	0.001866
3163.53	0.001666
3173.18	0.0012279
3182.82	0.0013321
3192.47	0.001566
3202.11	0.001526
3211.76	0.0011355
3221.4	0.00134
3231.05	0.0014698
3240.69	0.0008707
3250.34	0.0013721
3259.98	0.0010244
3269.63	0.0006618
3279.27	0.0012451
3288.92	0.0006845
3298.56	0.0012342
3308.21	0.001516
3317.85	0.002026
3327.49	0.001796
3337.14	0.002426
3346.78	0.001333
3356.43	0.0013757
3366.07	0.001516
3375.72	0.0012986
3385.36	0.0007061
3395.01	0.0010518
3404.65	0.0012757
3414.3	0.0012707
3423.94	0.0013967
3433.59	0.001596
3443.23	0.001576
3452.88	0.002576
3462.52	0.002126
3472.17	0.001546
3481.81	0.001156
3491.46	0.0010499
3501.1	0.0009536
3510.75	0.0007408
3520.39	0.000628
3530.04	0.001506
3539.68	0.0007352
3549.32	0.0007009
3558.97	0.0008815
3568.61	0.0009449
3578.26	0.00058153
3587.9	0.0008862
3597.55	0.000706
3607.19	0.0009463
3616.84	0.000285
3626.48	0.0010268
3636.13	0.0009203
3645.77	0.0009626
3655.42	0.00051033
3665.06	0.0009833
3674.71	0.0011839
3684.35	0.0012386
3694	0.0008053
3703.64	0.0009668
3713.29	0.0007919
3722.93	0.0008292
3732.58	0.0009995
3742.22	0.00052842
3751.86	0.0011907
3761.51	0.00038
3771.15	0.0008392
3780.8	0.0004608
3790.44	0.0011935
3800.09	0.0006516
3809.73	0.000348
3819.38	0.001401
3829.02	0.0009765
3838.67	0.0014779
3848.31	0.001856
3857.96	0.0006031
3867.6	0.0012423
3877.25	0.0007997
3886.89	0.0006106
3896.54	0.002146
3906.18	0.001656
3915.83	0.001586
3925.47	0.001536
3935.12	0.001766
3944.76	0.001656
3954.41	0.001716
3964.05	0.001876
3973.69	0.0008456
3983.34	0.0013409
3992.98	0.0007943
