Infrared Spectrum: 2-Hexynoic acid
Formula: C 6 H 8 O 2
CAS: 764-33-0
State: gas
Origin: EPA-IR VAPOR PHASE LIBRARY
1/CM	ABSORBANCE
549.8	0.0177637
559.445	0.0177437
569.09	0.0191537
578.734	0.0180437
588.379	0.0158237
598.024	0.0205737
607.669	0.0318237
617.313	0.0920237
626.958	0.161954
636.603	0.225904
646.248	0.142214
655.893	0.0688237
665.537	0.0597837
675.182	0.0395437
684.827	0.0432337
694.472	0.0372937
704.116	0.0281437
713.761	0.0196137
723.406	0.0147937
733.051	0.0139337
742.695	0.0171337
752.34	0.0160737
761.985	0.0135537
771.63	0.0101937
781.275	0.0068337
790.919	0.0045437
800.564	0.0030537
810.209	0.0022137
819.854	0.0022937
829.498	0.0027437
839.143	0.0031737
848.788	0.0034737
858.433	0.0038537
868.078	0.0039437
877.722	0.0037637
887.367	0.0035537
897.012	0.0030437
906.657	0.0029837
916.301	0.0037737
925.946	0.0039137
935.591	0.0039937
945.236	0.0030237
954.88	0.0022137
964.525	0.0019237
974.17	0.0020937
983.815	0.0030137
993.46	0.0036937
1003.1	0.0040937
1012.75	0.0046637
1022.39	0.0058337
1032.04	0.0069937
1041.68	0.0111237
1051.33	0.0172337
1060.97	0.0195837
1070.62	0.0195837
1080.26	0.0190337
1089.91	0.0141737
1099.55	0.0097037
1109.2	0.0087337
1118.84	0.0101337
1128.49	0.0138637
1138.13	0.0234537
1147.78	0.0452437
1157.42	0.0849437
1167.07	0.0985937
1176.71	0.0662437
1186.36	0.0253337
1196	0.0149837
1205.64	0.0104937
1215.29	0.0109537
1224.93	0.0176837
1234.58	0.0358237
1244.22	0.0439437
1253.87	0.0493937
1263.51	0.0446737
1273.16	0.0315537
1282.8	0.0321037
1292.45	0.0403337
1302.09	0.0425637
1311.74	0.0333737
1321.38	0.0251837
1331.03	0.0235137
1340.67	0.0225037
1350.32	0.0219337
1359.96	0.0289437
1369.61	0.0282237
1379.25	0.0166437
1388.9	0.0125137
1398.54	0.0121837
1408.18	0.0092937
1417.83	0.0102837
1427.47	0.0136537
1437.12	0.0172837
1446.76	0.0201537
1456.41	0.0219137
1466.05	0.0195637
1475.7	0.0153937
1485.34	0.0117737
1494.99	0.0082237
1504.63	0.0055437
1514.28	0.0038237
1523.92	0.0023037
1533.57	0.0020037
1543.21	0.0015037
1552.86	0.0015937
1562.5	0.0016937
1572.15	0.0016137
1581.79	0.0015137
1591.44	0.0018137
1601.08	0.0016937
1610.73	0.0016737
1620.37	0.0014037
1630.01	0.0013537
1639.66	0.0012637
1649.3	0.0011937
1658.95	0.0013937
1668.59	0.0015737
1678.24	0.0021537
1687.88	0.0031737
1697.53	0.0047537
1707.17	0.0080937
1716.82	0.0148537
1726.46	0.0265937
1736.11	0.0494937
1745.75	0.100204
1755.4	0.112214
1765.04	0.0798737
1774.69	0.0431837
1784.33	0.0290437
1793.98	0.0172137
1803.62	0.0072937
1813.27	0.0040437
1822.91	0.0024537
1832.55	0.0016337
1842.2	0.0012837
1851.84	0.0010837
1861.49	0.0010437
1871.13	0.0010437
1880.78	0.000973
1890.42	0.0007413
1900.07	0.0006483
1909.71	0.0005618
1919.36	0.0004691
1929	0.0004073
1938.65	0.0003919
1948.29	0.0003801
1957.94	0.0003562
1967.58	0.0003773
1977.23	0.0001752
1986.87	0.0003305
1996.52	0.0004227
2006.16	0.0001774
2015.81	0.000332
2025.45	0.0005439
2035.1	0.0006337
2044.74	0.0006569
2054.38	0.0008711
2064.03	0.0009356
2073.67	0.0012437
2083.32	0.0022237
2092.96	0.0039937
2102.61	0.0067837
2112.25	0.0087837
2121.9	0.0089237
2131.54	0.0073337
2141.19	0.0041037
2150.83	0.0022837
2160.48	0.0024337
2170.12	0.0028437
2179.77	0.0034337
2189.41	0.0048937
2199.06	0.0078037
2208.7	0.0129637
2218.35	0.0197937
2227.99	0.0294137
2237.64	0.0392737
2247.28	0.0407337
2256.92	0.0320637
2266.57	0.0308037
2276.21	0.0493637
2285.86	0.0891537
2295.5	0.155974
2305.15	0.219734
2314.79	0.246794
2324.44	0.277824
2334.08	0.265744
2343.73	0.306824
2353.37	0.329724
2363.02	0.353704
2372.66	0.257484
2382.31	0.127254
2391.95	0.0169037
2401.6	0.0034137
2411.24	0.0023537
2420.89	0.0018937
2430.53	0.0016537
2440.18	0.0015237
2449.82	0.0012437
2459.47	0.0010052
2469.11	0.0008617
2478.75	0.0007202
2488.4	0.0008552
2498.04	0.0006496
2507.69	0.0009538
2517.33	0.0007961
2526.98	0.0008322
2536.62	0.0007793
2546.27	0.000842
2555.91	0.0009165
2565.56	0.0010038
2575.2	0.0006915
2584.85	0.0007453
2594.49	0.0008807
2604.14	0.0008424
2613.78	0.0009584
2623.43	0.0010637
2633.07	0.0012337
2642.72	0.0015837
2652.36	0.0017537
2662.01	0.0022037
2671.65	0.0020437
2681.29	0.0021537
2690.94	0.0026537
2700.58	0.0025537
2710.23	0.0022137
2719.87	0.0020437
2729.52	0.0021137
2739.16	0.0024537
2748.81	0.0028837
2758.45	0.0031637
2768.1	0.0028237
2777.74	0.0031537
2787.39	0.0034837
2797.03	0.0040637
2806.68	0.0049937
2816.32	0.0066337
2825.97	0.0085337
2835.61	0.0118037
2845.26	0.0160237
2854.9	0.0214237
2864.55	0.0311237
2874.19	0.0444637
2883.84	0.0522937
2893.48	0.0564737
2903.12	0.0579737
2912.77	0.0648337
2922.41	0.0817637
2932.06	0.103464
2941.7	0.120444
2951.35	0.134614
2960.99	0.133224
2970.64	0.144014
2980.28	0.114874
2989.93	0.0904837
2999.57	0.0496337
3009.22	0.0252937
3018.86	0.0145337
3028.51	0.0093137
3038.15	0.0070237
3047.8	0.0059937
3057.44	0.0054537
3067.09	0.0049937
3076.73	0.0043937
3086.38	0.0040837
3096.02	0.0033437
3105.67	0.0030837
3115.31	0.0029137
3124.95	0.0029737
3134.6	0.0027537
3144.24	0.0024837
3153.89	0.0023637
3163.53	0.0017937
3173.18	0.0017637
3182.82	0.0015937
3192.47	0.0017037
3202.11	0.0013637
3211.76	0.0013737
3221.4	0.0013037
3231.05	0.0011537
3240.69	0.0014037
3250.34	0.0021337
3259.98	0.0030337
3269.63	0.0055537
3279.27	0.0100237
3288.92	0.0166637
3298.56	0.0303237
3308.21	0.0436437
3317.85	0.0747337
3327.49	0.0641237
3337.14	0.0652037
3346.78	0.0329037
3356.43	0.0107437
3366.07	0.0062337
3375.72	0.0033737
3385.36	0.0009072
3395.01	0.000745
3404.65	0.0006737
3414.3	0.0006553
3423.94	0.0005881
3433.59	0.0002787
3443.23	0.0004541
3452.88	0.0007102
3462.52	0.0008931
3472.17	0.0011037
3481.81	0.0015937
3491.46	0.0016937
3501.1	0.0016237
3510.75	0.0014737
3520.39	0.0015737
3530.04	0.0017137
3539.68	0.0023837
3549.32	0.0047437
3558.97	0.0123737
3568.61	0.0419137
3578.26	0.0411037
3587.9	0.0145937
3597.55	0.0103237
3607.19	0.0064637
3616.84	0.0050237
3626.48	0.0081037
3636.13	0.0075937
3645.77	0.0039037
3655.42	0.0023637
3665.06	0.0028737
3674.71	0.0048137
3684.35	0.0075437
3694	0.0103537
3703.64	0.0105537
3713.29	0.0056037
3722.93	0.0092937
3732.58	0.0145837
3742.22	0.0114737
3751.86	0.0044537
3761.51	0.0010137
3771.15	0.000645
3780.8	0.0006594
3790.44	0.0004443
3800.09	0.0004985
3809.73	0.0004088
3819.38	0.0004073
3829.02	7.79e-06
3838.67	0.000185
3848.31	0.00010917
3857.96	0.0002561
3867.6	0.0001516
3877.25	0.0003562
3886.89	0.00034
3896.54	0.0006716
3906.18	0.0006196
3915.83	0.0009354
3925.47	0.0011237
3935.12	0.0017037
3944.76	0.0016237
3954.41	0.0009094
3964.05	0.0007724
3973.69	0.0010237
3983.34	0.0011137
3992.98	0.0010057
