Infrared Spectrum: 2-Hexyn-1-ol
Formula: C 6 H 10 O
CAS: 764-60-3
State: gas
Instrument: HP-GC/MS/IRD
Origin: NIST Mass Spectrometry Data Center
1/CM	ABSORBANCE
550	0.000609
562	0.0002535
574	0.0002025
586	0.00018
598	8.7e-05
610	9.3e-05
622	8.4e-05
634	3e-05
646	0.0001335
658	7.5e-05
670	0.0001545
682	0.000216
694	0.00045
706	0.000411
718	0.0004545
730	0.000426
742	0.000372
754	0.000324
766	0.000294
778	0.0002835
790	0.0003105
802	0.000282
814	0.0002955
826	0.000273
838	0.000255
850	0.000297
862	0.0003945
874	0.0005115
886	0.0006225
898	0.000648
910	0.000702
922	0.000816
934	0.001116
946	0.00174
958	0.002874
970	0.0046995
982	0.0072075
994	0.0102405
1006	0.0118515
1018	0.0110025
1030	0.010008
1042	0.006627
1054	0.0031515
1066	0.0022575
1078	0.001668
1090	0.0012135
1102	0.0011595
1114	0.0013995
1126	0.0025935
1138	0.0034335
1150	0.0021765
1162	0.001053
1174	0.0008895
1186	0.000846
1198	0.000936
1210	0.0011265
1222	0.001344
1234	0.0015
1246	0.001512
1258	0.0017355
1270	0.00231
1282	0.002529
1294	0.0019095
1306	0.001716
1318	0.0023895
1330	0.0037545
1342	0.004134
1354	0.0041355
1366	0.0055395
1378	0.007533
1390	0.008289
1402	0.0064185
1414	0.0038265
1426	0.002523
1438	0.0022095
1450	0.00219
1462	0.002097
1474	0.0015915
1486	0.000984
1498	0.0006165
1510	0.0004215
1522	0.0002835
1534	0.0002385
1546	0.000216
1558	0.0001935
1570	0.000186
1582	0.000156
1594	0.000105
1606	9.9e-05
1618	0.000102
1630	7.65e-05
1642	7.65e-05
1654	6.3e-05
1666	8.7e-05
1678	9e-05
1690	9.6e-05
1702	8.7e-05
1714	5.55e-05
1726	4.5e-05
1738	4.35e-05
1750	3.9e-05
1762	2.85e-05
1774	1.95e-05
1786	3e-06
1798	4.65e-05
1810	2.1e-05
1822	3.15e-05
1834	2.7e-05
1846	3.15e-05
1858	2.55e-05
1870	2.25e-05
1882	2.1e-05
1894	5.55e-05
1906	4.2e-05
1918	4.5e-05
1930	7.2e-05
1942	0.000108
1954	0.0001185
1966	0.0001425
1978	0.0001695
1990	0.0001785
2002	0.0002085
2014	0.000177
2026	0.000156
2038	0.0001185
2050	9.15e-05
2062	7.35e-05
2074	6e-05
2086	6.3e-05
2098	4.2e-05
2110	5.55e-05
2122	5.25e-05
2134	7.05e-05
2146	8.7e-05
2158	0.0001425
2170	0.000198
2182	0.0002475
2194	0.0004125
2206	0.000762
2218	0.001155
2230	0.0010935
2242	0.000612
2254	0.000408
2266	0.0004905
2278	0.0007035
2290	0.0007455
2302	0.0003975
2314	0.0001485
2326	0.0001185
2338	0.000105
2350	8.55e-05
2362	0.00012
2374	0.000108
2386	9.45e-05
2398	6.6e-05
2410	9.45e-05
2422	0.0001005
2434	4.35e-05
2446	5.4e-05
2458	5.7e-05
2470	5.7e-05
2482	2.85e-05
2494	4.5e-05
2506	3.45e-05
2518	4.2e-05
2530	5.7e-05
2542	6.45e-05
2554	8.25e-05
2566	5.7e-05
2578	7.8e-05
2590	8.4e-05
2602	9.9e-05
2614	0.000108
2626	0.0001305
2638	0.00012
2650	0.0001815
2662	0.0002175
2674	0.0002055
2686	0.000204
2698	0.0002445
2710	0.000234
2722	0.000267
2734	0.000291
2746	0.0003795
2758	0.0004395
2770	0.000489
2782	0.000552
2794	0.0006435
2806	0.0007845
2818	0.001026
2830	0.0015
2842	0.002448
2854	0.0035385
2866	0.0050865
2878	0.007659
2890	0.008529
2902	0.0079965
2914	0.0090705
2926	0.0110235
2938	0.0142155
2950	0.014634
2962	0.012498
2974	0.0128475
2986	0.00927
2998	0.003945
3010	0.001902
3022	0.001128
3034	0.000804
3046	0.0006435
3058	0.000537
3070	0.0005055
3082	0.000393
3094	0.0003435
3106	0.0003255
3118	0.000219
3130	0.0002415
3142	0.0001875
3154	0.0001785
3166	0.00015
3178	0.0001485
3190	0.0001365
3202	0.000102
3214	7.65e-05
3226	3.9e-05
3238	8.1e-05
3250	3.6e-05
3262	5.25e-05
3274	4.05e-05
3286	4.35e-05
3298	3.15e-05
3310	7.35e-05
3322	3.9e-05
3334	7.8e-05
3346	6.9e-05
3358	4.5e-05
3370	5.85e-05
3382	6.9e-05
3394	7.05e-05
3406	7.65e-05
3418	0.0001035
3430	8.7e-05
3442	0.0001065
3454	0.000111
3466	0.0001035
3478	0.000114
3490	0.0001545
3502	0.0001515
3514	0.0001485
3526	0.0001305
3538	0.0001545
3550	0.0001305
3562	0.000168
3574	0.000129
3586	0.000189
3598	0.0002745
3610	0.000489
3622	0.000795
3634	0.0011205
3646	0.0015375
3658	0.0018345
3670	0.0017595
3682	0.0013395
3694	0.000831
3706	0.0004635
3718	0.0002685
3730	0.000225
3742	0.0002265
3754	0.00015
3766	0.000231
3778	0.000171
3790	0.000165
3802	0.0001545
3814	0.000117
3826	0.000183
3838	0.0001635
