Infrared Spectrum: Purine, 2-amino-6-butoxy-
Formula: C9 H13 N5 O
CAS: 76412-62-9
State: SOLID (0.8 mg / 650 mg KBr DISC)
Class: COBLENTZ III
Instrument: PERKIN-ELMER 21 (GRATING)
Instrument parameters: FILTER CHANGE ABOUT 1025 CM^-^1
Sampling: TRANSMISSION
Resolution: 2
Origin: SOUTHERN RESEARCH INSTITUTE
1/CM	TRANSMITTANCE
601	0.4524
610.024	0.482
619.048	0.4895
628.071	0.487
637.095	0.4982
646.119	0.5965
655.143	0.6229
664.167	0.6221
673.191	0.6191
682.214	0.6081
691.238	0.6185
700.262	0.6194
709.286	0.611
718.31	0.5971
727.334	0.5867
736.357	0.606
745.381	0.6302
754.405	0.6298
763.429	0.6289
772.453	0.6265
781.477	0.6029
790.5	0.519
799.524	0.6299
808.548	0.6243
817.572	0.575
826.596	0.4972
835.62	0.5104
844.643	0.5859
853.667	0.5984
862.691	0.6353
871.715	0.6461
880.739	0.671
889.763	0.677
898.786	0.661
907.81	0.6375
916.834	0.6139
925.858	0.4833
934.882	0.5051
943.906	0.6096
952.929	0.5361
961.953	0.5303
970.977	0.7438
980.001	0.7575
989.025	0.757
998.049	0.7572
1007.07	0.7571
1016.1	0.7582
1025.12	0.7182
1034.14	0.6848
1043.17	0.6663
1052.19	0.6226
1061.22	0.597
1070.24	0.5352
1079.26	0.4502
1088.29	0.5476
1097.31	0.6282
1106.33	0.612
1115.36	0.5341
1124.38	0.6105
1133.41	0.6293
1142.43	0.6231
1151.45	0.5045
1160.48	0.4089
1169.5	0.6865
1178.53	0.7513
1187.55	0.7416
1196.57	0.7241
1205.6	0.6924
1214.62	0.6196
1223.64	0.457
1232.67	0.6446
1241.69	0.675
1250.72	0.6419
1259.74	0.5197
1268.76	0.361
1277.79	0.3654
1286.81	0.3551
1295.83	0.7093
1304.86	0.7102
1313.88	0.6466
1322.91	0.5931
1331.93	0.4629
1340.95	0.4907
1349.98	0.4106
1359	0.5449
1368.03	0.4062
1377.05	0.2826
1386.07	0.5149
1395.1	0.4526
1404.12	0.2885
1413.14	0.4409
1422.17	0.3542
1431.19	0.4762
1440.22	0.4938
1449.24	0.3862
1458.26	0.2683
1467.29	0.3567
1476.31	0.5522
1485.34	0.5963
1494.36	0.5768
1503.38	0.4238
1512.41	0.5887
1521.43	0.625
1530.45	0.6282
1539.48	0.5956
1548.5	0.5429
1557.53	0.3821
1566.55	0.2669
1575.57	0.1362
1584.6	0.0815
1593.62	0.1249
1602.65	0.1497
1611.67	0.1335
1620.69	0.181
1629.72	0.2279
1638.74	0.3223
1647.76	0.4277
1656.79	0.5713
1665.81	0.6794
1674.84	0.7223
1683.86	0.7492
1692.88	0.7615
1701.91	0.8024
1710.93	0.8221
1719.95	0.846
1728.98	0.8539
1738	0.8433
1747.03	0.8313
1756.05	0.8366
1765.07	0.864
1774.1	0.8886
1783.12	0.894
1792.15	0.8973
1801.17	0.9002
1810.19	0.9025
1819.22	0.9027
1828.24	0.902
1837.26	0.9015
1846.29	0.9011
1855.31	0.9014
1864.34	0.9015
1873.36	0.9011
1882.38	0.9001
1891.41	0.8985
1900.43	0.8988
1909.46	0.9005
1918.48	0.9026
1927.5	0.901
1936.53	0.8977
1945.55	0.8936
1954.57	0.891
1963.6	0.8887
1972.62	0.8879
1981.65	0.8888
1990.67	0.8896
1999.69	0.8872
2008.72	0.8839
2017.74	0.8802
2026.77	0.8771
2035.79	0.874
2044.81	0.8707
2053.84	0.8672
2062.86	0.8656
2071.88	0.8643
2080.91	0.8638
2089.93	0.8634
2098.96	0.8629
2107.98	0.8624
2117	0.862
2126.03	0.8614
2135.05	0.8608
2144.08	0.8597
2153.1	0.8564
2162.12	0.855
2171.15	0.8542
2180.17	0.8532
2189.19	0.852
2198.22	0.8508
2207.24	0.8493
2216.27	0.8467
2225.29	0.8438
2234.31	0.8409
2243.34	0.8381
2252.36	0.8352
2261.38	0.8324
2270.41	0.8292
2279.43	0.8237
2288.46	0.8149
2297.48	0.7973
2306.5	0.7831
2315.53	0.7742
2324.55	0.7706
2333.58	0.7702
2342.6	0.7715
2351.62	0.7749
2360.65	0.7804
2369.67	0.7833
2378.69	0.7785
2387.72	0.7733
2396.74	0.7679
2405.77	0.7634
2414.79	0.7596
2423.81	0.7559
2432.84	0.7532
2441.86	0.7495
2450.89	0.7438
2459.91	0.7367
2468.93	0.7286
2477.96	0.7175
2486.98	0.705
2496	0.6916
2505.03	0.6747
2514.05	0.6603
2523.08	0.6469
2532.1	0.641
2541.12	0.6392
2550.15	0.638
2559.17	0.6371
2568.2	0.6368
2577.22	0.6367
2586.24	0.6356
2595.27	0.631
2604.29	0.6236
2613.31	0.6179
2622.34	0.612
2631.36	0.6048
2640.39	0.5966
2649.41	0.5852
2658.43	0.5693
2667.46	0.5495
2676.48	0.5304
2685.5	0.5193
2694.53	0.5127
2703.55	0.5088
2712.58	0.5068
2721.6	0.5041
2730.62	0.4988
2739.65	0.4909
2748.67	0.4805
2757.7	0.4696
2766.72	0.4624
2775.74	0.4619
2784.77	0.4641
2793.79	0.4699
2802.81	0.4804
2811.84	0.485
2820.86	0.4845
2829.89	0.4802
2838.91	0.4693
2847.93	0.4529
2856.96	0.4515
2865.98	0.4641
2875.01	0.4758
2884.03	0.4756
2893.05	0.4677
2902.08	0.4548
2911.1	0.4356
2920.12	0.4132
2929.15	0.4024
2938.17	0.3976
2947.2	0.3929
2956.22	0.4083
2965.24	0.4434
2974.27	0.472
2983.29	0.4951
2992.32	0.5077
3001.34	0.5146
3010.36	0.5177
3019.39	0.5164
3028.41	0.5111
3037.43	0.5031
3046.46	0.4952
3055.48	0.4884
3064.51	0.4823
3073.53	0.4689
3082.55	0.4631
3091.58	0.4664
3100.6	0.4726
3109.62	0.4869
3118.65	0.5081
3127.67	0.5386
3136.7	0.5686
3145.72	0.5828
3154.74	0.594
3163.77	0.6031
3172.79	0.6106
3181.82	0.6161
3190.84	0.6217
3199.86	0.6266
3208.89	0.6312
3217.91	0.6359
3226.93	0.6398
3235.96	0.6428
3244.98	0.6449
3254.01	0.6451
3263.03	0.6405
3272.05	0.6322
3281.08	0.6213
3290.1	0.6054
3299.13	0.5845
3308.15	0.5593
3317.17	0.5298
3326.2	0.4961
3335.22	0.4406
3344.24	0.3959
3353.27	0.3732
3362.29	0.3657
3371.32	0.3765
3380.34	0.4265
3389.36	0.4949
3398.39	0.5262
3407.41	0.5473
3416.44	0.5533
3425.46	0.5545
3434.48	0.5539
3443.51	0.5519
3452.53	0.5486
3461.55	0.5393
3470.58	0.5244
3479.6	0.5054
3488.63	0.4872
3497.65	0.4846
3506.67	0.5408
3515.7	0.5968
3524.72	0.6359
3533.74	0.6564
3542.77	0.6723
3551.79	0.6861
3560.82	0.7004
3569.84	0.7144
3578.86	0.7277
3587.89	0.7392
3596.91	0.7483
3605.94	0.76
3614.96	0.7745
3623.98	0.7825
3633.01	0.7899
3642.03	0.7966
3651.05	0.802
3660.08	0.8052
3669.1	0.8071
3678.13	0.8078
3687.15	0.8082
3696.17	0.8084
3705.2	0.8087
3714.22	0.8089
3723.25	0.8097
3732.27	0.8108
3741.29	0.812
3750.32	0.8133
3759.34	0.8145
3768.36	0.8154
3777.39	0.8148
3786.41	0.8126
3795.44	0.8094
3804.46	0.8075
3813.48	0.8062
3822.51	0.8052
3831.53	0.8044
3840.56	0.8033
3849.58	0.8029
3858.6	0.8029
3867.63	0.8029
3876.65	0.8025
3885.67	0.8018
3894.7	0.8012
3903.72	0.7999
3912.75	0.7985
3921.77	0.7972
3930.79	0.7963
3939.82	0.7955
3948.84	0.7951
3957.86	0.7948
3966.89	0.7946
3975.91	0.7945
3984.94	0.7945
3993.96	0.7941
4002.98	0.7938
