Infrared Spectrum: cis-3-Hexene
Formula: C 6 H 12
CAS: 7642-09-3
State: gas
Instrument: HP-GC/MS/IRD
Origin: NIST Mass Spectrometry Data Center
1/CM	ABSORBANCE
550	0.0010395
562	0.0005715
574	0.001053
586	0.001026
598	0.000936
610	0.0007695
622	0.0007785
634	0.0009495
646	0.0013455
658	0.0017415
670	0.0026055
682	0.003843
694	0.0053685
706	0.0060165
718	0.0054765
730	0.004293
742	0.0030105
754	0.00198
766	0.0014265
778	0.0012915
790	0.001224
802	0.0013455
814	0.0011655
826	0.0008775
838	0.0006975
850	0.000549
862	0.0003375
874	0.0002745
886	0.000657
898	0.001476
910	0.001422
922	0.0006525
934	0.0001125
946	0.0001035
958	0.0001215
970	0.0001485
982	0.000234
994	0.0003015
1006	0.0005895
1018	0.000945
1030	0.0009765
1042	0.001152
1054	0.0016605
1066	0.0022815
1078	0.0019215
1090	0.0011925
1102	0.0007335
1114	0.000459
1126	0.000351
1138	0.000378
1150	0.0003375
1162	0.000135
1174	2.7e-05
1186	2.25e-05
1198	4.05e-05
1210	0.0001395
1222	0.000117
1234	0.000216
1246	0.0003285
1258	0.0004905
1270	0.0007425
1282	0.001656
1294	0.0032805
1306	0.003357
1318	0.0016515
1330	0.000639
1342	0.0006165
1354	0.0007245
1366	0.001008
1378	0.0013995
1390	0.001917
1402	0.002322
1414	0.0025245
1426	0.002367
1438	0.0031185
1450	0.004401
1462	0.005256
1474	0.0046035
1486	0.003204
1498	0.0019125
1510	0.0011115
1522	0.000684
1534	0.0004545
1546	0.0003465
1558	0.0003015
1570	0.000288
1582	0.000297
1594	0.0003375
1606	0.000405
1618	0.0005445
1630	0.000783
1642	0.001107
1654	0.0012555
1666	0.0012105
1678	0.0010035
1690	0.0007065
1702	0.000567
1714	0.0004455
1726	0.000342
1738	0.000315
1750	0.000351
1762	0.000369
1774	0.0003105
1786	0.000243
1798	0.0001665
1810	0.000108
1822	0.0001125
1834	9e-05
1846	0.0001035
1858	9.9e-05
1870	0.000135
1882	9.45e-05
1894	0.000126
1906	0.0001395
1918	0.000153
1930	0.000108
1942	0.000108
1954	9e-05
1966	9e-05
1978	0.000117
1990	0.0001215
2002	0.0001215
2014	0.000216
2026	0.0002835
2038	0.00027
2050	0.0002565
2062	0.0002115
2074	0.0001575
2086	0.000126
2098	0.000144
2110	0.000108
2122	8.1e-05
2134	0.000135
2146	0.0001485
2158	0.000135
2170	0.0001395
2182	0.0001215
2194	9.45e-05
2206	0.0001575
2218	0.0001215
2230	0.000117
2242	0.0001395
2254	0.00018
2266	0.00018
2278	0.00018
2290	0.00018
2302	0.000171
2314	0.000144
2326	0.000153
2338	0.0001035
2350	0.0001215
2362	0.0001215
2374	0.000153
2386	0.000162
2398	0.0001305
2410	0.000162
2422	0.000144
2434	0.000108
2446	0.0001395
2458	0.0001305
2470	9.45e-05
2482	8.55e-05
2494	0.000144
2506	0.0001485
2518	0.000144
2530	0.000135
2542	0.000216
2554	0.0001935
2566	0.0001845
2578	0.000225
2590	0.000198
2602	0.000153
2614	0.0001575
2626	0.000171
2638	0.000198
2650	0.0002385
2662	0.000189
2674	0.0001665
2686	0.000261
2698	0.0003555
2710	0.0004455
2722	0.000639
2734	0.0009045
2746	0.001026
2758	0.001062
2770	0.001125
2782	0.001251
2794	0.0014715
2806	0.001863
2818	0.0025605
2830	0.0036495
2842	0.005616
2854	0.008658
2866	0.0128205
2878	0.019782
2890	0.0220545
2902	0.0211725
2914	0.019728
2926	0.0226395
2938	0.029304
2950	0.0349785
2962	0.0420975
2974	0.044766
2986	0.0361305
2998	0.025092
3010	0.02061
3022	0.016623
3034	0.010278
3046	0.0050805
3058	0.0028845
3070	0.002205
3082	0.001737
3094	0.001413
3106	0.001332
3118	0.001161
3130	0.0011025
3142	0.001053
3154	0.001053
3166	0.0009495
3178	0.000765
3190	0.000612
3202	0.0004545
3214	0.0003105
3226	0.0002835
3238	0.0002475
3250	0.000252
3262	0.0001845
3274	0.0002115
3286	0.000216
3298	0.0002115
3310	0.000153
3322	0.000162
3334	0.000207
3346	0.0001485
3358	0.000171
3370	0.0001035
3382	0.000135
3394	9e-05
3406	0.000108
3418	0.000135
3430	0.000171
3442	0.0001125
3454	0.000189
3466	0.000144
3478	0.000144
3490	0.0001755
3502	8.1e-05
3514	0.0001305
3526	0.00018
3538	0.0001845
3550	0.0001845
3562	0.0001485
3574	0.0001305
3586	0.0001665
3598	0.0001665
3610	0.000216
3622	0.000225
3634	0.0002295
3646	0.0001665
3658	0.0002475
3670	0.000216
3682	0.0002565
3694	0.000216
3706	0.000243
3718	0.0002835
3730	0.000297
3742	0.000243
3754	0.000306
3766	0.000324
3778	0.00027
3790	0.0003015
3802	0.000261
3814	0.000207
3826	0.0001575
3838	0.000306
