Infrared Spectrum: cis-2-Octene
Formula: C 8 H 16
CAS: 7642-04-8
State: gas
Instrument: HP-GC/MS/IRD
Origin: NIST Mass Spectrometry Data Center
1/CM	ABSORBANCE
550	0.0002992
562	0.0003564
574	0.0007524
586	0.000924
598	0.0006116
610	0.0004752
622	0.0005104
634	0.0007964
646	0.0013508
658	0.0021516
670	0.0032472
682	0.0044924
694	0.0051568
706	0.0041932
718	0.002706
730	0.0017688
742	0.0012056
754	0.0008184
766	0.0005896
778	0.0004972
790	0.0001716
802	3.52e-05
814	3.96e-05
826	0.0001672
838	0.0002464
850	0.0001188
862	0.0001188
874	0.0001012
886	0.0001716
898	0.0002904
910	0.0004532
922	0.000616
934	0.000616
946	0.0004224
958	0.0005016
970	0.0008008
982	0.0010252
994	0.0009196
1006	0.000594
1018	0.0005236
1030	0.00055
1042	0.0004532
1054	0.0003168
1066	0.0003124
1078	0.000308
1090	0.0002068
1102	0.0002728
1114	0.0002024
1126	0.0001452
1138	0.00011
1150	3.96e-05
1162	4.4e-06
1174	3.96e-05
1186	7.48e-05
1198	0.0001364
1210	0.0001672
1222	0.0002552
1234	0.0002244
1246	0.0002684
1258	0.000352
1270	0.0004444
1282	0.0006204
1294	0.0007172
1306	0.000902
1318	0.0011132
1330	0.0012452
1342	0.001452
1354	0.0015796
1366	0.001826
1378	0.002222
1390	0.0024244
1402	0.002728
1414	0.0024772
1426	0.002068
1438	0.0028424
1450	0.0040392
1462	0.0044
1474	0.0033176
1486	0.00187
1498	0.0011176
1510	0.000836
1522	0.0007128
1534	0.0006468
1546	0.0005984
1558	0.0004488
1570	0.0003608
1582	0.000308
1594	0.0003036
1606	0.0003344
1618	0.0004356
1630	0.000594
1642	0.000924
1654	0.00121
1666	0.0009812
1678	0.0005764
1690	0.0003432
1702	0.0002596
1714	0.000198
1726	0.0001584
1738	0.00011
1750	9.24e-05
1762	4.84e-05
1774	4.4e-05
1786	3.52e-05
1798	8.8e-06
1810	3.52e-05
1822	2.2e-05
1834	2.64e-05
1846	1.76e-05
1858	0
1870	2.2e-05
1882	0
1894	2.2e-05
1906	3.08e-05
1918	6.6e-05
1930	4.84e-05
1942	5.28e-05
1954	6.16e-05
1966	5.72e-05
1978	9.68e-05
1990	0.0001496
2002	0.0001232
2014	0.0001232
2026	0.0001056
2038	0.0001012
2050	9.24e-05
2062	7.92e-05
2074	5.28e-05
2086	7.04e-05
2098	5.72e-05
2110	6.6e-05
2122	4.4e-05
2134	3.96e-05
2146	4.84e-05
2158	5.72e-05
2170	6.6e-05
2182	8.36e-05
2194	4.84e-05
2206	5.72e-05
2218	4.4e-05
2230	6.6e-05
2242	7.48e-05
2254	8.36e-05
2266	9.24e-05
2278	0.0001144
2290	0.0001144
2302	0.000132
2314	0.0001364
2326	0.0001408
2338	0.0001408
2350	0.0001276
2362	0.0001672
2374	0.00011
2386	0.0001144
2398	0.0001276
2410	0.0001364
2422	0.0001144
2434	0.0001012
2446	0.0001012
2458	0.0001056
2470	9.68e-05
2482	0.0001188
2494	9.68e-05
2506	0.0001496
2518	0.0001452
2530	0.0001408
2542	0.0001936
2554	0.0001804
2566	0.0001892
2578	0.0002244
2590	0.0002464
2602	0.0002244
2614	0.0002596
2626	0.0003124
2638	0.0003564
2650	0.0003916
2662	0.0004532
2674	0.0004928
2686	0.0004972
2698	0.0004972
2710	0.0005412
2722	0.0006468
2734	0.0007832
2746	0.0008756
2758	0.0008976
2770	0.0010164
2782	0.0011836
2794	0.0014872
2806	0.0019228
2818	0.0026224
2830	0.0039732
2842	0.0069784
2854	0.0126852
2866	0.0180092
2878	0.0193468
2890	0.0176968
2902	0.0186384
2914	0.0271348
2926	0.039974
2938	0.0431508
2950	0.0337876
2962	0.0291412
2974	0.024178
2986	0.0136576
2998	0.0095744
3010	0.0108988
3022	0.0133496
3034	0.0102784
3046	0.0057552
3058	0.003432
3070	0.0025212
3082	0.00187
3094	0.0013816
3106	0.001078
3118	0.0008624
3130	0.000704
3142	0.0005676
3154	0.000506
3166	0.0004532
3178	0.0003564
3190	0.0003784
3202	0.0003388
3214	0.0002772
3226	0.000198
3238	0.0001892
3250	0.0001716
3262	0.0001672
3274	0.0001804
3286	0.0001408
3298	0.0001364
3310	0.0001276
3322	0.0001408
3334	0.000132
3346	0.0001012
3358	0.0001056
3370	0.0001364
3382	0.000132
3394	0.0001056
3406	8.8e-05
3418	0.0001144
3430	0.0001496
3442	0.0001056
3454	7.92e-05
3466	7.04e-05
3478	0.00011
3490	0.0001056
3502	8.8e-05
3514	0.0001188
3526	0.000154
3538	0.0001364
3550	9.24e-05
3562	0.0001056
3574	0.0001188
3586	0.000154
3598	0.000132
3610	0.0001672
3622	0.000154
3634	0.0001804
3646	0.0001276
3658	0.000154
3670	0.0001848
3682	0.0001936
3694	0.0001628
3706	0.0001848
3718	0.0001364
3730	0.000132
3742	0.0001804
3754	0.000198
3766	0.0001628
3778	0.0001716
3790	0.0002068
3802	0.0001848
3814	0.0002024
3826	0.0001672
3838	0.0001672
