Infrared Spectrum: cis-3-Octene
Formula: C 8 H 16
CAS: 7642-15-1
State: gas
Instrument: HP-GC/MS/IRD
Origin: NIST Mass Spectrometry Data Center
1/CM	ABSORBANCE
550	0.0002752
562	0.000215
574	0.0003827
586	0.0006364
598	0.000387
610	0.0002408
622	0.0002924
634	0.0004128
646	0.0007181
658	0.0010965
670	0.0016039
682	0.0027391
694	0.0038442
706	0.0039775
718	0.0031175
730	0.0021113
742	0.0013545
754	0.0011051
766	0.0010148
778	0.0007353
790	0.0002537
802	0.0001075
814	8.6e-05
826	0.0001634
838	0.0004773
850	0.0009761
862	0.0014577
874	0.0017544
886	0.0016598
898	0.0012384
910	0.0007439
922	0.0003569
934	0.0001591
946	0.0001032
958	7.31e-05
970	0.000129
982	0.0002279
994	0.0002881
1006	0.0002838
1018	0.0001806
1030	0.0002752
1042	0.0007826
1054	0.0009976
1066	0.0013201
1078	0.0014405
1090	0.0008686
1102	0.0004687
1114	0.0002365
1126	0.0001763
1138	0.0001548
1150	3.87e-05
1162	0
1174	4.73e-05
1186	7.74e-05
1198	9.03e-05
1210	0.0001849
1222	0.0003354
1234	0.0004128
1246	0.0005676
1258	0.0009632
1270	0.0012255
1282	0.0008944
1294	0.0005934
1306	0.0008557
1318	0.0013115
1330	0.0016297
1342	0.0014921
1354	0.0009632
1366	0.0011395
1378	0.0022446
1390	0.002537
1402	0.0020726
1414	0.0017114
1426	0.0016942
1438	0.0027219
1450	0.0042355
1462	0.0051772
1474	0.0041065
1486	0.0023349
1498	0.001247
1510	0.0006794
1522	0.0004515
1534	0.0003569
1546	0.0002494
1558	0.000215
1570	0.000215
1582	0.0002279
1594	0.0002408
1606	0.0002623
1618	0.0003354
1630	0.0004515
1642	0.0006708
1654	0.000774
1666	0.0007396
1678	0.0005762
1690	0.0004343
1702	0.0002752
1714	0.0001978
1726	0.0001548
1738	8.17e-05
1750	6.88e-05
1762	6.88e-05
1774	4.73e-05
1786	4.3e-05
1798	5.59e-05
1810	0.0001075
1822	0.0001505
1834	0.0001978
1846	0.0001634
1858	0.0001247
1870	9.03e-05
1882	6.88e-05
1894	5.59e-05
1906	5.59e-05
1918	5.59e-05
1930	6.88e-05
1942	6.88e-05
1954	6.02e-05
1966	3.44e-05
1978	4.73e-05
1990	6.45e-05
2002	7.31e-05
2014	9.89e-05
2026	0.0001333
2038	0.0001548
2050	0.0001763
2062	0.0001376
2074	0.0001032
2086	8.17e-05
2098	7.31e-05
2110	8.6e-05
2122	7.31e-05
2134	8.6e-05
2146	8.6e-05
2158	9.03e-05
2170	9.89e-05
2182	0.000129
2194	0.0001118
2206	0.0001161
2218	0.0001032
2230	0.0001161
2242	9.03e-05
2254	7.74e-05
2266	0.0001075
2278	0.0001161
2290	6.88e-05
2302	6.02e-05
2314	3.44e-05
2326	4.3e-05
2338	6.88e-05
2350	6.88e-05
2362	2.15e-05
2374	2.58e-05
2386	0.0001161
2398	0.000129
2410	0.0001376
2422	0.0001763
2434	0.0001505
2446	0.0001161
2458	9.89e-05
2470	8.6e-05
2482	0.0001075
2494	0.0001419
2506	0.0001634
2518	0.0001763
2530	0.0001935
2542	0.0001935
2554	0.0002193
2566	0.0002279
2578	0.0002322
2590	0.0002451
2602	0.0002408
2614	0.000258
2626	0.0002623
2638	0.0003053
2650	0.0003569
2662	0.0004214
2674	0.0004644
2686	0.0004429
2698	0.0004687
2710	0.0005418
2722	0.0006321
2734	0.0007439
2746	0.00086
2758	0.0008901
2770	0.0009546
2782	0.0011868
2794	0.0015136
2806	0.0019264
2818	0.0025327
2830	0.0037367
2842	0.0061404
2854	0.0100018
2866	0.0157251
2878	0.0211517
2890	0.0203175
2902	0.0188426
2914	0.0223686
2926	0.0298463
2938	0.0370402
2950	0.0369972
2962	0.0414305
2974	0.0382485
2986	0.0203992
2998	0.0138847
3010	0.014319
3022	0.0116186
3034	0.0061275
3046	0.0030616
3058	0.0022145
3070	0.0018662
3082	0.0014792
3094	0.001204
3106	0.0010363
3118	0.0008557
3130	0.0007955
3142	0.0007224
3154	0.000645
3166	0.0005719
3178	0.0005289
3190	0.0004773
3202	0.0003698
3214	0.0003397
3226	0.000258
3238	0.0001978
3250	0.0001849
3262	0.0001806
3274	0.0002021
3286	0.0001892
3298	0.0001892
3310	0.0001634
3322	0.0001806
3334	0.0001419
3346	0.0001634
3358	0.0001118
3370	0.0001161
3382	0.0001075
3394	0.0001161
3406	0.000129
3418	0.0001118
3430	8.6e-05
3442	0.0001075
3454	4.3e-05
3466	7.74e-05
3478	0.0001032
3490	9.89e-05
3502	5.59e-05
3514	7.31e-05
3526	8.17e-05
3538	8.17e-05
3550	8.6e-05
3562	6.02e-05
3574	0.0001075
3586	5.59e-05
3598	9.89e-05
3610	4.73e-05
3622	8.17e-05
3634	0.0001505
3646	9.89e-05
3658	0.0001634
3670	0.000129
3682	0.0001333
3694	0.0001505
3706	0.000172
3718	0.0001806
3730	0.0001376
3742	9.46e-05
3754	0.0001634
3766	0.000172
3778	0.0001892
3790	0.0002107
3802	0.0001935
3814	0.0002365
3826	0.0001505
3838	0.0001806
