Infrared Spectrum: CYCLOHEXANOL, 4-AMINO-, HYDROCHLORIDE
Formula: C6 H14 Cl N O
CAS: 76445-65-3
State: SOLID (1 mg / 500 mg KBr DISC)
Class: COBLENTZ III
Instrument: PERKIN-ELMER 621
Sampling: TRANSMISSION
Resolution: 4
Origin: SOUTHERN RESEARCH INSTITUTE
1/CM	TRANSMITTANCE
253.065	0.211
263.555	0.2997
274.044	0.3976
284.534	0.4615
295.023	0.5623
305.513	0.6139
316.002	0.5976
326.492	0.6215
336.981	0.7486
347.471	0.8035
357.96	0.814
368.45	0.8083
378.939	0.6629
389.429	0.5284
399.918	0.7496
410.408	0.8696
420.897	0.8868
431.387	0.89
441.876	0.8187
452.366	0.8411
462.855	0.8793
473.345	0.8876
483.835	0.7534
494.324	0.8173
504.814	0.5899
515.303	0.8187
525.793	0.9076
536.282	0.9182
546.772	0.921
557.261	0.922
567.751	0.922
578.24	0.9179
588.73	0.909
599.219	0.879
609.709	0.8982
620.198	0.8814
630.688	0.8555
641.177	0.8421
651.667	0.8201
662.156	0.7975
672.646	0.7857
683.136	0.7338
693.625	0.5914
704.115	0.4886
714.604	0.6563
725.094	0.8163
735.583	0.8531
746.073	0.8693
756.562	0.8913
767.052	0.9163
777.541	0.9191
788.031	0.9161
798.52	0.9331
809.01	0.943
819.499	0.946
829.989	0.9458
840.478	0.942
850.968	0.9368
861.457	0.8918
871.947	0.924
882.436	0.9088
892.926	0.8008
903.416	0.8507
913.905	0.921
924.395	0.9079
934.884	0.8603
945.374	0.5152
955.863	0.843
966.353	0.92
976.842	0.9109
987.332	0.892
997.821	0.836
1008.31	0.7158
1018.8	0.7622
1029.29	0.7493
1039.78	0.6395
1050.27	0.3252
1060.76	0.6782
1071.25	0.2151
1081.74	0.6847
1092.23	0.8479
1102.72	0.8652
1113.21	0.912
1123.7	0.912
1134.19	0.9022
1144.67	0.878
1155.16	0.7188
1165.65	0.7871
1176.14	0.8362
1186.63	0.9068
1197.12	0.908
1207.61	0.907
1218.1	0.8986
1228.59	0.8726
1239.08	0.878
1249.57	0.8037
1260.06	0.8211
1270.55	0.8499
1281.04	0.7691
1291.53	0.6688
1302.02	0.8438
1312.51	0.7449
1323	0.832
1333.49	0.814
1343.98	0.8114
1354.47	0.7725
1364.95	0.6672
1375.44	0.717
1385.93	0.5227
1396.42	0.6967
1406.91	0.8068
1417.4	0.8208
1427.89	0.823
1438.38	0.7747
1448.87	0.6959
1459.36	0.5096
1469.85	0.818
1480.34	0.8119
1490.83	0.7923
1501.32	0.7653
1511.81	0.7076
1522.3	0.5333
1532.79	0.2187
1543.28	0.3686
1553.77	0.7601
1564.26	0.8265
1574.75	0.8268
1585.23	0.8111
1595.72	0.7194
1606.21	0.5187
1616.7	0.5262
1627.19	0.4322
1637.68	0.6901
1648.17	0.806
1658.66	0.8574
1669.15	0.8794
1679.64	0.8981
1690.13	0.908
1700.62	0.916
1711.11	0.922
1721.6	0.926
1732.09	0.926
1742.58	0.932
1753.07	0.936
1763.56	0.936
1774.05	0.933
1784.54	0.929
1795.03	0.9251
1805.51	0.9151
1816	0.9119
1826.49	0.9187
1836.98	0.922
1847.47	0.9173
1857.96	0.913
1868.45	0.913
1878.94	0.912
1889.43	0.9072
1899.92	0.903
1910.41	0.894
1920.9	0.9023
1931.39	0.9045
1941.88	0.8903
1952.37	0.8823
1962.86	0.8708
1973.35	0.8593
1983.84	0.8517
1994.33	0.849
2004.82	0.839
2015.31	0.832
2025.79	0.8133
2036.28	0.7917
2046.77	0.7573
2057.26	0.7147
2067.75	0.6787
2078.24	0.702
2088.73	0.7697
2099.22	0.814
2109.71	0.851
2120.2	0.876
2130.69	0.8817
2141.18	0.893
2151.67	0.899
2162.16	0.9
2172.65	0.898
2183.14	0.895
2193.63	0.8943
2204.12	0.8927
2214.61	0.89
2225.1	0.889
2235.59	0.889
2246.07	0.8817
2256.56	0.879
2267.05	0.8743
2277.54	0.872
2288.03	0.872
2298.52	0.8693
2309.01	0.858
2319.5	0.8347
2329.99	0.83
2340.48	0.826
2350.97	0.822
2361.46	0.819
2371.95	0.819
2382.44	0.8143
2392.93	0.7893
2403.42	0.771
2413.91	0.7967
2424.4	0.7963
2434.89	0.7767
2445.38	0.7753
2455.87	0.7613
2466.35	0.7447
2476.84	0.7123
2487.33	0.6623
2497.82	0.6487
2508.31	0.6973
2518.8	0.6763
2529.29	0.646
2539.78	0.5866
2550.27	0.5236
2560.76	0.458
2571.25	0.4353
2581.74	0.4674
2592.23	0.5808
2602.72	0.544
2613.21	0.5397
2623.7	0.5187
2634.19	0.4687
2644.68	0.4643
2655.17	0.4457
2665.66	0.4667
2676.15	0.4623
2686.63	0.4403
2697.12	0.427
2707.61	0.446
2718.1	0.47
2728.59	0.4717
2739.08	0.4503
2749.57	0.3986
2760.06	0.332
2770.55	0.3143
2781.04	0.294
2791.53	0.2993
2802.02	0.2817
2812.51	0.2673
2823	0.229
2833.49	0.191
2843.98	0.153
2854.47	0.126
2864.96	0.1227
2875.45	0.1267
2885.94	0.124
2896.43	0.1083
2906.91	0.107
2917.4	0.107
2927.89	0.0997
2938.38	0.0907
2948.87	0.1187
2959.36	0.1297
2969.85	0.134
2980.34	0.13
2990.83	0.127
3001.32	0.1347
3011.81	0.1453
3022.3	0.1553
3032.79	0.17
3043.28	0.2057
3053.77	0.2447
3064.26	0.276
3074.75	0.2713
3085.24	0.2887
3095.73	0.3447
3106.22	0.4013
3116.71	0.4437
3127.19	0.4833
3137.68	0.506
3148.17	0.4987
3158.66	0.502
3169.15	0.5174
3179.64	0.524
3190.13	0.5077
3200.62	0.4687
3211.11	0.4193
3221.6	0.3683
3232.09	0.305
3242.58	0.1947
3253.07	0.1193
3263.56	0.135
3274.05	0.1944
3284.54	0.253
3295.03	0.2883
3305.52	0.332
3316.01	0.3794
3326.5	0.4174
3336.99	0.4543
3347.47	0.483
3357.96	0.512
3368.45	0.5253
3378.94	0.5473
3389.43	0.5593
3399.92	0.569
3410.41	0.577
3420.9	0.5827
3431.39	0.5877
3441.88	0.6047
3452.37	0.6193
3462.86	0.6437
3473.35	0.6583
3483.84	0.6753
3494.33	0.6883
3504.82	0.7053
3515.31	0.718
3525.8	0.7333
3536.29	0.7487
3546.78	0.764
3557.27	0.7747
3567.75	0.7877
3578.24	0.7957
3588.73	0.8113
3599.22	0.8203
3609.71	0.833
3620.2	0.8463
3630.69	0.8527
3641.18	0.86
3651.67	0.865
3662.16	0.866
3672.65	0.866
3683.14	0.8713
3693.63	0.881
3704.12	0.882
3714.61	0.883
3725.1	0.885
3735.59	0.8823
3746.08	0.8897
3756.57	0.891
3767.06	0.892
3777.55	0.892
3788.03	0.8933
3798.52	0.894
3809.01	0.894
3819.5	0.894
3829.99	0.894
3840.48	0.894
3850.97	0.8947
3861.46	0.896
3871.95	0.8943
3882.44	0.894
3892.93	0.894
3903.42	0.894
3913.91	0.895
3924.4	0.895
3934.89	0.895
3945.38	0.895
3955.87	0.894
3966.36	0.894
3976.85	0.894
3987.34	0.894
3997.83	0.894
