Infrared Spectrum: Sodium chloride
Formula: Na Cl
CAS: 7647-14-5
State: solid
Instrument: Bruker Tensor 37 FTIR
Resolution: 0.96450084
Origin: Pacific Northwest National Laboratory Under IARPA Contract
1/cm	Reflectance
7498.99	0.752247
7481.63	0.749355
7464.27	0.749566
7446.91	0.747211
7429.55	0.745227
7412.19	0.744962
7394.84	0.743546
7377.48	0.740784
7360.12	0.740656
7342.76	0.738209
7325.4	0.73401
7308.04	0.733475
7290.68	0.727791
7273.32	0.724805
7255.96	0.721384
7238.6	0.721499
7221.24	0.719619
7203.88	0.721177
7186.52	0.724106
7169.16	0.723464
7151.8	0.725521
7134.44	0.726261
7117.08	0.727399
7099.72	0.731195
7082.36	0.732847
7065	0.736404
7047.64	0.73848
7030.28	0.739534
7012.92	0.740463
6995.56	0.742734
6978.2	0.741931
6960.84	0.743487
6943.48	0.744346
6926.12	0.74571
6908.76	0.7477
6891.4	0.747669
6874.04	0.746501
6856.68	0.74841
6839.32	0.749881
6821.96	0.750087
6804.6	0.749403
6787.24	0.75073
6769.88	0.751145
6752.52	0.750642
6735.16	0.751114
6717.8	0.753087
6700.44	0.753211
6683.08	0.75178
6665.72	0.753117
6648.36	0.753298
6631	0.751946
6613.64	0.750567
6596.28	0.751405
6578.92	0.750163
6561.56	0.749693
6544.2	0.749623
6526.85	0.747917
6509.49	0.749002
6492.13	0.749196
6474.77	0.747719
6457.41	0.748337
6440.05	0.745461
6422.69	0.740901
6405.33	0.727998
6387.97	0.700514
6370.61	0.671666
6353.25	0.656312
6335.89	0.651475
6318.53	0.655128
6301.17	0.661336
6283.81	0.671572
6266.45	0.682783
6249.09	0.694797
6231.73	0.704918
6214.37	0.713841
6197.01	0.720336
6179.65	0.724816
6162.29	0.727484
6144.93	0.731553
6127.57	0.733238
6110.21	0.736118
6092.85	0.736539
6075.49	0.738048
6058.13	0.738157
6040.77	0.740125
6023.41	0.739615
6006.05	0.740413
5988.69	0.739939
5971.33	0.740782
5953.97	0.739696
5936.61	0.737692
5919.25	0.735965
5901.89	0.733701
5884.53	0.730846
5867.17	0.726786
5849.81	0.722398
5832.45	0.717112
5815.09	0.709864
5797.73	0.703974
5780.37	0.695109
5763.01	0.686973
5745.65	0.680144
5728.29	0.67526
5710.93	0.674154
5693.57	0.673355
5676.21	0.671581
5658.86	0.664781
5641.5	0.653522
5624.14	0.630896
5606.78	0.588933
5589.42	0.497523
5572.06	0.393629
5554.7	0.336199
5537.34	0.303057
5519.98	0.278454
5502.62	0.260343
5485.26	0.247593
5467.9	0.239467
5450.54	0.236598
5433.18	0.239898
5415.82	0.248784
5398.46	0.260239
5381.1	0.271165
5363.74	0.285487
5346.38	0.309071
5329.02	0.34034
5311.66	0.375646
5294.3	0.413629
5276.94	0.451644
5259.58	0.489173
5242.22	0.52566
5224.86	0.558034
5207.5	0.585726
5190.14	0.616923
5172.78	0.639449
5155.42	0.661636
5138.06	0.676619
5120.7	0.688187
5103.34	0.695995
5085.98	0.700825
5068.62	0.703498
5051.26	0.702775
5033.9	0.699918
5016.54	0.694629
4999.18	0.689205
4981.82	0.684754
4964.46	0.676462
4947.1	0.665386
4929.74	0.652191
4912.38	0.640483
4895.02	0.628393
4877.66	0.615044
4860.3	0.600959
4842.94	0.586815
4825.58	0.574752
4808.22	0.565802
4790.86	0.564108
4773.51	0.56937
4756.15	0.582248
4738.79	0.59845
4721.43	0.614959
4704.07	0.626201
4686.71	0.631806
4669.35	0.631569
4651.99	0.622178
4634.63	0.603861
4617.27	0.560079
4599.91	0.471478
4582.55	0.366958
4565.19	0.337289
4547.83	0.426304
4530.47	0.49155
4513.11	0.511002
4495.75	0.514958
4478.39	0.517329
4461.03	0.519315
4443.67	0.523846
4426.31	0.528622
4408.95	0.52867
4391.59	0.528074
4374.23	0.526469
4356.87	0.52244
4339.51	0.50051
4322.15	0.475447
4304.79	0.472888
4287.43	0.503121
4270.07	0.517732
4252.71	0.516986
4235.35	0.511065
4217.99	0.499292
4200.63	0.476246
4183.27	0.443144
4165.91	0.410929
4148.55	0.379636
4131.19	0.354245
4113.83	0.334032
4096.47	0.31598
4079.11	0.297701
4061.75	0.274331
4044.39	0.744858
4027.03	0.745152
4009.67	0.745846
3992.31	0.744885
3974.95	0.743607
3957.59	0.743903
3940.23	0.74284
3922.87	0.740943
3905.52	0.739921
3888.16	0.737215
3870.8	0.73337
3853.44	0.731451
3836.08	0.725908
3818.72	0.724036
3801.36	0.721637
3784	0.720658
3766.64	0.720288
3749.28	0.721625
3731.92	0.721998
3714.56	0.724027
3697.2	0.726225
3679.84	0.726789
3662.48	0.729093
3645.12	0.730374
3627.76	0.732845
3610.4	0.736737
3593.04	0.737028
3575.68	0.739046
3558.32	0.740122
3540.96	0.740694
3523.6	0.742406
3506.24	0.743315
3488.88	0.744858
3471.52	0.745747
3454.16	0.745893
3436.8	0.746872
3419.44	0.747512
3402.08	0.748079
3384.72	0.749914
3367.36	0.749586
3350	0.750523
3332.64	0.751681
3315.28	0.751317
3297.92	0.75107
3280.56	0.752288
3263.2	0.752574
3245.84	0.752976
3228.48	0.752584
3211.12	0.752603
3193.76	0.752819
3176.4	0.752352
3159.04	0.750954
3141.68	0.750843
3124.32	0.750261
3106.96	0.750008
3089.6	0.749713
3072.24	0.749001
3054.88	0.749167
3037.53	0.749095
3020.17	0.748532
3002.81	0.748047
2985.45	0.744545
2968.09	0.738202
2950.73	0.723121
2933.37	0.693678
2916.01	0.669847
2898.65	0.658805
2881.29	0.656185
2863.93	0.660817
2846.57	0.668479
2829.21	0.677819
2811.85	0.689772
2794.49	0.700904
2777.13	0.709652
2759.77	0.717394
2742.41	0.722897
2725.05	0.727222
2707.69	0.729627
2690.33	0.733316
2672.97	0.734276
2655.61	0.737003
2638.25	0.738082
2620.89	0.738881
2603.53	0.739673
2586.17	0.740034
2568.81	0.739866
2551.45	0.740232
2534.09	0.739902
2516.73	0.739446
2499.37	0.73889
2482.01	0.736659
2464.65	0.735575
2447.29	0.733616
2429.93	0.730143
2412.57	0.725657
2395.21	0.720901
2377.85	0.715829
2360.49	0.709225
2343.13	0.702018
2325.77	0.693935
2308.41	0.686849
2291.05	0.680227
2273.69	0.677526
2256.33	0.676781
2238.97	0.676281
2221.61	0.673365
2204.25	0.66557
2186.89	0.651567
2169.53	0.626467
2152.18	0.570967
2134.82	0.468741
2117.46	0.378503
2100.1	0.330872
2082.74	0.300862
2065.38	0.278436
2048.02	0.261424
2030.66	0.24979
2013.3	0.242792
1995.94	0.24173
1978.58	0.246848
1961.22	0.256792
1943.86	0.267896
1926.5	0.279174
1909.14	0.296954
1891.78	0.323279
1874.42	0.355699
1857.06	0.391979
1839.7	0.429323
1822.34	0.466651
1804.98	0.502977
1787.62	0.537348
1770.26	0.567368
1752.9	0.596426
1735.54	0.62226
1718.18	0.645115
1700.82	0.663418
1683.46	0.676372
1666.1	0.686078
1648.74	0.692893
1631.38	0.696726
1614.02	0.697979
1596.66	0.697135
1579.3	0.693793
1561.94	0.687798
1544.58	0.68322
1527.22	0.677651
1509.86	0.668836
1492.5	0.659003
1475.14	0.647635
1457.78	0.634835
1440.42	0.621786
1423.06	0.60812
1405.7	0.594611
1388.34	0.581372
1370.98	0.569921
1353.62	0.563036
1336.26	0.563137
1318.9	0.570441
1301.54	0.584014
1284.19	0.599698
1266.83	0.613783
1249.47	0.623143
1232.11	0.626332
1214.75	0.623163
1197.39	0.610305
1180.03	0.588171
1162.67	0.534692
1145.31	0.434974
1127.95	0.345453
1110.59	0.354548
1093.23	0.450073
1075.87	0.495136
1058.51	0.507472
1041.15	0.509245
1023.79	0.509991
1006.43	0.51352
989.068	0.51651
971.709	0.519378
954.349	0.51842
936.989	0.516774
919.629	0.51496
902.269	0.508822
884.91	0.479788
867.55	0.45836
850.19	0.469886
832.83	0.497475
815.47	0.504976
798.111	0.501941
780.751	0.494719
763.391	0.479099
746.031	0.453415
728.671	0.420091
711.312	0.389431
693.952	0.36007
676.592	0.336873
659.232	0.317025
641.872	0.299554
624.513	0.279909
607.153	0.258042
