Infrared Spectrum: Acetamide, N-(4-benzylphenyl)-
Formula: C15 H15 N O
CAS: 76472-81-6
State: SOLID (NUJOL MULL)
Class: COBLENTZ III
Instrument: BECKMAN IR-4 (HYBRID PRISM-GRATING)
Instrument parameters: NaCl PRISM
Sampling: TRANSMISSION
Resolution: 2
Origin: MONSANTO (J. FREEMAN)
1/CM	TRANSMITTANCE
627.033	0.9044
636.179	0.902
645.325	0.89
654.471	0.8875
663.617	0.9071
672.763	0.904
681.909	0.9085
691.055	0.6039
700.201	0.7737
709.347	0.854
718.493	0.618
727.639	0.3256
736.785	0.5717
745.931	0.7658
755.077	0.7017
764.223	0.5362
773.369	0.4579
782.515	0.4654
791.661	0.7884
800.807	0.861
809.953	0.8716
819.099	0.8702
828.245	0.7597
837.391	0.5769
846.537	0.4081
855.683	0.5446
864.829	0.8687
873.975	0.9058
883.121	0.9065
892.267	0.9122
901.413	0.9209
910.559	0.9181
919.705	0.911
928.851	0.8598
937.997	0.8946
947.143	0.8862
956.289	0.8542
965.435	0.7189
974.581	0.8633
983.727	0.8908
992.873	0.8969
1002.02	0.8799
1011.16	0.8005
1020.31	0.7475
1029.46	0.7892
1038.6	0.7846
1047.75	0.8195
1056.89	0.8922
1066.04	0.8824
1075.19	0.8737
1084.33	0.9189
1093.48	0.9231
1102.62	0.9101
1111.77	0.8439
1120.92	0.9181
1130.06	0.9162
1139.21	0.9107
1148.35	0.9023
1157.5	0.8953
1166.65	0.896
1175.79	0.8325
1184.94	0.8774
1194.08	0.8935
1203.23	0.8503
1212.38	0.878
1221.52	0.87
1230.67	0.8682
1239.81	0.8619
1248.96	0.8412
1258.11	0.7685
1267.25	0.6218
1276.4	0.7601
1285.54	0.8271
1294.69	0.7961
1303.84	0.7367
1312.98	0.6233
1322.13	0.3375
1331.27	0.6183
1340.42	0.7453
1349.57	0.7307
1358.71	0.6481
1367.86	0.456
1377	0.4199
1386.15	0.6117
1395.3	0.6145
1404.44	0.3629
1413.59	0.3636
1422.73	0.6282
1431.88	0.5495
1441.03	0.4565
1450.17	0.3106
1459.32	0.2994
1468.46	0.3703
1477.61	0.5246
1486.76	0.5038
1495.9	0.2576
1505.05	0.3614
1514.19	0.2585
1523.34	0.3083
1532.49	0.4013
1541.63	0.4624
1550.78	0.3075
1559.92	0.1623
1569.07	0.5813
1578.22	0.6507
1587.36	0.5137
1596.51	0.3781
1605.65	0.2441
1614.8	0.2088
1623.95	0.4147
1633.09	0.509
1642.24	0.3553
1651.38	0.205
1660.53	0.0652
1669.68	0.3685
1678.82	0.7424
1687.97	0.8111
1697.11	0.8545
1706.26	0.8893
1715.41	0.9125
1724.55	0.9273
1733.7	0.9313
1742.84	0.9302
1751.99	0.9279
1761.14	0.9246
1770.28	0.9209
1779.43	0.9166
1788.57	0.9123
1797.72	0.9092
1806.87	0.9076
1816.01	0.91
1825.16	0.9168
1834.3	0.918
1843.45	0.9181
1852.6	0.9176
1861.74	0.9172
1870.89	0.9154
1880.03	0.9119
1889.18	0.9055
1898.33	0.8936
1907.47	0.8815
1916.62	0.8904
1925.76	0.9018
1934.91	0.91
1944.06	0.9124
1953.2	0.9114
1962.35	0.9083
1971.49	0.9087
1980.64	0.9129
1989.79	0.9158
1998.93	0.9164
2008.08	0.9166
2017.22	0.9164
2026.37	0.9156
2035.52	0.9146
2044.66	0.9137
2053.81	0.9133
2062.95	0.9128
2072.1	0.9121
2081.25	0.9111
2090.39	0.91
2099.54	0.9092
2108.68	0.9085
2117.83	0.9078
2126.98	0.9072
2136.12	0.9065
2145.27	0.9059
2154.41	0.9051
2163.56	0.9043
2172.71	0.9036
2181.85	0.9028
2191	0.9018
2200.14	0.9008
2209.29	0.8997
2218.44	0.8988
2227.58	0.8978
2236.73	0.8963
2245.87	0.8947
2255.02	0.8932
2264.17	0.8917
2273.31	0.8901
2282.46	0.8884
2291.6	0.8867
2300.75	0.8851
2309.9	0.884
2319.04	0.8834
2328.19	0.8829
2337.33	0.8824
2346.48	0.8818
2355.63	0.8814
2364.77	0.881
2373.92	0.8807
2383.06	0.8803
2392.21	0.88
2401.36	0.8798
2410.5	0.8796
2419.65	0.8793
2428.79	0.879
2437.94	0.8784
2447.09	0.8778
2456.23	0.8772
2465.38	0.8763
2474.52	0.8748
2483.67	0.8734
2492.82	0.8718
2501.96	0.8703
2511.11	0.8684
2520.25	0.8665
2529.4	0.8644
2538.55	0.8619
2547.69	0.8593
2556.84	0.857
2565.98	0.8545
2575.13	0.8521
2584.28	0.8499
2593.42	0.8476
2602.57	0.8453
2611.71	0.843
2620.86	0.8408
2630.01	0.8383
2639.15	0.8359
2648.3	0.8333
2657.44	0.8309
2666.59	0.8285
2675.74	0.826
2684.88	0.8235
2694.03	0.8211
2703.17	0.8187
2712.32	0.8164
2721.47	0.814
2730.61	0.8115
2739.76	0.8092
2748.9	0.8065
2758.05	0.804
2767.2	0.7997
2776.34	0.7938
2785.49	0.7755
2794.63	0.7551
2803.78	0.7373
2812.93	0.7164
2822.07	0.696
2831.22	0.6686
2840.36	0.6447
2849.51	0.6074
2858.66	0.4938
2867.8	0.3405
2876.95	0.206
2886.09	0.1205
2895.24	0.1244
2904.39	0.1437
2913.53	0.1494
2922.68	0.1199
2931.82	0.0869
2940.97	0.0543
2950.11	0.0342
2959.26	0.0299
2968.41	0.03
2977.55	0.0329
2986.7	0.0852
2995.84	0.1754
3004.99	0.2651
3014.14	0.3542
3023.28	0.4428
3032.43	0.5203
3041.57	0.5238
3050.72	0.5222
3059.87	0.5107
3069.01	0.4949
3078.16	0.4791
3087.3	0.4688
3096.45	0.4889
3105.6	0.5144
3114.74	0.5182
3123.89	0.4933
3133.03	0.4659
3142.18	0.443
3151.33	0.449
3160.47	0.4738
3169.62	0.4988
3178.76	0.5222
3187.91	0.5025
3197.06	0.4638
3206.2	0.4269
3215.35	0.4229
3224.49	0.4492
3233.64	0.4467
3242.79	0.3914
3251.93	0.3363
3261.08	0.2852
3270.22	0.2703
3279.37	0.2701
3288.52	0.2704
3297.66	0.2734
3306.81	0.2802
3315.95	0.3571
3325.1	0.4825
3334.25	0.6057
3343.39	0.7038
3352.54	0.7325
3361.68	0.762
3370.83	0.7907
3379.98	0.8
3389.12	0.8049
3398.27	0.8091
3407.41	0.8108
3416.56	0.8122
3425.71	0.8135
3434.85	0.8142
3444	0.8151
3453.14	0.8157
3462.29	0.8164
3471.44	0.8171
3480.58	0.817
3489.73	0.817
3498.87	0.8169
3508.02	0.8168
3517.17	0.8162
3526.31	0.8156
3535.46	0.8149
3544.6	0.8143
3553.75	0.8136
3562.9	0.813
3572.04	0.8123
3581.19	0.8117
3590.33	0.811
3599.48	0.8101
3608.63	0.8092
3617.77	0.8082
3626.92	0.8074
3636.06	0.8065
3645.21	0.8057
3654.36	0.8048
3663.5	0.8038
3672.65	0.803
3681.79	0.8021
3690.94	0.8013
3700.09	0.8004
3709.23	0.7995
3718.38	0.7984
3727.52	0.7973
3736.67	0.7962
3745.82	0.7951
3754.96	0.794
3764.11	0.7929
3773.25	0.7918
3782.4	0.7907
3791.55	0.7896
3800.69	0.7885
3809.84	0.7874
3818.98	0.7863
3828.13	0.7853
3837.28	0.7843
3846.42	0.7831
3855.57	0.7819
3864.71	0.7807
3873.86	0.7794
3883.01	0.7782
3892.15	0.777
3901.3	0.7758
3910.44	0.7746
3919.59	0.7734
3928.74	0.7722
3937.88	0.7711
3947.03	0.7699
3956.17	0.7687
3965.32	0.7675
3974.47	0.7664
3983.61	0.7652
3992.76	0.7639
4001.9	0.7623
4011.05	0.7608
4020.2	0.7592
4029.34	0.7577
4038.49	0.7563
4047.63	0.7548
4056.78	0.7533
