Infrared Spectrum: HYDROGEN CHLORIDE
Formula: H Cl
CAS: 7647-01-0
State: GAS (200 mmHg DILUTED TO A TOTAL PRESSURE OF 600 mmHg WITH N2)
Class: COBLENTZ
Instrument: DOW KBr FOREPRISM
Instrument parameters: GRATING CHANGED AT 5.0, 7.5, 15.0 MICRON
Sampling: TRANSMISSION
Path length: 5 CM
Resolution: 4
Origin: DOW CHEMICAL COMPANY
1/CM	TRANSMITTANCE
456.047	0.959
464.463	0.956
472.88	0.952
481.296	0.949
489.713	0.946
498.129	0.946
506.546	0.942
514.962	0.942
523.379	0.942
531.795	0.942
540.212	0.945
548.628	0.946
557.045	0.949
565.461	0.952
573.878	0.952
582.294	0.95
590.711	0.952
599.127	0.956
607.543	0.953
615.96	0.956
624.376	0.956
632.793	0.958
641.209	0.956
649.626	0.953
658.042	0.952
666.459	0.952
674.875	0.949
683.292	0.943
691.708	0.929
700.125	0.909
708.541	0.911
716.958	0.932
725.374	0.956
733.791	0.961
742.207	0.966
750.623	0.963
759.04	0.965
767.456	0.963
775.873	0.963
784.289	0.966
792.706	0.966
801.122	0.966
809.539	0.968
817.955	0.968
826.372	0.968
834.788	0.972
843.205	0.966
851.621	0.972
860.038	0.972
868.454	0.972
876.87	0.972
885.287	0.972
893.703	0.972
902.12	0.972
910.536	0.974
918.953	0.974
927.369	0.975
935.786	0.976
944.202	0.976
952.619	0.975
961.035	0.974
969.452	0.971
977.868	0.968
986.285	0.966
994.701	0.972
1003.12	0.974
1011.53	0.974
1019.95	0.971
1028.37	0.968
1036.78	0.961
1045.2	0.956
1053.62	0.955
1062.03	0.959
1070.45	0.962
1078.87	0.963
1087.28	0.965
1095.7	0.966
1104.12	0.971
1112.53	0.976
1120.95	0.978
1129.36	0.978
1137.78	0.978
1146.2	0.976
1154.61	0.979
1163.03	0.979
1171.45	0.978
1179.86	0.969
1188.28	0.978
1196.7	0.979
1205.11	0.981
1213.53	0.978
1221.95	0.971
1230.36	0.971
1238.78	0.958
1247.2	0.959
1255.61	0.962
1264.03	0.965
1272.44	0.962
1280.86	0.961
1289.28	0.958
1297.69	0.963
1306.11	0.961
1314.53	0.965
1322.94	0.965
1331.36	0.962
1339.78	0.959
1348.19	0.958
1356.61	0.968
1365.03	0.961
1373.44	0.95
1381.86	0.943
1390.28	0.943
1398.69	0.948
1407.11	0.95
1415.52	0.952
1423.94	0.95
1432.36	0.949
1440.77	0.952
1449.19	0.945
1457.61	0.952
1466.02	0.949
1474.44	0.946
1482.86	0.946
1491.27	0.95
1499.69	0.95
1508.11	0.95
1516.52	0.95
1524.94	0.952
1533.36	0.953
1541.77	0.955
1550.19	0.956
1558.6	0.958
1567.02	0.959
1575.44	0.959
1583.85	0.959
1592.27	0.958
1600.69	0.956
1609.1	0.956
1617.52	0.956
1625.94	0.952
1634.35	0.948
1642.77	0.943
1651.19	0.942
1659.6	0.946
1668.02	0.953
1676.44	0.955
1684.85	0.956
1693.27	0.953
1701.68	0.959
1710.1	0.953
1718.52	0.961
1726.93	0.953
1735.35	0.961
1743.77	0.95
1752.18	0.948
1760.6	0.942
1769.02	0.939
1777.43	0.939
1785.85	0.94
1794.27	0.946
1802.68	0.949
1811.1	0.952
1819.52	0.952
1827.93	0.955
1836.35	0.955
1844.76	0.956
1853.18	0.956
1861.6	0.956
1870.01	0.956
1878.43	0.956
1886.85	0.958
1895.26	0.956
1903.68	0.956
1912.1	0.956
1920.51	0.956
1928.93	0.959
1937.35	0.958
1945.76	0.959
1954.18	0.959
1962.6	0.958
1971.01	0.959
1979.43	0.959
1987.84	0.961
1996.26	0.961
2004.68	0.9625
2013.09	0.963
2021.51	0.963
2029.93	0.963
2038.34	0.963
2046.76	0.963
2055.18	0.963
2063.59	0.963
2072.01	0.963
2080.43	0.963
2088.84	0.963
2097.26	0.9632
2105.68	0.9624
2114.09	0.963
2122.51	0.963
2130.92	0.963
2139.34	0.963
2147.76	0.962
2156.17	0.963
2164.59	0.963
2173.01	0.965
2181.42	0.965
2189.84	0.965
2198.26	0.9652
2206.67	0.966
2215.09	0.966
2223.51	0.968
2231.92	0.968
2240.34	0.966
2248.76	0.966
2257.17	0.966
2265.59	0.966
2274	0.966
2282.42	0.9676
2290.84	0.9675
2299.25	0.969
2307.67	0.969
2316.09	0.9705
2324.5	0.974
2332.92	0.976
2341.34	0.978
2349.75	0.976
2358.17	0.978
2366.59	0.976
2375	0.9742
2383.42	0.9683
2391.84	0.9676
2400.25	0.9687
2408.67	0.968
2417.08	0.966
2425.5	0.965
2433.92	0.965
2442.33	0.965
2450.75	0.965
2459.17	0.965
2467.58	0.965
2476	0.965
2484.42	0.963
2492.83	0.963
2501.25	0.963
2509.67	0.965
2518.08	0.9638
2526.5	0.963
2534.92	0.962
2543.33	0.962
2551.75	0.962
2560.16	0.962
2568.58	0.963
2577	0.966
2585.41	0.9639
2593.83	0.9609
2602.25	0.958
2610.66	0.961
2619.08	0.96
2627.5	0.9421
2635.91	0.9605
2644.33	0.961
2652.75	0.883
2661.16	0.961
2669.58	0.962
2678	0.7813
2686.41	0.961
2694.83	0.9591
2703.24	0.669
2711.66	0.9497
2720.08	0.958
2728.49	0.5744
2736.91	0.953
2745.33	0.9532
2753.74	0.5354
2762.16	0.9456
2770.58	0.9384
2778.99	0.336
2787.41	0.945
2795.83	0.663
2804.24	0.701
2812.66	0.9391
2821.08	0.2685
2829.49	0.9315
2837.91	0.8804
2846.32	0.272
2854.74	0.9487
2863.16	0.7688
2871.57	0.9351
2879.99	0.949
2888.41	0.953
2896.82	0.949
2905.24	0.389
2913.66	0.9513
2922.07	0.6246
2930.49	0.8196
2938.91	0.9199
2947.32	0.262
2955.74	0.9287
2964.16	0.265
2972.57	0.924
2980.99	0.3985
2989.4	0.9223
2997.82	0.6396
3006.24	0.93
3014.65	0.6631
3023.07	0.9326
3031.49	0.679
3039.9	0.9343
3048.32	0.7817
3056.74	0.8628
3065.15	0.9243
3073.57	0.9093
3081.99	0.9233
3090.4	0.9362
3098.82	0.94
3107.24	0.942
3115.65	0.942
3124.07	0.942
3132.48	0.942
3140.9	0.94
3149.32	0.94
3157.73	0.939
3166.15	0.939
3174.57	0.9388
3182.98	0.937
3191.4	0.937
3199.82	0.937
3208.23	0.937
3216.65	0.937
3225.07	0.936
3233.48	0.936
3241.9	0.936
3250.32	0.936
3258.73	0.936
3267.15	0.936
3275.56	0.936
3283.98	0.936
3292.4	0.936
3300.81	0.936
3309.23	0.937
3317.65	0.937
3326.06	0.939
3334.48	0.94
3342.9	0.9419
3351.31	0.942
3359.73	0.942
3368.15	0.9439
3376.56	0.946
3384.98	0.948
3393.39	0.9499
3401.81	0.952
3410.23	0.9548
3418.64	0.956
3427.06	0.9589
3435.48	0.961
3443.89	0.9629
3452.31	0.965
3460.73	0.9677
3469.14	0.9697
3477.56	0.9718
3485.98	0.9743
3494.39	0.976
3502.81	0.978
3511.23	0.979
3519.64	0.982
3528.06	0.9836
3536.47	0.9843
3544.89	0.985
3553.31	0.987
3561.72	0.987
3570.14	0.988
3578.56	0.991
3586.97	0.991
3595.39	0.991
3603.81	0.992
3612.22	0.991
3620.64	0.988
3629.06	0.9957
3637.47	0.9963
3645.89	0.9883
3654.31	0.997
3662.72	0.9943
3671.14	0.9906
3679.55	0.9883
3687.97	0.9882
3696.39	0.9934
3704.8	0.9975
3713.22	1.001
3721.64	1.001
3730.05	0.9987
3738.47	0.998
3746.89	0.9957
3755.3	0.994
3763.72	0.9927
