Infrared Spectrum: 3-ETHYLRHODANINE
Formula: C5 H7 N O S2
CAS: 7648-01-3
State: SOLID (MINERAL OIL MULL)
Melting point: 36.5-39 C
Class: COBLENTZ
Instrument: Not specified, most likely a prism, grating, or hybrid spectrometer.
Sampling: TRANSMISSION
Resolution: 4
Origin: WYANDOTTE CHEMICALS CORP., WYANDOTTE, MICHIGAN, USA
MICROMETERS	TRANSMITTANCE
2.027	0.545
2.06677	0.545
2.10654	0.55
2.14631	0.545
2.18609	0.542
2.22586	0.543
2.26563	0.547
2.3054	0.545
2.34517	0.542
2.38494	0.545
2.42471	0.552
2.46449	0.555
2.50426	0.548
2.54403	0.553
2.5838	0.563
2.62357	0.563
2.66334	0.565
2.70311	0.563
2.74289	0.553
2.78266	0.557
2.82243	0.553
2.8622	0.543
2.90197	0.517
2.94174	0.505
2.98151	0.535
3.02129	0.545
3.06106	0.548
3.10083	0.548
3.1406	0.543
3.18037	0.543
3.22014	0.538
3.25991	0.515
3.29969	0.442
3.33946	0.102
3.37923	0.102
3.419	0.177
3.45877	0.245
3.49854	0.303
3.53831	0.562
3.57809	0.61
3.61786	0.615
3.65763	0.608
3.6974	0.611
3.73717	0.615
3.77694	0.626
3.81671	0.628
3.85649	0.631
3.89626	0.635
3.93603	0.63
3.9758	0.66
4.01557	0.665
4.05534	0.66
4.09511	0.653
4.13489	0.656
4.17466	0.66
4.21443	0.66
4.2542	0.651
4.29397	0.661
4.33374	0.665
4.37351	0.679
4.41329	0.713
4.45306	0.699
4.49283	0.688
4.5326	0.716
4.57237	0.718
4.61214	0.716
4.65191	0.724
4.69169	0.752
4.73146	0.752
4.77123	0.764
4.811	0.772
4.85077	0.781
4.89054	0.8
4.93031	0.805
4.97009	0.814
5.00986	0.82
5.04963	0.82
5.0894	0.827
5.12917	0.842
5.16894	0.85
5.20871	0.868
5.24849	0.873
5.28826	0.903
5.32803	0.902
5.3678	0.893
5.40757	0.913
5.44734	0.936
5.48711	0.955
5.52689	0.946
5.56666	0.93
5.60643	0.96
5.6462	0.87
5.68597	0.56
5.72574	0.207
5.76551	0.114
5.80529	0.127
5.84506	0.2
5.88483	0.273
5.9246	0.283
5.96437	0.328
6.00414	0.406
6.04391	0.477
6.08369	0.542
6.12346	0.587
6.16323	0.613
6.203	0.633
6.24277	0.684
6.28254	0.711
6.32231	0.718
6.36209	0.713
6.40186	0.733
6.44163	0.718
6.4814	0.716
6.52117	0.736
6.56094	0.764
6.60071	0.782
6.64049	0.787
6.68026	0.791
6.72003	0.757
6.7598	0.636
6.79957	0.431
6.83934	0.257
6.87911	0.393
6.91889	0.273
6.95866	0.275
6.99843	0.538
7.0382	0.723
7.07797	0.721
7.11774	0.573
7.15751	0.301
7.19729	0.192
7.23706	0.127
7.27683	0.091
7.3166	0.149
7.35637	0.134
7.39614	0.074
7.43591	0.089
7.47569	0.114
7.51546	0.076
7.55523	0.087
7.595	0.159
7.63477	0.255
7.67454	0.376
7.71431	0.487
7.75409	0.553
7.79386	0.582
7.83363	0.522
7.8734	0.401
7.91317	0.248
7.95294	0.145
7.99271	0.074
8.03249	0.064
8.07226	0.072
8.11203	0.087
8.1518	0.114
8.19157	0.127
8.23134	0.126
8.27111	0.15
8.31089	0.195
8.35066	0.245
8.39043	0.283
8.4302	0.338
8.46997	0.384
8.50974	0.429
8.54951	0.472
8.58929	0.497
8.62906	0.524
8.66883	0.529
8.7086	0.538
8.74837	0.487
8.78814	0.268
8.82791	0.107
8.86769	0.097
8.90746	0.097
8.94723	0.106
8.987	0.124
9.02677	0.129
9.06654	0.132
9.10631	0.149
9.14609	0.167
9.18586	0.18
9.22563	0.202
9.2654	0.252
9.30517	0.3
9.34494	0.333
9.38471	0.356
9.42449	0.376
9.46426	0.389
9.50403	0.401
9.5438	0.404
9.58357	0.421
9.62334	0.426
9.66311	0.439
9.70289	0.439
9.74266	0.439
9.78243	0.427
9.8222	0.328
9.86197	0.245
9.90174	0.318
9.94151	0.402
9.98129	0.452
10.0211	0.487
10.0608	0.51
10.1006	0.52
10.1404	0.538
10.1801	0.548
10.2199	0.553
10.2597	0.555
10.2995	0.568
10.3392	0.575
10.379	0.587
10.4188	0.595
10.4585	0.601
10.4983	0.606
10.5381	0.611
10.5779	0.605
10.6176	0.505
10.6574	0.334
10.6972	0.361
10.7369	0.475
10.7767	0.552
10.8165	0.593
10.8563	0.61
10.896	0.631
10.9358	0.643
10.9756	0.648
11.0153	0.653
11.0551	0.661
11.0949	0.674
11.1347	0.688
11.1744	0.693
11.2142	0.676
11.254	0.62
11.2937	0.475
11.3335	0.444
11.3733	0.247
11.4131	0.389
11.4528	0.529
11.4926	0.592
11.5324	0.646
11.5721	0.658
11.6119	0.658
11.6517	0.512
11.6915	0.359
11.7312	0.268
11.771	0.32
11.8108	0.454
11.8505	0.55
11.8903	0.587
11.9301	0.61
11.9699	0.638
12.0096	0.651
12.0494	0.663
12.0892	0.669
12.1289	0.674
12.1687	0.681
12.2085	0.681
12.2483	0.684
12.288	0.689
12.3278	0.698
12.3676	0.699
12.4073	0.706
12.4471	0.706
12.4869	0.713
12.5267	0.716
12.5664	0.706
12.6062	0.683
12.646	0.593
12.6857	0.54
12.7255	0.582
12.7653	0.646
12.8051	0.673
12.8448	0.681
12.8846	0.669
12.9244	0.613
12.9641	0.507
13.0039	0.354
13.0437	0.28
13.0835	0.283
13.1232	0.341
13.163	0.417
13.2028	0.489
13.2425	0.533
13.2823	0.56
13.3221	0.595
13.3619	0.615
13.4016	0.633
13.4414	0.646
13.4812	0.655
13.5209	0.665
13.5607	0.671
13.6005	0.684
13.6403	0.689
13.68	0.696
13.7198	0.699
13.7596	0.703
13.7993	0.706
13.8391	0.708
13.8789	0.714
13.9187	0.716
13.9584	0.726
13.9982	0.733
14.038	0.739
14.0777	0.744
14.1175	0.747
14.1573	0.751
14.1971	0.754
14.2368	0.759
14.2766	0.757
14.3164	0.757
14.3561	0.759
14.3959	0.756
14.4357	0.749
14.4755	0.754
14.5152	0.751
14.555	0.751
14.5948	0.747
14.6345	0.746
14.6743	0.749
14.7141	0.751
14.7539	0.751
14.7936	0.749
14.8334	0.746
14.8732	0.739
14.9129	0.737
14.9527	0.729
14.9925	0.718
15.0323	0.686
15.072	0.663
15.1118	0.681
15.1516	0.709
15.1913	0.718
15.2311	0.716
15.2709	0.699
15.3107	0.699
15.3504	0.696
15.3902	0.686
15.43	0.671
15.4697	0.663
15.5095	0.658
15.5493	0.651
15.5891	0.648
15.6288	0.646
15.6686	0.633
15.7084	0.615
15.7481	0.603
15.7879	0.585
15.8277	0.567
15.8675	0.545
15.9072	0.507
15.947	0.494
15.9868	0.48
