Infrared Spectrum: 4-Methoxyphenyl 4'-(3-butenyloxy)benzoate
Formula: C 18 H 18 O 4
CAS: 76487-56-4
State: gas
Origin: EPA-IR VAPOR PHASE LIBRARY
1/CM	ABSORBANCE
549.8	0.01428
559.445	0.00946
569.09	0.00764
578.734	0.0067
588.379	0.00589
598.024	0.00613
607.669	0.00758
617.313	0.00828
626.958	0.00996
636.603	0.01078
646.248	0.00999
655.893	0.00939
665.537	0.00869
675.182	0.00858
684.827	0.01024
694.472	0.01034
704.116	0.00849
713.761	0.0069
723.406	0.00671
733.051	0.00986
742.695	0.01909
752.34	0.01505
761.985	0.01778
771.63	0.01503
781.275	0.0106
790.919	0.01018
800.564	0.01164
810.209	0.01347
819.854	0.01499
829.498	0.01676
839.143	0.02231
848.788	0.02605
858.433	0.02217
868.078	0.02129
877.722	0.01653
887.367	0.01463
897.012	0.01431
906.657	0.01441
916.301	0.01732
925.946	0.01727
935.591	0.01244
945.236	0.0106
954.88	0.01061
964.525	0.01303
974.17	0.01858
983.815	0.025
993.46	0.02727
1003.1	0.0422
1012.75	0.05963
1022.39	0.05589
1032.04	0.08152
1041.68	0.08131
1051.33	0.08587
1060.97	0.14375
1070.62	0.17049
1080.26	0.05128
1089.91	0.02563
1099.55	0.02153
1109.2	0.01818
1118.84	0.01682
1128.49	0.01621
1138.13	0.0211
1147.78	0.03827
1157.42	0.10794
1167.07	0.34983
1176.71	0.14318
1186.36	0.18367
1196	0.3224
1205.64	0.17158
1215.29	0.12327
1224.93	0.1127
1234.58	0.17069
1244.22	0.28866
1253.87	0.24678
1263.51	0.17173
1273.16	0.0931
1282.8	0.06151
1292.45	0.05757
1302.09	0.0523
1311.74	0.04003
1321.38	0.02813
1331.03	0.01957
1340.67	0.01574
1350.32	0.0135
1359.96	0.01311
1369.61	0.01277
1379.25	0.01465
1388.9	0.01512
1398.54	0.01273
1408.18	0.0141
1417.83	0.02311
1427.47	0.01791
1437.12	0.02232
1446.76	0.02505
1456.41	0.02297
1466.05	0.02877
1475.7	0.03614
1485.34	0.03239
1494.99	0.06985
1504.63	0.23645
1514.28	0.13707
1523.92	0.03338
1533.57	0.01766
1543.21	0.01357
1552.86	0.01184
1562.5	0.01264
1572.15	0.01807
1581.79	0.02806
1591.44	0.03994
1601.08	0.09267
1610.73	0.08752
1620.37	0.03053
1630.01	0.01697
1639.66	0.01442
1649.3	0.01235
1658.95	0.00971
1668.59	0.00864
1678.24	0.00812
1687.88	0.00851
1697.53	0.00949
1707.17	0.01058
1716.82	0.01285
1726.46	0.01598
1736.11	0.02926
1745.75	0.08454
1755.4	0.14863
1765.04	0.04472
1774.69	0.01778
1784.33	0.01161
1793.98	0.00928
1803.62	0.00823
1813.27	0.00739
1822.91	0.00676
1832.55	0.00674
1842.2	0.00737
1851.84	0.00698
1861.49	0.00671
1871.13	0.00661
1880.78	0.00622
1890.42	0.00608
1900.07	0.00607
1909.71	0.00636
1919.36	0.00618
1929	0.00579
1938.65	0.00537
1948.29	0.0049
1957.94	0.00484
1967.58	0.00511
1977.23	0.00549
1986.87	0.00611
1996.52	0.00596
2006.16	0.00587
2015.81	0.0065
2025.45	0.00679
2035.1	0.00708
2044.74	0.007
2054.38	0.00661
2064.03	0.00635
2073.67	0.00584
2083.32	0.00546
2092.96	0.00499
2102.61	0.00471
2112.25	0.00465
2121.9	0.00469
2131.54	0.00445
2141.19	0.00409
2150.83	0.00372
2160.48	0.00348
2170.12	0.00339
2179.77	0.00337
2189.41	0.00319
2199.06	0.0033
2208.7	0.00332
2218.35	0.00336
2227.99	0.00344
2237.64	0.00354
2247.28	0.00355
2256.92	0.00359
2266.57	0.00374
2276.21	0.00384
2285.86	0.00402
2295.5	0.00404
2305.15	0.00428
2314.79	0.00462
2324.44	0.00504
2334.08	0.00514
2343.73	0.00506
2353.37	0.00519
2363.02	0.00494
2372.66	0.00454
2382.31	0.00423
2391.95	0.00416
2401.6	0.00409
2411.24	0.00417
2420.89	0.0042
2430.53	0.00405
2440.18	0.00417
2449.82	0.00424
2459.47	0.00427
2469.11	0.00451
2478.75	0.00449
2488.4	0.00454
2498.04	0.00438
2507.69	0.00453
2517.33	0.00458
2526.98	0.00458
2536.62	0.00496
2546.27	0.00509
2555.91	0.00489
2565.56	0.00482
2575.2	0.0046
2584.85	0.00449
2594.49	0.00429
2604.14	0.00403
2613.78	0.00399
2623.43	0.0038
2633.07	0.00355
2642.72	0.00353
2652.36	0.00346
2662.01	0.00342
2671.65	0.00327
2681.29	0.00338
2690.94	0.00331
2700.58	0.00347
2710.23	0.00355
2719.87	0.00382
2729.52	0.00389
2739.16	0.00411
2748.81	0.00437
2758.45	0.00443
2768.1	0.00449
2777.74	0.00445
2787.39	0.00449
2797.03	0.0048
2806.68	0.00529
2816.32	0.00628
2825.97	0.00799
2835.61	0.01164
2845.26	0.01743
2854.9	0.0122
2864.55	0.01135
2874.19	0.01218
2883.84	0.01386
2893.48	0.01503
2903.12	0.0182
2912.77	0.02232
2922.41	0.02344
2932.06	0.0249
2941.7	0.02855
2951.35	0.02851
2960.99	0.02501
2970.64	0.02211
2980.28	0.01865
2989.93	0.0172
2999.57	0.01968
3009.22	0.02428
3018.86	0.01329
3028.51	0.00977
3038.15	0.00984
3047.8	0.01286
3057.44	0.01429
3067.09	0.01295
3076.73	0.01514
3086.38	0.01673
3096.02	0.01345
3105.67	0.00974
3115.31	0.00789
3124.95	0.0062
3134.6	0.00493
3144.24	0.00444
3153.89	0.00422
3163.53	0.00411
3173.18	0.00368
3182.82	0.0037
3192.47	0.00354
3202.11	0.00348
3211.76	0.00351
3221.4	0.0034
3231.05	0.00306
3240.69	0.00336
3250.34	0.00298
3259.98	0.00312
3269.63	0.00293
3279.27	0.00302
3288.92	0.00302
3298.56	0.00292
3308.21	0.00295
3317.85	0.00293
3327.49	0.00295
3337.14	0.00295
3346.78	0.00315
3356.43	0.00312
3366.07	0.00318
3375.72	0.00293
3385.36	0.00295
3395.01	0.00283
3404.65	0.00286
3414.3	0.00275
3423.94	0.00271
3433.59	0.00289
3443.23	0.00283
3452.88	0.0031
3462.52	0.00314
3472.17	0.00321
3481.81	0.0037
3491.46	0.00363
3501.1	0.00358
3510.75	0.00329
3520.39	0.0032
3530.04	0.00303
3539.68	0.00283
3549.32	0.00285
3558.97	0.00255
3568.61	0.00349
3578.26	0.00284
3587.9	0.00341
3597.55	0.00273
3607.19	0.00319
3616.84	0.00308
3626.48	0.00342
3636.13	0.00248
3645.77	0.00305
3655.42	0.00306
3665.06	0.00274
3674.71	0.00316
3684.35	0.0028
3694	0.00284
3703.64	0.00281
3713.29	0.00329
3722.93	0.00324
3732.58	0.00332
3742.22	0.0033
3751.86	0.00334
3761.51	0.00287
3771.15	0.00267
3780.8	0.00272
3790.44	0.00269
3800.09	0.00286
3809.73	0.00283
3819.38	0.00284
3829.02	0.00272
3838.67	0.00289
3848.31	0.00293
3857.96	0.00287
3867.6	0.00316
3877.25	0.00298
3886.89	0.0033
3896.54	0.00299
3906.18	0.00308
3915.83	0.00309
3925.47	0.00283
3935.12	0.0028
3944.76	0.00287
3954.41	0.0028
3964.05	0.0028
3973.69	0.00278
3983.34	0.00254
3992.98	0.00286
