Infrared Spectrum: 1-Penatdecyne
Formula: C 15 H 28
CAS: 765-13-9
State: gas
Instrument: HP-GC/MS/IRD
Origin: NIST Mass Spectrometry Data Center
1/CM	ABSORBANCE
550	0.0004624
562	0.0002108
574	0.0001768
586	0.000238
598	0.000714
610	0.0022984
622	0.0075888
634	0.0183328
646	0.0070448
658	0.001768
670	0.0005168
682	0.0002516
694	0.0003808
706	0.0005916
718	0.0009724
730	0.000816
742	0.0005712
754	0.0004148
766	0.0003196
778	0.0002312
790	0.0001632
802	0.0001224
814	0.000102
826	9.52e-05
838	6.12e-05
850	5.44e-05
862	8.16e-05
874	8.84e-05
886	0.0001224
898	0.0001428
910	0.0001292
922	6.8e-05
934	0.000102
946	0.0001292
958	0.0001224
970	0.000102
982	0.0001224
994	0.0001428
1006	0.0001836
1018	0.0002244
1030	0.0002176
1042	0.0001428
1054	0.000238
1066	0.0002108
1078	0.000204
1090	0.0001632
1102	0.0001292
1114	0.0001564
1126	4.76e-05
1138	6.8e-05
1150	0.000102
1162	0.0001496
1174	0.0001972
1186	0.000238
1198	0.0002788
1210	0.0004148
1222	0.000714
1234	0.0019652
1246	0.0047192
1258	0.0028152
1270	0.0012784
1282	0.000986
1294	0.0010608
1306	0.001258
1318	0.0013668
1330	0.0015504
1342	0.001836
1354	0.0020468
1366	0.0016048
1378	0.0012988
1390	0.000952
1402	0.0007208
1414	0.0007888
1426	0.0012988
1438	0.0027744
1450	0.0041412
1462	0.0051
1474	0.0031416
1486	0.0012988
1498	0.0006936
1510	0.0004352
1522	0.0002924
1534	0.0002448
1546	0.000204
1558	0.0001428
1570	0.0001632
1582	0.0001428
1594	0.0001088
1606	8.16e-05
1618	6.8e-05
1630	8.16e-05
1642	6.8e-05
1654	4.76e-05
1666	4.76e-05
1678	8.84e-05
1690	5.44e-05
1702	2.72e-05
1714	3.4e-05
1726	4.76e-05
1738	5.44e-05
1750	2.72e-05
1762	2.04e-05
1774	2.72e-05
1786	4.76e-05
1798	2.72e-05
1810	4.08e-05
1822	3.4e-05
1834	4.08e-05
1846	3.4e-05
1858	6.12e-05
1870	3.4e-05
1882	4.08e-05
1894	2.72e-05
1906	6.8e-06
1918	2.04e-05
1930	1.36e-05
1942	2.72e-05
1954	2.72e-05
1966	6.8e-06
1978	2.72e-05
1990	1.36e-05
2002	2.72e-05
2014	4.76e-05
2026	7.48e-05
2038	9.52e-05
2050	9.52e-05
2062	9.52e-05
2074	0.0001224
2086	0.0001972
2098	0.0003944
2110	0.000782
2122	0.0008908
2134	0.00034
2146	0.0001564
2158	0.000102
2170	8.16e-05
2182	5.44e-05
2194	5.44e-05
2206	4.08e-05
2218	2.72e-05
2230	4.08e-05
2242	4.08e-05
2254	4.08e-05
2266	6.12e-05
2278	5.44e-05
2290	4.76e-05
2302	4.08e-05
2314	8.16e-05
2326	9.52e-05
2338	0.0001088
2350	8.84e-05
2362	0.0001224
2374	8.84e-05
2386	6.12e-05
2398	7.48e-05
2410	7.48e-05
2422	6.8e-05
2434	6.12e-05
2446	6.8e-05
2458	6.12e-05
2470	8.16e-05
2482	7.48e-05
2494	0.000102
2506	0.0001088
2518	0.0001496
2530	0.00017
2542	0.0001836
2554	0.000204
2566	0.0001972
2578	0.0002516
2590	0.000306
2602	0.0003196
2614	0.0003876
2626	0.0004352
2638	0.0004896
2650	0.0005576
2662	0.0006324
2674	0.0007072
2686	0.0007616
2698	0.0007412
2710	0.0006392
2722	0.0006664
2734	0.0007208
2746	0.000816
2758	0.0008364
2770	0.0009928
2782	0.001156
2794	0.0015368
2806	0.0019924
2818	0.0027132
2830	0.0039848
2842	0.0070312
2854	0.0170816
2866	0.02516
2878	0.0174284
2890	0.0141644
2902	0.0179724
2914	0.0305388
2926	0.0572424
2938	0.0642124
2950	0.0378692
2962	0.0217872
2974	0.0141712
2986	0.0065076
2998	0.0037332
3010	0.0024956
3022	0.0018088
3034	0.001394
3046	0.0010812
3058	0.0008704
3070	0.000714
3082	0.0006324
3094	0.0005712
3106	0.0004624
3118	0.0004556
3130	0.0004284
3142	0.000374
3154	0.0003672
3166	0.0003196
3178	0.0003468
3190	0.0002856
3202	0.0002924
3214	0.000272
3226	0.000238
3238	0.000238
3250	0.0003128
3262	0.0003944
3274	0.0006392
3286	0.0012104
3298	0.0018972
3310	0.0036176
3322	0.0053584
3334	0.0054672
3346	0.0017544
3358	0.0009724
3370	0.0004284
3382	0.0002448
3394	0.0001904
3406	0.0001768
3418	0.0001564
3430	0.0001088
3442	0.0001428
3454	9.52e-05
3466	0.0001088
3478	6.8e-05
3490	0.000102
3502	4.76e-05
3514	5.44e-05
3526	7.48e-05
3538	4.08e-05
3550	3.4e-05
3562	4.08e-05
3574	0.000102
3586	6.8e-05
3598	0.0001156
3610	9.52e-05
3622	0.00017
3634	0.00017
3646	0.0001564
3658	0.00017
3670	0.0001428
3682	0.0001496
3694	0.0001224
3706	0.0001632
3718	0.000136
3730	0.0001156
3742	0.000136
3754	8.84e-05
3766	0.0001496
3778	0.00017
3790	0.0001972
3802	0.0001632
3814	0.0001428
3826	0.0002108
3838	0.0002108
