Infrared Spectrum: Lauryl vinyl ether
Formula: C 14 H 28 O
CAS: 765-14-0
State: gas
Origin: EPA-IR VAPOR PHASE LIBRARY
1/CM	ABSORBANCE
501.5	0
513.074	0.000262
524.648	0.000573
536.222	0.000413
547.796	0.000431
559.37	0.000369
570.944	0.000288
582.518	0.000593
594.092	0.000753
605.666	0.001071
617.24	0.000815
628.814	0.000754
640.388	0.000781
651.962	0.001036
663.536	0.00120736
675.11	0.0014042
686.684	0.0019974
698.258	0.00276
709.832	0.00354
721.406	0.00414
732.98	0.0038
744.554	0.00342
756.128	0.00339
767.702	0.00361
779.276	0.00432
790.85	0.00566
802.423	0.00855
813.997	0.01305
825.571	0.01175
837.145	0.01097
848.719	0.00878
860.293	0.00661
871.867	0.00583
883.441	0.00582
895.015	0.0059
906.589	0.00603
918.163	0.00626
929.737	0.00701
941.311	0.00863
952.885	0.00918
964.459	0.01044
976.033	0.00989
987.607	0.01034
999.181	0.01128
1010.76	0.01098
1022.33	0.0101
1033.9	0.01
1045.48	0.01058
1057.05	0.01266
1068.63	0.01753
1080.2	0.0206
1091.77	0.01486
1103.35	0.00926
1114.92	0.0084
1126.49	0.01043
1138.07	0.01366
1149.64	0.01901
1161.22	0.02496
1172.79	0.03161
1184.36	0.04092
1195.94	0.0545
1207.51	0.05491
1219.09	0.02683
1230.66	0.01361
1242.23	0.0095
1253.81	0.00794
1265.38	0.00735
1276.96	0.00748
1288.53	0.00773
1300.1	0.00925
1311.68	0.01514
1323.25	0.02066
1334.83	0.01166
1346.4	0.00968
1357.97	0.01091
1369.55	0.01416
1381.12	0.01293
1392.7	0.0074
1404.27	0.00523
1415.84	0.00482
1427.42	0.00528
1438.99	0.00794
1450.57	0.01243
1462.14	0.01631
1473.71	0.01399
1485.29	0.00751
1496.86	0.00484
1508.44	0.00426
1520.01	0.00395
1531.58	0.00398
1543.16	0.00395
1554.73	0.00408
1566.31	0.00496
1577.88	0.00712
1589.45	0.01224
1601.03	0.02318
1612.6	0.03671
1624.18	0.03134
1635.75	0.03775
1647.32	0.02864
1658.9	0.01702
1670.47	0.00931
1682.05	0.00591
1693.62	0.00381
1705.19	0.00265
1716.77	0.0021336
1728.34	0.0018688
1739.92	0.0017063
1751.49	0.0016297
1763.06	0.0016601
1774.64	0.001687
1786.21	0.0016167
1797.79	0.0015672
1809.36	0.0015025
1820.93	0.001517
1832.51	0.0014963
1844.08	0.0015493
1855.66	0.001684
1867.23	0.0018417
1878.8	0.0020212
1890.38	0.0018173
1901.95	0.001803
1913.53	0.0018444
1925.1	0.001804
1936.67	0.0017329
1948.25	0.0017231
1959.82	0.0016176
1971.4	0.0015838
1982.97	0.0015523
1994.54	0.0015585
2006.12	0.001619
2017.69	0.0016529
2029.27	0.0017312
2040.84	0.0017375
2052.41	0.0017732
2063.99	0.0017492
2075.56	0.0017335
2087.14	0.0017536
2098.71	0.0017588
2110.28	0.0017313
2121.86	0.0017679
2133.43	0.0017363
2145.01	0.0017819
2156.58	0.0016969
2168.15	0.0016375
2179.73	0.0016149
2191.3	0.001584
2202.88	0.0015375
2214.45	0.001473
2226.02	0.0014688
2237.6	0.001441
2249.17	0.0014351
2260.74	0.0014546
2272.32	0.0014527
2283.89	0.0014603
2295.47	0.0015048
2307.04	0.001547
2318.61	0.0015194
2330.19	0.0015523
2341.76	0.0016242
2353.34	0.0015946
2364.91	0.0016471
2376.48	0.0016101
2388.06	0.0015525
2399.63	0.0015827
2411.21	0.0015633
2422.78	0.0015341
2434.35	0.0015121
2445.93	0.0014601
2457.5	0.0015034
2469.08	0.0014951
2480.65	0.0015466
2492.22	0.0016032
2503.8	0.0016943
2515.37	0.0017253
2526.95	0.0018502
2538.52	0.0018435
2550.09	0.0018546
2561.67	0.0018624
2573.24	0.0020216
2584.82	0.0020369
2596.39	0.0020809
2607.96	0.0022
2619.54	0.00233
2631.11	0.00242
2642.69	0.00254
2654.26	0.00263
2665.83	0.00294
2677.41	0.00309
2688.98	0.00317
2700.56	0.00319
2712.13	0.00313
2723.7	0.00335
2735.28	0.00355
2746.85	0.00378
2758.43	0.00394
2770	0.00424
2781.57	0.0048
2793.15	0.00575
2804.72	0.00703
2816.3	0.00893
2827.87	0.01189
2839.44	0.01813
2851.02	0.03798
2862.59	0.07076
2874.17	0.0621
2885.74	0.04944
2897.31	0.04964
2908.89	0.0723
2920.46	0.12018
2932.04	0.18301
2943.61	0.14569
2955.18	0.0869
2966.76	0.06422
2978.33	0.03665
2989.91	0.0191
3001.48	0.01236
3013.05	0.00941
3024.63	0.00813
3036.2	0.00676
3047.78	0.00634
3059.35	0.00591
3070.92	0.00493
3082.5	0.00464
3094.07	0.00403
3105.65	0.00418
3117.22	0.00558
3128.79	0.00602
3140.37	0.00325
3151.94	0.00256
3163.52	0.00229
3175.09	0.0020344
3186.66	0.0020095
3198.24	0.0019075
3209.81	0.0017721
3221.39	0.0016906
3232.96	0.0015317
3244.53	0.0015074
3256.11	0.0014344
3267.68	0.0015925
3279.26	0.0015106
3290.83	0.0014346
3302.4	0.0013523
3313.98	0.0013053
3325.55	0.0014518
3337.13	0.00123524
3348.7	0.00127918
3360.27	0.00126574
3371.85	0.00128778
3383.42	0.0012941
3395	0.001351
3406.57	0.00126669
3418.14	0.00125219
3429.72	0.00126869
3441.29	0.00127741
3452.86	0.0011627
3464.44	0.0011499
3476.01	0.00120122
3487.59	0.001048
3499.16	0.00123506
3510.73	0.0011076
3522.31	0.0011043
3533.88	0.00120929
3545.46	0.001088
3557.03	0.001084
3568.6	0.0011004
3580.18	0.0011563
3591.75	0.00120974
3603.33	0.00127967
3614.9	0.0013184
3626.47	0.0013685
3638.05	0.001387
3649.62	0.00127415
3661.2	0.00128402
3672.77	0.001308
3684.34	0.00124701
3695.92	0.0013552
3707.49	0.0012908
3719.07	0.0013824
3730.64	0.0013803
3742.21	0.0014184
3753.79	0.0014049
3765.36	0.0013781
3776.94	0.0013585
3788.51	0.0014403
3800.08	0.0013768
3811.66	0.0014377
3823.23	0.0013982
3834.81	0.0013683
3846.38	0.0014404
3857.95	0.0014873
3869.53	0.0013972
3881.1	0.0014788
3892.68	0.001427
3904.25	0.0013685
3915.82	0.0014282
3927.4	0.0015014
3938.97	0.0014059
3950.55	0.0015854
3962.12	0.0015838
3973.69	0.0014559
3985.27	0.0015351
3996.84	0.0015882
