Infrared Spectrum: n-Dodecyl thiocyanate
Formula: C 13 H 25 N S
CAS: 765-15-1
State: gas
Origin: EPA-IR VAPOR PHASE LIBRARY
1/CM	ABSORBANCE
549.9	0.000526
559.547	0.000362
569.193	0.000506
578.84	0.000488
588.486	0.000509
598.133	0.00063
607.779	0.000749
617.426	0.000962
627.072	0.000941
636.719	0.000956
646.365	0.000911
656.012	0.001014
665.658	0.0011222
675.305	0.00114
684.951	0.0014765
694.598	0.00221
704.245	0.00328
713.891	0.00419
723.538	0.00421
733.184	0.00372
742.831	0.00324
752.477	0.00285
762.124	0.00255
771.77	0.00244
781.417	0.00233
791.063	0.00225
800.71	0.0019782
810.356	0.0017291
820.003	0.0015981
829.649	0.0015028
839.296	0.0014825
848.943	0.0013729
858.589	0.0014134
868.236	0.0013973
877.882	0.0013329
887.529	0.0014652
897.175	0.0014755
906.822	0.0013668
916.468	0.0013352
926.115	0.0013591
935.761	0.00123638
945.408	0.0013467
955.054	0.0012875
964.701	0.00120241
974.347	0.0011333
983.994	0.0011286
993.64	0.00123113
1003.29	0.00120127
1012.93	0.00123483
1022.58	0.00120574
1032.23	0.00118839
1041.87	0.0012146
1051.52	0.001319
1061.17	0.0013774
1070.81	0.0012865
1080.46	0.00126529
1090.11	0.000998
1099.75	0.001012
1109.4	0.001065
1119.05	0.001019
1128.69	0.000851
1138.34	0.000776
1147.99	0.000803
1157.63	0.001076
1167.28	0.000958
1176.92	0.000996
1186.57	0.001054
1196.22	0.0011625
1205.86	0.0014288
1215.51	0.0019299
1225.16	0.00278
1234.8	0.00368
1244.45	0.00442
1254.1	0.00477
1263.74	0.00547
1273.39	0.00642
1283.04	0.00701
1292.68	0.00694
1302.33	0.00652
1311.98	0.00545
1321.62	0.00432
1331.27	0.0042
1340.92	0.00525
1350.56	0.00657
1360.21	0.00617
1369.86	0.00518
1379.5	0.00452
1389.15	0.0037
1398.79	0.00292
1408.44	0.00301
1418.09	0.00405
1427.73	0.00631
1437.38	0.00817
1447.03	0.01165
1456.67	0.01533
1466.32	0.01461
1475.97	0.00848
1485.61	0.00439
1495.26	0.00281
1504.91	0.0021393
1514.55	0.0017862
1524.2	0.0015282
1533.85	0.0013306
1543.49	0.00121461
1553.14	0.0011049
1562.79	0.0010807
1572.43	0.001021
1582.08	0.001032
1591.73	0.001034
1601.37	0.00102
1611.02	0.000935
1620.67	0.000987
1630.31	0.000974
1639.96	0.000985
1649.6	0.000957
1659.25	0.000973
1668.9	0.000971
1678.54	0.000983
1688.19	0.000948
1697.84	0.000903
1707.48	0.000887
1717.13	0.000877
1726.78	0.000875
1736.42	0.000889
1746.07	0.000864
1755.72	0.000868
1765.36	0.000881
1775.01	0.000827
1784.66	0.000842
1794.3	0.000856
1803.95	0.000877
1813.6	0.000847
1823.24	0.000878
1832.89	0.000813
1842.54	0.000831
1852.18	0.000846
1861.83	0.000846
1871.47	0.000818
1881.12	0.000813
1890.77	0.000836
1900.41	0.000863
1910.06	0.000835
1919.71	0.000856
1929.35	0.000882
1939	0.000863
1948.65	0.000907
1958.29	0.000856
1967.94	0.000934
1977.59	0.000936
1987.23	0.000972
1996.88	0.000927
2006.53	0.001033
2016.17	0.0010987
2025.82	0.0011213
2035.47	0.00119407
2045.11	0.00118974
2054.76	0.0011702
2064.41	0.0011626
2074.05	0.0011275
2083.7	0.001077
2093.35	0.001048
2102.99	0.001132
2112.64	0.00120188
2122.28	0.001319
2131.93	0.0016539
2141.58	0.00251
2151.22	0.00449
2160.87	0.00738
2170.52	0.00512
2180.16	0.0023
2189.81	0.0014971
2199.46	0.00124078
2209.1	0.0011371
2218.75	0.0011053
2228.4	0.001078
2238.04	0.0010845
2247.69	0.0010841
2257.34	0.00108
2266.98	0.0010913
2276.63	0.0011272
2286.28	0.001132
2295.92	0.00117571
2305.57	0.0011355
2315.22	0.0011446
2324.86	0.00119169
2334.51	0.0011129
2344.16	0.0010849
2353.8	0.0011115
2363.45	0.0011277
2373.09	0.0011301
2382.74	0.001095
2392.39	0.0011544
2402.03	0.0011213
2411.68	0.00119362
2421.33	0.0011444
2430.97	0.0011409
2440.62	0.00119168
2450.27	0.0010832
2459.91	0.0011422
2469.56	0.00118297
2479.21	0.0011431
2488.85	0.00120894
2498.5	0.00120828
2508.15	0.00121487
2517.79	0.0013607
2527.44	0.0013344
2537.09	0.0014881
2546.73	0.0015595
2556.38	0.0015554
2566.03	0.0015055
2575.67	0.0015636
2585.32	0.0016175
2594.96	0.0016392
2604.61	0.0018087
2614.26	0.0018085
2623.9	0.0018843
2633.55	0.0020079
2643.2	0.0020976
2652.84	0.00224
2662.49	0.00233
2672.14	0.00256
2681.78	0.0026
2691.43	0.00259
2701.08	0.0025
2710.72	0.00241
2720.37	0.00238
2730.02	0.00255
2739.66	0.00265
2749.31	0.00275
2758.96	0.00295
2768.6	0.0031
2778.25	0.00343
2787.9	0.00404
2797.54	0.00486
2807.19	0.00581
2816.84	0.00743
2826.48	0.00964
2836.13	0.01338
2845.77	0.02231
2855.42	0.04785
2865.07	0.06959
2874.71	0.05239
2884.36	0.03993
2894.01	0.03668
2903.65	0.04743
2913.3	0.07304
2922.95	0.1276
2932.59	0.191
2942.24	0.1539
2951.89	0.08708
2961.53	0.06084
2971.18	0.05101
2980.83	0.02938
2990.47	0.01723
3000.12	0.01111
3009.77	0.00798
3019.41	0.00621
3029.06	0.00507
3038.71	0.00438
3048.35	0.00372
3058	0.00319
3067.64	0.00304
3077.29	0.00259
3086.94	0.00247
3096.58	0.00228
3106.23	0.0023
3115.88	0.0020717
3125.52	0.0019119
3135.17	0.0019215
3144.82	0.0020109
3154.46	0.0017199
3164.11	0.0017426
3173.76	0.0016469
3183.4	0.0017765
3193.05	0.0015953
3202.7	0.0014317
3212.34	0.0013662
3221.99	0.00127813
3231.64	0.00125182
3241.28	0.00117423
3250.93	0.001176
3260.58	0.001141
3270.22	0.00124874
3279.87	0.00113
3289.52	0.00119004
3299.16	0.0011024
3308.81	0.001091
3318.45	0.0011567
3328.1	0.00125372
3337.75	0.00119544
3347.39	0.00105
3357.04	0.00127703
3366.69	0.0013347
3376.33	0.00120773
3385.98	0.0013094
3395.63	0.00126973
3405.27	0.001035
3414.92	0.001067
3424.57	0.0011389
3434.21	0.000948
3443.86	0.00127217
3453.51	0.000923
3463.15	0.000975
3472.8	0.001052
3482.45	0.000938
3492.09	0.000924
3501.74	0.00076
3511.39	0.000949
3521.03	0.001043
3530.68	0.000895
3540.33	0.00101
3549.97	0.000951
3559.62	0.000931
3569.26	0.000849
3578.91	0.000852
3588.56	0.001033
3598.2	0.000834
3607.85	0.0010826
3617.5	0.000977
3627.14	0.001001
3636.79	0.00097
3646.44	0.001106
3656.08	0.001005
3665.73	0.0010851
3675.38	0.000993
3685.02	0.0010904
3694.67	0.000966
3704.32	0.001054
3713.96	0.001047
3723.61	0.000898
3733.26	0.0011135
3742.9	0.000972
3752.55	0.001035
3762.2	0.001042
3771.84	0.000962
3781.49	0.001034
3791.13	0.001028
3800.78	0.0011098
3810.43	0.0011343
3820.07	0.0011006
3829.72	0.0011529
3839.37	0.000976
3849.01	0.000984
3858.66	0.00107
3868.31	0.000974
3877.95	0.000947
3887.6	0.001038
3897.25	0.001053
3906.89	0.0010886
3916.54	0.00120565
3926.19	0.00101
3935.83	0.0011335
3945.48	0.0011677
3955.13	0.0011162
3964.77	0.0011273
3974.42	0.0011502
3984.07	0.00121385
3993.71	0.001143
