Infrared Spectrum: 1-Dodecyne
Formula: C 12 H 22
CAS: 765-03-7
State: gas
Instrument: HP-GC/MS/IRD
Origin: NIST Mass Spectrometry Data Center
1/CM	ABSORBANCE
550	0.0008308
562	0.0005226
574	0.0004556
586	0.0005695
598	0.001139
610	0.0033299
622	0.0108205
634	0.0258352
646	0.0100969
658	0.0026264
670	0.000871
682	0.0004288
694	0.0003886
706	0.0006901
718	0.0009782
730	0.0008978
742	0.0006298
754	0.0004556
766	0.0003685
778	0.0002948
790	0.0001809
802	8.71e-05
814	0.0001072
826	7.37e-05
838	0.0001072
850	9.38e-05
862	0.0001407
874	0.0001206
886	0.0001072
898	0.000134
910	0.0001943
922	0.0001541
934	9.38e-05
946	8.71e-05
958	0.0001139
970	0.0001072
982	0.0001139
994	0.0001005
1006	8.04e-05
1018	6.7e-05
1030	9.38e-05
1042	0.0001206
1054	0.0001675
1066	0.0001876
1078	0.000134
1090	7.37e-05
1102	0.0001206
1114	0.0001675
1126	0.0001005
1138	4.69e-05
1150	8.04e-05
1162	0.0001541
1174	0.0001675
1186	0.0002613
1198	0.0003082
1210	0.0005293
1222	0.0010318
1234	0.0027604
1246	0.0064923
1258	0.0039664
1270	0.0016817
1282	0.0012395
1294	0.0012462
1306	0.001407
1318	0.0015745
1330	0.0017956
1342	0.0020301
1354	0.0020971
1366	0.0016951
1378	0.0014941
1390	0.0011658
1402	0.0008442
1414	0.0009514
1426	0.001541
1438	0.0033299
1450	0.0045493
1462	0.0054471
1474	0.0035309
1486	0.0015209
1498	0.0007772
1510	0.0005025
1522	0.0003216
1534	0.0002412
1546	0.0001675
1558	0.0001206
1570	0.0001139
1582	8.71e-05
1594	0.0001005
1606	6.03e-05
1618	6.03e-05
1630	4.69e-05
1642	2.68e-05
1654	2.68e-05
1666	3.35e-05
1678	4.02e-05
1690	3.35e-05
1702	6.7e-06
1714	6.7e-06
1726	0
1738	2.01e-05
1750	2.01e-05
1762	2.01e-05
1774	6.7e-06
1786	4.69e-05
1798	2.01e-05
1810	2.01e-05
1822	3.35e-05
1834	3.35e-05
1846	4.02e-05
1858	3.35e-05
1870	5.36e-05
1882	4.02e-05
1894	5.36e-05
1906	6.03e-05
1918	3.35e-05
1930	4.02e-05
1942	6.03e-05
1954	4.69e-05
1966	4.02e-05
1978	6.03e-05
1990	6.03e-05
2002	0.0001005
2014	0.0001005
2026	0.0001273
2038	0.0001608
2050	0.0001273
2062	0.0001474
2074	0.0001943
2086	0.0002747
2098	0.0005695
2110	0.0010787
2122	0.0012529
2134	0.0004891
2146	0.0002144
2158	0.0001206
2170	8.04e-05
2182	9.38e-05
2194	8.04e-05
2206	6.7e-05
2218	6.7e-05
2230	6.7e-05
2242	5.36e-05
2254	4.02e-05
2266	5.36e-05
2278	5.36e-05
2290	6.7e-05
2302	6.7e-05
2314	7.37e-05
2326	8.71e-05
2338	8.04e-05
2350	7.37e-05
2362	8.04e-05
2374	8.71e-05
2386	5.36e-05
2398	7.37e-05
2410	6.7e-05
2422	6.03e-05
2434	6.7e-05
2446	4.69e-05
2458	4.02e-05
2470	5.36e-05
2482	4.69e-05
2494	8.04e-05
2506	9.38e-05
2518	0.0001206
2530	0.0001407
2542	0.0001474
2554	0.0001675
2566	0.000201
2578	0.0002077
2590	0.000268
2602	0.0002814
2614	0.0003484
2626	0.0003953
2638	0.0004891
2650	0.000536
2662	0.0006231
2674	0.0007102
2686	0.000737
2698	0.000737
2710	0.0006231
2722	0.0006097
2734	0.0006901
2746	0.0007839
2758	0.0008442
2770	0.000938
2782	0.0011189
2794	0.0014807
2806	0.0019363
2818	0.0027135
2830	0.0040535
2842	0.0072628
2854	0.0167835
2866	0.0249307
2878	0.0196645
2890	0.0157852
2902	0.0188136
2914	0.0314431
2926	0.0563068
2938	0.0655796
2950	0.043952
2962	0.0271752
2974	0.0183446
2986	0.0081204
2998	0.0044689
3010	0.0029011
3022	0.0020837
3034	0.0016147
3046	0.0013065
3058	0.001072
3070	0.0009112
3082	0.0007638
3094	0.0006432
3106	0.0005628
3118	0.0004891
3130	0.0004355
3142	0.0004087
3154	0.0003752
3166	0.0003417
3178	0.0003216
3190	0.0002613
3202	0.0002345
3214	0.0002144
3226	0.0002479
3238	0.0002412
3250	0.000335
3262	0.0004958
3274	0.0008107
3286	0.0015678
3298	0.0025393
3310	0.0050049
3322	0.0075911
3334	0.0077854
3346	0.0023852
3358	0.0012529
3370	0.0005762
3382	0.0003149
3394	0.0002412
3406	0.0001608
3418	9.38e-05
3430	0.0001608
3442	0.0001608
3454	0.0001407
3466	0.0001407
3478	9.38e-05
3490	0.0001206
3502	0.0001072
3514	3.35e-05
3526	0.0001139
3538	8.04e-05
3550	7.37e-05
3562	8.04e-05
3574	8.71e-05
3586	8.71e-05
3598	0.0001273
3610	0.0001407
3622	0.0001541
3634	0.0001742
3646	0.0001675
3658	0.0001608
3670	0.0001809
3682	0.0001407
3694	0.0001675
3706	0.0001943
3718	0.0001608
3730	0.0001809
3742	0.0001876
3754	0.0001876
3766	0.0001809
3778	0.0001407
3790	0.0001742
3802	0.0002345
3814	0.0002211
3826	0.0002613
3838	0.0002077
