Infrared Spectrum: Diphenyl n-propyl phosphine
Formula: C 15 H 17 P
CAS: 7650-84-2
State: gas
Origin: EPA-IR VAPOR PHASE LIBRARY
1/CM	ABSORBANCE
549.8	0.002397
559.445	0.001647
569.09	0.001977
578.734	0.002247
588.379	0.001337
598.024	0.002277
607.669	0.003107
617.313	0.003797
626.958	0.004767
636.603	0.009107
646.248	0.014647
655.893	0.014637
665.537	0.021407
675.182	0.035497
684.827	0.071987
694.472	0.132157
704.116	0.100497
713.761	0.070617
723.406	0.080607
733.051	0.098357
742.695	0.083347
752.34	0.040887
761.985	0.018147
771.63	0.011797
781.275	0.010097
790.919	0.007967
800.564	0.006147
810.209	0.006047
819.854	0.006997
829.498	0.006807
839.143	0.005677
848.788	0.003467
858.433	0.002637
868.078	0.002507
877.722	0.002437
887.367	0.002347
897.012	0.002737
906.657	0.003417
916.301	0.002757
925.946	0.002357
935.591	0.002277
945.236	0.002547
954.88	0.002527
964.525	0.002567
974.17	0.002327
983.815	0.002967
993.46	0.007887
1003.1	0.013287
1012.75	0.013527
1022.39	0.028347
1032.04	0.018827
1041.68	0.007657
1051.33	0.009497
1060.97	0.016037
1070.62	0.021237
1080.26	0.027247
1089.91	0.031327
1099.55	0.023867
1109.2	0.011667
1118.84	0.005557
1128.49	0.003827
1138.13	0.001947
1147.78	0.001947
1157.42	0.003497
1167.07	0.003187
1176.71	0.006877
1186.36	0.011637
1196	0.006907
1205.64	0.006947
1215.29	0.005697
1224.93	0.004957
1234.58	0.004637
1244.22	0.004087
1253.87	0.005147
1263.51	0.006497
1273.16	0.006997
1282.8	0.007777
1292.45	0.009647
1302.09	0.010857
1311.74	0.009377
1321.38	0.009747
1331.03	0.012107
1340.67	0.011257
1350.32	0.006077
1359.96	0.005447
1369.61	0.007387
1379.25	0.011957
1388.9	0.011397
1398.54	0.009207
1408.18	0.013097
1417.83	0.023267
1427.47	0.038577
1437.12	0.043497
1446.76	0.024007
1456.41	0.021317
1466.05	0.026247
1475.7	0.033987
1485.34	0.034927
1494.99	0.014047
1504.63	0.005827
1514.28	0.004397
1523.92	0.004107
1533.57	0.004497
1543.21	0.004587
1552.86	0.004367
1562.5	0.005877
1572.15	0.010457
1581.79	0.019247
1591.44	0.015077
1601.08	0.005677
1610.73	0.003497
1620.37	0.002937
1630.01	0.003117
1639.66	0.004547
1649.3	0.005707
1658.95	0.004487
1668.59	0.002817
1678.24	0.001867
1687.88	0.001637
1697.53	0.001707
1707.17	0.001997
1716.82	0.002137
1726.46	0.002317
1736.11	0.002667
1745.75	0.003317
1755.4	0.003227
1765.04	0.002667
1774.69	0.003497
1784.33	0.003747
1793.98	0.007327
1803.62	0.009527
1813.27	0.006517
1822.91	0.004207
1832.55	0.002737
1842.2	0.002407
1851.84	0.003037
1861.49	0.004517
1871.13	0.006597
1880.78	0.008587
1890.42	0.006827
1900.07	0.003467
1909.71	0.002487
1919.36	0.002787
1929	0.004347
1938.65	0.007027
1948.29	0.009017
1957.94	0.008227
1967.58	0.004027
1977.23	0.001817
1986.87	0.001247
1996.52	0.001147
2006.16	0.0010555
2015.81	0.001087
2025.45	0.0010344
2035.1	0.0008877
2044.74	0.0008538
2054.38	0.0009901
2064.03	0.0008824
2073.67	0.000844
2083.32	0.0007925
2092.96	0.0008537
2102.61	0.0008588
2112.25	0.000841
2121.9	0.000793
2131.54	0.0006347
2141.19	0.0006909
2150.83	0.0006143
2160.48	0.0008099
2170.12	0.0009223
2179.77	0.0007702
2189.41	0.0006602
2199.06	0.000597
2208.7	0.0006832
2218.35	0.0007181
2227.99	0.0007829
2237.64	0.0006486
2247.28	0.0010078
2256.92	0.001087
2266.57	0.0010357
2276.21	0.001127
2285.86	0.001117
2295.5	0.001237
2305.15	0.001317
2314.79	0.002347
2324.44	0.001387
2334.08	0.001367
2343.73	0.001497
2353.37	0.001237
2363.02	0.001097
2372.66	0.000994
2382.31	0.0010191
2391.95	0.0010063
2401.6	0.001277
2411.24	0.001247
2420.89	0.0010127
2430.53	0.0007843
2440.18	0.0006437
2449.82	0.0006391
2459.47	0.0008241
2469.11	0.0006297
2478.75	0.0006726
2488.4	0.0008217
2498.04	0.0008344
2507.69	0.0007959
2517.33	0.0009506
2526.98	0.0008049
2536.62	0.0008943
2546.27	0.0008144
2555.91	0.0010396
2565.56	0.001317
2575.2	0.001387
2584.85	0.001597
2594.49	0.001397
2604.14	0.001677
2613.78	0.001737
2623.43	0.001497
2633.07	0.001707
2642.72	0.001427
2652.36	0.001667
2662.01	0.001967
2671.65	0.002147
2681.29	0.001967
2690.94	0.001377
2700.58	0.001257
2710.23	0.001157
2719.87	0.001187
2729.52	0.001677
2739.16	0.002277
2748.81	0.002347
2758.45	0.002347
2768.1	0.002187
2777.74	0.002747
2787.39	0.003637
2797.03	0.004367
2806.68	0.005577
2816.32	0.007087
2825.97	0.007687
2835.61	0.008137
2845.26	0.009097
2854.9	0.012077
2864.55	0.021497
2874.19	0.041637
2883.84	0.051507
2893.48	0.042027
2903.12	0.045257
2912.77	0.045787
2922.41	0.052117
2932.06	0.073647
2941.7	0.085897
2951.35	0.061517
2960.99	0.094827
2970.64	0.119287
2980.28	0.050577
2989.93	0.027717
2999.57	0.028897
3009.22	0.035077
3018.86	0.040847
3028.51	0.033887
3038.15	0.030857
3047.8	0.044787
3057.44	0.112567
3067.09	0.138137
3076.73	0.099917
3086.38	0.065047
3096.02	0.029077
3105.67	0.011857
3115.31	0.007607
3124.95	0.006987
3134.6	0.007867
3144.24	0.007327
3153.89	0.004227
3163.53	0.002957
3173.18	0.002737
3182.82	0.002047
3192.47	0.001727
3202.11	0.001387
3211.76	0.001217
3221.4	0.001437
3231.05	0.0007832
3240.69	0.001147
3250.34	0.0007724
3259.98	0.0006006
3269.63	0.0003408
3279.27	0.000728
3288.92	0.0005944
3298.56	0.0005178
3308.21	0.0006666
3317.85	0.0003649
3327.49	0.0004239
3337.14	0.0005345
3346.78	0.0004853
3356.43	0.0005722
3366.07	0.0005151
3375.72	0.0003641
3385.36	0.00016488
3395.01	0.0003337
3404.65	0.0005571
3414.3	0.0003264
3423.94	0.0003095
3433.59	0.0002767
3443.23	0.0004347
3452.88	0.0004924
3462.52	0.000548
3472.17	0.0004768
3481.81	0.0003396
3491.46	0.0005079
3501.1	0.0001874
3510.75	0.0001043
3520.39	0.0002202
3530.04	0.0004911
3539.68	0.0002773
3549.32	0.000302
3558.97	0.0003025
3568.61	6.879e-05
3578.26	4.37e-05
3587.9	0.00012956
3597.55	0.0005644
3607.19	0.0006714
3616.84	0.0004943
3626.48	0.0009301
3636.13	0.000637
3645.77	0.0006502
3655.42	0.0005179
3665.06	0.0006782
3674.71	0.00104
3684.35	0.001337
3694	0.001657
3703.64	0.001257
3713.29	0.0006692
3722.93	0.0009933
3732.58	0.001167
3742.22	0.0008197
3751.86	0.001107
3761.51	0.0010639
3771.15	0.0004507
3780.8	0.0007264
3790.44	0.000544
3800.09	0.0002358
3809.73	0.000638
3819.38	0.0004026
3829.02	0.0007159
3838.67	0.0003604
3848.31	0.0003123
3857.96	0.0004355
3867.6	0.0003325
3877.25	0.0005193
3886.89	0.0005464
3896.54	0.0005721
3906.18	0.0006389
3915.83	0.0006397
3925.47	0.0004733
3935.12	0.0005565
3944.76	0.0006211
3954.41	0.0006081
3964.05	0.000678
3973.69	0.0007154
3983.34	0.0007118
3992.98	0.0008482
