Infrared Spectrum: 5,5-DIMETHYL-2-ISOPROPYL-1,3-DIOXANE
Formula: C9 H18 O2
CAS: 7651-50-5
Class: COBLENTZ
Instrument: Not specified, most likely a prism, grating, or hybrid spectrometer.
Sampling: TRANSMISSION
Path length: SMEAR
Resolution: 4
Origin: TENNESSEE EASTMAN COMPANY, RESEARCH LABORATORIES
MICROMETERS	TRANSMITTANCE
2.034	1.001
2.07494	1.001
2.11587	0.998
2.15681	0.996
2.19774	0.994
2.23868	0.982
2.27961	0.97
2.32055	0.964
2.36148	0.964
2.40242	0.962
2.44335	0.964
2.48429	0.964
2.52522	0.965
2.56616	0.965
2.60709	0.965
2.64803	0.964
2.68896	0.962
2.7299	0.958
2.77083	0.928
2.81177	0.875
2.85271	0.809
2.89364	0.797
2.93458	0.803
2.97551	0.816
3.01645	0.837
3.05738	0.856
3.09832	0.869
3.13925	0.888
3.18019	0.892
3.22112	0.9
3.26206	0.91
3.30299	0.902
3.34393	0.671
3.38486	0.25
3.4258	0.404
3.46673	0.441
3.50767	0.397
3.5486	0.669
3.58954	0.767
3.63048	0.801
3.67141	0.799
3.71235	0.816
3.75328	0.849
3.79422	0.83
3.83515	0.888
3.87609	0.909
3.91702	0.917
3.95796	0.933
3.99889	0.945
4.03983	0.943
4.08076	0.948
4.1217	0.95
4.16263	0.95
4.20357	0.948
4.2445	0.948
4.28544	0.943
4.32637	0.94
4.36731	0.938
4.40824	0.945
4.44918	0.95
4.49012	0.95
4.53105	0.948
4.57199	0.948
4.61292	0.95
4.65386	0.95
4.69479	0.945
4.73573	0.936
4.77666	0.938
4.8176	0.941
4.85853	0.94
4.89947	0.934
4.9404	0.934
4.98134	0.936
5.02227	0.95
5.06321	0.943
5.10414	0.943
5.14508	0.943
5.18601	0.945
5.22695	0.95
5.26789	0.95
5.30882	0.948
5.34976	0.946
5.39069	0.948
5.43163	0.95
5.47256	0.95
5.5135	0.948
5.55443	0.95
5.59537	0.943
5.6363	0.94
5.67724	0.928
5.71817	0.909
5.75911	0.869
5.80004	0.883
5.84098	0.883
5.88191	0.895
5.92285	0.895
5.96378	0.897
6.00472	0.898
6.04566	0.898
6.08659	0.88
6.12753	0.888
6.16846	0.898
6.2094	0.9
6.25033	0.91
6.29127	0.91
6.3322	0.91
6.37314	0.898
6.41407	0.888
6.45501	0.895
6.49594	0.88
6.53688	0.886
6.57781	0.873
6.61875	0.854
6.65968	0.84
6.70062	0.743
6.74155	0.515
6.78249	0.414
6.82343	0.491
6.86436	0.568
6.9053	0.695
6.94623	0.753
6.98717	0.787
7.0281	0.782
7.06904	0.741
7.10997	0.601
7.15091	0.409
7.19184	0.553
7.23278	0.688
7.27371	0.647
7.31465	0.594
7.35558	0.565
7.39652	0.773
7.43745	0.821
7.47839	0.821
7.51932	0.844
7.56026	0.845
7.60119	0.794
7.64213	0.785
7.68307	0.71
7.724	0.792
7.76494	0.756
7.80587	0.779
7.84681	0.791
7.88774	0.816
7.92868	0.821
7.96961	0.825
8.01055	0.821
8.05148	0.784
8.09242	0.623
8.13335	0.684
8.17429	0.666
8.21522	0.669
8.25616	0.751
8.29709	0.758
8.33803	0.676
8.37896	0.594
8.4199	0.566
8.46084	0.678
8.50177	0.714
8.54271	0.655
8.58364	0.559
8.62458	0.582
8.66551	0.571
8.70645	0.457
8.74738	0.479
8.78832	0.549
8.82925	0.518
8.87019	0.409
8.91112	0.244
8.95206	0.162
8.99299	0.143
9.03393	0.214
9.07486	0.371
9.1158	0.527
9.15673	0.618
9.19767	0.66
9.23861	0.7
9.27954	0.719
9.32048	0.719
9.36141	0.684
9.40235	0.601
9.44328	0.57
9.48422	0.52
9.52515	0.393
9.56609	0.349
9.60702	0.453
9.64796	0.542
9.68889	0.529
9.72983	0.446
9.77076	0.434
9.8117	0.494
9.85263	0.587
9.89357	0.609
9.9345	0.575
9.97544	0.441
10.0164	0.397
10.0573	0.452
10.0982	0.566
10.1392	0.636
10.1801	0.65
10.2211	0.539
10.262	0.518
10.3029	0.623
10.3439	0.635
10.3848	0.537
10.4257	0.525
10.4667	0.63
10.5076	0.69
10.5485	0.674
10.5895	0.648
10.6304	0.69
10.6713	0.705
10.7123	0.645
10.7532	0.599
10.7941	0.554
10.8351	0.518
10.876	0.606
10.917	0.628
10.9579	0.559
10.9988	0.623
11.0398	0.681
11.0807	0.76
11.1216	0.82
11.1626	0.84
11.2035	0.854
11.2444	0.863
11.2854	0.875
11.3263	0.886
11.3672	0.892
11.4082	0.898
11.4491	0.9
11.49	0.895
11.531	0.866
11.5719	0.821
11.6129	0.842
11.6538	0.885
11.6947	0.904
11.7357	0.917
11.7766	0.921
11.8175	0.919
11.8585	0.916
11.8994	0.912
11.9403	0.919
11.9813	0.919
12.0222	0.919
12.0631	0.916
12.1041	0.912
12.145	0.912
12.1859	0.912
12.2269	0.905
12.2678	0.905
12.3087	0.904
12.3497	0.898
12.3906	0.897
12.4316	0.893
12.4725	0.886
12.5134	0.881
12.5544	0.871
12.5953	0.83
12.6362	0.755
12.6772	0.75
12.7181	0.827
12.759	0.851
12.8	0.861
12.8409	0.861
12.8818	0.861
12.9228	0.863
12.9637	0.863
13.0046	0.863
13.0456	0.863
13.0865	0.863
13.1275	0.863
13.1684	0.863
13.2093	0.863
13.2503	0.863
13.2912	0.857
13.3321	0.854
13.3731	0.854
13.414	0.856
13.4549	0.852
13.4959	0.849
13.5368	0.844
13.5777	0.842
13.6187	0.839
13.6596	0.833
13.7005	0.83
13.7415	0.83
13.7824	0.825
13.8234	0.825
13.8643	0.821
13.9052	0.818
13.9462	0.811
13.9871	0.806
14.028	0.803
14.069	0.801
14.1099	0.797
14.1508	0.792
14.1918	0.787
14.2327	0.782
14.2736	0.779
14.3146	0.773
14.3555	0.768
14.3964	0.76
14.4374	0.755
14.4783	0.751
14.5193	0.744
14.5602	0.739
14.6011	0.734
14.6421	0.729
14.683	0.719
14.7239	0.714
14.7649	0.707
14.8058	0.698
14.8467	0.691
14.8877	0.684
14.9286	0.676
14.9695	0.667
15.0105	0.66
15.0514	0.648
15.0923	0.633
15.1333	0.618
15.1742	0.597
15.2152	0.582
15.2561	0.573
15.297	0.57
15.338	0.571
15.3789	0.578
15.4198	0.585
15.4608	0.589
15.5017	0.595
15.5426	0.59
15.5836	0.59
15.6245	0.59
15.6654	0.585
15.7064	0.582
15.7473	0.58
15.7882	0.578
15.8292	0.578
15.8701	0.577
15.9111	0.578
15.952	0.582
