Infrared Spectrum: N-[3-(Dimethylamino)propyl]octadecanamide
Formula: C23 H48 N2 O
CAS: 7651-02-7
State: SOLUTION (10% CCl4 FOR 3800-1330, 10% CS2 FOR 1330-400 CM^-^1)
Melting point: 54 C
Class: COBLENTZ III
Instrument: DOW KBr FOREPRISM-GRATING
Instrument parameters: BLAZED AT 3.5, 12.0, 20.0 MICRON AND CHANGED AT 5.0, 7.5, 14.9 MICRON
Sampling: TRANSMISSION
Path length: 0.011 CM, 0.011 CM
Resolution: 2
Origin: DOW CHEMICAL COMPANY
1/CM	TRANSMITTANCE
3800	0.9243
3791	0.9261
3782	0.9243
3773	0.9264
3764	0.9267
3755	0.9278
3746	0.9296
3737	0.9328
3728	0.931
3719	0.9271
3710	0.9266
3701	0.9244
3692	0.9189
3683	0.9126
3674	0.9115
3665	0.9132
3656	0.9149
3647	0.9159
3638	0.9163
3629	0.9166
3620	0.9188
3611	0.9187
3602	0.9175
3593	0.9186
3584	0.9182
3575	0.9164
3566	0.9152
3557	0.9143
3548	0.9147
3539	0.9127
3530	0.9111
3521	0.9074
3512	0.9044
3503	0.9009
3494	0.8967
3485	0.8906
3476	0.8741
3467	0.8148
3458	0.7972
3449	0.8064
3440	0.8314
3431	0.839
3422	0.8385
3413	0.8235
3404	0.7962
3395	0.7756
3386	0.7398
3377	0.6976
3368	0.6551
3359	0.5986
3350	0.5576
3341	0.5225
3332	0.4926
3323	0.472
3314	0.4652
3305	0.4663
3296	0.4793
3287	0.5088
3278	0.543
3269	0.576
3260	0.626
3251	0.6667
3242	0.6913
3233	0.7111
3224	0.7262
3215	0.7371
3206	0.7467
3197	0.7598
3188	0.7726
3179	0.7848
3170	0.7974
3161	0.8091
3152	0.8176
3143	0.8219
3134	0.8279
3125	0.8299
3116	0.8267
3107	0.8156
3098	0.8038
3089	0.7924
3080	0.7795
3071	0.7787
3062	0.7784
3053	0.7819
3044	0.789
3035	0.793
3026	0.7834
3017	0.7675
3008	0.7352
2999	0.6354
2990	0.4754
2981	0.3401
2972	0.2673
2963	0.1231
2954	0.0852
2945	0.0505
2936	0.0158
2927	0.0087
2918	0.0083
2909	0.0377
2900	0.1099
2891	0.1873
2882	0.2454
2873	0.1859
2864	0.0821
2855	0.0186
2846	0.165
2837	0.3977
2828	0.4017
2819	0.3316
2810	0.4039
2801	0.4865
2792	0.4316
2783	0.4177
2774	0.4059
2765	0.3927
2756	0.5702
2747	0.6771
2738	0.695
2729	0.6928
2720	0.6873
2711	0.7174
2702	0.7569
2693	0.7816
2684	0.7842
2675	0.7843
2666	0.7868
2657	0.7996
2648	0.8088
2639	0.8126
2630	0.8152
2621	0.8176
2612	0.8183
2603	0.8175
2594	0.8154
2585	0.8133
2576	0.8157
2567	0.8204
2558	0.8264
2549	0.834
2540	0.8394
2531	0.8413
2522	0.8389
2513	0.834
2504	0.8341
2495	0.8362
2486	0.8308
2477	0.8257
2468	0.8253
2459	0.8264
2450	0.827
2441	0.8313
2432	0.8345
2423	0.8374
2414	0.8404
2405	0.8454
2396	0.849
2387	0.8571
2378	0.8799
2369	0.8798
2360	0.8774
2351	0.8775
2342	0.8686
2333	0.8612
2324	0.8702
2315	0.8772
2306	0.8827
2297	0.8867
2288	0.8879
2279	0.8908
2270	0.8928
2261	0.8929
2252	0.8917
2243	0.891
2234	0.8913
2225	0.8929
2216	0.8929
2207	0.8945
2198	0.8962
2189	0.896
2180	0.8973
2171	0.9002
2162	0.8998
2153	0.9011
2144	0.9025
2135	0.903
2126	0.9036
2117	0.9039
2108	0.9045
2099	0.9049
2090	0.905
2081	0.9053
2072	0.9053
2063	0.9052
2054	0.906
2045	0.9031
2036	0.9022
2027	0.9024
2018	0.9022
2009	0.9012
2000	0.9007
1991	0.8991
1982	0.8975
1973	0.8964
1964	0.9074
1955	0.9041
1946	0.9
1937	0.9004
1928	0.9011
1919	0.9018
1910	0.9022
1901	0.9043
1892	0.9042
1883	0.9043
1874	0.9058
1865	0.9056
1856	0.9059
1847	0.905
1838	0.9047
1829	0.9027
1820	0.9019
1811	0.9033
1802	0.8985
1793	0.8957
1784	0.8923
1775	0.8882
1766	0.8812
1757	0.8747
1748	0.8649
1739	0.8534
1730	0.8408
1721	0.828
1712	0.8029
1703	0.7573
1694	0.5143
1685	0.2567
1676	0.1495
1667	0.1386
1658	0.1343
1649	0.1436
1640	0.2718
1631	0.5613
1622	0.6622
1613	0.7175
1604	0.751
1595	0.7453
1586	0.7277
1577	0.654
1568	0.5231
1559	0.3634
1550	0.3259
1541	0.2868
1532	0.2701
1523	0.253
1514	0.2425
1505	0.3467
1496	0.4664
1487	0.5394
1478	0.4543
1469	0.1671
1460	0.2079
1451	0.3443
1442	0.4025
1433	0.523
1424	0.5983
1415	0.6972
1406	0.7238
1397	0.7404
1388	0.6713
1379	0.5517
1370	0.5944
1361	0.6342
1352	0.6312
1343	0.6487
1334	0.6873
1325	0.6817
1316	0.649
1307	0.6088
1298	0.5503
1289	0.6007
1280	0.585
1271	0.5029
1262	0.4745
1253	0.5392
1244	0.5003
1235	0.5825
1226	0.639
1217	0.6894
1208	0.7247
1199	0.7455
1190	0.7463
1181	0.7141
1172	0.7049
1163	0.7236
1154	0.6518
1145	0.8213
1136	0.8497
1127	0.7994
1118	0.8052
1109	0.8273
1100	0.6674
1091	0.8278
1082	0.7805
1073	0.7769
1064	0.7249
1055	0.7818
1046	0.7006
1037	0.6226
1028	0.8017
1019	0.8363
1010	0.8356
1001	0.8229
992	0.7917
983	0.8496
974	0.8503
965	0.8726
956	0.9095
947	0.9188
938	0.9254
929	0.9305
920	0.9197
911	0.9099
902	0.9238
893	0.9265
884	0.9243
875	0.8973
866	0.8639
857	0.8897
848	0.9165
839	0.9031
830	0.9022
821	0.906
812	0.9318
803	0.9508
794	0.9484
785	0.9354
776	0.8985
767	0.8331
758	0.8639
749	0.8677
740	0.8503
731	0.8196
722	0.7013
713	0.7888
704	0.8437
695	0.8624
686	0.8697
677	0.8785
668	0.9044
659	0.8648
650	0.8682
641	0.8845
632	0.888
623	0.8845
614	0.8846
605	0.888
596	0.8883
587	0.8793
578	0.8744
569	0.8763
560	0.881
551	0.8856
542	0.8898
533	0.8934
524	0.8809
515	0.8771
506	0.8773
497	0.8705
488	0.855
479	0.839
470	0.821
461	0.8076
452	0.8009
443	0.7872
434	0.7661
425	0.7303
416	0.6486
407	0.4055
398	0.2537
389	0.1631
