Infrared Spectrum: o-Toluic acid hydrazide
Formula: C 8 H 10 N 2 O
CAS: 7658-80-2
State: gas
Origin: EPA-IR VAPOR PHASE LIBRARY
1/CM	ABSORBANCE
549.8	0.001707
559.445	0.0013721
569.09	0.0013628
578.734	0.0013593
588.379	0.001647
598.024	0.0009852
607.669	0.001637
617.313	0.001487
626.958	0.0010876
636.603	0.001437
646.248	0.0011374
655.893	0.001717
665.537	0.002347
675.182	0.002137
684.827	0.001517
694.472	0.0013489
704.116	0.0013026
713.761	0.001907
723.406	0.004117
733.051	0.006977
742.695	0.006867
752.34	0.004487
761.985	0.003227
771.63	0.002797
781.275	0.002207
790.919	0.001607
800.564	0.0011398
810.209	0.0010771
819.854	0.001196
829.498	0.001477
839.143	0.0011512
848.788	0.0013722
858.433	0.001967
868.078	0.001467
877.722	0.001657
887.367	0.001797
897.012	0.002037
906.657	0.003627
916.301	0.006217
925.946	0.009917
935.591	0.010007
945.236	0.006887
954.88	0.003747
964.525	0.002277
974.17	0.001607
983.815	0.001447
993.46	0.001119
1003.1	0.0011894
1012.75	0.0011256
1022.39	0.0009059
1032.04	0.0010382
1041.68	0.0012163
1051.33	0.0012396
1060.97	0.0012156
1070.62	0.0009081
1080.26	0.001657
1089.91	0.0010166
1099.55	0.0008793
1109.2	0.0009198
1118.84	0.001447
1128.49	0.0006319
1138.13	0.0005403
1147.78	0.0008112
1157.42	0.0012483
1167.07	0.0013777
1176.71	0.0013889
1186.36	0.0011985
1196	0.001597
1205.64	0.0012441
1215.29	0.0009064
1224.93	0.001286
1234.58	0.001727
1244.22	0.001947
1253.87	0.003727
1263.51	0.005777
1273.16	0.007147
1282.8	0.006917
1292.45	0.006487
1302.09	0.003867
1311.74	0.001917
1321.38	0.001447
1331.03	0.0013944
1340.67	0.001477
1350.32	0.001427
1359.96	0.0013024
1369.61	0.0012143
1379.25	0.001567
1388.9	0.001967
1398.54	0.002297
1408.18	0.003047
1417.83	0.005317
1427.47	0.009587
1437.12	0.013247
1446.76	0.012807
1456.41	0.009947
1466.05	0.007357
1475.7	0.006307
1485.34	0.006347
1494.99	0.005617
1504.63	0.003897
1514.28	0.002547
1523.92	0.002007
1533.57	0.001547
1543.21	0.001577
1552.86	0.0013656
1562.5	0.0013763
1572.15	0.001567
1581.79	0.001967
1591.44	0.002417
1601.08	0.003107
1610.73	0.003657
1620.37	0.004457
1630.01	0.005927
1639.66	0.005927
1649.3	0.004307
1658.95	0.003697
1668.59	0.004217
1678.24	0.006187
1687.88	0.012487
1697.53	0.021417
1707.17	0.019507
1716.82	0.009507
1726.46	0.004137
1736.11	0.002397
1745.75	0.001777
1755.4	0.0011899
1765.04	0.001054
1774.69	0.0008113
1784.33	0.0008917
1793.98	0.0008193
1803.62	0.0008467
1813.27	0.0006797
1822.91	0.00051
1832.55	0.0006411
1842.2	0.0005535
1851.84	0.00050195
1861.49	0.000508
1871.13	0.0003421
1880.78	0.0005301
1890.42	0.0005485
1900.07	0.0005806
1909.71	0.0007016
1919.36	0.000671
1929	0.000537
1938.65	0.0005447
1948.29	0.0006357
1957.94	0.0005437
1967.58	0.0003838
1977.23	0.0003
1986.87	0.0003758
1996.52	0.0003612
2006.16	0.0003562
2015.81	0.0003782
2025.45	0.000352
2035.1	0.000318
2044.74	0.000214
2054.38	0.0003405
2064.03	0.0003148
2073.67	0.0003072
2083.32	0.0003445
2092.96	0.000255
2102.61	0.0003263
2112.25	0.0003748
2121.9	0.000243
2131.54	0.0003189
2141.19	0.00026
2150.83	0.000259
2160.48	0.0003255
2170.12	0.0003105
2179.77	0.0003248
2189.41	0.0003
2199.06	0.000348
2208.7	0.000391
2218.35	0.0003739
2227.99	0.0003122
2237.64	0.000307
2247.28	0.000266
2256.92	0.0003226
2266.57	0.000291
2276.21	0.000242
2285.86	0.000201
2295.5	0.0003493
2305.15	0.0003762
2314.79	0.0003555
2324.44	0.0003773
2334.08	0.0003636
2343.73	0.0003231
2353.37	0.000301
2363.02	0.00033
2372.66	0.000303
2382.31	0.0003458
2391.95	0.000305
2401.6	0.000297
2411.24	0.0003112
2420.89	0.0003488
2430.53	0.000251
2440.18	0.0002
2449.82	0.00041935
2459.47	0.000218
2469.11	0.000407917
2478.75	0.000517
2488.4	0.0003291
2498.04	0.000273
2507.69	0.0003176
2517.33	0.000269
2526.98	0.000267
2536.62	0.00043231
2546.27	0.0003605
2555.91	0.00040366
2565.56	0.0003885
2575.2	0.0003866
2584.85	0.00021
2594.49	0.0003645
2604.14	0.000294
2613.78	0.0003823
2623.43	0.000221
2633.07	0.000238
2642.72	0.000245
2652.36	0.0003505
2662.01	0.000293
2671.65	0.0003618
2681.29	0.0003986
2690.94	0.00047501
2700.58	0.0003114
2710.23	0.0003661
2719.87	0.0003739
2729.52	0.0003095
2739.16	0.0003667
2748.81	0.00042352
2758.45	0.0005207
2768.1	0.000534
2777.74	0.00028
2787.39	0.00045821
2797.03	0.00045846
2806.68	0.00047057
2816.32	0.0003183
2825.97	0.0003854
2835.61	0.0005389
2845.26	0.0006802
2854.9	0.0007113
2864.55	0.0008951
2874.19	0.0010334
2883.84	0.0012065
2893.48	0.0009412
2903.12	0.0010479
2912.77	0.0011426
2922.41	0.0013645
2932.06	0.002187
2941.7	0.002037
2951.35	0.001657
2960.99	0.001547
2970.64	0.001697
2980.28	0.001547
2989.93	0.0013967
2999.57	0.0012588
3009.22	0.001447
3018.86	0.002107
3028.51	0.002397
3038.15	0.002137
3047.8	0.001717
3057.44	0.002377
3067.09	0.003567
3076.73	0.003287
3086.38	0.002197
3096.02	0.001427
3105.67	0.000917
3115.31	0.0005892
3124.95	0.0006062
3134.6	0.0005914
3144.24	0.0006093
3153.89	0.0006159
3163.53	0.0005457
3173.18	0.0003824
3182.82	0.00047391
3192.47	0.0006199
3202.11	0.0006364
3211.76	0.0005432
3221.4	0.0003268
3231.05	0.00049894
3240.69	0.000189
3250.34	0.000306
3259.98	0.000196
3269.63	0.00050133
3279.27	0.0003145
3288.92	0.0003187
3298.56	0.000674
3308.21	0.00044136
3317.85	0.00049403
3327.49	0.00050447
3337.14	0.0005299
3346.78	0.0005779
3356.43	0.000691
3366.07	0.0004375
3375.72	0.00047614
3385.36	0.0006942
3395.01	0.0004726
3404.65	0.0005501
3414.3	0.00079
3423.94	0.000851
3433.59	0.0007806
3443.23	0.001437
3452.88	0.002727
3462.52	0.003377
3472.17	0.003257
3481.81	0.002307
3491.46	0.0013435
3501.1	0.0008633
3510.75	0.0007663
3520.39	0.000406215
3530.04	0.0005443
3539.68	0.0006227
3549.32	0.0003247
3558.97	0.00047449
3568.61	0.0005223
3578.26	0.00042825
3587.9	0.00040345
3597.55	0
3607.19	0.0003874
3616.84	0.0003388
3626.48	0.000412214
3636.13	0.0004797
3645.77	0.0005698
3655.42	0.000336
3665.06	0.0005357
3674.71	0.0003139
3684.35	0.000292
3694	0.0003459
3703.64	0.000255
3713.29	0.00028
3722.93	0.0006303
3732.58	0.0005097
3742.22	0.0003451
3751.86	0.0003212
3761.51	0.000321
3771.15	0.0003528
3780.8	0.000293
3790.44	0.0003101
3800.09	0.00043998
3809.73	0.0003746
3819.38	0.000212
3829.02	0.000126
3838.67	0.00041645
3848.31	0.0003132
3857.96	0.0005283
3867.6	0.00046068
3877.25	0.0006051
3886.89	0.000292
3896.54	0.000413507
3906.18	0.00040519
3915.83	0.00042787
3925.47	0.0003427
3935.12	0.00048559
3944.76	0.0005531
3954.41	0.0007081
3964.05	0.000257
3973.69	0.0003782
3983.34	0.000376
3992.98	0.00043088
