Infrared Spectrum: 3-Chloro-2-methylpropionitrile
Formula: C4 H6 Cl N
CAS: 7659-45-2
State: SOLUTION (10% CCl4 FOR 3800-1330, 10% CS2 FOR 1330-400 CM^-^1)
Class: COBLENTZ III
Instrument: DOW KBr FOREPRISM-GRATING
Instrument parameters: BLAZED AT 3.5, 12.0, 20.0 MICRON AND CHANGED AT 5.0, 7.5, 14.9 MICRON
Sampling: TRANSMISSION
Path length: 0.011 CM, 0.011 CM
Resolution: 2
Origin: DOW CHEMICAL COMPANY
1/CM	TRANSMITTANCE
3800	0.9092
3791	0.9099
3782	0.9078
3773	0.9076
3764	0.9071
3755	0.9011
3746	0.8977
3737	0.9011
3728	0.9034
3719	0.9021
3710	0.9029
3701	0.9022
3692	0.8987
3683	0.8973
3674	0.8993
3665	0.9021
3656	0.9017
3647	0.9007
3638	0.9024
3629	0.9008
3620	0.901
3611	0.901
3602	0.902
3593	0.9015
3584	0.8906
3575	0.8894
3566	0.8907
3557	0.8911
3548	0.8922
3539	0.8913
3530	0.8907
3521	0.8881
3512	0.8865
3503	0.8864
3494	0.887
3485	0.8887
3476	0.8903
3467	0.8918
3458	0.8932
3449	0.8945
3440	0.8949
3431	0.8951
3422	0.8941
3413	0.893
3404	0.8907
3395	0.8881
3386	0.8846
3377	0.8831
3368	0.8821
3359	0.8818
3350	0.8818
3341	0.8821
3332	0.8822
3323	0.8824
3314	0.8821
3305	0.8834
3296	0.882
3287	0.8819
3278	0.8826
3269	0.8828
3260	0.8823
3251	0.8816
3242	0.881
3233	0.8796
3224	0.8781
3215	0.8748
3206	0.8695
3197	0.8649
3188	0.8608
3179	0.859
3170	0.8602
3161	0.8618
3152	0.8619
3143	0.8602
3134	0.8614
3125	0.8616
3116	0.8622
3107	0.8636
3098	0.8661
3089	0.8675
3080	0.8657
3071	0.8674
3062	0.863
3053	0.8595
3044	0.8558
3035	0.846
3026	0.829
3017	0.8106
3008	0.7547
2999	0.5334
2990	0.4825
2981	0.5924
2972	0.6337
2963	0.5554
2954	0.6446
2945	0.5788
2936	0.7171
2927	0.7694
2918	0.7836
2909	0.7911
2900	0.8039
2891	0.8
2882	0.7321
2873	0.7968
2864	0.8107
2855	0.8318
2846	0.862
2837	0.8631
2828	0.8616
2819	0.8681
2810	0.8751
2801	0.8802
2792	0.8831
2783	0.8851
2774	0.8868
2765	0.8873
2756	0.886
2747	0.8844
2738	0.8827
2729	0.8874
2720	0.8903
2711	0.8927
2702	0.8936
2693	0.8946
2684	0.896
2675	0.8971
2666	0.898
2657	0.8993
2648	0.8974
2639	0.8956
2630	0.8953
2621	0.8958
2612	0.8953
2603	0.8952
2594	0.8954
2585	0.8956
2576	0.896
2567	0.8964
2558	0.8968
2549	0.8981
2540	0.8997
2531	0.9008
2522	0.8994
2513	0.8986
2504	0.8984
2495	0.9
2486	0.9018
2477	0.9036
2468	0.9033
2459	0.9019
2450	0.9008
2441	0.9023
2432	0.9041
2423	0.9059
2414	0.9057
2405	0.9067
2396	0.9059
2387	0.9059
2378	0.9084
2369	0.9084
2360	0.9085
2351	0.9094
2342	0.9059
2333	0.9014
2324	0.9041
2315	0.9058
2306	0.9084
2297	0.9118
2288	0.9101
2279	0.9008
2270	0.877
2261	0.8203
2252	0.6482
2243	0.8439
2234	0.8773
2225	0.8943
2216	0.9039
2207	0.9098
2198	0.9138
2189	0.9157
2180	0.9184
2171	0.9226
2162	0.9229
2153	0.9243
2144	0.9256
2135	0.9271
2126	0.9286
2117	0.9301
2108	0.9315
2099	0.9325
2090	0.9335
2081	0.9343
2072	0.9343
2063	0.9342
2054	0.9353
2045	0.9338
2036	0.9337
2027	0.9344
2018	0.9356
2009	0.9352
2000	0.9236
1991	0.9297
1982	0.9398
1973	0.943
1964	0.9433
1955	0.9541
1946	0.9446
1937	0.9442
1928	0.9441
1919	0.9438
1910	0.9434
1901	0.9443
1892	0.9437
1883	0.9434
1874	0.9427
1865	0.9385
1856	0.9374
1847	0.9369
1838	0.9375
1829	0.9366
1820	0.9368
1811	0.9383
1802	0.9374
1793	0.9394
1784	0.9404
1775	0.9386
1766	0.9361
1757	0.9352
1748	0.9322
1739	0.9227
1730	0.9123
1721	0.9138
1712	0.9075
1703	0.8851
1694	0.8701
1685	0.8722
1676	0.8961
1667	0.9067
1658	0.9125
1649	0.8961
1640	0.9213
1631	0.9242
1622	0.9126
1613	0.9093
1604	0.8946
1595	0.8675
1586	0.8425
1577	0.852
1568	0.8194
1559	0.7733
1550	0.8057
1541	0.805
1532	0.8666
1523	0.8638
1514	0.8708
1505	0.859
1496	0.8709
1487	0.8681
1478	0.849
1469	0.6563
1460	0.343
1451	0.524
1442	0.6
1433	0.8182
1424	0.8679
1415	0.8929
1406	0.9016
1397	0.8998
1388	0.7882
1379	0.7319
1370	0.8842
1361	0.9078
1352	0.919
1343	0.9087
1334	0.8209
1325	0.7806
1316	0.7002
1307	0.5886
1298	0.6202
1289	0.8395
1280	0.8956
1271	0.9033
1262	0.81
1253	0.7391
1244	0.9018
1235	0.9346
1226	0.95
1217	0.9542
1208	0.9263
1199	0.9064
1190	0.9411
1181	0.9433
1172	0.9621
1163	0.9816
1154	0.9815
1145	0.9642
1136	0.9085
1127	0.8859
1118	0.8281
1109	0.836
1100	0.901
1091	0.918
1082	0.9199
1073	0.9046
1064	0.743
1055	0.8377
1046	0.7566
1037	0.8041
1028	0.8499
1019	0.806
1010	0.8602
1001	0.8788
992	0.8856
983	0.8888
974	0.8907
965	0.8906
956	0.8801
947	0.8041
938	0.6222
929	0.7662
920	0.7578
911	0.8362
902	0.8335
893	0.8303
884	0.8517
875	0.8363
866	0.861
857	0.8669
848	0.8806
839	0.8788
830	0.8899
821	0.8892
812	0.869
803	0.851
794	0.5408
785	0.752
776	0.7609
767	0.6027
758	0.4623
749	0.579
740	0.5598
731	0.795
722	0.8631
713	0.8851
704	0.8865
695	0.7325
686	0.7874
677	0.8788
668	0.9413
659	0.9197
650	0.8668
641	0.8914
632	0.9119
623	0.9212
614	0.9248
605	0.9014
596	0.7858
587	0.9169
578	0.9218
569	0.9174
560	0.8994
551	0.9014
542	0.8786
533	0.8521
524	0.8942
515	0.9109
506	0.9214
497	0.9303
488	0.9361
479	0.9411
470	0.9435
461	0.9437
452	0.9397
443	0.9286
434	0.9059
425	0.8734
416	0.805
407	0.6557
398	0.4098
389	0.2807
