Infrared Spectrum: Vinyl phenyl ether
Formula: C 8 H 8 O
CAS: 766-94-9
State: gas
Instrument: HP-GC/MS/IRD
Origin: NIST Mass Spectrometry Data Center
1/CM	ABSORBANCE
550	0.0004914
562	6.48e-05
574	0.000162
586	0.0001836
598	0.0002376
610	0.0002052
622	0.0003618
634	0.0005616
646	0.0006588
658	0.0011934
670	0.0026028
682	0.0053136
694	0.006939
706	0.0043632
718	0.002565
730	0.0033858
742	0.0061776
754	0.0087102
766	0.0065124
778	0.004104
790	0.003483
802	0.0028998
814	0.002241
826	0.0025704
838	0.003834
850	0.0053298
862	0.0049464
874	0.0035532
886	0.0030078
898	0.0031212
910	0.0029106
922	0.0029484
934	0.0043416
946	0.0071658
958	0.0104274
970	0.0089856
982	0.004536
994	0.0030834
1006	0.0022788
1018	0.0024192
1030	0.0018792
1042	0.000891
1054	0.0010098
1066	0.001485
1078	0.0014202
1090	0.0010476
1102	0.0013176
1114	0.0017334
1126	0.003024
1138	0.0064314
1150	0.011448
1162	0.0175014
1174	0.0141534
1186	0.0074142
1198	0.010368
1210	0.0233712
1222	0.0406566
1234	0.054
1246	0.0424332
1258	0.0127656
1270	0.0045738
1282	0.0031536
1294	0.0036288
1306	0.0059346
1318	0.0065502
1330	0.0045252
1342	0.002619
1354	0.0014742
1366	0.0012204
1378	0.002295
1390	0.0039744
1402	0.0030024
1414	0.0012528
1426	0.0008478
1438	0.0010422
1450	0.0016956
1462	0.003726
1474	0.009342
1486	0.0254232
1498	0.0254502
1510	0.0068094
1522	0.0021924
1534	0.0019116
1546	0.0024408
1558	0.003645
1570	0.0068904
1582	0.0173286
1594	0.0287442
1606	0.018306
1618	0.0101952
1630	0.014175
1642	0.0180792
1654	0.0117612
1666	0.0036936
1678	0.0020844
1690	0.0016632
1702	0.001458
1714	0.0011286
1726	0.0008316
1738	0.0006588
1750	0.0006318
1762	0.0008586
1774	0.000945
1786	0.0006966
1798	0.0004968
1810	0.0003726
1822	0.0003348
1834	0.0004266
1846	0.0005616
1858	0.0006696
1870	0.0006642
1882	0.0005616
1894	0.0004806
1906	0.0006156
1918	0.000891
1930	0.000945
1942	0.0008046
1954	0.0005508
1966	0.0003942
1978	0.0004374
1990	0.000405
2002	0.0004104
2014	0.0004968
2026	0.0005886
2038	0.000702
2050	0.0005832
2062	0.0003186
2074	0.000243
2086	0.00027
2098	0.000405
2110	0.0005184
2122	0.0003942
2134	0.000216
2146	0.0001242
2158	0.0001242
2170	0.0001242
2182	0.0001188
2194	7.56e-05
2206	7.02e-05
2218	2.16e-05
2230	1.62e-05
2242	3.78e-05
2254	5.94e-05
2266	0.0001728
2278	0.0002538
2290	0.000351
2302	0.000432
2314	0.0003888
2326	0.0002754
2338	0.0002322
2350	0.0002754
2362	0.0002268
2374	0.0003672
2386	0.000432
2398	0.0004212
2410	0.0003294
2422	0.0002808
2434	0.0003078
2446	0.0003564
2458	0.0004482
2470	0.000432
2482	0.0002916
2494	0.0002052
2506	9.18e-05
2518	0.0001404
2530	0.0001728
2542	0.0001998
2554	0.0002214
2566	0.0002862
2578	0.000297
2590	0.0002268
2602	0.00027
2614	0.000297
2626	0.0002106
2638	0.0001458
2650	7.56e-05
2662	0.000108
2674	0.0001026
2686	8.1e-05
2698	9.72e-05
2710	0.000135
2722	0.0001134
2734	0.0001512
2746	0.0001404
2758	0.0001026
2770	0.0002106
2782	0.0001728
2794	0.0001674
2806	0.0001566
2818	0.0001674
2830	0.0001512
2842	0.0001404
2854	0.0001836
2866	0.0001836
2878	0.0002106
2890	0.000162
2902	0.0002376
2914	0.0001782
2926	0.0002376
2938	0.0002592
2950	0.0002862
2962	0.0002592
2974	0.0003294
2986	0.0005292
2998	0.0006426
3010	0.000972
3022	0.0018522
3034	0.0034128
3046	0.0048114
3058	0.004752
3070	0.0054594
3082	0.005697
3094	0.0041364
3106	0.0026136
3118	0.0018306
3130	0.0013284
3142	0.0006264
3154	0.0003672
3166	0.0002862
3178	0.00027
3190	0.0001944
3202	0.0001458
3214	0.0001512
3226	0.0001782
3238	0.0001242
3250	9.72e-05
3262	0.000135
3274	0.0002052
3286	0.0001566
3298	0.0001404
3310	0.000162
3322	9.72e-05
3334	0.0001512
3346	0.0001188
3358	0.0001674
3370	0.0001134
3382	0.000135
3394	0.0001242
3406	0.0001674
3418	0.0001242
3430	0.0001188
3442	0.0001944
3454	0.0001242
3466	0.000108
3478	0.0001836
3490	0.0001242
3502	0.000162
3514	0.000108
3526	0.0001944
3538	8.1e-05
3550	0.0001836
3562	0.0001836
3574	0.000216
3586	0.0002106
3598	0.0001458
3610	8.64e-05
3622	0.0001836
3634	0.0002052
3646	0.0001566
3658	0.0002484
3670	0.0001674
3682	0.000162
3694	0.000216
3706	0.000216
3718	0.0001458
3730	0.0001188
3742	0.0001836
3754	0.0001242
3766	0.0001242
3778	0.000108
3790	0.000108
3802	0.0001836
3814	0.0001458
3826	0.0001188
3838	0.0001566
