Infrared Spectrum: Silane, dimethylphenyl
Formula: C8 H12 Si
CAS: 766-77-8
State: SOLUTION (10% CCl4 FOR 3800-1270, 2% CS2 FOR 1300-650, AND 10% CCl4 FOR 650-280)
Boiling point: 157 C
Class: COBLENTZ III
Instrument: PERKIN-ELMER 521 (GRATING)
Instrument parameters: FILTERS AT 3150, 2500, 2000, 1150, 700, 410. GRATING CHANGES: 2000, 630
Path length: 0.011 CM, 0.012 CM, AND 0.011 CM
Resolution: 2
Origin: DOW CORNING CORP.
1/CM	TRANSMITTANCE
268	1.0059
277	0.981
286	0.9683
295	0.9813
304	0.9919
313	0.9847
322	0.9727
331	0.9588
340	0.9431
349	0.9242
358	0.8821
367	0.7491
376	0.4206
385	0.8882
394	0.9331
403	0.9477
412	0.9391
421	0.9413
430	0.9447
439	0.9381
448	0.8145
457	0.5133
466	0.9072
475	0.9508
484	0.9522
493	0.949
502	0.9487
511	0.9512
520	0.9568
529	0.9637
538	0.9541
547	0.951
556	0.9506
565	0.9499
574	0.9489
583	0.9466
592	0.9388
601	0.9109
610	0.7685
619	0.6103
628	0.7367
637	0.7598
646	0.5983
655	0.8539
664	0.848
673	0.8345
682	0.8099
691	0.6329
700	0.5118
709	0.3416
718	0.5657
727	0.609
736	0.6918
745	0.722
754	0.7234
763	0.6686
772	0.7457
781	0.7991
790	0.8098
799	0.8092
808	0.801
817	0.7692
826	0.6677
835	0.5556
844	0.7045
853	0.6764
862	0.5781
871	0.1154
880	0.1619
889	0.216
898	0.6509
907	0.7434
916	0.8047
925	0.8287
934	0.8404
943	0.8437
952	0.8466
961	0.8471
970	0.8462
979	0.8459
988	0.8447
997	0.8398
1006	0.8326
1015	0.8273
1024	0.8247
1033	0.8252
1042	0.8233
1051	0.8195
1060	0.8148
1069	0.8136
1078	0.817
1087	0.8117
1096	0.7886
1105	0.71
1114	0.475
1123	0.8057
1132	0.8198
1141	0.823
1150	0.8279
1159	0.8307
1168	0.8302
1177	0.8288
1186	0.8291
1195	0.8301
1204	0.831
1213	0.8303
1222	0.8162
1231	0.7714
1240	0.5348
1249	0.6478
1258	0.7718
1267	0.8232
1276	0.8286
1285	0.82
1294	0.7991
1303	0.7366
1312	0.8065
1321	0.8011
1330	0.7202
1339	0.7932
1348	0.8121
1357	0.8101
1366	0.7727
1375	0.7787
1384	0.753
1393	0.7349
1402	0.7112
1411	0.6051
1420	0.3491
1429	0.6449
1438	0.7461
1447	0.799
1456	0.8066
1465	0.8048
1474	0.7884
1483	0.8035
1492	0.8445
1501	0.8573
1510	0.859
1519	0.8697
1528	0.8783
1537	0.8767
1546	0.8683
1555	0.8589
1564	0.8552
1573	0.8498
1582	0.8062
1591	0.8469
1600	0.8435
1609	0.8364
1618	0.835
1627	0.8402
1636	0.8458
1645	0.8492
1654	0.8472
1663	0.8476
1672	0.8519
1681	0.8552
1690	0.857
1699	0.8569
1708	0.8569
1717	0.8563
1726	0.8543
1735	0.849
1744	0.8382
1753	0.8089
1762	0.8091
1771	0.8292
1780	0.8403
1789	0.8471
1798	0.8421
1807	0.8175
1816	0.7974
1825	0.8334
1834	0.8458
1843	0.8594
1852	0.8578
1861	0.8498
1870	0.8213
1879	0.7782
1888	0.7958
1897	0.807
1906	0.8577
1915	0.8591
1924	0.8578
1933	0.8489
1942	0.8183
1951	0.7566
1960	0.8255
1969	0.8282
1978	0.8556
1987	0.8575
1996	0.8577
2005	0.8642
2014	0.863
2023	0.8599
2032	0.8573
2041	0.8511
2050	0.8409
2059	0.8241
2068	0.7982
2077	0.7615
2086	0.6993
2095	0.5948
2104	0.3629
2113	0.1196
2122	0.0506
2131	0.0774
2140	0.1787
2149	0.3758
2158	0.5781
2167	0.6937
2176	0.7494
2185	0.7857
2194	0.8128
2203	0.8317
2212	0.8452
2221	0.8522
2230	0.8574
2239	0.8608
2248	0.8645
2257	0.868
2266	0.8712
2275	0.8739
2284	0.8756
2293	0.8758
2302	0.8774
2311	0.8754
2320	0.8771
2329	0.8824
2338	0.8829
2347	0.8834
2356	0.8843
2365	0.885
2374	0.885
2383	0.8838
2392	0.8826
2401	0.8817
2410	0.8818
2419	0.8826
2428	0.8835
2437	0.8842
2446	0.8851
2455	0.8861
2464	0.8861
2473	0.8831
2482	0.8762
2491	0.8755
2500	0.8813
2509	0.8866
2518	0.8888
2527	0.8886
2536	0.8886
2545	0.8887
2554	0.8892
2563	0.8893
2572	0.8892
2581	0.889
2590	0.8887
2599	0.8884
2608	0.8881
2617	0.8877
2626	0.8873
2635	0.8868
2644	0.8863
2653	0.8857
2662	0.8855
2671	0.8858
2680	0.8858
2689	0.8844
2698	0.8825
2707	0.8839
2716	0.8888
2725	0.891
2734	0.8906
2743	0.889
2752	0.8866
2761	0.8833
2770	0.8793
2779	0.8741
2788	0.8661
2797	0.857
2806	0.849
2815	0.8477
2824	0.8494
2833	0.851
2842	0.8503
2851	0.8494
2860	0.8482
2869	0.8441
2878	0.8286
2887	0.7998
2896	0.76
2905	0.6767
2914	0.7474
2923	0.7741
2932	0.793
2941	0.7677
2950	0.6983
2959	0.4782
2968	0.2935
2977	0.4644
2986	0.688
2995	0.7153
3004	0.644
3013	0.5734
3022	0.5447
3031	0.5686
3040	0.7128
3049	0.6352
3058	0.5049
3067	0.5377
3076	0.4225
3085	0.64
3094	0.7143
3103	0.8327
3112	0.8625
3121	0.8641
3130	0.8567
3139	0.8471
3148	0.8592
3157	0.8799
3166	0.8822
3175	0.8835
3184	0.8846
3193	0.8864
3202	0.8881
3211	0.8888
3220	0.8895
3229	0.89
3238	0.8906
3247	0.8914
3256	0.8922
3265	0.893
3274	0.8937
3283	0.8943
3292	0.895
3301	0.8953
3310	0.8954
3319	0.8954
3328	0.8955
3337	0.8953
3346	0.8952
3355	0.895
3364	0.8949
3373	0.8948
3382	0.8947
3391	0.8946
3400	0.8946
3409	0.8945
3418	0.8944
3427	0.894
3436	0.8937
3445	0.8934
3454	0.8931
3463	0.8931
3472	0.8932
3481	0.8932
3490	0.8934
3499	0.8935
3508	0.8937
3517	0.8939
3526	0.8944
3535	0.8947
3544	0.8952
3553	0.8955
3562	0.896
3571	0.8962
3580	0.8944
3589	0.8907
3598	0.8894
3607	0.8887
3616	0.8885
3625	0.8894
3634	0.8904
3643	0.8925
3652	0.8956
3661	0.8973
3670	0.8923
3679	0.891
3688	0.8928
3697	0.892
3706	0.8906
3715	0.8919
3724	0.8935
3733	0.8958
3742	0.8991
3751	0.904
3760	0.9072
3769	0.9046
3778	0.8993
3787	0.8959
3796	0.8939
3805	0.8928
3814	0.8925
