Infrared Spectrum: 3-Iodoanisole
Formula: C 7 H 7 I O
CAS: 766-85-8
State: gas
Instrument: HP-GC/MS/IRD
Origin: NIST Mass Spectrometry Data Center
1/CM	ABSORBANCE
550	0.0005238
562	0.0005589
574	0.000189
586	0.0001458
598	2.43e-05
610	0.0001053
622	0.0001566
634	0.0003294
646	0.0010719
658	0.0013203
670	0.0018414
682	0.0034047
694	0.0016416
706	0.000351
718	0.0001647
730	0.0001701
742	0.0005778
754	0.0024813
766	0.0057186
778	0.0053703
790	0.0022653
802	0.0026568
814	0.0076896
826	0.0089883
838	0.0028998
850	0.0018657
862	0.0018144
874	0.0013905
886	0.0007506
898	0.0002781
910	0.0001458
922	0.0001242
934	9.72e-05
946	0.0001377
958	0.000297
970	0.0005427
982	0.0019224
994	0.0037422
1006	0.0022626
1018	0.0052515
1030	0.0120015
1042	0.0136026
1054	0.0057456
1066	0.0030807
1078	0.0017118
1090	0.0013203
1102	0.0008154
1114	0.0007263
1126	0.0006507
1138	0.0006372
1150	0.0010854
1162	0.0023841
1174	0.0025083
1186	0.0026892
1198	0.0028944
1210	0.0049113
1222	0.0117558
1234	0.0168129
1246	0.0152712
1258	0.0078192
1270	0.0062775
1282	0.0098685
1294	0.0088965
1306	0.0045873
1318	0.0033777
1330	0.0028728
1342	0.0014877
1354	0.0007074
1366	0.000648
1378	0.0009612
1390	0.0016335
1402	0.0028323
1414	0.0055431
1426	0.006075
1438	0.0059913
1450	0.0070713
1462	0.0100305
1474	0.0207279
1486	0.0107433
1498	0.0025731
1510	0.0018792
1522	0.0017172
1534	0.0018873
1546	0.0034074
1558	0.0087102
1570	0.0199287
1582	0.027
1594	0.0168183
1606	0.0048249
1618	0.001836
1630	0.0009153
1642	0.0005967
1654	0.0005238
1666	0.0004671
1678	0.0004644
1690	0.000378
1702	0.000324
1714	0.0003915
1726	0.0004536
1738	0.0004239
1750	0.0003051
1762	0.0002835
1774	0.0002484
1786	0.0002295
1798	0.0002781
1810	0.000351
1822	0.0003564
1834	0.0003888
1846	0.000378
1858	0.0002403
1870	0.0001323
1882	0.0001107
1894	0.0001971
1906	0.0003051
1918	0.000351
1930	0.0001998
1942	7.02e-05
1954	5.67e-05
1966	4.32e-05
1978	9.45e-05
1990	0.0001188
2002	0.0001215
2014	0.0001809
2026	0.0003267
2038	0.0004671
2050	0.0005346
2062	0.0005616
2074	0.0004779
2086	0.0003267
2098	0.0002619
2110	0.000189
2122	0.0001107
2134	6.48e-05
2146	7.02e-05
2158	5.4e-05
2170	3.78e-05
2182	8.1e-06
2194	1.08e-05
2206	8.1e-06
2218	4.59e-05
2230	6.48e-05
2242	5.13e-05
2254	4.86e-05
2266	7.02e-05
2278	0.0001107
2290	0.0001377
2302	0.0001296
2314	6.48e-05
2326	6.48e-05
2338	5.94e-05
2350	8.37e-05
2362	7.56e-05
2374	9.45e-05
2386	0.0001539
2398	0.0002133
2410	0.0001593
2422	0.0001404
2434	9.45e-05
2446	0.0001134
2458	0.0001377
2470	0.0001782
2482	0.0002619
2494	0.00027
2506	0.0002646
2518	0.0002025
2530	0.0001134
2542	0.0001053
2554	9.72e-05
2566	0.000162
2578	0.0001323
2590	0.0001026
2602	9.72e-05
2614	0.000108
2626	0.0001161
2638	0.0001161
2650	9.99e-05
2662	7.83e-05
2674	0.0001026
2686	9.45e-05
2698	8.1e-05
2710	8.1e-05
2722	8.1e-05
2734	9.18e-05
2746	0.000108
2758	0.0001053
2770	0.0001215
2782	0.0002187
2794	0.0002835
2806	0.0004482
2818	0.0006534
2830	0.0012825
2842	0.0027054
2854	0.0024948
2866	0.0015687
2878	0.0012231
2890	0.0013311
2902	0.0019629
2914	0.0023949
2926	0.0026055
2938	0.0036369
2950	0.0050787
2962	0.0041796
2974	0.0027783
2986	0.0020034
2998	0.0026244
3010	0.0042741
3022	0.0027351
3034	0.001377
3046	0.0010638
3058	0.0012582
3070	0.0022869
3082	0.0024894
3094	0.0013392
3106	0.0006075
3118	0.0003186
3130	0.0002808
3142	0.0003132
3154	0.0002187
3166	0.0001728
3178	9.45e-05
3190	0.000135
3202	0.0001242
3214	0.0001377
3226	0.0001404
3238	0.0001161
3250	7.02e-05
3262	5.13e-05
3274	6.75e-05
3286	8.91e-05
3298	9.72e-05
3310	6.48e-05
3322	8.64e-05
3334	5.67e-05
3346	6.75e-05
3358	8.64e-05
3370	4.59e-05
3382	8.37e-05
3394	7.56e-05
3406	2.7e-05
3418	8.64e-05
3430	6.75e-05
3442	7.29e-05
3454	7.29e-05
3466	8.91e-05
3478	6.75e-05
3490	7.02e-05
3502	7.02e-05
3514	6.75e-05
3526	0.0001107
3538	0.0001539
3550	0.0001512
3562	0.0001107
3574	9.72e-05
3586	4.05e-05
3598	8.1e-05
3610	0.0001107
3622	9.72e-05
3634	8.1e-05
3646	0.0001215
3658	5.94e-05
3670	9.45e-05
3682	2.43e-05
3694	8.64e-05
3706	0.0001404
3718	0.0001026
3730	0.0001215
3742	0.0001647
3754	0.0001782
3766	0.0001134
3778	7.02e-05
3790	0.0001188
3802	4.59e-05
3814	8.91e-05
3826	0.0001053
3838	8.64e-05
