Infrared Spectrum: MUCOBROMIC ACID LACTONE
Formula: C4 H2 Br2 O3
CAS: 766-38-1
State: SOLID (SPLIT MULL), FLUOROLUBE FOR 3800-1330 CM^-^1, NUJOL FOR 1330-400 CM^-^1
Class: COBLENTZ III
Instrument: DOW KBr FOREPRISM-GRATING
Instrument parameters: BLAZED AT 3.5, 12.0, 20.0 MICRON AND CHANGED AT 5.0, 7.5, 14.9 MICRON
Sampling: TRANSMISSION
Resolution: 2
Origin: DOW CHEMICAL COMPANY
1/CM	TRANSMITTANCE
383.493	0.768
392.336	0.768
401.179	0.765
410.022	0.766
418.865	0.783
427.708	0.79
436.551	0.791
445.394	0.787
454.238	0.772
463.081	0.742
471.924	0.787
480.767	0.813
489.61	0.811
498.453	0.806
507.296	0.804
516.139	0.795
524.982	0.782
533.825	0.764
542.668	0.76
551.511	0.757
560.354	0.754
569.197	0.762
578.04	0.795
586.884	0.706
595.727	0.729
604.57	0.771
613.413	0.79
622.256	0.806
631.099	0.801
639.942	0.834
648.785	0.856
657.628	0.857
666.471	0.862
675.314	0.866
684.157	0.871
693	0.877
701.843	0.882
710.686	0.878
719.53	0.863
728.373	0.827
737.216	0.5619
746.059	0.5731
754.902	0.794
763.745	0.417
772.588	0.815
781.431	0.961
790.274	0.987
799.117	1.001
807.96	1.006
816.803	1.009
825.646	1.005
834.489	0.987
843.333	0.895
852.176	0.3901
861.019	0.7842
869.862	1.008
878.705	1.005
887.548	1
896.391	0.993
905.234	0.982
914.077	0.929
922.92	0.735
931.763	0.478
940.606	0.588
949.449	0.649
958.292	0.889
967.135	0.942
975.979	0.931
984.822	0.848
993.665	0.6406
1002.51	0.281
1011.35	0.758
1020.19	0.947
1029.04	0.962
1037.88	0.966
1046.72	0.966
1055.57	0.965
1064.41	0.955
1073.25	0.924
1082.1	0.7539
1090.94	0.3681
1099.78	0.822
1108.62	0.893
1117.47	0.875
1126.31	0.846
1135.15	0.713
1144	0.2299
1152.84	0.4412
1161.68	0.852
1170.53	0.915
1179.37	0.928
1188.21	0.914
1197.06	0.855
1205.9	0.711
1214.74	0.4489
1223.58	0.4841
1232.43	0.7501
1241.27	0.867
1250.11	0.845
1258.96	0.688
1267.8	0.6
1276.64	0.571
1285.49	0.761
1294.33	0.849
1303.17	0.867
1312.02	0.864
1320.86	0.8169
1329.7	0.648
1338.54	0.822
1347.39	0.882
1356.23	0.886
1365.07	0.886
1373.92	0.884
1382.76	0.875
1391.6	0.884
1400.45	0.88
1409.29	0.881
1418.13	0.88
1426.97	0.875
1435.82	0.855
1444.66	0.788
1453.5	0.762
1462.35	0.86
1471.19	0.914
1480.03	0.924
1488.88	0.924
1497.72	0.924
1506.56	0.924
1515.41	0.924
1524.25	0.929
1533.09	0.929
1541.93	0.928
1550.78	0.921
1559.62	0.925
1568.46	0.924
1577.31	0.911
1586.15	0.895
1594.99	0.893
1603.84	0.874
1612.68	0.7609
1621.52	0.3368
1630.37	0.886
1639.21	0.899
1648.05	0.903
1656.89	0.897
1665.74	0.885
1674.58	0.87
1683.42	0.855
1692.27	0.835
1701.11	0.812
1709.95	0.737
1718.8	0.729
1727.64	0.641
1736.48	0.4619
1745.33	0.107
1754.17	0.096
1763.01	0.046
1771.85	0.532
1780.7	0.791
1789.54	0.864
1798.38	0.88
1807.23	0.914
1816.07	0.942
1824.91	0.972
1833.76	0.98
1842.6	0.979
1851.44	0.977
1860.29	0.976
1869.13	0.976
1877.97	0.975
1886.81	0.975
1895.66	0.975
1904.5	0.969
1913.34	0.966
1922.19	0.96
1931.03	0.96
1939.87	0.964
1948.72	0.964
1957.56	0.96
1966.4	0.958
1975.25	0.953
1984.09	0.943
1992.93	0.907
2001.77	0.926
2010.62	0.937
2019.46	0.95
2028.3	0.9499
2037.15	0.947
2045.99	0.944
2054.83	0.94
2063.68	0.9346
2072.52	0.9217
2081.36	0.915
2090.21	0.917
2099.05	0.924
2107.89	0.925
2116.73	0.922
2125.58	0.921
2134.42	0.92
2143.26	0.917
2152.11	0.9147
2160.95	0.913
2169.79	0.911
2178.64	0.9094
2187.48	0.907
2196.32	0.907
2205.16	0.907
2214.01	0.9026
2222.85	0.8966
2231.69	0.8902
2240.54	0.889
2249.38	0.8871
2258.22	0.8846
2267.07	0.8805
2275.91	0.875
2284.75	0.8695
2293.6	0.874
2302.44	0.881
2311.28	0.881
2320.12	0.8774
2328.97	0.881
2337.81	0.88
2346.65	0.878
2355.5	0.877
2364.34	0.875
2373.18	0.875
2382.03	0.875
2390.87	0.8733
2399.71	0.871
2408.56	0.87
2417.4	0.868
2426.24	0.867
2435.08	0.866
2443.93	0.864
2452.77	0.864
2461.61	0.863
2470.46	0.863
2479.3	0.863
2488.14	0.862
2496.99	0.862
2505.83	0.862
2514.67	0.862
2523.52	0.862
2532.36	0.862
2541.2	0.862
2550.04	0.862
2558.89	0.863
2567.73	0.863
2576.57	0.863
2585.42	0.863
2594.26	0.863
2603.1	0.862
2611.95	0.862
2620.79	0.859
2629.63	0.857
2638.48	0.857
2647.32	0.8569
2656.16	0.8547
2665	0.8519
2673.85	0.849
2682.69	0.848
2691.53	0.8436
2700.38	0.845
2709.22	0.845
2718.06	0.845
2726.91	0.845
2735.75	0.845
2744.59	0.845
2753.44	0.844
2762.28	0.844
2771.12	0.844
2779.96	0.8433
2788.81	0.842
2797.65	0.8406
2806.49	0.8392
2815.34	0.835
2824.18	0.833
2833.02	0.8291
2841.87	0.8236
2850.71	0.819
2859.55	0.8155
2868.39	0.805
2877.24	0.798
2886.08	0.8005
2894.92	0.801
2903.77	0.8
2912.61	0.8
2921.45	0.8
2930.3	0.7988
2939.14	0.797
2947.98	0.7917
2956.83	0.78
2965.67	0.806
2974.51	0.815
2983.35	0.813
2992.2	0.812
3001.04	0.811
3009.88	0.809
3018.73	0.808
3027.57	0.8052
3036.41	0.8024
3045.26	0.8002
3054.1	0.7972
3062.94	0.795
3071.79	0.7932
3080.63	0.79
3089.47	0.7871
3098.31	0.784
3107.16	0.7802
3116	0.7761
3124.84	0.772
3133.69	0.7661
3142.53	0.7611
3151.37	0.754
3160.22	0.747
3169.06	0.737
3177.9	0.7279
3186.75	0.718
3195.59	0.7096
3204.43	0.6948
3213.27	0.6816
3222.12	0.6667
3230.96	0.6516
3239.8	0.6366
3248.65	0.6224
3257.49	0.6053
3266.33	0.5863
3275.18	0.5652
3284.02	0.5398
3292.86	0.5248
3301.71	0.4993
3310.55	0.4879
3319.39	0.4692
3328.23	0.4511
3337.08	0.4407
3345.92	0.435
3354.76	0.4403
3363.61	0.4531
3372.45	0.4641
3381.29	0.4752
3390.14	0.4872
3398.98	0.5068
3407.82	0.5257
3416.67	0.5488
3425.51	0.5784
3434.35	0.6064
3443.19	0.6295
3452.04	0.6485
3460.88	0.6716
3469.72	0.6968
3478.57	0.7121
3487.41	0.718
3496.25	0.7333
3505.1	0.7686
3513.94	0.7782
3522.78	0.7836
3531.63	0.788
3540.47	0.788
3549.31	0.788
3558.15	0.788
3567	0.7863
3575.84	0.7867
3584.68	0.787
3593.53	0.7862
3602.37	0.786
3611.21	0.786
3620.06	0.786
3628.9	0.7844
3637.74	0.7832
3646.58	0.782
3655.43	0.78
3664.27	0.779
3673.11	0.7761
3681.96	0.7751
3690.8	0.773
3699.64	0.773
3708.49	0.773
3717.33	0.772
3726.17	0.769
3735.02	0.765
3743.86	0.765
3752.7	0.765
3761.54	0.764
3770.39	0.762
3779.23	0.761
3788.07	0.7598
3796.92	0.757
