Infrared Spectrum: Cyclohexanecarbonitrile
Formula: C 7 H 11 N
CAS: 766-05-2
State: gas
Origin: EPA-IR VAPOR PHASE LIBRARY
1/CM	ABSORBANCE
549.8	0.000636
559.445	0.000307
569.09	0.0008163
578.734	0.000521
588.379	0.00085556
598.024	0.0007639
607.669	0.0007684
617.313	0.000681
626.958	0.000631
636.603	0.000605
646.248	0.000709
655.893	0.0008127
665.537	0.000675
675.182	0.0010291
684.827	0.0010831
694.472	0.0007669
704.116	0.0011549
713.761	0.000734
723.406	0.00093397
733.051	0.00103
742.695	0.0010095
752.34	0.0011522
761.985	0.0012216
771.63	0.0012774
781.275	0.0011519
790.919	0.00090993
800.564	0.0010407
810.209	0.0010427
819.854	0.0010587
829.498	0.001942
839.143	0.002412
848.788	0.002562
858.433	0.002082
868.078	0.002312
877.722	0.002762
887.367	0.003132
897.012	0.002762
906.657	0.001892
916.301	0.0016342
925.946	0.001912
935.591	0.001962
945.236	0.0016731
954.88	0.0013769
964.525	0.0011631
974.17	0.0011102
983.815	0.00091629
993.46	0.0013774
1003.1	0.002072
1012.75	0.002482
1022.39	0.002042
1032.04	0.002392
1041.68	0.002522
1051.33	0.002042
1060.97	0.0015567
1070.62	0.0012045
1080.26	0.0011804
1089.91	0.0014083
1099.55	0.0011204
1109.2	0.0013277
1118.84	0.0013119
1128.49	0.0010421
1138.13	0.0012989
1147.78	0.0012571
1157.42	0.0011441
1167.07	0.0007778
1176.71	0.0008316
1186.36	0.000612
1196	0.000251
1205.64	0.000561
1215.29	0.000547
1224.93	0.0010115
1234.58	0.0015385
1244.22	0.001626
1253.87	0.0015346
1263.51	0.001667
1273.16	0.001695
1282.8	0.0016153
1292.45	0.0017254
1302.09	0.0017532
1311.74	0.002032
1321.38	0.002062
1331.03	0.002012
1340.67	0.001992
1350.32	0.002352
1359.96	0.002372
1369.61	0.001902
1379.25	0.0014575
1388.9	0.0012546
1398.54	0.001387
1408.18	0.0015634
1417.83	0.002002
1427.47	0.003222
1437.12	0.007942
1446.76	0.014852
1456.41	0.020812
1466.05	0.013492
1475.7	0.006662
1485.34	0.002862
1494.99	0.0016685
1504.63	0.0013346
1514.28	0.0010686
1523.92	0.001051
1533.57	0.0010201
1543.21	0.0009638
1552.86	0.0009638
1562.5	0.0010323
1572.15	0.0009578
1581.79	0.0010137
1591.44	0.0009567
1601.08	0.00089436
1610.73	0.00089169
1620.37	0.00084024
1630.01	0.0008254
1639.66	0.000818
1649.3	0.0008584
1658.95	0.0008147
1668.59	0.0008915
1678.24	0.00085522
1687.88	0.00085696
1697.53	0.000842041
1707.17	0.00088847
1716.82	0.00086657
1726.46	0.0008228
1736.11	0.0007887
1745.75	0.0008234
1755.4	0.00085656
1765.04	0.00088378
1774.69	0.0008109
1784.33	0.0008142
1793.98	0.00087794
1803.62	0.00085452
1813.27	0.0009108
1822.91	0.00090121
1832.55	0.00093799
1842.2	0.0009728
1851.84	0.00086742
1861.49	0.00085847
1871.13	0.00089969
1880.78	0.00091737
1890.42	0.00092952
1900.07	0.00091624
1909.71	0.00092544
1919.36	0.00083569
1929	0.000842054
1938.65	0.00091529
1948.29	0.0009486
1957.94	0.00101
1967.58	0.0009917
1977.23	0.0010165
1986.87	0.0009446
1996.52	0.00092286
2006.16	0.00086155
2015.81	0.00088761
2025.45	0.00090994
2035.1	0.0009624
2044.74	0.0010046
2054.38	0.00093404
2064.03	0.0009496
2073.67	0.000977
2083.32	0.0009633
2092.96	0.0009906
2102.61	0.0009731
2112.25	0.0009748
2121.9	0.0009636
2131.54	0.0010718
2141.19	0.0010624
2150.83	0.0011165
2160.48	0.0010272
2170.12	0.0011544
2179.77	0.0011645
2189.41	0.0012006
2199.06	0.0011769
2208.7	0.0012888
2218.35	0.0015722
2227.99	0.002292
2237.64	0.003122
2247.28	0.003312
2256.92	0.002412
2266.57	0.0013317
2276.21	0.001205
2285.86	0.001203
2295.5	0.0012402
2305.15	0.0011093
2314.79	0.0011611
2324.44	0.0010424
2334.08	0.0011009
2343.73	0.0011701
2353.37	0.0011366
2363.02	0.0013124
2372.66	0.0014105
2382.31	0.0013643
2391.95	0.0013547
2401.6	0.0012074
2411.24	0.0011073
2420.89	0.0011573
2430.53	0.0010759
2440.18	0.001032
2449.82	0.001016
2459.47	0.0009656
2469.11	0.0010962
2478.75	0.0011841
2488.4	0.0012125
2498.04	0.0011708
2507.69	0.0011844
2517.33	0.0011906
2526.98	0.0010965
2536.62	0.0010645
2546.27	0.0011126
2555.91	0.0012242
2565.56	0.0012672
2575.2	0.0013396
2584.85	0.0013366
2594.49	0.001431
2604.14	0.001369
2613.78	0.00137
2623.43	0.0014144
2633.07	0.0016063
2642.72	0.0016559
2652.36	0.001922
2662.01	0.002402
2671.65	0.002402
2681.29	0.002382
2690.94	0.002052
2700.58	0.0017578
2710.23	0.0016188
2719.87	0.0014176
2729.52	0.0014266
2739.16	0.0013879
2748.81	0.0013302
2758.45	0.001523
2768.1	0.0017989
2777.74	0.001992
2787.39	0.002272
2797.03	0.002682
2806.68	0.002832
2816.32	0.002932
2825.97	0.003362
2835.61	0.004252
2845.26	0.008522
2854.9	0.022422
2864.55	0.036902
2874.19	0.037222
2883.84	0.025442
2893.48	0.017092
2903.12	0.017182
2912.77	0.024692
2922.41	0.042692
2932.06	0.087302
2941.7	0.140432
2951.35	0.137952
2960.99	0.086892
2970.64	0.028202
2980.28	0.008122
2989.93	0.003572
2999.57	0.002232
3009.22	0.0018396
3018.86	0.0016688
3028.51	0.0016045
3038.15	0.0015169
3047.8	0.0016022
3057.44	0.001607
3067.09	0.0015009
3076.73	0.0013306
3086.38	0.0012351
3096.02	0.001341
3105.67	0.0011567
3115.31	0.0010195
3124.95	0.0010263
3134.6	0.0011724
3144.24	0.0012192
3153.89	0.0013276
3163.53	0.0014663
3173.18	0.0015901
3182.82	0.0016146
3192.47	0.0013804
3202.11	0.0014319
3211.76	0.001125
3221.4	0.0009554
3231.05	0.0009822
3240.69	0.0010011
3250.34	0.00091667
3259.98	0.0010297
3269.63	0.0009924
3279.27	0.0009677
3288.92	0.0011159
3298.56	0.0010872
3308.21	0.0010731
3317.85	0.0011091
3327.49	0.0010446
3337.14	0.0011045
3346.78	0.0010948
3356.43	0.0009832
3366.07	0.0009528
3375.72	0.00085311
3385.36	0.000742
3395.01	0.0008244
3404.65	0.0009659
3414.3	0.001023
3423.94	0.000983
3433.59	0.0011446
3443.23	0.0010656
3452.88	0.0010798
3462.52	0.0009864
3472.17	0.0010606
3481.81	0.000664
3491.46	0.000723
3501.1	0.0008182
3510.75	0.0009546
3520.39	0.00089089
3530.04	0.0008272
3539.68	0.00088591
3549.32	0.0009208
3558.97	0.0010124
3568.61	0.00091304
3578.26	0.0009941
3587.9	0.0010391
3597.55	0.0010442
3607.19	0.00087482
3616.84	0.00088919
3626.48	0.00087421
3636.13	0.0007854
3645.77	0.0009383
3655.42	0.0010542
3665.06	0.0009713
3674.71	0.0010085
3684.35	0.00089044
3694	0.0010262
3703.64	0.00089211
3713.29	0.00085908
3722.93	0.0009859
3732.58	0.0010611
3742.22	0.0010458
3751.86	0.0009797
3761.51	0.00093136
3771.15	0.0009964
3780.8	0.0010219
3790.44	0.0010731
3800.09	0.0011044
3809.73	0.0011952
3819.38	0.0010115
3829.02	0.0011513
3838.67	0.00086721
3848.31	0.001175
3857.96	0.0009468
3867.6	0.00091568
3877.25	0.000733
3886.89	0.000794
3896.54	0.0010147
3906.18	0.0010584
3915.83	0.0007942
3925.47	0.0007644
3935.12	0.0011258
3944.76	0.0012106
3954.41	0.0011355
3964.05	0.001072
3973.69	0.0013544
3983.34	0.0011071
3992.98	0.0013641
