Infrared Spectrum: Cyclopentylethanol
Formula: C 7 H 14 O
CAS: 766-00-7
State: gas
Instrument: HP-GC/MS/IRD
Origin: NIST Mass Spectrometry Data Center
1/CM	ABSORBANCE
550	0.000208
562	0.0001184
574	0.0001472
586	0.000336
598	0.0003328
610	0.0003008
622	0.0002304
634	0.0001504
646	0.0001728
658	0.0001056
670	9.6e-06
682	9.92e-05
694	4.8e-05
706	4.16e-05
718	0.0001024
730	8.96e-05
742	8.64e-05
754	7.36e-05
766	0.000128
778	0.0001088
790	0.000176
802	0.0002272
814	0.0003072
826	0.0004736
838	0.0005248
850	0.0006048
862	0.001024
874	0.002
886	0.0025408
898	0.0019712
910	0.0012512
922	0.00128
934	0.001696
946	0.0021856
958	0.0023296
970	0.001936
982	0.0013408
994	0.0011712
1006	0.0015328
1018	0.0024128
1030	0.0035744
1042	0.0045056
1054	0.004752
1066	0.0044576
1078	0.0040928
1090	0.0043328
1102	0.0049376
1114	0.0050112
1126	0.0040864
1138	0.0028928
1150	0.002368
1162	0.0023776
1174	0.0022464
1186	0.0019328
1198	0.001808
1210	0.0019968
1222	0.0026528
1234	0.003552
1246	0.0038144
1258	0.0031488
1270	0.0024384
1282	0.0020704
1294	0.0018848
1306	0.0018464
1318	0.0018464
1330	0.0020096
1342	0.0020064
1354	0.0024768
1366	0.0034976
1378	0.0046112
1390	0.004096
1402	0.00256
1414	0.0015648
1426	0.0013888
1438	0.0016512
1450	0.0023232
1462	0.0022688
1474	0.0015904
1486	0.0010528
1498	0.0006432
1510	0.0001568
1522	0.000176
1534	0.00024
1546	0.0001408
1558	6.08e-05
1570	0.0002336
1582	0.0002464
1594	0.0002688
1606	0.0002272
1618	0.0001728
1630	0.0001856
1642	0.0001568
1654	2.24e-05
1666	0.0001312
1678	7.04e-05
1690	0.0001184
1702	3.52e-05
1714	4.16e-05
1726	0.0001568
1738	7.68e-05
1750	3.2e-06
1762	9.6e-05
1774	8e-05
1786	6.4e-05
1798	7.04e-05
1810	0.0001184
1822	0.0001152
1834	0.0001248
1846	7.68e-05
1858	0.0001152
1870	0.0001024
1882	0.0001504
1894	0.0001376
1906	0.0001344
1918	0.000112
1930	0.0001472
1942	0.0001024
1954	0.0001152
1966	9.6e-05
1978	0.0001024
1990	8.64e-05
2002	0.0001056
2014	0.0001056
2026	9.92e-05
2038	9.28e-05
2050	0.0001088
2062	0.0001024
2074	9.92e-05
2086	9.6e-05
2098	7.36e-05
2110	8.64e-05
2122	7.36e-05
2134	7.04e-05
2146	7.04e-05
2158	8.96e-05
2170	8.32e-05
2182	9.6e-05
2194	0.0001152
2206	0.0001056
2218	0.0001088
2230	8e-05
2242	8.96e-05
2254	0.0001056
2266	8.32e-05
2278	6.4e-05
2290	5.76e-05
2302	3.2e-05
2314	3.2e-06
2326	1.28e-05
2338	2.56e-05
2350	3.52e-05
2362	0
2374	1.6e-05
2386	7.04e-05
2398	7.68e-05
2410	7.36e-05
2422	8e-05
2434	7.04e-05
2446	8.32e-05
2458	8.96e-05
2470	8.32e-05
2482	0.0001056
2494	8e-05
2506	7.68e-05
2518	6.4e-05
2530	7.04e-05
2542	0.0001152
2554	0.0001152
2566	0.0001568
2578	0.0001792
2590	0.0002208
2602	0.0002784
2614	0.0002944
2626	0.0003264
2638	0.0003552
2650	0.000352
2662	0.0003232
2674	0.0003424
2686	0.0003168
2698	0.0003232
2710	0.0003488
2722	0.0004192
2734	0.0004512
2746	0.0004672
2758	0.0005344
2770	0.0005984
2782	0.0007104
2794	0.0008192
2806	0.0010592
2818	0.0014112
2830	0.002032
2842	0.0032448
2854	0.00592
2866	0.0108896
2878	0.0147968
2890	0.0143776
2902	0.0122016
2914	0.0124224
2926	0.0142976
2938	0.0183456
2950	0.0256896
2962	0.032
2974	0.0254304
2986	0.014288
2998	0.0060224
3010	0.0026816
3022	0.0015648
3034	0.001072
3046	0.0007744
3058	0.000608
3070	0.000496
3082	0.0004288
3094	0.000416
3106	0.0003232
3118	0.0002848
3130	0.0002272
3142	0.0002176
3154	0.0001952
3166	0.00024
3178	0.0002272
3190	0.0002112
3202	0.0001696
3214	0.000176
3226	0.0001408
3238	7.36e-05
3250	5.44e-05
3262	7.04e-05
3274	5.76e-05
3286	7.68e-05
3298	5.44e-05
3310	5.44e-05
3322	8e-05
3334	9.92e-05
3346	8.96e-05
3358	6.72e-05
3370	7.68e-05
3382	0.0001024
3394	8e-05
3406	0.0001536
3418	0.0001696
3430	0.0001504
3442	0.00016
3454	0.0001728
3466	0.000192
3478	0.0001856
3490	0.0001728
3502	0.0001024
3514	0.0001344
3526	8.64e-05
3538	0.0001568
3550	0.0001056
3562	0.000112
3574	0.0001536
3586	1.6e-05
3598	0.0001504
3610	0.0001312
3622	0.0004384
3634	0.000912
3646	0.0016544
3658	0.0018912
3670	0.001088
3682	0.00048
3694	0.0002368
3706	0.0001888
3718	0.000192
3730	0.0001216
3742	7.04e-05
3754	0.0001344
3766	0.0002048
3778	0.0002272
3790	0.0002752
3802	0.000224
3814	0.0002464
3826	0.0002656
3838	0.0002112
