Infrared Spectrum: N-Cyclohexylformamide
Formula: C 7 H 13 N O
CAS: 766-93-8
State: gas
Origin: EPA-IR VAPOR PHASE LIBRARY
1/CM	ABSORBANCE
549.8	0.004638
559.445	0.004738
569.09	0.005308
578.734	0.004968
588.379	0.004378
598.024	0.003678
607.669	0.003318
617.313	0.002618
626.958	0.002608
636.603	0.002418
646.248	0.002908
655.893	0.003688
665.537	0.003438
675.182	0.002268
684.827	0.002008
694.472	0.002128
704.116	0.001838
713.761	0.001898
723.406	0.002058
733.051	0.002348
742.695	0.002618
752.34	0.002718
761.985	0.002158
771.63	0.001768
781.275	0.001588
790.919	0.001648
800.564	0.001398
810.209	0.001498
819.854	0.001378
829.498	0.001668
839.143	0.002018
848.788	0.002038
858.433	0.002128
868.078	0.002388
877.722	0.003198
887.367	0.004678
897.012	0.005078
906.657	0.004138
916.301	0.003628
925.946	0.004058
935.591	0.004168
945.236	0.004248
954.88	0.003848
964.525	0.003438
974.17	0.003488
983.815	0.003328
993.46	0.003008
1003.1	0.002858
1012.75	0.003388
1022.39	0.002568
1032.04	0.002448
1041.68	0.002148
1051.33	0.002698
1060.97	0.002868
1070.62	0.002988
1080.26	0.002628
1089.91	0.002648
1099.55	0.003158
1109.2	0.003298
1118.84	0.003378
1128.49	0.004068
1138.13	0.006058
1147.78	0.009598
1157.42	0.014788
1167.07	0.025018
1176.71	0.037618
1186.36	0.035098
1196	0.020118
1205.64	0.012198
1215.29	0.009568
1224.93	0.011478
1234.58	0.012708
1244.22	0.013358
1253.87	0.015308
1263.51	0.016388
1273.16	0.016598
1282.8	0.011808
1292.45	0.007588
1302.09	0.008158
1311.74	0.008258
1321.38	0.006058
1331.03	0.004568
1340.67	0.005138
1350.32	0.005948
1359.96	0.005778
1369.61	0.006488
1379.25	0.008848
1388.9	0.010248
1398.54	0.008778
1408.18	0.006968
1417.83	0.006608
1427.47	0.008688
1437.12	0.014408
1446.76	0.023758
1456.41	0.035688
1466.05	0.046258
1475.7	0.064278
1485.34	0.064268
1494.99	0.041048
1504.63	0.018578
1514.28	0.010368
1523.92	0.006288
1533.57	0.003938
1543.21	0.002728
1552.86	0.002198
1562.5	0.001968
1572.15	0.001858
1581.79	0.001808
1591.44	0.001728
1601.08	0.001788
1610.73	0.001938
1620.37	0.002058
1630.01	0.002018
1639.66	0.002118
1649.3	0.002458
1658.95	0.003538
1668.59	0.005358
1678.24	0.009358
1687.88	0.015288
1697.53	0.025578
1707.17	0.056118
1716.82	0.145958
1726.46	0.217198
1736.11	0.160118
1745.75	0.052058
1755.4	0.021978
1765.04	0.012128
1774.69	0.006708
1784.33	0.004128
1793.98	0.002778
1803.62	0.002308
1813.27	0.001998
1822.91	0.002248
1832.55	0.002148
1842.2	0.001808
1851.84	0.001348
1861.49	0.0010344
1871.13	0.0009525
1880.78	0.0008304
1890.42	0.0009541
1900.07	0.000884
1909.71	0.0008043
1919.36	0.000817
1929	0.0007193
1938.65	0.0007505
1948.29	0.0007041
1957.94	0.0006755
1967.58	0.0006665
1977.23	0.0006911
1986.87	0.0006754
1996.52	0.0006566
2006.16	0.0006099
2015.81	0.0006672
2025.45	0.0005846
2035.1	0.0004576
2044.74	0.0005118
2054.38	0.0005419
2064.03	0.0005023
2073.67	0.0005585
2083.32	0.0005291
2092.96	0.0005834
2102.61	0.0006034
2112.25	0.0006893
2121.9	0.0007938
2131.54	0.0007532
2141.19	0.0006145
2150.83	0.0006292
2160.48	0.0005897
2170.12	0.0005452
2179.77	0.0006195
2189.41	0.0007415
2199.06	0.0007068
2208.7	0.0006573
2218.35	0.0007558
2227.99	0.0007428
2237.64	0.0008541
2247.28	0.0008837
2256.92	0.0006866
2266.57	0.0007092
2276.21	0.0006829
2285.86	0.0006325
2295.5	0.0006976
2305.15	0.000723
2314.79	0.0007156
2324.44	0.0006303
2334.08	0.0006869
2343.73	0.0006714
2353.37	0.0007379
2363.02	0.0006858
2372.66	0.0006232
2382.31	0.0007583
2391.95	0.0009074
2401.6	0.0006935
2411.24	0.0007279
2420.89	0.0008314
2430.53	0.0008038
2440.18	0.0006549
2449.82	0.0007727
2459.47	0.000707
2469.11	0.0006948
2478.75	0.0007235
2488.4	0.000767
2498.04	0.0007369
2507.69	0.0007263
2517.33	0.0008248
2526.98	0.000852
2536.62	0.0008374
2546.27	0.0008349
2555.91	0.0007889
2565.56	0.0008763
2575.2	0.0008675
2584.85	0.00105
2594.49	0.0011615
2604.14	0.001258
2613.78	0.001378
2623.43	0.001428
2633.07	0.001588
2642.72	0.001898
2652.36	0.002268
2662.01	0.002548
2671.65	0.002678
2681.29	0.002388
2690.94	0.002348
2700.58	0.002588
2710.23	0.002658
2719.87	0.003328
2729.52	0.005038
2739.16	0.009948
2748.81	0.013388
2758.45	0.010448
2768.1	0.006118
2777.74	0.004858
2787.39	0.004898
2797.03	0.005348
2806.68	0.006988
2816.32	0.011628
2825.97	0.025228
2835.61	0.041788
2845.26	0.043788
2854.9	0.044178
2864.55	0.049838
2874.19	0.038568
2883.84	0.023038
2893.48	0.018668
2903.12	0.023328
2912.77	0.035958
2922.41	0.061208
2932.06	0.104618
2941.7	0.132648
2951.35	0.097128
2960.99	0.039448
2970.64	0.013358
2980.28	0.005528
2989.93	0.003098
2999.57	0.002098
3009.22	0.001818
3018.86	0.001508
3028.51	0.001368
3038.15	0.001408
3047.8	0.001378
3057.44	0.0010808
3067.09	0.0009731
3076.73	0.0010152
3086.38	0.0010552
3096.02	0.0010771
3105.67	0.001488
3115.31	0.001328
3124.95	0.0011054
3134.6	0.0008725
3144.24	0.0009269
3153.89	0.0008738
3163.53	0.0010286
3173.18	0.0008726
3182.82	0.0006026
3192.47	0.000538
3202.11	0.0006633
3211.76	0.0005286
3221.4	0.000588
3231.05	0.0005124
3240.69	0.0005824
3250.34	0.0003021
3259.98	0.0006093
3269.63	0.0004884
3279.27	0.0004825
3288.92	0.0005941
3298.56	0.0004175
3308.21	0.0005448
3317.85	0.0004245
3327.49	0.0005302
3337.14	0.0005462
3346.78	0.000446
3356.43	0.000625
3366.07	0.0007014
3375.72	0.0009019
3385.36	0.0009826
3395.01	0.001488
3404.65	0.002238
3414.3	0.003048
3423.94	0.004668
3433.59	0.006108
3443.23	0.007268
3452.88	0.007148
3462.52	0.005328
3472.17	0.003128
3481.81	0.001838
3491.46	0.0010286
3501.1	0.0006694
3510.75	0.0005596
3520.39	0.00025435
3530.04	0.0004763
3539.68	0.00027031
3549.32	0.0003659
3558.97	0.0005181
3568.61	0.0003625
3578.26	0.0003311
3587.9	0.00025996
3597.55	0.000187549
3607.19	0.00027883
3616.84	0.00024965
3626.48	0.0001229
3636.13	0.000190917
3645.77	0.00023216
3655.42	0.00023489
3665.06	0.00022159
3674.71	0.00021609
3684.35	0.0003257
3694	0.0002584
3703.64	0.00024826
3713.29	0.0003395
3722.93	0.0004502
3732.58	0.000476
3742.22	0.0001631
3751.86	0.000517
3761.51	0.0004212
3771.15	0.0004444
3780.8	0.0003725
3790.44	0.0003909
3800.09	0.0004754
3809.73	0.00023908
3819.38	0.0002918
3829.02	0.0005096
3838.67	0.000385
3848.31	0.00021947
3857.96	0.00026827
3867.6	0.0003199
3877.25	7.7e-05
3886.89	0.0003471
3896.54	0.0003038
3906.18	0.0003042
3915.83	0.000523
3925.47	0.0005246
3935.12	0.0004511
3944.76	0.0004046
3954.41	0.0004654
3964.05	0.0006056
3973.69	0.0004629
3983.34	0.0003423
3992.98	0.0007815
