Infrared Spectrum: N-(4-Ethylphenyl)maleimide
Formula: C 12 H 11 N O 2
CAS: 76620-00-3
State: gas
Origin: EPA-IR VAPOR PHASE LIBRARY
1/CM	ABSORBANCE
549.8	0.002307
559.445	0.002277
569.09	0.003837
578.735	0.008527
588.38	0.010337
598.025	0.008097
607.67	0.003207
617.315	0.003597
626.96	0.002677
636.605	0.002927
646.251	0.003627
655.896	0.006797
665.541	0.010307
675.186	0.010827
684.831	0.023407
694.476	0.031367
704.121	0.021677
713.766	0.012027
723.411	0.008017
733.056	0.004077
742.701	0.001987
752.346	0.0017338
761.991	0.001887
771.636	0.0017861
781.281	0.001947
790.926	0.002297
800.571	0.003427
810.216	0.009417
819.861	0.030557
829.507	0.051537
839.152	0.031117
848.797	0.011557
858.442	0.005357
868.087	0.003137
877.732	0.002057
887.377	0.0015873
897.022	0.0013528
906.667	0.00124
916.312	0.0013279
925.957	0.001937
935.602	0.004727
945.247	0.009787
954.892	0.004747
964.537	0.003987
974.182	0.003537
983.827	0.002137
993.472	0.001867
1003.12	0.002507
1012.76	0.005407
1022.41	0.009797
1032.05	0.006417
1041.7	0.004447
1051.34	0.008967
1060.99	0.011797
1070.63	0.004247
1080.28	0.003757
1089.92	0.004627
1099.57	0.006357
1109.21	0.008937
1118.86	0.014007
1128.5	0.027487
1138.15	0.050347
1147.79	0.058417
1157.44	0.033127
1167.08	0.012357
1176.73	0.010517
1186.37	0.009147
1196.02	0.009297
1205.66	0.012847
1215.31	0.004777
1224.95	0.003177
1234.6	0.003467
1244.24	0.003757
1253.89	0.004447
1263.53	0.004687
1273.18	0.004327
1282.82	0.004317
1292.47	0.004577
1302.11	0.005237
1311.76	0.006937
1321.4	0.009847
1331.05	0.012467
1340.69	0.016247
1350.34	0.027307
1359.98	0.056407
1369.63	0.118617
1379.27	0.165257
1388.92	0.134367
1398.56	0.074407
1408.21	0.033497
1417.85	0.020587
1427.5	0.013917
1437.14	0.011107
1446.79	0.010427
1456.43	0.009827
1466.08	0.009447
1475.73	0.007047
1485.37	0.006137
1495.02	0.010107
1504.66	0.036087
1514.31	0.095937
1523.95	0.052337
1533.6	0.012037
1543.24	0.005387
1552.89	0.003877
1562.53	0.003777
1572.18	0.003907
1581.82	0.005077
1591.47	0.005677
1601.11	0.005447
1610.76	0.005877
1620.4	0.005247
1630.05	0.005227
1639.69	0.005767
1649.34	0.006047
1658.98	0.005137
1668.63	0.004197
1678.27	0.004627
1687.92	0.006547
1697.56	0.012647
1707.21	0.026847
1716.85	0.065137
1726.5	0.192377
1736.14	0.344877
1745.79	0.234747
1755.43	0.059807
1765.08	0.019117
1774.72	0.011697
1784.37	0.008147
1794.01	0.007187
1803.66	0.006757
1813.3	0.005237
1822.95	0.003407
1832.59	0.002627
1842.24	0.002547
1851.88	0.002377
1861.53	0.002547
1871.17	0.003547
1880.82	0.005417
1890.46	0.006277
1900.11	0.004287
1909.75	0.002777
1919.4	0.001987
1929.04	0.0015338
1938.69	0.0013171
1948.33	0.0013525
1957.98	0.0015925
1967.62	0.0018244
1977.27	0.0014322
1986.91	0.0010556
1996.56	0.00091957
2006.2	0.00091968
2015.85	0.0010478
2025.49	0.0013086
2035.14	0.0015734
2044.78	0.001897
2054.43	0.001847
2064.07	0.0015523
2073.72	0.0013357
2083.36	0.0012596
2093.01	0.0011262
2102.65	0.0009626
2112.3	0.0012184
2121.94	0.001267
2131.59	0.00091708
2141.23	0.00085038
2150.88	0.0010107
2160.52	0.0010104
2170.17	0.00096
2179.81	0.0008129
2189.46	0.000723
2199.1	0.000705
2208.75	0.000688
2218.39	0.000603
2228.04	0.000682
2237.68	0.00082083
2247.33	0.00090377
2256.97	0.0009658
2266.62	0.0009366
2276.26	0.000974
2285.91	0.0010268
2295.55	0.0010946
2305.2	0.0010726
2314.84	0.0010798
2324.49	0.0013573
2334.13	0.0013588
2343.78	0.0011906
2353.42	0.0009675
2363.07	0.00084168
2372.72	0.0007513
2382.36	0.0008017
2392.01	0.0009924
2401.65	0.001061
2411.3	0.00088929
2420.94	0.00090077
2430.59	0.0007928
2440.23	0.0007348
2449.88	0.0007645
2459.52	0.000632
2469.17	0.000674
2478.81	0.0007349
2488.46	0.00088616
2498.1	0.0010445
2507.75	0.0012426
2517.39	0.0014559
2527.04	0.0013156
2536.68	0.0010472
2546.33	0.000984
2555.97	0.0010376
2565.62	0.00089094
2575.26	0.000832625
2584.91	0.0007368
2594.55	0.00085886
2604.2	0.00069
2613.84	0.000607
2623.49	0.000589
2633.13	0.000638
2642.78	0.000541
2652.42	0.000496
2662.07	0.000479
2671.71	0.00048
2681.36	0.000503
2691	0.000462
2700.65	0.000459
2710.29	0.000499
2719.94	0.000584
2729.58	0.0007
2739.23	0.000829028
2748.87	0.00088377
2758.52	0.00091307
2768.16	0.0009681
2777.81	0.0009694
2787.45	0.0010292
2797.1	0.001112
2806.74	0.0012429
2816.39	0.0012305
2826.03	0.0016421
2835.68	0.002147
2845.32	0.002887
2854.97	0.004137
2864.61	0.006727
2874.26	0.009387
2883.9	0.011397
2893.55	0.011057
2903.19	0.010207
2912.84	0.010627
2922.48	0.010817
2932.13	0.014347
2941.77	0.020417
2951.42	0.018517
2961.06	0.017167
2970.71	0.034667
2980.35	0.031337
2990	0.011977
2999.64	0.008387
3009.29	0.006927
3018.93	0.006627
3028.58	0.007687
3038.22	0.011437
3047.87	0.010697
3057.51	0.006117
3067.16	0.004007
3076.8	0.003567
3086.45	0.003227
3096.09	0.002977
3105.74	0.002757
3115.38	0.002327
3125.03	0.001907
3134.67	0.0015486
3144.32	0.0010157
3153.96	0.00091035
3163.61	0.00087303
3173.25	0.00089065
3182.9	0.00089122
3192.54	0.000588
3202.19	0.000559
3211.83	0.000421
3221.48	0.000501
3231.12	0.000212
3240.77	0.000245
3250.41	0.000218
3260.06	0.000461
3269.7	0.000198
3279.35	0.000259
3289	0.000265
3298.64	0.000185
3308.29	0.000118
3317.93	0.000193
3327.58	0
3337.22	0.000229
3346.87	0.000161
3356.51	0.000232
3366.16	0.000345
3375.8	0.000397
3385.45	0.000402
3395.09	0.000222
3404.74	0.000456
3414.38	0.000417
3424.03	0.000481
3433.67	0.000371
3443.32	0.000549
3452.96	0.000544
3462.61	0.0008015
3472.25	0.0012609
3481.9	0.0017903
3491.54	0.003377
3501.19	0.004777
3510.83	0.004047
3520.48	0.002037
3530.12	0.0010249
3539.77	0.000719
3549.41	0.0007746
3559.06	0.000591
3568.7	0.0007318
3578.35	0.000501
3587.99	0.000471
3597.64	0.000405
3607.28	0.000424
3616.93	0.000329
3626.57	0.000407
3636.22	0.000466
3645.86	0.000395
3655.51	0.000587
3665.15	0.000558
3674.8	0.000595
3684.44	0.000684
3694.09	0.000633
3703.73	0.000503
3713.38	0.000502
3723.02	0.000522
3732.67	0.000626
3742.31	0.000438
3751.96	0.000474
3761.6	0.000592
3771.25	0.000588
3780.89	0.000681
3790.54	0.0008027
3800.18	0.0010148
3809.83	0.0007889
3819.47	0.000568
3829.12	0.000531
3838.76	0.000682
3848.41	0.000631
3858.05	0.0005
3867.7	0.0007649
3877.34	0.000638
3886.99	0.000619
3896.63	0.000617
3906.28	0.000692
3915.92	0.000724
3925.57	0.000671
3935.21	0.0007773
3944.86	0.000703
3954.5	0.000664
3964.15	0.000668
3973.79	0.000683
3983.44	0.0007424
3993.08	0.00085208
