Infrared Spectrum: 3-Octen-2-ol
Formula: C 8 H 16 O
CAS: 76649-14-4
State: gas
Origin: EPA-IR VAPOR PHASE LIBRARY
1/CM	ABSORBANCE
549.9	0.002101
559.547	0.0016787
569.193	0.00127
578.84	0.0012435
588.486	0.0012269
598.133	0.0013068
607.779	0.0012216
617.426	0.0013344
627.072	0.0014323
636.719	0.0013276
646.365	0.00132
656.012	0.0011433
665.658	0.0011246
675.305	0.0009978
684.951	0.0010074
694.598	0.0012192
704.245	0.0011733
713.891	0.0013822
723.538	0.0016612
733.184	0.002351
742.831	0.002621
752.477	0.002271
762.124	0.001991
771.77	0.001861
781.417	0.001821
791.063	0.0017287
800.71	0.001791
810.356	0.002041
820.003	0.002641
829.649	0.003491
839.296	0.004451
848.943	0.005201
858.589	0.005671
868.236	0.005371
877.882	0.004671
887.529	0.004391
897.175	0.004901
906.822	0.006331
916.468	0.008731
926.115	0.010881
935.761	0.012901
945.408	0.016261
955.054	0.020551
964.701	0.024251
974.347	0.021921
983.994	0.014741
993.64	0.010831
1003.29	0.010811
1012.93	0.012641
1022.58	0.015511
1032.23	0.019721
1041.87	0.023201
1051.52	0.024051
1061.17	0.023241
1070.81	0.020581
1080.46	0.017001
1090.11	0.014601
1099.75	0.014141
1109.4	0.014301
1119.05	0.014381
1128.69	0.013691
1138.34	0.012881
1147.99	0.011301
1157.63	0.009111
1167.28	0.006721
1176.92	0.005641
1186.57	0.005471
1196.22	0.006281
1205.86	0.006301
1215.51	0.007361
1225.16	0.009651
1234.8	0.012831
1244.45	0.015971
1254.1	0.014341
1263.74	0.011121
1273.39	0.008981
1283.04	0.008671
1292.68	0.009171
1302.33	0.009801
1311.98	0.010081
1321.62	0.010941
1331.27	0.012911
1340.92	0.014691
1350.56	0.015621
1360.21	0.017321
1369.86	0.019181
1379.5	0.020261
1389.15	0.016801
1398.79	0.010841
1408.44	0.007431
1418.09	0.006321
1427.73	0.006791
1437.38	0.009331
1447.03	0.011611
1456.67	0.012501
1466.32	0.011061
1475.97	0.007931
1485.61	0.004691
1495.26	0.003091
1504.91	0.002271
1514.55	0.001901
1524.2	0.0016292
1533.85	0.0014397
1543.49	0.001367
1553.14	0.0011803
1562.79	0.001029
1572.43	0.0009667
1582.08	0.000978
1591.73	0.0009383
1601.37	0.0009308
1611.02	0.0009355
1620.67	0.0010419
1630.31	0.0011618
1639.96	0.0014965
1649.6	0.002071
1659.25	0.003371
1668.9	0.003691
1678.54	0.002151
1688.19	0.0013118
1697.84	0.001068
1707.48	0.0009325
1717.13	0.0009855
1726.78	0.0009528
1736.42	0.0010243
1746.07	0.0011638
1755.72	0.0012213
1765.36	0.001251
1775.01	0.0012731
1784.66	0.0013408
1794.3	0.0012462
1803.95	0.0011975
1813.6	0.0009475
1823.24	0.0008866
1832.89	0.0007471
1842.54	0.0006979
1852.18	0.0006749
1861.83	0.0006729
1871.47	0.000618
1881.12	0.000627
1890.77	0.000635
1900.41	0.000581
1910.06	0.00054
1919.71	0.000582
1929.35	0.000564
1939	0.000493
1948.65	0.000517
1958.29	0.000523
1967.94	0.000526
1977.59	0.00054
1987.23	0.000535
1996.88	0.000522
2006.53	0.000565
2016.17	0.000552
2025.82	0.000565
2035.47	0.000591
2045.11	0.000528
2054.76	0.000519
2064.41	0.000507
2074.05	0.000572
2083.7	0.000503
2093.35	0.000528
2102.99	0.000535
2112.64	0.000502
2122.28	0.00054
2131.93	0.000557
2141.58	0.000573
2151.22	0.000653
2160.87	0.0006637
2170.52	0.0006614
2180.16	0.000658
2189.81	0.000613
2199.46	0.000661
2209.1	0.000637
2218.75	0.000641
2228.4	0.000638
2238.04	0.0006672
2247.69	0.000648
2257.34	0.000631
2266.98	0.000635
2276.63	0.0006649
2286.28	0.0006621
2295.92	0.000624
2305.57	0.0007187
2315.22	0.0007216
2324.86	0.000657
2334.51	0.000657
2344.16	0.0006891
2353.8	0.00066
2363.45	0.0007214
2373.09	0.00078607
2382.74	0.00079009
2392.39	0.0008141
2402.03	0.00085088
2411.68	0.000812
2421.33	0.00084276
2430.97	0.00079977
2440.62	0.00082972
2450.27	0.00081447
2459.91	0.00078676
2469.56	0.000767541
2479.21	0.0007003
2488.85	0.00080993
2498.5	0.0007949
2508.15	0.00081377
2517.79	0.0008671
2527.44	0.0009417
2537.09	0.0009297
2546.73	0.0009384
2556.38	0.0010752
2566.03	0.0011046
2575.67	0.0011875
2585.32	0.0012156
2594.96	0.001295
2604.61	0.0013459
2614.26	0.0013935
2623.9	0.0014097
2633.55	0.0014725
2643.2	0.0014865
2652.84	0.0016164
2662.49	0.0016698
2672.14	0.0017501
2681.78	0.001801
2691.43	0.0017352
2701.08	0.0016407
2710.72	0.001791
2720.37	0.001901
2730.02	0.002081
2739.66	0.002401
2749.31	0.002541
2758.96	0.002501
2768.6	0.002521
2778.25	0.002801
2787.9	0.003321
2797.54	0.003911
2807.19	0.004671
2816.84	0.005581
2826.48	0.007461
2836.13	0.011291
2845.77	0.018071
2855.42	0.028601
2865.07	0.038571
2874.71	0.044001
2884.36	0.044381
2894.01	0.040791
2903.65	0.042231
2913.3	0.053151
2922.95	0.072001
2932.59	0.087271
2942.24	0.080761
2951.89	0.066341
2961.53	0.072181
2971.18	0.082171
2980.83	0.070361
2990.47	0.045321
3000.12	0.024981
3009.77	0.017351
3019.41	0.013711
3029.06	0.011461
3038.71	0.009011
3048.35	0.006571
3058	0.004831
3067.64	0.003571
3077.29	0.002911
3086.94	0.002581
3096.58	0.002331
3106.23	0.001941
3115.88	0.0017267
3125.52	0.0016952
3135.17	0.0014669
3144.82	0.0013191
3154.46	0.0012686
3164.11	0.0011502
3173.76	0.0012993
3183.4	0.0010963
3193.05	0.0010076
3202.7	0.00080322
3212.34	0.0009129
3221.99	0.000517
3231.64	0.000456
3241.28	0.000482
3250.93	0.00024
3260.58	0.000191
3270.22	7.5e-05
3279.87	0.000284
3289.52	0.000185
3299.16	0.000172
3308.81	0.000202
3318.45	0.000152
3328.1	0.00017
3337.75	0.000372
3347.39	0.00023
3357.04	0.000348
3366.69	0.000397
3376.33	0.000455
3385.98	0.000292
3395.63	0.000362
3405.27	0.00036
3414.92	0.000214
3424.57	0.000267
3434.21	0.000234
3443.86	0.000181
3453.51	0.000281
3463.15	0.000348
3472.8	0.000397
3482.45	0.000307
3492.09	0.000226
3501.74	0.000215
3511.39	0.000111
3521.03	0.000412
3530.68	3e-05
3540.33	7.8e-05
3549.97	0.000279
3559.62	0.000309
3569.26	0.00046
3578.91	0.000295
3588.56	0.00044
3598.2	0.000567
3607.85	0.0009616
3617.5	0.0016431
3627.14	0.003121
3636.79	0.005201
3646.44	0.007281
3656.08	0.006411
3665.73	0.003651
3675.38	0.001891
3685.02	0.0011979
3694.67	0.000760058
3704.32	0.000496
3713.96	0.000485
3723.61	0.000479
3733.26	0.000477
3742.9	0.000453
3752.55	0.00049
3762.2	0.00042
3771.84	0.000367
3781.49	0.000448
3791.13	0.00041
3800.78	0.000455
3810.43	0.00048
3820.07	0.00061
3829.72	0.000612
3839.37	0.0006685
3849.01	0.000651
3858.66	0.000524
3868.31	0.000618
3877.95	0.000523
3887.6	0.000543
3897.25	0.0006947
3906.89	0.0007035
3916.54	0.000623
3926.19	0.000476
3935.83	0.00054
3945.48	0.0006828
3955.13	0.0006708
3964.77	0.000587
3974.42	0.00053
3984.07	0.000569
3993.71	0.000566
