Infrared Spectrum: cis,trans,trans-1,2,4-Trimethylcyclohexane
Formula: C 9 H 18
CAS: 7667-60-9
State: gas
Instrument: HP-GC/MS/IRD
Origin: NIST Mass Spectrometry Data Center
1/CM	ABSORBANCE
550	0.0002688
562	1.4e-06
574	6.58e-05
586	5.88e-05
598	2.24e-05
610	0.0001736
622	0.0001904
634	0.0001918
646	0.000126
658	0.0001988
670	0.0002016
682	0.0002366
694	5.74e-05
706	0.0001582
718	0.0001946
730	0.0001274
742	0.0002044
754	0.0002198
766	0.000189
778	0.0002562
790	0.0001778
802	0.0001624
814	0.0002422
826	4.76e-05
838	0.0002394
850	0.0002198
862	0.0002632
874	0.0002464
886	0.0002688
898	0.000273
910	0.0002436
922	0.0002464
934	0.0003486
946	0.0004004
958	0.000378
970	0.0004144
982	0.0003892
994	0.0003052
1006	0.0003528
1018	0.0003542
1030	0.0003318
1042	0.000308
1054	0.0002702
1066	0.0002128
1078	0.0001778
1090	0.000161
1102	0.0002646
1114	0.000301
1126	0.000238
1138	0.0001372
1150	0.000182
1162	0.0002044
1174	0.0001792
1186	0.0001316
1198	0.0001442
1210	0.0001442
1222	0.0001736
1234	0.0002212
1246	0.0003696
1258	0.0003822
1270	0.000287
1282	0.0003416
1294	0.0003878
1306	0.0003136
1318	0.000252
1330	0.0002688
1342	0.0003332
1354	0.0004704
1366	0.0008022
1378	0.0012502
1390	0.000952
1402	0.0003836
1414	0.0002884
1426	0.0004494
1438	0.0010612
1450	0.002058
1462	0.0020832
1474	0.0012026
1486	0.0005432
1498	0.0002982
1510	0.0001862
1522	0.0001792
1534	0.0001414
1546	0.0001218
1558	0.0001442
1570	0.0001414
1582	0.0001582
1594	0.0001358
1606	0.0001708
1618	0.0001456
1630	0.000168
1642	0.0001414
1654	0.0001778
1666	0.0001358
1678	0.0001484
1690	0.000119
1702	0.000126
1714	0.0001022
1726	0.000105
1738	9.94e-05
1750	0.0001008
1762	9.8e-05
1774	9.38e-05
1786	7.7e-05
1798	6.86e-05
1810	7.7e-05
1822	5.32e-05
1834	8.54e-05
1846	9.1e-05
1858	6.16e-05
1870	5.6e-05
1882	5.88e-05
1894	3.78e-05
1906	7.28e-05
1918	5.04e-05
1930	5.04e-05
1942	7.42e-05
1954	6.02e-05
1966	4.48e-05
1978	3.78e-05
1990	4.62e-05
2002	5.04e-05
2014	3.92e-05
2026	8.4e-06
2038	4.06e-05
2050	4.34e-05
2062	2.66e-05
2074	4.62e-05
2086	8.4e-06
2098	3.78e-05
2110	4.76e-05
2122	6.02e-05
2134	3.64e-05
2146	8.4e-06
2158	4.2e-05
2170	3.5e-05
2182	2.66e-05
2194	6.72e-05
2206	4.06e-05
2218	1.82e-05
2230	4.2e-05
2242	3.5e-05
2254	2.8e-05
2266	2.8e-06
2278	4.76e-05
2290	2.1e-05
2302	3.36e-05
2314	4.76e-05
2326	3.64e-05
2338	1.54e-05
2350	5.04e-05
2362	4.34e-05
2374	3.08e-05
2386	7.42e-05
2398	8.4e-05
2410	7.84e-05
2422	6.58e-05
2434	7e-05
2446	3.5e-05
2458	5.46e-05
2470	8.12e-05
2482	6.02e-05
2494	8.82e-05
2506	5.74e-05
2518	5.88e-05
2530	9.66e-05
2542	9.66e-05
2554	7.84e-05
2566	8.54e-05
2578	0.0001372
2590	0.0001484
2602	0.000175
2614	0.0002002
2626	0.0002338
2638	0.0002338
2650	0.0002226
2662	0.000203
2674	0.0002184
2686	0.0001918
2698	0.0002044
2710	0.0002436
2722	0.0003164
2734	0.00035
2746	0.0003542
2758	0.0003122
2770	0.000343
2782	0.000399
2794	0.000469
2806	0.0006062
2818	0.0007952
2830	0.0014462
2842	0.0031234
2854	0.0049798
2866	0.0066612
2878	0.0074172
2890	0.007301
2902	0.0086814
2914	0.0134218
2926	0.0131544
2938	0.0094654
2950	0.0086646
2962	0.009828
2974	0.0070686
2986	0.0033628
2998	0.0010374
3010	0.0005376
3022	0.00042
3034	0.0003584
3046	0.0003234
3058	0.0003304
3070	0.0003318
3082	0.0003374
3094	0.0003094
3106	0.000315
3118	0.0002828
3130	0.0002968
3142	0.0002422
3154	0.0002408
3166	0.0002338
3178	0.000203
3190	0.0001624
3202	0.0001106
3214	9.8e-05
3226	9.94e-05
3238	9.8e-05
3250	0.000112
3262	0.0001246
3274	0.000168
3286	7.56e-05
3298	4.34e-05
3310	5.46e-05
3322	6.16e-05
3334	8.4e-05
3346	8.82e-05
3358	0.0001148
3370	7.42e-05
3382	5.32e-05
3394	6.44e-05
3406	5.88e-05
3418	9.66e-05
3430	7.56e-05
3442	9.52e-05
3454	8.54e-05
3466	9.66e-05
3478	3.78e-05
3490	7.56e-05
3502	6.44e-05
3514	3.92e-05
3526	6.58e-05
3538	6.86e-05
3550	8.54e-05
3562	5.88e-05
3574	1.26e-05
3586	1.68e-05
3598	2.94e-05
3610	3.08e-05
3622	7.28e-05
3634	5.46e-05
3646	6.58e-05
3658	7e-05
3670	0.0001568
3682	0.000105
3694	8.26e-05
3706	7.14e-05
3718	5.32e-05
3730	0.0001078
3742	9.94e-05
3754	0.0001204
3766	8.12e-05
3778	8.4e-05
3790	0.0001078
3802	9.52e-05
3814	7.56e-05
3826	0.000126
3838	0.000119
