Infrared Spectrum: cis,cis,trans-1,2,3-Trimethylcyclohexane
Formula: C 9 H 18
CAS: 7667-55-2
State: gas
Instrument: HP-GC/MS/IRD
Origin: NIST Mass Spectrometry Data Center
1/CM	ABSORBANCE
550	0.0001008
562	6.3e-05
574	0.0001302
586	4.2e-05
598	0.0001596
610	0.0003906
622	0.0004116
634	0.0003486
646	0.0001428
658	8.4e-05
670	0.000105
682	0.0001302
694	0.0001344
706	0.0002142
718	0.0001554
730	0.0001722
742	0.0001764
754	0.0001512
766	0.0001722
778	0.0001932
790	0.0002016
802	0.0002562
814	0.0002772
826	0.0003234
838	0.0003402
850	0.0003234
862	0.0002772
874	0.0003108
886	0.0002982
898	0.000231
910	0.0002646
922	0.0003192
934	0.0004956
946	0.0005208
958	0.0006342
970	0.0008568
982	0.0010164
994	0.0008232
1006	0.000525
1018	0.000483
1030	0.0004452
1042	0.000672
1054	0.0007014
1066	0.0003822
1078	0.0003024
1090	0.0004494
1102	0.0004578
1114	0.000336
1126	0.000336
1138	0.0003906
1150	0.000399
1162	0.0004494
1174	0.000378
1186	0.0002856
1198	0.0003696
1210	0.0003696
1222	0.0003024
1234	0.0002604
1246	0.000315
1258	0.0003486
1270	0.000315
1282	0.000357
1294	0.0004242
1306	0.000462
1318	0.0005334
1330	0.0005964
1342	0.000714
1354	0.0010248
1366	0.0021672
1378	0.0042756
1390	0.0037716
1402	0.0012726
1414	0.0006594
1426	0.0010416
1438	0.0025116
1450	0.0047586
1462	0.005649
1474	0.0036246
1486	0.0014322
1498	0.0005922
1510	0.0003612
1522	0.0002604
1534	0.0002142
1546	0.000147
1558	0.0001806
1570	0.000168
1582	0.0001806
1594	0.0002058
1606	0.0002184
1618	0.0001974
1630	0.0001806
1642	0.0001932
1654	0.0001428
1666	0.000147
1678	0.0001302
1690	0.0001428
1702	9.66e-05
1714	0.0001008
1726	0.0001092
1738	0.0001008
1750	7.14e-05
1762	6.72e-05
1774	8.82e-05
1786	7.56e-05
1798	7.98e-05
1810	8.82e-05
1822	7.98e-05
1834	6.72e-05
1846	4.62e-05
1858	7.14e-05
1870	4.62e-05
1882	4.2e-05
1894	3.78e-05
1906	4.62e-05
1918	3.36e-05
1930	4.2e-05
1942	1.26e-05
1954	3.36e-05
1966	3.36e-05
1978	3.36e-05
1990	4.2e-05
2002	2.1e-05
2014	2.94e-05
2026	8.4e-06
2038	2.1e-05
2050	1.26e-05
2062	2.52e-05
2074	8.4e-06
2086	4.2e-06
2098	2.1e-05
2110	1.26e-05
2122	0
2134	3.36e-05
2146	2.1e-05
2158	8.4e-06
2170	4.62e-05
2182	1.68e-05
2194	4.62e-05
2206	2.52e-05
2218	8.4e-06
2230	8.4e-06
2242	0
2254	3.36e-05
2266	2.94e-05
2278	2.94e-05
2290	2.94e-05
2302	4.62e-05
2314	5.04e-05
2326	6.72e-05
2338	5.04e-05
2350	7.98e-05
2362	8.82e-05
2374	0.0001092
2386	0.0001134
2398	8.4e-05
2410	0.0001092
2422	0.000126
2434	0.0001176
2446	0.000105
2458	0.0001134
2470	9.24e-05
2482	0.0001008
2494	0.0001176
2506	0.0001344
2518	0.0001302
2530	0.0001848
2542	0.0001806
2554	0.00021
2566	0.0002688
2578	0.0003402
2590	0.0004284
2602	0.0004662
2614	0.0004914
2626	0.0005334
2638	0.0005712
2650	0.00063
2662	0.000693
2674	0.0007518
2686	0.0006804
2698	0.0006006
2710	0.0005712
2722	0.0006342
2734	0.000714
2746	0.000714
2758	0.0007056
2770	0.000714
2782	0.0008232
2794	0.0009744
2806	0.0012096
2818	0.0016422
2830	0.0024108
2842	0.005208
2854	0.0104874
2866	0.0163506
2878	0.0228648
2890	0.0238224
2902	0.0200088
2914	0.0265272
2926	0.0383502
2938	0.0362838
2950	0.0270396
2962	0.0262164
2974	0.0234738
2986	0.0124362
2998	0.0040278
3010	0.0017472
3022	0.0012306
3034	0.001071
3046	0.0010038
3058	0.0009408
3070	0.0008862
3082	0.0009324
3094	0.0008694
3106	0.000756
3118	0.0006972
3130	0.0006006
3142	0.0005838
3154	0.0005586
3166	0.0004998
3178	0.0004032
3190	0.0003738
3202	0.0003024
3214	0.0002604
3226	0.0002142
3238	0.0001806
3250	0.0002058
3262	0.0001764
3274	0.000189
3286	0.0002016
3298	0.0002142
3310	0.0001722
3322	0.0001512
3334	0.0001134
3346	0.0001176
3358	0.000105
3370	5.46e-05
3382	8.4e-05
3394	7.98e-05
3406	0.0001176
3418	7.14e-05
3430	7.14e-05
3442	7.14e-05
3454	7.56e-05
3466	9.24e-05
3478	5.88e-05
3490	5.46e-05
3502	5.88e-05
3514	7.14e-05
3526	5.46e-05
3538	6.3e-05
3550	5.46e-05
3562	1.68e-05
3574	3.78e-05
3586	1.68e-05
3598	8.4e-06
3610	0
3622	3.36e-05
3634	6.3e-05
3646	2.52e-05
3658	7.56e-05
3670	2.52e-05
3682	4.2e-05
3694	7.56e-05
3706	6.3e-05
3718	9.24e-05
3730	9.66e-05
3742	7.56e-05
3754	8.4e-05
3766	9.66e-05
3778	5.46e-05
3790	9.24e-05
3802	9.66e-05
3814	0.000105
3826	7.56e-05
3838	7.98e-05
