Infrared Spectrum: N-(2-Carboxymethylphenyl)isatin
Formula: C 16 H 11 N O 4
CAS: 76681-87-3
State: gas
Origin: EPA-IR VAPOR PHASE LIBRARY
1/CM	ABSORBANCE
549.9	0.00261
559.547	0.00239
569.193	0.0019317
578.84	0.0013066
588.486	0.0010512
598.133	0.001003
607.779	0.00083
617.426	0.000896
627.072	0.0019071
636.719	0.00219
646.365	0.000924
656.012	0.0014068
665.658	0.00222
675.305	0.0015824
684.951	0.00265
694.598	0.00286
704.245	0.00615
713.891	0.00891
723.538	0.00382
733.184	0.00309
742.831	0.01181
752.477	0.02091
762.124	0.00736
771.77	0.00242
781.417	0.00217
791.063	0.00228
800.71	0.0019866
810.356	0.00331
820.003	0.00336
829.649	0.0017244
839.296	0.0012641
848.943	0.0020472
858.589	0.00318
868.236	0.0017694
877.882	0.0019869
887.529	0.0013891
897.175	0.00119728
906.822	0.0014327
916.468	0.00305
926.115	0.00782
935.761	0.00361
945.408	0.0024
955.054	0.0028
964.701	0.00315
974.347	0.00256
983.994	0.00312
993.64	0.0019227
1003.29	0.0012921
1012.93	0.0012925
1022.58	0.0017752
1032.23	0.00319
1041.87	0.00459
1051.52	0.00344
1061.17	0.00388
1070.81	0.00832
1080.46	0.01812
1090.11	0.01849
1099.75	0.01165
1109.4	0.00993
1119.05	0.01559
1128.69	0.02062
1138.34	0.01917
1147.99	0.01445
1157.63	0.01306
1167.28	0.00724
1176.92	0.00871
1186.57	0.01448
1196.22	0.01199
1205.86	0.00713
1215.51	0.00509
1225.16	0.00585
1234.8	0.00896
1244.45	0.01814
1254.1	0.0311
1263.74	0.02765
1273.39	0.02302
1283.04	0.03129
1292.68	0.03638
1302.33	0.03367
1311.98	0.02165
1321.62	0.00976
1331.27	0.00602
1340.92	0.00611
1350.56	0.0117
1360.21	0.02373
1369.86	0.01741
1379.5	0.00583
1389.15	0.00346
1398.79	0.00292
1408.44	0.00282
1418.09	0.00304
1427.73	0.00474
1437.38	0.00998
1447.03	0.01101
1456.67	0.01586
1466.32	0.03613
1475.97	0.02744
1485.61	0.01747
1495.26	0.02059
1504.91	0.00944
1514.55	0.00461
1524.2	0.00304
1533.85	0.0025
1543.49	0.00243
1553.14	0.00266
1562.79	0.00368
1572.43	0.00625
1582.08	0.00954
1591.73	0.01773
1601.37	0.03367
1611.02	0.04244
1620.67	0.03219
1630.31	0.01169
1639.96	0.00542
1649.6	0.0034
1659.25	0.00294
1668.9	0.00286
1678.54	0.00318
1688.19	0.0039
1697.84	0.00512
1707.48	0.00693
1717.13	0.00928
1726.78	0.01569
1736.42	0.03956
1746.07	0.07971
1755.72	0.08983
1765.36	0.04606
1775.01	0.05299
1784.66	0.02601
1794.3	0.0089
1803.95	0.00461
1813.6	0.00315
1823.24	0.0027
1832.89	0.0025
1842.54	0.00224
1852.18	0.00218
1861.83	0.0018692
1871.47	0.0015115
1881.12	0.0014392
1890.77	0.0014164
1900.41	0.001426
1910.06	0.0017345
1919.71	0.0018165
1929.35	0.0015579
1939	0.0015953
1948.65	0.0015375
1958.29	0.0013334
1967.94	0.00114667
1977.59	0.000835
1987.23	0.000799
1996.88	0.000794
2006.53	0.000818
2016.17	0.00083
2025.82	0.00078
2035.47	0.000741
2045.11	0.000833
2054.76	0.000847
2064.41	0.000919
2074.05	0.000971
2083.7	0.000953
2093.35	0.000961
2102.99	0.001002
2112.64	0.000938
2122.28	0.000893
2131.93	0.000735
2141.58	0.000653
2151.22	0.000618
2160.87	0.000608
2170.52	0.000634
2180.16	0.000615
2189.81	0.000596
2199.46	0.000619
2209.1	0.000651
2218.75	0.000692
2228.4	0.000713
2238.04	0.000698
2247.69	0.000762
2257.34	0.000799
2266.98	0.000847
2276.63	0.000872
2286.28	0.00086
2295.92	0.000834
2305.57	0.000811
2315.22	0.000802
2324.86	0.000899
2334.51	0.000826
2344.16	0.000759
2353.8	0.000678
2363.45	0.000571
2373.09	0.000658
2382.74	0.000655
2392.39	0.000655
2402.03	0.000644
2411.68	0.000596
2421.33	0.000625
2430.97	0.000657
2440.62	0.000677
2450.27	0.000641
2459.91	0.000618
2469.56	0.000608
2479.21	0.000627
2488.85	0.000697
2498.5	0.000721
2508.15	0.000717
2517.79	0.000597
2527.44	0.000611
2537.09	0.000704
2546.73	0.000803
2556.38	0.000888
2566.03	0.000849
2575.67	0.000739
2585.32	0.000659
2594.96	0.000651
2604.61	0.000647
2614.26	0.00062
2623.9	0.00058
2633.55	0.000521
2643.2	0.000492
2652.84	0.000522
2662.49	0.000544
2672.14	0.000555
2681.78	0.000543
2691.43	0.000474
2701.08	0.0004
2710.72	0.000367
2720.37	0.000428
2730.02	0.000468
2739.66	0.000502
2749.31	0.000522
2758.96	0.000599
2768.6	0.000592
2778.25	0.000514
2787.9	0.000444
2797.54	0.000508
2807.19	0.000419
2816.84	0.000532
2826.48	0.000552
2836.13	0.000805
2845.77	0.0012797
2855.42	0.00117445
2865.07	0.000704
2874.71	0.000714
2884.36	0.000787
2894.01	0.00097
2903.65	0.0010626
2913.3	0.0012244
2922.95	0.0011117
2932.59	0.0011132
2942.24	0.0014871
2951.89	0.00366
2961.53	0.00719
2971.18	0.00309
2980.83	0.0013055
2990.47	0.0012821
3000.12	0.0016542
3009.77	0.0018294
3019.41	0.001877
3029.06	0.00234
3038.71	0.00261
3048.35	0.00306
3058	0.00355
3067.64	0.00481
3077.29	0.00602
3086.94	0.00557
3096.58	0.0025
3106.23	0.0010628
3115.88	0.000588
3125.52	0.000411
3135.17	0.000441
3144.82	0.000383
3154.46	0.000366
3164.11	0.000231
3173.76	0.000294
3183.4	0.000377
3193.05	0.000232
3202.7	0.000227
3212.34	0.00026
3221.99	0.000147
3231.64	9e-05
3241.28	0.000198
3250.93	0.000149
3260.58	3e-05
3270.22	0.000198
3279.87	9e-05
3289.52	0.000222
3299.16	0.000197
3308.81	0.000182
3318.45	0.000323
3328.1	0.000237
3337.75	0.000235
3347.39	0.000144
3357.04	0.000278
3366.69	0.000361
3376.33	0.000311
3385.98	0.000279
3395.63	0.000467
3405.27	0.000507
3414.92	0.000368
3424.57	0.000388
3434.21	0.000476
3443.86	0.000455
3453.51	0.000706
3463.15	0.000913
3472.8	0.00114129
3482.45	0.001401
3492.09	0.0016958
3501.74	0.0013602
3511.39	0.001008
3521.03	0.000913
3530.68	0.0012956
3540.33	0.001009
3549.97	0.000724
3559.62	0.000744
3569.26	0.000473
3578.91	0.000619
3588.56	0.000459
3598.2	0.000521
3607.85	0.000551
3617.5	0.000582
3627.14	0.000485
3636.79	0.000572
3646.44	0.000504
3656.08	0.000433
3665.73	0.000563
3675.38	0.000485
3685.02	0.000662
3694.67	0.000564
3704.32	0.00057
3713.96	0.000698
3723.61	0.000647
3733.26	0.000662
3742.9	0.000568
3752.55	0.000624
3762.2	0.000689
3771.84	0.000644
3781.49	0.000667
3791.13	0.000582
3800.78	0.00065
3810.43	0.000632
3820.07	0.000608
3829.72	0.000537
3839.37	0.000652
3849.01	0.000534
3858.66	0.00066
3868.31	0.00074
3877.95	0.000741
3887.6	0.000624
3897.25	0.000691
3906.89	0.000672
3916.54	0.000749
3926.19	0.000715
3935.83	0.000727
3945.48	0.000644
3955.13	0.000651
3964.77	0.000679
3974.42	0.000636
3984.07	0.000646
3993.71	0.000702
