Infrared Spectrum: 3,3-Dimethylcyclohexanol
Formula: C 8 H 16 O
CAS: 767-12-4
State: gas
Instrument: HP-GC/MS/IRD
Origin: NIST Mass Spectrometry Data Center
1/CM	ABSORBANCE
550	0.0002484
562	0.0003384
574	0.0001656
586	8.64e-05
598	9.36e-05
610	0.0001908
622	9.72e-05
634	0.0001224
646	0.0001584
658	0.0002556
670	0.0002412
682	0.000252
694	0.0001656
706	0.0002304
718	0.0002664
730	0.00027
742	0.0001944
754	0.000126
766	0.0001764
778	0.000198
790	0.0003096
802	0.0004464
814	0.000504
826	0.0003816
838	0.0004752
850	0.0007056
862	0.000846
874	0.0008352
886	0.0010908
898	0.0012708
910	0.001386
922	0.0016596
934	0.001782
946	0.0017568
958	0.0016668
970	0.0018216
982	0.0017784
994	0.0020124
1006	0.0040572
1018	0.0080856
1030	0.0082116
1042	0.0056916
1054	0.0096372
1066	0.0106524
1078	0.0042516
1090	0.0014472
1102	0.0011412
1114	0.001152
1126	0.001296
1138	0.001512
1150	0.0017928
1162	0.0022428
1174	0.0024228
1186	0.0021924
1198	0.0020592
1210	0.0021168
1222	0.002646
1234	0.0033228
1246	0.003222
1258	0.0024408
1270	0.0020448
1282	0.0021024
1294	0.002214
1306	0.0019332
1318	0.0015696
1330	0.0016776
1342	0.0021924
1354	0.0034956
1366	0.0050148
1378	0.0047484
1390	0.0039492
1402	0.0025704
1414	0.0013572
1426	0.0013536
1438	0.0023292
1450	0.0039708
1462	0.0050328
1474	0.003816
1486	0.0018936
1498	0.0006876
1510	0.0003528
1522	0.0002484
1534	0.0002088
1546	0.0001224
1558	8.28e-05
1570	0.0001116
1582	9.72e-05
1594	0.0001116
1606	0.0001224
1618	0.0001152
1630	0.0001008
1642	7.92e-05
1654	5.04e-05
1666	6.12e-05
1678	5.04e-05
1690	3.24e-05
1702	2.16e-05
1714	2.88e-05
1726	4.32e-05
1738	3.24e-05
1750	1.44e-05
1762	0
1774	7.2e-06
1786	2.52e-05
1798	2.88e-05
1810	2.88e-05
1822	2.88e-05
1834	1.08e-05
1846	0
1858	1.8e-05
1870	1.44e-05
1882	6.12e-05
1894	1.08e-05
1906	2.16e-05
1918	2.88e-05
1930	2.52e-05
1942	3.6e-05
1954	3.6e-05
1966	1.8e-05
1978	2.16e-05
1990	3.6e-06
2002	4.32e-05
2014	3.96e-05
2026	3.24e-05
2038	6.48e-05
2050	3.96e-05
2062	5.4e-05
2074	6.48e-05
2086	7.92e-05
2098	4.68e-05
2110	3.96e-05
2122	4.68e-05
2134	3.6e-05
2146	7.2e-06
2158	6.48e-05
2170	5.76e-05
2182	5.76e-05
2194	6.12e-05
2206	6.12e-05
2218	6.84e-05
2230	5.4e-05
2242	6.12e-05
2254	5.4e-05
2266	5.4e-05
2278	5.04e-05
2290	4.68e-05
2302	6.84e-05
2314	5.4e-05
2326	6.84e-05
2338	8.28e-05
2350	8.64e-05
2362	8.28e-05
2374	7.56e-05
2386	8.64e-05
2398	0.000108
2410	0.0001224
2422	0.0001296
2434	9.72e-05
2446	0.0001188
2458	0.000108
2470	0.0001116
2482	0.0001332
2494	0.0001476
2506	0.0001476
2518	0.0001368
2530	0.0001332
2542	0.000162
2554	0.0001512
2566	0.0001872
2578	0.00018
2590	0.0002196
2602	0.0002448
2614	0.0003456
2626	0.0004176
2638	0.0004896
2650	0.00054
2662	0.0005076
2674	0.000576
2686	0.000558
2698	0.0005436
2710	0.0005796
2722	0.0006156
2734	0.0006624
2746	0.0006876
2758	0.0007164
2770	0.0008388
2782	0.0009432
2794	0.0010548
2806	0.0012708
2818	0.0017244
2830	0.0028692
2842	0.0058608
2854	0.009864
2866	0.0122976
2878	0.01377
2890	0.0143316
2902	0.0176004
2914	0.02475
2926	0.0312264
2938	0.036
2950	0.0326196
2962	0.0251892
2974	0.0129528
2986	0.0053172
2998	0.00207
3010	0.001062
3022	0.000684
3034	0.0005256
3046	0.0004824
3058	0.0005184
3070	0.0005148
3082	0.0004932
3094	0.0004356
3106	0.0004032
3118	0.00036
3130	0.0003312
3142	0.0003384
3154	0.000378
3166	0.0003348
3178	0.000324
3190	0.000324
3202	0.000342
3214	0.000288
3226	0.0002448
3238	0.000234
3250	0.0001656
3262	0.0001728
3274	0.0001368
3286	0.0001224
3298	0.0001296
3310	0.0001332
3322	0.0001008
3334	9.36e-05
3346	0.0001656
3358	0.0001332
3370	0.0001728
3382	0.0001188
3394	0.0001512
3406	0.0001368
3418	0.0001548
3430	0.0001764
3442	0.0001548
3454	0.000126
3466	0.0001404
3478	0.0001152
3490	0.000108
3502	8.64e-05
3514	8.64e-05
3526	2.88e-05
3538	7.92e-05
3550	6.12e-05
3562	7.2e-05
3574	4.68e-05
3586	5.76e-05
3598	0.0001224
3610	0.0001872
3622	0.0003924
3634	0.0010872
3646	0.0021024
3658	0.0018036
3670	0.0006408
3682	0.0002196
3694	0.000162
3706	9.72e-05
3718	9.36e-05
3730	8.28e-05
3742	7.56e-05
3754	9.72e-05
3766	0.0001152
3778	9.36e-05
3790	0.0001008
3802	0.0001476
3814	0.0001584
3826	0.0002016
3838	0.0001728
