Infrared Spectrum: TRANS-DECAHYDROQUINOLINE
Formula: C9 H17 N
CAS: 767-92-0
State: SOLID (MULL)
Boiling point: 47-49 C
Class: COBLENTZ
Instrument: Not specified, most likely a prism, grating, or hybrid spectrometer.
Sampling: TRANSMISSION
Resolution: 4
Origin: WYANDOTTE CHEMICALS CORP., WYANDOTTE, MICHIGAN, USA
MICROMETERS	TRANSMITTANCE
2.016	0.816
2.05486	0.816
2.09371	0.814
2.13257	0.814
2.17142	0.814
2.21028	0.788
2.24913	0.73
2.28799	0.72
2.32684	0.718
2.3657	0.717
2.40456	0.718
2.44341	0.749
2.48227	0.76
2.52112	0.76
2.55998	0.773
2.59883	0.791
2.63769	0.785
2.67654	0.806
2.7154	0.809
2.75426	0.811
2.79311	0.813
2.83197	0.811
2.87082	0.803
2.90968	0.795
2.94853	0.791
2.98739	0.783
3.02624	0.778
3.0651	0.757
3.10396	0.559
3.14281	0.4
3.18167	0.536
3.22052	0.6
3.25938	0.669
3.29823	0.656
3.33709	0.487
3.37594	0.115
3.4148	0.079
3.45366	0.078
3.49251	0.089
3.53137	0.087
3.57022	0.133
3.60908	0.16
3.64793	0.258
3.68679	0.282
3.72564	0.33
3.7645	0.453
3.80336	0.45
3.84221	0.507
3.88107	0.538
3.91992	0.585
3.95878	0.694
3.99763	0.705
4.03649	0.728
4.07534	0.744
4.1142	0.757
4.15306	0.78
4.19191	0.783
4.23077	0.783
4.26962	0.762
4.30848	0.775
4.34733	0.782
4.38619	0.819
4.42504	0.829
4.4639	0.817
4.50276	0.822
4.54161	0.826
4.58047	0.827
4.61932	0.829
4.65818	0.829
4.69703	0.835
4.73589	0.848
4.77474	0.853
4.8136	0.861
4.85246	0.865
4.89131	0.863
4.93017	0.86
4.96902	0.86
5.00788	0.863
5.04673	0.865
5.08559	0.86
5.12444	0.861
5.1633	0.858
5.20216	0.861
5.24101	0.868
5.27987	0.868
5.31872	0.871
5.35758	0.869
5.39643	0.865
5.43529	0.869
5.47414	0.868
5.513	0.866
5.55186	0.871
5.59071	0.866
5.62957	0.871
5.66842	0.868
5.70728	0.861
5.74613	0.852
5.78499	0.865
5.82384	0.853
5.8627	0.858
5.90156	0.869
5.94041	0.85
5.97927	0.863
6.01812	0.853
6.05698	0.848
6.09583	0.852
6.13469	0.861
6.17354	0.876
6.2124	0.874
6.25126	0.873
6.29011	0.866
6.32897	0.873
6.36782	0.865
6.40668	0.876
6.44553	0.842
6.48439	0.855
6.52324	0.848
6.5621	0.837
6.60096	0.819
6.63981	0.798
6.67867	0.702
6.71752	0.443
6.75638	0.434
6.79523	0.221
6.83409	0.139
6.87294	0.141
6.9118	0.13
6.95066	0.201
6.98951	0.479
7.02837	0.622
7.06722	0.7
7.10608	0.717
7.14493	0.728
7.18379	0.671
7.22264	0.421
7.2615	0.304
7.30036	0.492
7.33921	0.458
7.37807	0.546
7.41692	0.378
7.45578	0.403
7.49463	0.278
7.53349	0.578
7.57234	0.681
7.6112	0.684
7.65006	0.525
7.68891	0.378
7.72777	0.66
7.76662	0.596
7.80548	0.697
7.84433	0.757
7.88319	0.769
7.92204	0.718
7.9609	0.715
7.99976	0.691
8.03861	0.543
8.07747	0.507
8.11632	0.707
8.15518	0.734
8.19403	0.8
8.23289	0.827
8.27174	0.827
8.3106	0.832
8.34946	0.837
8.38831	0.826
8.42717	0.8
8.46602	0.665
8.50488	0.452
8.54373	0.678
8.58259	0.72
8.62144	0.749
8.6603	0.699
8.69916	0.56
8.73801	0.328
8.77687	0.328
8.81572	0.411
8.85458	0.312
8.89343	0.31
8.93229	0.424
8.97114	0.65
9.01	0.746
9.04886	0.764
9.08771	0.611
9.12657	0.603
9.16542	0.702
9.20428	0.754
9.24313	0.76
9.28199	0.73
9.32084	0.72
9.3597	0.752
9.39856	0.757
9.43741	0.767
9.47627	0.596
9.51512	0.648
9.55398	0.801
9.59283	0.816
9.63169	0.762
9.67054	0.77
9.7094	0.816
9.74826	0.816
9.78711	0.798
9.82597	0.741
9.86482	0.697
9.90368	0.73
9.94253	0.743
9.98139	0.715
10.0202	0.627
10.0591	0.53
10.098	0.408
10.1368	0.351
10.1757	0.468
10.2145	0.645
10.2534	0.739
10.2922	0.757
10.3311	0.751
10.3699	0.773
10.4088	0.786
10.4477	0.773
10.4865	0.752
10.5254	0.723
10.5642	0.684
10.6031	0.647
10.6419	0.613
10.6808	0.593
10.7196	0.583
10.7585	0.575
10.7974	0.572
10.8362	0.567
10.8751	0.559
10.9139	0.557
10.9528	0.656
10.9916	0.718
11.0305	0.695
11.0693	0.43
11.1082	0.256
11.1471	0.386
11.1859	0.5
11.2248	0.598
11.2636	0.63
11.3025	0.647
11.3413	0.573
11.3802	0.598
11.419	0.673
11.4579	0.694
11.4968	0.749
11.5356	0.752
11.5745	0.669
11.6133	0.578
11.6522	0.534
11.691	0.528
11.7299	0.534
11.7687	0.539
11.8076	0.526
11.8465	0.482
11.8853	0.36
11.9242	0.341
11.963	0.383
12.0019	0.396
12.0407	0.323
12.0796	0.349
12.1184	0.499
12.1573	0.552
12.1962	0.6
12.235	0.613
12.2739	0.626
12.3127	0.627
12.3516	0.634
12.3904	0.639
12.4293	0.643
12.4681	0.645
12.507	0.648
12.5459	0.65
12.5847	0.643
12.6236	0.635
12.6624	0.621
12.7013	0.598
12.7401	0.567
12.779	0.504
12.8178	0.432
12.8567	0.39
12.8956	0.499
12.9344	0.621
12.9733	0.65
13.0121	0.632
13.051	0.626
13.0898	0.634
13.1287	0.634
13.1675	0.617
13.2064	0.588
13.2453	0.557
13.2841	0.504
13.323	0.463
13.3618	0.421
13.4007	0.398
13.4395	0.401
13.4784	0.426
13.5172	0.463
13.5561	0.515
13.595	0.554
13.6338	0.585
13.6727	0.606
13.7115	0.616
13.7504	0.616
13.7892	0.616
13.8281	0.616
13.8669	0.622
13.9058	0.64
13.9447	0.679
13.9835	0.715
14.0224	0.754
14.0612	0.78
14.1001	0.808
14.1389	0.826
14.1778	0.852
14.2166	0.873
14.2555	0.889
14.2944	0.902
14.3332	0.917
14.3721	0.933
14.4109	0.941
14.4498	0.947
14.4886	0.954
14.5275	0.96
14.5663	0.959
14.6052	0.959
14.6441	0.96
14.6829	0.96
14.7218	0.962
14.7606	0.962
14.7995	0.962
14.8383	0.959
14.8772	0.959
14.916	0.954
14.9549	0.951
14.9938	0.934
15.0326	0.899
15.0715	0.847
15.1103	0.817
15.1492	0.822
15.188	0.86
15.2269	0.887
15.2657	0.908
15.3046	0.91
15.3435	0.91
15.3823	0.912
15.4212	0.908
15.46	0.905
15.4989	0.902
15.5377	0.897
15.5766	0.894
15.6154	0.891
15.6543	0.887
15.6932	0.879
15.732	0.873
15.7709	0.865
15.8097	0.858
15.8486	0.845
15.8874	0.834
15.9263	0.827
15.9651	0.816
16.004	0.809
