Infrared Spectrum: 4-Aminobenzo-2,1,3-thiadiazole
Formula: C 6 H 5 N 3 S
CAS: 767-64-6
State: gas
Origin: EPA-IR VAPOR PHASE LIBRARY
1/CM	ABSORBANCE
549.8	0.012077
559.445	0.013257
569.09	0.012347
578.734	0.013187
588.379	0.013067
598.024	0.014347
607.669	0.013817
617.313	0.014677
626.958	0.013327
636.603	0.013207
646.248	0.012587
655.893	0.012697
665.537	0.012987
675.182	0.012517
684.827	0.015817
694.472	0.018567
704.116	0.022297
713.761	0.026317
723.406	0.043157
733.051	0.064157
742.695	0.055607
752.34	0.036837
761.985	0.017087
771.63	0.013777
781.275	0.015127
790.919	0.018807
800.564	0.026837
810.209	0.022827
819.854	0.024567
829.498	0.037887
839.143	0.041577
848.788	0.028517
858.433	0.022277
868.078	0.014597
877.722	0.013577
887.367	0.017627
897.012	0.026467
906.657	0.023467
916.301	0.011857
925.946	0.005597
935.591	0.004827
945.236	0.004757
954.88	0.004727
964.525	0.004237
974.17	0.004237
983.815	0.005117
993.46	0.005627
1003.1	0.006687
1012.75	0.006687
1022.39	0.005527
1032.04	0.003337
1041.68	0.003887
1051.33	0.003897
1060.97	0.006847
1070.62	0.008717
1080.26	0.007397
1089.91	0.003557
1099.55	0.002777
1109.2	0.005387
1118.84	0.007457
1128.49	0.011617
1138.13	0.012097
1147.78	0.006887
1157.42	0.005117
1167.07	0.006717
1176.71	0.005667
1186.36	0.004417
1196	0.003877
1205.64	0.006097
1215.29	0.002297
1224.93	0.006097
1234.58	0.004477
1244.22	0.005267
1253.87	0.005737
1263.51	0.007507
1273.16	0.011017
1282.8	0.021137
1292.45	0.027097
1302.09	0.021457
1311.74	0.008397
1321.38	0.009267
1331.03	0.017307
1340.67	0.022377
1350.32	0.016387
1359.96	0.009657
1369.61	0.007067
1379.25	0.003747
1388.9	0.002977
1398.54	0.003177
1408.18	0.005107
1417.83	0.008337
1427.47	0.009137
1437.12	0.007097
1446.76	0.006237
1456.41	0.007757
1466.05	0.009497
1475.7	0.016227
1485.34	0.029737
1494.99	0.029237
1504.63	0.015747
1514.28	0.012457
1523.92	0.027687
1533.57	0.056957
1543.21	0.080157
1552.86	0.071927
1562.5	0.036227
1572.15	0.020167
1581.79	0.021137
1591.44	0.035837
1601.08	0.073377
1610.73	0.113037
1620.37	0.111837
1630.01	0.065087
1639.66	0.030807
1649.3	0.014387
1658.95	0.008967
1668.59	0.006917
1678.24	0.006927
1687.88	0.007907
1697.53	0.007397
1707.17	0.005837
1716.82	0.004147
1726.46	0.003577
1736.11	0.003527
1745.75	0.003317
1755.4	0.003477
1765.04	0.003227
1774.69	0.002947
1784.33	0.002847
1793.98	0.003307
1803.62	0.003497
1813.27	0.003117
1822.91	0.002437
1832.55	0.002167
1842.2	0.002097
1851.84	0.002347
1861.49	0.002067
1871.13	0.002407
1880.78	0.002687
1890.42	0.003017
1900.07	0.004227
1909.71	0.003867
1919.36	0.002567
1929	0.001737
1938.65	0.001573
1948.29	0.0016369
1957.94	0.0015991
1967.58	0.001887
1977.23	0.0016216
1986.87	0.001827
1996.52	0.001827
2006.16	0.001857
2015.81	0.001877
2025.45	0.001907
2035.1	0.001927
2044.74	0.001897
2054.38	0.001857
2064.03	0.002057
2073.67	0.001727
2083.32	0.001737
2092.96	0.001947
2102.61	0.001997
2112.25	0.002057
2121.9	0.001847
2131.54	0.0014618
2141.19	0.0015623
2150.83	0.0015121
2160.48	0.0014832
2170.12	0.0014091
2179.77	0.0014921
2189.41	0.0012522
2199.06	0.0014533
2208.7	0.0016783
2218.35	0.0015628
2227.99	0.0014197
2237.64	0.0012385
2247.28	0.0012535
2256.92	0.0010931
2266.57	0.0010655
2276.21	0.0010988
2285.86	0.0013712
2295.5	0.0014998
2305.15	0.0013594
2314.79	0.0013955
2324.44	0.00153
2334.08	0.0013462
2343.73	0.0014496
2353.37	0.0013253
2363.02	0.0016915
2372.66	0.001567
2382.31	0.0012112
2391.95	0.0012817
2401.6	0.0013544
2411.24	0.0013884
2420.89	0.0009538
2430.53	0.0008302
2440.18	0.0009749
2449.82	0.0010397
2459.47	0.0012298
2469.11	0.00073406
2478.75	0.0009616
2488.4	0.001145
2498.04	0.0010896
2507.69	0.00074917
2517.33	0.0012471
2526.98	0.0011221
2536.62	0.000715293
2546.27	0.0009642
2555.91	0.0013984
2565.56	0.0014449
2575.2	0.0014938
2584.85	0.0011948
2594.49	0.0012706
2604.14	0.0015592
2613.78	0.0011425
2623.43	0.0015797
2633.07	0.001535
2642.72	0.0011536
2652.36	0.0015001
2662.01	0.0009337
2671.65	0.0012595
2681.29	0.0009379
2690.94	0.0008665
2700.58	0.001196
2710.23	0.0011469
2719.87	0.0010395
2729.52	0.0011456
2739.16	0.00073614
2748.81	0.0006294
2758.45	0.00080538
2768.1	0.0012222
2777.74	0.0011514
2787.39	0.0009963
2797.03	0.0013536
2806.68	0.00078793
2816.32	0.0010685
2825.97	0.0012997
2835.61	0.0016334
2845.26	0.0011201
2854.9	0.0016086
2864.55	0.0014831
2874.19	0.0015891
2883.84	0.0014374
2893.48	0.002107
2903.12	0.002267
2912.77	0.001787
2922.41	0.001917
2932.06	0.0010917
2941.7	0.0010836
2951.35	0.0013017
2960.99	0.0014726
2970.64	0.001977
2980.28	0.001887
2989.93	0.0013091
2999.57	0.002097
3009.22	0.003517
3018.86	0.005217
3028.51	0.007457
3038.15	0.013777
3047.8	0.017207
3057.44	0.012617
3067.09	0.006467
3076.73	0.005517
3086.38	0.008077
3096.02	0.008847
3105.67	0.006477
3115.31	0.002847
3124.95	0.001767
3134.6	0.0014308
3144.24	0.002057
3153.89	0.001777
3163.53	0.002187
3173.18	0.0014445
3182.82	0.0014912
3192.47	0.001787
3202.11	0.001737
3211.76	0.001787
3221.4	0.0013258
3231.05	0.0014248
3240.69	0.0011201
3250.34	0.0012017
3259.98	0.0008772
3269.63	0.0013857
3279.27	0.0008671
3288.92	0.0009794
3298.56	0.0008759
3308.21	0.0010835
3317.85	0.0009211
3327.49	0.00075571
3337.14	0.0013019
3346.78	0.0013358
3356.43	0.0013325
3366.07	0.0014981
3375.72	0.001797
3385.36	0.004047
3395.01	0.009847
3404.65	0.018167
3414.3	0.020837
3423.94	0.017107
3433.59	0.011067
3443.23	0.005977
3452.88	0.002287
3462.52	0.002997
3472.17	0.003297
3481.81	0.004757
3491.46	0.009027
3501.1	0.014607
3510.75	0.014817
3520.39	0.010277
3530.04	0.009977
3539.68	0.007527
3549.32	0.002917
3558.97	0.001877
3568.61	0.0012824
3578.26	0.0009569
3587.9	0.0013404
3597.55	0.0011071
3607.19	0.0012182
3616.84	0.0011935
3626.48	0.00054
3636.13	0.0010624
3645.77	0.000482
3655.42	0.0006465
3665.06	0.0013788
3674.71	0.0012709
3684.35	0.0006837
3694	0.00058
3703.64	0.00048
3713.29	0.000353
3722.93	0.00081
3732.58	0.000126
3742.22	0.0012839
3751.86	0.0013185
3761.51	0.0012605
3771.15	0.0010948
3780.8	0.0014035
3790.44	0.0011772
3800.09	0
3809.73	0.0010137
3819.38	0.0008516
3829.02	0.0006825
3838.67	0.000248
3848.31	0.000381
3857.96	0.001261
3867.6	0.0010949
3877.25	0.0012661
3886.89	0.0010763
3896.54	0.001767
3906.18	0.0010818
3915.83	0.000534
3925.47	0.00095
3935.12	0.0012836
3944.76	0.0014425
3954.41	0.0013468
3964.05	0.0013974
3973.69	0.0014632
3983.34	0.0015856
3992.98	0.000304
