Infrared Spectrum: 2-Amino-4,6-Dimethylpyrimidine
Formula: C 6 H 9 N 3
CAS: 767-15-7
State: gas
Instrument: HP-GC/MS/IRD
Origin: NIST Mass Spectrometry Data Center
1/CM	ABSORBANCE
550	0.0006216
562	0.0004144
574	0.0001813
586	0.0002368
598	0.0002701
610	0.0004699
622	0.0005957
634	0.0004736
646	0.000333
658	0.0003182
670	0.0002886
682	0.0003811
694	0.0007363
706	0.0014393
718	0.0018056
730	0.0016761
742	0.0013135
754	0.0013468
766	0.0012691
778	0.0013468
790	0.0017205
802	0.0022607
814	0.0030858
826	0.002516
838	0.0012432
850	0.0005698
862	0.0004588
874	0.0004107
886	0.0004847
898	0.0006845
910	0.0007696
922	0.0009287
934	0.0013394
946	0.0011914
958	0.0005513
970	0.0003774
982	0.0004144
994	0.0003959
1006	0.0002886
1018	0.0002923
1030	0.0003848
1042	0.0004477
1054	0.0003219
1066	0.0002664
1078	0.0002997
1090	0.000148
1102	0.0001369
1114	7.4e-05
1126	3.7e-05
1138	1.85e-05
1150	3.7e-05
1162	1.48e-05
1174	0.0001073
1186	0.0003071
1198	0.0006142
1210	0.0009509
1222	0.0010693
1234	0.000814
1246	0.0005587
1258	0.0004699
1270	0.0003367
1282	0.0002553
1294	0.0002553
1306	0.0003219
1318	0.0005291
1330	0.0013505
1342	0.0017538
1354	0.0014726
1366	0.0020387
1378	0.0044696
1390	0.0051171
1402	0.0035113
1414	0.0054797
1426	0.0102046
1438	0.0104784
1450	0.0058164
1462	0.0041514
1474	0.003515
1486	0.003737
1498	0.0042032
1510	0.0048544
1522	0.0054908
1534	0.006216
1546	0.0075628
1558	0.0106005
1570	0.0172605
1582	0.0306841
1594	0.0368187
1606	0.0236393
1618	0.0119288
1630	0.005328
1642	0.0022348
1654	0.0011581
1666	0.0007733
1678	0.0005883
1690	0.0004958
1702	0.0004218
1714	0.0003034
1726	0.000222
1738	0.0001961
1750	0.000185
1762	0.0001739
1774	0.0001295
1786	0.0001443
1798	0.0001443
1810	0.0001332
1822	0.0001147
1834	0.0001221
1846	0.0001369
1858	0.0001258
1870	0.0001665
1882	0.0001813
1894	0.0001739
1906	0.0001887
1918	0.0002072
1930	0.000222
1942	0.0002146
1954	0.0001517
1966	0.0001332
1978	0.000148
1990	0.0001628
2002	0.0002109
2014	0.0001961
2026	0.0002035
2038	0.0001961
2050	0.0001961
2062	0.0001776
2074	0.000148
2086	0.0001406
2098	0.000185
2110	0.0002664
2122	0.0002738
2134	0.000259
2146	0.0002516
2158	0.000222
2170	0.0002109
2182	0.000185
2194	0.0001739
2206	0.0002183
2218	0.0002294
2230	0.0002109
2242	0.0001295
2254	0.0001258
2266	0.0001147
2278	0.0001406
2290	0.0001554
2302	0.0001776
2314	0.0002294
2326	0.0002072
2338	0.0002109
2350	0.0001517
2362	0.0001887
2374	0.0001776
2386	0.0001702
2398	0.0001369
2410	0.0001776
2422	0.0001554
2434	0.0001406
2446	0.0001591
2458	0.0001665
2470	0.0001702
2482	0.0001887
2494	0.0002109
2506	0.0002072
2518	0.0002183
2530	0.0002035
2542	0.0001776
2554	0.000148
2566	0.0001665
2578	0.0001628
2590	0.0001369
2602	0.000111
2614	0.0001443
2626	0.0001702
2638	0.0002035
2650	0.0001961
2662	0.0002368
2674	0.0002331
2686	0.0002035
2698	0.0001887
2710	0.000185
2722	0.0001776
2734	0.0001924
2746	0.0001665
2758	0.0001924
2770	0.0001665
2782	0.0001517
2794	0.0001887
2806	0.0002109
2818	0.0002405
2830	0.0002479
2842	0.0003367
2854	0.0004921
2866	0.0005254
2878	0.0004662
2890	0.0004551
2902	0.0005957
2914	0.000999
2926	0.001739
2938	0.0020276
2950	0.0014208
2962	0.0008436
2974	0.0009102
2986	0.0009583
2998	0.0009176
3010	0.0007326
3022	0.0007696
3034	0.000925
3046	0.0009472
3058	0.0009435
3070	0.0009546
3082	0.0007511
3094	0.0004588
3106	0.0003737
3118	0.0002479
3130	0.000222
3142	0.0002479
3154	0.0002294
3166	0.0002035
3178	0.000222
3190	0.0001739
3202	0.0001776
3214	0.0001406
3226	0.0001184
3238	0.000148
3250	0.0001665
3262	0.0001369
3274	0.000111
3286	0.000185
3298	0.000148
3310	0.0001332
3322	0.0001295
3334	0.0001591
3346	0.0001665
3358	0.0001665
3370	0.0001369
3382	0.0001998
3394	0.0002738
3406	0.0005069
3418	0.001073
3430	0.0018204
3442	0.0026122
3454	0.0023791
3466	0.0012358
3478	0.0005698
3490	0.0003737
3502	0.0004218
3514	0.0006105
3526	0.0009398
3538	0.0012358
3550	0.0015207
3562	0.0016724
3574	0.0011914
3586	0.0006845
3598	0.0003922
3610	0.0002516
3622	0.000222
3634	0.0001887
3646	0.0001998
3658	0.0001739
3670	0.0001295
3682	0.0001295
3694	0.000111
3706	0.0001554
3718	0.0001406
3730	0.0001517
3742	0.0001443
3754	0.0001665
3766	0.0001184
3778	0.0001554
3790	0.0001147
3802	7.77e-05
3814	0.0001998
3826	0.0001369
3838	0.000185
