Infrared Spectrum: 1,4-Piperazinediethanol, Alpha,Alpha'-dimethyl-,
Formula: C10 H22 N2 O2
CAS: 7672-76-6
State: SOLID (OIL MULL)
Melting point: 103-106 C
Class: COBLENTZ III
Instrument: BAIRD (GRATING)
Instrument parameters: NaCl PRISM
Resolution: 2
Origin: WYANDOTTE CHEMICALS CORP.
1/CM	TRANSMITTANCE
623.441	0.633
632.347	0.6558
641.254	0.6233
650.16	0.7313
659.067	0.7462
667.973	0.8047
676.88	0.8361
685.786	0.8556
694.692	0.8632
703.599	0.8543
712.505	0.7976
721.412	0.7326
730.318	0.7413
739.225	0.7566
748.131	0.7715
757.037	0.7538
765.944	0.733
774.85	0.6931
783.757	0.6553
792.663	0.577
801.569	0.3988
810.476	0.1236
819.382	0.217
828.289	0.4834
837.195	0.1129
846.102	0.327
855.008	0.5479
863.914	0.7381
872.821	0.7409
881.727	0.7159
890.634	0.6713
899.54	0.6339
908.447	0.4805
917.353	0.1811
926.259	0.1235
935.166	0.2421
944.072	0.474
952.979	0.3282
961.885	0.2697
970.792	0.4545
979.698	0.4541
988.604	0.4092
997.511	0.3306
1006.42	0.1574
1015.32	0.0407
1024.23	0.3212
1033.14	0.3807
1042.04	0.3321
1050.95	0.2315
1059.86	0.1064
1068.76	0.065
1077.67	0.1196
1086.58	0.1863
1095.48	0.2326
1104.39	0.0823
1113.29	0.2573
1122.2	0.2077
1131.11	0.0675
1140.01	0.1423
1148.92	0.1462
1157.83	0.0347
1166.73	0.0472
1175.64	0.2903
1184.55	0.5028
1193.45	0.5409
1202.36	0.5585
1211.26	0.5114
1220.17	0.4767
1229.08	0.2896
1237.98	0.3222
1246.89	0.471
1255.8	0.3476
1264.7	0.3079
1273.61	0.0974
1282.52	0.0991
1291.42	0.045
1300.33	0.0219
1309.24	0.0404
1318.14	0.1943
1327.05	0.0809
1335.95	0.0432
1344.86	0.0698
1353.77	0.1609
1362.67	0.2444
1371.58	0.0585
1380.49	0.0343
1389.39	0.1182
1398.3	0.2845
1407.21	0.2592
1416.11	0.1163
1425.02	0.103
1433.93	0.1852
1442.83	0.1131
1451.74	0.0358
1460.64	0.027
1469.55	0.0269
1478.46	0.1641
1487.36	0.4157
1496.27	0.5983
1505.18	0.7039
1514.08	0.7644
1522.99	0.8124
1531.9	0.8345
1540.8	0.8712
1549.71	0.8861
1558.62	0.9011
1567.52	0.9141
1576.43	0.917
1585.33	0.9129
1594.24	0.9122
1603.15	0.9229
1612.05	0.9212
1620.96	0.9195
1629.87	0.9305
1638.77	0.9367
1647.68	0.938
1656.59	0.9359
1665.49	0.9306
1674.4	0.9242
1683.31	0.9208
1692.21	0.9296
1701.12	0.9286
1710.02	0.9171
1718.93	0.9227
1727.84	0.9305
1736.74	0.9439
1745.65	0.9519
1754.56	0.9442
1763.46	0.9278
1772.37	0.9449
1781.28	0.9618
1790.18	0.9592
1799.09	0.9587
1808	0.9678
1816.9	0.969
1825.81	0.9544
1834.71	0.9385
1843.62	0.9424
1852.53	0.9487
1861.43	0.9561
1870.34	0.9576
1879.25	0.9471
1888.15	0.9389
1897.06	0.9432
1905.97	0.9391
1914.87	0.9325
1923.78	0.926
1932.69	0.9208
1941.59	0.9236
1950.5	0.9398
1959.4	0.9486
1968.31	0.95
1977.22	0.9504
1986.12	0.9503
1995.03	0.9497
2003.94	0.9489
2012.84	0.9481
2021.75	0.9473
2030.66	0.9461
2039.56	0.9441
2048.47	0.9413
2057.38	0.9334
2066.28	0.9228
2075.19	0.9167
2084.09	0.9145
2093	0.9133
2101.91	0.9139
2110.81	0.9148
2119.72	0.9158
2128.63	0.9146
2137.53	0.9119
2146.44	0.9089
2155.35	0.9099
2164.25	0.9065
2173.16	0.9046
2182.07	0.9077
2190.97	0.9113
2199.88	0.911
2208.78	0.8983
2217.69	0.8738
2226.6	0.8554
2235.5	0.8503
2244.41	0.8478
2253.32	0.8548
2262.22	0.8683
2271.13	0.879
2280.04	0.8837
2288.94	0.8771
2297.85	0.8595
2306.76	0.8532
2315.66	0.8526
2324.57	0.8518
2333.47	0.8506
2342.38	0.8482
2351.29	0.8446
2360.19	0.8333
2369.1	0.8278
2378.01	0.8266
2386.91	0.8277
2395.82	0.8358
2404.73	0.8389
2413.63	0.8395
2422.54	0.839
2431.45	0.8367
2440.35	0.8341
2449.26	0.8306
2458.16	0.8263
2467.07	0.8218
2475.98	0.8166
2484.88	0.8113
2493.79	0.8027
2502.7	0.7797
2511.6	0.7634
2520.51	0.7584
2529.42	0.7538
2538.32	0.7481
2547.23	0.7307
2556.14	0.7096
2565.04	0.697
2573.95	0.6902
2582.85	0.686
2591.76	0.6825
2600.67	0.6747
2609.57	0.6594
2618.48	0.6166
2627.39	0.5337
2636.29	0.4514
2645.2	0.4288
2654.11	0.4208
2663.01	0.41
2671.92	0.361
2680.82	0.3223
2689.73	0.3079
2698.64	0.2962
2707.54	0.2854
2716.45	0.2577
2725.36	0.2194
2734.26	0.1796
2743.17	0.1398
2752.08	0.0741
2760.98	0.0499
2769.89	0.0386
2778.8	0.029
2787.7	0.0256
2796.61	0.0233
2805.51	0.0221
2814.42	0.0212
2823.33	0.021
2832.23	0.0207
2841.14	0.0205
2850.05	0.0204
2858.95	0.0204
2867.86	0.0203
2876.77	0.02
2885.67	0.0196
2894.58	0.0192
2903.49	0.019
2912.39	0.0188
2921.3	0.0188
2930.2	0.0186
2939.11	0.0187
2948.02	0.0195
2956.92	0.0202
2965.83	0.031
2974.74	0.0627
2983.64	0.1441
2992.55	0.2251
3001.46	0.3277
3010.36	0.3836
3019.27	0.4342
3028.18	0.4564
3037.08	0.4737
3045.99	0.4946
3054.89	0.521
3063.8	0.548
3072.71	0.5794
3081.61	0.5893
3090.52	0.5951
3099.43	0.5971
3108.33	0.5964
3117.24	0.5973
3126.15	0.594
3135.05	0.5831
3143.96	0.5704
3152.87	0.5579
3161.77	0.5454
3170.68	0.5329
3179.58	0.5206
3188.49	0.511
3197.4	0.5055
3206.3	0.5
3215.21	0.494
3224.12	0.4862
3233.02	0.4713
3241.93	0.4484
3250.84	0.4288
3259.74	0.4118
3268.65	0.3958
3277.56	0.3737
3286.46	0.3446
3295.37	0.303
3304.27	0.2669
3313.18	0.2397
3322.09	0.2128
3330.99	0.186
3339.9	0.1653
3348.81	0.1635
3357.71	0.1683
3366.62	0.2049
3375.53	0.2464
3384.43	0.2877
3393.34	0.3287
3402.25	0.3696
3411.15	0.4103
3420.06	0.4507
3428.96	0.4909
3437.87	0.5309
3446.78	0.5707
3455.68	0.6095
3464.59	0.6288
3473.5	0.644
3482.4	0.6593
3491.31	0.6869
3500.22	0.7308
3509.12	0.7632
3518.03	0.7872
3526.94	0.8089
3535.84	0.8254
3544.75	0.8402
3553.65	0.8515
3562.56	0.86
3571.47	0.8656
3580.37	0.8695
3589.28	0.8717
3598.19	0.8727
3607.09	0.8738
3616	0.8749
3624.91	0.8757
3633.81	0.8764
3642.72	0.877
3651.63	0.8776
3660.53	0.8776
3669.44	0.8774
3678.34	0.877
3687.25	0.8761
3696.16	0.8752
3705.06	0.8742
3713.97	0.8725
3722.88	0.8699
3731.78	0.8672
3740.69	0.8636
3749.6	0.8602
3758.5	0.8568
3767.41	0.8534
3776.32	0.8499
3785.22	0.846
3794.13	0.8419
3803.03	0.8379
3811.94	0.8339
3820.85	0.8302
3829.75	0.8268
3838.66	0.8233
3847.57	0.8198
3856.47	0.8164
3865.38	0.8129
3874.29	0.8092
3883.19	0.8056
3892.1	0.802
3901.01	0.7985
3909.91	0.7949
3918.82	0.7915
3927.72	0.7888
3936.63	0.7862
3945.54	0.7837
3954.44	0.7812
3963.35	0
