Infrared Spectrum: 9H-PURINE, 2,6-DIAMINO-9-BENZYL-
Formula: C12 H12 N6
CAS: 7674-36-4
State: SOLID (0.6 mg / 650 mg KBr DISC)
Class: COBLENTZ III
Instrument: PERKIN-ELMER 21 (GRATING)
Instrument parameters: FILTER CHANGE AT ABOUT 1090 CM^-^1
Sampling: TRANSMISSION
Resolution: 2
Origin: SOUTHERN RESEARCH INSTITUTE
1/CM	TRANSMITTANCE
603.003	0.678
611.393	0.675
619.784	0.659
628.174	0.653
636.565	0.6391
644.955	0.6262
653.346	0.5983
661.736	0.5969
670.126	0.6186
678.517	0.627
686.907	0.6041
695.298	0.5537
703.688	0.5787
712.078	0.4643
720.469	0.4246
728.859	0.5374
737.25	0.635
745.64	0.621
754.031	0.6576
762.421	0.676
770.811	0.6757
779.202	0.696
787.592	0.6267
795.983	0.5361
804.373	0.7307
812.764	0.7468
821.154	0.74
829.544	0.7602
837.935	0.767
846.325	0.7634
854.716	0.7525
863.106	0.7791
871.496	0.781
879.887	0.7785
888.277	0.774
896.668	0.7635
905.058	0.759
913.449	0.7521
921.839	0.7466
930.229	0.7396
938.62	0.7226
947.01	0.7125
955.401	0.679
963.791	0.679
972.182	0.6627
980.572	0.6347
988.962	0.5986
997.353	0.6595
1005.74	0.7236
1014.13	0.7217
1022.52	0.7038
1030.91	0.6773
1039.3	0.682
1047.7	0.6596
1056.09	0.6149
1064.48	0.6272
1072.87	0.6432
1081.26	0.6213
1089.65	0.6453
1098.04	0.6601
1106.43	0.664
1114.82	0.664
1123.21	0.663
1131.6	0.6579
1139.99	0.6509
1148.38	0.6318
1156.77	0.6
1165.16	0.585
1173.55	0.6009
1181.94	0.614
1190.33	0.613
1198.72	0.6002
1207.11	0.5748
1215.5	0.5797
1223.89	0.5478
1232.28	0.6392
1240.68	0.636
1249.07	0.6282
1257.46	0.6003
1265.85	0.5737
1274.24	0.5253
1282.63	0.502
1291.02	0.5589
1299.41	0.6165
1307.8	0.6083
1316.19	0.5966
1324.58	0.5786
1332.97	0.5102
1341.36	0.4719
1349.75	0.4707
1358.14	0.5079
1366.53	0.534
1374.92	0.535
1383.31	0.512
1391.7	0.4575
1400.09	0.3927
1408.48	0.2566
1416.87	0.2246
1425.26	0.4387
1433.65	0.5473
1442.05	0.4645
1450.44	0.4652
1458.83	0.4215
1467.22	0.4755
1475.61	0.4241
1484	0.382
1492.39	0.4415
1500.78	0.587
1509.17	0.6348
1517.56	0.5219
1525.95	0.5602
1534.34	0.6417
1542.73	0.6051
1551.12	0.5613
1559.51	0.4888
1567.9	0.4209
1576.29	0.2959
1584.68	0.1701
1593.07	0.122
1601.46	0.1632
1609.85	0.2103
1618.24	0.2893
1626.63	0.3028
1635.02	0.2848
1643.42	0.3201
1651.81	0.347
1660.2	0.3511
1668.59	0.3718
1676.98	0.4445
1685.37	0.586
1693.76	0.703
1702.15	0.7452
1710.54	0.7801
1718.93	0.811
1727.32	0.8339
1735.71	0.85
1744.1	0.858
1752.49	0.867
1760.88	0.873
1769.27	0.8818
1777.66	0.884
1786.05	0.882
1794.44	0.875
1802.83	0.873
1811.22	0.871
1819.61	0.8728
1828	0.876
1836.39	0.872
1844.79	0.8698
1853.18	0.871
1861.57	0.869
1869.96	0.8633
1878.35	0.8603
1886.74	0.859
1895.13	0.857
1903.52	0.855
1911.91	0.8543
1920.3	0.853
1928.69	0.85
1937.08	0.8454
1945.47	0.8404
1953.86	0.84
1962.25	0.8349
1970.64	0.8326
1979.03	0.8371
1987.42	0.838
1995.81	0.836
2004.2	0.8325
2012.59	0.829
2020.98	0.828
2029.37	0.827
2037.77	0.827
2046.16	0.826
2054.55	0.819
2062.94	0.819
2071.33	0.819
2079.72	0.819
2088.11	0.8165
2096.5	0.8145
2104.89	0.812
2113.28	0.809
2121.67	0.808
2130.06	0.8025
2138.45	0.798
2146.84	0.797
2155.23	0.795
2163.62	0.792
2172.01	0.791
2180.4	0.792
2188.79	0.791
2197.18	0.79
2205.57	0.789
2213.96	0.786
2222.35	0.783
2230.74	0.782
2239.14	0.7795
2247.53	0.779
2255.92	0.777
2264.31	0.776
2272.7	0.776
2281.09	0.776
2289.48	0.775
2297.87	0.773
2306.26	0.775
2314.65	0.7775
2323.04	0.779
2331.43	0.7775
2339.82	0.776
2348.21	0.772
2356.6	0.767
2364.99	0.767
2373.38	0.7695
2381.77	0.771
2390.16	0.7705
2398.55	0.762
2406.94	0.758
2415.33	0.757
2423.72	0.755
2432.11	0.755
2440.51	0.755
2448.9	0.753
2457.29	0.7515
2465.68	0.7475
2474.07	0.746
2482.46	0.746
2490.85	0.746
2499.24	0.746
2507.63	0.74
2516.02	0.74
2524.41	0.74
2532.8	0.739
2541.19	0.738
2549.58	0.736
2557.97	0.736
2566.36	0.7345
2574.75	0.729
2583.14	0.727
2591.53	0.722
2599.92	0.7135
2608.31	0.7105
2616.7	0.715
2625.09	0.716
2633.49	0.715
2641.88	0.713
2650.27	0.7105
2658.66	0.706
2667.05	0.7035
2675.44	0.699
2683.83	0.694
2692.22	0.69
2700.61	0.688
2709	0.687
2717.39	0.684
2725.78	0.6775
2734.17	0.6715
2742.56	0.6645
2750.95	0.6645
2759.34	0.6715
2767.73	0.671
2776.12	0.6595
2784.51	0.6545
2792.9	0.652
2801.29	0.656
2809.68	0.66
2818.07	0.663
2826.46	0.664
2834.86	0.6595
2843.25	0.6455
2851.64	0.642
2860.03	0.64
2868.42	0.635
2876.81	0.633
2885.2	0.629
2893.59	0.626
2901.98	0.6175
2910.37	0.6005
2918.76	0.5905
2927.15	0.588
2935.54	0.588
2943.93	0.588
2952.32	0.586
2960.71	0.585
2969.1	0.579
2977.49	0.571
2985.88	0.5585
2994.27	0.548
3002.66	0.5395
3011.05	0.5325
3019.44	0.513
3027.83	0.504
3036.23	0.502
3044.62	0.4965
3053.01	0.489
3061.4	0.4825
3069.79	0.465
3078.18	0.4555
3086.57	0.4375
3094.96	0.421
3103.35	0.4105
3111.74	0.404
3120.13	0.392
3128.52	0.3825
3136.91	0.3735
3145.3	0.371
3153.69	0.3785
3162.08	0.3835
3170.47	0.3915
3178.86	0.4055
3187.25	0.42
3195.64	0.4345
3204.03	0.466
3212.42	0.4765
3220.81	0.479
3229.21	0.479
3237.6	0.4765
3245.99	0.471
3254.38	0.4595
3262.77	0.4505
3271.16	0.433
3279.55	0.4235
3287.94	0.4105
3296.33	0.397
3304.72	0.3815
3313.11	0.371
3321.5	0.3725
3329.89	0.3785
3338.28	0.3915
3346.67	0.404
3355.06	0.4205
3363.45	0.434
3371.84	0.4475
3380.23	0.4605
3388.62	0.477
3397.01	0.493
3405.4	0.515
3413.79	0.5365
3422.18	0.5535
3430.58	0.5585
3438.97	0.562
3447.36	0.568
3455.75	0.575
3464.14	0.573
3472.53	0.575
3480.92	0.5715
3489.31	0.5875
3497.7	0.612
3506.09	0.6435
3514.48	0.658
3522.87	0.6695
3531.26	0.675
3539.65	0.668
3548.04	0.676
3556.43	0.6775
3564.82	0.6845
3573.21	0.692
3581.6	0.692
3589.99	0.7025
3598.38	0.708
3606.77	0.708
3615.16	0.708
3623.55	0.709
3631.95	0.7155
3640.34	0.73
3648.73	0.733
3657.12	0.732
3665.51	0.7285
3673.9	0.727
3682.29	0.726
3690.68	0.727
3699.07	0.733
3707.46	0.734
3715.85	0.733
3724.24	0.729
3732.63	0.729
3741.02	0.7285
3749.41	0.729
3757.8	0.73
3766.19	0.7325
3774.58	0.7345
3782.97	0.7345
3791.36	0.7295
3799.75	0.7235
3808.14	0.717
