Infrared Spectrum: Ethyl 3-(trifluoromethyl)benzoate
Formula: C 10 H 9 F 3 O 2
CAS: 76783-59-0
State: gas
Origin: EPA-IR VAPOR PHASE LIBRARY
1/CM	ABSORBANCE
549.8	0.0018063
559.445	0.0014626
569.09	0.002392
578.734	0.0016662
588.379	0.0014242
598.024	0.002212
607.669	0.003862
617.313	0.004182
626.958	0.002522
636.603	0.004042
646.248	0.018382
655.893	0.017482
665.537	0.006232
675.182	0.011132
684.827	0.051602
694.472	0.120782
704.116	0.049072
713.761	0.011922
723.406	0.006782
733.051	0.007152
742.695	0.017612
752.34	0.054122
761.985	0.064462
771.63	0.029952
781.275	0.014632
790.919	0.010832
800.564	0.011552
810.209	0.017742
819.854	0.017972
829.498	0.008272
839.143	0.006052
848.788	0.008002
858.433	0.010762
868.078	0.011212
877.722	0.014842
887.367	0.033852
897.012	0.026972
906.657	0.012932
916.301	0.020372
925.946	0.021352
935.591	0.012892
945.236	0.006902
954.88	0.006942
964.525	0.007292
974.17	0.008082
983.815	0.010972
993.46	0.017082
1003.1	0.030222
1012.75	0.053832
1022.39	0.063632
1032.04	0.038912
1041.68	0.022092
1051.33	0.021712
1060.97	0.046032
1070.62	0.122762
1080.26	0.190612
1089.91	0.156662
1099.55	0.109542
1109.2	0.150532
1118.84	0.161792
1128.49	0.147722
1138.13	0.262002
1147.78	0.448932
1157.42	0.315872
1167.07	0.248922
1176.71	0.317412
1186.36	0.216822
1196	0.099402
1205.64	0.066522
1215.29	0.074982
1224.93	0.122352
1234.58	0.288702
1244.22	0.760912
1253.87	0.917172
1263.51	0.335712
1273.16	0.116322
1282.8	0.085932
1292.45	0.104512
1302.09	0.100792
1311.74	0.093522
1321.38	0.162342
1331.03	0.377862
1340.67	0.276162
1350.32	0.069162
1359.96	0.040672
1369.61	0.056032
1379.25	0.040282
1388.9	0.025532
1398.54	0.022582
1408.18	0.019962
1417.83	0.018422
1427.47	0.020902
1437.12	0.032382
1446.76	0.031002
1456.41	0.021422
1466.05	0.020952
1475.7	0.021242
1485.34	0.016762
1494.99	0.011472
1504.63	0.008742
1514.28	0.008112
1523.92	0.007032
1533.57	0.005802
1543.21	0.005682
1552.86	0.006112
1562.5	0.006382
1572.15	0.007462
1581.79	0.008122
1591.44	0.010352
1601.08	0.012182
1610.73	0.018922
1620.37	0.020262
1630.01	0.011622
1639.66	0.008532
1649.3	0.007702
1658.95	0.007542
1668.59	0.008472
1678.24	0.009862
1687.88	0.013612
1697.53	0.019912
1707.17	0.024962
1716.82	0.031332
1726.46	0.067102
1736.11	0.235832
1745.75	0.371332
1755.4	0.134632
1765.04	0.038732
1774.69	0.027382
1784.33	0.022632
1793.98	0.015062
1803.62	0.009682
1813.27	0.007382
1822.91	0.006602
1832.55	0.006972
1842.2	0.006372
1851.84	0.005352
1861.49	0.005252
1871.13	0.004812
1880.78	0.004002
1890.42	0.003642
1900.07	0.004822
1909.71	0.006842
1919.36	0.006412
1929	0.004432
1938.65	0.003822
1948.29	0.004302
1957.94	0.005152
1967.58	0.005412
1977.23	0.004312
1986.87	0.003502
1996.52	0.002712
2006.16	0.002382
2015.81	0.002532
2025.45	0.002312
2035.1	0.002142
2044.74	0.001942
2054.38	0.002042
2064.03	0.002372
2073.67	0.002172
2083.32	0.002482
2092.96	0.002592
2102.61	0.003482
2112.25	0.003332
2121.9	0.002772
2131.54	0.002712
2141.19	0.002202
2150.83	0.0019215
2160.48	0.0018204
2170.12	0.0018755
2179.77	0.0016205
2189.41	0.001972
2199.06	0.002172
2208.7	0.002212
2218.35	0.002492
2227.99	0.003022
2237.64	0.002572
2247.28	0.002822
2256.92	0.003112
2266.57	0.003022
2276.21	0.002612
2285.86	0.002932
2295.5	0.002552
2305.15	0.002102
2314.79	0.002452
2324.44	0.002632
2334.08	0.002842
2343.73	0.002922
2353.37	0.003122
2363.02	0.002892
2372.66	0.002482
2382.31	0.002482
2391.95	0.002242
2401.6	0.002382
2411.24	0.002252
2420.89	0.002252
2430.53	0.0018986
2440.18	0.0017363
2449.82	0.0014817
2459.47	0.0017446
2469.11	0.0018511
2478.75	0.0018295
2488.4	0.002012
2498.04	0.001864
2507.69	0.002042
2517.33	0.0017932
2526.98	0.0012951
2536.62	0.0013036
2546.27	0.0012989
2555.91	0.0013286
2565.56	0.0017047
2575.2	0.0017764
2584.85	0.0019104
2594.49	0.0018331
2604.14	0.001972
2613.78	0.001982
2623.43	0.0015004
2633.07	0.0014339
2642.72	0.0010693
2652.36	0.0018969
2662.01	0.0012829
2671.65	0.0011639
2681.29	0.000781
2690.94	0.0008914
2700.58	0.0010381
2710.23	0.0010698
2719.87	0.001352
2729.52	0.001952
2739.16	0.0018499
2748.81	0.0014159
2758.45	0.0018867
2768.1	0.0018037
2777.74	0.002322
2787.39	0.0018281
2797.03	0.002132
2806.68	0.002242
2816.32	0.002932
2825.97	0.002962
2835.61	0.003152
2845.26	0.003682
2854.9	0.004322
2864.55	0.004982
2874.19	0.006682
2883.84	0.010282
2893.48	0.011162
2903.12	0.012162
2912.77	0.014892
2922.41	0.015312
2932.06	0.017802
2941.7	0.027562
2951.35	0.027642
2960.99	0.024412
2970.64	0.033092
2980.28	0.050102
2989.93	0.058842
2999.57	0.037602
3009.22	0.024192
3018.86	0.015332
3028.51	0.009552
3038.15	0.006502
3047.8	0.006562
3057.44	0.007172
3067.09	0.008132
3076.73	0.014182
3086.38	0.016132
3096.02	0.008732
3105.67	0.004792
3115.31	0.003302
3124.95	0.002872
3134.6	0.001962
3144.24	0.0018319
3153.89	0.0014998
3163.53	0.0016783
3173.18	0.0016646
3182.82	0.0015796
3192.47	0.0017776
3202.11	0.0014718
3211.76	0.0017103
3221.4	0.0015207
3231.05	0.0014174
3240.69	0.000785
3250.34	0.000721
3259.98	0.000452
3269.63	0.000297
3279.27	0.000772
3288.92	0.0012492
3298.56	0.0012403
3308.21	0.000453
3317.85	0.0011459
3327.49	0.000825
3337.14	0.00103102
3346.78	0.000781
3356.43	0.000779
3366.07	0.0011278
3375.72	0.000939448
3385.36	0.000819
3395.01	0.001055
3404.65	0.000692
3414.3	0.000574
3423.94	0.0011649
3433.59	0.0010959
3443.23	0.0014723
3452.88	0.002362
3462.52	0.003852
3472.17	0.004422
3481.81	0.002592
3491.46	0.002102
3501.1	0.0013772
3510.75	0.0010985
3520.39	0.00098855
3530.04	0.0013341
3539.68	0.000646
3549.32	0.0009116
3558.97	0.000797
3568.61	0.000608
3578.26	0.000521
3587.9	0.000436
3597.55	0.000673
3607.19	0.0009127
3616.84	0.000673
3626.48	0.000787
3636.13	0.0010736
3645.77	0.0012396
3655.42	0.0009126
3665.06	0.000453
3674.71	0.00056
3684.35	0.00094396
3694	0.00101091
3703.64	0.0011695
3713.29	0.000602
3722.93	0.0011513
3732.58	0.00100559
3742.22	0.00094588
3751.86	0.0011
3761.51	0.0010654
3771.15	0.0011424
3780.8	0.000708
3790.44	0.001108
3800.09	0.000698
3809.73	0.0010875
3819.38	0.000239
3829.02	0.0010486
3838.67	0.000822
3848.31	0.00094887
3857.96	0.0014634
3867.6	0.0008618
3877.25	0.000631
3886.89	0.000408
3896.54	0.0009012
3906.18	0.0008516
3915.83	0.00097158
3925.47	0.000732
3935.12	0.000525
3944.76	0.000348
3954.41	0.0012064
3964.05	0.00083
3973.69	0.000139
3983.34	0.00102775
3992.98	0.00095012
