Infrared Spectrum: Silane, chloro-dimethyl-phenyl-,
Formula: C8 H11 Cl Si
CAS: 768-33-2
State: SOLUTION (10% CCl4 FOR 3800-1300, 2% CS2 FOR 1300-650, AND 10% CCl4 FOR 650-250)
Boiling point: 193 C
Class: COBLENTZ III
Instrument: PERKIN-ELMER 521 (GRATING)
Instrument parameters: FILTERS AT 3150, 2500, 2000, 1150, 700, 410. GRATING CHANGES: 2000, 630
Sampling: TRANSMISSION
Path length: 0.011 CM, 0.011 CM, AND 0.010 CM
Resolution: 2
Origin: DOW CORNING CORP.
1/CM	TRANSMITTANCE
251	0.8515
260	0.8641
269	0.8526
278	0.8348
287	0.8126
296	0.7961
305	0.8432
314	0.8785
323	0.8818
332	0.8816
341	0.8804
350	0.8764
359	0.8433
368	0.6401
377	0.3673
386	0.8164
395	0.8424
404	0.8686
413	0.8972
422	0.909
431	0.9089
440	0.9021
449	0.8793
458	0.7001
467	0.4991
476	0.6236
485	0.33
494	0.0295
503	0.2002
512	0.5694
521	0.7895
530	0.8361
539	0.8556
548	0.8684
557	0.875
566	0.881
575	0.8863
584	0.8885
593	0.8899
602	0.8897
611	0.8822
620	0.8902
629	0.8608
638	0.8307
647	0.7889
656	0.7049
665	0.7293
674	0.7688
683	0.7877
692	0.5555
701	0.6261
710	0.7001
719	0.713
728	0.507
737	0.6426
746	0.7099
755	0.7785
764	0.7846
773	0.7634
782	0.5684
791	0.3055
800	0.608
809	0.2734
818	0.5723
827	0.6012
836	0.3603
845	0.586
854	0.7342
863	0.765
872	0.7924
881	0.8014
890	0.8068
899	0.8172
908	0.8243
917	0.8247
926	0.8257
935	0.8293
944	0.8331
953	0.8312
962	0.8255
971	0.8192
980	0.811
989	0.7985
998	0.7781
1007	0.8082
1016	0.8011
1025	0.7876
1034	0.779
1043	0.7629
1052	0.7436
1061	0.7581
1070	0.7612
1079	0.7672
1088	0.7649
1097	0.7503
1106	0.7191
1115	0.3228
1124	0.7569
1133	0.7908
1142	0.7849
1151	0.7706
1160	0.7911
1169	0.8095
1178	0.8051
1187	0.8041
1196	0.8144
1205	0.8193
1214	0.8201
1223	0.8198
1232	0.8008
1241	0.7404
1250	0.4006
1259	0.7024
1268	0.7982
1277	0.8159
1286	0.8132
1295	0.7795
1304	0.759
1313	0.7976
1322	0.8235
1331	0.7547
1340	0.8523
1349	0.8478
1358	0.8365
1367	0.8031
1376	0.8082
1385	0.785
1394	0.695
1403	0.6241
1412	0.6758
1421	0.5757
1430	0.3408
1439	0.7742
1448	0.8091
1457	0.8241
1466	0.8361
1475	0.8205
1484	0.6974
1493	0.8539
1502	0.8656
1511	0.8661
1520	0.8635
1529	0.8606
1538	0.8579
1547	0.8554
1556	0.8535
1565	0.8478
1574	0.8307
1583	0.8013
1592	0.748
1601	0.8511
1610	0.8471
1619	0.8541
1628	0.8568
1637	0.851
1646	0.8348
1655	0.8541
1664	0.8583
1673	0.8603
1682	0.8607
1691	0.8626
1700	0.8598
1709	0.8654
1718	0.865
1727	0.8655
1736	0.8653
1745	0.8607
1754	0.8482
1763	0.8474
1772	0.8595
1781	0.8701
1790	0.874
1799	0.8682
1808	0.833
1817	0.8162
1826	0.8519
1835	0.8661
1844	0.8698
1853	0.8698
1862	0.865
1871	0.8564
1880	0.8028
1889	0.8541
1898	0.8334
1907	0.8486
1916	0.8557
1925	0.8675
1934	0.8631
1943	0.8433
1952	0.7934
1961	0.8428
1970	0.8488
1979	0.8705
1988	0.8737
1997	0.8797
2006	0.8775
2015	0.8775
2024	0.8761
2033	0.8713
2042	0.8657
2051	0.8671
2060	0.8701
2069	0.8732
2078	0.8738
2087	0.8729
2096	0.8729
2105	0.8712
2114	0.869
2123	0.8679
2132	0.8674
2141	0.8683
2150	0.8695
2159	0.8707
2168	0.8716
2177	0.8721
2186	0.8723
2195	0.8713
2204	0.8704
2213	0.8684
2222	0.8657
2231	0.8639
2240	0.8655
2249	0.8669
2258	0.8682
2267	0.8691
2276	0.8699
2285	0.8713
2294	0.8706
2303	0.8697
2312	0.869
2321	0.868
2330	0.8668
2339	0.8666
2348	0.8687
2357	0.8707
2366	0.8727
2375	0.8746
2384	0.8748
2393	0.874
2402	0.8732
2411	0.8723
2420	0.8713
2429	0.8703
2438	0.8694
2447	0.8686
2456	0.8682
2465	0.8681
2474	0.8676
2483	0.8636
2492	0.8597
2501	0.8613
2510	0.8652
2519	0.8657
2528	0.8655
2537	0.8649
2546	0.8638
2555	0.8629
2564	0.8624
2573	0.8625
2582	0.8632
2591	0.8636
2600	0.8635
2609	0.863
2618	0.8607
2627	0.8659
2636	0.8653
2645	0.8624
2654	0.8595
2663	0.8601
2672	0.8617
2681	0.8635
2690	0.862
2699	0.8561
2708	0.8556
2717	0.8601
2726	0.8628
2735	0.8619
2744	0.8602
2753	0.8578
2762	0.8539
2771	0.8494
2780	0.8436
2789	0.841
2798	0.8489
2807	0.8503
2816	0.8488
2825	0.8473
2834	0.8458
2843	0.8443
2852	0.8421
2861	0.8397
2870	0.8356
2879	0.8271
2888	0.8085
2897	0.7868
2906	0.7739
2915	0.7831
2924	0.7981
2933	0.8018
2942	0.7727
2951	0.6777
2960	0.5541
2969	0.5049
2978	0.5644
2987	0.6971
2996	0.7521
3005	0.6317
3014	0.6599
3023	0.6551
3032	0.6318
3041	0.7142
3050	0.631
3059	0.537
3068	0.6147
3077	0.4685
3086	0.7421
3095	0.7306
3104	0.7691
3113	0.8429
3122	0.8474
3131	0.8427
3140	0.8314
3149	0.8512
3158	0.8619
3167	0.8645
3176	0.8664
3185	0.8688
3194	0.8712
3203	0.8734
3212	0.8754
3221	0.877
3230	0.8783
3239	0.8794
3248	0.8805
3257	0.8812
3266	0.8825
3275	0.8833
3284	0.8838
3293	0.8842
3302	0.8844
3311	0.8846
3320	0.884
3329	0.8833
3338	0.8827
3347	0.8825
3356	0.8825
3365	0.8826
3374	0.8825
3383	0.8823
3392	0.8822
3401	0.8821
3410	0.882
3419	0.8815
3428	0.8809
3437	0.879
3446	0.8785
3455	0.8789
3464	0.8798
3473	0.8817
3482	0.8825
3491	0.8827
3500	0.8824
3509	0.8821
3518	0.8825
3527	0.8829
3536	0.883
3545	0.8832
3554	0.8841
3563	0.8852
3572	0.8872
3581	0.8908
3590	0.8894
3599	0.8811
3608	0.8767
3617	0.8743
3626	0.8726
3635	0.8704
3644	0.8697
3653	0.8733
3662	0.8711
3671	0.8722
3680	0.8779
3689	0.8684
3698	0.8652
3707	0.8671
3716	0.8681
3725	0.8772
3734	0.88
3743	0.8812
3752	0.8804
3761	0.8772
3770	0.8764
3779	0.8781
3788	0.8799
3797	0.882
3806	0.8855
