Infrared Spectrum: 1-Adamantanamine
Formula: C10 H17 N
CAS: 768-94-5
State: SOLID (SPLIT MULL), FLUOROLUBE FOR 3800-1330 CM^-^1, NUJOL FOR 1330-450 CM^-^1
Class: COBLENTZ III
Instrument: DOW KBr FOREPRISM-GRATING
Instrument parameters: BLAZED AT 3.5, 12.0, 20.0 MICRON AND CHANGED AT 5.0, 7.5, 14.9 MICRON
Sampling: TRANSMISSION
Resolution: 2
Origin: DOW CHEMICAL COMPANY
1/CM	TRANSMITTANCE
3798	0.8605
3789	0.8621
3780	0.8641
3771	0.865
3762	0.8653
3753	0.8654
3744	0.8655
3735	0.8648
3726	0.8637
3717	0.862
3708	0.8605
3699	0.8596
3690	0.8589
3681	0.8582
3672	0.8582
3663	0.8468
3654	0.8403
3645	0.8483
3636	0.852
3627	0.8523
3618	0.8512
3609	0.8503
3600	0.8494
3591	0.8474
3582	0.8413
3573	0.838
3564	0.8348
3555	0.8295
3546	0.8233
3537	0.8195
3528	0.819
3519	0.8172
3510	0.8143
3501	0.8101
3492	0.8061
3483	0.8019
3474	0.798
3465	0.7939
3456	0.7899
3447	0.788
3438	0.7867
3429	0.7853
3420	0.7834
3411	0.7812
3402	0.779
3393	0.7764
3384	0.7736
3375	0.7705
3366	0.7665
3357	0.7587
3348	0.7442
3339	0.7139
3330	0.7094
3321	0.7125
3312	0.7206
3303	0.7261
3294	0.7241
3285	0.7119
3276	0.7011
3267	0.7075
3258	0.7175
3249	0.7261
3240	0.7357
3231	0.7421
3222	0.7472
3213	0.7511
3204	0.7546
3195	0.7567
3186	0.7578
3177	0.7582
3168	0.7582
3159	0.7619
3150	0.7668
3141	0.7722
3132	0.7778
3123	0.7831
3114	0.7861
3105	0.7889
3096	0.7908
3087	0.7918
3078	0.7903
3069	0.7896
3060	0.7961
3051	0.8021
3042	0.8061
3033	0.8093
3024	0.8115
3015	0.8115
3006	0.8088
2997	0.8069
2988	0.7968
2979	0.7784
2970	0.7515
2961	0.6982
2952	0.6551
2943	0.5231
2934	0.2865
2925	0.1672
2916	0.073
2907	0.0486
2898	0.0662
2889	0.2507
2880	0.4112
2871	0.4915
2862	0.4785
2853	0.2802
2844	0.3161
2835	0.6008
2826	0.6791
2817	0.7224
2808	0.7505
2799	0.7733
2790	0.7939
2781	0.8032
2772	0.8075
2763	0.8112
2754	0.814
2745	0.8162
2736	0.8194
2727	0.8218
2718	0.8239
2709	0.8262
2700	0.829
2691	0.8247
2682	0.8174
2673	0.8085
2664	0.796
2655	0.7941
2646	0.8149
2637	0.819
2628	0.8192
2619	0.8296
2610	0.837
2601	0.8395
2592	0.8427
2583	0.845
2574	0.8434
2565	0.8425
2556	0.8437
2547	0.8455
2538	0.8477
2529	0.8499
2520	0.8518
2511	0.8521
2502	0.8523
2493	0.8523
2484	0.8523
2475	0.8523
2466	0.8524
2457	0.8525
2448	0.8525
2439	0.8524
2430	0.8521
2421	0.8518
2412	0.8523
2403	0.8541
2394	0.8562
2385	0.8566
2376	0.857
2367	0.8571
2358	0.8568
2349	0.855
2340	0.854
2331	0.8528
2322	0.852
2313	0.8517
2304	0.8515
2295	0.8513
2286	0.8514
2277	0.8514
2268	0.8512
2259	0.8511
2250	0.851
2241	0.8521
2232	0.8535
2223	0.8554
2214	0.8568
2205	0.8578
2196	0.8586
2187	0.8592
2178	0.8601
2169	0.861
2160	0.8611
2151	0.8614
2142	0.8601
2133	0.8568
2124	0.8617
2115	0.864
2106	0.8641
2097	0.8644
2088	0.865
2079	0.8656
2070	0.8663
2061	0.8668
2052	0.8675
2043	0.8681
2034	0.8685
2025	0.8686
2016	0.8687
2007	0.8685
1998	0.8553
1989	0.8568
1980	0.8555
1971	0.8567
1962	0.8575
1953	0.8575
1944	0.8568
1935	0.856
1926	0.855
1917	0.8537
1908	0.855
1899	0.8582
1890	0.8555
1881	0.8564
1872	0.8556
1863	0.8545
1854	0.8539
1845	0.8538
1836	0.8539
1827	0.8543
1818	0.8547
1809	0.8546
1800	0.8549
1791	0.8553
1782	0.8558
1773	0.8552
1764	0.8539
1755	0.8518
1746	0.8496
1737	0.8478
1728	0.8474
1719	0.8486
1710	0.8478
1701	0.8403
1692	0.8325
1683	0.8122
1674	0.7704
1665	0.7508
1656	0.7476
1647	0.7208
1638	0.7478
1629	0.7643
1620	0.7737
1611	0.7575
1602	0.7332
1593	0.7191
1584	0.7291
1575	0.7535
1566	0.7532
1557	0.7522
1548	0.7639
1539	0.7799
1530	0.8068
1521	0.8121
1512	0.8167
1503	0.8214
1494	0.8247
1485	0.8259
1476	0.8165
1467	0.8061
1458	0.638
1449	0.7187
1440	0.7437
1431	0.7849
1422	0.798
1413	0.8038
1404	0.8085
1395	0.8064
1386	0.788
1377	0.7599
1368	0.6945
1359	0.6708
1350	0.6969
1341	0.7543
1332	0.7651
1323	0.7474
1314	0.5978
1305	0.7118
1296	0.7515
1287	0.753
1278	0.7806
1269	0.7792
1260	0.7718
1251	0.8031
1242	0.8338
1233	0.8512
1224	0.8542
1215	0.8499
1206	0.8425
1197	0.8327
1188	0.7788
1179	0.8283
1170	0.8345
1161	0.8261
1152	0.7258
1143	0.6607
1134	0.798
1125	0.8081
1116	0.8061
1107	0.6506
1098	0.4868
1089	0.7721
1080	0.8086
1071	0.8151
1062	0.8156
1053	0.7924
1044	0.7418
1035	0.7896
1026	0.8225
1017	0.8121
1008	0.7865
999	0.7575
990	0.7786
981	0.7918
972	0.7588
963	0.7314
954	0.6943
945	0.6976
936	0.6997
927	0.7211
918	0.6882
909	0.6678
900	0.6581
891	0.6669
882	0.6831
873	0.6991
864	0.7058
855	0.7035
846	0.6918
837	0.6514
828	0.5562
819	0.7076
810	0.6817
801	0.5905
792	0.6831
783	0.7555
774	0.7807
765	0.8058
756	0.8072
747	0.8018
738	0.7871
729	0.7567
720	0.7346
711	0.8124
702	0.8282
693	0.8325
684	0.8335
675	0.8338
666	0.8212
657	0.8214
648	0.8106
639	0.8088
630	0.813
621	0.8101
612	0.7998
603	0.7911
594	0.789
585	0.7905
576	0.7868
567	0.7832
558	0.7664
549	0.759
540	0.7771
531	0.7776
522	0.7767
513	0.7755
504	0.7743
495	0.7715
486	0.7647
477	0.7551
468	0.7358
