Infrared Spectrum: 1,3,4-OXADIAZOLE, 2-AMINO-5-(TRIFLUOROMETHYL)-
Formula: C3 H2 F3 N3 O
CAS: 768-29-6
State: SOLID (KBr PELLET)
Melting point: 155-156 C
Class: COBLENTZ
Instrument: Not specified, most likely a prism, grating, or hybrid spectrometer.
Sampling: TRANSMISSION
Resolution: 4
Origin: TENNESSEE EASTMAN COMPANY, RESEARCH LABORATORIES
MICROMETERS	TRANSMITTANCE
2.205	0.893
2.24597	0.893
2.28693	0.893
2.3279	0.892
2.36887	0.892
2.40984	0.892
2.4508	0.893
2.49177	0.893
2.53274	0.897
2.57371	0.897
2.61467	0.897
2.65564	0.9
2.69661	0.9
2.73758	0.893
2.77854	0.847
2.81951	0.801
2.86048	0.755
2.90144	0.672
2.94241	0.541
2.98338	0.243
3.02435	0.113
3.06531	0.171
3.10628	0.244
3.14725	0.232
3.18822	0.128
3.22918	0.116
3.27015	0.316
3.31112	0.546
3.35208	0.703
3.39305	0.756
3.43402	0.818
3.47499	0.844
3.51595	0.856
3.55692	0.852
3.59789	0.832
3.63886	0.863
3.67982	0.869
3.72079	0.88
3.76176	0.897
3.80273	0.893
3.84369	0.905
3.88466	0.922
3.92563	0.928
3.96659	0.929
4.00756	0.934
4.04853	0.938
4.0895	0.938
4.13046	0.936
4.17143	0.931
4.2124	0.924
4.25337	0.924
4.29433	0.926
4.3353	0.928
4.37627	0.929
4.41723	0.931
4.4582	0.929
4.49917	0.929
4.54014	0.929
4.5811	0.929
4.62207	0.933
4.66304	0.938
4.70401	0.938
4.74497	0.941
4.78594	0.945
4.82691	0.946
4.86788	0.95
4.90884	0.948
4.94981	0.948
4.99078	0.946
5.03174	0.941
5.07271	0.943
5.11368	0.946
5.15465	0.95
5.19561	0.948
5.23658	0.943
5.27755	0.95
5.31852	0.952
5.35948	0.952
5.40045	0.953
5.44142	0.952
5.48238	0.945
5.52335	0.941
5.56432	0.941
5.60529	0.929
5.64625	0.919
5.68722	0.91
5.72819	0.9
5.76916	0.868
5.81012	0.837
5.85109	0.791
5.89206	0.75
5.93303	0.573
5.97399	0.176
6.01496	0.032
6.05593	0.025
6.09689	0.116
6.13786	0.301
6.17883	0.154
6.2198	0.099
6.26076	0.327
6.30173	0.407
6.3427	0.715
6.38367	0.743
6.42463	0.823
6.4656	0.847
6.50657	0.869
6.54753	0.869
6.5885	0.871
6.62947	0.878
6.67044	0.878
6.7114	0.873
6.75237	0.844
6.79334	0.806
6.83431	0.756
6.87527	0.688
6.91624	0.208
6.95721	0.207
6.99818	0.679
7.03914	0.727
7.08011	0.782
7.12108	0.809
7.16204	0.813
7.20301	0.815
7.24398	0.801
7.28495	0.797
7.32591	0.789
7.36688	0.779
7.40785	0.732
7.44882	0.655
7.48978	0.402
7.53075	0.243
7.57172	0.535
7.61268	0.702
7.65365	0.741
7.69462	0.756
7.73559	0.763
7.77655	0.772
7.81752	0.772
7.85849	0.76
7.89946	0.744
7.94042	0.739
7.98139	0.72
8.02236	0.693
8.06333	0.648
8.10429	0.551
8.14526	0.34
8.18623	0.22
8.22719	0.058
8.26816	0.027
8.30913	0.023
8.3501	0.066
8.39106	0.111
8.43203	0.066
8.473	0.025
8.51397	0.023
8.55493	0.029
8.5959	0.054
8.63687	0.154
8.67784	0.205
8.7188	0.097
8.75977	0.035
8.80074	0.025
8.8417	0.049
8.88267	0.14
8.92364	0.28
8.96461	0.414
9.00557	0.465
9.04654	0.505
9.08751	0.561
9.12848	0.623
9.16944	0.643
9.21041	0.657
9.25138	0.674
9.29234	0.683
9.33331	0.688
9.37428	0.683
9.41525	0.65
9.45621	0.582
9.49718	0.446
9.53815	0.333
9.57912	0.202
9.62008	0.14
9.66105	0.258
9.70202	0.479
9.74299	0.589
9.78395	0.657
9.82492	0.736
9.86589	0.772
9.90685	0.801
9.94782	0.809
9.98879	0.813
10.0298	0.77
10.0707	0.51
10.1117	0.698
10.1527	0.828
10.1936	0.859
10.2346	0.869
10.2756	0.871
10.3165	0.869
10.3575	0.837
10.3985	0.724
10.4394	0.72
10.4804	0.821
10.5214	0.859
10.5623	0.88
10.6033	0.885
10.6443	0.895
10.6852	0.907
10.7262	0.919
10.7672	0.922
10.8081	0.926
10.8491	0.924
10.8901	0.916
10.931	0.914
10.972	0.917
11.013	0.921
11.0539	0.928
11.0949	0.929
11.1359	0.928
11.1768	0.919
11.2178	0.916
11.2588	0.912
11.2997	0.914
11.3407	0.919
11.3817	0.922
11.4226	0.922
11.4636	0.924
11.5046	0.924
11.5455	0.921
11.5865	0.921
11.6275	0.921
11.6684	0.922
11.7094	0.922
11.7504	0.922
11.7914	0.922
11.8323	0.922
11.8733	0.922
11.9143	0.921
11.9552	0.919
11.9962	0.919
12.0372	0.919
12.0781	0.921
12.1191	0.921
12.1601	0.924
12.201	0.926
12.242	0.926
12.283	0.922
12.3239	0.928
12.3649	0.926
12.4059	0.924
12.4468	0.921
12.4878	0.919
12.5288	0.919
12.5697	0.917
12.6107	0.914
12.6517	0.902
12.6926	0.875
12.7336	0.816
12.7746	0.738
12.8155	0.702
12.8565	0.684
12.8975	0.664
12.9384	0.732
12.9794	0.828
13.0204	0.883
13.0613	0.897
13.1023	0.902
13.1433	0.902
13.1842	0.898
13.2252	0.863
13.2662	0.809
13.3071	0.698
13.3481	0.619
13.3891	0.63
13.43	0.681
13.471	0.618
13.512	0.556
13.5529	0.565
13.5939	0.623
13.6349	0.748
13.6758	0.808
13.7168	0.827
13.7578	0.837
13.7987	0.842
13.8397	0.844
13.8807	0.844
13.9217	0.844
13.9626	0.842
14.0036	0.832
14.0446	0.818
14.0855	0.799
14.1265	0.799
14.1675	0.828
14.2084	0.844
14.2494	0.845
14.2904	0.845
14.3313	0.842
14.3723	0.835
14.4133	0.828
14.4542	0.827
14.4952	0.821
14.5362	0.816
14.5771	0.811
14.6181	0.806
14.6591	0.801
14.7	0.796
14.741	0.791
14.782	0.789
14.8229	0.784
14.8639	0.775
14.9049	0.77
14.9458	0.768
14.9868	0.763
15.0278	0.751
15.0687	0.732
15.1097	0.726
15.1507	0.724
15.1916	0.717
15.2326	0.712
15.2736	0.705
15.3145	0.702
15.3555	0.7
15.3965	0.7
15.4374	0.698
15.4784	0.696
15.5194	0.696
15.5603	0.693
15.6013	0.691
15.6423	0.69
15.6832	0.69
15.7242	0.688
15.7652	0.686
15.8061	0.686
15.8471	0.686
15.8881	0.686
15.929	0.686
15.97	0.688
