Infrared Spectrum: Trimethylphenylsilane
Formula: C 9 H 14 Si
CAS: 768-32-1
State: gas
Instrument: HP-GC/MS/IRD
Origin: NIST Mass Spectrometry Data Center
1/CM	ABSORBANCE
550	0.0001221
562	2.22e-05
574	3.7e-06
586	2.22e-05
598	0.0005476
610	0.0024198
622	0.0026936
634	0.0007918
646	0.0007363
658	0.0010286
670	0.0023051
682	0.0061531
694	0.0106671
706	0.0110334
718	0.012469
730	0.0123654
742	0.0076664
754	0.0046213
766	0.0045103
778	0.0035705
790	0.0029822
802	0.0039627
814	0.0080364
826	0.0188034
838	0.0334887
850	0.0357827
862	0.0241795
874	0.0123654
886	0.0070818
898	0.0045843
910	0.0028527
922	0.0017871
934	0.0011988
946	0.0007733
958	0.0004884
970	0.0003811
982	0.0003959
994	0.0005735
1006	0.0004144
1018	0.0002294
1030	0.0001369
1042	0.0002035
1054	0.0002923
1066	0.0003996
1078	0.000518
1090	0.0013875
1102	0.0062937
1114	0.011026
1126	0.0042106
1138	0.0006475
1150	0.0002146
1162	0.0001554
1174	0.0001554
1186	0.0005069
1198	0.0007474
1210	0.0005513
1222	0.0011026
1234	0.0035409
1246	0.0094535
1258	0.0134458
1270	0.0083731
1282	0.002627
1294	0.0019647
1306	0.0020461
1318	0.0015207
1330	0.0009102
1342	0.0006179
1354	0.0005587
1366	0.0005735
1378	0.0006882
1390	0.0009583
1402	0.001517
1414	0.0023051
1426	0.0026566
1438	0.0020831
1450	0.0011988
1462	0.000703
1474	0.0005772
1486	0.0005772
1498	0.0003478
1510	0.0002849
1522	0.0002849
1534	0.000296
1546	0.000333
1558	0.0003441
1570	0.0002886
1582	0.0002923
1594	0.000259
1606	0.0002516
1618	0.0002072
1630	0.0003293
1642	0.0003182
1654	0.0001554
1666	0.0001073
1678	9.25e-05
1690	8.51e-05
1702	4.81e-05
1714	5.55e-05
1726	5.18e-05
1738	7.03e-05
1750	0.0001517
1762	0.0001258
1774	9.99e-05
1786	0.000148
1798	0.0004107
1810	0.000555
1822	0.000259
1834	0.0001702
1846	0.000185
1858	0.0003515
1870	0.0004995
1882	0.0006068
1894	0.0003774
1906	0.0001443
1918	0.0001813
1930	0.0003367
1942	0.0005143
1954	0.0006142
1966	0.0004033
1978	0.0001369
1990	8.14e-05
2002	7.03e-05
2014	4.81e-05
2026	5.18e-05
2038	5.55e-05
2050	3.33e-05
2062	4.44e-05
2074	5.18e-05
2086	5.18e-05
2098	9.99e-05
2110	8.51e-05
2122	5.55e-05
2134	4.44e-05
2146	5.92e-05
2158	3.7e-05
2170	3.7e-06
2182	3.33e-05
2194	1.11e-05
2206	1.85e-05
2218	5.92e-05
2230	2.22e-05
2242	1.48e-05
2254	1.85e-05
2266	3.7e-05
2278	2.96e-05
2290	5.55e-05
2302	5.92e-05
2314	7.03e-05
2326	4.81e-05
2338	5.18e-05
2350	5.92e-05
2362	7.03e-05
2374	5.55e-05
2386	4.81e-05
2398	2.22e-05
2410	4.44e-05
2422	2.59e-05
2434	4.07e-05
2446	4.44e-05
2458	3.7e-05
2470	6.29e-05
2482	2.59e-05
2494	6.29e-05
2506	7.77e-05
2518	7.77e-05
2530	5.92e-05
2542	5.92e-05
2554	8.88e-05
2566	6.66e-05
2578	0.0001036
2590	0.0001147
2602	0.0001258
2614	0.0001073
2626	9.99e-05
2638	0.0001147
2650	0.0001258
2662	0.0001332
2674	0.0001887
2686	0.0002035
2698	0.0001702
2710	0.0002072
2722	0.0001073
2734	0.0001517
2746	0.0002627
2758	0.0002405
2770	0.0003515
2782	0.0004921
2794	0.0006327
2806	0.0008029
2818	0.0008806
2830	0.0009657
2842	0.0010508
2854	0.0011359
2866	0.0012432
2878	0.0015799
2890	0.0025308
2902	0.0037666
2914	0.0033374
2926	0.0022237
2938	0.0027824
2950	0.0072224
2962	0.0126799
2974	0.0075443
2986	0.0032338
2998	0.0028342
3010	0.0040034
3022	0.0040663
3034	0.0034373
3046	0.0047138
3058	0.0085248
3070	0.0076368
3082	0.0056388
3094	0.0033707
3106	0.0015799
3118	0.0010138
3130	0.0008991
3142	0.0007881
3154	0.0005476
3166	0.000518
3178	0.0003959
3190	0.000259
3202	0.000222
3214	0.0001776
3226	0.0002516
3238	0.000222
3250	0.0001776
3262	0.0001554
3274	0.0001554
3286	0.0001295
3298	8.14e-05
3310	0.0001036
3322	0.0001073
3334	0.0001369
3346	0.0001073
3358	9.62e-05
3370	8.51e-05
3382	3.33e-05
3394	7.77e-05
3406	5.92e-05
3418	0.000185
3430	0.0001998
3442	9.62e-05
3454	0.000111
3466	9.25e-05
3478	8.88e-05
3490	4.07e-05
3502	7.03e-05
3514	0.000111
3526	0.0001591
3538	0.0001517
3550	9.99e-05
3562	1.11e-05
3574	0.000148
3586	0.0001295
3598	0.0001332
3610	0.0002442
3622	0.0001924
3634	0.000333
3646	0.0002923
3658	0.000259
3670	0.0002738
3682	0.0002516
3694	0.0002479
3706	0.0002072
3718	0.0002701
3730	0.0003441
3742	0.0003589
3754	0.000296
3766	0.0002738
3778	0.0002442
3790	0.0001813
3802	0.0001517
3814	0.0002035
3826	0.000111
3838	0.0001554
