Infrared Spectrum: 2-Methyl-1-phenyl-1-propene
Formula: C 10 H 12
CAS: 768-49-0
State: gas
Instrument: HP-GC/MS/IRD
Origin: NIST Mass Spectrometry Data Center
1/CM	ABSORBANCE
550	0.0004511
562	5.98e-05
574	0.0001742
586	0.0001209
598	0.000221
610	0.0002769
622	0.0008021
634	0.0010946
646	0.0006448
658	0.0008879
670	0.0018577
682	0.0046501
694	0.0091208
706	0.0078026
718	0.0054912
730	0.0072345
742	0.0066118
754	0.00286
766	0.0010335
778	0.000559
790	0.0004914
802	0.0009607
814	0.0020787
826	0.0030537
838	0.0025948
850	0.001716
862	0.0010946
874	0.0007215
886	0.0005967
898	0.0008476
910	0.0013416
922	0.0010933
934	0.0004316
946	0.0003419
958	0.0003211
970	0.0004901
982	0.000598
994	0.0006578
1006	0.0006032
1018	0.0012714
1030	0.0020098
1042	0.0011336
1054	0.0016627
1066	0.0016718
1078	0.0009828
1090	0.0003666
1102	0.0002327
1114	0.0001508
1126	0.0001183
1138	0.0001521
1150	0.0002691
1162	0.0007241
1174	0.0016757
1186	0.0017108
1198	0.0007553
1210	0.0005954
1222	0.0007189
1234	0.0004251
1246	0.000338
1258	0.0003393
1270	0.0003328
1282	0.0003549
1294	0.0003575
1306	0.0003835
1318	0.0004654
1330	0.0007423
1342	0.0012064
1354	0.001339
1366	0.0015951
1378	0.0023738
1390	0.0022724
1402	0.0015197
1414	0.0015002
1426	0.0022737
1438	0.0033241
1450	0.0033358
1462	0.0025506
1474	0.0023595
1486	0.0037609
1498	0.0038883
1510	0.0012701
1522	0.0006682
1534	0.0006916
1546	0.0006851
1558	0.0008073
1570	0.0010933
1582	0.0016172
1594	0.0028639
1606	0.0023036
1618	0.0011505
1630	0.0012116
1642	0.001729
1654	0.0023114
1666	0.0016172
1678	0.0005642
1690	0.0003367
1702	0.0002795
1714	0.0003016
1726	0.0002743
1738	0.0002899
1750	0.0003627
1762	0.0003198
1774	0.000338
1786	0.0005161
1798	0.0006812
1810	0.0004316
1822	0.0002821
1834	0.000195
1846	0.0001573
1858	0.0002483
1870	0.0004238
1882	0.0005772
1894	0.0004238
1906	0.0002327
1918	0.0003133
1930	0.0005369
1942	0.0007371
1954	0.0006318
1966	0.0002262
1978	8.97e-05
1990	7.54e-05
2002	5.2e-05
2014	4.03e-05
2026	5.46e-05
2038	4.55e-05
2050	2.08e-05
2062	3.51e-05
2074	2.6e-05
2086	4.42e-05
2098	2.34e-05
2110	2.86e-05
2122	4.81e-05
2134	3.12e-05
2146	4.29e-05
2158	4.55e-05
2170	5.46e-05
2182	5.59e-05
2194	7.02e-05
2206	5.2e-05
2218	4.16e-05
2230	7.41e-05
2242	6.11e-05
2254	6.37e-05
2266	4.81e-05
2278	3.9e-05
2290	4.94e-05
2302	7.02e-05
2314	0.0001287
2326	0.0001313
2338	0.0001196
2350	8.58e-05
2362	8.32e-05
2374	7.41e-05
2386	8.19e-05
2398	8.19e-05
2410	7.8e-05
2422	8.32e-05
2434	8.45e-05
2446	8.06e-05
2458	6.11e-05
2470	2.86e-05
2482	4.55e-05
2494	5.59e-05
2506	7.02e-05
2518	6.89e-05
2530	5.2e-05
2542	3.12e-05
2554	6.11e-05
2566	8.19e-05
2578	4.55e-05
2590	6.37e-05
2602	6.63e-05
2614	6.11e-05
2626	5.98e-05
2638	5.59e-05
2650	4.55e-05
2662	3.77e-05
2674	1.43e-05
2686	3.38e-05
2698	5.85e-05
2710	0.0001781
2722	0.0003003
2734	0.000585
2746	0.0006981
2758	0.0004472
2770	0.0003783
2782	0.0003796
2794	0.0004732
2806	0.0006422
2818	0.00091
2830	0.0012207
2842	0.0018785
2854	0.0035243
2866	0.0059293
2878	0.0065364
2890	0.0063817
2902	0.0069888
2914	0.0103012
2926	0.013
2938	0.0103259
2950	0.0076609
2962	0.0073138
2974	0.0082641
2986	0.0079963
2998	0.006253
3010	0.0052273
3022	0.0069641
3034	0.0078689
3046	0.0067184
3058	0.0085514
3070	0.0101634
3082	0.0071097
3094	0.0050908
3106	0.0029536
3118	0.0015184
3130	0.000871
3142	0.0006344
3154	0.0004706
3166	0.0003146
3178	0.0002145
3190	0.0001521
3202	9.23e-05
3214	9.75e-05
3226	8.06e-05
3238	4.81e-05
3250	4.55e-05
3262	7.8e-05
3274	7.02e-05
3286	0.0001053
3298	0.0001209
3310	9.23e-05
3322	5.72e-05
3334	9.49e-05
3346	8.06e-05
3358	7.67e-05
3370	8.32e-05
3382	6.89e-05
3394	0.0001144
3406	8.45e-05
3418	5.85e-05
3430	6.37e-05
3442	0.0001196
3454	7.93e-05
3466	9.62e-05
3478	0.0001092
3490	0.0001118
3502	8.97e-05
3514	7.15e-05
3526	5.59e-05
3538	9.49e-05
3550	0.0001157
3562	6.63e-05
3574	0.0001196
3586	9.36e-05
3598	8.58e-05
3610	0.0001118
3622	0.0001261
3634	0.0001313
3646	0.0001469
3658	0.0001261
3670	0.000182
3682	0.0001898
3694	0.0001833
3706	0.0001352
3718	0.0001287
3730	0.0001417
3742	0.000143
3754	0.0001196
3766	0.0001027
3778	0.0001014
3790	0.0001066
3802	0.0001079
3814	0.0001716
3826	0.0001625
3838	0.0001859
