Infrared Spectrum: Squalene
Formula: C 30 H 50
CAS: 7683-64-9
State: gas
Instrument: HP-GC/MS/IRD
Origin: NIST Mass Spectrometry Data Center
1/CM	ABSORBANCE
550	0.0002344
562	0.0003816
574	0.00044
586	0.0003616
598	0.0002888
610	0.0001416
622	0.0001704
634	0.0001376
646	4.96e-05
658	1.52e-05
670	9.28e-05
682	0.0001048
694	3.76e-05
706	3.6e-05
718	0.0001584
730	0.0001664
742	0.0002456
754	0.000264
766	0.0002432
778	0.0003256
790	0.0002968
802	0.0004456
814	0.0005848
826	0.0007616
838	0.000816
850	0.000636
862	0.0004048
874	0.0003472
886	0.0003912
898	0.0002896
910	0.0002144
922	0.0002064
934	0.0001752
946	0.0002152
958	0.0002736
970	0.000284
982	0.0003416
994	0.000316
1006	0.000308
1018	0.0002816
1030	0.0003064
1042	0.0003352
1054	0.0003088
1066	0.000328
1078	0.0004624
1090	0.0006
1102	0.000672
1114	0.0004888
1126	0.000304
1138	0.0002896
1150	0.0003896
1162	0.0003416
1174	0.0003152
1186	0.0003048
1198	0.0003256
1210	0.0003568
1222	0.0004144
1234	0.0003456
1246	0.0002976
1258	0.0002424
1270	0.0002288
1282	0.0002096
1294	0.0002664
1306	0.0003928
1318	0.0005232
1330	0.00056
1342	0.0005
1354	0.0005856
1366	0.000788
1378	0.0013064
1390	0.0012568
1402	0.0007192
1414	0.000608
1426	0.000812
1438	0.0013856
1450	0.0015
1462	0.0010128
1474	0.000616
1486	0.0004144
1498	0.0003144
1510	0.0002488
1522	0.0002432
1534	0.000228
1546	0.0002184
1558	0.0001904
1570	0.0001776
1582	0.00016
1594	0.0001488
1606	0.0001552
1618	0.0001392
1630	0.0001744
1642	0.0002104
1654	0.0003064
1666	0.0003472
1678	0.0001888
1690	0.0001248
1702	9.6e-05
1714	8.4e-05
1726	6.8e-05
1738	5.12e-05
1750	6.08e-05
1762	6e-05
1774	6.08e-05
1786	5.36e-05
1798	6.08e-05
1810	4.96e-05
1822	3.28e-05
1834	5.12e-05
1846	3.28e-05
1858	4.72e-05
1870	4.24e-05
1882	4.16e-05
1894	5.2e-05
1906	5.52e-05
1918	4.56e-05
1930	1.76e-05
1942	1.12e-05
1954	2.56e-05
1966	2.32e-05
1978	5.2e-05
1990	3.36e-05
2002	3.76e-05
2014	1.84e-05
2026	3.28e-05
2038	3.12e-05
2050	2.56e-05
2062	4.48e-05
2074	1.76e-05
2086	2.48e-05
2098	2.4e-05
2110	2e-05
2122	2.88e-05
2134	3.6e-05
2146	3.2e-05
2158	2.72e-05
2170	4.08e-05
2182	3.28e-05
2194	3.12e-05
2206	3.12e-05
2218	1.6e-05
2230	2.88e-05
2242	2.72e-05
2254	2.24e-05
2266	2.72e-05
2278	1.52e-05
2290	2.48e-05
2302	2.08e-05
2314	2.32e-05
2326	2.4e-05
2338	3.44e-05
2350	3.2e-05
2362	2.56e-05
2374	1.76e-05
2386	2.24e-05
2398	2.56e-05
2410	2.88e-05
2422	2.24e-05
2434	4.08e-05
2446	1.92e-05
2458	2.72e-05
2470	2.88e-05
2482	4.08e-05
2494	2.64e-05
2506	2e-05
2518	2.48e-05
2530	1.6e-05
2542	8e-06
2554	6.4e-06
2566	2.64e-05
2578	2.8e-05
2590	1.2e-05
2602	2.24e-05
2614	6e-05
2626	4.56e-05
2638	7.28e-05
2650	8.24e-05
2662	5.12e-05
2674	6.64e-05
2686	8.8e-05
2698	6.88e-05
2710	0.0001136
2722	0.00016
2734	0.000228
2746	0.0002552
2758	0.0002384
2770	0.0002296
2782	0.0002552
2794	0.0003504
2806	0.0004712
2818	0.0007032
2830	0.0011944
2842	0.00226
2854	0.0038648
2866	0.0043664
2878	0.0040888
2890	0.004596
2902	0.0058368
2914	0.0072464
2926	0.008
2938	0.0069648
2950	0.0052064
2962	0.0044304
2974	0.0043136
2986	0.0037696
2998	0.0028272
3010	0.0020024
3022	0.0015456
3034	0.0012872
3046	0.00104
3058	0.0008096
3070	0.0005736
3082	0.000424
3094	0.0003096
3106	0.0001888
3118	0.0001648
3130	0.000132
3142	8.96e-05
3154	5.52e-05
3166	7.68e-05
3178	6.08e-05
3190	6e-05
3202	2.88e-05
3214	2.48e-05
3226	4.16e-05
3238	6.4e-05
3250	3.68e-05
3262	4.88e-05
3274	3.84e-05
3286	3.68e-05
3298	3.28e-05
3310	7.6e-05
3322	8.24e-05
3334	5.68e-05
3346	5.44e-05
3358	5.92e-05
3370	1.2e-05
3382	9.76e-05
3394	6.72e-05
3406	6.08e-05
3418	7.6e-05
3430	6.32e-05
3442	6.56e-05
3454	9.44e-05
3466	6.72e-05
3478	6.96e-05
3490	5.68e-05
3502	5.68e-05
3514	6.56e-05
3526	7.76e-05
3538	6.64e-05
3550	7.04e-05
3562	0.0001024
3574	9.12e-05
3586	0.000128
3598	8.96e-05
3610	0.0001064
3622	0.0001176
3634	3.84e-05
3646	8.88e-05
3658	0.0001184
3670	8.16e-05
3682	0.0001504
3694	9.2e-05
3706	9.2e-05
3718	7.36e-05
3730	0.0001032
3742	0.0001232
3754	6.88e-05
3766	9.36e-05
3778	9.52e-05
3790	0.0001552
3802	0.0001232
3814	0.00016
3826	0.0001376
3838	0.00012
