Infrared Spectrum: 2-AMINO-4-PENTENOIC ACID
Formula: C5 H9 N O2
CAS: 7685-44-1
State: SOLID (KBr PELLET)
Class: COBLENTZ
Instrument: PERKIN-ELMER
Sampling: TRANSMISSION
Resolution: 4
Origin: ABBOTT LABORATORIES - WASHBURN
MICROMETERS	TRANSMITTANCE
1.981	0.797
2.01469	0.794
2.04839	0.7774
2.08208	0.772
2.11578	0.776
2.14947	0.776
2.18317	0.776
2.21686	0.772
2.25056	0.774
2.28425	0.769
2.31795	0.762
2.35164	0.764
2.38534	0.7721
2.41903	0.774
2.45273	0.7741
2.48642	0.774
2.52012	0.776
2.55381	0.772
2.58751	0.776
2.6212	0.777
2.6549	0.776
2.68859	0.771
2.72229	0.7588
2.75598	0.7388
2.78968	0.7102
2.82337	0.6615
2.85707	0.6139
2.89076	0.59
2.92446	0.587
2.95815	0.6014
2.99185	0.616
3.02554	0.6092
3.05924	0.5746
3.09293	0.5257
3.12663	0.4278
3.16032	0.3569
3.19402	0.2909
3.22771	0.1911
3.26141	0.1437
3.2951	0.1136
3.3288	0.089
3.36249	0.079
3.39619	0.0801
3.42988	0.092
3.46358	0.1057
3.49727	0.1236
3.53097	0.148
3.56466	0.1699
3.59836	0.1862
3.63205	0.2053
3.66575	0.228
3.69944	0.234
3.73314	0.232
3.76683	0.2651
3.80053	0.2904
3.83422	0.3077
3.86792	0.3309
3.90161	0.3846
3.93531	0.4221
3.969	0.4494
4.0027	0.4776
4.03639	0.5157
4.07009	0.5481
4.10378	0.575
4.13748	0.6023
4.17117	0.6342
4.20487	0.6509
4.23856	0.6609
4.27226	0.664
4.30595	0.668
4.33965	0.6729
4.37334	0.7016
4.40704	0.713
4.44073	0.72
4.47443	0.7199
4.50812	0.7302
4.54182	0.734
4.57551	0.73
4.60921	0.7219
4.6429	0.712
4.6766	0.6934
4.71029	0.6648
4.74399	0.641
4.77768	0.626
4.81138	0.6311
4.84507	0.6411
4.87877	0.6638
4.91246	0.6898
4.94616	0.708
4.97985	0.7181
5.01355	0.73
5.04724	0.735
5.08094	0.7399
5.11463	0.747
5.14833	0.749
5.18202	0.7497
5.21572	0.7506
5.24941	0.745
5.28311	0.749
5.3168	0.749
5.3505	0.7474
5.38419	0.739
5.41789	0.7308
5.45158	0.7222
5.48528	0.7354
5.51897	0.742
5.55267	0.7388
5.58636	0.727
5.62006	0.718
5.65375	0.7081
5.68745	0.6886
5.72114	0.672
5.75484	0.6519
5.78853	0.617
5.82223	0.5984
5.85592	0.5642
5.88962	0.5306
5.92331	0.4677
5.95701	0.3622
5.9907	0.2066
6.0244	0.1052
6.05809	0.0825
6.09179	0.074
6.12548	0.0699
6.15918	0.0519
6.19287	0.0421
6.22657	0.0233
6.26026	0.0132
6.29396	0.0052
6.32765	0.0074
6.36135	0.036
6.39504	0.0926
6.42874	0.1679
6.46243	0.2204
6.49613	0.2225
6.52982	0.1979
6.56352	0.1766
6.59721	0.2056
6.63091	0.2373
6.6646	0.285
6.6983	0.3305
6.73199	0.3828
6.76569	0.4323
6.79938	0.461
6.83308	0.5027
6.86677	0.516
6.90047	0.4839
6.93416	0.4069
6.96786	0.3341
7.00155	0.3372
7.03525	0.2724
7.06894	0.1452
7.10264	0.0485
7.13633	0.0455
7.17003	0.1451
7.20372	0.282
7.23742	0.3663
7.27111	0.4482
7.30481	0.4682
7.3385	0.4073
7.3722	0.3516
7.40589	0.2213
7.43959	0.1433
7.47328	0.2083
7.50698	0.1596
7.54067	0.082
7.57437	0.1403
7.60806	0.2883
7.64176	0.3577
7.67545	0.4267
7.70915	0.488
7.74284	0.5169
7.77654	0.5429
7.81023	0.5762
7.84393	0.5837
7.87762	0.5486
7.91132	0.5263
7.94501	0.5655
7.97871	0.57
8.0124	0.4624
8.0461	0.4798
8.07979	0.5614
8.11349	0.6077
8.14718	0.6334
8.18088	0.6455
8.21457	0.6562
8.24827	0.663
8.28196	0.6669
8.31566	0.668
8.34935	0.663
8.38305	0.6454
8.41674	0.5962
8.45044	0.562
8.48413	0.578
8.51783	0.6043
8.55152	0.6119
8.58522	0.5969
8.61891	0.5418
8.65261	0.4934
8.6863	0.493
8.72	0.54
8.75369	0.5853
8.78739	0.6148
8.82108	0.6302
8.85478	0.6371
8.88847	0.642
8.92217	0.653
8.95586	0.6568
8.98956	0.661
9.02325	0.663
9.05695	0.6615
9.09064	0.656
9.12434	0.649
9.15803	0.634
9.19173	0.624
9.22542	0.5762
9.25912	0.4904
9.29281	0.4168
9.32651	0.4447
9.3602	0.5093
9.3939	0.5581
9.42759	0.5952
9.46129	0.6269
9.49498	0.6485
9.52868	0.6704
9.56237	0.6786
9.59607	0.6885
9.62976	0.695
9.66346	0.6983
9.69715	0.7071
9.73085	0.7133
9.76454	0.718
9.79824	0.72
9.83193	0.7231
9.86563	0.72
9.89932	0.7136
9.93302	0.708
9.96671	0.687
10.0004	0.6465
10.0341	0.5697
10.0678	0.5156
10.1015	0.4947
10.1352	0.469
10.1689	0.4587
10.2026	0.5186
10.2363	0.5978
10.27	0.651
10.3037	0.6785
10.3374	0.693
10.3711	0.7022
10.4047	0.7079
10.4384	0.7117
10.4721	0.7072
10.5058	0.6957
10.5395	0.6953
10.5732	0.6943
10.6069	0.6925
10.6406	0.6863
10.6743	0.675
10.708	0.6516
10.7417	0.5868
10.7754	0.5176
10.8091	0.3925
10.8428	0.2386
10.8765	0.193
10.9102	0.2233
10.9439	0.2654
10.9776	0.3008
11.0113	0.3503
11.045	0.3747
11.0786	0.3957
11.1123	0.4409
11.146	0.4859
11.1797	0.5394
11.2134	0.5812
11.2471	0.6063
11.2808	0.6299
11.3145	0.6418
11.3482	0.6521
11.3819	0.6619
11.4156	0.6685
11.4493	0.6752
11.483	0.681
11.5167	0.6898
11.5504	0.6726
11.5841	0.632
11.6178	0.632
11.6515	0.6439
11.6852	0.6633
11.7189	0.673
11.7525	0.678
11.7862	0.683
11.8199	0.6838
11.8536	0.681
11.8873	0.689
11.921	0.7009
11.9547	0.703
11.9884	0.708
12.0221	0.7044
12.0558	0.7073
12.0895	0.7131
12.1232	0.717
12.1569	0.7269
12.1906	0.732
12.2243	0.7399
12.258	0.744
12.2917	0.742
12.3254	0.74
12.3591	0.7315
12.3928	0.7363
12.4264	0.7362
12.4601	0.742
12.4938	0.7461
12.5275	0.7457
12.5612	0.745
12.5949	0.7477
12.6286	0.7454
12.6623	0.7492
12.696	0.7502
12.7297	0.7539
12.7634	0.747
12.7971	0.754
12.8308	0.745
12.8645	0.7505
12.8982	0.75
12.9319	0.7407
12.9656	0.737
12.9993	0.7242
13.033	0.6915
13.0667	0.6607
13.1003	0.6622
13.134	0.6837
13.1677	0.7156
13.2014	0.7292
13.2351	0.74
13.2688	0.75
13.3025	0.7523
13.3362	0.7484
13.3699	0.75
13.4036	0.75
13.4373	0.749
13.471	0.755
13.5047	0.7525
13.5384	0.7443
13.5721	0.742
13.6058	0.745
13.6395	0.745
13.6732	0.7319
13.7069	0.7261
13.7406	0.7154
13.7742	0.6967
13.8079	0.6676
13.8416	0.627
13.8753	0.5863
13.909	0.5477
13.9427	0.5179
13.9764	0.496
14.0101	0.4794
14.0438	0.4681
14.0775	0.4798
14.1112	0.5003
14.1449	0.531
14.1786	0.5691
14.2123	0.597
14.246	0.6223
14.2797	0.6384
14.3134	0.6517
14.3471	0.659
14.3808	0.6735
14.4145	0.6835
14.4481	0.6896
14.4818	0.693
14.5155	0.7
14.5492	0.6959
14.5829	0.693
14.6166	0.6958
14.6503	0.6995
14.684	0.6953
14.7177	0.6914
14.7514	0.6867
14.7851	0.688
14.8188	0.6882
14.8525	0.689
14.8862	0.685
14.9199	0.683
14.9536	0.6822
14.9873	0.681
15.021	0.676
15.0547	0.683
15.0884	0.683
15.122	0.681
15.1557	0.675
15.1894	0.6809
15.2231	0.681
15.2568	0.683
15.2905	0.678
15.3242	0.668
15.3579	0.6744
15.3916	0.673
15.4253	0.67
