Infrared Spectrum: Adenine, 9-(3,5-o-isopropylidene-Beta-D-xylofuranosyl)-
Formula: C13 H17 N5 O4
CAS: 7687-49-2
State: SOLID (1.3 mg / 650 mg KBr DISC)
Class: COBLENTZ III
Instrument: PERKIN-ELMER 21 (GRATING)
Instrument parameters: FILTER CHANGE ABOUT 1070 CM^-^1
Sampling: TRANSMISSION
Resolution: 2
Origin: SOUTHERN RESEARCH INSTITUTE
1/CM	TRANSMITTANCE
604	0.8082
613	0.7861
622	0.7454
631	0.7026
640	0.6974
649	0.7204
658	0.7267
667	0.7161
676	0.7157
685	0.7368
694	0.7032
703	0.677
712	0.5649
721	0.7638
730	0.8188
739	0.8054
748	0.6745
757	0.7374
766	0.8356
775	0.8279
784	0.8027
793	0.6754
802	0.7769
811	0.6237
820	0.7218
829	0.5773
838	0.3077
847	0.3889
856	0.8065
865	0.8212
874	0.8186
883	0.8084
892	0.8472
901	0.8542
910	0.8578
919	0.8457
928	0.8154
937	0.6987
946	0.5555
955	0.6925
964	0.4731
973	0.7788
982	0.7442
991	0.632
1000	0.5409
1009	0.4956
1018	0.5715
1027	0.6201
1036	0.5596
1045	0.5038
1054	0.5049
1063	0.4337
1072	0.2372
1081	0.1698
1090	0.19
1099	0.2845
1108	0.3555
1117	0.2201
1126	0.6097
1135	0.6553
1144	0.6148
1153	0.4443
1162	0.3207
1171	0.5347
1180	0.5385
1189	0.3021
1198	0.29
1207	0.2207
1216	0.3186
1225	0.415
1234	0.396
1243	0.2869
1252	0.4018
1261	0.4687
1270	0.5218
1279	0.4896
1288	0.4083
1297	0.3997
1306	0.4628
1315	0.471
1324	0.3228
1333	0.6069
1342	0.6539
1351	0.6463
1360	0.5753
1369	0.3483
1378	0.3899
1387	0.438
1396	0.6142
1405	0.5362
1414	0.5137
1423	0.6898
1432	0.6828
1441	0.6465
1450	0.6156
1459	0.5591
1468	0.3464
1477	0.3404
1486	0.6871
1495	0.6903
1504	0.7583
1513	0.8393
1522	0.828
1531	0.8001
1540	0.7787
1549	0.6649
1558	0.509
1567	0.3574
1576	0.4606
1585	0.2631
1594	0.1291
1603	0.3298
1612	0.4377
1621	0.3777
1630	0.2461
1639	0.1091
1648	0.125
1657	0.3726
1666	0.6983
1675	0.7465
1684	0.7692
1693	0.7744
1702	0.7611
1711	0.7251
1720	0.4626
1729	0.7323
1738	0.8566
1747	0.8892
1756	0.9154
1765	0.9326
1774	0.9454
1783	0.9542
1792	0.96
1801	0.9656
1810	0.9707
1819	0.9743
1828	0.9776
1837	0.978
1846	0.9782
1855	0.9773
1864	0.9725
1873	0.9636
1882	0.9584
1891	0.9622
1900	0.9706
1909	0.9789
1918	0.98
1927	0.9784
1936	0.9783
1945	0.9782
1954	0.9782
1963	0.9782
1972	0.9777
1981	0.9771
1990	0.9767
1999	0.9763
2008	0.9748
2017	0.9729
2026	0.9707
2035	0.968
2044	0.9665
2053	0.9673
2062	0.9686
2071	0.9695
2080	0.9699
2089	0.9701
2098	0.9699
2107	0.9694
2116	0.9692
2125	0.969
2134	0.9686
2143	0.9683
2152	0.9679
2161	0.9676
2170	0.9674
2179	0.9672
2188	0.9668
2197	0.9637
2206	0.9608
2215	0.9613
2224	0.9619
2233	0.9618
2242	0.9592
2251	0.9568
2260	0.955
2269	0.9525
2278	0.9502
2287	0.9482
2296	0.947
2305	0.947
2314	0.9465
2323	0.9443
2332	0.9418
2341	0.9412
2350	0.9407
2359	0.9403
2368	0.9409
2377	0.9414
2386	0.9416
2395	0.9397
2404	0.9375
2413	0.9351
2422	0.9329
2431	0.9308
2440	0.9279
2449	0.9245
2458	0.9216
2467	0.9195
2476	0.9174
2485	0.9146
2494	0.9114
2503	0.9072
2512	0.9034
2521	0.8999
2530	0.894
2539	0.8885
2548	0.8829
2557	0.8777
2566	0.8725
2575	0.8671
2584	0.8618
2593	0.8565
2602	0.8512
2611	0.8463
2620	0.8409
2629	0.8348
2638	0.8313
2647	0.8278
2656	0.8244
2665	0.8207
2674	0.8175
2683	0.8143
2692	0.8106
2701	0.8069
2710	0.8037
2719	0.8
2728	0.7955
2737	0.7907
2746	0.7855
2755	0.7804
2764	0.775
2773	0.7685
2782	0.7565
2791	0.7416
2800	0.7251
2809	0.7093
2818	0.693
2827	0.6763
2836	0.661
2845	0.6432
2854	0.6207
2863	0.5972
2872	0.5697
2881	0.5475
2890	0.531
2899	0.5411
2908	0.5659
2917	0.6007
2926	0.6105
2935	0.6048
2944	0.5831
2953	0.5614
2962	0.5772
2971	0.6186
2980	0.6391
2989	0.6327
2998	0.6244
3007	0.6146
3016	0.6016
3025	0.5866
3034	0.5667
3043	0.544
3052	0.5162
3061	0.4747
3070	0.4419
3079	0.4018
3088	0.3566
3097	0.3136
3106	0.2827
3115	0.2529
3124	0.227
3133	0.2081
3142	0.2017
3151	0.2056
3160	0.2208
3169	0.2414
3178	0.2788
3187	0.3082
3196	0.3381
3205	0.3561
3214	0.3601
3223	0.359
3232	0.3555
3241	0.3517
3250	0.3469
3259	0.3375
3268	0.32
3277	0.2995
3286	0.2817
3295	0.273
3304	0.2848
3313	0.3151
3322	0.3515
3331	0.3719
3340	0.381
3349	0.3846
3358	0.3882
3367	0.3946
3376	0.4189
3385	0.4702
3394	0.5213
3403	0.5588
3412	0.5788
3421	0.5962
3430	0.6151
3439	0.634
3448	0.6512
3457	0.6675
3466	0.6855
3475	0.7038
3484	0.7226
3493	0.7449
3502	0.763
3511	0.7752
3520	0.7878
3529	0.801
3538	0.8133
3547	0.8264
3556	0.8399
3565	0.8605
3574	0.877
3583	0.8899
3592	0.9006
3601	0.9093
3610	0.9133
3619	0.916
3628	0.9184
3637	0.9208
3646	0.9231
3655	0.9258
3664	0.9298
3673	0.9373
3682	0.9413
3691	0.9408
3700	0.9398
3709	0.938
3718	0.9365
3727	0.9356
3736	0.935
3745	0.9349
3754	0.9348
3763	0.9345
3772	0.934
3781	0.9317
3790	0.9288
3799	0.9279
3808	0.9293
3817	0.9353
3826	0.9382
3835	0.9382
3844	0.9374
3853	0.9357
3862	0.9343
3871	0.9334
3880	0.932
3889	0.9304
3898	0.9273
3907	0.9229
3916	0.9181
3925	0.916
3934	0.9167
3943	0.9183
3952	0.9202
3961	0.9217
3970	0.9189
3979	0.9081
3988	0.9098
3997	0.9149
