Infrared Spectrum: cis-2-hexene
Formula: C 6 H 12
CAS: 7688-21-3
State: gas
Instrument: HP-GC/MS/IRD
Origin: NIST Mass Spectrometry Data Center
1/CM	ABSORBANCE
550	0.0004674
562	0.0006109
574	0.001476
586	0.0015662
598	0.0009635
610	0.000779
622	0.0010086
634	0.0015457
646	0.0026978
658	0.0043337
670	0.0067691
682	0.0091307
694	0.0088191
706	0.0062525
718	0.0037597
730	0.0019024
742	0.0011234
754	0.0008323
766	0.0007421
778	0.0005699
790	0.0003649
802	0.0002583
814	0.0002624
826	0.0002583
838	0.000779
850	0.0012259
862	0.0013735
874	0.0014555
886	0.0016769
898	0.0015498
910	0.0012546
922	0.0009061
934	0.0006232
946	0.0005535
958	0.0008897
970	0.0010578
982	0.0011808
994	0.0010291
1006	0.0008405
1018	0.0007872
1030	0.001148
1042	0.0013776
1054	0.0015088
1066	0.0013776
1078	0.0011275
1090	0.0008446
1102	0.0005125
1114	0.0002829
1126	0.0003116
1138	0.0002706
1150	0.0001968
1162	4.1e-05
1174	1.64e-05
1186	6.97e-05
1198	8.61e-05
1210	0.0001312
1222	0.0002952
1234	0.0003034
1246	0.0004633
1258	0.0006888
1270	0.0010291
1282	0.0009717
1294	0.0007134
1306	0.0009758
1318	0.0015047
1330	0.0020049
1342	0.0019229
1354	0.0020049
1366	0.0026076
1378	0.0036777
1390	0.0042804
1402	0.0042476
1414	0.0040344
1426	0.0035055
1438	0.0041533
1450	0.0053218
1462	0.005617
1474	0.0045182
1486	0.0030832
1498	0.0020377
1510	0.0014637
1522	0.001271
1534	0.0011316
1546	0.0010332
1558	0.0009061
1570	0.0007831
1582	0.000656
1594	0.0005945
1606	0.0006888
1618	0.0008856
1630	0.0012423
1642	0.0017548
1654	0.0020705
1666	0.0017835
1678	0.0011111
1690	0.0006888
1702	0.0004428
1714	0.0003977
1726	0.0003813
1738	0.0002993
1750	0.0002173
1762	0.0002009
1774	0.0001599
1786	0.0001517
1798	0.0001599
1810	0.0002214
1822	0.0001968
1834	0.0002501
1846	0.000205
1858	0.0001353
1870	0.0001558
1882	0.0001435
1894	0.0001476
1906	0.0001927
1918	0.0002296
1930	0.0002009
1942	0.0001886
1954	0.0001681
1966	0.0001968
1978	0.0002993
1990	0.0003526
2002	0.0003854
2014	0.0002788
2026	0.0003157
2038	0.0003362
2050	0.0002788
2062	0.0002337
2074	0.0001804
2086	0.0001681
2098	0.0001763
2110	0.0001968
2122	0.000205
2134	0.0001722
2146	0.0001763
2158	0.0001763
2170	0.0001886
2182	0.0002255
2194	0.0002665
2206	0.0001845
2218	0.0002009
2230	0.0002624
2242	0.0002542
2254	0.000246
2266	0.000287
2278	0.0002747
2290	0.0002829
2302	0.0002583
2314	0.0002829
2326	0.0003034
2338	0.0003198
2350	0.0003116
2362	0.0003034
2374	0.0002829
2386	0.0003239
2398	0.0003075
2410	0.0002747
2422	0.0002501
2434	0.0003362
2446	0.0002624
2458	0.0002706
2470	0.0002624
2482	0.0002542
2494	0.0003157
2506	0.000369
2518	0.0003895
2530	0.0003526
2542	0.0003567
2554	0.0003649
2566	0.0003362
2578	0.0003444
2590	0.0003649
2602	0.0003567
2614	0.0003649
2626	0.0004592
2638	0.0004387
2650	0.0004797
2662	0.0005576
2674	0.0005658
2686	0.0006027
2698	0.0006642
2710	0.0008487
2722	0.0009717
2734	0.0011439
2746	0.0012259
2758	0.0012874
2770	0.0014104
2782	0.0016646
2794	0.0019721
2806	0.0024764
2818	0.00328
2830	0.0047929
2842	0.0076506
2854	0.0122385
2866	0.0181548
2878	0.0228124
2890	0.0234643
2902	0.0234725
2914	0.0281752
2926	0.035998
2938	0.0409057
2950	0.0398561
2962	0.041
2974	0.0363998
2986	0.0259284
2998	0.0180031
3010	0.0186263
3022	0.0202048
3034	0.0176956
3046	0.0110823
3058	0.0063632
3070	0.0041246
3082	0.0030545
3094	0.0023288
3106	0.0017097
3118	0.0014678
3130	0.0012423
3142	0.001066
3154	0.0010045
3166	0.0008692
3178	0.0007175
3190	0.000656
3202	0.0006396
3214	0.0005002
3226	0.0004305
3238	0.0004223
3250	0.0003772
3262	0.0003239
3274	0.0004182
3286	0.0003854
3298	0.0004018
3310	0.0004387
3322	0.0003567
3334	0.0003731
3346	0.0003362
3358	0.0002665
3370	0.0003034
3382	0.0002337
3394	0.0003239
3406	0.0002952
3418	0.0003198
3430	0.0003116
3442	0.0002829
3454	0.000328
3466	0.0002788
3478	0.0002091
3490	0.0002788
3502	0.0003772
3514	0.0002993
3526	0.0003362
3538	0.0002952
3550	0.0002788
3562	0.0003034
3574	0.000287
3586	0.000328
3598	0.0003034
3610	0.0002911
3622	0.0002788
3634	0.0002624
3646	0.000328
3658	0.0003198
3670	0.0004346
3682	0.0003772
3694	0.0003362
3706	0.000287
3718	0.0003444
3730	0.0002952
3742	0.0003157
3754	0.0004387
3766	0.0004223
3778	0.0003608
3790	0.0003977
3802	0.0003813
3814	0.0003608
3826	0.0004264
3838	0.0004879
