Infrared Spectrum: 1,3-Dimethylbarbituric acid
Formula: C 6 H 8 N 2 O 3
CAS: 769-42-6
State: gas
Origin: EPA-IR VAPOR PHASE LIBRARY
1/CM	ABSORBANCE
549.9	0.000495
559.547	0.0005563
569.193	0.000404
578.84	0.000413
588.486	0.0004
598.133	0.00034
607.779	0.00069404
617.426	0.0010675
627.072	0.0010272
636.719	0.00063746
646.365	0.000476
656.012	0.000386
665.658	0.000451
675.305	0.0007803
684.951	0.0007985
694.598	0.0007271
704.245	0.0005401
713.891	0.000551
723.538	0.0005052
733.184	0.00058921
742.831	0.0008064
752.477	0.0010375
762.124	0.0013662
771.77	0.0008796
781.417	0.0005574
791.063	0.000463
800.71	0.000442
810.356	0.000488
820.003	0.0005683
829.649	0.0005166
839.296	0.0005273
848.943	0.000454
858.589	0.000438
868.236	0.000463
877.882	0.000472
887.529	0.0005508
897.175	0.000459
906.822	0.000481
916.468	0.0005468
926.115	0.00069252
935.761	0.0009934
945.408	0.0010119
955.054	0.000773
964.701	0.0008903
974.347	0.0013924
983.994	0.001647
993.64	0.0013995
1003.29	0.0009709
1012.93	0.0010339
1022.58	0.0012338
1032.23	0.0011199
1041.87	0.0008485
1051.52	0.0009739
1061.17	0.0013382
1070.81	0.001997
1080.46	0.002777
1090.11	0.003107
1099.75	0.003097
1109.4	0.002817
1119.05	0.002297
1128.69	0.002107
1138.34	0.002427
1147.99	0.002647
1157.63	0.002397
1167.28	0.001937
1176.92	0.0014853
1186.57	0.0013704
1196.22	0.0010328
1205.86	0.0011633
1215.51	0.0012744
1225.16	0.00138
1234.8	0.001607
1244.45	0.002037
1254.1	0.003827
1263.74	0.005267
1273.39	0.004117
1283.04	0.002517
1292.68	0.002117
1302.33	0.002107
1311.98	0.001927
1321.62	0.002017
1331.27	0.002817
1340.92	0.004617
1350.56	0.007697
1360.21	0.011497
1369.86	0.016257
1379.5	0.016767
1389.15	0.010377
1398.79	0.006337
1408.44	0.005817
1418.09	0.007347
1427.73	0.009457
1437.38	0.011467
1447.03	0.011687
1456.67	0.009407
1466.32	0.005567
1475.97	0.003267
1485.61	0.002567
1495.26	0.002307
1504.91	0.002227
1514.55	0.002077
1524.2	0.001867
1533.85	0.0015221
1543.49	0.0013813
1553.14	0.0013018
1562.79	0.0012159
1572.43	0.0012041
1582.08	0.0011427
1591.73	0.0010524
1601.37	0.0009804
1611.02	0.0009988
1620.67	0.0010341
1630.31	0.0010908
1639.96	0.0014274
1649.6	0.001927
1659.25	0.002447
1668.9	0.003127
1678.54	0.004627
1688.19	0.009677
1697.84	0.021437
1707.48	0.034537
1717.13	0.038117
1726.78	0.032487
1736.42	0.021477
1746.07	0.008657
1755.72	0.003967
1765.36	0.002497
1775.01	0.001817
1784.66	0.0013929
1794.3	0.0012024
1803.95	0.001078
1813.6	0.0009601
1823.24	0.000913
1832.89	0.0008102
1842.54	0.0008015
1852.18	0.0007664
1861.83	0.0007684
1871.47	0.0007606
1881.12	0.0007888
1890.77	0.0008213
1900.41	0.0007725
1910.06	0.0007615
1919.71	0.0007022
1929.35	0.00066646
1939	0.0006077
1948.65	0.00064023
1958.29	0.00061959
1967.94	0.00058985
1977.59	0.00061551
1987.23	0.00065499
1996.88	0.00068682
2006.53	0.00062521
2016.17	0.00059052
2025.82	0.0005698
2035.47	0.0005951
2045.11	0.0005837
2054.76	0.00061693
2064.41	0.00059539
2074.05	0.0005842
2083.7	0.0005272
2093.35	0.000492
2102.99	0.000479
2112.64	0.000479
2122.28	0.000488
2131.93	0.0005121
2141.58	0.000528
2151.22	0.00054
2160.87	0.0005735
2170.52	0.000513
2180.16	0.000496
2189.81	0.000436
2199.46	0.000444
2209.1	0.000436
2218.75	0.000432
2228.4	0.000433
2238.04	0.000443
2247.69	0.00045
2257.34	0.000466
2266.98	0.000438
2276.63	0.000434
2286.28	0.000446
2295.92	0.00043
2305.57	0.000444
2315.22	0.000489
2324.86	0.0005377
2334.51	0.0005081
2344.16	0.0005304
2353.8	0.000486
2363.45	0.000481
2373.09	0.000451
2382.74	0.000433
2392.39	0.000407
2402.03	0.000431
2411.68	0.000412
2421.33	0.000411
2430.97	0.000401
2440.62	0.000403
2450.27	0.000405
2459.91	0.000402
2469.56	0.00034
2479.21	0.000391
2488.85	0.000353
2498.5	0.000327
2508.15	0.000406
2517.79	0.000387
2527.44	0.000386
2537.09	0.000329
2546.73	0.000377
2556.38	0.000332
2566.03	0.000307
2575.67	0.00033
2585.32	0.000322
2594.96	0.000282
2604.61	0.000327
2614.26	0.000286
2623.9	0.000308
2633.55	0.000277
2643.2	0.000248
2652.84	0.000284
2662.49	0.000296
2672.14	0.000256
2681.78	0.000177
2691.43	0.000213
2701.08	0.000205
2710.72	0.000239
2720.37	0.000207
2730.02	0.000167
2739.66	0.000128
2749.31	0.000153
2758.96	0.000107
2768.6	0.00016
2778.25	0.000163
2787.9	0.000169
2797.54	7.1e-05
2807.19	0.000226
2816.84	0.000136
2826.48	0.000146
2836.13	0.000149
2845.77	0.000125
2855.42	0.000161
2865.07	0.0002
2874.71	0.000238
2884.36	0.000204
2894.01	0.000264
2903.65	0.000345
2913.3	0.000427
2922.95	0.000342
2932.59	0.00039
2942.24	0.00062846
2951.89	0.0010082
2961.53	0.0014542
2971.18	0.0015232
2980.83	0.0010319
2990.47	0.0007936
3000.12	0.0005192
3009.77	0.000373
3019.41	0.000225
3029.06	4.3e-05
3038.71	0.000129
3048.35	3e-05
3058	7.7e-05
3067.64	0.00017
3077.29	0.000169
3086.94	0.000149
3096.58	0.000164
3106.23	0.000247
3115.88	4.4e-05
3125.52	7.5e-05
3135.17	0.000135
3144.82	0.000123
3154.46	1.9e-05
3164.11	6.9e-05
3173.76	0.000159
3183.4	0.000153
3193.05	7.1e-05
3202.7	6.3e-05
3212.34	0.000216
3221.99	0.000224
3231.64	0.000157
3241.28	0.000116
3250.93	0.000286
3260.58	0.000343
3270.22	0.000274
3279.87	0.000318
3289.52	0.000257
3299.16	0.000323
3308.81	0.00028
3318.45	0.000334
3328.1	0.000349
3337.75	0.000291
3347.39	0.000369
3357.04	0.000365
3366.69	0.000356
3376.33	0.000433
3385.98	0.000197
3395.63	0.000464
3405.27	0.0005295
3414.92	0.000455
3424.57	0.0005082
3434.21	0.00069606
3443.86	0.00063341
3453.51	0.00063257
3463.15	0.00068041
3472.8	0.00054
3482.45	0.0005785
3492.09	0.0005522
3501.74	0.000472
3511.39	0.000468
3521.03	0.000467
3530.68	0.00045
3540.33	0.000391
3549.97	0.00043
3559.62	0.000495
3569.26	0.000484
3578.91	0.000407
3588.56	0.000476
3598.2	0.000435
3607.85	0.0005686
3617.5	0.0005363
3627.14	0.000493
3636.79	0.000417
3646.44	0.000493
3656.08	0.000404
3665.73	0.000454
3675.38	0.0004978
3685.02	0.0005534
3694.67	0.000448
3704.32	0.000457
3713.96	0.000492
3723.61	0.000431
3733.26	0.000466
3742.9	0.000438
3752.55	0.000423
3762.2	0.000465
3771.84	0.000408
3781.49	0.000421
3791.13	0.000433
3800.78	0.000415
3810.43	0.000337
3820.07	0.000409
3829.72	0.000419
3839.37	0.0004971
3849.01	0.000444
3858.66	0.000451
3868.31	0.000327
3877.95	0.000415
3887.6	0.000396
3897.25	0.00036
3906.89	0.000431
3916.54	0.000343
3926.19	0.000385
3935.83	0.0004
3945.48	0.000351
3955.13	0.00028
3964.77	0.00024
3974.42	0.000306
3984.07	0.000362
3993.71	0.000361
