Infrared Spectrum: 2,3,5,6-Tetrafluorophenol
Formula: C 6 H 2 F 4 O
CAS: 769-39-1
State: gas
Origin: EPA-IR VAPOR PHASE LIBRARY
1/CM	ABSORBANCE
549.9	0.03431
559.547	0.04408
569.193	0.03747
578.84	0.02861
588.486	0.02614
598.133	0.02734
607.779	0.02764
617.426	0.02319
627.072	0.01883
636.719	0.01829
646.365	0.0192
656.012	0.02112
665.658	0.03665
675.305	0.07727
684.951	0.0822
694.598	0.05015
704.245	0.12695
713.891	0.2195
723.538	0.17467
733.184	0.03765
742.831	0.01727
752.477	0.01458
762.124	0.01499
771.77	0.01656
781.417	0.01887
791.063	0.02326
800.71	0.04539
810.356	0.14257
820.003	0.34176
829.649	0.20517
839.296	0.08361
848.943	0.03301
858.589	0.02238
868.236	0.02348
877.882	0.03697
887.529	0.05336
897.175	0.07891
906.822	0.28359
916.468	0.98863
926.115	1.22427
935.761	0.52266
945.408	0.19537
955.054	0.20401
964.701	0.22434
974.347	0.15927
983.994	0.07601
993.64	0.04833
1003.29	0.04094
1012.93	0.04751
1022.58	0.05994
1032.23	0.08277
1041.87	0.11358
1051.52	0.1617
1061.17	0.41948
1070.81	1.26542
1080.46	1.5802
1090.11	0.70973
1099.75	0.15754
1109.4	0.12313
1119.05	0.18867
1128.69	0.22161
1138.34	0.11845
1147.99	0.07027
1157.63	0.27572
1167.28	0.56932
1176.92	0.43166
1186.57	0.09604
1196.22	0.06382
1205.86	0.09246
1215.51	0.16108
1225.16	0.33074
1234.8	0.57532
1244.45	0.49867
1254.1	0.15513
1263.74	0.11239
1273.39	0.20455
1283.04	0.25391
1292.68	0.29032
1302.33	0.45114
1311.98	0.61609
1321.62	0.56559
1331.27	0.29824
1340.92	0.10619
1350.56	0.05844
1360.21	0.06384
1369.86	0.06358
1379.5	0.04833
1389.15	0.05824
1398.79	0.10917
1408.44	0.10432
1418.09	0.051
1427.73	0.03314
1437.38	0.0341
1447.03	0.03469
1456.67	0.06228
1466.32	0.17676
1475.97	0.41594
1485.61	0.99599
1495.26	1.34481
1504.91	0.98824
1514.55	0.65781
1524.2	1.40386
1533.85	1.64817
1543.49	1.42517
1553.14	0.38176
1562.79	0.15348
1572.43	0.08124
1582.08	0.04247
1591.73	0.05008
1601.37	0.08442
1611.02	0.13446
1620.67	0.18637
1630.31	0.26658
1639.96	0.3205
1649.6	0.34919
1659.25	0.26307
1668.9	0.10404
1678.54	0.05116
1688.19	0.03821
1697.84	0.04295
1707.48	0.05257
1717.13	0.041
1726.78	0.02017
1736.42	0.01631
1746.07	0.01867
1755.72	0.0198
1765.36	0.01673
1775.01	0.013268
1784.66	0.012659
1794.3	0.0134572
1803.95	0.01486
1813.6	0.01815
1823.24	0.02075
1832.89	0.0225
1842.54	0.02127
1852.18	0.01597
1861.83	0.01116
1871.47	0.01067
1881.12	0.01137
1890.77	0.0111
1900.41	0.00962
1910.06	0.00927
1919.71	0.00983
1929.35	0.0105
1939	0.00986
1948.65	0.0095
1958.29	0.0101
1967.94	0.01049
1977.59	0.01109
1987.23	0.01202
1996.88	0.01189
2006.53	0.01046
2016.17	0.00966
2025.82	0.00968
2035.47	0.00978
2045.11	0.00958
2054.76	0.00966
2064.41	0.0106
2074.05	0.01197
2083.7	0.01172
2093.35	0.01041
2102.99	0.01142
2112.64	0.0141968
2122.28	0.01446
2131.93	0.01176
2141.58	0.01144
2151.22	0.0135547
2160.87	0.014074
2170.52	0.01218
2180.16	0.01194
2189.81	0.01567
2199.46	0.02011
2209.1	0.01964
2218.75	0.01563
2228.4	0.01516
2238.04	0.01713
2247.69	0.01741
2257.34	0.0141386
2266.98	0.01039
2276.63	0.00973
2286.28	0.01003
2295.92	0.01093
2305.57	0.013256
2315.22	0.01715
2324.86	0.02027
2334.51	0.02001
2344.16	0.0191
2353.8	0.01976
2363.45	0.0185
2373.09	0.01504
2382.74	0.0138092
2392.39	0.01554
2402.03	0.01735
2411.68	0.01533
2421.33	0.01127
2430.97	0.01009
2440.62	0.01035
2450.27	0.01161
2459.91	0.013622
2469.56	0.0166
2479.21	0.01734
2488.85	0.0141871
2498.5	0.01234
2508.15	0.01538
2517.79	0.0214
2527.44	0.02583
2537.09	0.0235
2546.73	0.02027
2556.38	0.0224
2566.03	0.02448
2575.67	0.02312
2585.32	0.01819
2594.96	0.01715
2604.61	0.01888
2614.26	0.0202
2623.9	0.01967
2633.55	0.01705
2643.2	0.01581
2652.84	0.01599
2662.49	0.0143837
2672.14	0.01035
2681.78	0.0074
2691.43	0.00706
2701.08	0.00767
2710.72	0.00848
2720.37	0.00944
2730.02	0.0098
2739.66	0.00844
2749.31	0.0069
2758.96	0.00652
2768.6	0.00672
2778.25	0.00668
2787.9	0.00668
2797.54	0.0071
2807.19	0.00731
2816.84	0.00681
2826.48	0.00597
2836.13	0.00573
2845.77	0.00569
2855.42	0.00563
2865.07	0.0055
2874.71	0.00583
2884.36	0.00658
2894.01	0.00727
2903.65	0.00786
2913.3	0.00759
2922.95	0.00773
2932.59	0.00824
2942.24	0.00705
2951.89	0.00486
2961.53	0.00385
2971.18	0.00433
2980.83	0.00555
2990.47	0.00539
3000.12	0.00386
3009.77	0.00249
3019.41	0.00218
3029.06	0.00231
3038.71	0.00216
3048.35	0.00234
3058	0.00305
3067.64	0.0037
3077.29	0.00488
3086.94	0.01133
3096.58	0.02475
3106.23	0.02305
3115.88	0.00814
3125.52	0.00245
3135.17	0.00219
3144.82	0.00252
3154.46	0.00241
3164.11	0.00203
3173.76	0.00149
3183.4	0.00105
3193.05	0.00071
3202.7	5e-05
3212.34	0.00022
3221.99	0.00073
3231.64	0.00116
3241.28	0.00167
3250.93	0.00404
3260.58	0.00769
3270.22	0.00807
3279.87	0.00619
3289.52	0.00594
3299.16	0.00659
3308.81	0.00697
3318.45	0.00674
3328.1	0.00722
3337.75	0.00786
3347.39	0.00615
3357.04	0.00432
3366.69	0.00408
3376.33	0.00404
3385.98	0.00364
3395.63	0.00364
3405.27	0.00373
3414.92	0.00404
3424.57	0.004
3434.21	0.0036
3443.86	0.00366
3453.51	0.00378
3463.15	0.0039
3472.8	0.00394
3482.45	0.00399
3492.09	0.00385
3501.74	0.00399
3511.39	0.0045
3521.03	0.00494
3530.68	0.00545
3540.33	0.00587
3549.97	0.00648
3559.62	0.00726
3569.26	0.00852
3578.91	0.01133
3588.56	0.01784
3598.2	0.04166
3607.85	0.19809
3617.5	0.83016
3627.14	0.88019
3636.79	0.24924
3646.44	0.03568
3656.08	0.01668
3665.73	0.012678
3675.38	0.01064
3685.02	0.00949
3694.67	0.00877
3704.32	0.0082
3713.96	0.00757
3723.61	0.0071
3733.26	0.00703
3742.9	0.0072
3752.55	0.00731
3762.2	0.00731
3771.84	0.00733
3781.49	0.00751
3791.13	0.00787
3800.78	0.00825
3810.43	0.00952
3820.07	0.01015
3829.72	0.01023
3839.37	0.00959
3849.01	0.00986
3858.66	0.00977
3868.31	0.0096
3877.95	0.0093
3887.6	0.0097
3897.25	0.01185
3906.89	0.0142528
3916.54	0.013657
3926.19	0.01219
3935.83	0.01214
3945.48	0.01111
3955.13	0.01033
3964.77	0.00978
3974.42	0.01145
3984.07	0.013214
3993.71	0.01011
