Infrared Spectrum: 2,4,6-Trimethylstyrene
Formula: C 11 H 14
CAS: 769-25-5
State: gas
Instrument: HP-GC/MS/IRD
Origin: NIST Mass Spectrometry Data Center
1/CM	ABSORBANCE
550	0.0006188
562	0.0004242
574	0.0007602
586	0.0005068
598	0.0002492
610	0.0001708
622	5.74e-05
634	2.52e-05
646	0.0002674
658	0.0005068
670	0.0007112
682	0.0006258
694	0.0003962
706	0.0003262
718	0.000322
730	0.0003612
742	0.0005978
754	0.0008778
766	0.0004956
778	0.0003094
790	0.0002408
802	0.0002128
814	0.0003262
826	0.0007602
838	0.002975
850	0.005831
862	0.0024416
874	0.0008302
886	0.0008414
898	0.0010402
910	0.0028518
922	0.0058352
934	0.003885
946	0.0015456
958	0.0013468
970	0.0016338
982	0.0027776
994	0.003598
1006	0.0025858
1018	0.002107
1030	0.0018452
1042	0.0015624
1054	0.0012642
1066	0.0009422
1078	0.0007518
1090	0.0007966
1102	0.0010542
1114	0.0012488
1126	0.0009856
1138	0.0005698
1150	0.0004536
1162	0.0004746
1174	0.0004592
1186	0.000497
1198	0.0005194
1210	0.0005362
1222	0.0004942
1234	0.0004858
1246	0.000455
1258	0.0004354
1270	0.0005754
1282	0.0007084
1294	0.0009702
1306	0.0009184
1318	0.0006426
1330	0.0006566
1342	0.000742
1354	0.0009142
1366	0.0012222
1378	0.0018802
1390	0.001876
1402	0.0015288
1414	0.001827
1426	0.0024108
1438	0.003031
1450	0.003626
1462	0.0038948
1474	0.00448
1486	0.0041594
1498	0.0028238
1510	0.002275
1522	0.0021224
1534	0.0020734
1546	0.0021098
1558	0.0021056
1570	0.002051
1582	0.0020608
1594	0.0025788
1606	0.0043512
1618	0.004459
1630	0.0036036
1642	0.0021504
1654	0.0007462
1666	0.0004872
1678	0.0004088
1690	0.0003906
1702	0.000518
1714	0.000798
1726	0.0007182
1738	0.000392
1750	0.000371
1762	0.0002716
1774	0.0001764
1786	0.0001694
1798	0.0001358
1810	0.0001344
1822	0.0002072
1834	0.000483
1846	0.0009688
1858	0.0007084
1870	0.0002996
1882	0.0002268
1894	0.0002632
1906	0.0002002
1918	0.0001708
1930	0.0001008
1942	0.0001008
1954	0.000154
1966	0.000147
1978	0.0001176
1990	8.54e-05
2002	1.82e-05
2014	3.92e-05
2026	4.34e-05
2038	7.14e-05
2050	5.32e-05
2062	4.76e-05
2074	7e-05
2086	3.78e-05
2098	3.08e-05
2110	4.76e-05
2122	3.92e-05
2134	2.24e-05
2146	4.34e-05
2158	4.62e-05
2170	3.64e-05
2182	6.16e-05
2194	2.1e-05
2206	5.6e-06
2218	3.22e-05
2230	1.82e-05
2242	1.96e-05
2254	1.4e-05
2266	3.36e-05
2278	2.24e-05
2290	1.26e-05
2302	5.74e-05
2314	0.0001008
2326	9.52e-05
2338	8.96e-05
2350	7.98e-05
2362	0.0001358
2374	8.26e-05
2386	0.0001078
2398	0.0001218
2410	0.0001302
2422	0.0001344
2434	9.8e-05
2446	0.0001274
2458	0.000126
2470	0.0001218
2482	0.0001456
2494	0.000112
2506	9.1e-05
2518	0.000105
2530	7.98e-05
2542	5.32e-05
2554	5.74e-05
2566	5.46e-05
2578	3.36e-05
2590	6.44e-05
2602	5.04e-05
2614	1.96e-05
2626	6.72e-05
2638	7.14e-05
2650	0.0001204
2662	0.0001596
2674	0.0001596
2686	0.0001736
2698	0.0002184
2710	0.0002324
2722	0.0003458
2734	0.000609
2746	0.0007476
2758	0.0004494
2770	0.0003332
2782	0.0004186
2794	0.0004984
2806	0.0006622
2818	0.0008722
2830	0.0012502
2842	0.0019418
2854	0.0035266
2866	0.005964
2878	0.006664
2890	0.0057596
2902	0.0060452
2914	0.0085344
2926	0.013237
2938	0.0131768
2950	0.009415
2962	0.0080766
2974	0.0081256
2986	0.0084182
2998	0.009996
3010	0.0106022
3022	0.0082782
3034	0.0066346
3046	0.0050694
3058	0.003605
3070	0.0031038
3082	0.0044996
3094	0.0042154
3106	0.0014896
3118	0.0007924
3130	0.0005796
3142	0.0004634
3154	0.0003612
3166	0.0003374
3178	0.000203
3190	0.0001974
3202	0.0001778
3214	0.0001386
3226	0.0001274
3238	0.000168
3250	0.0001512
3262	0.0001554
3274	0.0001582
3286	7.7e-05
3298	9.1e-05
3310	8.96e-05
3322	7.98e-05
3334	8.4e-05
3346	7.7e-05
3358	7.84e-05
3370	9.1e-05
3382	2.52e-05
3394	6.16e-05
3406	3.08e-05
3418	6.72e-05
3430	0.0001344
3442	1.82e-05
3454	9.66e-05
3466	9.52e-05
3478	8.26e-05
3490	5.74e-05
3502	5.32e-05
3514	0.000105
3526	9.24e-05
3538	8.82e-05
3550	7.7e-05
3562	0.000126
3574	0.0001064
3586	0.0001064
3598	0.0001442
3610	0.0001694
3622	0.0001274
3634	5.88e-05
3646	0.000112
3658	0.0001414
3670	0.0001218
3682	0.0001106
3694	5.32e-05
3706	9.66e-05
3718	6.86e-05
3730	6.86e-05
3742	7.7e-05
3754	5.46e-05
3766	4.76e-05
3778	5.88e-05
3790	7.98e-05
3802	9.24e-05
3814	8.68e-05
3826	4.76e-05
3838	0.0001428
