Infrared Spectrum: N-CYANO-N-METHYL-5Alpha-PREGNAN-18-AMINE
Formula: C23 H38 N2
CAS: 76938-41-5
State: SOLID (KBr DISC)
Class: COBLENTZ III
Instrument: BECKMAN IR-7
Sampling: TRANSMISSION
Resolution: 4
Origin: THE WORCESTER FOUNDATION FOR EXPERIMENTAL BIOLOGY, Neal L. McNiven
1/CM	TRANSMITTANCE
701.196	0.992
709.932	0.96
718.669	0.8441
727.405	0.834
736.141	0.923
744.878	0.923
753.614	0.921
762.35	0.918
771.087	0.899
779.823	0.857
788.56	0.852
797.296	0.838
806.032	0.887
814.769	0.888
823.505	0.772
832.241	0.76
840.978	0.876
849.714	0.837
858.45	0.888
867.187	0.885
875.923	0.875
884.659	0.877
893.396	0.869
902.132	0.842
910.869	0.7631
919.605	0.762
928.341	0.738
937.078	0.717
945.814	0.823
954.55	0.758
963.287	0.806
972.023	0.762
980.759	0.791
989.496	0.799
998.232	0.794
1006.97	0.758
1015.7	0.753
1024.44	0.715
1033.18	0.711
1041.91	0.568
1050.65	0.572
1059.39	0.612
1068.12	0.555
1076.86	0.62
1085.6	0.728
1094.33	0.735
1103.07	0.728
1111.8	0.71
1120.54	0.742
1129.28	0.653
1138.01	0.729
1146.75	0.772
1155.49	0.721
1164.22	0.758
1172.96	0.761
1181.7	0.792
1190.43	0.735
1199.17	0.722
1207.9	0.785
1216.64	0.765
1225.38	0.787
1234.11	0.768
1242.85	0.695
1251.59	0.725
1260.32	0.751
1269.06	0.76
1277.8	0.776
1286.53	0.755
1295.27	0.72
1304	0.755
1312.74	0.772
1321.48	0.742
1330.21	0.697
1338.95	0.65
1347.69	0.694
1356.42	0.647
1365.16	0.633
1373.9	0.361
1382.63	0.574
1391.37	0.692
1400.1	0.714
1408.84	0.725
1417.58	0.705
1426.31	0.668
1435.05	0.503
1443.79	0.362
1452.52	0.257
1461.26	0.385
1470	0.462
1478.73	0.708
1487.47	0.747
1496.2	0.767
1504.94	0.761
1513.68	0.779
1522.41	0.779
1531.15	0.79
1539.89	0.785
1548.62	0.789
1557.36	0.776
1566.1	0.785
1574.83	0.78
1583.57	0.781
1592.3	0.777
1601.04	0.774
1609.78	0.77
1618.51	0.766
1627.25	0.768
1635.99	0.763
1644.72	0.763
1653.46	0.757
1662.19	0.765
1670.93	0.763
1679.67	0.751
1688.4	0.768
1697.14	0.766
1705.88	0.773
1714.61	0.768
1723.35	0.773
1732.09	0.764
1740.82	0.775
1749.56	0.784
1758.29	0.789
1767.03	0.79
1775.77	0.792
1784.5	0.792
1793.24	0.792
1801.98	0.793
1810.71	0.794
1819.45	0.793
1828.19	0.792
1836.92	0.791
1845.66	0.79
1854.39	0.79
1863.13	0.788
1871.87	0.788
1880.6	0.789
1889.34	0.786
1898.08	0.786
1906.81	0.784
1915.55	0.784
1924.29	0.783
1933.02	0.782
1941.76	0.781
1950.49	0.778
1959.23	0.776
1967.97	0.775
1976.7	0.773
1985.44	0.772
1994.18	0.771
2002.91	0.771
2011.65	0.771
2020.39	0.771
2029.12	0.771
2037.86	0.771
2046.59	0.771
2055.33	0.771
2064.07	0.771
2072.8	0.7709
2081.54	0.769
2090.28	0.7689
2099.01	0.768
2107.75	0.768
2116.49	0.768
2125.22	0.768
2133.96	0.768
2142.69	0.768
2151.43	0.7681
2160.17	0.7689
2168.9	0.7678
2177.64	0.7637
2186.38	0.7433
2195.11	0.645
2203.85	0.4512
2212.59	0.2634
2221.32	0.1639
2230.06	0.3542
2238.79	0.5003
2247.53	0.6777
2256.27	0.698
2265	0.7253
2273.74	0.7313
2282.48	0.734
2291.21	0.736
2299.95	0.7357
2308.69	0.7347
2317.42	0.734
2326.16	0.73
2334.89	0.7277
2343.63	0.726
2352.37	0.725
2361.1	0.7243
2369.84	0.726
2378.58	0.7274
2387.31	0.7308
2396.05	0.7334
2404.79	0.7334
2413.52	0.733
2422.26	0.731
2430.99	0.731
2439.73	0.731
2448.47	0.731
2457.2	0.731
2465.94	0.731
2474.68	0.731
2483.41	0.7285
2492.15	0.726
2500.88	0.726
2509.62	0.725
2518.36	0.7235
2527.09	0.723
2535.83	0.721
2544.57	0.7195
2553.3	0.7155
2562.04	0.7135
2570.78	0.713
2579.51	0.7124
2588.25	0.7104
2596.98	0.7044
2605.72	0.7014
2614.46	0.6994
2623.19	0.697
2631.93	0.6934
2640.67	0.6871
2649.4	0.6797
2658.14	0.6737
2666.88	0.673
2675.61	0.6773
2684.35	0.6837
2693.08	0.6823
2701.82	0.6766
2710.56	0.6689
2719.29	0.6643
2728.03	0.6573
2736.77	0.6622
2745.5	0.663
2754.24	0.6575
2762.98	0.6523
2771.71	0.6397
2780.45	0.6287
2789.18	0.6141
2797.92	0.5912
2806.66	0.5551
2815.39	0.4994
2824.13	0.4199
2832.87	0.327
2841.6	0.2398
2850.34	0.191
2859.08	0.1953
2867.81	0.184
2876.55	0.2406
2885.28	0.2711
2894.02	0.2317
2902.76	0.186
2911.49	0.1324
2920.23	0.0857
2928.97	0.0772
2937.7	0.1016
2946.44	0.1286
2955.18	0.1384
2963.91	0.2321
2972.65	0.3994
2981.38	0.493
2990.12	0.5248
2998.86	0.5428
3007.59	0.5808
3016.33	0.605
3025.07	0.632
3033.8	0.648
3042.54	0.657
3051.28	0.6611
3060.01	0.663
3068.75	0.663
3077.48	0.6629
3086.22	0.6609
3094.96	0.6599
3103.69	0.657
3112.43	0.657
3121.17	0.6561
3129.9	0.657
3138.64	0.6571
3147.38	0.6581
3156.11	0.6589
3164.85	0.66
3173.58	0.66
3182.32	0.659
3191.06	0.6582
3199.79	0.658
3208.53	0.658
3217.27	0.658
3226	0.657
3234.74	0.657
3243.48	0.6558
3252.21	0.653
3260.95	0.652
3269.68	0.652
3278.42	0.652
3287.16	0.652
3295.89	0.652
3304.63	0.652
3313.37	0.651
3322.1	0.6507
3330.84	0.6497
3339.57	0.6477
3348.31	0.644
3357.05	0.643
3365.78	0.642
3374.52	0.641
3383.26	0.6396
3391.99	0.6386
3400.73	0.636
3409.47	0.6322
3418.2	0.6296
3426.94	0.628
3435.67	0.626
3444.41	0.6256
3453.15	0.625
3461.88	0.626
3470.62	0.6274
3479.36	0.6304
3488.09	0.6345
3496.83	0.639
3505.57	0.642
3514.3	0.643
3523.04	0.644
3531.77	0.6465
3540.51	0.6495
3549.25	0.65
3557.98	0.65
3566.72	0.65
3575.46	0.6505
3584.19	0.652
3592.93	0.6541
3601.67	0.6566
3610.4	0.6586
3619.14	0.6616
3627.87	0.663
3636.61	0.663
3645.35	0.6604
3654.08	0.66
3662.82	0.659
3671.56	0.6574
3680.29	0.657
3689.03	0.6587
3697.77	0.66
3706.5	0.6607
3715.24	0.6617
3723.97	0.6613
3732.71	0.6603
3741.45	0.6593
3750.18	0.657
3758.92	0.658
3767.66	0.659
3776.39	0.66
3785.13	0.6575
3793.87	0.656
3802.6	0.655
3811.34	0.654
3820.07	0.653
3828.81	0.6522
3837.55	0.652
3846.28	0.652
3855.02	0.651
3863.76	0.651
3872.49	0.65
3881.23	0.65
3889.97	0.65
3898.7	0.65
3907.44	0.65
3916.17	0.65
3924.91	0.6491
3933.65	0.649
3942.38	0.648
3951.12	0.647
3959.86	0.647
3968.59	0.6461
3977.33	0.645
3986.07	0.644
3994.8	0.644
4003.54	0.644
