Infrared Spectrum: sec-Butyl ethyl sulphoxide
Formula: C 6 H 14 O S
CAS: 7694-18-0
State: gas
Origin: EPA-IR VAPOR PHASE LIBRARY
1/CM	ABSORBANCE
549.8	0.003114
559.445	0.002754
569.09	0.002204
578.734	0.003104
588.379	0.002844
598.024	0.003994
607.669	0.003814
617.313	0.005384
626.958	0.005414
636.603	0.005334
646.248	0.005954
655.893	0.005204
665.537	0.006294
675.182	0.006524
684.827	0.005314
694.472	0.004884
704.116	0.005414
713.761	0.006824
723.406	0.010514
733.051	0.017074
742.695	0.025864
752.34	0.030234
761.985	0.028454
771.63	0.023104
781.275	0.014114
790.919	0.007614
800.564	0.004984
810.209	0.003414
819.854	0.003354
829.498	0.002874
839.143	0.002574
848.788	0.003654
858.433	0.003914
868.078	0.004394
877.722	0.005144
887.367	0.006654
897.012	0.007934
906.657	0.008784
916.301	0.009784
925.946	0.010074
935.591	0.009504
945.236	0.010184
954.88	0.010804
964.525	0.009614
974.17	0.009304
983.815	0.008834
993.46	0.009534
1003.1	0.008594
1012.75	0.008594
1022.39	0.007034
1032.04	0.006724
1041.68	0.007814
1051.33	0.007674
1060.97	0.010644
1070.62	0.013454
1080.26	0.014464
1089.91	0.009664
1099.55	0.006124
1109.2	0.006474
1118.84	0.007264
1128.49	0.008824
1138.13	0.013234
1147.78	0.020124
1157.42	0.019414
1167.07	0.019674
1176.71	0.016574
1186.36	0.008024
1196	0.004134
1205.64	0.003894
1215.29	0.003974
1224.93	0.002574
1234.58	0.004344
1244.22	0.004674
1253.87	0.006744
1263.51	0.007494
1273.16	0.006124
1282.8	0.005354
1292.45	0.004174
1302.09	0.004194
1311.74	0.003804
1321.38	0.003774
1331.03	0.003944
1340.67	0.004514
1350.32	0.004224
1359.96	0.005224
1369.61	0.006384
1379.25	0.008034
1388.9	0.008654
1398.54	0.008404
1408.18	0.007674
1417.83	0.007914
1427.47	0.008314
1437.12	0.009914
1446.76	0.011334
1456.41	0.012284
1466.05	0.011154
1475.7	0.009384
1485.34	0.007184
1494.99	0.005654
1504.63	0.004734
1514.28	0.003844
1523.92	0.003524
1533.57	0.002754
1543.21	0.002644
1552.86	0.002384
1562.5	0.002144
1572.15	0.002214
1581.79	0.001944
1591.44	0.0018643
1601.08	0.002694
1610.73	0.002724
1620.37	0.004084
1630.01	0.004584
1639.66	0.004684
1649.3	0.004544
1658.95	0.003834
1668.59	0.002654
1678.24	0.002304
1687.88	0.001994
1697.53	0.0017876
1707.17	0.001934
1716.82	0.001994
1726.46	0.0012871
1736.11	0.001521
1745.75	0.0012903
1755.4	0.0013705
1765.04	0.0013831
1774.69	0.0014058
1784.33	0.0015732
1793.98	0.0013406
1803.62	0.0014667
1813.27	0.001781
1822.91	0.001954
1832.55	0.0017411
1842.2	0.001974
1851.84	0.0016543
1861.49	0.0014768
1871.13	0.0013546
1880.78	0.0011694
1890.42	0.0014319
1900.07	0.0011897
1909.71	0.001397
1919.36	0.0014308
1929	0.0014989
1938.65	0.0013048
1948.29	0.0011144
1957.94	0.0010226
1967.58	0.0012409
1977.23	0.001065
1986.87	0.0011131
1996.52	0.0014542
2006.16	0.00101162
2015.81	0.0011005
2025.45	0.0010615
2035.1	0.00103395
2044.74	0.00103215
2054.38	0.00101969
2064.03	0.00102208
2073.67	0.000745
2083.32	0.00098609
2092.96	0.00096699
2102.61	0.00102023
2112.25	0.00101775
2121.9	0.0008422
2131.54	0.0011098
2141.19	0.0012072
2150.83	0.0012591
2160.48	0.0011043
2170.12	0.0011571
2179.77	0.00092951
2189.41	0.0009074
2199.06	0.00102833
2208.7	0.0010961
2218.35	0.00100918
2227.99	0.0010906
2237.64	0.00101941
2247.28	0.0012831
2256.92	0.00100436
2266.57	0.0013694
2276.21	0.0015947
2285.86	0.001964
2295.5	0.002054
2305.15	0.002164
2314.79	0.002014
2324.44	0.0016775
2334.08	0.0014034
2343.73	0.001139
2353.37	0.0012584
2363.02	0.0011803
2372.66	0.0013431
2382.31	0.00097594
2391.95	0.0009024
2401.6	0.0012275
2411.24	0.0010872
2420.89	0.0011805
2430.53	0.0014657
2440.18	0.0011685
2449.82	0.00100611
2459.47	0.0010728
2469.11	0.0013508
2478.75	0.0011317
2488.4	0.001081
2498.04	0.0011958
2507.69	0.0009014
2517.33	0.000817
2526.98	0.0011906
2536.62	0.0010685
2546.27	0.000752
2555.91	0.000758
2565.56	0.0011398
2575.2	0.00074
2584.85	0.00081
2594.49	0.0008525
2604.14	0.000744
2613.78	0.0013472
2623.43	0.0012585
2633.07	0.0014239
2642.72	0.0011644
2652.36	0.0011028
2662.01	0.0011547
2671.65	0.0010743
2681.29	0.0014255
2690.94	0.0012424
2700.58	0.0016295
2710.23	0.0014518
2719.87	0.0016333
2729.52	0.0014532
2739.16	0.002214
2748.81	0.002434
2758.45	0.002254
2768.1	0.001994
2777.74	0.002174
2787.39	0.002534
2797.03	0.002784
2806.68	0.003284
2816.32	0.003894
2825.97	0.005004
2835.61	0.005884
2845.26	0.007734
2854.9	0.011254
2864.55	0.015834
2874.19	0.021624
2883.84	0.025164
2893.48	0.028334
2903.12	0.030454
2912.77	0.033044
2922.41	0.038374
2932.06	0.043274
2941.7	0.046034
2951.35	0.047064
2960.99	0.049574
2970.64	0.052104
2980.28	0.050824
2989.93	0.041644
2999.57	0.030164
3009.22	0.021754
3018.86	0.016714
3028.51	0.013234
3038.15	0.011164
3047.8	0.010164
3057.44	0.009284
3067.09	0.009784
3076.73	0.008954
3086.38	0.008634
3096.02	0.007734
3105.67	0.006384
3115.31	0.004764
3124.95	0.004214
3134.6	0.003244
3144.24	0.002684
3153.89	0.002784
3163.53	0.002174
3173.18	0.002024
3182.82	0.002044
3192.47	0.0018368
3202.11	0.002064
3211.76	0.0014887
3221.4	0.0010808
3231.05	0.001483
3240.69	0.0012698
3250.34	0.0018171
3259.98	0.0008379
3269.63	0.001637
3279.27	0.002004
3288.92	0.0012763
3298.56	0.0014072
3308.21	0.0013074
3317.85	0.000491
3327.49	0.000678
3337.14	0.0008382
3346.78	0.0010843
3356.43	0.0017136
3366.07	0.000786
3375.72	0.000438
3385.36	0.00098316
3395.01	0.00025
3404.65	0.000602
3414.3	0.0008403
3423.94	0.0011351
3433.59	0.00059
3443.23	0.0011119
3452.88	0.000684
3462.52	0.00102761
3472.17	0.0012266
3481.81	0.000798
3491.46	0.00076
3501.1	0.00101647
3510.75	0.001517
3520.39	0
3530.04	0.000595
3539.68	0.0012023
3549.32	0.0016365
3558.97	0.0017286
3568.61	0.003424
3578.26	0.006274
3587.9	0.011174
3597.55	0.017284
3607.19	0.021274
3616.84	0.017754
3626.48	0.012714
3636.13	0.006374
3645.77	0.004124
3655.42	0.002074
3665.06	0.0014174
3674.71	0.0011686
3684.35	0.0008997
3694	0.00094927
3703.64	0.000487
3713.29	0.0013064
3722.93	0.00100457
3732.58	0.0014518
3742.22	0.0016771
3751.86	0.0017247
3761.51	0.000935511
3771.15	0.00096796
3780.8	0.0010768
3790.44	0.0010384
3800.09	0.0012622
3809.73	0.0009925
3819.38	0.0013704
3829.02	0.0012933
3838.67	0.0011425
3848.31	0.00097313
3857.96	0.0015546
3867.6	0.0014511
3877.25	0.0009093
3886.89	0.000639
3896.54	0.0017225
3906.18	0.001313
3915.83	0.0018176
3925.47	0.001146
3935.12	0.002044
3944.76	0.0015264
3954.41	0.0012484
3964.05	0.00127
3973.69	0.00097271
3983.34	0.001595
3992.98	0.0010732
