Infrared Spectrum: DL-alpha-Tocopheryl acetate
Formula: C 31 H 52 O 3
CAS: 7695-91-2
State: gas
Origin: EPA-IR VAPOR PHASE LIBRARY
1/CM	ABSORBANCE
549.8	0.0005904
559.445	0.0010746
569.09	0.000542
578.734	0.0007009
588.379	0.0007632
598.024	0.0004836
607.669	0.000806
617.313	0.0010037
626.958	0.0006891
636.603	0.0004062
646.248	0.00035094
655.893	0.00030871
665.537	0.0004406
675.182	0.0006891
684.827	0.0006628
694.472	0.0004572
704.116	0.0004713
713.761	0.0003857
723.406	0.0003768
733.051	0.0005264
742.695	0.000493
752.34	0.0004682
761.985	0.00032492
771.63	0.00034176
781.275	0.000218
790.919	0.000278234
800.564	0.0004552
810.209	0.0005657
819.854	0.0005056
829.498	0.0005743
839.143	0.0007756
848.788	0.0008494
858.433	0.0008209
868.078	0.000689
877.722	0.0009393
887.367	0.001553
897.012	0.002083
906.657	0.002153
916.301	0.002703
925.946	0.002533
935.591	0.002043
945.236	0.001543
954.88	0.0012646
964.525	0.0012317
974.17	0.001313
983.815	0.001613
993.46	0.002243
1003.1	0.003273
1012.75	0.003553
1022.39	0.002583
1032.04	0.002713
1041.68	0.003733
1051.33	0.004983
1060.97	0.006313
1070.62	0.008393
1080.26	0.010083
1089.91	0.008743
1099.55	0.007203
1109.2	0.007613
1118.84	0.005183
1128.49	0.004303
1138.13	0.004153
1147.78	0.005303
1157.42	0.006133
1167.07	0.006233
1176.71	0.006903
1186.36	0.010223
1196	0.025103
1205.64	0.047233
1215.29	0.019523
1224.93	0.006793
1234.58	0.004293
1244.22	0.004263
1253.87	0.004213
1263.51	0.002643
1273.16	0.001933
1282.8	0.001653
1292.45	0.001733
1302.09	0.001843
1311.74	0.002133
1321.38	0.002763
1331.03	0.003243
1340.67	0.002723
1350.32	0.003323
1359.96	0.005463
1369.61	0.010773
1379.25	0.009083
1388.9	0.005403
1398.54	0.003713
1408.18	0.004743
1417.83	0.006583
1427.47	0.005683
1437.12	0.005923
1446.76	0.007003
1456.41	0.007863
1466.05	0.007173
1475.7	0.004563
1485.34	0.002803
1494.99	0.001973
1504.63	0.001653
1514.28	0.001373
1523.92	0.001313
1533.57	0.001273
1543.21	0.001313
1552.86	0.001343
1562.5	0.001453
1572.15	0.001553
1581.79	0.001343
1591.44	0.000941
1601.08	0.0008854
1610.73	0.0007619
1620.37	0.0006957
1630.01	0.0006852
1639.66	0.000595
1649.3	0.0006265
1658.95	0.0005672
1668.59	0.0006643
1678.24	0.0005643
1687.88	0.0006172
1697.53	0.0006809
1707.17	0.0008289
1716.82	0.0009649
1726.46	0.0010853
1736.11	0.0012722
1745.75	0.001643
1755.4	0.003123
1765.04	0.006813
1774.69	0.012403
1784.33	0.008213
1793.98	0.002883
1803.62	0.001513
1813.27	0.0011427
1822.91	0.0010188
1832.55	0.000883
1842.2	0.0006972
1851.84	0.0005619
1861.49	0.0004268
1871.13	0.0004325
1880.78	0.0003628
1890.42	0.0003748
1900.07	0.00034951
1909.71	0.0004071
1919.36	0.00036134
1929	0.0004006
1938.65	0.00033903
1948.29	0.00032143
1957.94	0.00031775
1967.58	0.00034214
1977.23	0.00032476
1986.87	0.00029133
1996.52	0.00031532
2006.16	0.00032193
2015.81	0.00036064
2025.45	0.00032111
2035.1	0.00033248
2044.74	0.0003906
2054.38	0.0004009
2064.03	0.0004458
2073.67	0.00036785
2083.32	0.0004442
2092.96	0.000419
2102.61	0.0003875
2112.25	0.0003438
2121.9	0.00034118
2131.54	0.00036005
2141.19	0.000280163
2150.83	0.00032467
2160.48	0.00032006
2170.12	0.00026659
2179.77	0.0002689
2189.41	0.000239
2199.06	0.000282474
2208.7	0.000272972
2218.35	0.00032791
2227.99	0.0002388
2237.64	0.0002595
2247.28	0.000275708
2256.92	0.000276427
2266.57	0.000224
2276.21	0.0002477
2285.86	0.00029313
2295.5	0.000252
2305.15	0.00026487
2314.79	0.0002592
2324.44	0.00028852
2334.08	0.0002991
2343.73	0.00036269
2353.37	0.00033386
2363.02	0.00036711
2372.66	0.00034286
2382.31	0.00030153
2391.95	0.00030965
2401.6	0.00034998
2411.24	0.0003747
2420.89	0.00034497
2430.53	0.00036037
2440.18	0.00032975
2449.82	0.00029532
2459.47	0.00035813
2469.11	0.00027182
2478.75	0.0002432
2488.4	0.00030461
2498.04	0.00035773
2507.69	0.0003995
2517.33	0.000376
2526.98	0.00031525
2536.62	0.0003485
2546.27	0.00035385
2555.91	0.00035499
2565.56	0.0004647
2575.2	0.0004563
2584.85	0.0004701
2594.49	0.0003953
2604.14	0.000415
2613.78	0.0004761
2623.43	0.0004704
2633.07	0.000437
2642.72	0.0005374
2652.36	0.0005859
2662.01	0.0005373
2671.65	0.0005729
2681.29	0.0005556
2690.94	0.000518
2700.58	0.0006343
2710.23	0.0006935
2719.87	0.0006826
2729.52	0.0008574
2739.16	0.0008832
2748.81	0.0008856
2758.45	0.0007331
2768.1	0.0008178
2777.74	0.0008874
2787.39	0.0009324
2797.03	0.0011307
2806.68	0.001293
2816.32	0.001633
2825.97	0.002083
2835.61	0.002993
2845.26	0.005383
2854.9	0.009393
2864.55	0.010393
2874.19	0.012563
2883.84	0.012463
2893.48	0.012013
2903.12	0.016033
2912.77	0.019613
2922.41	0.022623
2932.06	0.028913
2941.7	0.028763
2951.35	0.024253
2960.99	0.025113
2970.64	0.018503
2980.28	0.010883
2989.93	0.005923
2999.57	0.003463
3009.22	0.002653
3018.86	0.002353
3028.51	0.002083
3038.15	0.001863
3047.8	0.001623
3057.44	0.001473
3067.09	0.001333
3076.73	0.0011291
3086.38	0.0009817
3096.02	0.0007535
3105.67	0.0006976
3115.31	0.0007145
3124.95	0.0005543
3134.6	0.0005427
3144.24	0.0004702
3153.89	0.0005047
3163.53	0.0005931
3173.18	0.0005519
3182.82	0.0004906
3192.47	0.0004354
3202.11	0.0003887
3211.76	0.0004196
3221.4	0.0002235
3231.05	0.00032666
3240.69	0.0002561
3250.34	0.00029447
3259.98	0.000166
3269.63	0.00030356
3279.27	0.00036651
3288.92	0.0002516
3298.56	0.0002628
3308.21	0.0002445
3317.85	0.0002182
3327.49	0.00029993
3337.14	0.00026596
3346.78	0.0002265
3356.43	0.00031169
3366.07	0.0001782
3375.72	0.0001866
3385.36	0.0001768
3395.01	0.0002546
3404.65	0.0002303
3414.3	0.0002334
3423.94	0.00031897
3433.59	0.000174
3443.23	0.000169
3452.88	0.0002612
3462.52	0.0001927
3472.17	0.0002597
3481.81	0.0002477
3491.46	0.000123
3501.1	0.0002308
3510.75	0.0002853
3520.39	0.0002248
3530.04	0.0003775
3539.68	0.0002074
3549.32	0.0002526
3558.97	0.0001865
3568.61	0.0002509
3578.26	0.0002542
3587.9	0.000281566
3597.55	0.0001774
3607.19	0.000137
3616.84	0.000179
3626.48	6.3e-05
3636.13	0.00024
3645.77	0.000280587
3655.42	0.0002405
3665.06	0.0001992
3674.71	0.0002233
3684.35	0.000164
3694	0.0002098
3703.64	0.0001796
3713.29	0.0002355
3722.93	0.0002344
3732.58	0.000154
3742.22	0.000185
3751.86	0.00034826
3761.51	0.000127
3771.15	9.4e-05
3780.8	0.0001737
3790.44	0.000107
3800.09	8.9e-05
3809.73	0.000117
3819.38	0.0002179
3829.02	0.0001888
3838.67	0.0002302
3848.31	0.000114
3857.96	0.00028464
3867.6	0.0001906
3877.25	0.00030322
3886.89	9.6e-05
3896.54	0.0002612
3906.18	0.000186
3915.83	0.0002597
3925.47	0.000282585
3935.12	0.0001825
3944.76	0.0003939
3954.41	0.00013
3964.05	7.8e-05
3973.69	0.000111
3983.34	0.0002164
3992.98	0.00013
