Infrared Spectrum: 3-Methyl-3-hexen-2-ol
Formula: C 7 H 14 O
CAS: 76966-27-3
State: gas
Instrument: HP-GC/MS/IRD
Origin: NIST Mass Spectrometry Data Center
1/CM	ABSORBANCE
550	0.00144
562	0.0007275
574	0.000525
586	0.00055
598	0.0007275
610	0.0006925
622	0.000415
634	0.0001675
646	0.0001125
658	2.75e-05
670	8.25e-05
682	0.000115
694	8e-05
706	0.0001775
718	0.0003125
730	0.0004875
742	0.00063
754	0.00059
766	0.0004875
778	0.000505
790	0.000545
802	0.0006975
814	0.00073
826	0.00089
838	0.00139
850	0.0026975
862	0.0040525
874	0.0040525
886	0.00285
898	0.00225
910	0.0024975
922	0.00241
934	0.0018925
946	0.0020925
958	0.0031
970	0.0032525
982	0.0028475
994	0.0031275
1006	0.0041525
1018	0.0049375
1030	0.005255
1042	0.0052825
1054	0.0059
1066	0.00776
1078	0.0092325
1090	0.008085
1102	0.006085
1114	0.00487
1126	0.003395
1138	0.0020625
1150	0.0013875
1162	0.0012875
1174	0.0015125
1186	0.001795
1198	0.001925
1210	0.0020125
1222	0.002405
1234	0.0034475
1246	0.004815
1258	0.0044175
1270	0.0028775
1282	0.002325
1294	0.0029625
1306	0.0039
1318	0.0041725
1330	0.0037575
1342	0.003675
1354	0.0040075
1366	0.005065
1378	0.0060975
1390	0.00518
1402	0.0033825
1414	0.0024125
1426	0.002335
1438	0.0028775
1450	0.0033925
1462	0.003485
1474	0.00267
1486	0.0016775
1498	0.001175
1510	0.0011125
1522	0.0008925
1534	0.0006925
1546	0.000665
1558	0.000665
1570	0.000445
1582	0.00036
1594	0.00039
1606	0.0004425
1618	0.0004375
1630	0.0003675
1642	0.00041
1654	0.000545
1666	0.0004075
1678	0.0003725
1690	0.0003175
1702	0.0004125
1714	0.0003925
1726	0.0002175
1738	0.0002125
1750	0.0002
1762	0.0001125
1774	0.000105
1786	0.0001475
1798	0.0001575
1810	0.0001075
1822	8.5e-05
1834	8.5e-05
1846	0.0001175
1858	6.25e-05
1870	9.25e-05
1882	5.25e-05
1894	7.5e-05
1906	7.75e-05
1918	0.0001225
1930	6.75e-05
1942	7e-05
1954	4e-05
1966	5.25e-05
1978	1.25e-05
1990	4.25e-05
2002	1.25e-05
2014	1e-05
2026	7.5e-06
2038	5e-06
2050	1e-05
2062	2.5e-06
2074	1.25e-05
2086	3.5e-05
2098	1.25e-05
2110	2.25e-05
2122	3.75e-05
2134	4.25e-05
2146	2.75e-05
2158	2.25e-05
2170	2e-05
2182	3.75e-05
2194	2.5e-05
2206	2.5e-05
2218	2.75e-05
2230	4.25e-05
2242	3.75e-05
2254	5.25e-05
2266	4.5e-05
2278	4e-05
2290	5.5e-05
2302	5.5e-05
2314	5.75e-05
2326	5.5e-05
2338	8e-05
2350	6.75e-05
2362	8.75e-05
2374	0.0001125
2386	0.0001275
2398	0.00013
2410	0.000115
2422	0.0001125
2434	8.75e-05
2446	8.5e-05
2458	8.75e-05
2470	6e-05
2482	7.5e-05
2494	7.5e-05
2506	6.75e-05
2518	7.5e-05
2530	6.75e-05
2542	0.00011
2554	0.0001125
2566	0.0001525
2578	0.0002
2590	0.00024
2602	0.00022
2614	0.0002475
2626	0.00023
2638	0.000215
2650	0.00021
2662	0.00021
2674	0.000225
2686	0.00024
2698	0.0002975
2710	0.0003475
2722	0.000445
2734	0.0006125
2746	0.00067
2758	0.0006575
2770	0.0007
2782	0.0007775
2794	0.0009325
2806	0.0012
2818	0.001605
2830	0.0022725
2842	0.0035175
2854	0.0057675
2866	0.008855
2878	0.0119525
2890	0.0127025
2902	0.01169
2914	0.0118375
2926	0.0134475
2938	0.015395
2950	0.0153025
2962	0.0188925
2974	0.025
2986	0.0204475
2998	0.0115875
3010	0.00658
3022	0.00448
3034	0.00333
3046	0.0026
3058	0.0019825
3070	0.0015075
3082	0.00126
3094	0.00111
3106	0.0009275
3118	0.0007325
3130	0.0006275
3142	0.0005275
3154	0.0004375
3166	0.00034
3178	0.000315
3190	0.000265
3202	0.000235
3214	0.000155
3226	0.0001475
3238	7.5e-05
3250	6.5e-05
3262	4.25e-05
3274	4.25e-05
3286	2.75e-05
3298	6e-05
3310	4e-05
3322	3.75e-05
3334	2e-05
3346	7.5e-05
3358	7.5e-05
3370	5.5e-05
3382	9.5e-05
3394	5.75e-05
3406	8e-05
3418	9.25e-05
3430	8.5e-05
3442	7.25e-05
3454	6.75e-05
3466	5.5e-05
3478	4.75e-05
3490	7e-05
3502	0.00015
3514	5.25e-05
3526	0.000135
3538	3.75e-05
3550	0.000125
3562	9.75e-05
3574	5.75e-05
3586	0.000205
3598	0.0001775
3610	0.000385
3622	0.0006525
3634	0.00148
3646	0.0024675
3658	0.0019275
3670	0.0008875
3682	0.000275
3694	0.0001725
3706	0.0001475
3718	0.000105
3730	0.0001375
3742	0.000195
3754	0.0001025
3766	3.75e-05
3778	3.75e-05
3790	5.5e-05
3802	9.75e-05
3814	6.75e-05
3826	9e-05
3838	0.00015
