Infrared Spectrum: 23.3% Nitric acid in water
Formula: H N O 3 in H 2 O
CAS: 7697-37-2
State: liquid
Instrument: Bruker Tensor 37 FTIR
Resolution: 0.48208331
Origin: Pacific Northwest National Laboratory Under IARPA Contract
1/cm	absorption index
4998.37	1.30811
4987.53	1.30817
4976.68	1.30802
4965.83	1.30769
4954.99	1.30725
4944.14	1.30692
4933.29	1.30641
4922.45	1.306
4911.6	1.30539
4900.76	1.30511
4889.91	1.30457
4879.06	1.30403
4868.22	1.30336
4857.37	1.303
4846.52	1.3023
4835.68	1.3017
4824.83	1.30116
4813.99	1.30057
4803.14	1.29991
4792.29	1.29926
4781.45	1.29848
4770.6	1.29773
4759.75	1.29709
4748.91	1.29629
4738.06	1.29548
4727.21	1.29474
4716.37	1.29383
4705.52	1.29297
4694.68	1.29201
4683.83	1.29114
4672.98	1.29007
4662.14	1.28903
4651.29	1.28803
4640.44	1.28682
4629.6	1.28561
4618.75	1.2844
4607.91	1.28315
4597.06	1.28175
4586.21	1.28033
4575.37	1.27879
4564.52	1.2772
4553.67	1.27557
4542.83	1.27389
4531.98	1.27199
4521.14	1.27013
4510.29	1.26799
4499.44	1.26593
4488.6	1.26356
4477.75	1.26111
4466.9	1.25835
4456.06	1.25525
4445.21	1.25189
4434.37	1.24809
4423.52	1.2437
4412.67	1.23887
4401.83	1.23324
4390.98	1.22685
4380.13	1.21938
4369.29	1.20981
4358.44	1.1979
4347.6	1.18248
4336.75	1.16366
4325.9	1.14819
4315.06	1.14196
4304.21	1.14331
4293.36	1.14933
4282.52	1.15775
4271.67	1.16837
4260.83	1.18078
4249.98	1.19512
4239.13	1.21167
4228.29	1.23032
4217.44	1.25127
4206.59	1.27372
4195.75	1.29646
4184.9	1.31706
4174.06	1.3344
4163.21	1.34765
4152.36	1.35837
4141.52	1.36796
4130.67	1.37771
4119.82	1.3883
4108.98	1.39834
4098.13	1.40621
4087.29	1.41129
4076.44	1.41393
4065.59	1.41457
4054.75	1.41381
4043.9	1.41208
4033.05	1.40979
4022.21	1.40703
4011.36	1.40392
4000.51	1.40065
3989.67	1.39746
3978.82	1.39427
3967.98	1.39113
3957.13	1.3882
3946.28	1.38542
3935.44	1.38269
3924.59	1.38013
3913.74	1.37772
3902.9	1.37542
3892.05	1.3733
3881.21	1.37135
3870.36	1.36958
3859.51	1.36782
3848.67	1.36604
3837.82	1.36418
3826.97	1.36229
3816.13	1.36034
3805.28	1.35832
3794.44	1.35627
3783.59	1.35417
3772.74	1.35206
3761.9	1.3499
3751.05	1.34769
3740.2	1.34554
3729.36	1.34366
3718.51	1.34226
3707.67	1.34085
3696.82	1.33947
3685.97	1.33825
3675.13	1.33776
3664.28	1.33671
3653.43	1.33548
3642.59	1.33421
3631.74	1.33304
3620.9	1.3319
3610.05	1.331
3599.2	1.32999
3588.36	1.32899
3577.51	1.32814
3566.66	1.32733
3555.82	1.32654
3544.97	1.32566
3534.13	1.32468
3523.28	1.3235
3512.43	1.32194
3501.59	1.32002
3490.74	1.31763
3479.89	1.3149
3469.05	1.31204
3458.2	1.30918
3447.36	1.3065
3436.51	1.30415
3425.66	1.30216
3414.82	1.30059
3403.97	1.29932
3393.12	1.29851
3382.28	1.2991
3371.43	1.30026
3360.59	1.29813
3349.74	1.29463
3338.89	1.29376
3328.05	1.31075
3317.2	1.35587
3306.35	1.39183
3295.51	1.38536
3284.66	1.36831
3273.82	1.35091
3262.97	1.33391
3252.12	1.31572
3241.28	1.29505
3230.43	1.2744
3219.58	1.2651
3208.74	1.2836
3197.89	1.32649
3187.04	1.35474
3176.2	1.38277
3165.35	1.4442
3154.51	1.48331
3143.66	1.48215
3132.81	1.46965
3121.97	1.45948
3111.12	1.45256
3100.27	1.44865
3089.43	1.44742
3078.58	1.44729
3067.74	1.44791
3056.89	1.4487
3046.04	1.44928
3035.2	1.44818
3024.35	1.44348
3013.5	1.45062
3002.66	1.44848
2991.81	1.44369
2980.97	1.44131
2970.12	1.44102
2959.27	1.43836
2948.43	1.43699
2937.58	1.43925
2926.73	1.44483
2915.89	1.45935
2905.04	1.49242
2894.2	1.50811
2883.35	1.52856
2872.5	1.55133
2861.66	1.58474
2850.81	1.63829
2839.96	0.00247
2829.12	0.00293076
2818.27	0.00315112
2807.43	0.00244752
2796.58	0.0026361
2785.73	0.00273197
2774.89	0.00174818
2764.04	0.0028186
2753.19	0.00240501
2742.35	0.00197061
2731.5	0.00196299
2720.66	0.00130112
2709.81	0.0021413
2698.96	0.00153266
2688.12	0.00174243
2677.27	0.00178927
2666.42	0.00146225
2655.58	0.00124925
2644.73	0.0022663
2633.89	0.00165451
2623.04	0.00258493
2612.19	0.00245656
2601.35	0.00320048
2590.5	0.00247827
2579.65	0.00339093
2568.81	0.00349378
2557.96	0.00342375
2547.12	0.00403012
2536.27	0.00409615
2525.42	0.00431192
2514.58	0.00516011
2503.73	0.0050705
2492.88	0.00554056
2482.04	0.00588387
2471.19	0.00663663
2460.34	0.00699299
2449.5	0.0077389
2438.65	0.00877031
2427.81	0.00951144
2416.96	0.01025
2406.11	0.0109997
2395.27	0.0123514
2384.42	0.013721
2373.57	0.0150483
2362.73	0.0161167
2351.88	0.0175389
2341.04	0.0186332
2330.19	0.020108
2319.34	0.0205572
2308.5	0.0211405
2297.65	0.0217543
2286.8	0.0222761
2275.96	0.0229584
2265.11	0.0245437
2254.27	0.0264636
2243.42	0.0294373
2232.57	0.0344533
2221.73	0.0386886
2210.88	0.0471308
2200.03	0.0657468
2189.19	0.109069
2178.34	0.211339
2167.5	0.369913
2156.65	0.542724
2145.8	0.700367
2134.96	0.839603
2124.11	0.964993
2113.26	1.0795
2102.42	1.18436
2091.57	1.27892
2080.73	1.36243
2069.88	1.43079
2059.03	1.47705
2048.19	1.49561
2037.34	1.48177
2026.49	1.44129
2015.65	1.38499
2004.8	1.3272
1993.96	1.27536
1983.11	1.23017
1972.26	1.186
1961.42	1.1305
1950.57	1.06033
1939.72	0.97947
1928.88	0.897634
1918.03	0.819872
1907.19	0.74888
1896.34	0.685451
1885.49	0.629447
1874.65	0.580915
1863.8	0.537762
1852.95	0.500296
1842.11	0.468887
1831.26	0.441234
1820.42	0.418263
1809.57	0.398325
1798.72	0.381395
1787.88	0.366496
1777.03	0.353287
1766.18	0.342541
1755.34	0.33306
1744.49	0.324675
1733.65	0.317361
1722.8	0.311163
1711.95	0.304403
1701.11	0.297325
1690.26	0.29079
1679.41	0.284821
1668.57	0.279259
1657.72	0.27467
1646.87	0.270779
1636.03	0.267857
1625.18	0.266164
1614.34	0.265296
1603.49	0.265924
1592.64	0.268425
1581.8	0.273302
1570.95	0.279893
1560.1	0.285353
1549.26	0.290898
1538.41	0.297215
1527.57	0.305336
1516.72	0.308616
1505.87	0.312376
1495.03	0.316487
1484.18	0.322296
1473.33	0.328432
1462.49	0.335594
1451.64	0.341771
1440.8	0.348463
1429.95	0.355642
1419.1	0.36277
1408.26	0.369703
1397.41	0.375686
1386.56	0.381234
1375.72	0.385917
1364.87	0.390334
1354.03	0.394875
1343.18	0.400632
1332.33	0.408965
1321.49	0.421149
1310.64	0.437318
1299.79	0.45801
1288.95	0.482889
1278.1	0.511455
1267.26	0.542095
1256.41	0.577867
1245.56	0.615061
1234.72	0.657718
1223.87	0.69958
1213.02	0.725752
1202.18	0.77177
1191.33	0.862469
1180.49	1.01387
1169.64	1.18662
1158.79	1.15333
1147.95	0.872526
1137.1	0.691086
1126.25	0.613861
1115.41	0.587224
1104.56	0.595121
1093.72	0.635761
1082.87	0.735543
1072.02	0.934441
1061.18	1.23679
1050.33	1.51508
1039.48	1.59372
1028.64	1.63585
1017.79	1.76381
1006.95	1.62891
996.099	1.29553
985.253	1.06903
974.406	0.962144
963.56	0.912225
952.714	0.887317
941.867	0.878711
931.021	0.868641
920.175	0.857591
909.329	0.843968
898.482	0.827973
887.636	0.807261
876.79	0.788354
865.944	0.824342
855.097	0.784725
844.251	0.76225
833.405	0.773449
822.559	0.800226
811.712	0.814754
800.866	0.854084
790.02	0.91777
779.173	0.996995
768.327	1.10148
757.481	1.2374
746.635	1.17016
735.788	1.17432
724.942	1.16849
714.096	1.15369
703.25	1.1069
692.403	1.04899
