Infrared Spectrum: 1,2,5-SELENADIAZOLE-3-CARBOXAMIDE, 4-AMINO-n-METHYL-
Formula: C4 H6 N4 O Se
CAS: 7698-91-1
State: SOLID (1 mg / 650 mg KBr DISC)
Class: COBLENTZ III
Instrument: PERKIN-ELMER 521 (GRATING)
Instrument parameters: FILTERS AT 3150, 2500, 2000, 1150, 700, 410 CM ^-^1, GRATING CHANGES AT 2000, 630 CM^-^1
Sampling: TRANSMISSION
Resolution: 4
Origin: SOUTHERN RES. INSTITUTE
1/CM	TRANSMITTANCE
231.769	0.218
241.052	0.235
250.335	0.262
259.618	0.329
268.902	0.414
278.185	0.461
287.468	0.525
296.751	0.56
306.034	0.57
315.317	0.571
324.6	0.589
333.884	0.666
343.167	0.69
352.45	0.711
361.733	0.734
371.016	0.774
380.299	0.788
389.583	0.796
398.866	0.794
408.149	0.789
417.432	0.782
426.715	0.768
435.998	0.746
445.281	0.678
454.565	0.505
463.848	0.552
473.131	0.703
482.414	0.76
491.697	0.737
500.98	0.774
510.263	0.824
519.547	0.868
528.83	0.875
538.113	0.875
547.396	0.871
556.679	0.865
565.962	0.857
575.246	0.845
584.529	0.824
593.812	0.779
603.095	0.754
612.378	0.744
621.661	0.791
630.944	0.787
640.228	0.795
649.511	0.841
658.794	0.891
668.077	0.91
677.36	0.874
686.643	0.865
695.926	0.872
705.21	0.887
714.493	0.897
723.776	0.892
733.059	0.747
742.342	0.858
751.625	0.908
760.909	0.797
770.192	0.673
779.475	0.871
788.758	0.898
798.041	0.91
807.324	0.928
816.607	0.929
825.891	0.928
835.174	0.92
844.457	0.921
853.74	0.94
863.023	0.939
872.306	0.936
881.589	0.932
890.873	0.931
900.156	0.929
909.439	0.929
918.722	0.928
928.005	0.928
937.288	0.926
946.572	0.922
955.855	0.92
965.138	0.905
974.421	0.891
983.704	0.806
992.987	0.853
1002.27	0.915
1011.55	0.912
1020.84	0.907
1030.12	0.898
1039.4	0.895
1048.69	0.892
1057.97	0.89
1067.25	0.889
1076.54	0.889
1085.82	0.885
1095.1	0.882
1104.39	0.874
1113.67	0.86
1122.95	0.841
1132.23	0.809
1141.52	0.74
1150.8	0.7
1160.08	0.714
1169.37	0.867
1178.65	0.89
1187.93	0.894
1197.22	0.895
1206.5	0.895
1215.78	0.893
1225.07	0.887
1234.35	0.883
1243.63	0.866
1252.92	0.844
1262.2	0.797
1271.48	0.676
1280.76	0.597
1290.05	0.822
1299.33	0.871
1308.61	0.882
1317.9	0.878
1327.18	0.872
1336.46	0.862
1345.75	0.852
1355.03	0.834
1364.31	0.787
1373.6	0.69
1382.88	0.796
1392.16	0.782
1401.45	0.652
1410.73	0.606
1420.01	0.611
1429.3	0.78
1438.58	0.807
1447.86	0.787
1457.14	0.779
1466.43	0.776
1475.71	0.765
1484.99	0.721
1494.28	0.654
1503.56	0.563
1512.84	0.486
1522.13	0.43
1531.41	0.402
1540.69	0.464
1549.98	0.642
1559.26	0.715
1568.54	0.6
1577.83	0.387
1587.11	0.365
1596.39	0.363
1605.68	0.558
1614.96	0.7
1624.24	0.724
1633.52	0.683
1642.81	0.468
1652.09	0.263
1661.37	0.249
1670.66	0.452
1679.94	0.73
1689.22	0.905
1698.51	0.947
1707.79	0.979
1717.07	0.988
1726.36	0.993
1735.64	0.995
1744.92	0.996
1754.21	0.996
1763.49	1
1772.77	1.003
1782.05	1.004
1791.34	1.002
1800.62	1
1809.9	0.996
1819.19	0.989
1828.47	0.988
1837.75	0.988
1847.04	0.988
1856.32	0.988
1865.6	0.988
1874.89	0.987
1884.17	0.986
1893.45	0.985
1902.74	0.983
1912.02	0.981
1921.3	0.979
1930.59	0.979
1939.87	0.977
1949.15	0.975
1958.43	0.973
1967.72	0.972
1977	0.97
1986.28	0.966
1995.57	0.954
2004.85	0.952
2014.13	0.95
2023.42	0.948
2032.7	0.947
2041.98	0.946
2051.27	0.945
2060.55	0.943
2069.83	0.942
2079.12	0.939
2088.4	0.937
2097.68	0.936
2106.97	0.934
2116.25	0.933
2125.53	0.932
2134.81	0.932
2144.1	0.933
2153.38	0.934
2162.66	0.934
2171.95	0.933
2181.23	0.931
2190.51	0.929
2199.8	0.929
2209.08	0.928
2218.36	0.926
2227.65	0.925
2236.93	0.924
2246.21	0.923
2255.5	0.922
2264.78	0.922
2274.06	0.92
2283.35	0.919
2292.63	0.915
2301.91	0.913
2311.19	0.912
2320.48	0.91
2329.76	0.909
2339.04	0.909
2348.33	0.909
2357.61	0.909
2366.89	0.908
2376.18	0.908
2385.46	0.908
2394.74	0.907
2404.03	0.906
2413.31	0.905
2422.59	0.903
2431.88	0.902
2441.16	0.899
2450.44	0.898
2459.72	0.896
2469.01	0.895
2478.29	0.892
2487.57	0.89
2496.86	0.888
2506.14	0.887
2515.42	0.887
2524.71	0.886
2533.99	0.886
2543.27	0.884
2552.56	0.883
2561.84	0.882
2571.12	0.882
2580.41	0.88
2589.69	0.879
2598.97	0.879
2608.26	0.878
2617.54	0.875
2626.82	0.872
2636.1	0.872
2645.39	0.869
2654.67	0.866
2663.95	0.865
2673.24	0.863
2682.52	0.861
2691.8	0.858
2701.09	0.857
2710.37	0.855
2719.65	0.855
2728.94	0.853
2738.22	0.851
2747.5	0.85
2756.79	0.85
2766.07	0.849
2775.35	0.848
2784.64	0.835
2793.92	0.83
2803.2	0.835
2812.48	0.835
2821.77	0.832
2831.05	0.829
2840.33	0.818
2849.62	0.807
2858.9	0.801
2868.18	0.794
2877.47	0.789
2886.75	0.787
2896.03	0.787
2905.32	0.785
2914.6	0.771
2923.88	0.756
2933.17	0.764
2942.45	0.784
2951.73	0.787
2961.01	0.795
2970.3	0.796
2979.58	0.794
2988.86	0.794
2998.15	0.797
3007.43	0.797
3016.71	0.796
3026	0.797
3035.28	0.797
3044.56	0.795
3053.85	0.793
3063.13	0.786
3072.41	0.778
3081.7	0.771
3090.98	0.764
3100.26	0.761
3109.55	0.757
3118.83	0.744
3128.11	0.737
3137.39	0.718
3146.68	0.696
3155.96	0.672
3165.24	0.663
3174.53	0.679
3183.81	0.697
3193.09	0.693
3202.38	0.68
3211.66	0.663
3220.94	0.644
3230.23	0.616
3239.51	0.585
3248.79	0.565
3258.08	0.562
3267.36	0.534
3276.64	0.506
3285.93	0.493
3295.21	0.491
3304.49	0.491
3313.77	0.484
3323.06	0.448
3332.34	0.494
3341.62	0.579
3350.91	0.582
3360.19	0.579
3369.47	0.539
3378.76	0.458
3388.04	0.511
3397.32	0.508
3406.61	0.403
3415.89	0.439
3425.17	0.539
3434.46	0.488
3443.74	0.444
3453.02	0.576
3462.31	0.713
3471.59	0.759
3480.87	0.774
3490.15	0.786
3499.44	0.794
3508.72	0.806
3518	0.811
3527.29	0.818
3536.57	0.821
3545.85	0.821
3555.14	0.822
3564.42	0.824
3573.7	0.828
3582.99	0.832
3592.27	0.838
3601.55	0.842
3610.84	0.846
3620.12	0.848
3629.4	0.851
3638.68	0.851
3647.97	0.849
3657.25	0.852
3666.53	0.85
3675.82	0.847
3685.1	0.848
3694.38	0.851
3703.67	0.85
3712.95	0.849
3722.23	0.848
3731.52	0.844
3740.8	0.841
3750.08	0.842
3759.37	0.846
3768.65	0.847
3777.93	0.847
3787.22	0.845
3796.5	0.842
