Infrared Spectrum: [1,2,5]SELENADIAZOLO[3,4-d]PYRIMIDIN-7(6H)-ONE
Formula: C4 H2 N4 O Se
CAS: 7698-94-4
State: SOLID (1 mg / 650 mg KBr DISC)
Class: COBLENTZ III
Instrument: PERKIN-ELMER 221 (GRATING)
Instrument parameters: FILTER AT 980 CM ^-^1, GRATING FOR 4000-1428 CM ^-^1, NaCl PRISM FOR 1428-650 CM^-^1
Sampling: TRANSMISSION
Resolution: 4
Origin: SOUTHERN RES. INSTITUTE
1/CM	TRANSMITTANCE
595.333	0.925
604.646	0.924
613.958	0.923
623.271	0.9359
632.584	0.936
641.896	0.932
651.209	0.929
660.522	0.925
669.834	0.9182
679.147	0.8945
688.459	0.9152
697.772	0.932
707.085	0.8818
716.397	0.808
725.71	0.8591
735.023	0.7376
744.335	0.7785
753.648	0.839
762.961	0.9068
772.273	0.8913
781.586	0.8595
790.899	0.8526
800.211	0.6194
809.524	0.8047
818.837	0.7916
828.149	0.7723
837.462	0.77
846.774	0.7604
856.087	0.741
865.4	0.7002
874.712	0.6976
884.025	0.7309
893.338	0.75
902.65	0.4453
911.963	0.5803
921.276	0.8556
930.588	0.932
939.901	0.929
949.214	0.9235
958.526	0.9195
967.839	0.9121
977.152	0.8841
986.464	0.881
995.777	0.88
1005.09	0.879
1014.4	0.8756
1023.71	0.8672
1033.03	0.864
1042.34	0.8553
1051.65	0.8397
1060.97	0.8327
1070.28	0.8287
1079.59	0.8128
1088.9	0.7934
1098.22	0.791
1107.53	0.7887
1116.84	0.7838
1126.15	0.7872
1135.47	0.7934
1144.78	0.8054
1154.09	0.813
1163.4	0.8098
1172.72	0.8068
1182.03	0.7894
1191.34	0.7721
1200.66	0.7699
1209.97	0.7537
1219.28	0.744
1228.59	0.6987
1237.91	0.6686
1247.22	0.6193
1256.53	0.4916
1265.84	0.3853
1275.16	0.3202
1284.47	0.4312
1293.78	0.5838
1303.09	0.78
1312.41	0.6752
1321.72	0.6528
1331.03	0.7248
1340.34	0.6617
1349.66	0.6139
1358.97	0.6886
1368.28	0.7181
1377.6	0.6455
1386.91	0.5012
1396.22	0.4944
1405.53	0.7261
1414.85	0.766
1424.16	0.7498
1433.47	0.7079
1442.78	0.6484
1452.1	0.5835
1461.41	0.5215
1470.72	0.5707
1480.03	0.5863
1489.35	0.5127
1498.66	0.4308
1507.97	0.4536
1517.29	0.5611
1526.6	0.738
1535.91	0.7253
1545.22	0.6835
1554.54	0.6309
1563.85	0.5513
1573.16	0.4207
1582.47	0.2251
1591.79	0.2518
1601.1	0.2939
1610.41	0.3795
1619.72	0.591
1629.04	0.6261
1638.35	0.5164
1647.66	0.4295
1656.97	0.3273
1666.29	0.2086
1675.6	0.1358
1684.91	0.1204
1694.23	0.1345
1703.54	0.1771
1712.85	0.3065
1722.16	0.4402
1731.48	0.581
1740.79	0.766
1750.1	0.9202
1759.41	0.9796
1768.73	0.9953
1778.04	0.9907
1787.35	0.9887
1796.66	0.9857
1805.98	0.9777
1815.29	0.9582
1824.6	0.9458
1833.92	0.9366
1843.23	0.925
1852.54	0.922
1861.85	0.923
1871.17	0.9228
1880.48	0.9188
1889.79	0.9139
1899.1	0.9077
1908.42	0.8959
1917.73	0.8929
1927.04	0.888
1936.35	0.8768
1945.67	0.8639
1954.98	0.8609
1964.29	0.863
1973.6	0.867
1982.92	0.87
1992.23	0.868
2001.54	0.858
2010.86	0.854
2020.17	0.844
2029.48	0.841
2038.79	0.837
2048.11	0.834
2057.42	0.831
2066.73	0.828
2076.04	0.827
2085.36	0.827
2094.67	0.824
2103.98	0.82
2113.29	0.815
2122.61	0.811
2131.92	0.808
2141.23	0.807
2150.55	0.805
2159.86	0.804
2169.17	0.801
2178.48	0.792
2187.8	0.787
2197.11	0.783
2206.42	0.78
2215.73	0.777
2225.05	0.776
2234.36	0.773
2243.67	0.771
2252.98	0.769
2262.3	0.767
2271.61	0.765
2280.92	0.762
2290.23	0.759
2299.55	0.755
2308.86	0.751
2318.17	0.749
2327.49	0.737
2336.8	0.725
2346.11	0.721
2355.42	0.719
2364.74	0.717
2374.05	0.718
2383.36	0.719
2392.67	0.718
2401.99	0.716
2411.3	0.713
2420.61	0.712
2429.92	0.71
2439.24	0.707
2448.55	0.699
2457.86	0.696
2467.18	0.694
2476.49	0.692
2485.8	0.685
2495.11	0.671
2504.43	0.667
2513.74	0.664
2523.05	0.662
2532.36	0.66
2541.68	0.657
2550.99	0.655
2560.3	0.647
2569.61	0.64
2578.93	0.637
2588.24	0.634
2597.55	0.631
2606.86	0.625
2616.18	0.621
2625.49	0.62
2634.8	0.619
2644.12	0.619
2653.43	0.618
2662.74	0.612
2672.05	0.607
2681.37	0.601
2690.68	0.597
2699.99	0.594
2709.3	0.587
2718.62	0.581
2727.93	0.572
2737.24	0.569
2746.55	0.549
2755.87	0.54
2765.18	0.529
2774.49	0.522
2783.81	0.5001
2793.12	0.487
2802.43	0.493
2811.74	0.51
2821.06	0.51
2830.37	0.496
2839.68	0.488
2848.99	0.4761
2858.31	0.453
2867.62	0.435
2876.93	0.432
2886.24	0.431
2895.56	0.428
2904.87	0.4
2914.18	0.385
2923.49	0.381
2932.81	0.4279
2942.12	0.4829
2951.43	0.512
2960.75	0.505
2970.06	0.491
2979.37	0.481
2988.68	0.473
2998	0.468
3007.31	0.4591
3016.62	0.432
3025.93	0.41
3035.25	0.3841
3044.56	0.368
3053.87	0.367
3063.18	0.368
3072.5	0.37
3081.81	0.375
3091.12	0.399
3100.44	0.4249
3109.75	0.447
3119.06	0.4719
3128.37	0.5
3137.69	0.5
3147	0.493
3156.31	0.476
3165.62	0.4521
3174.94	0.429
3184.25	0.428
3193.56	0.4419
3202.87	0.464
3212.19	0.486
3221.5	0.516
3230.81	0.5579
3240.12	0.577
3249.44	0.594
3258.75	0.614
3268.06	0.621
3277.38	0.626
3286.69	0.63
3296	0.633
3305.31	0.634
3314.63	0.631
3323.94	0.625
3333.25	0.612
3342.56	0.608
3351.88	0.604
3361.19	0.603
3370.5	0.601
3379.81	0.592
3389.13	0.584
3398.44	0.579
3407.75	0.574
3417.07	0.572
3426.38	0.57
3435.69	0.57
3445	0.57
3454.32	0.57
3463.63	0.571
3472.94	0.572
3482.25	0.574
3491.57	0.575
3500.88	0.576
3510.19	0.578
3519.5	0.581
3528.82	0.584
3538.13	0.586
3547.44	0.589
3556.76	0.592
3566.07	0.595
3575.38	0.598
3584.69	0.602
3594.01	0.607
3603.32	0.611
3612.63	0.616
3621.94	0.618
3631.26	0.62
3640.57	0.62
3649.88	0.62
3659.19	0.618
3668.51	0.616
3677.82	0.614
3687.13	0.613
3696.44	0.611
3705.76	0.611
3715.07	0.608
3724.38	0.606
3733.7	0.605
3743.01	0.605
3752.32	0.604
3761.63	0.604
3770.95	0.603
3780.26	0.602
3789.57	0.601
3798.88	0.599
3808.2	0.597
3817.51	0.595
3826.82	0.594
3836.13	0.594
3845.45	0.592
3854.76	0.59
3864.07	0.587
3873.39	0.584
3882.7	0.583
3892.01	0.581
3901.32	0.58
3910.64	0.578
3919.95	0.577
3929.26	0.575
3938.57	0.574
3947.89	0.574
3957.2	0.573
3966.51	0.573
3975.82	0.572
3985.14	0.571
3994.45	0.571
