Infrared Spectrum: BARBITURIC ACID, 5-ALLYL-5-ISOPROPYL-
Formula: C10 H14 N2 O3
CAS: 77-02-1
State: SOLID (KBr DISC)
Melting point: 140-141.5 C
Class: COBLENTZ III
Instrument: PERKIN-ELMER 21 (GRATING)
Instrument parameters: FILTER AT ABOUT 10 MICRONS
Sampling: TRANSMISSION
Resolution: 2
1/CM	TRANSMITTANCE
4000	0.8959
3991	0.8958
3982	0.8958
3973	0.8958
3964	0.8958
3955	0.8958
3946	0.8958
3937	0.8958
3928	0.8958
3919	0.8958
3910	0.8961
3901	0.8964
3892	0.8968
3883	0.8971
3874	0.8975
3865	0.8978
3856	0.8983
3847	0.8987
3838	0.8992
3829	0.8996
3820	0.9
3811	0.9004
3802	0.9009
3793	0.9014
3784	0.9018
3775	0.9021
3766	0.9023
3757	0.9025
3748	0.9028
3739	0.9031
3730	0.903
3721	0.9028
3712	0.9027
3703	0.9025
3694	0.9023
3685	0.9018
3676	0.9012
3667	0.9005
3658	0.8994
3649	0.8984
3640	0.8974
3631	0.8954
3622	0.8932
3613	0.8909
3604	0.8887
3595	0.8858
3586	0.8825
3577	0.8791
3568	0.8758
3559	0.8713
3550	0.8665
3541	0.8617
3532	0.8555
3523	0.8481
3514	0.8402
3505	0.8301
3496	0.8195
3487	0.8114
3478	0.8033
3469	0.7943
3460	0.7839
3451	0.7758
3442	0.7721
3433	0.77
3424	0.7675
3415	0.765
3406	0.7622
3397	0.7586
3388	0.7528
3379	0.746
3370	0.7348
3361	0.7215
3352	0.7021
3343	0.6738
3334	0.6437
3325	0.6132
3316	0.5441
3307	0.5059
3298	0.4702
3289	0.4345
3280	0.3984
3271	0.3621
3262	0.3257
3253	0.289
3244	0.2521
3235	0.2291
3226	0.2259
3217	0.2256
3208	0.234
3199	0.2556
3190	0.2795
3181	0.3034
3172	0.3124
3163	0.3143
3154	0.3144
3145	0.3128
3136	0.298
3127	0.2783
3118	0.2584
3109	0.2504
3100	0.25
3091	0.2525
3082	0.2797
3073	0.3275
3064	0.3754
3055	0.4237
3046	0.4723
3037	0.5018
3028	0.5051
3019	0.5062
3010	0.5053
3001	0.5034
2992	0.5065
2983	0.5198
2974	0.5331
2965	0.5464
2956	0.5559
2947	0.5654
2938	0.5762
2929	0.5862
2920	0.5944
2911	0.601
2902	0.6032
2893	0.6015
2884	0.5996
2875	0.598
2866	0.5979
2857	0.6041
2848	0.6162
2839	0.638
2830	0.6785
2821	0.7181
2812	0.7515
2803	0.7733
2794	0.7934
2785	0.8092
2776	0.8237
2767	0.8364
2758	0.8459
2749	0.8547
2740	0.8623
2731	0.8699
2722	0.8765
2713	0.8821
2704	0.8871
2695	0.8917
2686	0.8957
2677	0.8985
2668	0.9013
2659	0.9038
2650	0.9054
2641	0.9063
2632	0.9067
2623	0.906
2614	0.9052
2605	0.9045
2596	0.9037
2587	0.9044
2578	0.9054
2569	0.9075
2560	0.9096
2551	0.9114
2542	0.9128
2533	0.9132
2524	0.9135
2515	0.9133
2506	0.9113
2497	0.9085
2488	0.9059
2479	0.9043
2470	0.9037
2461	0.904
2452	0.9075
2443	0.9107
2434	0.913
2425	0.9153
2416	0.9168
2407	0.918
2398	0.9188
2389	0.9194
2380	0.9193
2371	0.919
2362	0.9186
2353	0.918
2344	0.9174
2335	0.9168
2326	0.917
2317	0.9174
2308	0.918
2299	0.9203
2290	0.9225
2281	0.9243
2272	0.926
2263	0.928
2254	0.9301
2245	0.9318
2236	0.9328
2227	0.934
2218	0.9343
2209	0.9338
2200	0.9318
2191	0.9303
2182	0.9299
2173	0.928
2164	0.9231
2155	0.9193
2146	0.9164
2137	0.9151
2128	0.9138
2119	0.9125
2110	0.9113
2101	0.9103
2092	0.9089
2083	0.9084
2074	0.91
2065	0.9115
2056	0.9092
2047	0.9081
2038	0.9101
2029	0.908
2020	0.9057
2011	0.904
2002	0.9004
1993	0.8921
1984	0.8901
1975	0.8858
1966	0.8792
1957	0.8708
1948	0.8596
1939	0.8442
1930	0.835
1921	0.8295
1912	0.828
1903	0.8246
1894	0.8141
1885	0.8064
1876	0.7976
1867	0.779
1858	0.7665
1849	0.7535
1840	0.7357
1831	0.7071
1822	0.6746
1813	0.6491
1804	0.6204
1795	0.5705
1786	0.5129
1777	0.4417
1768	0.3132
1759	0.1652
1750	0.1821
1741	0.1122
1732	0.0419
1723	0.0447
1714	0.0442
1705	0.0392
1696	0.0385
1687	0.1328
1678	0.2316
1669	0.3119
1660	0.3584
1651	0.3776
1642	0.4265
1633	0.5515
1624	0.6215
1615	0.6622
1606	0.7
1597	0.7275
1588	0.7553
1579	0.7768
1570	0.7786
1561	0.7593
1552	0.7348
1543	0.7547
1534	0.7811
1525	0.7908
1516	0.7897
1507	0.8078
1498	0.7901
1489	0.6901
1480	0.5488
1471	0.5135
1462	0.4789
1453	0.34
1444	0.1793
1435	0.1037
1426	0.2562
1417	0.2761
1408	0.4046
1399	0.432
1390	0.5012
1381	0.338
1372	0.1273
1363	0.1235
1354	0.3095
1345	0.326
1336	0.2434
1327	0.466
1318	0.218
1309	0.3464
1300	0.5094
1291	0.5741
1282	0.3737
1273	0.417
1264	0.4791
1255	0.3952
1246	0.6601
1237	0.7275
1228	0.7171
1219	0.436
1210	0.3684
1201	0.5422
1192	0.6817
1183	0.7233
1174	0.6936
1165	0.7198
1156	0.6637
1147	0.7517
1138	0.7862
1129	0.8093
1120	0.8161
1111	0.8008
1102	0.7782
1093	0.8155
1084	0.8393
1075	0.8414
1066	0.8325
1057	0.7931
1048	0.7032
1039	0.7706
1030	0.7891
1021	0.8048
1012	0.8062
1003	0.7092
994	0.7075
985	0.7535
976	0.8225
967	0.83
958	0.7878
949	0.7058
940	0.5222
931	0.5843
922	0.7465
913	0.793
904	0.7922
895	0.7733
886	0.7371
877	0.6553
868	0.5678
859	0.4642
850	0.3806
841	0.3632
832	0.4199
823	0.5099
814	0.5875
805	0.6534
796	0.6443
787	0.6543
778	0.7137
769	0.7458
760	0.7646
751	0.8297
742	0.8453
733	0.8459
724	0.8189
715	0.8428
706	0.7046
697	0.8466
688	0.7683
679	0.8364
670	0.8681
