Infrared Spectrum: Phenolphthalein
Formula: C 20 H 14 O 4
CAS: 77-09-8
State: gas
Origin: EPA-IR VAPOR PHASE LIBRARY
1/CM	ABSORBANCE
549.8	0
559.445	0.00042798
569.09	0.0003709
578.734	0.001048
588.379	0.00041353
598.024	0.000595
607.669	0.0005848
617.313	0.00041401
626.958	0.000214
636.603	0.000233
646.248	0.0003233
655.893	0.000251
665.537	0.00037744
675.182	0.0004618
684.827	0.0006818
694.472	0.00043748
704.116	0.0003342
713.761	0.0003255
723.406	0.0003237
733.051	0.00038515
742.695	0.0004792
752.34	0.0008475
761.985	0.0004962
771.63	0.0004544
781.275	0.00037568
790.919	0.0005645
800.564	0.00038139
810.209	0.0005077
819.854	0.0008385
829.498	0.0011258
839.143	0.0009146
848.788	0.0004633
858.433	0.0005336
868.078	0.0004763
877.722	0.0002802
887.367	0.0002821
897.012	0.0002878
906.657	0.00038428
916.301	0.0004747
925.946	0.0007644
935.591	0.0006993
945.236	0.0008111
954.88	0.0005527
964.525	0.0006198
974.17	0.0013094
983.815	0.0009813
993.46	0.0006548
1003.1	0.00044981
1012.75	0.000574
1022.39	0.0005012
1032.04	0.0003203
1041.68	0.00041371
1051.33	0.0004701
1060.97	0.0003836
1070.62	0.0010531
1080.26	0.001502
1089.91	0.0008489
1099.55	0.0008488
1109.2	0.0007025
1118.84	0.0005791
1128.49	0.0004816
1138.13	0.0004555
1147.78	0.0008685
1157.42	0.0011389
1167.07	0.002742
1176.71	0.004102
1186.36	0.001542
1196	0.0009174
1205.64	0.000818
1215.29	0.0010704
1224.93	0.0007819
1234.58	0.0008267
1244.22	0.001492
1253.87	0.001812
1263.51	0.002662
1273.16	0.0009822
1282.8	0.001019
1292.45	0.0006999
1302.09	0.0004722
1311.74	0.0005392
1321.38	0.0006375
1331.03	0.0008083
1340.67	0.0006566
1350.32	0.0005219
1359.96	0.0004595
1369.61	0.0004638
1379.25	0.00039571
1388.9	0.00038406
1398.54	0.000482
1408.18	0.0004539
1417.83	0.0006254
1427.47	0.0008195
1437.12	0.0006535
1446.76	0.0004789
1456.41	0.0006008
1466.05	0.000721
1475.7	0.0005926
1485.34	0.0005604
1494.99	0.0007472
1504.63	0.001722
1514.28	0.002632
1523.92	0.0009036
1533.57	0.0006461
1543.21	0.0005791
1552.86	0.0004896
1562.5	0.0005067
1572.15	0.0005319
1581.79	0.0006634
1591.44	0.0009264
1601.08	0.0011665
1610.73	0.0012491
1620.37	0.0009906
1630.01	0.0005676
1639.66	0.0004727
1649.3	0.0004759
1658.95	0.0004759
1668.59	0.0003231
1678.24	0.000361129
1687.88	0.0002949
1697.53	0.00034293
1707.17	0.00042938
1716.82	0.00044243
1726.46	0.000473
1736.11	0.00043274
1745.75	0.0006304
1755.4	0.0007211
1765.04	0.0007182
1774.69	0.001017
1784.33	0.001662
1793.98	0.004802
1803.62	0.004092
1813.27	0.001422
1822.91	0.0008103
1832.55	0.0006326
1842.2	0.0005486
1851.84	0.0004898
1861.49	0.0004669
1871.13	0.0004746
1880.78	0.0004561
1890.42	0.00041881
1900.07	0.00041775
1909.71	0.0005147
1919.36	0.0004747
1929	0.00045096
1938.65	0.00039308
1948.29	0.00039625
1957.94	0.00038115
1967.58	0.0004601
1977.23	0.00043551
1986.87	0.000360585
1996.52	0.000417
2006.16	0.00038264
2015.81	0.00040553
2025.45	0.00041334
2035.1	0.0004614
2044.74	0.00041368
2054.38	0.0004691
2064.03	0.00044931
2073.67	0.00039393
2083.32	0.00041192
2092.96	0.0004797
2102.61	0.00036687
2112.25	0.0004582
2121.9	0.0003873
2131.54	0.00038286
2141.19	0.00044742
2150.83	0.00040001
2160.48	0.0005106
2170.12	0.00037125
2179.77	0.00037136
2189.41	0.00038093
2199.06	0.00044977
2208.7	0.00037176
2218.35	0.00036294
2227.99	0.0003172
2237.64	0.00041742
2247.28	0.00040492
2256.92	0.00035465
2266.57	0.00044687
2276.21	0.00044581
2285.86	0.00042901
2295.5	0.0004846
2305.15	0.00044468
2314.79	0.0004619
2324.44	0.00042664
2334.08	0.00044385
2343.73	0.0004938
2353.37	0.0004621
2363.02	0.0004841
2372.66	0.0004455
2382.31	0.000356801
2391.95	0.00042403
2401.6	0.00044618
2411.24	0.0004729
2420.89	0.000448
2430.53	0.0005212
2440.18	0.0004532
2449.82	0.00041405
2459.47	0.00043141
2469.11	0.000491
2478.75	0.00043164
2488.4	0.00041134
2498.04	0.0005112
2507.69	0.0004623
2517.33	0.0004816
2526.98	0.0004604
2536.62	0.00040179
2546.27	0.0004644
2555.91	0.00043226
2565.56	0.00040523
2575.2	0.000466
2584.85	0.0005439
2594.49	0.0005338
2604.14	0.00036425
2613.78	0.00043128
2623.43	0.00040971
2633.07	0.0005518
2642.72	0.000602
2652.36	0.000494
2662.01	0.0004902
2671.65	0.0004731
2681.29	0.0003836
2690.94	0.0004656
2700.58	0.000593
2710.23	0.00044934
2719.87	0.0005292
2729.52	0.000483
2739.16	0.0005325
2748.81	0.00042388
2758.45	0.0004817
2768.1	0.00044796
2777.74	0.00045108
2787.39	0.0005275
2797.03	0.0005187
2806.68	0.0004955
2816.32	0.0005308
2825.97	0.0005751
2835.61	0.0004722
2845.26	0.0004652
2854.9	0.00041975
2864.55	0.0005156
2874.19	0.0004777
2883.84	0.0005556
2893.48	0.0004926
2903.12	0.0005382
2912.77	0.00043188
2922.41	0.00041343
2932.06	0.0005969
2941.7	0.00042926
2951.35	0.0005433
2960.99	0.0006136
2970.64	0.0005354
2980.28	0.0005886
2989.93	0.0004852
2999.57	0.0004729
3009.22	0.0005626
3018.86	0.0006267
3028.51	0.0005937
3038.15	0.0008166
3047.8	0.0006645
3057.44	0.0005666
3067.09	0.0006738
3076.73	0.0008533
3086.38	0.0007766
3096.02	0.0006974
3105.67	0.000501
3115.31	0.000615
3124.95	0.0004797
3134.6	0.000235
3144.24	0.00040273
3153.89	0.0004723
3163.53	0.0004628
3173.18	0.0004867
3182.82	0.0005331
3192.47	0.0005518
3202.11	0.0004713
3211.76	0.0005612
3221.4	0.0005206
3231.05	0.0004935
3240.69	0.0005417
3250.34	0.00045096
3259.98	0.0004989
3269.63	0.00040341
3279.27	0.0005344
3288.92	0.0005734
3298.56	0.0004869
3308.21	0.0005716
3317.85	0.0005402
3327.49	0.0005287
3337.14	0.0007206
3346.78	0.0004883
3356.43	0.0005537
3366.07	0.0006237
3375.72	0.0004546
3385.36	0.0005699
3395.01	0.0004862
3404.65	0.0006373
3414.3	0.0004665
3423.94	0.000583
3433.59	0.0005646
3443.23	0.0004958
3452.88	0.0005637
3462.52	0.0004762
3472.17	0.00040946
3481.81	0.0004663
3491.46	0.00036439
3501.1	0.0004796
3510.75	0.0005977
3520.39	0.0005258
3530.04	0.000478
3539.68	0.0004053
3549.32	0.0006473
3558.97	0.0006367
3568.61	0.0004761
3578.26	0.0005715
3587.9	0.0005782
3597.55	0.00043338
3607.19	0.0004982
3616.84	0.00039654
3626.48	0.0006725
3636.13	0.0008108
3645.77	0.001792
3655.42	0.001582
3665.06	0.0005415
3674.71	0.0005827
3684.35	0.0005734
3694	0.00044551
3703.64	0.0005161
3713.29	0.00039289
3722.93	0.0005455
3732.58	0.0004844
3742.22	0.0005121
3751.86	0.0006236
3761.51	0.0004752
3771.15	0.0005207
3780.8	0.00038145
3790.44	0.00036755
3800.09	0.0004651
3809.73	0.00043176
3819.38	0.000465
3829.02	0.00039096
3838.67	0.00044875
3848.31	0.0005717
3857.96	0.0004341
3867.6	0.0002723
3877.25	0.0003379
3886.89	0.0005104
3896.54	0.0006385
3906.18	0.0004531
3915.83	0.0006266
3925.47	0.0002525
3935.12	0.0004912
3944.76	0.0004864
3954.41	0.0004692
3964.05	0.0005472
3973.69	0.0005755
3983.34	0.0003418
3992.98	0.000357246
