Infrared Spectrum: Phencylidine
Formula: C 17 H 25 N
CAS: 77-10-1
State: gas
Instrument: HP-GC/MS/IRD
Origin: NIST Mass Spectrometry Data Center
1/CM	ABSORBANCE
550	0.000492
562	0.000339
574	0.000396
586	0.00033
598	6.6e-05
610	0.000123
622	0.000168
634	0.000351
646	0.000423
658	0.000492
670	0.000732
682	0.001308
694	0.003462
706	0.003504
718	0.001185
730	0.001173
742	0.001662
754	0.002202
766	0.000843
778	0.000528
790	0.000561
802	0.000372
814	0.000285
826	0.000297
838	0.000564
850	0.000564
862	0.000789
874	0.000558
886	0.000489
898	0.000783
910	0.0009
922	0.000711
934	0.000528
946	0.000795
958	0.001842
970	0.001221
982	0.000498
994	0.000402
1006	0.000804
1018	0.001278
1030	0.001386
1042	0.001026
1054	0.000927
1066	0.001401
1078	0.001971
1090	0.001668
1102	0.001374
1114	0.001479
1126	0.000909
1138	0.000954
1150	0.001521
1162	0.001332
1174	0.00087
1186	0.000942
1198	0.000819
1210	0.000471
1222	0.000444
1234	0.000738
1246	0.000831
1258	0.001017
1270	0.00108
1282	0.001113
1294	0.000957
1306	0.000852
1318	0.000642
1330	0.000666
1342	0.000867
1354	0.00084
1366	0.000663
1378	0.000603
1390	0.000435
1402	0.00033
1414	0.000408
1426	0.000684
1438	0.001524
1450	0.002748
1462	0.002667
1474	0.001716
1486	0.00126
1498	0.001098
1510	0.000402
1522	0.000213
1534	0.000177
1546	0.000147
1558	0.000108
1570	0.000201
1582	0.000375
1594	0.000606
1606	0.000429
1618	0.000189
1630	0.000174
1642	0.000177
1654	0.000144
1666	0.000141
1678	9e-05
1690	7.8e-05
1702	5.4e-05
1714	8.4e-05
1726	0.000108
1738	0.000114
1750	8.7e-05
1762	0.000108
1774	0.000123
1786	0.000171
1798	0.000225
1810	0.000168
1822	9.3e-05
1834	0.000102
1846	0.00012
1858	0.000129
1870	0.000147
1882	0.000153
1894	0.000105
1906	8.7e-05
1918	0.000105
1930	0.000165
1942	0.000249
1954	0.00021
1966	8.4e-05
1978	5.7e-05
1990	4.5e-05
2002	6.6e-05
2014	4.8e-05
2026	1.5e-05
2038	3e-05
2050	1.2e-05
2062	0
2074	2.1e-05
2086	4.2e-05
2098	3.3e-05
2110	3.3e-05
2122	3.6e-05
2134	3.6e-05
2146	5.7e-05
2158	4.5e-05
2170	3.3e-05
2182	3e-05
2194	4.5e-05
2206	6e-05
2218	3.6e-05
2230	2.4e-05
2242	3.3e-05
2254	3.9e-05
2266	4.2e-05
2278	4.8e-05
2290	4.5e-05
2302	4.8e-05
2314	9.6e-05
2326	5.7e-05
2338	6e-05
2350	8.7e-05
2362	7.2e-05
2374	8.4e-05
2386	5.7e-05
2398	8.1e-05
2410	8.7e-05
2422	6e-05
2434	5.4e-05
2446	6.9e-05
2458	9.9e-05
2470	9.9e-05
2482	8.7e-05
2494	0.000102
2506	0.000117
2518	0.000102
2530	9.9e-05
2542	0.000114
2554	0.000123
2566	0.00012
2578	0.000186
2590	0.000228
2602	0.000276
2614	0.000336
2626	0.000357
2638	0.00042
2650	0.00048
2662	0.000624
2674	0.000771
2686	0.000735
2698	0.000717
2710	0.000732
2722	0.000882
2734	0.001137
2746	0.001272
2758	0.001197
2770	0.001302
2782	0.002127
2794	0.003792
2806	0.00438
2818	0.002514
2830	0.001998
2842	0.002592
2854	0.005331
2866	0.008031
2878	0.005388
2890	0.003723
2902	0.004275
2914	0.007896
2926	0.017898
2938	0.03
2950	0.016617
2962	0.006345
2974	0.003477
2986	0.004137
2998	0.001884
3010	0.001167
3022	0.001467
3034	0.001878
3046	0.001584
3058	0.002169
3070	0.002544
3082	0.001605
3094	0.001533
3106	0.000867
3118	0.000423
3130	0.000234
3142	0.000204
3154	0.000204
3166	0.000183
3178	0.000135
3190	0.000126
3202	8.1e-05
3214	0.000135
3226	0.000111
3238	0.000114
3250	0.000117
3262	8.7e-05
3274	6.6e-05
3286	9e-05
3298	8.1e-05
3310	6.6e-05
3322	0.000126
3334	9.3e-05
3346	6e-05
3358	9e-05
3370	9.3e-05
3382	0.000102
3394	9.6e-05
3406	5.7e-05
3418	1.8e-05
3430	0.000111
3442	0.000102
3454	0.000126
3466	6.3e-05
3478	0.000108
3490	9.9e-05
3502	3.3e-05
3514	6.6e-05
3526	0.000105
3538	5.4e-05
3550	9e-05
3562	0.000105
3574	0.000111
3586	6.9e-05
3598	4.8e-05
3610	0.000108
3622	8.7e-05
3634	0.000135
3646	0.000132
3658	0.000102
3670	0.000114
3682	0.000117
3694	8.1e-05
3706	0.000105
3718	9.3e-05
3730	0.000114
3742	0.00012
3754	0.000129
3766	0.000147
3778	0.000102
3790	0.000144
3802	0.000144
3814	0.000129
3826	0.000144
3838	0.000111
