Infrared Spectrum: Diethyl diethylmalonate
Formula: C 11 H 20 O 4
CAS: 77-25-8
State: gas
Origin: EPA-IR VAPOR PHASE LIBRARY
1/CM	ABSORBANCE
501.5	0.0008378
513.074	0.0009752
524.648	0.0011839
536.222	0.0011539
547.796	0.0010231
559.37	0.0007527
570.944	0.0003314
582.518	0.0002119
594.092	0.0002374
605.666	0.00018784
617.24	0.0002717
628.814	0.0002711
640.388	0.0002349
651.962	0.0005204
663.536	0.0010879
675.11	0.0020639
686.684	0.0026139
698.258	0.0019839
709.832	0.0012739
721.406	0.0015139
732.98	0.0031039
744.554	0.0034739
756.128	0.0026939
767.702	0.0033339
779.276	0.0046239
790.85	0.0052939
802.423	0.0057139
813.997	0.0053539
825.571	0.0051739
837.145	0.0045139
848.719	0.0050839
860.293	0.0077539
871.867	0.0061239
883.441	0.0029839
895.015	0.0021839
906.589	0.0021839
918.163	0.0026639
929.737	0.0045239
941.311	0.0083639
952.885	0.0086839
964.459	0.0057339
976.033	0.0046739
987.607	0.0056739
999.181	0.0093639
1010.76	0.0197639
1022.33	0.0361139
1033.9	0.0377639
1045.48	0.0247639
1057.05	0.0168939
1068.63	0.0163139
1080.2	0.0189539
1091.77	0.0308439
1103.35	0.0595739
1114.92	0.0920539
1126.49	0.0849739
1138.07	0.0809039
1149.64	0.0735839
1161.22	0.0461139
1172.79	0.0337439
1184.36	0.0392039
1195.94	0.0626739
1207.51	0.0882039
1219.09	0.120684
1230.66	0.144394
1242.23	0.101054
1253.81	0.0495639
1265.38	0.0265439
1276.96	0.0202739
1288.53	0.0217239
1300.1	0.0247039
1311.68	0.0194739
1323.25	0.0131939
1334.83	0.0127539
1346.4	0.0128539
1357.97	0.0114739
1369.55	0.0163239
1381.12	0.0146839
1392.7	0.0147439
1404.27	0.0091939
1415.84	0.0071339
1427.42	0.0077439
1438.99	0.0119239
1450.57	0.0187339
1462.14	0.0200939
1473.71	0.0169039
1485.29	0.0097239
1496.86	0.0054639
1508.44	0.0038739
1520.01	0.0032539
1531.58	0.0030339
1543.16	0.0028739
1554.73	0.0027039
1566.31	0.0024439
1577.88	0.0022739
1589.45	0.0021339
1601.03	0.0021039
1612.6	0.0021739
1624.18	0.0022739
1635.75	0.0025139
1647.32	0.0027739
1658.9	0.0032139
1670.47	0.0040739
1682.05	0.0058139
1693.62	0.0089939
1705.19	0.0145239
1716.77	0.0243839
1728.34	0.0597139
1739.92	0.141044
1751.49	0.134804
1763.06	0.0690539
1774.64	0.0233839
1786.21	0.0115039
1797.79	0.0074239
1809.36	0.0052039
1820.93	0.0036439
1832.51	0.0026039
1844.08	0.0020339
1855.66	0.0017739
1867.23	0.0017439
1878.8	0.0018439
1890.38	0.0017939
1901.95	0.0015339
1913.53	0.0012039
1925.1	0.0009901
1936.67	0.0009049
1948.25	0.0009228
1959.82	0.0010197
1971.4	0.0011439
1982.97	0.0011639
1994.54	0.0011639
2006.12	0.0010827
2017.69	0.0009694
2029.27	0.0008558
2040.84	0.0008195
2052.41	0.0009078
2063.99	0.0010593
2075.56	0.0011739
2087.14	0.0011639
2098.71	0.0009937
2110.28	0.0007948
2121.86	0.000722
2133.43	0.0006785
2145.01	0.0006901
2156.58	0.000689
2168.15	0.0006652
2179.73	0.0006053
2191.3	0.000505
2202.88	0.0004332
2214.45	0.0004057
2226.02	0.0004824
2237.6	0.0005112
2249.17	0.00048
2260.74	0.0004724
2272.32	0.0004427
2283.89	0.0004718
2295.47	0.0004894
2307.04	0.0005362
2318.61	0.0005931
2330.19	0.0006977
2341.76	0.0007107
2353.34	0.0006375
2364.91	0.0006162
2376.48	0.0006305
2388.06	0.0006115
2399.63	0.000655
2411.21	0.0007271
2422.78	0.0007204
2434.35	0.0005673
2445.93	0.0005021
2457.5	0.0004416
2469.08	0.0004201
2480.65	0.0004003
2492.22	0.0003655
2503.8	0.0003215
2515.37	0.0002855
2526.95	0.0002369
2538.52	0.0002687
2550.09	0.00025
2561.67	0.0002539
2573.24	0.0002868
2584.82	0.0002821
2596.39	0.0003103
2607.96	0.0003226
2619.54	0.0003718
2631.11	0.0003343
2642.69	0.000288
2654.26	0.0003033
2665.83	0.0003223
2677.41	0.0003772
2688.98	0.0004234
2700.56	0.0004681
2712.13	0.0005589
2723.7	0.0007525
2735.28	0.0009331
2746.85	0.0012339
2758.43	0.0015939
2770	0.0015839
2781.57	0.0016439
2793.15	0.0017339
2804.72	0.0019339
2816.3	0.0023539
2827.87	0.0028539
2839.44	0.0035339
2851.02	0.0047839
2862.59	0.0067639
2874.17	0.0108239
2885.74	0.0198439
2897.31	0.0224839
2908.89	0.0198439
2920.46	0.0207439
2932.04	0.0286739
2943.61	0.0442339
2955.18	0.0442339
2966.76	0.0500639
2978.33	0.0741839
2989.91	0.0639739
3001.48	0.0341139
3013.05	0.0179539
3024.63	0.0098739
3036.2	0.0061739
3047.78	0.0044539
3059.35	0.0035639
3070.92	0.0031139
3082.5	0.0027539
3094.07	0.0025039
3105.65	0.0022039
3117.22	0.0019539
3128.79	0.0017839
3140.37	0.0015239
3151.94	0.0013539
3163.52	0.0011639
3175.09	0.0010328
3186.66	0.0008218
3198.24	0.0007153
3209.81	0.0006211
3221.39	0.0004981
3232.96	0.0003598
3244.53	0.0003068
3256.11	0.0002555
3267.68	0.0002668
3279.26	0.00017601
3290.83	0.0002074
3302.4	0.0002044
3313.98	0.00016817
3325.55	0.00016265
3337.13	0.00011582
3348.7	0.00011418
3360.27	0.0001554
3371.85	0.00018853
3383.42	0.00015329
3395	0.0002476
3406.57	0.000206
3418.14	0.0002622
3429.72	0.0003401
3441.29	0.0004107
3452.86	0.000709
3464.44	0.0011039
3476.01	0.0014239
3487.59	0.0014339
3499.16	0.0009185
3510.73	0.0005854
3522.31	0.0003989
3533.88	0.0002645
3545.46	0.000102568
3557.03	0.000101441
3568.6	5.04e-05
3580.18	7.42e-05
3591.75	4.75e-05
3603.33	2.85e-05
3614.9	7.27e-05
3626.47	0.000103143
3638.05	5.9e-05
3649.62	8.421e-05
3661.2	6.98e-05
3672.77	3.53e-05
3684.34	9.119e-05
3695.92	9.7413e-05
3707.49	0
3719.07	0.00015413
3730.64	5.74e-05
3742.21	0.00018065
3753.79	0.00018857
3765.36	0.00016284
3776.94	0.00017436
3788.51	0.00014859
3800.08	0.0002106
3811.66	0.0002427
3823.23	0.00018925
3834.81	0.0002662
3846.38	0.0002378
3857.95	0.0001673
3869.53	0.00016499
3881.1	9.6179e-05
3892.68	0.00011035
3904.25	7.05e-05
3915.82	0.00018653
3927.4	0.00017351
3938.97	0.00017517
3950.55	0.000102774
3962.12	0.0002007
3973.69	0.0002449
3985.27	0.0002908
3996.84	0.0002724
