Infrared Spectrum: GLUTETHIMIDE
Formula: C13 H15 N O2
CAS: 77-21-4
State: SOLID (0.9 mg / 200 mg KBr DISC)
Melting point: 84 C
Class: COBLENTZ III
Instrument: PERKIN-ELMER 21 (GRATING)
Instrument parameters: FILTER AT ABOUT 10 MICRONS
Sampling: TRANSMISSION
Resolution: 2
1/CM	TRANSMITTANCE
4000	0.8246
3991	0.8247
3982	0.8248
3973	0.8252
3964	0.8257
3955	0.8262
3946	0.8266
3937	0.8271
3928	0.8275
3919	0.8283
3910	0.8292
3901	0.8301
3892	0.831
3883	0.8318
3874	0.8325
3865	0.8332
3856	0.8338
3847	0.8343
3838	0.8349
3829	0.8354
3820	0.8359
3811	0.8363
3802	0.8365
3793	0.8366
3784	0.8367
3775	0.8368
3766	0.8368
3757	0.8371
3748	0.8371
3739	0.8373
3730	0.8374
3721	0.8371
3712	0.837
3703	0.8366
3694	0.8364
3685	0.8362
3676	0.8359
3667	0.8356
3658	0.8354
3649	0.8348
3640	0.8341
3631	0.8334
3622	0.8328
3613	0.8321
3604	0.8313
3595	0.8304
3586	0.8294
3577	0.8284
3568	0.8273
3559	0.8263
3550	0.8251
3541	0.823
3532	0.8209
3523	0.8188
3514	0.8165
3505	0.8144
3496	0.8117
3487	0.8087
3478	0.8057
3469	0.8026
3460	0.7997
3451	0.7961
3442	0.7925
3433	0.7888
3424	0.7851
3415	0.7812
3406	0.7775
3397	0.774
3388	0.7704
3379	0.7668
3370	0.7632
3361	0.7597
3352	0.7562
3343	0.7528
3334	0.7489
3325	0.7443
3316	0.7392
3307	0.7321
3298	0.7249
3289	0.7175
3280	0.7054
3271	0.6858
3262	0.6596
3253	0.6295
3244	0.6074
3235	0.5789
3226	0.5504
3217	0.5216
3208	0.4928
3199	0.4637
3190	0.447
3181	0.4357
3172	0.4262
3163	0.4256
3154	0.4296
3145	0.4396
3136	0.4519
3127	0.4671
3118	0.4814
3109	0.4765
3100	0.4746
3091	0.4614
3082	0.4564
3073	0.4623
3064	0.4881
3055	0.5141
3046	0.5402
3037	0.5665
3028	0.5929
3019	0.6195
3010	0.6424
3001	0.6448
2992	0.6428
2983	0.6091
2974	0.5682
2965	0.531
2956	0.5307
2947	0.5371
2938	0.5512
2929	0.5683
2920	0.5893
2911	0.6028
2902	0.6127
2893	0.616
2884	0.6088
2875	0.593
2866	0.5887
2857	0.5939
2848	0.6407
2839	0.658
2830	0.6807
2821	0.7092
2812	0.7278
2803	0.7439
2794	0.7568
2785	0.7668
2776	0.7769
2767	0.7864
2758	0.7932
2749	0.7971
2740	0.8014
2731	0.8051
2722	0.8081
2713	0.8111
2704	0.8142
2695	0.8172
2686	0.8204
2677	0.8227
2668	0.8248
2659	0.827
2650	0.8291
2641	0.8313
2632	0.8334
2623	0.8353
2614	0.8373
2605	0.8393
2596	0.8414
2587	0.8425
2578	0.8435
2569	0.8432
2560	0.8428
2551	0.8423
2542	0.8423
2533	0.8424
2524	0.8427
2515	0.8428
2506	0.8444
2497	0.8465
2488	0.8485
2479	0.8506
2470	0.8525
2461	0.8543
2452	0.8559
2443	0.8575
2434	0.8591
2425	0.8606
2416	0.8618
2407	0.863
2398	0.8643
2389	0.865
2380	0.8655
2371	0.866
2362	0.8648
2353	0.863
2344	0.8603
2335	0.8598
2326	0.8604
2317	0.8611
2308	0.8618
2299	0.8631
2290	0.8644
2281	0.8656
2272	0.8668
2263	0.8681
2254	0.8693
2245	0.8703
2236	0.871
2227	0.8716
2218	0.8723
2209	0.8728
2200	0.8736
2191	0.8743
2182	0.8748
2173	0.8754
2164	0.876
2155	0.8766
2146	0.8771
2137	0.8777
2128	0.8781
2119	0.8785
2110	0.8789
2101	0.8794
2092	0.8798
2083	0.8802
2074	0.8796
2065	0.8778
2056	0.876
2047	0.8747
2038	0.8735
2029	0.8735
2020	0.8737
2011	0.8737
2002	0.8727
1993	0.8658
1984	0.8589
1975	0.8511
1966	0.8498
1957	0.8564
1948	0.8618
1939	0.8628
1930	0.8602
1921	0.8549
1912	0.8446
1903	0.8352
1894	0.8347
1885	0.8366
1876	0.8377
1867	0.8366
1858	0.8308
1849	0.8194
1840	0.8075
1831	0.7954
1822	0.7811
1813	0.7725
1804	0.7614
1795	0.7414
1786	0.6791
1777	0.6576
1768	0.6278
1759	0.57
1750	0.5183
1741	0.3507
1732	0.2084
1723	0.1531
1714	0.2057
1705	0.152
1696	0.1077
1687	0.1184
1678	0.2493
1669	0.3384
1660	0.4093
1651	0.5302
1642	0.5694
1633	0.6136
1624	0.6497
1615	0.669
1606	0.6651
1597	0.6237
1588	0.7146
1579	0.6867
1570	0.7551
1561	0.7851
1552	0.8048
1543	0.8101
1534	0.8148
1525	0.8189
1516	0.8203
1507	0.7935
1498	0.5448
1489	0.7515
1480	0.749
1471	0.5926
1462	0.5112
1453	0.5451
1444	0.5347
1435	0.6465
1426	0.7224
1417	0.6771
1408	0.6961
1399	0.7408
1390	0.6882
1381	0.6044
1372	0.4819
1363	0.3332
1354	0.3121
1345	0.3857
1336	0.4529
1327	0.5532
1318	0.6468
1309	0.6991
1300	0.582
1291	0.5154
1282	0.4038
1273	0.2842
1264	0.369
1255	0.6173
1246	0.7339
1237	0.7544
1228	0.6978
1219	0.4702
1210	0.2609
1201	0.1717
1192	0.2724
1183	0.445
1174	0.5267
1165	0.5973
1156	0.64
1147	0.6825
1138	0.7138
1129	0.7335
1120	0.7332
1111	0.7465
1102	0.7308
1093	0.7428
1084	0.6292
1075	0.7315
1066	0.7743
1057	0.7322
1048	0.7612
1039	0.7698
1030	0.736
1021	0.7621
1012	0.7908
1003	0.7651
994	0.7751
985	0.7808
976	0.8018
967	0.7842
958	0.7521
949	0.805
940	0.8018
931	0.7458
922	0.664
913	0.7199
904	0.7492
895	0.7128
886	0.6329
877	0.5767
868	0.5062
859	0.5124
850	0.501
841	0.5284
832	0.5705
823	0.616
814	0.6639
805	0.6975
796	0.7187
787	0.7396
778	0.7306
769	0.5508
760	0.4879
751	0.6853
742	0.7318
733	0.6215
724	0.7505
715	0.7314
706	0.4409
697	0.4925
688	0.6881
679	0.7007
670	0.7639
661	0.7982
