Infrared Spectrum: BARBITURIC ACID, 5-ALLYL-5-ISOBUTYL-
Formula: C11 H16 N2 O3
CAS: 77-26-9
State: SOLID (0.6 mg / 200 mg KBr DISC)
Melting point: 138-139 C
Class: COBLENTZ III
Instrument: PERKIN-ELMER 21 (GRATING)
Instrument parameters: FILTER AT ABOUT 10 MICRONS
Sampling: TRANSMISSION
Resolution: 2
1/CM	TRANSMITTANCE
4000	0.9777
3991	0.9775
3982	0.9775
3973	0.9773
3964	0.9773
3955	0.9771
3946	0.9768
3937	0.9767
3928	0.9765
3919	0.9764
3910	0.9764
3901	0.9765
3892	0.9766
3883	0.9766
3874	0.9768
3865	0.977
3856	0.9773
3847	0.9775
3838	0.978
3829	0.9783
3820	0.9786
3811	0.9787
3802	0.979
3793	0.979
3784	0.9785
3775	0.9778
3766	0.977
3757	0.9763
3748	0.9756
3739	0.9751
3730	0.9753
3721	0.9757
3712	0.9761
3703	0.9765
3694	0.9768
3685	0.9773
3676	0.9774
3667	0.9775
3658	0.9775
3649	0.978
3640	0.9781
3631	0.9778
3622	0.9775
3613	0.9771
3604	0.9763
3595	0.9748
3586	0.9713
3577	0.9666
3568	0.961
3559	0.9532
3550	0.9473
3541	0.9442
3532	0.9421
3523	0.9404
3514	0.938
3505	0.9352
3496	0.9318
3487	0.9283
3478	0.924
3469	0.9191
3460	0.9125
3451	0.907
3442	0.9018
3433	0.8967
3424	0.8939
3415	0.8925
3406	0.8913
3397	0.8902
3388	0.889
3379	0.8871
3370	0.885
3361	0.8821
3352	0.8771
3343	0.8701
3334	0.861
3325	0.8499
3316	0.8347
3307	0.811
3298	0.7771
3289	0.7425
3280	0.7081
3271	0.6733
3262	0.6384
3253	0.6032
3244	0.5679
3235	0.5323
3226	0.4966
3217	0.4606
3208	0.4349
3199	0.4314
3190	0.4353
3181	0.4536
3172	0.473
3163	0.4924
3154	0.512
3145	0.5316
3136	0.5417
3127	0.5289
3118	0.511
3109	0.493
3100	0.4749
3091	0.4681
3082	0.4781
3073	0.5149
3064	0.552
3055	0.5894
3046	0.6269
3037	0.6647
3028	0.7026
3019	0.7345
3010	0.7441
3001	0.7457
2992	0.7417
2983	0.7169
2974	0.6908
2965	0.6725
2956	0.6755
2947	0.691
2938	0.7001
2929	0.7057
2920	0.7191
2911	0.7375
2902	0.7564
2893	0.7634
2884	0.7585
2875	0.7504
2866	0.7561
2857	0.7704
2848	0.7791
2839	0.7807
2830	0.7842
2821	0.7928
2812	0.8138
2803	0.8425
2794	0.8713
2785	0.8968
2776	0.9121
2767	0.9215
2758	0.9268
2749	0.931
2740	0.9345
2731	0.9389
2722	0.9431
2713	0.9471
2704	0.9514
2695	0.9565
2686	0.9615
2677	0.9662
2668	0.9702
2659	0.9723
2650	0.9705
2641	0.9678
2632	0.9659
2623	0.9661
2614	0.9667
2605	0.9675
2596	0.9686
2587	0.9695
2578	0.97
2569	0.9705
2560	0.9708
2551	0.9716
2542	0.9725
2533	0.9734
2524	0.9742
2515	0.9747
2506	0.9751
2497	0.9754
2488	0.974
2479	0.9723
2470	0.9702
2461	0.9678
2452	0.9666
2443	0.9656
2434	0.9668
2425	0.9686
2416	0.9724
2407	0.977
2398	0.9789
2389	0.9803
2380	0.98
2371	0.9794
2362	0.9768
2353	0.9744
2344	0.9718
2335	0.9707
2326	0.9725
2317	0.9752
2308	0.9768
2299	0.9786
2290	0.979
2281	0.9795
2272	0.9808
2263	0.9828
2254	0.9859
2245	0.9894
2236	0.9889
2227	0.9868
2218	0.9846
2209	0.9828
2200	0.9816
2191	0.9812
2182	0.9835
2173	0.987
2164	0.989
2155	0.9882
2146	0.9875
2137	0.9874
2128	0.9868
2119	0.9856
2110	0.9839
2101	0.9818
2092	0.9798
2083	0.9775
2074	0.9762
2065	0.9757
2056	0.9763
2047	0.9775
2038	0.9799
2029	0.9821
2020	0.9825
2011	0.9825
2002	0.9821
1993	0.9807
1984	0.9774
1975	0.9743
1966	0.9746
1957	0.9745
1948	0.9735
1939	0.9702
1930	0.9612
1921	0.9517
1912	0.9474
1903	0.9497
1894	0.9521
1885	0.9539
1876	0.9532
1867	0.948
1858	0.9334
1849	0.9232
1840	0.9208
1831	0.9146
1822	0.8993
1813	0.8802
1804	0.8606
1795	0.8458
1786	0.8265
1777	0.7831
1768	0.6553
1759	0.2072
1750	0.357
1741	0.1793
1732	0.1177
1723	0.1885
1714	0.1739
1705	0.1085
1696	0.1221
1687	0.3362
1678	0.4866
1669	0.6009
1660	0.6741
1651	0.7198
1642	0.7242
1633	0.8141
1624	0.8434
1615	0.866
1606	0.8863
1597	0.9043
1588	0.9098
1579	0.9161
1570	0.9212
1561	0.9228
1552	0.9054
1543	0.882
1534	0.8894
1525	0.9113
1516	0.9121
1507	0.9121
1498	0.9203
1489	0.9113
1480	0.8844
1471	0.7203
1462	0.6988
1453	0.5481
1444	0.3241
1435	0.2788
1426	0.2706
1417	0.4395
1408	0.536
1399	0.6828
1390	0.7042
1381	0.646
1372	0.3879
1363	0.5976
1354	0.6031
1345	0.6162
1336	0.4459
1327	0.6221
1318	0.735
1309	0.4942
1300	0.5135
1291	0.4599
1282	0.7228
1273	0.8187
1264	0.8787
1255	0.9034
1246	0.9087
1237	0.894
1228	0.8427
1219	0.721
1210	0.5627
1201	0.7253
1192	0.8688
1183	0.9071
1174	0.9038
1165	0.9109
1156	0.9077
1147	0.9352
1138	0.9368
1129	0.9425
1120	0.9525
1111	0.9435
1102	0.9435
1093	0.9486
1084	0.9533
1075	0.9449
1066	0.9434
1057	0.9393
1048	0.9247
1039	0.8798
1030	0.9105
1021	0.9283
1012	0.9116
1003	0.8842
994	0.8359
985	0.8681
976	0.9378
967	0.9392
958	0.9333
949	0.9349
940	0.9018
931	0.7914
922	0.6824
913	0.9035
904	0.9235
895	0.9187
886	0.9115
877	0.8925
868	0.8723
859	0.8047
850	0.7296
841	0.6334
832	0.5983
823	0.6241
814	0.6764
805	0.728
796	0.7695
787	0.7847
778	0.8202
769	0.8435
760	0.8589
751	0.9144
742	0.9265
733	0.9294
724	0.9373
715	0.9415
706	0.9384
697	0.9405
688	0.9561
679	0.9431
670	0.8936
