Infrared Spectrum: 1-CYCLOPENTANECARBOXYLATE, 2-(DIETHYLAMINOETHOXY)ETHYL-1-PHENYL-
Formula: C20 H31 N O3
CAS: 77-23-6
State: SOLUTION (CS2 FOR 2-15 microns, AND C2Cl4 FOR 2-7.3 microns)
Class: COBLENTZ III
Instrument: PERKIN-ELMER 21 (GRATING)
Instrument parameters: FILTER AT ABOUT 10 MICRONS
Sampling: TRANSMISSION
Resolution: 2
1/CM	TRANSMITTANCE
4000	0.9605
3991	0.9608
3982	0.9612
3973	0.9615
3964	0.9621
3955	0.9627
3946	0.9632
3937	0.9638
3928	0.9643
3919	0.9648
3910	0.9654
3901	0.966
3892	0.9664
3883	0.9666
3874	0.9668
3865	0.9671
3856	0.9673
3847	0.9675
3838	0.9677
3829	0.9677
3820	0.9675
3811	0.9675
3802	0.9675
3793	0.9675
3784	0.9671
3775	0.9667
3766	0.9662
3757	0.9657
3748	0.9653
3739	0.9649
3730	0.9644
3721	0.964
3712	0.9637
3703	0.9633
3694	0.9638
3685	0.9648
3676	0.966
3667	0.9671
3658	0.9683
3649	0.9692
3640	0.9701
3631	0.9709
3622	0.9718
3613	0.9725
3604	0.9732
3595	0.9735
3586	0.9733
3577	0.9725
3568	0.9718
3559	0.9712
3550	0.9712
3541	0.9711
3532	0.971
3523	0.9705
3514	0.97
3505	0.9694
3496	0.9675
3487	0.965
3478	0.9617
3469	0.9597
3460	0.9592
3451	0.9611
3442	0.9631
3433	0.9645
3424	0.9656
3415	0.9668
3406	0.968
3397	0.9689
3388	0.9689
3379	0.9687
3370	0.9686
3361	0.9684
3352	0.9682
3343	0.9681
3334	0.9678
3325	0.9677
3316	0.9675
3307	0.9671
3298	0.9668
3289	0.9665
3280	0.9662
3271	0.9659
3262	0.9656
3253	0.9653
3244	0.9649
3235	0.9639
3226	0.9635
3217	0.9625
3208	0.9617
3199	0.9605
3190	0.9592
3181	0.9578
3172	0.9556
3163	0.9509
3154	0.9291
3145	0.9189
3136	0.9098
3127	0.8999
3118	0.886
3109	0.8671
3100	0.8478
3091	0.8317
3082	0.8216
3073	0.8211
3064	0.8207
3055	0.8099
3046	0.8057
3037	0.8018
3028	0.7761
3019	0.701
3010	0.512
3001	0.3804
2992	0.2479
2983	0.1846
2974	0.189
2965	0.2275
2956	0.2694
2947	0.3116
2938	0.354
2929	0.3966
2920	0.4217
2911	0.4177
2902	0.3868
2893	0.3548
2884	0.3353
2875	0.3658
2866	0.4481
2857	0.5304
2848	0.5507
2839	0.544
2830	0.5347
2821	0.5276
2812	0.5447
2803	0.6112
2794	0.6781
2785	0.7295
2776	0.7594
2767	0.7824
2758	0.8022
2749	0.8184
2740	0.8334
2731	0.8464
2722	0.8591
2713	0.87
2704	0.8809
2695	0.8896
2686	0.8975
2677	0.9054
2668	0.9116
2659	0.9171
2650	0.9225
2641	0.927
2632	0.9309
2623	0.9349
2614	0.9387
2605	0.9414
2596	0.9441
2587	0.9468
2578	0.9495
2569	0.9516
2560	0.9533
2551	0.9551
2542	0.9568
2533	0.9585
2524	0.9603
2515	0.9621
2506	0.9636
2497	0.9651
2488	0.9657
2479	0.9662
2470	0.9666
2461	0.9662
2452	0.9656
2443	0.9651
2434	0.9648
2425	0.9646
2416	0.9643
2407	0.964
2398	0.9639
2389	0.9639
2380	0.9639
2371	0.964
2362	0.964
2353	0.9644
2344	0.9646
2335	0.9625
2326	0.9581
2317	0.9533
2308	0.952
2299	0.956
2290	0.9607
2281	0.9643
2272	0.9668
2263	0.9673
2254	0.9668
2245	0.9658
2236	0.9647
2227	0.9638
2218	0.9634
2209	0.9631
2200	0.9632
2191	0.9637
2182	0.9642
2173	0.9643
2164	0.9641
2155	0.962
2146	0.9599
2137	0.9578
2128	0.9565
2119	0.9558
2110	0.9612
2101	0.9668
2092	0.9702
2083	0.971
2074	0.9691
2065	0.966
2056	0.9649
2047	0.9671
2038	0.9697
2029	0.9705
2020	0.9707
2011	0.9691
2002	0.9658
1993	0.9624
1984	0.9617
1975	0.9559
1966	0.9486
1957	0.943
1948	0.9477
1939	0.9571
1930	0.9618
1921	0.9648
1912	0.9668
1903	0.9638
1894	0.9589
1885	0.9535
1876	0.952
1867	0.9594
1858	0.9667
1849	0.9688
1840	0.9665
1831	0.9556
1822	0.9407
1813	0.9278
1804	0.9327
1795	0.9317
1786	0.9266
1777	0.9025
1768	0.8437
1759	0.6758
1750	0.3262
1741	0.0655
1732	0.3984
1723	0.8121
1714	0.859
1705	0.8894
1696	0.9166
1687	0.938
1678	0.9482
1669	0.9548
1660	0.9583
1651	0.9598
1642	0.9615
1633	0.963
1624	0.9518
1615	0.8828
1606	0.9103
1597	0.9374
1588	0.9521
1579	0.962
1570	0.9721
1561	0.9681
1552	0.9699
1543	0.9653
1534	0.9681
1525	0.9607
1516	0.9142
1507	0.7265
1498	0.7761
1489	0.7874
1480	0.7046
1471	0.6587
1462	0.5112
1453	0.5837
1444	0.7957
1435	0.8906
1426	0.9036
1417	0.9057
1408	0.8961
1399	0.7918
1390	0.6401
1381	0.6405
1372	0.6958
1363	0.7087
1354	0.7148
1345	0.7211
1336	0.6843
1327	0.675
1318	0.6732
1309	0.5939
1300	0.5624
1291	0.6025
1282	0.619
1273	0.578
1264	0.4828
1255	0.3952
1246	0.3649
1237	0.4048
1228	0.4939
1219	0.5127
1210	0.4762
1201	0.495
1192	0.3798
1183	0.3103
1174	0.3247
1165	0.1859
1156	0.3814
1147	0.3814
1138	0.2063
1129	0.1687
1120	0.306
1111	0.4725
1102	0.5364
1093	0.5215
1084	0.5015
1075	0.3937
1066	0.4855
1057	0.5892
1048	0.5184
1039	0.481
1030	0.6273
1021	0.7164
1012	0.7542
1003	0.8214
994	0.7647
985	0.8257
976	0.8478
967	0.8378
958	0.8468
949	0.8421
940	0.8803
931	0.8961
922	0.8768
913	0.847
904	0.8412
895	0.8721
886	0.887
877	0.89
868	0.884
859	0.8785
850	0.8921
841	0.9092
832	0.9182
823	0.9195
814	0.9
805	0.8886
796	0.8909
787	0.8737
778	0.7917
769	0.789
760	0.8165
751	0.8174
742	0.7538
733	0.6222
724	0.8321
715	0.888
706	0.841
697	0.256
