Infrared Spectrum: BARBITURIC ACID, 5-ETHYL-5-n-HEXYL-
Formula: C12 H20 N2 O3
CAS: 77-30-5
State: SOLID (1 mg / 200 mg KBr DISC)
Melting point: 122-123 C
Class: COBLENTZ III
Instrument: PERKIN-ELMER 21 (GRATING)
Instrument parameters: FILTER AT ABOUT 10 MICRONS
Sampling: TRANSMISSION
Resolution: 2
1/CM	TRANSMITTANCE
4000	0.7001
3991	0.7004
3982	0.7008
3973	0.7011
3964	0.7014
3955	0.7018
3946	0.7021
3937	0.7024
3928	0.7026
3919	0.703
3910	0.7034
3901	0.7037
3892	0.704
3883	0.7044
3874	0.7047
3865	0.7051
3856	0.7055
3847	0.7058
3838	0.7061
3829	0.7065
3820	0.7068
3811	0.7071
3802	0.7075
3793	0.7076
3784	0.708
3775	0.708
3766	0.7078
3757	0.7075
3748	0.7071
3739	0.7068
3730	0.7065
3721	0.7064
3712	0.7058
3703	0.7049
3694	0.704
3685	0.7031
3676	0.7021
3667	0.7012
3658	0.7
3649	0.6987
3640	0.6974
3631	0.696
3622	0.6947
3613	0.6934
3604	0.6912
3595	0.6878
3586	0.6842
3577	0.6805
3568	0.6768
3559	0.6718
3550	0.6668
3541	0.6617
3532	0.6565
3523	0.6506
3514	0.6442
3505	0.6378
3496	0.6314
3487	0.6248
3478	0.6182
3469	0.6101
3460	0.5992
3451	0.5905
3442	0.5824
3433	0.577
3424	0.577
3415	0.577
3406	0.5769
3397	0.5769
3388	0.5769
3379	0.5765
3370	0.576
3361	0.5747
3352	0.5715
3343	0.5662
3334	0.5573
3325	0.5458
3316	0.53
3307	0.5081
3298	0.4791
3289	0.4497
3280	0.4203
3271	0.3906
3262	0.3609
3253	0.3309
3244	0.3008
3235	0.2705
3226	0.24
3217	0.2216
3208	0.2046
3199	0.2023
3190	0.2032
3181	0.2143
3172	0.2267
3163	0.239
3154	0.2515
3145	0.2641
3136	0.2697
3127	0.2646
3118	0.2487
3109	0.2327
3100	0.2166
3091	0.2004
3082	0.1926
3073	0.1933
3064	0.2007
3055	0.2387
3046	0.2775
3037	0.3166
3028	0.3559
3019	0.3954
3010	0.4345
3001	0.4505
2992	0.452
2983	0.4471
2974	0.4212
2965	0.3509
2956	0.3404
2947	0.3344
2938	0.3077
2929	0.2728
2920	0.2572
2911	0.2509
2902	0.2556
2893	0.3242
2884	0.3614
2875	0.3645
2866	0.363
2857	0.3503
2848	0.338
2839	0.3634
2830	0.471
2821	0.5321
2812	0.5739
2803	0.605
2794	0.6407
2785	0.6639
2776	0.6812
2767	0.6914
2758	0.701
2749	0.7078
2740	0.7149
2731	0.7221
2722	0.7295
2713	0.7358
2704	0.7419
2695	0.7457
2686	0.749
2677	0.7512
2668	0.7534
2659	0.7555
2650	0.7575
2641	0.7594
2632	0.7612
2623	0.7626
2614	0.7636
2605	0.7645
2596	0.7651
2587	0.7656
2578	0.7658
2569	0.7651
2560	0.765
2551	0.7662
2542	0.7675
2533	0.7687
2524	0.7695
2515	0.77
2506	0.77
2497	0.7694
2488	0.7683
2479	0.7667
2470	0.7635
2461	0.7598
2452	0.7612
2443	0.7661
2434	0.7711
2425	0.7746
2416	0.778
2407	0.7807
2398	0.7826
2389	0.7836
2380	0.7819
2371	0.78
2362	0.778
2353	0.7761
2344	0.7743
2335	0.7726
2326	0.7711
2317	0.7715
2308	0.7737
2299	0.7782
2290	0.7822
2281	0.7857
2272	0.789
2263	0.795
2254	0.7948
2245	0.7918
2236	0.7908
2227	0.7908
2218	0.7908
2209	0.7908
2200	0.7911
2191	0.7911
2182	0.7912
2173	0.7915
2164	0.7918
2155	0.7921
2146	0.7922
2137	0.7918
2128	0.7904
2119	0.7885
2110	0.7858
2101	0.7795
2092	0.7726
2083	0.7735
2074	0.7788
2065	0.7819
2056	0.7847
2047	0.7869
2038	0.7882
2029	0.789
2020	0.7883
2011	0.786
2002	0.7832
1993	0.7815
1984	0.7803
1975	0.7796
1966	0.7789
1957	0.7768
1948	0.7694
1939	0.7565
1930	0.7475
1921	0.7454
1912	0.7482
1903	0.7497
1894	0.7432
1885	0.7404
1876	0.7332
1867	0.7224
1858	0.7099
1849	0.6962
1840	0.6817
1831	0.665
1822	0.6481
1813	0.6309
1804	0.6097
1795	0.5816
1786	0.5212
1777	0.4226
1768	0.3362
1759	0.0599
1750	0.1195
1741	0.085
1732	0.0622
1723	0.0572
1714	0.061
1705	0.0522
1696	0.0481
1687	0.0875
1678	0.2051
1669	0.3165
1660	0.3805
1651	0.4392
1642	0.5424
1633	0.5915
1624	0.6237
1615	0.6519
1606	0.673
1597	0.6903
1588	0.7035
1579	0.7117
1570	0.7145
1561	0.709
1552	0.6692
1543	0.6591
1534	0.6946
1525	0.7115
1516	0.7124
1507	0.7067
1498	0.7182
1489	0.6991
1480	0.6453
1471	0.4802
1462	0.2523
1453	0.2414
1444	0.1873
1435	0.1082
1426	0.1394
1417	0.2239
1408	0.3421
1399	0.4367
1390	0.4506
1381	0.217
1372	0.3001
1363	0.366
1354	0.333
1345	0.2912
1336	0.2341
1327	0.2885
1318	0.224
1309	0.286
1300	0.4384
1291	0.4995
1282	0.58
1273	0.5975
1264	0.6351
1255	0.6612
1246	0.6608
1237	0.487
1228	0.3166
1219	0.4193
1210	0.6187
1201	0.7011
1192	0.7006
1183	0.6508
1174	0.7315
1165	0.7465
1156	0.7138
1147	0.7697
1138	0.7861
1129	0.8041
1120	0.8031
1111	0.8047
1102	0.8019
1093	0.7965
1084	0.7808
1075	0.7725
1066	0.7825
1057	0.7857
1048	0.7068
1039	0.7556
1030	0.7908
1021	0.8017
1012	0.8015
1003	0.7921
994	0.7831
985	0.8015
976	0.8146
967	0.8196
958	0.8119
949	0.803
940	0.8057
931	0.8067
922	0.8028
913	0.7919
904	0.7758
895	0.7512
886	0.7158
877	0.6576
868	0.5618
859	0.4325
850	0.3686
841	0.4003
832	0.4339
823	0.4259
814	0.4667
805	0.5415
796	0.607
787	0.648
778	0.6592
769	0.6921
760	0.6751
751	0.7356
742	0.6301
733	0.7284
724	0.7653
715	0.8054
706	0.8223
697	0.832
688	0.8331
