Infrared Spectrum: Methsuximide
Formula: C 12 H 13 N O 2
CAS: 77-41-8
State: gas
Instrument: HP-GC/MS/IRD
Origin: NIST Mass Spectrometry Data Center
1/CM	ABSORBANCE
550	0.0001281
562	4.88e-05
574	4.27e-05
586	0.0002623
598	0.000427
610	0.0005185
622	0.0008906
634	0.0009394
646	0.0009272
658	0.0006954
670	0.0009089
682	0.0023058
694	0.0045262
706	0.003172
718	0.0014091
730	0.0008174
742	0.0007137
754	0.0009394
766	0.0011956
778	0.0007381
790	0.000549
802	0.0005246
814	0.0003172
826	0.0001037
838	6.1e-05
850	2.44e-05
862	7.32e-05
874	0.0001464
886	0.0004758
898	0.0005856
910	0.0002684
922	0.0003172
934	0.0008174
946	0.0014274
958	0.0007442
970	0.0004026
982	0.0003843
994	0.0007137
1006	0.0018544
1018	0.0059048
1030	0.0073322
1042	0.0022814
1054	0.0011468
1066	0.0018178
1078	0.0028243
1090	0.0022692
1102	0.0013847
1114	0.0009089
1126	0.0008601
1138	0.0014091
1150	0.0017507
1162	0.0017629
1174	0.0022936
1186	0.001952
1198	0.0010187
1210	0.0005612
1222	0.0005002
1234	0.0007137
1246	0.0010675
1258	0.0022997
1270	0.0065148
1282	0.0081862
1294	0.0049349
1306	0.0028304
1318	0.0018727
1330	0.0017202
1342	0.0019764
1354	0.0030622
1366	0.007198
1378	0.0104127
1390	0.0078507
1402	0.0038674
1414	0.0041053
1426	0.0082167
1438	0.0088145
1450	0.00427
1462	0.0025559
1474	0.0017019
1486	0.0018483
1498	0.0025925
1510	0.0015494
1522	0.0008113
1534	0.0006405
1546	0.0005246
1558	0.0004514
1570	0.0005124
1582	0.0006344
1594	0.0008967
1606	0.0008479
1618	0.0005307
1630	0.0005185
1642	0.0005856
1654	0.0007686
1666	0.0011956
1678	0.0017385
1690	0.0030134
1702	0.0058011
1714	0.0160247
1726	0.0547109
1738	0.0405162
1750	0.008479
1762	0.0041053
1774	0.003416
1786	0.0058499
1798	0.0051484
1810	0.0012017
1822	0.0006405
1834	0.0004514
1846	0.000366
1858	0.0003782
1870	0.0003843
1882	0.0004087
1894	0.0003416
1906	0.0002745
1918	0.0002562
1930	0.0002379
1942	0.0002684
1954	0.0002989
1966	0.0002257
1978	0.000122
1990	8.54e-05
2002	6.1e-05
2014	6.1e-05
2026	6.71e-05
2038	4.88e-05
2050	5.49e-05
2062	5.49e-05
2074	6.71e-05
2086	4.27e-05
2098	5.49e-05
2110	6.1e-05
2122	4.88e-05
2134	4.27e-05
2146	6.1e-05
2158	5.49e-05
2170	4.27e-05
2182	3.05e-05
2194	1.83e-05
2206	6.1e-06
2218	0
2230	0
2242	1.83e-05
2254	1.83e-05
2266	1.22e-05
2278	1.22e-05
2290	1.22e-05
2302	4.88e-05
2314	9.76e-05
2326	9.76e-05
2338	4.27e-05
2350	4.88e-05
2362	6.1e-05
2374	7.93e-05
2386	7.32e-05
2398	7.32e-05
2410	8.54e-05
2422	6.71e-05
2434	7.32e-05
2446	7.93e-05
2458	6.71e-05
2470	4.88e-05
2482	3.66e-05
2494	3.66e-05
2506	5.49e-05
2518	6.1e-05
2530	4.88e-05
2542	4.88e-05
2554	3.05e-05
2566	4.88e-05
2578	6.71e-05
2590	3.05e-05
2602	6.71e-05
2614	4.27e-05
2626	4.88e-05
2638	7.32e-05
2650	0.0001037
2662	0.0001098
2674	6.71e-05
2686	7.32e-05
2698	5.49e-05
2710	6.71e-05
2722	7.93e-05
2734	4.88e-05
2746	5.49e-05
2758	4.27e-05
2770	4.88e-05
2782	5.49e-05
2794	0.0001098
2806	0.0001098
2818	0.0001403
2830	0.0001952
2842	0.0002562
2854	0.0002684
2866	0.0004453
2878	0.0008052
2890	0.0008784
2902	0.0010187
2914	0.0011285
2926	0.0014579
2938	0.00244
2950	0.002745
2962	0.0024339
2974	0.0035685
2986	0.0020069
2998	0.0014823
3010	0.0008479
3022	0.0009455
3034	0.0014396
3046	0.0014457
3058	0.0016165
3070	0.0026169
3082	0.0018056
3094	0.0012078
3106	0.0008296
3118	0.0004575
3130	0.0001952
3142	0.0001525
3154	0.0001464
3166	0.000122
3178	9.76e-05
3190	7.32e-05
3202	0.0001037
3214	7.93e-05
3226	7.32e-05
3238	5.49e-05
3250	7.32e-05
3262	6.1e-05
3274	4.88e-05
3286	4.27e-05
3298	6.1e-05
3310	3.05e-05
3322	4.27e-05
3334	4.88e-05
3346	5.49e-05
3358	2.44e-05
3370	1.83e-05
3382	8.54e-05
3394	6.71e-05
3406	7.32e-05
3418	9.15e-05
3430	7.93e-05
3442	0.0001708
3454	0.0002257
3466	0.0002135
3478	0.0002318
3490	0.0003111
3502	0.0005612
3514	0.0004331
3526	0.0001647
3538	7.32e-05
3550	7.93e-05
3562	8.54e-05
3574	0.0001037
3586	7.93e-05
3598	9.15e-05
3610	4.88e-05
3622	5.49e-05
3634	4.88e-05
3646	6.1e-05
3658	4.88e-05
3670	3.05e-05
3682	6.1e-05
3694	5.49e-05
3706	8.54e-05
3718	9.76e-05
3730	5.49e-05
3742	2.44e-05
3754	3.66e-05
3766	2.44e-05
3778	4.27e-05
3790	6.1e-05
3802	1.22e-05
3814	3.05e-05
3826	4.27e-05
3838	4.88e-05
