Infrared Spectrum: Beta-Santalol
Formula: C15 H24 O
CAS: 77-42-9
State: LIQUID (NEAT)
Class: COBLENTZ
Instrument: BECKMAN IR-12 (GRATING)
Instrument parameters: GRATING
Sampling: TRANSMISSION
Path length: CAPILLARY (BEAM CONDENSER)
Resolution: 2
Origin: COLGATE-PALMOLIVE COMPANY (KELLENBACH)
1/CM	TRANSMITTANCE
404	0.3025
413	0.352
422	0.3598
431	0.3782
440	0.4061
449	0.4273
458	0.4392
467	0.4612
476	0.4911
485	0.5186
494	0.5156
503	0.5293
512	0.5673
521	0.5695
530	0.5804
539	0.5915
548	0.6019
557	0.611
566	0.6144
575	0.6137
584	0.6111
593	0.6063
602	0.5975
611	0.5894
620	0.5877
629	0.5939
638	0.5734
647	0.5237
656	0.4788
665	0.5135
674	0.506
683	0.5298
692	0.5545
701	0.5792
710	0.6038
719	0.6285
728	0.6496
737	0.6415
746	0.6219
755	0.6404
764	0.6748
773	0.6602
782	0.6763
791	0.6352
800	0.5788
809	0.5621
818	0.5995
827	0.6572
836	0.6721
845	0.6692
854	0.6346
863	0.6551
872	0.5209
881	0.2165
890	0.3671
899	0.5496
908	0.7014
917	0.7138
926	0.7418
935	0.7161
944	0.6294
953	0.5949
962	0.6154
971	0.6197
980	0.6166
989	0.4653
998	0.2361
1007	0.1622
1016	0.1728
1025	0.2006
1034	0.2856
1043	0.3659
1052	0.4512
1061	0.5415
1070	0.5659
1079	0.5319
1088	0.5232
1097	0.5394
1106	0.5156
1115	0.6127
1124	0.714
1133	0.7692
1142	0.7729
1151	0.7769
1160	0.7415
1169	0.7707
1178	0.7996
1187	0.7886
1196	0.7818
1205	0.7875
1214	0.7627
1223	0.73
1232	0.7164
1241	0.7058
1250	0.6728
1259	0.5862
1268	0.6313
1277	0.7153
1286	0.754
1295	0.7322
1304	0.6751
1313	0.728
1322	0.7311
1331	0.7539
1340	0.7243
1349	0.7342
1358	0.6982
1367	0.6178
1376	0.457
1385	0.5421
1394	0.6203
1403	0.6257
1412	0.6206
1421	0.5704
1430	0.5186
1439	0.4167
1448	0.3109
1457	0.2657
1466	0.3621
1475	0.5122
1484	0.6616
1493	0.7454
1502	0.812
1511	0.7866
1520	0.7993
1529	0.821
1538	0.8447
1547	0.8289
1556	0.8631
1565	0.8645
1574	0.8738
1583	0.8819
1592	0.8941
1601	0.8982
1610	0.8799
1619	0.8436
1628	0.8139
1637	0.7403
1646	0.6775
1655	0.5328
1664	0.6396
1673	0.7026
1682	0.689
1691	0.7085
1700	0.7688
1709	0.8103
1718	0.7479
1727	0.7705
1736	0.7839
1745	0.839
1754	0.8596
1763	0.8851
1772	0.8869
1781	0.8908
1790	0.912
1799	0.9171
1808	0.9208
1817	0.9237
1826	0.9152
1835	0.9214
1844	0.9224
1853	0.9283
1862	0.9375
1871	0.9353
1880	0.9312
1889	0.9239
1898	0.9247
1907	0.9303
1916	0.9302
1925	0.9294
1934	0.9284
1943	0.9274
1952	0.9267
1961	0.9262
1970	0.9258
1979	0.9267
1988	0.9267
1997	0.9193
2006	0.9024
2015	0.8953
2024	0.892
2033	0.8911
2042	0.8917
2051	0.8932
2060	0.8944
2069	0.8948
2078	0.8948
2087	0.8945
2096	0.895
2105	0.8967
2114	0.8971
2123	0.8965
2132	0.8958
2141	0.8944
2150	0.8931
2159	0.8917
2168	0.8905
2177	0.8898
2186	0.8925
2195	0.8952
2204	0.8959
2213	0.8958
2222	0.8951
2231	0.8941
2240	0.8931
2249	0.892
2258	0.8909
2267	0.888
2276	0.8851
2285	0.8821
2294	0.8737
2303	0.8614
2312	0.845
2321	0.8311
2330	0.8182
2339	0.8065
2348	0.7947
2357	0.7836
2366	0.787
2375	0.8249
2384	0.8629
2393	0.8743
2402	0.8778
2411	0.8801
2420	0.8812
2429	0.8812
2438	0.8812
2447	0.8807
2456	0.8802
2465	0.8792
2474	0.8777
2483	0.8757
2492	0.8755
2501	0.8756
2510	0.8763
2519	0.8759
2528	0.8734
2537	0.8703
2546	0.8667
2555	0.8631
2564	0.8597
2573	0.8573
2582	0.8555
2591	0.8553
2600	0.8548
2609	0.8529
2618	0.8499
2627	0.8462
2636	0.8422
2645	0.8382
2654	0.8343
2663	0.8303
2672	0.8264
2681	0.8225
2690	0.8164
2699	0.8089
2708	0.799
2717	0.7849
2726	0.7859
2735	0.794
2744	0.7963
2753	0.7935
2762	0.7878
2771	0.7771
2780	0.7589
2789	0.7329
2798	0.7043
2807	0.6693
2816	0.6061
2825	0.5417
2834	0.4772
2843	0.3755
2852	0.2607
2861	0.1595
2870	0.1134
2879	0.1008
2888	0.128
2897	0.1486
2906	0.1109
2915	0.0683
2924	0.0299
2933	0.0177
2942	0.0104
2951	0.0056
2960	0.001
2969	0.0025
2978	0.0341
2987	0.2383
2996	0.4342
3005	0.4959
3014	0.6244
3023	0.6531
3032	0.6574
3041	0.6559
3050	0.6384
3059	0.5774
3068	0.5944
3077	0.6616
3086	0.7157
3095	0.7196
3104	0.7173
3113	0.7146
3122	0.7085
3131	0.6949
3140	0.6773
3149	0.6565
3158	0.6379
3167	0.6166
3176	0.5929
3185	0.5691
3194	0.551
3203	0.5283
3212	0.5056
3221	0.4819
3230	0.4565
3239	0.434
3248	0.4059
3257	0.3825
3266	0.3609
3275	0.3394
3284	0.3214
3293	0.3054
3302	0.2914
3311	0.2788
3320	0.2688
3329	0.266
3338	0.2657
3347	0.2677
3356	0.2714
3365	0.2766
3374	0.2827
3383	0.2893
3392	0.2992
3401	0.3119
3410	0.3239
3419	0.3398
3428	0.3614
3437	0.388
3446	0.407
3455	0.427
3464	0.4524
3473	0.4709
3482	0.4904
3491	0.513
3500	0.5436
3509	0.5847
3518	0.6097
3527	0.6597
3536	0.6772
3545	0.689
3554	0.7031
3563	0.7158
3572	0.748
3581	0.7644
3590	0.7807
3599	0.788
3608	0.7871
3617	0.7898
3626	0.8092
3635	0.8354
3644	0.8378
3653	0.8551
3662	0.8527
3671	0.8321
3680	0.8379
3689	0.8563
3698	0.8624
3707	0.8592
3716	0.8514
3725	0.8427
3734	0.8349
3743	0.8309
3752	0.8326
3761	0.8513
3770	0.8691
3779	0.8735
3788	0.8733
3797	0.8676
3806	0.8593
3815	0.8562
3824	0.8574
3833	0.8598
3842	0.8606
3851	0.8554
3860	0.849
3869	0.8486
3878	0.8509
3887	0.8541
3896	0.8582
3905	0.8611
3914	0.8633
3923	0.8648
3932	0.8659
3941	0.8686
3950	0.8733
3959	0.8796
3968	0.8806
3977	0.8776
3986	0.8771
3995	0.8786
