Infrared Spectrum: Cedrol
Formula: C15 H26 O
CAS: 77-53-2
State: SOLID (NEAT)
Class: COBLENTZ III
Instrument: BECKMAN IR-12 (GRATING)
Instrument parameters: GRATING
Sampling: TRANSMISSION
Path length: FILM
Resolution: 2
Origin: COLGATE-PALMOLIVE COMPANY (KELLENBACH)
1/CM	TRANSMITTANCE
403	0.5384
412	0.5298
421	0.54
430	0.5797
439	0.5721
448	0.5735
457	0.5478
466	0.5776
475	0.5955
484	0.6273
493	0.5658
502	0.5658
511	0.5754
520	0.568
529	0.5729
538	0.6332
547	0.5857
556	0.6506
565	0.7359
574	0.728
583	0.7436
592	0.7693
601	0.8105
610	0.7765
619	0.8341
628	0.8698
637	0.8489
646	0.8344
655	0.8606
664	0.8494
673	0.806
682	0.7901
691	0.8565
700	0.8731
709	0.8721
718	0.8767
727	0.87
736	0.8411
745	0.8435
754	0.8482
763	0.8726
772	0.874
781	0.8339
790	0.8548
799	0.8567
808	0.8683
817	0.8457
826	0.8706
835	0.8665
844	0.8694
853	0.8379
862	0.8307
871	0.7802
880	0.8429
889	0.842
898	0.8253
907	0.7444
916	0.6926
925	0.4301
934	0.2719
943	0.4813
952	0.4162
961	0.5771
970	0.423
979	0.4976
988	0.7578
997	0.7699
1006	0.5666
1015	0.4997
1024	0.6831
1033	0.7721
1042	0.7642
1051	0.7129
1060	0.529
1069	0.4387
1078	0.6019
1087	0.6245
1096	0.4622
1105	0.3756
1114	0.4587
1123	0.478
1132	0.2513
1141	0.2421
1150	0.2142
1159	0.498
1168	0.4992
1177	0.5102
1186	0.5729
1195	0.5439
1204	0.592
1213	0.7133
1222	0.574
1231	0.3064
1240	0.4848
1249	0.6562
1258	0.7206
1267	0.6927
1276	0.7715
1285	0.7367
1294	0.6697
1303	0.6669
1312	0.6168
1321	0.4863
1330	0.3494
1339	0.3345
1348	0.452
1357	0.545
1366	0.1504
1375	0.2282
1384	0.4254
1393	0.4243
1402	0.519
1411	0.6209
1420	0.6402
1429	0.6115
1438	0.3454
1447	0.2107
1456	0.0828
1465	0.0688
1474	0.197
1483	0.2729
1492	0.4208
1501	0.6996
1510	0.7451
1519	0.7819
1528	0.7866
1537	0.7959
1546	0.7911
1555	0.8084
1564	0.8011
1573	0.8112
1582	0.818
1591	0.8207
1600	0.822
1609	0.821
1618	0.8187
1627	0.8154
1636	0.8126
1645	0.8091
1654	0.8004
1663	0.8105
1672	0.8083
1681	0.8016
1690	0.8052
1699	0.8026
1708	0.7996
1717	0.8032
1726	0.8065
1735	0.8075
1744	0.8062
1753	0.8045
1762	0.8026
1771	0.8011
1780	0.8
1789	0.7995
1798	0.799
1807	0.7988
1816	0.7982
1825	0.7972
1834	0.7962
1843	0.7944
1852	0.7926
1861	0.7914
1870	0.7928
1879	0.7882
1888	0.788
1897	0.7881
1906	0.7881
1915	0.7878
1924	0.787
1933	0.7869
1942	0.7871
1951	0.7873
1960	0.7875
1969	0.7876
1978	0.7878
1987	0.788
1996	0.7881
2005	0.7794
2014	0.7673
2023	0.7623
2032	0.7622
2041	0.7625
2050	0.7603
2059	0.7574
2068	0.7553
2077	0.7545
2086	0.7536
2095	0.7528
2104	0.7519
2113	0.751
2122	0.7499
2131	0.7486
2140	0.7473
2149	0.7457
2158	0.7438
2167	0.7419
2176	0.74
2185	0.7385
2194	0.7372
2203	0.7353
2212	0.7326
2221	0.7299
2230	0.7277
2239	0.7255
2248	0.7234
2257	0.7212
2266	0.7192
2275	0.7172
2284	0.7152
2293	0.7136
2302	0.7121
2311	0.7104
2320	0.7086
2329	0.7046
2338	0.6989
2347	0.6926
2356	0.686
2365	0.68
2374	0.6792
2383	0.6838
2392	0.6883
2401	0.6899
2410	0.6907
2419	0.6908
2428	0.6905
2437	0.689
2446	0.6875
2455	0.686
2464	0.6846
2473	0.6832
2482	0.6818
2491	0.6804
2500	0.6784
2509	0.6757
2518	0.6731
2527	0.6705
2536	0.6674
2545	0.6641
2554	0.6595
2563	0.6549
2572	0.65
2581	0.6433
2590	0.6353
2599	0.6377
2608	0.6409
2617	0.6347
2626	0.6336
2635	0.6359
2644	0.6382
2653	0.6324
2662	0.6242
2671	0.6266
2680	0.6298
2689	0.6302
2698	0.6264
2707	0.6171
2716	0.6063
2725	0.6032
2734	0.6083
2743	0.6146
2752	0.6153
2761	0.604
2770	0.5944
2779	0.5879
2788	0.5778
2797	0.5634
2806	0.5482
2815	0.532
2824	0.509
2833	0.4741
2842	0.3097
2851	0.1897
2860	0.0843
2869	0.0112
2878	0.0188
2887	0.0123
2896	0.0127
2905	0.0116
2914	0.0026
2923	0.0011
2932	0.0001
2941	0.0001
2950	0
2959	0
2968	0
2977	0.024
2986	0.0962
2995	0.1233
3004	0.2372
3013	0.4347
3022	0.5227
3031	0.5534
3040	0.5814
3049	0.6104
3058	0.625
3067	0.6305
3076	0.6334
3085	0.6339
3094	0.6343
3103	0.6337
3112	0.6326
3121	0.6305
3130	0.6282
3139	0.6253
3148	0.6218
3157	0.6175
3166	0.6148
3175	0.6133
3184	0.6075
3193	0.6011
3202	0.5961
3211	0.5941
3220	0.5943
3229	0.5954
3238	0.5973
3247	0.5987
3256	0.5994
3265	0.5983
3274	0.5959
3283	0.5918
3292	0.5888
3301	0.5886
3310	0.5836
3319	0.579
3328	0.5741
3337	0.5678
3346	0.5572
3355	0.5438
3364	0.5293
3373	0.5116
3382	0.484
3391	0.457
3400	0.4293
3409	0.389
3418	0.3456
3427	0.3021
3436	0.2587
3445	0.2221
3454	0.1917
3463	0.1592
3472	0.1264
3481	0.0901
3490	0.0685
3499	0.0678
3508	0.1087
3517	0.1581
3526	0.1968
3535	0.2207
3544	0.2425
3553	0.2608
3562	0.2774
3571	0.3073
3580	0.3601
3589	0.4128
3598	0.475
3607	0.5084
3616	0.546
3625	0.5663
3634	0.5791
3643	0.5853
3652	0.5886
3661	0.5904
3670	0.5916
3679	0.5921
3688	0.5926
3697	0.5924
3706	0.5923
3715	0.5922
3724	0.5912
3733	0.5895
3742	0.588
3751	0.5871
3760	0.5874
3769	0.5851
3778	0.5851
3787	0.5866
3796	0.5848
3805	0.579
3814	0.5758
3823	0.5732
3832	0.5718
3841	0.5704
3850	0.5687
3859	0.567
3868	0.5653
3877	0.5645
3886	0.5637
3895	0.5633
3904	0.5644
3913	0.5659
3922	0.5647
3931	0.5607
3940	0.5626
3949	0.5628
3958	0.5621
3967	0.5621
3976	0.5621
3985	0.5618
3994	0.5615
