Infrared Spectrum: 2-BUTANOL, 4-DIMETHYLAMINO-3-METHYL-1,2-DIPHENYL-, PROPIONATE
Formula: C22 H29 N O2
CAS: 77-50-9
State: SOLUTION (CS2 FOR 2-15 microns, AND C2Cl4 FOR 5-7.3 microns)
Class: COBLENTZ III
Instrument: PERKIN-ELMER 21 (GRATING)
Instrument parameters: FILTER AT ABOUT 10 MICRONS
Sampling: TRANSMISSION
Path length: 0.1 CM
Resolution: 2
1/CM	TRANSMITTANCE
4000	0.9625
3991	0.9648
3982	0.9671
3973	0.9683
3964	0.9693
3955	0.9703
3946	0.9713
3937	0.9724
3928	0.9734
3919	0.9743
3910	0.9752
3901	0.9757
3892	0.9762
3883	0.9766
3874	0.9771
3865	0.9775
3856	0.9781
3847	0.9785
3838	0.979
3829	0.9794
3820	0.9798
3811	0.9802
3802	0.9806
3793	0.9811
3784	0.9815
3775	0.9818
3766	0.9821
3757	0.9824
3748	0.9828
3739	0.9831
3730	0.9834
3721	0.9837
3712	0.984
3703	0.9844
3694	0.9848
3685	0.9857
3676	0.9866
3667	0.9875
3658	0.9885
3649	0.9895
3640	0.9904
3631	0.9914
3622	0.9924
3613	0.9932
3604	0.9939
3595	0.9946
3586	0.9952
3577	0.9959
3568	0.9963
3559	0.9965
3550	0.9968
3541	0.997
3532	0.9961
3523	0.994
3514	0.992
3505	0.99
3496	0.9878
3487	0.9853
3478	0.9827
3469	0.9803
3460	0.9777
3451	0.9754
3442	0.9746
3433	0.9752
3424	0.9759
3415	0.9767
3406	0.9771
3397	0.9775
3388	0.978
3379	0.9784
3370	0.9787
3361	0.9791
3352	0.9794
3343	0.9797
3334	0.98
3325	0.9803
3316	0.9807
3307	0.9812
3298	0.9813
3289	0.9808
3280	0.9792
3271	0.9775
3262	0.9753
3253	0.9727
3244	0.9707
3235	0.9688
3226	0.967
3217	0.9658
3208	0.9648
3199	0.9641
3190	0.9637
3181	0.9634
3172	0.963
3163	0.9625
3154	0.9618
3145	0.961
3136	0.9594
3127	0.9562
3118	0.9483
3109	0.9117
3100	0.8721
3091	0.8324
3082	0.8092
3073	0.7746
3064	0.7254
3055	0.7178
3046	0.7312
3037	0.6914
3028	0.7084
3019	0.7625
3010	0.7761
3001	0.6582
2992	0.5207
2983	0.3824
2974	0.3314
2965	0.3705
2956	0.4136
2947	0.4055
2938	0.3914
2929	0.4241
2920	0.4942
2911	0.5648
2902	0.6351
2893	0.6538
2884	0.6564
2875	0.6576
2866	0.6531
2857	0.6354
2848	0.6244
2839	0.6615
2830	0.6664
2821	0.5992
2812	0.516
2803	0.5228
2794	0.5644
2785	0.6067
2776	0.5947
2767	0.4492
2758	0.4839
2749	0.6062
2740	0.7262
2731	0.7911
2722	0.8067
2713	0.815
2704	0.8578
2695	0.9025
2686	0.9184
2677	0.9295
2668	0.9371
2659	0.9428
2650	0.9481
2641	0.952
2632	0.9551
2623	0.9567
2614	0.9584
2605	0.9601
2596	0.962
2587	0.9637
2578	0.9655
2569	0.9668
2560	0.9682
2551	0.9694
2542	0.9703
2533	0.9711
2524	0.972
2515	0.9728
2506	0.9731
2497	0.9703
2488	0.9668
2479	0.966
2470	0.9666
2461	0.9673
2452	0.9682
2443	0.9689
2434	0.9698
2425	0.9705
2416	0.9713
2407	0.972
2398	0.9727
2389	0.9732
2380	0.9738
2371	0.9737
2362	0.9724
2353	0.9697
2344	0.9655
2335	0.9656
2326	0.9666
2317	0.967
2308	0.9668
2299	0.9665
2290	0.9659
2281	0.9664
2272	0.9709
2263	0.9786
2254	0.9836
2245	0.9874
2236	0.9901
2227	0.9917
2218	0.9927
2209	0.9928
2200	0.9899
2191	0.9851
2182	0.9831
2173	0.9823
2164	0.9817
2155	0.9818
2146	0.9818
2137	0.9824
2128	0.9818
2119	0.9814
2110	0.9813
2101	0.9811
2092	0.9839
2083	0.9884
2074	0.9934
2065	0.9967
2056	0.9986
2047	0.9989
2038	0.9999
2029	1.0009
2020	1.0018
2011	1.0023
2002	1.0009
1993	0.9936
1984	0.99
1975	0.9905
1966	0.9732
1957	0.939
1948	0.9263
1939	0.9336
1930	0.9662
1921	0.9743
1912	0.9737
1903	0.968
1894	0.9578
1885	0.943
1876	0.9368
1867	0.9478
1858	0.9592
1849	0.9667
1840	0.9704
1831	0.9659
1822	0.9559
1813	0.9478
1804	0.9396
1795	0.9331
1786	0.9259
1777	0.9058
1768	0.8639
1759	0.67
1750	0.421
1741	0.1694
1732	0.1073
1723	0.2607
1714	0.6738
1705	0.8292
1696	0.8768
1687	0.907
1678	0.927
1669	0.9401
1660	0.9505
1651	0.957
1642	0.9621
1633	0.9655
1624	0.9648
1615	0.9585
1606	0.8121
1597	0.8224
1588	0.9249
1579	0.9066
1570	0.9393
1561	0.9684
1552	0.9683
1543	0.9623
1534	0.966
1525	0.9756
1516	0.9801
1507	0.8453
1498	0.5486
1489	0.7658
1480	0.834
1471	0.5272
1462	0.2993
1453	0.4075
1444	0.4047
1435	0.7169
1426	0.7532
1417	0.8168
1408	0.8799
1399	0.8895
1390	0.7983
1381	0.61
1372	0.5546
1363	0.6243
1354	0.5
1345	0.525
1336	0.6036
1327	0.6507
1318	0.6794
1309	0.7795
1300	0.755
1291	0.6854
1282	0.6451
1273	0.5454
1264	0.5117
1255	0.5862
1246	0.6711
1237	0.656
1228	0.6018
1219	0.4938
1210	0.3858
1201	0.2778
1192	0.144
1183	0.1684
1174	0.157
1165	0.3854
1156	0.4505
1147	0.6264
1138	0.6242
1129	0.7208
1120	0.8051
1111	0.7734
1102	0.6475
1093	0.6789
1084	0.5112
1075	0.441
1066	0.5676
1057	0.7075
1048	0.6526
1039	0.5737
1030	0.4285
1021	0.2537
1012	0.4225
1003	0.6252
994	0.6555
985	0.7675
976	0.7943
967	0.7758
958	0.9092
949	0.94
940	0.9396
931	0.9025
922	0.9109
913	0.8474
904	0.8897
895	0.8725
886	0.876
877	0.9225
868	0.945
859	0.9475
850	0.8583
841	0.8041
832	0.8321
823	0.7969
814	0.8673
805	0.7901
796	0.8675
787	0.9293
778	0.8656
769	0.5582
760	0.7614
751	0.5491
742	0.8101
733	0.7508
724	0.6684
715	0.4812
706	0.3396
697	0.196
688	0.8252
679	0.9123
