Infrared Spectrum: Ethosuximide
Formula: C 7 H 11 N O 2
CAS: 77-67-8
State: gas
Instrument: HP-GC/MS/IRD
Origin: NIST Mass Spectrometry Data Center
1/CM	ABSORBANCE
550	0.003159
562	0.002016
574	0.001035
586	0.0009
598	0.001512
610	0.0027
622	0.005409
634	0.009693
646	0.010413
658	0.006525
670	0.003132
682	0.001764
694	0.001071
706	0.001116
718	0.002277
730	0.002457
742	0.001908
754	0.001764
766	0.000837
778	0.000576
790	0.000783
802	0.000549
814	0.000108
826	3.6e-05
838	0.000225
850	0.000459
862	0.000639
874	0.001062
886	0.001593
898	0.001422
910	0.00171
922	0.002205
934	0.001575
946	0.00081
958	0.000441
970	0.000342
982	0.000378
994	0.000738
1006	0.001593
1018	0.002259
1030	0.001971
1042	0.001431
1054	0.001224
1066	0.001386
1078	0.002583
1090	0.007074
1102	0.014265
1114	0.016164
1126	0.009576
1138	0.003879
1150	0.002637
1162	0.002736
1174	0.003879
1186	0.00603
1198	0.008622
1210	0.007173
1222	0.004221
1234	0.004185
1246	0.004869
1258	0.00558
1270	0.005886
1282	0.006039
1294	0.006795
1306	0.008433
1318	0.012798
1330	0.018045
1342	0.013509
1354	0.005103
1366	0.002403
1378	0.002889
1390	0.003186
1402	0.001926
1414	0.001386
1426	0.001935
1438	0.002115
1450	0.003051
1462	0.003996
1474	0.002916
1486	0.00144
1498	0.000981
1510	0.000792
1522	0.00063
1534	0.000495
1546	0.000396
1558	0.00036
1570	0.000396
1582	0.000351
1594	0.000333
1606	0.000315
1618	0.000396
1630	0.000495
1642	0.000693
1654	0.000972
1666	0.001215
1678	0.001467
1690	0.00234
1702	0.004617
1714	0.009522
1726	0.018612
1738	0.033912
1750	0.065232
1762	0.09
1774	0.059427
1786	0.025209
1798	0.023481
1810	0.017037
1822	0.0054
1834	0.002799
1846	0.001917
1858	0.001422
1870	0.001224
1882	0.001035
1894	0.000855
1906	0.000657
1918	0.000603
1930	0.000657
1942	0.000549
1954	0.000324
1966	0.000198
1978	0.000135
1990	0.000117
2002	8.1e-05
2014	9.9e-05
2026	9.9e-05
2038	0.000126
2050	0.000144
2062	0.000135
2074	8.1e-05
2086	6.3e-05
2098	6.3e-05
2110	8.1e-05
2122	9e-05
2134	6.3e-05
2146	6.3e-05
2158	7.2e-05
2170	8.1e-05
2182	9.9e-05
2194	9e-05
2206	0.000117
2218	0.000117
2230	9.9e-05
2242	8.1e-05
2254	9e-05
2266	8.1e-05
2278	3.6e-05
2290	5.4e-05
2302	5.4e-05
2314	7.2e-05
2326	7.2e-05
2338	9.9e-05
2350	0.000162
2362	0.000162
2374	0.000207
2386	0.000234
2398	0.00027
2410	0.000261
2422	0.000252
2434	0.000243
2446	0.000189
2458	0.000144
2470	8.1e-05
2482	5.4e-05
2494	7.2e-05
2506	6.3e-05
2518	6.3e-05
2530	4.5e-05
2542	4.5e-05
2554	5.4e-05
2566	6.3e-05
2578	9e-05
2590	8.1e-05
2602	0.000108
2614	0.000144
2626	0.000144
2638	0.000171
2650	0.000216
2662	0.000207
2674	0.000144
2686	0.000108
2698	5.4e-05
2710	3.6e-05
2722	7.2e-05
2734	6.3e-05
2746	0.000126
2758	0.000162
2770	0.000153
2782	0.000198
2794	0.000243
2806	0.000306
2818	0.000351
2830	0.000468
2842	0.000684
2854	0.00117
2866	0.002124
2878	0.003096
2890	0.003645
2902	0.003411
2914	0.004014
2926	0.005652
2938	0.00657
2950	0.006678
2962	0.007938
2974	0.011358
2986	0.008991
2998	0.003726
3010	0.001359
3022	0.000747
3034	0.000522
3046	0.000441
3058	0.000387
3070	0.000378
3082	0.000405
3094	0.000351
3106	0.000333
3118	0.00036
3130	0.000351
3142	0.000297
3154	0.000216
3166	0.000171
3178	0.000153
3190	0.000144
3202	0.000144
3214	9e-05
3226	9.9e-05
3238	6.3e-05
3250	6.3e-05
3262	4.5e-05
3274	3.6e-05
3286	9e-06
3298	1.8e-05
3310	9e-06
3322	9e-06
3334	1.8e-05
3346	6.3e-05
3358	1.8e-05
3370	5.4e-05
3382	0.000117
3394	0.00018
3406	0.000252
3418	0.00072
3430	0.002799
3442	0.007893
3454	0.008856
3466	0.00324
3478	0.000648
3490	0.000504
3502	0.000594
3514	0.000747
3526	0.000909
3538	0.000936
3550	0.000801
3562	0.000549
3574	0.000324
3586	0.000234
3598	0.000216
3610	0.000162
3622	0.000135
3634	0.000108
3646	4.5e-05
3658	6.3e-05
3670	4.5e-05
3682	5.4e-05
3694	7.2e-05
3706	7.2e-05
3718	4.5e-05
3730	8.1e-05
3742	5.4e-05
3754	6.3e-05
3766	7.2e-05
3778	7.2e-05
3790	7.2e-05
3802	7.2e-05
3814	6.3e-05
3826	8.1e-05
3838	3.6e-05
