Infrared Spectrum: UREA, (2-BROMO-2-ETHYLBUTYRYL)-
Formula: C7 H13 Br N2 O2
CAS: 77-65-6
State: SOLID (SPLIT MULL)
Class: COBLENTZ II
Instrument: DOW KBr FOREPRISM-GRATING
Instrument parameters: BLAZED AT 3.5, 12.0, 20.0 MICRON AND CHANGED AT 5.0, 7.5, 14.9 MICRON
Sampling: TRANSMISSION
Resolution: 2
Origin: DOW CHEMICAL COMPANY
1/CM	TRANSMITTANCE
451	0.8158
460	0.776
469	0.731
478	0.7792
487	0.8635
496	0.8611
505	0.871
514	0.8652
523	0.8608
532	0.8428
541	0.8408
550	0.8421
559	0.8111
568	0.6978
577	0.6155
586	0.7614
595	0.7088
604	0.6844
613	0.6407
622	0.5438
631	0.56
640	0.6405
649	0.6104
658	0.5258
667	0.3434
676	0.5081
685	0.5323
694	0.6731
703	0.6661
712	0.6718
721	0.6649
730	0.71
739	0.7628
748	0.8098
757	0.7876
766	0.7984
775	0.7182
784	0.6227
793	0.5617
802	0.6159
811	0.6864
820	0.676
829	0.6699
838	0.7843
847	0.7544
856	0.6465
865	0.7864
874	0.8545
883	0.86
892	0.8604
901	0.8586
910	0.8525
919	0.8393
928	0.8071
937	0.811
946	0.7565
955	0.6006
964	0.7018
973	0.8131
982	0.8553
991	0.8652
1000	0.8637
1009	0.845
1018	0.8496
1027	0.8008
1036	0.8
1045	0.8192
1054	0.8151
1063	0.7441
1072	0.7687
1081	0.7807
1090	0.6332
1099	0.3784
1108	0.4235
1117	0.6508
1126	0.7281
1135	0.6955
1144	0.5465
1153	0.5432
1162	0.7005
1171	0.7617
1180	0.7678
1189	0.7684
1198	0.6969
1207	0.5032
1216	0.4229
1225	0.526
1234	0.7126
1243	0.7361
1252	0.731
1261	0.7168
1270	0.6822
1279	0.6052
1288	0.6443
1297	0.6073
1306	0.5168
1315	0.599
1324	0.5772
1333	0.5418
1342	0.4525
1351	0.4107
1360	0.3249
1369	0.1996
1378	0.2159
1387	0.1602
1396	0.3026
1405	0.5171
1414	0.6078
1423	0.6788
1432	0.6326
1441	0.6654
1450	0.5703
1459	0.474
1468	0.4331
1477	0.381
1486	0.5523
1495	0.7825
1504	0.8298
1513	0.8392
1522	0.8484
1531	0.8371
1540	0.8149
1549	0.773
1558	0.6771
1567	0.5566
1576	0.4985
1585	0.4715
1594	0.3987
1603	0.4328
1612	0.6057
1621	0.7562
1630	0.7992
1639	0.7886
1648	0.7512
1657	0.6892
1666	0.5549
1675	0.2534
1684	0.1318
1693	0.0822
1702	0.0234
1711	0.1095
1720	0.0357
1729	0.3012
1738	0.7451
1747	0.882
1756	0.9396
1765	0.9682
1774	0.9789
1783	0.9828
1792	0.9853
1801	0.9906
1810	0.9925
1819	0.9897
1828	0.9891
1837	0.9993
1846	0.9966
1855	0.9997
1864	1.0014
1873	1.0007
1882	0.9985
1891	0.9942
1900	0.9911
1909	0.9914
1918	0.9928
1927	0.9911
1936	0.9907
1945	0.9909
1954	0.9953
1963	1.0006
1972	0.9967
1981	0.9988
1990	0.9896
1999	1.0257
2008	1.0275
2017	1.0262
2026	1.0253
2035	1.0227
2044	1.0202
2053	1.0178
2062	1.0138
2071	1.0095
2080	1.0054
2089	1.0033
2098	1.0018
2107	1.0011
2116	1.0005
2125	0.9988
2134	0.9966
2143	0.9945
2152	0.9903
2161	0.9853
2170	0.9805
2179	0.977
2188	0.975
2197	0.9733
2206	0.9718
2215	0.9698
2224	0.9668
2233	0.9587
2242	0.9498
2251	0.9435
2260	0.9412
2269	0.9417
2278	0.9424
2287	0.9371
2296	0.9314
2305	0.9267
2314	0.93
2323	0.9325
2332	0.9341
2341	0.9358
2350	0.9421
2359	0.9475
2368	0.9466
2377	0.9436
2386	0.943
2395	0.9428
2404	0.9442
2413	0.9449
2422	0.9453
2431	0.949
2440	0.9521
2449	0.9528
2458	0.9496
2467	0.9478
2476	0.947
2485	0.9484
2494	0.9498
2503	0.9502
2512	0.9498
2521	0.9491
2530	0.9487
2539	0.9483
2548	0.9478
2557	0.947
2566	0.9461
2575	0.9447
2584	0.9432
2593	0.9416
2602	0.9397
2611	0.9378
2620	0.936
2629	0.9338
2638	0.9314
2647	0.9288
2656	0.9263
2665	0.9233
2674	0.9202
2683	0.9166
2692	0.9131
2701	0.9105
2710	0.9109
2719	0.9125
2728	0.9071
2737	0.9044
2746	0.9058
2755	0.9043
2764	0.8993
2773	0.8939
2782	0.8875
2791	0.8812
2800	0.8738
2809	0.8625
2818	0.8716
2827	0.8691
2836	0.8512
2845	0.8383
2854	0.8348
2863	0.8316
2872	0.7751
2881	0.7605
2890	0.7994
2899	0.7932
2908	0.7708
2917	0.7404
2926	0.6985
2935	0.639
2944	0.7178
2953	0.7157
2962	0.6378
2971	0.5817
2980	0.6512
2989	0.7268
2998	0.8145
3007	0.8265
3016	0.825
3025	0.8171
3034	0.8034
3043	0.7889
3052	0.7755
3061	0.7618
3070	0.7485
3079	0.7354
3088	0.7265
3097	0.7201
3106	0.7049
3115	0.6781
3124	0.6511
3133	0.6284
3142	0.6067
3151	0.5878
3160	0.5685
3169	0.5517
3178	0.539
3187	0.5267
3196	0.5147
3205	0.5008
3214	0.4891
3223	0.4767
3232	0.4739
3241	0.5108
3250	0.5799
3259	0.6171
3268	0.6221
3277	0.619
3286	0.6082
3295	0.5812
3304	0.5232
3313	0.4237
3322	0.3162
3331	0.4851
3340	0.5198
3349	0.4549
3358	0.2409
3367	0.3051
3376	0.2979
3385	0.1858
3394	0.2203
3403	0.3749
3412	0.6121
3421	0.7842
3430	0.8246
3439	0.8511
3448	0.8723
3457	0.8897
3466	0.9054
3475	0.9144
3484	0.9206
3493	0.9237
3502	0.9228
3511	0.9204
3520	0.9184
3529	0.9196
3538	0.9196
3547	0.9139
3556	0.9135
3565	0.911
3574	0.9035
3583	0.9033
3592	0.9044
3601	0.9033
3610	0.902
3619	0.8995
3628	0.8968
3637	0.8986
3646	0.8999
3655	0.8975
3664	0.8935
3673	0.8873
3682	0.8805
3691	0.8811
3700	0.8852
3709	0.8878
3718	0.8874
3727	0.8857
3736	0.8828
3745	0.8795
3754	0.8767
3763	0.874
3772	0.8725
3781	0.8721
3790	0.8706
3799	0.869
