Infrared Spectrum: Bis(2-hydroxy-5-methyl-3-[1-methylcyclohexyl]phenyl)methane
Formula: C 29 H 40 O 2
CAS: 77-62-3
State: gas
Origin: EPA-IR VAPOR PHASE LIBRARY
1/CM	ABSORBANCE
549.9	0.000365
559.547	0.00026
569.193	0.000174
578.84	0.000317
588.486	0.000211
598.133	0.000318
607.779	0.000421
617.426	0.00048
627.072	0.000307
636.719	0.000356
646.365	0.00025
656.012	0.000227
665.658	0.000269
675.305	0.000321
684.951	0.000271
694.598	0.000283
704.245	0.000226
713.891	0.000254
723.538	0.000311
733.184	0.000329
742.831	0.0005641
752.477	0.0008105
762.124	0.000931
771.77	0.0010162
781.417	0.0007609
791.063	0.000479
800.71	0.000431
810.356	0.00036
820.003	0.000357
829.649	0.00041
839.296	0.000562
848.943	0.0013614
858.589	0.00211
868.236	0.0008501
877.882	0.0005793
887.529	0.0005629
897.175	0.00062091
906.822	0.00064978
916.468	0.00064925
926.115	0.0007177
935.761	0.0006626
945.408	0.00063495
955.054	0.00064101
964.701	0.00066226
974.347	0.0005832
983.994	0.0005244
993.64	0.0005618
1003.29	0.0005348
1012.93	0.0005025
1022.58	0.000473
1032.23	0.000388
1041.87	0.000414
1051.52	0.000392
1061.17	0.000356
1070.81	0.000397
1080.46	0.000444
1090.11	0.0007064
1099.75	0.0009434
1109.4	0.0008362
1119.05	0.0008701
1128.69	0.0011389
1138.34	0.0012664
1147.99	0.0015613
1157.63	0.00214
1167.28	0.00306
1176.92	0.00268
1186.57	0.00235
1196.22	0.00312
1205.86	0.00326
1215.51	0.00259
1225.16	0.00242
1234.8	0.00228
1244.45	0.00189
1254.1	0.00161
1263.74	0.00169
1273.39	0.0015875
1283.04	0.0014188
1292.68	0.00133
1302.33	0.0014543
1311.98	0.0014421
1321.62	0.001336
1331.27	0.0011039
1340.92	0.000967
1350.56	0.0010786
1360.21	0.000919
1369.86	0.0008898
1379.5	0.0013928
1389.15	0.0009228
1398.79	0.0008857
1408.44	0.0012399
1418.09	0.00186
1427.73	0.00244
1437.38	0.00307
1447.03	0.00494
1456.67	0.00593
1466.32	0.00559
1475.97	0.00381
1485.61	0.0015668
1495.26	0.000847
1504.91	0.00062617
1514.55	0.0005297
1524.2	0.000461
1533.85	0.000396
1543.49	0.00043
1553.14	0.000338
1562.79	0.000324
1572.43	0.000387
1582.08	0.000433
1591.73	0.000461
1601.37	0.000606904
1611.02	0.0005027
1620.67	0.000431
1630.31	0.000369
1639.96	0.000311
1649.6	0.000278
1659.25	0.000246
1668.9	0.0002
1678.54	0.000233
1688.19	0.000221
1697.84	0.000272
1707.48	0.000282
1717.13	0.000319
1726.78	0.000372
1736.42	0.000424
1746.07	0.000432
1755.72	0.000426
1765.36	0.000359
1775.01	0.000313
1784.66	0.00035
1794.3	0.000304
1803.95	0.000302
1813.6	0.000306
1823.24	0.00029
1832.89	0.000299
1842.54	0.00032
1852.18	0.000269
1861.83	0.00029
1871.47	0.000299
1881.12	0.000275
1890.77	0.000281
1900.41	0.000281
1910.06	0.000313
1919.71	0.000351
1929.35	0.00032
1939	0.000334
1948.65	0.000366
1958.29	0.000354
1967.94	0.000354
1977.59	0.000373
1987.23	0.000326
1996.88	0.00033
2006.53	0.000364
2016.17	0.000362
2025.82	0.000347
2035.47	0.000367
2045.11	0.000373
2054.76	0.000353
2064.41	0.000386
2074.05	0.000389
2083.7	0.000381
2093.35	0.000389
2102.99	0.000373
2112.64	0.000425
2122.28	0.00038
2131.93	0.000405
2141.58	0.000425
2151.22	0.000399
2160.87	0.000394
2170.52	0.000407
2180.16	0.000401
2189.81	0.000384
2199.46	0.000425
2209.1	0.000424
2218.75	0.000448
2228.4	0.000443
2238.04	0.000455
2247.69	0.000458
2257.34	0.000435
2266.98	0.000443
2276.63	0.000421
2286.28	0.000474
2295.92	0.000451
2305.57	0.000476
2315.22	0.000492
2324.86	0.000485
2334.51	0.0005147
2344.16	0.0005151
2353.8	0.000492
2363.45	0.0005117
2373.09	0.0005193
2382.74	0.0005181
2392.39	0.0005156
2402.03	0.0005172
2411.68	0.000498
2421.33	0.0005456
2430.97	0.0005178
2440.62	0.0005341
2450.27	0.0005157
2459.91	0.0005516
2469.56	0.000579
2479.21	0.0005708
2488.85	0.0005934
2498.5	0.0005745
2508.15	0.000574
2517.79	0.0005855
2527.44	0.00059651
2537.09	0.0005564
2546.73	0.0005605
2556.38	0.0005897
2566.03	0.0005629
2575.67	0.00059394
2585.32	0.00061286
2594.96	0.00063321
2604.61	0.00067249
2614.26	0.00064584
2623.9	0.00068894
2633.55	0.0007413
2643.2	0.0007076
2652.84	0.0007275
2662.49	0.0007909
2672.14	0.0007724
2681.78	0.000791
2691.43	0.0007615
2701.08	0.00069051
2710.72	0.0007237
2720.37	0.0007431
2730.02	0.00076
2739.66	0.0008503
2749.31	0.0008422
2758.96	0.000809
2768.6	0.0008047
2778.25	0.0009247
2787.9	0.000895
2797.54	0.0009565
2807.19	0.0011281
2816.84	0.0011741
2826.48	0.0014134
2836.13	0.00169
2845.77	0.00226
2855.42	0.00523
2865.07	0.00938
2874.71	0.0077
2884.36	0.00512
2894.01	0.00473
2903.65	0.00574
2913.3	0.00833
2922.95	0.0148
2932.59	0.0228
2942.24	0.01749
2951.89	0.0094
2961.53	0.00571
2971.18	0.00381
2980.83	0.00348
2990.47	0.00308
3000.12	0.00275
3009.77	0.00238
3019.41	0.00191
3029.06	0.00176
3038.71	0.0014479
3048.35	0.0013356
3058	0.0011756
3067.64	0.0011525
3077.29	0.0010602
3086.94	0.0010333
3096.58	0.0007974
3106.23	0.00063187
3115.88	0.0005888
3125.52	0.0005759
3135.17	0.000474
3144.82	0.000489
3154.46	0.000471
3164.11	0.0005209
3173.76	0.00038
3183.4	0.000378
3193.05	0.000408
3202.7	0.000248
3212.34	0.000345
3221.99	0.000279
3231.64	0.000132
3241.28	0.000142
3250.93	0.000115
3260.58	0.000201
3270.22	9.7e-05
3279.87	0.000169
3289.52	8.7e-05
3299.16	0.000176
3308.81	0.000103
3318.45	0.00013
3328.1	0.00015
3337.75	0.000202
3347.39	0.00011
3357.04	4.7e-05
3366.69	0.000192
3376.33	0.000136
3385.98	9.1e-05
3395.63	0.00015
3405.27	0.000183
3414.92	0.000331
3424.57	0.00027
3434.21	0.000317
3443.86	0.000379
3453.51	0.00064253
3463.15	0.0007271
3472.8	0.000859
3482.45	0.0012596
3492.09	0.00168
3501.74	0.00205
3511.39	0.00284
3521.03	0.00444
3530.68	0.00513
3540.33	0.00454
3549.97	0.00385
3559.62	0.00301
3569.26	0.00225
3578.91	0.00172
3588.56	0.0011791
3598.2	0.0008455
3607.85	0.0005771
3617.5	0.0005833
3627.14	0.00069185
3636.79	0.0011469
3646.44	0.0015518
3656.08	0.0013488
3665.73	0.001073
3675.38	0.00064935
3685.02	0.000418
3694.67	0.000247
3704.32	0.000189
3713.96	0.000155
3723.61	0.000136
3733.26	0.000195
3742.9	8.4e-05
3752.55	9.7e-05
3762.2	0.00015
3771.84	0.000153
3781.49	0.000248
3791.13	0.000193
3800.78	0.000171
3810.43	0.000163
3820.07	0.000201
3829.72	0.000203
3839.37	0.000278
3849.01	0.000265
3858.66	0.000253
3868.31	0.000248
3877.95	0.00022
3887.6	0.000267
3897.25	0.000267
3906.89	0.000278
3916.54	0.000339
3926.19	0.000279
3935.83	0.000312
3945.48	0.000313
3955.13	0.000309
3964.77	0.000299
3974.42	0.000377
3984.07	0.000322
3993.71	0.000314
