Infrared Spectrum: TETRAMETHYLTETRAPHENYLCYCLOTETRASILOXANE
Formula: C28 H32 O4 Si4
CAS: 77-63-4
State: SOLUTION (10% IN CCl4 FOR 3800-1250, 2% IN CS2 FOR 1250-650, AND 10% IN CCl4 FOR 650-250 CM^-^1)
Boiling point: 100 C
Class: COBLENTZ II
Instrument: PERKIN-ELMER 521 (GRATING)
Instrument parameters: FILTERS AT 3150, 2500, 2000, 1150, 700, 410. GRATING CHANGES: 2000, 630 CM^-^1
Sampling: TRANSMISSION
Path length: 0.010 CM, 0.010 CM, AND 0.010 CM
Resolution: 2
Origin: DOW CORNING CORP.
1/CM	TRANSMITTANCE
226.742	0.759
235.963	0.759
245.185	0.759
254.406	0.756
263.627	0.754
272.849	0.744
282.07	0.73
291.291	0.738
300.513	0.728
309.734	0.706
318.955	0.707
328.177	0.688
337.398	0.662
346.619	0.548
355.841	0.519
365.062	0.489
374.283	0.313
383.505	0.286
392.726	0.316
401.947	0.239
411.168	0.109
420.39	0.097
429.611	0.087
438.832	0.076
448.054	0.335
457.275	0.385
466.496	0.3
475.718	0.121
484.939	0.066
494.16	0.3
503.382	0.663
512.603	0.737
521.824	0.75
531.046	0.716
540.267	0.668
549.488	0.749
558.71	0.773
567.931	0.759
577.152	0.706
586.374	0.568
595.595	0.471
604.816	0.556
614.038	0.689
623.259	0.745
632.48	0.824
641.702	0.853
650.923	0.857
660.144	0.849
669.366	0.848
678.587	0.827
687.808	0.798
697.03	0.461
706.251	0.754
715.472	0.756
724.693	0.547
733.915	0.433
743.136	0.708
752.357	0.517
761.579	0.654
770.8	0.675
780.021	0.476
789.243	0.272
798.464	0.585
807.685	0.749
816.907	0.761
826.128	0.822
835.349	0.832
844.571	0.839
853.792	0.863
863.013	0.875
872.235	0.877
881.456	0.881
890.677	0.882
899.899	0.88
909.12	0.876
918.341	0.885
927.563	0.885
936.784	0.885
946.005	0.883
955.227	0.886
964.448	0.872
973.669	0.86
982.891	0.836
992.112	0.776
1001.33	0.799
1010.55	0.75
1019.78	0.684
1029	0.4911
1038.22	0.577
1047.44	0.406
1056.66	0.24
1065.88	0.143
1075.1	0.112
1084.33	0.124
1093.55	0.19
1102.77	0.344
1111.99	0.447
1121.21	0.215
1130.43	0.624
1139.65	0.765
1148.87	0.815
1158.1	0.847
1167.32	0.858
1176.54	0.862
1185.76	0.863
1194.98	0.868
1204.2	0.871
1213.42	0.875
1222.64	0.87
1231.87	0.868
1241.09	0.852
1250.31	0.5719
1259.53	0.042
1268.75	0.5781
1277.97	0.769
1287.19	0.794
1296.42	0.776
1305.64	0.794
1314.86	0.79
1324.08	0.809
1333.3	0.824
1342.52	0.847
1351.74	0.837
1360.96	0.831
1370.19	0.803
1379.41	0.819
1388.63	0.809
1397.85	0.749
1407.07	0.678
1416.29	0.728
1425.51	0.4689
1434.74	0.77
1443.96	0.823
1453.18	0.836
1462.4	0.833
1471.62	0.836
1480.84	0.822
1490.06	0.7851
1499.28	0.861
1508.51	0.866
1517.73	0.867
1526.95	0.871
1536.17	0.871
1545.39	0.866
1554.61	0.852
1563.83	0.857
1573.06	0.841
1582.28	0.791
1591.5	0.569
1600.72	0.798
1609.94	0.804
1619.16	0.817
1628.38	0.834
1637.6	0.829
1646.83	0.814
1656.05	0.823
1665.27	0.827
1674.49	0.834
1683.71	0.838
1692.93	0.848
1702.15	0.851
1711.38	0.852
1720.6	0.852
1729.82	0.848
1739.04	0.851
1748.26	0.854
1757.48	0.842
1766.7	0.824
1775.92	0.839
1785.15	0.86
1794.37	0.858
1803.59	0.852
1812.81	0.823
1822.03	0.798
1831.25	0.831
1840.47	0.848
1849.7	0.857
1858.92	0.86
1868.14	0.857
1877.36	0.825
1886.58	0.794
1895.8	0.814
1905.02	0.838
1914.24	0.857
1923.47	0.86
1932.69	0.861
1941.91	0.847
1951.13	0.794
1960.35	0.827
1969.57	0.831
1978.79	0.86
1988.01	0.863
1997.24	0.878
2006.46	0.8665
2015.68	0.866
2024.9	0.8676
2034.12	0.8706
2043.34	0.87
2052.56	0.87
2061.79	0.868
2071.01	0.868
2080.23	0.868
2089.45	0.868
2098.67	0.867
2107.89	0.8662
2117.11	0.866
2126.33	0.866
2135.56	0.866
2144.78	0.866
2154	0.866
2163.22	0.8659
2172.44	0.867
2181.66	0.865
2190.88	0.866
2200.11	0.866
2209.33	0.865
2218.55	0.863
2227.77	0.8629
2236.99	0.862
2246.21	0.861
2255.43	0.8622
2264.65	0.8652
2273.88	0.865
2283.1	0.865
2292.32	0.865
2301.54	0.8643
2310.76	0.862
2319.98	0.868
2329.2	0.866
2338.43	0.8667
2347.65	0.8689
2356.87	0.88
2366.09	0.8734
2375.31	0.8621
2384.53	0.86
2393.75	0.8616
2402.97	0.863
2412.2	0.865
2421.42	0.865
2430.64	0.865
2439.86	0.8636
2449.08	0.863
2458.3	0.8628
2467.52	0.861
2476.75	0.862
2485.97	0.8583
2495.19	0.8596
2504.41	0.8598
2513.63	0.861
2522.85	0.861
2532.07	0.86
2541.29	0.857
2550.52	0.857
2559.74	0.857
2568.96	0.858
2578.18	0.857
2587.4	0.858
2596.62	0.854
2605.84	0.856
2615.06	0.8572
2624.29	0.86
2633.51	0.86
2642.73	0.857
2651.95	0.856
2661.17	0.857
2670.39	0.86
2679.61	0.8574
2688.84	0.856
2698.06	0.8536
2707.28	0.847
2716.5	0.859
2725.72	0.86
2734.94	0.86
2744.16	0.8564
2753.38	0.8524
2762.61	0.853
2771.83	0.851
2781.05	0.849
2790.27	0.846
2799.49	0.842
2808.71	0.8368
2817.93	0.8279
2827.16	0.8228
2836.38	0.825
2845.6	0.8232
2854.82	0.824
2864.04	0.8221
2873.26	0.822
2882.48	0.809
2891.7	0.7912
2900.93	0.769
2910.15	0.7762
2919.37	0.7979
2928.59	0.794
2937.81	0.7749
2947.03	0.7285
2956.25	0.5125
2965.48	0.5132
2974.7	0.6955
2983.92	0.752
2993.14	0.7015
3002.36	0.5756
3011.58	0.5933
3020.8	0.5777
3030.02	0.6335
3039.25	0.6615
3048.47	0.4781
3057.69	0.575
3066.91	0.4397
3076.13	0.5386
3085.35	0.7169
3094.57	0.7185
3103.8	0.8145
3113.02	0.8246
3122.24	0.827
3131.46	0.808
3140.68	0.8194
3149.9	0.8354
3159.12	0.8387
3168.34	0.8437
3177.57	0.8478
3186.79	0.8518
3196.01	0.8556
3205.23	0.858
3214.45	0.86
3223.67	0.861
3232.89	0.862
3242.11	0.862
3251.34	0.862
3260.56	0.862
3269.78	0.862
3279	0.862
3288.22	0.862
3297.44	0.862
3306.66	0.862
3315.89	0.862
3325.11	0.862
3334.33	0.862
3343.55	0.8622
3352.77	0.8635
3361.99	0.865
3371.21	0.865
3380.43	0.865
3389.66	0.865
3398.88	0.866
3408.1	0.866
3417.32	0.866
3426.54	0.866
3435.76	0.867
3444.98	0.867
3454.21	0.867
3463.43	0.867
3472.65	0.868
3481.87	0.868
3491.09	0.87
3500.31	0.871
3509.53	0.872
3518.75	0.873
3527.98	0.875
3537.2	0.875
3546.42	0.876
3555.64	0.8758
3564.86	0.876
3574.08	0.8769
3583.3	0.8829
3592.53	0.8762
3601.75	0.8749
3610.97	0.882
3620.19	0.872
3629.41	0.882
3638.63	0.8673
3647.85	0.8861
3657.07	0.866
3666.3	0.8766
3675.52	0.8822
3684.74	0.8747
3693.96	0.8668
3703.18	0.866
3712.4	0.8667
3721.62	0.8703
3730.85	0.8795
3740.07	0.885
3749.29	0.8823
3758.51	0.8788
3767.73	0.8779
3776.95	0.8739
3786.17	0.876
3795.39	0.8742
3804.62	0.881
