Infrared Spectrum: Dimethyl sulfate
Formula: C 2 H 6 O 4 S
CAS: 77-78-1
State: gas
Instrument: HP-GC/MS/IRD
Origin: NIST Mass Spectrometry Data Center
1/CM	ABSORBANCE
550	0.001528
562	0.002096
574	0.001804
586	0.001864
598	0.00176
610	0.00112
622	0.000344
634	1.6e-05
646	6e-05
658	7.2e-05
670	5.6e-05
682	0.000156
694	0.000216
706	0.00034
718	0.00084
730	0.002196
742	0.00494
754	0.007612
766	0.007428
778	0.005592
790	0.008364
802	0.018868
814	0.027092
826	0.021328
838	0.008608
850	0.00236
862	0.0011
874	0.000656
886	0.000512
898	0.000536
910	0.000716
922	0.000844
934	0.001156
946	0.0017
958	0.002988
970	0.007092
982	0.017668
994	0.032536
1006	0.04
1018	0.032072
1030	0.019484
1042	0.0112
1054	0.005476
1066	0.002972
1078	0.002024
1090	0.001432
1102	0.001104
1114	0.000772
1126	0.000676
1138	0.00066
1150	0.00088
1162	0.001512
1174	0.003056
1186	0.008584
1198	0.018316
1210	0.02162
1222	0.013412
1234	0.003876
1246	0.00132
1258	0.000912
1270	0.00076
1282	0.000724
1294	0.000668
1306	0.000616
1318	0.000612
1330	0.00072
1342	0.00098
1354	0.001384
1366	0.002456
1378	0.00542
1390	0.012112
1402	0.020672
1414	0.023612
1426	0.017388
1438	0.00938
1450	0.005344
1462	0.00366
1474	0.002452
1486	0.0016
1498	0.001088
1510	0.00084
1522	0.000776
1534	0.000768
1546	0.000764
1558	0.000796
1570	0.000728
1582	0.0006
1594	0.000508
1606	0.000424
1618	0.000392
1630	0.000308
1642	0.000268
1654	0.000196
1666	0.000168
1678	0.000144
1690	0.000136
1702	0.00014
1714	0.000164
1726	0.000204
1738	0.000324
1750	0.000444
1762	0.000492
1774	0.000416
1786	0.000332
1798	0.000284
1810	0.000308
1822	0.000348
1834	0.000392
1846	0.000368
1858	0.000304
1870	0.0002
1882	0.000136
1894	0.000104
1906	0.000116
1918	9.2e-05
1930	0.000104
1942	0.0001
1954	0.000132
1966	0.00016
1978	0.000164
1990	0.000176
2002	0.000208
2014	0.000232
2026	0.000244
2038	0.00016
2050	0.0001
2062	6.4e-05
2074	3.6e-05
2086	2.8e-05
2098	2.4e-05
2110	2.8e-05
2122	8e-06
2134	4.4e-05
2146	5.2e-05
2158	9.2e-05
2170	7.6e-05
2182	9.6e-05
2194	7.6e-05
2206	5.2e-05
2218	7.2e-05
2230	5.2e-05
2242	4e-05
2254	3.6e-05
2266	4.4e-05
2278	4.4e-05
2290	2e-05
2302	2e-05
2314	2e-05
2326	2e-05
2338	2.4e-05
2350	2e-05
2362	2e-05
2374	4.4e-05
2386	4e-05
2398	6e-05
2410	6e-05
2422	5.2e-05
2434	4.8e-05
2446	3.2e-05
2458	1.2e-05
2470	1.2e-05
2482	2.4e-05
2494	4.8e-05
2506	1.6e-05
2518	3.2e-05
2530	6.4e-05
2542	3.6e-05
2554	1.2e-05
2566	7.6e-05
2578	0.0001
2590	0.000136
2602	0.000196
2614	0.000172
2626	0.000144
2638	0.000128
2650	7.2e-05
2662	6.8e-05
2674	6.4e-05
2686	6e-05
2698	6e-05
2710	2.4e-05
2722	4.8e-05
2734	3.6e-05
2746	7.6e-05
2758	6e-05
2770	7.2e-05
2782	7.6e-05
2794	6.8e-05
2806	0.000128
2818	0.000192
2830	0.000324
2842	0.000736
2854	0.001024
2866	0.001076
2878	0.000796
2890	0.000672
2902	0.000728
2914	0.00082
2926	0.0009
2938	0.001172
2950	0.00266
2962	0.004824
2974	0.004996
2986	0.002976
2998	0.001504
3010	0.001544
3022	0.0017
3034	0.00156
3046	0.00126
3058	0.000872
3070	0.000616
3082	0.000516
3094	0.000432
3106	0.000404
3118	0.000456
3130	0.000344
3142	0.00026
3154	0.000196
3166	0.000164
3178	0.000136
3190	0.000116
3202	9.6e-05
3214	8e-05
3226	3.6e-05
3238	6.4e-05
3250	6.8e-05
3262	9.2e-05
3274	7.6e-05
3286	7.2e-05
3298	0.000104
3310	4.4e-05
3322	1.6e-05
3334	4.4e-05
3346	8.4e-05
3358	7.6e-05
3370	8e-05
3382	8e-05
3394	9.6e-05
3406	3.2e-05
3418	4.8e-05
3430	6e-05
3442	0.000104
3454	1.6e-05
3466	0.0001
3478	8.4e-05
3490	0.000104
3502	4.4e-05
3514	5.6e-05
3526	8.8e-05
3538	6.4e-05
3550	6.4e-05
3562	9.2e-05
3574	7.6e-05
3586	7.2e-05
3598	7.6e-05
3610	4.4e-05
3622	0.00012
3634	4e-05
3646	2.4e-05
3658	1.2e-05
3670	6.4e-05
3682	5.6e-05
3694	0.00012
3706	4.4e-05
3718	7.6e-05
3730	8.4e-05
3742	0.000136
3754	8e-05
3766	9.6e-05
3778	8.8e-05
3790	5.2e-05
3802	7.2e-05
3814	6e-05
3826	0.000132
3838	6.4e-05
