Infrared Spectrum: HYDANTOIN, 5,5-DIMETHYL-
Formula: C5 H8 N2 O2
CAS: 77-71-4
State: SOLID (NUJOL MULL)
Class: COBLENTZ III
Instrument: DOW KBr FOREPRISM-GRATING
Instrument parameters: BLAZED AT 3.5, 12.0, 20.0 MICRON AND CHANGED AT 5.0, 7.5, 14.9 MICRON
Sampling: TRANSMISSION
Resolution: 2
Origin: DOW CHEMICAL COMPANY
1/CM	TRANSMITTANCE
3800	0.8928
3791	0.8932
3782	0.8938
3773	0.8942
3764	0.8947
3755	0.896
3746	0.8975
3737	0.899
3728	0.9002
3719	0.9006
3710	0.9005
3701	0.8998
3692	0.8956
3683	0.8943
3674	0.8971
3665	0.8991
3656	0.8998
3647	0.9004
3638	0.9004
3629	0.9003
3620	0.8999
3611	0.8991
3602	0.8982
3593	0.8973
3584	0.8957
3575	0.8939
3566	0.8933
3557	0.8933
3548	0.8932
3539	0.8931
3530	0.8896
3521	0.8831
3512	0.8841
3503	0.883
3494	0.8815
3485	0.88
3476	0.8763
3467	0.8735
3458	0.8721
3449	0.8712
3440	0.8692
3431	0.866
3422	0.8624
3413	0.8564
3404	0.8471
3395	0.8375
3386	0.8343
3377	0.8327
3368	0.8317
3359	0.8245
3350	0.8128
3341	0.7993
3332	0.7851
3323	0.7675
3314	0.7472
3305	0.7268
3296	0.7015
3287	0.6775
3278	0.6503
3269	0.6167
3260	0.5779
3251	0.5318
3242	0.4843
3233	0.4643
3224	0.4407
3215	0.4301
3206	0.428
3197	0.4372
3188	0.4469
3179	0.4539
3170	0.458
3161	0.462
3152	0.4721
3143	0.4921
3134	0.514
3125	0.5325
3116	0.5462
3107	0.5349
3098	0.5069
3089	0.5038
3080	0.5165
3071	0.5287
3062	0.5242
3053	0.5093
3044	0.4862
3035	0.4851
3026	0.4985
3017	0.5242
3008	0.5549
2999	0.5652
2990	0.5575
2981	0.4762
2972	0.3484
2963	0.2135
2954	0.0788
2945	0.0524
2936	0.0517
2927	0.0168
2918	0.0128
2909	0.0248
2900	0.06
2891	0.1037
2882	0.1598
2873	0.2126
2864	0.1515
2855	0.0943
2846	0.0603
2837	0.2529
2828	0.5268
2819	0.5998
2810	0.6434
2801	0.6774
2792	0.714
2783	0.7347
2774	0.7461
2765	0.7495
2756	0.7418
2747	0.7269
2738	0.7361
2729	0.7658
2720	0.7891
2711	0.8069
2702	0.8245
2693	0.8325
2684	0.8325
2675	0.8325
2666	0.833
2657	0.8368
2648	0.8449
2639	0.8513
2630	0.8533
2621	0.8548
2612	0.8565
2603	0.8584
2594	0.8605
2585	0.8637
2576	0.867
2567	0.8704
2558	0.8738
2549	0.8768
2540	0.8789
2531	0.881
2522	0.8836
2513	0.8861
2504	0.8882
2495	0.8886
2486	0.886
2477	0.8832
2468	0.8825
2459	0.8821
2450	0.8827
2441	0.8832
2432	0.8833
2423	0.884
2414	0.8851
2405	0.8871
2396	0.8895
2387	0.89
2378	0.8905
2369	0.8902
2360	0.8899
2351	0.8896
2342	0.8896
2333	0.8902
2324	0.8917
2315	0.8932
2306	0.894
2297	0.8944
2288	0.895
2279	0.8961
2270	0.8971
2261	0.8983
2252	0.8994
2243	0.8993
2234	0.8992
2225	0.8992
2216	0.8991
2207	0.899
2198	0.8989
2189	0.8982
2180	0.8978
2171	0.8973
2162	0.8964
2153	0.897
2144	0.8984
2135	0.9004
2126	0.9016
2117	0.9014
2108	0.8998
2099	0.8975
2090	0.8984
2081	0.899
2072	0.8993
2063	0.8994
2054	0.9002
2045	0.9008
2036	0.899
2027	0.896
2018	0.8959
2009	0.898
2000	0.9001
1991	0.9005
1982	0.9015
1973	0.9025
1964	0.9025
1955	0.9023
1946	0.9035
1937	0.9042
1928	0.9043
1919	0.9043
1910	0.9044
1901	0.904
1892	0.9034
1883	0.9018
1874	0.9003
1865	0.8925
1856	0.8807
1847	0.8785
1838	0.8781
1829	0.8693
1820	0.8528
1811	0.8343
1802	0.8125
1793	0.7885
1784	0.7019
1775	0.431
1766	0.4293
1757	0.4597
1748	0.1715
1739	0.0861
1730	0.1998
1721	0.2791
1712	0.0839
1703	0.1427
1694	0.4455
1685	0.6307
1676	0.7125
1667	0.7446
1658	0.7687
1649	0.7915
1640	0.811
1631	0.8211
1622	0.8342
1613	0.8421
1604	0.8402
1595	0.8424
1586	0.8448
1577	0.8465
1568	0.8478
1559	0.8501
1550	0.8461
1541	0.8461
1532	0.8494
1523	0.8415
1514	0.8371
1505	0.8318
1496	0.818
1487	0.7951
1478	0.6893
1469	0.3942
1460	0.3846
1451	0.4053
1442	0.3732
1433	0.4506
1424	0.5188
1415	0.6925
1406	0.7451
1397	0.7706
1388	0.6455
1379	0.4575
1370	0.6332
1361	0.7322
1352	0.7917
1343	0.8096
1334	0.8262
1325	0.8342
1316	0.824
1307	0.7888
1298	0.6993
1289	0.6562
1280	0.7031
1271	0.7495
1262	0.7768
1253	0.7944
1244	0.806
1235	0.8135
1226	0.8012
1217	0.6934
1208	0.7435
1199	0.8346
1190	0.8557
1181	0.7901
1172	0.8423
1163	0.852
1154	0.8058
1145	0.6541
1136	0.793
1127	0.8604
1118	0.8788
1109	0.8803
1100	0.8747
1091	0.8731
1082	0.8767
1073	0.8702
1064	0.8644
1055	0.7422
1046	0.7675
1037	0.8624
1028	0.8798
1019	0.8846
1010	0.8835
1001	0.8864
992	0.8868
983	0.8806
974	0.8584
965	0.8648
956	0.8789
947	0.8633
938	0.8718
929	0.8504
920	0.724
911	0.8696
902	0.8804
893	0.8795
884	0.8749
875	0.879
866	0.8725
857	0.8667
848	0.8565
839	0.8378
830	0.8172
821	0.7862
812	0.738
803	0.6471
794	0.6187
785	0.6675
776	0.6597
767	0.451
758	0.7097
749	0.7761
740	0.8141
731	0.8231
722	0.8207
713	0.8278
704	0.8602
695	0.8723
686	0.8778
677	0.878
668	0.8734
659	0.859
650	0.6597
641	0.7278
632	0.7706
623	0.8378
614	0.8395
605	0.7821
596	0.7337
587	0.7165
578	0.8375
569	0.8544
560	0.8615
551	0.8656
542	0.8667
533	0.8662
524	0.8637
515	0.8595
506	0.8545
497	0.8485
488	0.8424
479	0.8362
470	0.8271
461	0.8164
452	0.7704
443	0.696
