Infrared Spectrum: PROPANE, 2,2-DIMETHOXY-
Formula: C5 H12 O2
CAS: 77-76-9
State: SOLUTION (10% CCl4 FOR 3800-1340, 10% CS2 FOR 1340-450 CM^-^1)
Class: COBLENTZ III
Instrument: DOW KBr FOREPRISM-GRATING
Instrument parameters: BLAZED AT 3.5, 12.0, 20.0 MICRON AND CHANGED AT 5.0, 7.5, 14.9 MICRON
Sampling: TRANSMISSION
Path length: 0.011 CM, 0.011 CM
Resolution: 2
Origin: DOW CHEMICAL COMPANY
1/CM	TRANSMITTANCE
3798	0.9009
3789	0.9011
3780	0.9012
3771	0.9014
3762	0.901
3753	0.8996
3744	0.8954
3735	0.8936
3726	0.8955
3717	0.897
3708	0.897
3699	0.8962
3690	0.8955
3681	0.8947
3672	0.8942
3663	0.8925
3654	0.8899
3645	0.8835
3636	0.8813
3627	0.8858
3618	0.8883
3609	0.89
3600	0.891
3591	0.8916
3582	0.8916
3573	0.8912
3564	0.8885
3555	0.8836
3546	0.8761
3537	0.8674
3528	0.8605
3519	0.8554
3510	0.8513
3501	0.8499
3492	0.8516
3483	0.8561
3474	0.8618
3465	0.868
3456	0.8737
3447	0.878
3438	0.882
3429	0.8846
3420	0.8852
3411	0.8851
3402	0.8856
3393	0.8863
3384	0.8871
3375	0.8878
3366	0.8875
3357	0.8871
3348	0.8871
3339	0.8874
3330	0.8875
3321	0.8874
3312	0.8871
3303	0.8867
3294	0.886
3285	0.8853
3276	0.8838
3267	0.8815
3258	0.8786
3249	0.8758
3240	0.8733
3231	0.8709
3222	0.8677
3213	0.8642
3204	0.8617
3195	0.8594
3186	0.8571
3177	0.8544
3168	0.8517
3159	0.848
3150	0.8437
3141	0.8383
3132	0.8332
3123	0.8278
3114	0.8202
3105	0.8121
3096	0.8037
3087	0.7949
3078	0.7848
3069	0.774
3060	0.7621
3051	0.7404
3042	0.7138
3033	0.6821
3024	0.6257
3015	0.5055
3006	0.1237
2997	0.0182
2988	0.0351
2979	0.1388
2970	0.2037
2961	0.0822
2952	0.0629
2943	0.0592
2934	0.1282
2925	0.2103
2916	0.2221
2907	0.2132
2898	0.245
2889	0.3137
2880	0.3304
2871	0.5167
2862	0.655
2853	0.666
2844	0.4244
2835	0.1149
2826	0.3
2817	0.6487
2808	0.7572
2799	0.7933
2790	0.8132
2781	0.8266
2772	0.8366
2763	0.8453
2754	0.8525
2745	0.8559
2736	0.8543
2727	0.8488
2718	0.8558
2709	0.8641
2700	0.8678
2691	0.8678
2682	0.8675
2673	0.8668
2664	0.864
2655	0.8602
2646	0.8554
2637	0.8541
2628	0.855
2619	0.857
2610	0.8567
2601	0.8534
2592	0.8501
2583	0.849
2574	0.856
2565	0.8625
2556	0.8677
2547	0.8713
2538	0.8731
2529	0.8724
2520	0.8716
2511	0.8714
2502	0.8714
2493	0.8709
2484	0.8705
2475	0.8697
2466	0.869
2457	0.8687
2448	0.8692
2439	0.8695
2430	0.8699
2421	0.8701
2412	0.8703
2403	0.8696
2394	0.8677
2385	0.8651
2376	0.8607
2367	0.8549
2358	0.853
2349	0.8511
2340	0.8486
2331	0.8411
2322	0.8451
2313	0.8425
2304	0.8315
2295	0.8299
2286	0.8438
2277	0.8468
2268	0.8493
2259	0.8557
2250	0.8603
2241	0.861
2232	0.8585
2223	0.8541
2214	0.852
2205	0.8518
2196	0.8565
2187	0.8574
2178	0.856
2169	0.8458
2160	0.8408
2151	0.8403
2142	0.8154
2133	0.7975
2124	0.7957
2115	0.8065
2106	0.8203
2097	0.8361
2088	0.8486
2079	0.8521
2070	0.8544
2061	0.8548
2052	0.8514
2043	0.8394
2034	0.838
2025	0.8293
2016	0.82
2007	0.8167
1998	0.8234
1989	0.8338
1980	0.8362
1971	0.8438
1962	0.8513
1953	0.8564
1944	0.8582
1935	0.8494
1926	0.8459
1917	0.8397
1908	0.8169
1899	0.8373
1890	0.8335
1881	0.8227
1872	0.8333
1863	0.8424
1854	0.8493
1845	0.8528
1836	0.8547
1827	0.853
1818	0.8402
1809	0.8307
1800	0.8373
1791	0.8347
1782	0.8251
1773	0.8275
1764	0.8247
1755	0.798
1746	0.7803
1737	0.7592
1728	0.7653
1719	0.693
1710	0.8078
1701	0.8354
1692	0.843
1683	0.8371
1674	0.8409
1665	0.8282
1656	0.7921
1647	0.7932
1638	0.8098
1629	0.8111
1620	0.7841
1611	0.7772
1602	0.705
1593	0.6315
1584	0.5964
1575	0.5762
1566	0.4902
1557	0.4128
1548	0.4219
1539	0.5302
1530	0.5942
1521	0.6212
1512	0.6451
1503	0.6758
1494	0.6844
1485	0.6152
1476	0.4386
1467	0.2695
1458	0.3845
1449	0.5137
1440	0.5017
1431	0.6734
1422	0.7221
1413	0.7282
1404	0.7291
1395	0.6992
1386	0.1442
1377	0.0274
1368	0.5235
1359	0.7068
1350	0.7535
1341	0.778
1332	0.7707
1323	0.771
1314	0.7636
1305	0.77
1296	0.7625
1287	0.6481
1278	0.637
1269	0.3946
1260	0.1768
1251	0.3916
1242	0.448
1233	0.3564
1224	0.073
1215	0.0064
1206	0.0495
1197	0.0761
1188	0.0507
1179	0.0063
1170	0.1538
1161	0.2454
1152	0.1242
1143	0.07
1134	0.2267
1125	0.4441
1116	0.5855
1107	0.5936
1098	0.5118
1089	0.1441
1080	0.0001
1071	0.0943
1062	0.027
1053	0.0019
1044	0.0922
1035	0.348
1026	0.6312
1017	0.7228
1008	0.7674
999	0.7747
990	0.6567
981	0.7968
972	0.847
963	0.8571
954	0.8595
945	0.8518
936	0.8287
927	0.6386
918	0.8015
909	0.834
900	0.8413
891	0.8307
882	0.7899
873	0.7439
864	0.6986
855	0.6489
846	0.6162
837	0.4178
828	0.0018
819	0.1801
810	0.6222
801	0.7317
792	0.7821
783	0.8099
774	0.829
765	0.8418
756	0.8482
747	0.8468
738	0.8275
729	0.7274
720	0.8286
711	0.8467
702	0.8532
693	0.8551
684	0.854
675	0.8561
666	0.8755
657	0.8461
648	0.8725
639	0.8917
630	0.9031
621	0.9017
612	0.906
603	0.9036
594	0.8764
585	0.7321
576	0.8657
567	0.8743
558	0.714
549	0.8188
540	0.8683
531	0.88
522	0.8817
513	0.876
504	0.8721
495	0.8697
486	0.8621
477	0.8499
468	0.8337
459	0.8171
