Infrared Spectrum: Vinyl sulfone
Formula: C 4 H 6 O 2 S
CAS: 77-77-0
State: gas
Instrument: HP-GC/MS/IRD
Origin: NIST Mass Spectrometry Data Center
1/CM	ABSORBANCE
550	0.000658
562	0.0008428
574	0.0017192
586	0.0024696
598	0.002058
610	0.0009996
622	0.000896
634	0.0010724
646	0.0010052
658	0.0007644
670	0.00084
682	0.0015512
694	0.0030212
706	0.0046032
718	0.0047292
730	0.0033628
742	0.0042952
754	0.0116676
766	0.0200256
778	0.0183036
790	0.0072996
802	0.001792
814	0.0006328
826	0.0002212
838	2.24e-05
850	5.32e-05
862	0.0001008
874	0.000168
886	0.0002856
898	0.000364
910	0.0004144
922	0.0005964
934	0.0011312
946	0.002744
958	0.0064456
970	0.0096516
982	0.0075348
994	0.002814
1006	0.0009268
1018	0.0005908
1030	0.0006188
1042	0.0004564
1054	0.0003724
1066	0.0003528
1078	0.0003304
1090	0.0003892
1102	0.0006748
1114	0.0017612
1126	0.0066304
1138	0.0157836
1150	0.0197596
1162	0.0116816
1174	0.00273
1186	0.0007084
1198	0.0004452
1210	0.0004004
1222	0.0004872
1234	0.0008204
1246	0.0012964
1258	0.001596
1270	0.001414
1282	0.0010388
1294	0.0008988
1306	0.0013356
1318	0.003654
1330	0.0116088
1342	0.022148
1354	0.0254436
1366	0.0140588
1378	0.0060928
1390	0.004536
1402	0.0027244
1414	0.0009772
1426	0.0004676
1438	0.0002996
1450	0.0002632
1462	0.0002324
1474	0.0001764
1486	9.8e-05
1498	5.04e-05
1510	4.48e-05
1522	5.6e-05
1534	5.6e-05
1546	7.28e-05
1558	0.00014
1570	0.00014
1582	0.0001428
1594	0.0001904
1606	0.0002884
1618	0.000266
1630	0.0001456
1642	9.52e-05
1654	9.24e-05
1666	4.76e-05
1678	5.6e-05
1690	3.08e-05
1702	9.8e-05
1714	5.04e-05
1726	5.32e-05
1738	5.88e-05
1750	5.6e-05
1762	2.8e-05
1774	4.2e-05
1786	1.96e-05
1798	2.24e-05
1810	1.68e-05
1822	3.08e-05
1834	3.92e-05
1846	6.44e-05
1858	6.16e-05
1870	0.0001232
1882	0.0001624
1894	0.0002352
1906	0.0003332
1918	0.0004592
1930	0.0006888
1942	0.0007196
1954	0.0004928
1966	0.0001932
1978	0.0001092
1990	0.0001036
2002	9.52e-05
2014	0.0001148
2026	8.68e-05
2038	8.68e-05
2050	9.52e-05
2062	8.4e-05
2074	6.44e-05
2086	7.56e-05
2098	6.44e-05
2110	4.2e-05
2122	6.16e-05
2134	3.64e-05
2146	1.96e-05
2158	7.84e-05
2170	7.28e-05
2182	6.44e-05
2194	2.52e-05
2206	6.16e-05
2218	5.04e-05
2230	7e-05
2242	7.28e-05
2254	0.0001316
2266	0.0001512
2278	0.0002044
2290	0.0001764
2302	0.0001764
2314	0.000112
2326	7.28e-05
2338	6.16e-05
2350	9.24e-05
2362	5.6e-05
2374	9.52e-05
2386	0.0001148
2398	8.96e-05
2410	5.32e-05
2422	7.84e-05
2434	0.000112
2446	6.72e-05
2458	0.0001064
2470	0.000196
2482	0.0002548
2494	0.0002408
2506	0.0001176
2518	6.72e-05
2530	5.6e-05
2542	5.6e-05
2554	7.84e-05
2566	5.88e-05
2578	5.04e-05
2590	8.12e-05
2602	0.0001092
2614	0.0001428
2626	0.0001288
2638	0.000126
2650	0.00014
2662	7.56e-05
2674	7e-05
2686	0.0001148
2698	6.44e-05
2710	6.16e-05
2722	4.2e-05
2734	7.28e-05
2746	5.32e-05
2758	4.76e-05
2770	5.88e-05
2782	3.64e-05
2794	5.32e-05
2806	6.16e-05
2818	7e-05
2830	6.72e-05
2842	8.12e-05
2854	0.0001036
2866	0.0001148
2878	8.12e-05
2890	5.04e-05
2902	9.24e-05
2914	0.0001232
2926	0.0001064
2938	0.0001036
2950	0.0001456
2962	0.0001988
2974	0.0002352
2986	0.0002296
2998	0.0002632
3010	0.0005096
3022	0.0010416
3034	0.0010276
3046	0.0005124
3058	0.0001848
3070	0.0001484
3082	0.0001652
3094	0.0002744
3106	0.0002884
3118	0.000238
3130	0.000126
3142	4.48e-05
3154	0.0001428
3166	0.0001204
3178	6.72e-05
3190	1.68e-05
3202	0.0001484
3214	0.0001428
3226	8.96e-05
3238	9.24e-05
3250	0.0001148
3262	6.44e-05
3274	3.92e-05
3286	0.0001092
3298	8.4e-05
3310	0.000112
3322	5.32e-05
3334	0.0001204
3346	9.52e-05
3358	0.0001008
3370	0.0001036
3382	0.000112
3394	7.56e-05
3406	9.24e-05
3418	0.0001288
3430	7.56e-05
3442	0.0001288
3454	0.0001064
3466	0.0001652
3478	0.0001456
3490	0.0001036
3502	9.8e-05
3514	0.0001736
3526	0.0001232
3538	0.0001344
3550	0.0001092
3562	9.24e-05
3574	8.68e-05
3586	0.0001064
3598	6.72e-05
3610	0.0001484
3622	0.0001288
3634	6.44e-05
3646	0.000168
3658	4.2e-05
3670	0.0001064
3682	0.0001596
3694	0.0001232
3706	6.16e-05
3718	6.44e-05
3730	9.24e-05
3742	9.52e-05
3754	8.68e-05
3766	8.96e-05
3778	8.12e-05
3790	4.2e-05
3802	5.6e-05
3814	9.24e-05
3826	9.52e-05
3838	8.4e-05
