Infrared Spectrum: 1,3-Propanediol, 2-amino-2-(hydroxymethyl)-,
Formula: C4 H11 N O3
CAS: 77-86-1
State: SOLID (OIL MULL)
Melting point: 171 C
Class: COBLENTZ III
Instrument: BAIRD (GRATING)
Instrument parameters: NaCl PRISM
Path length: CAPILLARY
Resolution: 2
Origin: WYANDOTTE CHEMICALS CORP.
1/CM	TRANSMITTANCE
626	0.5831
635	0.6504
644	0.6913
653	0.7057
662	0.7402
671	0.7637
680	0.7678
689	0.7511
698	0.7145
707	0.6658
716	0.611
725	0.6353
734	0.7461
743	0.8318
752	0.8753
761	0.8904
770	0.8555
779	0.7627
788	0.5182
797	0.5948
806	0.8554
815	0.9608
824	0.9493
833	0.9157
842	0.8711
851	0.8098
860	0.7435
869	0.6887
878	0.6922
887	0.6325
896	0.5768
905	0.7093
914	0.6011
923	0.6292
932	0.668
941	0.6783
950	0.6371
959	0.558
968	0.4226
977	0.2538
986	0.2169
995	0.3321
1004	0.2498
1013	0.1244
1022	0.0323
1031	0.0154
1040	0.0264
1049	0.0204
1058	0.1302
1067	0.244
1076	0.2456
1085	0.2796
1094	0.2426
1103	0.5489
1112	0.7928
1121	0.897
1130	0.9364
1139	0.9311
1148	0.8801
1157	0.6796
1166	0.631
1175	0.8399
1184	0.8746
1193	0.8594
1202	0.7508
1211	0.59
1220	0.5479
1229	0.6075
1238	0.7628
1247	0.826
1256	0.8073
1265	0.7689
1274	0.7447
1283	0.6315
1292	0.3538
1301	0.4439
1310	0.4469
1319	0.4991
1328	0.6394
1337	0.5783
1346	0.4474
1355	0.469
1364	0.5346
1373	0.4037
1382	0.2665
1391	0.3594
1400	0.4608
1409	0.5393
1418	0.7179
1427	0.7372
1436	0.6621
1445	0.3815
1454	0.158
1463	0.0932
1472	0.0582
1481	0.0825
1490	0.3875
1499	0.5475
1508	0.5718
1517	0.6435
1526	0.7328
1535	0.7713
1544	0.7867
1553	0.7725
1562	0.7603
1571	0.7193
1580	0.6392
1589	0.5859
1598	0.4194
1607	0.2932
1616	0.4256
1625	0.5813
1634	0.7229
1643	0.7599
1652	0.7608
1661	0.7685
1670	0.7598
1679	0.7638
1688	0.7659
1697	0.7634
1706	0.7588
1715	0.7429
1724	0.749
1733	0.762
1742	0.7712
1751	0.771
1760	0.7698
1769	0.7757
1778	0.7834
1787	0.7907
1796	0.7912
1805	0.7911
1814	0.7976
1823	0.8041
1832	0.8018
1841	0.7962
1850	0.7946
1859	0.7992
1868	0.7948
1877	0.7877
1886	0.7801
1895	0.7728
1904	0.7662
1913	0.7612
1922	0.7574
1931	0.7495
1940	0.7393
1949	0.7381
1958	0.7388
1967	0.742
1976	0.7463
1985	0.7403
1994	0.7329
2003	0.7183
2012	0.7012
2021	0.686
2030	0.6867
2039	0.6839
2048	0.6775
2057	0.6696
2066	0.6699
2075	0.6782
2084	0.6809
2093	0.677
2102	0.6674
2111	0.6591
2120	0.6507
2129	0.6411
2138	0.6325
2147	0.6241
2156	0.6155
2165	0.6065
2174	0.5977
2183	0.5874
2192	0.5769
2201	0.5656
2210	0.5506
2219	0.5339
2228	0.5224
2237	0.5139
2246	0.5074
2255	0.5016
2264	0.4899
2273	0.4737
2282	0.4513
2291	0.4239
2300	0.4013
2309	0.3831
2318	0.3685
2327	0.3526
2336	0.3448
2345	0.3407
2354	0.3413
2363	0.342
2372	0.3352
2381	0.3234
2390	0.3113
2399	0.2981
2408	0.2815
2417	0.2666
2426	0.2606
2435	0.2556
2444	0.2503
2453	0.2357
2462	0.2287
2471	0.2248
2480	0.223
2489	0.2197
2498	0.2133
2507	0.2
2516	0.1888
2525	0.1801
2534	0.1717
2543	0.1621
2552	0.1566
2561	0.1573
2570	0.1581
2579	0.156
2588	0.1527
2597	0.1493
2606	0.1467
2615	0.1455
2624	0.1453
2633	0.1474
2642	0.1492
2651	0.1507
2660	0.152
2669	0.1537
2678	0.1553
2687	0.1556
2696	0.1512
2705	0.1509
2714	0.1549
2723	0.162
2732	0.1649
2741	0.1664
2750	0.1651
2759	0.1616
2768	0.1563
2777	0.148
2786	0.1315
2795	0.109
2804	0.0867
2813	0.0645
2822	0.0424
2831	0.0274
2840	0.0182
2849	0.0138
2858	0.0116
2867	0.0107
2876	0.0106
2885	0.0106
2894	0.0107
2903	0.0107
2912	0.0107
2921	0.0106
2930	0.0105
2939	0.0109
2948	0.0118
2957	0.0184
2966	0.0285
2975	0.0436
2984	0.0679
2993	0.0913
3002	0.1146
3011	0.1346
3020	0.141
3029	0.1426
3038	0.141
3047	0.139
3056	0.1373
3065	0.1354
3074	0.1333
3083	0.1313
3092	0.1293
3101	0.1259
3110	0.1195
3119	0.1097
3128	0.0946
3137	0.0761
3146	0.0671
3155	0.0632
3164	0.0619
3173	0.0613
3182	0.0612
3191	0.0617
3200	0.0646
3209	0.0708
3218	0.0766
3227	0.0815
3236	0.0822
3245	0.0815
3254	0.079
3263	0.0747
3272	0.0698
3281	0.0648
3290	0.0608
3299	0.0569
3308	0.0529
3317	0.049
3326	0.0487
3335	0.053
3344	0.0657
3353	0.0774
3362	0.0958
3371	0.1367
3380	0.183
3389	0.229
3398	0.2748
3407	0.3203
3416	0.3656
3425	0.4107
3434	0.4555
3443	0.5001
3452	0.5444
3461	0.5885
3470	0.6324
3479	0.676
3488	0.705
3497	0.7217
3506	0.7406
3515	0.7636
3524	0.7817
3533	0.7984
3542	0.8186
3551	0.8376
3560	0.8507
3569	0.8599
3578	0.8693
3587	0.8819
3596	0.8983
3605	0.9202
3614	0.9336
3623	0.9434
3632	0.9487
3641	0.9539
3650	0.9585
3659	0.9617
3668	0.9649
3677	0.9678
3686	0.9704
3695	0.9729
3704	0.9746
3713	0.9762
3722	0.9767
3731	0.9766
3740	0.9756
3749	0.9745
3758	0.973
3767	0.9711
3776	0.968
3785	0.9643
3794	0.9614
3803	0.9609
3812	0.9612
3821	0.9622
3830	0.9649
3839	0.9728
3848	0.9799
3857	0.9834
3866	0.9848
3875	0.9844
3884	0.9831
3893	0.9795
3902	0.9741
3911	0.9688
3920	0.964
3929	0.9598
3938	0.9556
3947	0.9519
3956	0.9484
3965	0.9459
3974	0.9435
3983	0.9414
3992	0.9405
