Infrared Spectrum: 2-Methyl-2-ethyl-1,3-propanediol
Formula: C 6 H 14 O 2
CAS: 77-84-9
State: gas
Origin: EPA-IR VAPOR PHASE LIBRARY
1/CM	ABSORBANCE
549.8	0.00114
559.445	0.00167
569.09	0.00168
578.734	0.00144
588.379	0.00121
598.024	0.00117
607.669	0.0006394
617.313	0.0006347
626.958	0.0004199
636.603	0.0003204
646.248	0.0004934
655.893	0.0004213
665.537	0.0003709
675.182	0.0003775
684.827	0.000544
694.472	0.0005115
704.116	0.000659
713.761	0.00108
723.406	0.00103
733.051	0.00106
742.695	0.00101
752.34	0.000862
761.985	0.00101
771.63	0.00145
781.275	0.00181
790.919	0.00157
800.564	0.00107
810.209	0.0006981
819.854	0.0007214
829.498	0.0007679
839.143	0.000838
848.788	0.00103
858.433	0.00131
868.078	0.00136
877.722	0.00139
887.367	0.00167
897.012	0.0017
906.657	0.00176
916.301	0.00188
925.946	0.0022
935.591	0.00283
945.236	0.00346
954.88	0.00371
964.525	0.00386
974.17	0.00451
983.815	0.00631
993.46	0.01047
1003.1	0.01534
1012.75	0.01917
1022.39	0.02188
1032.04	0.0254
1041.68	0.02787
1051.33	0.0279
1060.97	0.02369
1070.62	0.01666
1080.26	0.00903
1089.91	0.00449
1099.55	0.00314
1109.2	0.00307
1118.84	0.00324
1128.49	0.00348
1138.13	0.00409
1147.78	0.00418
1157.42	0.00441
1167.07	0.00443
1176.71	0.00397
1186.36	0.00372
1196	0.00343
1205.64	0.00332
1215.29	0.00349
1224.93	0.00371
1234.58	0.00393
1244.22	0.00395
1253.87	0.00392
1263.51	0.00373
1273.16	0.00363
1282.8	0.00367
1292.45	0.00361
1302.09	0.0036
1311.74	0.00361
1321.38	0.00372
1331.03	0.00372
1340.67	0.0037
1350.32	0.00386
1359.96	0.00427
1369.61	0.00501
1379.25	0.00574
1388.9	0.00592
1398.54	0.00546
1408.18	0.00486
1417.83	0.00438
1427.47	0.00355
1437.12	0.0032
1446.76	0.00432
1456.41	0.00627
1466.05	0.00773
1475.7	0.00715
1485.34	0.00479
1494.99	0.00248
1504.63	0.00134
1514.28	0.0009388
1523.92	0.000731
1533.57	0.0007032
1543.21	0.0006152
1552.86	0.0005815
1562.5	0.0005386
1572.15	0.0005602
1581.79	0.0004605
1591.44	0.0004841
1601.08	0.0003849
1610.73	0.0003144
1620.37	0.0003127
1630.01	0.0002458
1639.66	0.0002335
1649.3	0.0002031
1658.95	0.000221
1668.59	0.0001507
1678.24	0.0001562
1687.88	9.907e-05
1697.53	9.996e-05
1707.17	9.631e-05
1716.82	7.994e-05
1726.46	0.0001012
1736.11	0.0001086
1745.75	0.0001445
1755.4	0.0002067
1765.04	0.0002674
1774.69	0.0002662
1784.33	0.0002342
1793.98	0.0001749
1803.62	0.0001069
1813.27	9.825e-05
1822.91	5.916e-05
1832.55	6.466e-05
1842.2	7.861e-05
1851.84	6.894e-05
1861.49	8.532e-05
1871.13	4.676e-05
1880.78	6.722e-05
1890.42	6.181e-05
1900.07	8.172e-05
1909.71	6.377e-05
1919.36	7.428e-05
1929	8.512e-05
1938.65	0.0001109
1948.29	0.0001367
1957.94	0.0001172
1967.58	9.816e-05
1977.23	9.912e-05
1986.87	0.0001558
1996.52	0.0001571
2006.16	0.000184
2015.81	0.0002311
2025.45	0.0002256
2035.1	0.0002021
2044.74	0.0002992
2054.38	0.0003555
2064.03	0.0004151
2073.67	0.000323
2083.32	0.0003299
2092.96	0.0002598
2102.61	0.0001849
2112.25	0.0002381
2121.9	0.0002303
2131.54	0.0001567
2141.19	0.0001757
2150.83	0.000188
2160.48	0.0002034
2170.12	0.000214
2179.77	0.0001792
2189.41	0.0001802
2199.06	0.0001415
2208.7	0.0001829
2218.35	0.0001702
2227.99	0.0002059
2237.64	0.0001812
2247.28	0.0002249
2256.92	0.0001971
2266.57	0.0002243
2276.21	0.0002667
2285.86	0.0002366
2295.5	0.0002109
2305.15	0.0002945
2314.79	0.0002481
2324.44	0.0002819
2334.08	0.0002474
2343.73	0.0002185
2353.37	0.000272
2363.02	0.000313
2372.66	0.0003058
2382.31	0.0002705
2391.95	0.0003131
2401.6	0.0003886
2411.24	0.0003125
2420.89	0.0003126
2430.53	0.0003328
2440.18	0.0003046
2449.82	0.0002853
2459.47	0.0003386
2469.11	0.0002347
2478.75	0.0003077
2488.4	0.0002646
2498.04	0.0003157
2507.69	0.0003412
2517.33	0.000347
2526.98	0.0002613
2536.62	0.0002552
2546.27	0.0002838
2555.91	0.0002666
2565.56	0.000321
2575.2	0.0003202
2584.85	0.0003548
2594.49	0.0004102
2604.14	0.0003642
2613.78	0.0004013
2623.43	0.0004779
2633.07	0.0004986
2642.72	0.0005812
2652.36	0.000577
2662.01	0.0006502
2671.65	0.0007771
2681.29	0.0007872
2690.94	0.0009376
2700.58	0.0009737
2710.23	0.00111
2719.87	0.00119
2729.52	0.0014
2739.16	0.00167
2748.81	0.00182
2758.45	0.00195
2768.1	0.00205
2777.74	0.00223
2787.39	0.00239
2797.03	0.00262
2806.68	0.00284
2816.32	0.00326
2825.97	0.00375
2835.61	0.00466
2845.26	0.00652
2854.9	0.00944
2864.55	0.01392
2874.19	0.01878
2883.84	0.02219
2893.48	0.02201
2903.12	0.02131
2912.77	0.02334
2922.41	0.02671
2932.06	0.02822
2941.7	0.02759
2951.35	0.02648
2960.99	0.02867
2970.64	0.02981
2980.28	0.02391
2989.93	0.01338
2999.57	0.00602
3009.22	0.00322
3018.86	0.0021
3028.51	0.00175
3038.15	0.00152
3047.8	0.00119
3057.44	0.00124
3067.09	0.00113
3076.73	0.000997
3086.38	0.0009987
3096.02	0.0007827
3105.67	0.0008432
3115.31	0.000681
3124.95	0.0006037
3134.6	0.0007143
3144.24	0.000526
3153.89	0.0005996
3163.53	0.0006956
3173.18	0.0005909
3182.82	0.0005308
3192.47	0.0005686
3202.11	0.0003845
3211.76	0.0003047
3221.4	0.0003336
3231.05	0.0003098
3240.69	0.0003087
3250.34	0.0002485
3259.98	0.0003737
3269.63	0.0003356
3279.27	0.0002943
3288.92	0.0003699
3298.56	0.0003041
3308.21	0.000327
3317.85	0.00025
3327.49	0.0003381
3337.14	0.0002031
3346.78	0.0002097
3356.43	0.0002786
3366.07	0.0003402
3375.72	0.0004405
3385.36	0.0003775
3395.01	0.000444
3404.65	0.0004512
3414.3	0.0003744
3423.94	0.0004901
3433.59	0.000551
3443.23	0.0006797
3452.88	0.0005698
3462.52	0.0005841
3472.17	0.0005863
3481.81	0.0004553
3491.46	0.0005956
3501.1	0.000553
3510.75	0.0004774
3520.39	0.0005153
3530.04	0.0005338
3539.68	0.0008111
3549.32	0.0007055
3558.97	0.0009032
3568.61	0.00112
3578.26	0.00179
3587.9	0.00353
3597.55	0.00519
3607.19	0.00508
3616.84	0.00386
3626.48	0.00273
3636.13	0.00259
3645.77	0.00312
3655.42	0.00552
3665.06	0.00781
3674.71	0.00801
3684.35	0.00555
3694	0.00276
3703.64	0.00155
3713.29	0.00118
3722.93	0.0009581
3732.58	0.0009041
3742.22	0.0007638
3751.86	0.0006455
3761.51	0.0007724
3771.15	0.0008552
3780.8	0.0007164
3790.44	0.0005877
3800.09	0.0006374
3809.73	0.000704
3819.38	0.0006329
3829.02	0.0007081
3838.67	0.0006191
3848.31	0.0006048
3857.96	0.0004337
3867.6	0.0005671
3877.25	0.0005019
3886.89	0.0005794
3896.54	0.0005163
3906.18	0.0004813
3915.83	0.0005617
3925.47	0.0005598
3935.12	0.0006915
3944.76	0.0003783
3954.41	0.0005364
3964.05	0.0004078
3973.69	0.0004809
3983.34	0.0003619
3992.98	0.0004159
