Infrared Spectrum: GLYCIDIC ACID, 3-METHYL-3-PHENYL, ETHYL ESTER
Formula: C12 H14 O3
CAS: 77-83-8
State: SOLUTION (10% CCl4 FOR 2.0-7.5, 10% CS2 FOR 7.5-16.0 MICRON)
Class: COBLENTZ III
Instrument: BAIRD (PRISM)
Instrument parameters: NaCl PRISM
Sampling: TRANSMISSION
Path length: 0.012 CM, 0.012 CM
Resolution: 2
Origin: DOW CHEMICAL COMPANY
MICROMETERS	TRANSMITTANCE
2.009	0.948
2.04807	0.948
2.08714	0.943
2.12621	0.941
2.16529	0.941
2.20436	0.928
2.24343	0.921
2.2825	0.922
2.32157	0.925
2.36064	0.925
2.39971	0.922
2.43879	0.917
2.47786	0.916
2.51693	0.915
2.556	0.912
2.59507	0.925
2.63414	0.923
2.67321	0.92
2.71229	0.921
2.75136	0.925
2.79043	0.926
2.8295	0.914
2.86857	0.909
2.90764	0.912
2.94671	0.917
2.98579	0.919
3.02486	0.92
3.06393	0.917
3.103	0.914
3.14207	0.907
3.18114	0.887
3.22021	0.802
3.25929	0.723
3.29836	0.676
3.33743	0.49
3.3765	0.597
3.41557	0.7
3.45464	0.797
3.49371	0.872
3.53279	0.89
3.57186	0.9
3.61093	0.904
3.65	0.905
3.68907	0.91
3.72814	0.912
3.76721	0.916
3.80629	0.916
3.84536	0.916
3.88443	0.916
3.9235	0.92
3.96257	0.92
4.00164	0.92
4.04071	0.92
4.07979	0.92
4.11886	0.916
4.15793	0.903
4.197	0.899
4.23607	0.9
4.27514	0.907
4.31421	0.907
4.35329	0.906
4.39236	0.907
4.43143	0.911
4.4705	0.92
4.50957	0.921
4.54864	0.922
4.58771	0.925
4.62679	0.923
4.66586	0.921
4.70493	0.922
4.744	0.923
4.78307	0.926
4.82214	0.926
4.86121	0.926
4.90028	0.926
4.93936	0.926
4.97843	0.927
5.0175	0.925
5.05657	0.914
5.09564	0.896
5.13471	0.89
5.17378	0.907
5.21286	0.909
5.25193	0.889
5.291	0.876
5.33007	0.876
5.36914	0.889
5.40821	0.889
5.44728	0.88
5.48636	0.841
5.52543	0.815
5.5645	0.801
5.60357	0.668
5.64264	0.265
5.68171	0.031
5.72078	0.071
5.75986	0.084
5.79893	0.1
5.838	0.512
5.87707	0.68
5.91614	0.765
5.95521	0.812
5.99428	0.847
6.03336	0.845
6.07243	0.863
6.1115	0.863
6.15057	0.846
6.18964	0.757
6.22871	0.693
6.26778	0.624
6.30686	0.6
6.34593	0.571
6.385	0.534
6.42407	0.474
6.46314	0.482
6.50221	0.549
6.54128	0.592
6.58036	0.629
6.61943	0.646
6.6585	0.587
6.69757	0.662
6.73664	0.631
6.77571	0.55
6.81478	0.493
6.85386	0.393
6.89293	0.347
6.932	0.575
6.97107	0.606
7.01014	0.494
7.04921	0.354
7.08828	0.28
7.12736	0.307
7.16643	0.319
7.2055	0.255
7.24457	0.368
7.28364	0.546
7.32271	0.717
7.36178	0.804
7.40086	0.807
7.43993	0.773
7.479	0.668
7.51807	0.547
7.55714	0.439
7.59621	0.353
7.63528	0.258
7.67436	0.18
7.71343	0.163
7.7525	0.149
7.79157	0.154
7.83064	0.213
7.86971	0.253
7.90878	0.283
7.94786	0.336
7.98693	0.439
8.026	0.539
8.06507	0.596
8.10414	0.612
8.14321	0.584
8.18228	0.495
8.22136	0.344
8.26043	0.146
8.2995	0.04
8.33857	0.002
8.37764	0.003
8.41671	0.056
8.45578	0.173
8.49486	0.315
8.53393	0.418
8.573	0.514
8.61207	0.575
8.65114	0.633
8.69021	0.684
8.72928	0.722
8.76836	0.741
8.80743	0.746
8.8465	0.744
8.88557	0.717
8.92464	0.646
8.96371	0.584
9.00278	0.565
9.04186	0.579
9.08093	0.533
9.12	0.447
9.15907	0.444
9.19814	0.381
9.23721	0.295
9.27628	0.24
9.31536	0.214
9.35443	0.256
9.3935	0.402
9.43257	0.553
9.47164	0.584
9.51071	0.506
9.54978	0.353
9.58886	0.231
9.62793	0.122
9.667	0.09
9.70607	0.132
9.74514	0.282
9.78421	0.489
9.82328	0.609
9.86236	0.665
9.90143	0.685
9.9405	0.695
9.97957	0.706
10.0186	0.741
10.0577	0.765
10.0968	0.796
10.1359	0.807
10.1749	0.811
10.214	0.823
10.2531	0.829
10.2921	0.829
10.3312	0.822
10.3703	0.801
10.4094	0.784
10.4484	0.78
10.4875	0.777
10.5266	0.768
10.5656	0.759
10.6047	0.758
10.6438	0.764
10.6829	0.771
10.7219	0.779
10.761	0.786
10.8001	0.793
10.8391	0.8
10.8782	0.792
10.9173	0.733
10.9564	0.707
10.9954	0.75
11.0345	0.773
11.0736	0.759
11.1126	0.717
11.1517	0.699
11.1908	0.694
11.2299	0.711
11.2689	0.736
11.308	0.738
11.3471	0.717
11.3861	0.684
11.4252	0.657
11.4643	0.636
11.5034	0.597
11.5424	0.554
11.5815	0.488
11.6206	0.429
11.6596	0.409
11.6987	0.449
11.7378	0.525
11.7769	0.608
11.8159	0.653
11.855	0.679
11.8941	0.701
11.9331	0.712
11.9722	0.716
12.0113	0.715
12.0504	0.714
12.0894	0.717
12.1285	0.725
12.1676	0.728
12.2066	0.727
12.2457	0.716
12.2848	0.707
12.3239	0.705
12.3629	0.711
12.402	0.723
12.4411	0.736
12.4801	0.744
12.5192	0.749
12.5583	0.752
12.5974	0.752
12.6364	0.753
12.6755	0.743
12.7146	0.723
12.7536	0.701
12.7927	0.671
12.8318	0.62
12.8709	0.575
12.9099	0.512
12.949	0.43
12.9881	0.37
13.0271	0.289
13.0662	0.251
13.1053	0.241
13.1444	0.279
13.1834	0.331
13.2225	0.376
13.2616	0.406
13.3006	0.424
13.3397	0.445
13.3788	0.471
13.4179	0.506
13.4569	0.537
13.496	0.565
13.5351	0.587
13.5741	0.596
13.6132	0.601
13.6523	0.603
13.6914	0.604
13.7304	0.608
13.7695	0.612
13.8086	0.614
13.8476	0.614
13.8867	0.615
13.9258	0.614
13.9649	0.614
14.0039	0.612
14.043	0.603
14.0821	0.571
14.1211	0.519
14.1602	0.444
14.1993	0.341
14.2384	0.236
14.2774	0.142
14.3165	0.09
14.3556	0.098
14.3946	0.17
14.4337	0.303
14.4728	0.396
14.5119	0.457
14.5509	0.492
14.59	0.51
14.6291	0.525
14.6681	0.539
14.7072	0.553
14.7463	0.563
14.7854	0.571
14.8244	0.577
14.8635	0.582
14.9026	0.582
14.9416	0.584
14.9807	0.587
15.0198	0.587
15.0589	0.587
15.0979	0.588
15.137	0.588
15.1761	0.59
15.2151	0.59
15.2542	0.587
15.2933	0.585
15.3324	0.584
15.3714	0.584
15.4105	0.584
15.4496	0.582
15.4886	0.582
15.5277	0.582
15.5668	0.582
15.6059	0.582
15.6449	0.581
15.684	0.581
15.7231	0.581
15.7621	0.581
15.8012	0.58
15.8403	0.58
15.8794	0.58
15.9184	0.58
15.9575	0.58
