Infrared Spectrum: 1,2,3-PROPANETRICARBOXYLIC ACID ,2-HYDROXY-
Formula: C6 H8 O7
CAS: 77-92-9
State: SOLID (0.5 mg / 200 mg KBr DISC)
Melting point: 153 C
Class: COBLENTZ III
Instrument: PERKIN-ELMER 21 (GRATING)
Instrument parameters: FILTER AT ABOUT 10 MICRONS
Sampling: TRANSMISSION
Resolution: 2
1/CM	TRANSMITTANCE
4000	0.8865
3991	0.8859
3982	0.8853
3973	0.8848
3964	0.8841
3955	0.8833
3946	0.8824
3937	0.8818
3928	0.8821
3919	0.8827
3910	0.8836
3901	0.8847
3892	0.8858
3883	0.8864
3874	0.8857
3865	0.8849
3856	0.8837
3847	0.8825
3838	0.8815
3829	0.8803
3820	0.8792
3811	0.8781
3802	0.8771
3793	0.8763
3784	0.8754
3775	0.8746
3766	0.8737
3757	0.8728
3748	0.872
3739	0.8709
3730	0.8698
3721	0.8687
3712	0.8666
3703	0.8637
3694	0.8625
3685	0.8611
3676	0.8592
3667	0.8573
3658	0.8538
3649	0.8492
3640	0.8448
3631	0.8391
3622	0.8317
3613	0.8242
3604	0.8147
3595	0.8028
3586	0.791
3577	0.7789
3568	0.7621
3559	0.7461
3550	0.7338
3541	0.7214
3532	0.7078
3523	0.6935
3514	0.679
3505	0.6474
3496	0.5512
3487	0.4785
3478	0.424
3469	0.4285
3460	0.4734
3451	0.5232
3442	0.5535
3433	0.5546
3424	0.5536
3415	0.5523
3406	0.5502
3397	0.5478
3388	0.5398
3379	0.5242
3370	0.4873
3361	0.4743
3352	0.467
3343	0.4562
3334	0.4251
3325	0.3921
3316	0.3589
3307	0.3257
3298	0.2927
3289	0.29
3280	0.2935
3271	0.3183
3262	0.365
3253	0.3826
3244	0.396
3235	0.4097
3226	0.4233
3217	0.437
3208	0.4508
3199	0.4647
3190	0.4786
3181	0.4926
3172	0.5068
3163	0.5209
3154	0.5352
3145	0.5471
3136	0.5571
3127	0.564
3118	0.5678
3109	0.5678
3100	0.5678
3091	0.5678
3082	0.5689
3073	0.5737
3064	0.5803
3055	0.5862
3046	0.591
3037	0.5942
3028	0.595
3019	0.5948
3010	0.5944
3001	0.5944
2992	0.5948
2983	0.5973
2974	0.6003
2965	0.6045
2956	0.6093
2947	0.6138
2938	0.616
2929	0.6171
2920	0.6176
2911	0.6178
2902	0.6182
2893	0.6196
2884	0.6242
2875	0.629
2866	0.6362
2857	0.6439
2848	0.6522
2839	0.6608
2830	0.6696
2821	0.6782
2812	0.6846
2803	0.6897
2794	0.6917
2785	0.6931
2776	0.6932
2767	0.6925
2758	0.6911
2749	0.6912
2740	0.6955
2731	0.7032
2722	0.71
2713	0.7138
2704	0.7118
2695	0.7049
2686	0.6978
2677	0.6908
2668	0.6846
2659	0.6808
2650	0.678
2641	0.6764
2632	0.676
2623	0.6767
2614	0.6822
2605	0.6892
2596	0.6932
2587	0.6941
2578	0.6922
2569	0.6884
2560	0.6843
2551	0.6851
2542	0.6884
2533	0.6971
2524	0.7068
2515	0.7171
2506	0.7307
2497	0.7469
2488	0.761
2479	0.7721
2470	0.7792
2461	0.7841
2452	0.7891
2443	0.7955
2434	0.8025
2425	0.8128
2416	0.8253
2407	0.8347
2398	0.837
2389	0.8398
2380	0.8448
2371	0.8483
2362	0.85
2353	0.8545
2344	0.859
2335	0.8615
2326	0.8661
2317	0.8709
2308	0.8757
2299	0.8801
2290	0.8844
2281	0.8887
2272	0.8909
2263	0.8911
2254	0.89
2245	0.8884
2236	0.889
2227	0.8916
2218	0.8951
2209	0.8989
2200	0.9012
2191	0.9021
2182	0.9018
2173	0.9011
2164	0.9004
2155	0.8998
2146	0.8994
2137	0.8978
2128	0.8948
2119	0.8923
2110	0.8921
2101	0.8936
2092	0.8939
2083	0.8935
2074	0.8928
2065	0.8907
2056	0.8881
2047	0.8847
2038	0.8818
2029	0.8796
2020	0.8781
2011	0.8765
2002	0.8752
1993	0.8742
1984	0.8742
1975	0.8752
1966	0.8744
1957	0.872
1948	0.8696
1939	0.8667
1930	0.8623
1921	0.8591
1912	0.855
1903	0.8494
1894	0.8434
1885	0.8355
1876	0.8271
1867	0.8174
1858	0.8049
1849	0.7928
1840	0.78
1831	0.7656
1822	0.7471
1813	0.7271
1804	0.7018
1795	0.6578
1786	0.6094
1777	0.5388
1768	0.3148
1759	0.1879
1750	0.1224
1741	0.219
1732	0.3171
1723	0.2317
1714	0.1519
1705	0.1515
1696	0.2287
1687	0.3744
1678	0.543
1669	0.6469
1660	0.6907
1651	0.726
1642	0.7532
1633	0.7684
1624	0.7741
1615	0.7893
1606	0.8081
1597	0.8259
1588	0.8401
1579	0.849
1570	0.8561
1561	0.863
1552	0.8697
1543	0.8712
1534	0.8699
1525	0.8744
1516	0.8793
1507	0.8795
1498	0.8746
1489	0.8652
1480	0.8548
1471	0.8403
1462	0.8148
1453	0.7571
1444	0.6425
1435	0.5446
1426	0.4625
1417	0.5494
1408	0.6458
1399	0.5796
1390	0.4674
1381	0.6251
1372	0.6355
1363	0.5418
1354	0.5236
1345	0.599
1336	0.5955
1327	0.6544
1318	0.6377
1309	0.6514
1300	0.6501
1291	0.6304
1282	0.6991
1273	0.7624
1264	0.7482
1255	0.6499
1246	0.4469
1237	0.3334
1228	0.4333
1219	0.4087
1210	0.38
1201	0.4103
1192	0.3892
1183	0.3434
1174	0.2474
1165	0.3968
1156	0.5203
1147	0.3666
1138	0.2327
1129	0.4698
1120	0.639
1111	0.7233
1102	0.769
1093	0.7842
1084	0.726
1075	0.7307
1066	0.7826
1057	0.7128
1048	0.6928
1039	0.7888
1030	0.8215
1021	0.8365
1012	0.8464
1003	0.8436
994	0.8375
985	0.8248
976	0.7767
967	0.7541
958	0.7455
949	0.6986
940	0.6625
931	0.6954
922	0.8014
913	0.8304
904	0.7408
895	0.8305
886	0.7907
877	0.7125
868	0.801
859	0.8383
850	0.8399
841	0.8309
832	0.8147
823	0.7428
814	0.6875
805	0.7397
796	0.6772
787	0.5752
778	0.4245
769	0.4777
760	0.5583
751	0.6465
742	0.7246
733	0.7736
724	0.8086
715	0.8391
706	0.8482
697	0.7168
688	0.7219
679	0.7667
670	0.8125
