Infrared Spectrum: 1-Phenoxy-2-propanol
Formula: C 9 H 12 O 2
CAS: 770-35-4
State: gas
Origin: EPA-IR VAPOR PHASE LIBRARY
1/CM	ABSORBANCE
549.9	0.00239
559.547	0.00211
569.193	0.00184
578.84	0.00185
588.486	0.00218
598.133	0.00199
607.779	0.0014445
617.426	0.0013414
627.072	0.0012298
636.719	0.0012997
646.365	0.0014303
656.012	0.00208
665.658	0.00309
675.305	0.00547
684.951	0.00876
694.598	0.00874
704.245	0.00559
713.891	0.00336
723.538	0.00319
733.184	0.00593
742.831	0.01175
752.477	0.01568
762.124	0.01116
771.77	0.00641
781.417	0.00443
791.063	0.0038
800.71	0.0041
810.356	0.00443
820.003	0.00423
829.649	0.00384
839.296	0.00331
848.943	0.00353
858.589	0.00426
868.236	0.00415
877.882	0.00337
887.529	0.00281
897.175	0.00258
906.822	0.00266
916.468	0.00351
926.115	0.00505
935.761	0.00637
945.408	0.0067
955.054	0.00574
964.701	0.00428
974.347	0.00436
983.994	0.00615
993.64	0.00771
1003.29	0.00814
1012.93	0.0097
1022.58	0.01465
1032.23	0.02213
1041.87	0.02491
1051.52	0.02188
1061.17	0.01768
1070.81	0.01403
1080.46	0.01094
1090.11	0.00883
1099.75	0.00796
1109.4	0.00765
1119.05	0.00822
1128.69	0.00964
1138.34	0.01018
1147.99	0.01093
1157.63	0.01153
1167.28	0.01231
1176.92	0.00904
1186.57	0.00647
1196.22	0.00936
1205.86	0.01963
1215.51	0.03314
1225.16	0.04384
1234.8	0.06208
1244.45	0.06486
1254.1	0.03684
1263.74	0.02109
1273.39	0.01711
1283.04	0.01547
1292.68	0.01403
1302.33	0.011
1311.98	0.00761
1321.62	0.00749
1331.27	0.00778
1340.92	0.00658
1350.56	0.0055
1360.21	0.00564
1369.86	0.0068
1379.5	0.00932
1389.15	0.0098
1398.79	0.00717
1408.44	0.005
1418.09	0.0035
1427.73	0.00306
1437.38	0.00371
1447.03	0.00612
1456.67	0.01087
1466.32	0.0128
1475.97	0.01236
1485.61	0.02507
1495.26	0.04027
1504.91	0.02235
1514.55	0.00599
1524.2	0.0031
1533.85	0.00238
1543.49	0.00231
1553.14	0.00292
1562.79	0.00432
1572.43	0.00776
1582.08	0.01535
1591.73	0.02702
1601.37	0.02639
1611.02	0.01128
1620.67	0.004
1630.31	0.00212
1639.96	0.001535
1649.6	0.00118
1659.25	0.0010046
1668.9	0.0009553
1678.54	0.0010865
1688.19	0.0011541
1697.84	0.0010935
1707.48	0.0010447
1717.13	0.0008611
1726.78	0.000792
1736.42	0.00071954
1746.07	0.0008219
1755.72	0.0010786
1765.36	0.0012704
1775.01	0.0009711
1784.66	0.000807
1794.3	0.0007739
1803.95	0.0007394
1813.6	0.0007904
1823.24	0.0009162
1832.89	0.0010382
1842.54	0.0010501
1852.18	0.0010267
1861.83	0.000878
1871.47	0.00069204
1881.12	0.000640093
1890.77	0.00068398
1900.41	0.0008758
1910.06	0.001099
1919.71	0.0012966
1929.35	0.001354
1939	0.0012945
1948.65	0.001004
1958.29	0.0007796
1967.94	0.00073188
1977.59	0.0007886
1987.23	0.0008478
1996.88	0.0008438
2006.53	0.0008992
2016.17	0.0009373
2025.82	0.0010273
2035.47	0.001124
2045.11	0.0012063
2054.76	0.001199
2064.41	0.001211
2074.05	0.001067
2083.7	0.0009825
2093.35	0.0009297
2102.99	0.0007991
2112.64	0.00069083
2122.28	0.000641693
2131.93	0.0005944
2141.58	0.000533
2151.22	0.0005957
2160.87	0.0005417
2170.52	0.000557
2180.16	0.0005477
2189.81	0.000529
2199.46	0.000513
2209.1	0.000528
2218.75	0.000512
2228.4	0.0005511
2238.04	0.0005756
2247.69	0.0005919
2257.34	0.0006252
2266.98	0.00063864
2276.63	0.00070846
2286.28	0.00073905
2295.92	0.00070855
2305.57	0.0008473
2315.22	0.0008129
2324.86	0.0007682
2334.51	0.00071608
2344.16	0.00067441
2353.8	0.00069065
2363.45	0.000640899
2373.09	0.0007409
2382.74	0.0008181
2392.39	0.0009098
2402.03	0.0008988
2411.68	0.0009059
2421.33	0.0009142
2430.97	0.0009434
2440.62	0.0009093
2450.27	0.0009216
2459.91	0.0009392
2469.56	0.0009794
2479.21	0.0009619
2488.85	0.0009847
2498.5	0.0009109
2508.15	0.0008657
2517.79	0.0009188
2527.44	0.0010349
2537.09	0.000996
2546.73	0.0009964
2556.38	0.0008648
2566.03	0.0008385
2575.67	0.0007924
2585.32	0.0008133
2594.96	0.0007808
2604.61	0.0007995
2614.26	0.0008095
2623.9	0.0008743
2633.55	0.0008518
2643.2	0.0008421
2652.84	0.0007779
2662.49	0.0008423
2672.14	0.0008653
2681.78	0.0008139
2691.43	0.0008623
2701.08	0.0010016
2710.72	0.0009802
2720.37	0.00107
2730.02	0.0010468
2739.66	0.0011264
2749.31	0.0011261
2758.96	0.001215
2768.6	0.001214
2778.25	0.0012475
2787.9	0.0013137
2797.54	0.0012878
2807.19	0.0012363
2816.84	0.0015371
2826.48	0.00172
2836.13	0.00201
2845.77	0.00262
2855.42	0.00357
2865.07	0.00526
2874.71	0.00768
2884.36	0.00926
2894.01	0.00962
2903.65	0.0096
2913.3	0.01048
2922.95	0.0125
2932.59	0.01394
2942.24	0.01325
2951.89	0.01089
2961.53	0.01016
2971.18	0.01154
2980.83	0.01322
2990.47	0.01235
3000.12	0.0067
3009.77	0.00359
3019.41	0.00359
3029.06	0.0045
3038.71	0.00676
3048.35	0.00757
3058	0.00633
3067.64	0.00766
3077.29	0.0089
3086.94	0.00706
3096.58	0.00517
3106.23	0.00402
3115.88	0.00225
3125.52	0.0010898
3135.17	0.0006075
3144.82	0.0005524
3154.46	0.000476
3164.11	0.000465
3173.76	0.000438
3183.4	0.000447
3193.05	0.000501
3202.7	0.000413
3212.34	0.000379
3221.99	0.000258
3231.64	9.6e-05
3241.28	0.000115
3250.93	0.000165
3260.58	0.000143
3270.22	0
3279.87	0.000166
3289.52	0.000153
3299.16	0.000327
3308.81	0.000287
3318.45	8.5e-05
3328.1	0.000189
3337.75	0.000132
3347.39	0.000121
3357.04	6.6e-05
3366.69	0.000262
3376.33	0.000215
3385.98	0.000292
3395.63	0.000157
3405.27	0.000213
3414.92	0.00043
3424.57	0.000148
3434.21	0.000206
3443.86	0.000407
3453.51	0.000293
3463.15	0.000205
3472.8	0.000282
3482.45	0.000371
3492.09	0.000213
3501.74	0.000353
3511.39	0.000265
3521.03	0.000251
3530.68	0.000399
3540.33	0.000177
3549.97	0.000384
3559.62	0.0005402
3569.26	0.0005987
3578.91	0.0006266
3588.56	0.0006095
3598.2	0.0009656
3607.85	0.001571
3617.5	0.00333
3627.14	0.00591
3636.79	0.00516
3646.44	0.00336
3656.08	0.00272
3665.73	0.00213
3675.38	0.001372
3685.02	0.0008522
3694.67	0.0007537
3704.32	0.00065646
3713.96	0.0005686
3723.61	0.000431
3733.26	0.000372
3742.9	0.000515
3752.55	0.000456
3762.2	0.0005443
3771.84	0.000461
3781.49	0.000507
3791.13	0.000419
3800.78	0.000392
3810.43	0.000436
3820.07	0.0005485
3829.72	0.0005435
3839.37	0.00063407
3849.01	0.0005806
3858.66	0.000479
3868.31	0.000482
3877.95	0.00063194
3887.6	0.00049
3897.25	0.0006204
3906.89	0.0006042
3916.54	0.0005994
3926.19	0.000537
3935.83	0.00049
3945.48	0.000624
3955.13	0.00067845
3964.77	0.0006094
3974.42	0.000513
3984.07	0.00066928
3993.71	0.00067418
