Infrared Spectrum: PHOSPHORODICHLORIDIC ACID, PHENYL ESTER
Formula: C6 H5 Cl2 O2 P
CAS: 770-12-7
State: SOLUTION (10% IN CCl4 FOR 3800-1340, 10% IN CS2 FOR 1340-400 CM^-^1)
Class: COBLENTZ III
Instrument: DOW KBr FOREPRISM-GRATING
Instrument parameters: BLAZED AT 3.5, 12.0, 20.0 MICRON, CHANGED AT 5.0, 7.5, 14.9 MICRON
Sampling: TRANSMISSION
Path length: 0.011, 0.011 CM
Resolution: 4
Origin: DOW CHEMICAL COMPANY
1/CM	TRANSMITTANCE
451.559	0.889
460.746	0.891
469.933	0.886
479.12	0.83
488.307	0.66
497.494	0.887
506.682	0.882
515.869	0.6812
525.056	0.5899
534.243	0.099
543.43	0.4
552.617	0.121
561.804	0.124
570.991	0.24
580.178	0.1431
589.365	0.05
598.552	0.2271
607.739	0.003
616.927	0.011
626.114	0.4388
635.301	0.812
644.488	0.852
653.675	0.832
662.862	0.89
672.049	0.904
681.236	0.6372
690.423	0.599
699.61	0.9
708.797	0.934
717.985	0.93
727.172	0.909
736.359	0.822
745.546	0.549
754.733	0.383
763.92	0.015
773.107	0.3789
782.294	0.83
791.481	0.896
800.668	0.921
809.855	0.922
819.043	0.911
828.23	0.912
837.417	0.911
846.604	0.84
855.791	0.774
864.978	0.792
874.165	0.812
883.352	0.845
892.539	0.831
901.726	0.5281
910.913	0.787
920.1	0.731
929.288	0.546
938.475	0.075
947.662	0.001
956.849	0.026
966.036	0.2979
975.223	0.537
984.41	0.6219
993.597	0.779
1002.78	0.797
1011.97	0.835
1021.16	0.657
1030.35	0.7449
1039.53	0.879
1048.72	0.891
1057.91	0.895
1067.09	0.7701
1076.28	0.8659
1085.47	0.932
1094.66	0.924
1103.84	0.916
1113.03	0.924
1122.22	0.911
1131.4	0.844
1140.59	0.718
1149.78	0.5021
1158.96	0.022
1168.15	0.232
1177.34	0.0331
1186.53	0.009
1195.71	0.314
1204.9	0.642
1214.09	0.763
1223.27	0.788
1232.46	0.763
1241.65	0.857
1250.84	0.847
1260.02	0.823
1269.21	0.77
1278.4	0.695
1287.58	0.558
1296.77	0.199
1305.96	0.009
1315.15	0.024
1324.33	0.3549
1333.52	0.7709
1342.71	0.875
1351.89	0.916
1361.08	0.933
1370.27	0.932
1379.45	0.934
1388.64	0.924
1397.83	0.934
1407.02	0.947
1416.2	0.941
1425.39	0.941
1434.58	0.938
1443.76	0.915
1452.95	0.842
1462.14	0.802
1471.33	0.673
1480.51	0.544
1489.7	0.019
1498.89	0.57
1508.07	0.659
1517.26	0.676
1526.45	0.657
1535.64	0.574
1544.82	0.481
1554.01	0.488
1563.2	0.552
1572.38	0.577
1581.57	0.464
1590.76	0.263
1599.94	0.469
1609.13	0.844
1618.32	0.903
1627.51	0.945
1636.69	0.977
1645.88	0.976
1655.07	0.96
1664.25	0.951
1673.44	0.946
1682.63	0.929
1691.82	0.916
1701	0.909
1710.19	0.911
1719.38	0.891
1728.56	0.911
1737.75	0.93
1746.94	0.936
1756.13	0.942
1765.31	0.942
1774.5	0.924
1783.69	0.921
1792.87	0.942
1802.06	0.946
1811.25	0.954
1820.44	0.953
1829.62	0.954
1838.81	0.951
1848	0.939
1857.18	0.904
1866.37	0.915
1875.56	0.922
1884.74	0.912
1893.93	0.911
1903.12	0.902
1912.31	0.908
1921.49	0.889
1930.68	0.899
1939.87	0.869
1949.05	0.915
1958.24	0.934
1967.43	0.942
1976.62	0.95
1985.8	0.953
1994.99	0.954
2004.18	0.953
2013.36	0.953
2022.55	0.9535
2031.74	0.955
2040.93	0.9555
2050.11	0.958
2059.3	0.956
2068.49	0.959
2077.67	0.9625
2086.86	0.964
2096.05	0.962
2105.23	0.959
2114.42	0.9625
2123.61	0.962
2132.8	0.962
2141.98	0.963
2151.17	0.964
2160.36	0.963
2169.54	0.962
2178.73	0.96
2187.92	0.963
2197.11	0.963
2206.29	0.962
2215.48	0.96
2224.67	0.9555
2233.85	0.954
2243.04	0.951
2252.23	0.947
2261.42	0.9455
2270.6	0.943
2279.79	0.941
2288.98	0.939
2298.16	0.938
2307.35	0.9391
2316.54	0.9311
2325.72	0.9292
2334.91	0.9415
2344.1	0.9409
2353.29	0.942
2362.47	0.9375
2371.66	0.9523
2380.85	0.9574
2390.03	0.9635
2399.22	0.964
2408.41	0.966
2417.6	0.968
2426.78	0.967
2435.97	0.967
2445.16	0.966
2454.34	0.966
2463.53	0.967
2472.72	0.967
2481.91	0.967
2491.09	0.967
2500.28	0.9674
2509.47	0.969
2518.65	0.969
2527.84	0.967
2537.03	0.9664
2546.21	0.968
2555.4	0.966
2564.59	0.963
2573.78	0.96
2582.96	0.959
2592.15	0.9571
2601.34	0.956
2610.52	0.9584
2619.71	0.9619
2628.9	0.964
2638.09	0.967
2647.27	0.967
2656.46	0.969
2665.65	0.9714
2674.83	0.972
2684.02	0.972
2693.21	0.972
2702.4	0.972
2711.58	0.973
2720.77	0.975
2729.96	0.9731
2739.14	0.973
2748.33	0.973
2757.52	0.973
2766.71	0.976
2775.89	0.973
2785.08	0.973
2794.27	0.976
2803.45	0.975
2812.64	0.976
2821.83	0.9788
2831.01	0.979
2840.2	0.977
2849.39	0.98
2858.58	0.981
2867.76	0.977
2876.95	0.979
2886.14	0.979
2895.32	0.979
2904.51	0.977
2913.7	0.981
2922.89	0.9846
2932.07	0.9812
2941.26	0.981
2950.45	0.9839
2959.63	0.983
2968.82	0.981
2978.01	0.98
2987.2	0.98
2996.38	0.9766
3005.57	0.9732
3014.76	0.9666
3023.94	0.9514
3033.13	0.9274
3042.32	0.9155
3051.5	0.8975
3060.69	0.8926
3069.88	0.8462
3079.07	0.8479
3088.25	0.8578
3097.44	0.9287
3106.63	0.9424
3115.81	0.9757
3125	0.9818
3134.19	0.986
3143.38	0.988
3152.56	0.9898
3161.75	0.993
3170.94	0.993
3180.12	0.993
3189.31	0.994
3198.5	1.0014
3207.69	1.005
3216.87	1.0078
3226.06	1.01
3235.25	1.0118
3244.43	1.013
3253.62	1.015
3262.81	1.018
3271.99	1.0208
3281.18	1.023
3290.37	1.026
3299.56	1.0279
3308.74	1.0304
3317.93	1.031
3327.12	1.032
3336.3	1.032
3345.49	1.032
3354.68	1.033
3363.87	1.0394
3373.05	1.04
3382.24	1.0444
3391.43	1.045
3400.61	1.045
3409.8	1.0431
3418.99	1.041
3428.18	1.037
3437.36	1.032
3446.55	1.03
3455.74	1.027
3464.92	1.0231
3474.11	1.022
3483.3	1.02
3492.48	1.0173
3501.67	1.0163
3510.86	1.0136
3520.05	1.0101
3529.23	1.011
3538.42	1.009
3547.61	1.0077
3556.79	1.006
3565.98	1.0064
3575.17	1.0073
3584.36	0.9973
3593.54	1.0045
3602.73	1.0083
3611.92	1.005
3621.1	1.001
3630.29	1
3639.48	0.998
3648.67	1
3657.85	1
3667.04	0.998
3676.23	0.997
3685.41	1
3694.6	1.001
3703.79	0.9972
3712.98	0.998
3722.16	1.001
3731.35	1.002
3740.54	1.002
3749.72	1.002
3758.91	1.002
3768.1	1.002
3777.28	1.001
3786.47	1.001
3795.66	1.003
