Infrared Spectrum: 1-(2-Chlorophenyl)-1-(4-chlorophenyl)ethane
Formula: C14 H12 Cl2
CAS: 77008-62-9
State: SOLUTION (10% CCl4 FOR 3800-1340, 10% CS2 FOR 1340-450 CM^-^1)
Class: COBLENTZ III
Instrument: DOW KBr FOREPRISM-GRATING
Instrument parameters: BLAZED AT 3.5, 12.0, 20.0 MICRON AND CHANGED AT 5.0, 7.5, 14.9 MICRON
Sampling: TRANSMISSION
Path length: 0.011 CM, 0.012 CM
Resolution: 2
Origin: DOW CHEMICAL COMPANY
1/CM	TRANSMITTANCE
3800	0.904
3791	0.9107
3782	0.9142
3773	0.9117
3764	0.9116
3755	0.9157
3746	0.9145
3737	0.9204
3728	0.917
3719	0.9122
3710	0.8702
3701	0.9103
3692	0.9064
3683	0.9091
3674	0.9134
3665	0.9124
3656	0.9088
3647	0.9091
3638	0.9099
3629	0.9108
3620	0.9125
3611	0.911
3602	0.9066
3593	0.9064
3584	0.9073
3575	0.9083
3566	0.9099
3557	0.913
3548	0.9145
3539	0.9102
3530	0.9065
3521	0.9024
3512	0.9017
3503	0.9036
3494	0.9064
3485	0.9059
3476	0.9028
3467	0.9033
3458	0.904
3449	0.9047
3440	0.905
3431	0.9043
3422	0.903
3413	0.9031
3404	0.904
3395	0.905
3386	0.9058
3377	0.9059
3368	0.9058
3359	0.9053
3350	0.9049
3341	0.9045
3332	0.9042
3323	0.9038
3314	0.9031
3305	0.9034
3296	0.9013
3287	0.899
3278	0.9001
3269	0.897
3260	0.8938
3251	0.8915
3242	0.8897
3233	0.8876
3224	0.8859
3215	0.8843
3206	0.8818
3197	0.8806
3188	0.8789
3179	0.8759
3170	0.8738
3161	0.8719
3152	0.8705
3143	0.8697
3134	0.8737
3125	0.8715
3116	0.8626
3107	0.851
3098	0.8287
3089	0.7878
3080	0.6916
3071	0.6853
3062	0.7563
3053	0.7668
3044	0.781
3035	0.7805
3026	0.7544
3017	0.7981
3008	0.8152
2999	0.7726
2990	0.6502
2981	0.4966
2972	0.4304
2963	0.633
2954	0.7787
2945	0.6898
2936	0.6696
2927	0.7479
2918	0.7725
2909	0.7894
2900	0.8056
2891	0.8079
2882	0.712
2873	0.7815
2864	0.8519
2855	0.8676
2846	0.8783
2837	0.8788
2828	0.8786
2819	0.8831
2810	0.8858
2801	0.8894
2792	0.8902
2783	0.8913
2774	0.8941
2765	0.8965
2756	0.8986
2747	0.9001
2738	0.9009
2729	0.8954
2720	0.8988
2711	0.9012
2702	0.9027
2693	0.9023
2684	0.9026
2675	0.9028
2666	0.9029
2657	0.9039
2648	0.9029
2639	0.9017
2630	0.9009
2621	0.9012
2612	0.9004
2603	0.8982
2594	0.8974
2585	0.8989
2576	0.9007
2567	0.9021
2558	0.9024
2549	0.9026
2540	0.9029
2531	0.9032
2522	0.9036
2513	0.904
2504	0.9043
2495	0.9046
2486	0.9063
2477	0.9098
2468	0.912
2459	0.9122
2450	0.9088
2441	0.9044
2432	0.9037
2423	0.9033
2414	0.9044
2405	0.9061
2396	0.9066
2387	0.9093
2378	0.9146
2369	0.9174
2360	0.9128
2351	0.9169
2342	0.916
2333	0.9065
2324	0.9034
2315	0.8985
2306	0.8969
2297	0.8989
2288	0.9007
2279	0.9019
2270	0.9014
2261	0.901
2252	0.9009
2243	0.9012
2234	0.9026
2225	0.9049
2216	0.9061
2207	0.9082
2198	0.9102
2189	0.9095
2180	0.9109
2171	0.9122
2162	0.9107
2153	0.9098
2144	0.9088
2135	0.9079
2126	0.9073
2117	0.9068
2108	0.9066
2099	0.9068
2090	0.9074
2081	0.9058
2072	0.9031
2063	0.9055
2054	0.9053
2045	0.9018
2036	0.9033
2027	0.9007
2018	0.9011
2009	0.9158
2000	0.892
1991	0.8859
1982	0.8835
1973	0.8831
1964	0.8798
1955	0.8595
1946	0.8559
1937	0.8754
1928	0.8759
1919	0.8366
1910	0.8525
1901	0.8306
1892	0.8182
1883	0.8555
1874	0.8699
1865	0.8762
1856	0.881
1847	0.8769
1838	0.8674
1829	0.876
1820	0.8807
1811	0.8785
1802	0.8421
1793	0.8654
1784	0.8725
1775	0.8624
1766	0.8684
1757	0.8763
1748	0.8809
1739	0.8873
1730	0.8856
1721	0.8805
1712	0.8843
1703	0.8804
1694	0.8658
1685	0.8786
1676	0.8813
1667	0.8763
1658	0.8427
1649	0.8428
1640	0.8622
1631	0.8719
1622	0.8535
1613	0.8297
1604	0.7715
1595	0.6486
1586	0.7237
1577	0.6436
1568	0.689
1559	0.6736
1550	0.7088
1541	0.7923
1532	0.795
1523	0.7954
1514	0.7888
1505	0.7159
1496	0.0855
1487	0.3945
1478	0.2906
1469	0.5436
1460	0.5951
1451	0.6503
1442	0.4721
1433	0.5976
1424	0.7902
1415	0.7827
1406	0.723
1397	0.8344
1388	0.847
1379	0.6559
1370	0.8714
1361	0.9078
1352	0.8876
1343	0.8779
1334	0.8442
1325	0.8444
1316	0.8577
1307	0.8695
1298	0.8537
1289	0.8425
1280	0.813
1271	0.8216
1262	0.8644
1253	0.8247
1244	0.8696
1235	0.8941
1226	0.8932
1217	0.9071
1208	0.8945
1199	0.8496
1190	0.8352
1181	0.8011
1172	0.8646
1163	0.8511
1154	0.8665
1145	0.8713
1136	0.7994
1127	0.7373
1118	0.8006
1109	0.7013
1100	0.5549
1091	0.246
1082	0.727
1073	0.7057
1064	0.6491
1055	0.6398
1046	0.7676
1037	0.2573
1028	0.6262
1019	0.6773
1010	0.6488
1001	0.8624
992	0.8907
983	0.8412
974	0.8728
965	0.8944
956	0.8871
947	0.8873
938	0.7614
929	0.8942
920	0.9074
911	0.9106
902	0.9089
893	0.8976
884	0.8657
875	0.8475
866	0.8282
857	0.7938
848	0.8005
839	0.7782
830	0.1293
821	0.5521
812	0.7612
803	0.8458
794	0.8628
785	0.8102
776	0.7675
767	0.6112
758	0.4001
749	0.0691
740	0.7044
731	0.6651
722	0.8004
713	0.7815
704	0.8635
695	0.7859
686	0.6559
677	0.8426
668	0.8793
659	0.8388
650	0.8835
641	0.9089
632	0.9123
623	0.9155
614	0.9083
605	0.7532
596	0.8991
587	0.9072
578	0.9027
569	0.8913
560	0.7825
551	0.6539
542	0.8495
533	0.8756
524	0.7491
515	0.8154
506	0.7085
497	0.7585
488	0.7949
479	0.8109
470	0.753
461	0.6656
