Infrared Spectrum: Ciodrin
Formula: C 14 H 19 O 6 P
CAS: 7700-17-6
State: gas
Instrument: HP-GC/MS/IRD
Origin: NIST Mass Spectrometry Data Center
1/CM	ABSORBANCE
550	0.0085675
562	0.0059225
574	0.004002
586	0.002553
598	0.0023345
610	0.000989
622	0.000414
634	0.000115
646	0.0002415
658	0.00069
670	0.0019665
682	0.0037145
694	0.011224
706	0.006969
718	0.005681
730	0.005819
742	0.006509
754	0.008648
766	0.007797
778	0.0065435
790	0.0097405
802	0.016974
814	0.0179285
826	0.011385
838	0.015663
850	0.0232185
862	0.0227815
874	0.015456
886	0.014306
898	0.026128
910	0.033189
922	0.0144325
934	0.007912
946	0.007084
958	0.008303
970	0.0122245
982	0.021781
994	0.0314525
1006	0.0504275
1018	0.092759
1030	0.104409
1042	0.107306
1054	0.115
1066	0.104075
1078	0.069644
1090	0.041492
1102	0.0363055
1114	0.0496685
1126	0.081719
1138	0.0536705
1150	0.024426
1162	0.019228
1174	0.0191015
1186	0.0163875
1198	0.015456
1210	0.0173535
1222	0.0232185
1234	0.028474
1246	0.0193775
1258	0.01771
1270	0.0159735
1282	0.018055
1294	0.030061
1306	0.035834
1318	0.035719
1330	0.0253345
1342	0.019136
1354	0.014881
1366	0.0096025
1378	0.010649
1390	0.0175605
1402	0.0105915
1414	0.0056925
1426	0.0058305
1438	0.006831
1450	0.0079925
1462	0.006785
1474	0.004439
1486	0.003979
1498	0.0043585
1510	0.00253
1522	0.0022425
1534	0.0023805
1546	0.0023115
1558	0.0023345
1570	0.00253
1582	0.002921
1594	0.003703
1606	0.004577
1618	0.005888
1630	0.0097865
1642	0.0215165
1654	0.0474605
1666	0.028612
1678	0.010304
1690	0.0073715
1702	0.008188
1714	0.0141335
1726	0.036064
1738	0.038456
1750	0.012305
1762	0.00552
1774	0.0033465
1786	0.0025415
1798	0.002254
1810	0.001564
1822	0.001219
1834	0.0010465
1846	0.0010005
1858	0.0010695
1870	0.001242
1882	0.001242
1894	0.001104
1906	0.001035
1918	0.001035
1930	0.001058
1942	0.0011155
1954	0.00092
1966	0.0005865
1978	0.0004025
1990	0.0003335
2002	0.000276
2014	0.000253
2026	0.00023
2038	0.0002415
2050	0.0001725
2062	0.000115
2074	0.0001035
2086	6.9e-05
2098	0.000115
2110	0.0001955
2122	0.0003335
2134	0.0004255
2146	0.000368
2158	0.00023
2170	0.000115
2182	8.05e-05
2194	8.05e-05
2206	0.0001035
2218	0.000138
2230	0.00023
2242	0.0002415
2254	0.000207
2266	0.000138
2278	0.0001035
2290	0.0001265
2302	0.000207
2314	0.0003335
2326	0.000322
2338	0.000437
2350	0.000414
2362	0.000483
2374	0.0003565
2386	0.000161
2398	6.9e-05
2410	6.9e-05
2422	0.0001265
2434	3.45e-05
2446	9.2e-05
2458	9.2e-05
2470	8.05e-05
2482	6.9e-05
2494	3.45e-05
2506	0
2518	3.45e-05
2530	6.9e-05
2542	0.0001495
2554	0.0001265
2566	0.0001955
2578	0.0001265
2590	0.0001495
2602	0.000115
2614	0.0001495
2626	0.000161
2638	0.000207
2650	0.000138
2662	5.75e-05
2674	0.000115
2686	0.0001265
2698	0.000115
2710	0.0001265
2722	0.0001725
2734	0.0002185
2746	0.00023
2758	0.000299
2770	0.000368
2782	0.0004255
2794	0.000437
2806	0.000552
2818	0.000736
2830	0.0010235
2842	0.001656
2854	0.003266
2866	0.005681
2878	0.0036225
2890	0.002645
2902	0.0027255
2914	0.0033925
2926	0.00483
2938	0.007751
2950	0.0090965
2962	0.014559
2974	0.0119255
2986	0.0138
2998	0.00943
3010	0.006003
3022	0.006072
3034	0.007613
3046	0.006808
3058	0.00575
3070	0.0078775
3082	0.0061295
3094	0.004462
3106	0.003013
3118	0.0019895
3130	0.001104
3142	0.0007705
3154	0.000644
3166	0.0004945
3178	0.0004715
3190	0.000253
3202	0.000299
3214	0.000253
3226	0.0002645
3238	0.0002185
3250	0.00023
3262	0.000253
3274	0.0002415
3286	0.0002875
3298	0.000207
3310	0.0002645
3322	0.0001955
3334	0.00023
3346	0.000161
3358	0.0002185
3370	0.00023
3382	0.0002645
3394	0.00023
3406	0.000276
3418	0.000299
3430	0.000345
3442	0.0004945
3454	0.0004255
3466	0.000414
3478	0.0002645
3490	0.0002185
3502	0.0001955
3514	0.0001495
3526	0.0001035
3538	0.000161
3550	9.2e-05
3562	9.2e-05
3574	0.00023
3586	0.000391
3598	0.00023
3610	0.0001495
3622	0.000253
3634	0.0001495
3646	0.0001725
3658	0.000184
3670	0.0002415
3682	0.00023
3694	0.0002185
3706	0.000299
3718	0.0002415
3730	0.0001955
3742	0.0001495
3754	0.0001495
3766	0.000207
3778	0.000253
3790	0.0002875
3802	0.000184
3814	0.000184
3826	0.0002645
3838	0.0002645
