Infrared Spectrum: PURINE-6(1H)-ONE, 1-[2-(p-TOLYTHIO)ETHYL]-
Formula: C14 H14 N4 O S
CAS: 7702-67-2
State: SOLID (0.8 mg / 650 mg KBr DISC)
Class: COBLENTZ III
Instrument: PERKIN-ELMER 21 (GRATING)
Instrument parameters: FILTER CHANGE ABOUT 1025 CM^-^1
Sampling: TRANSMISSION
Resolution: 2
Origin: SOUTHERN RESEARCH INSTITUTE
1/CM	TRANSMITTANCE
598.3	0.5457
607.355	0.5443
616.41	0.5415
625.464	0.5352
634.519	0.5227
643.574	0.5075
652.629	0.564
661.683	0.5897
670.738	0.5749
679.793	0.604
688.848	0.6348
697.902	0.6368
706.957	0.6367
716.012	0.6339
725.067	0.6288
734.121	0.6217
743.176	0.6093
752.231	0.5811
761.286	0.6152
770.34	0.621
779.395	0.5907
788.45	0.6044
797.505	0.4897
806.559	0.4307
815.614	0.5013
824.669	0.5954
833.724	0.6025
842.778	0.5983
851.833	0.5918
860.888	0.5816
869.943	0.5586
878.997	0.5912
888.052	0.6405
897.107	0.6352
906.162	0.5922
915.216	0.5987
924.271	0.636
933.326	0.6451
942.381	0.6483
951.435	0.6421
960.49	0.6089
969.545	0.5333
978.6	0.4678
987.654	0.5897
996.709	0.6472
1005.76	0.6313
1014.82	0.6036
1023.87	0.635
1032.93	0.5504
1041.98	0.374
1051.04	0.4741
1060.09	0.6478
1069.15	0.6535
1078.2	0.6265
1087.26	0.572
1096.31	0.5972
1105.37	0.578
1114.42	0.5239
1123.48	0.4615
1132.53	0.3258
1141.59	0.4559
1150.64	0.474
1159.69	0.4528
1168.75	0.4582
1177.8	0.5837
1186.86	0.6362
1195.91	0.619
1204.97	0.5626
1214.02	0.5706
1223.08	0.4949
1232.13	0.5414
1241.19	0.6414
1250.24	0.6223
1259.3	0.5877
1268.35	0.5976
1277.41	0.5188
1286.46	0.493
1295.52	0.6512
1304.57	0.6552
1313.63	0.6548
1322.68	0.6353
1331.73	0.5728
1340.79	0.5303
1349.84	0.4163
1358.9	0.4039
1367.95	0.5095
1377.01	0.5562
1386.06	0.519
1395.12	0.4141
1404.17	0.391
1413.23	0.4101
1422.28	0.3942
1431.34	0.421
1440.39	0.4405
1449.45	0.4088
1458.5	0.5311
1467.56	0.5848
1476.61	0.5807
1485.67	0.5281
1494.72	0.3237
1503.78	0.2738
1512.83	0.2795
1521.88	0.4405
1530.94	0.4771
1539.99	0.5059
1549.05	0.6254
1558.1	0.6039
1567.16	0.5905
1576.21	0.5851
1585.27	0.5398
1594.32	0.4421
1603.38	0.1932
1612.43	0.1461
1621.49	0.1729
1630.54	0.5115
1639.6	0.6109
1648.65	0.6369
1657.71	0.6497
1666.76	0.6589
1675.82	0.6646
1684.87	0.6663
1693.92	0.6674
1702.98	0.667
1712.03	0.6667
1721.09	0.6663
1730.14	0.6652
1739.2	0.669
1748.25	0.671
1757.31	0.6709
1766.36	0.6698
1775.42	0.667
1784.47	0.6643
1793.53	0.6629
1802.58	0.6629
1811.64	0.6646
1820.69	0.6666
1829.75	0.6669
1838.8	0.6673
1847.86	0.6709
1856.91	0.6724
1865.97	0.6727
1875.02	0.673
1884.07	0.6732
1893.13	0.6732
1902.18	0.6749
1911.24	0.6802
1920.29	0.6844
1929.35	0.6848
1938.4	0.6848
1947.46	0.6845
1956.51	0.6842
1965.57	0.6838
1974.62	0.6835
1983.68	0.6831
1992.73	0.682
2001.79	0.6799
2010.84	0.6776
2019.9	0.6742
2028.95	0.6731
2038.01	0.6724
2047.06	0.6721
2056.11	0.6682
2065.17	0.6667
2074.22	0.6669
2083.28	0.6669
2092.33	0.6669
2101.39	0.6669
2110.44	0.6666
2119.5	0.6662
2128.55	0.6656
2137.61	0.6647
2146.66	0.6637
2155.72	0.6628
2164.77	0.6612
2173.83	0.6596
2182.88	0.6579
2191.94	0.6561
2200.99	0.6543
2210.05	0.6523
2219.1	0.65
2228.16	0.6478
2237.21	0.6455
2246.26	0.6435
2255.32	0.6415
2264.37	0.6396
2273.43	0.637
2282.48	0.6341
2291.54	0.6306
2300.59	0.6252
2309.65	0.6201
2318.7	0.6151
2327.76	0.6095
2336.81	0.6058
2345.87	0.6034
2354.92	0.6033
2363.98	0.6036
2373.03	0.603
2382.09	0.6019
2391.14	0.6007
2400.2	0.598
2409.25	0.5953
2418.31	0.5926
2427.36	0.5898
2436.41	0.5873
2445.47	0.5849
2454.52	0.5812
2463.58	0.5767
2472.63	0.5714
2481.69	0.5656
2490.74	0.5594
2499.8	0.552
2508.85	0.543
2517.91	0.5335
2526.96	0.5228
2536.02	0.5105
2545.07	0.5014
2554.13	0.5023
2563.18	0.504
2572.24	0.5058
2581.29	0.5076
2590.35	0.5065
2599.4	0.504
2608.45	0.5002
2617.51	0.4953
2626.56	0.4904
2635.62	0.4873
2644.67	0.4859
2653.73	0.4852
2662.78	0.4855
2671.84	0.4861
2680.89	0.4862
2689.95	0.484
2699	0.4778
2708.06	0.4705
2717.11	0.4627
2726.17	0.4529
2735.22	0.4416
2744.28	0.4295
2753.33	0.4164
2762.39	0.4033
2771.44	0.3927
2780.5	0.383
2789.55	0.3755
2798.6	0.3742
2807.66	0.3742
2816.71	0.3836
2825.77	0.4001
2834.82	0.4176
2843.88	0.4323
2852.93	0.4314
2861.99	0.4286
2871.04	0.4251
2880.1	0.4132
2889.15	0.3976
2898.21	0.386
2907.26	0.3803
2916.32	0.3776
2925.37	0.3757
2934.43	0.3746
2943.48	0.374
2952.54	0.3743
2961.59	0.3746
2970.64	0.3753
2979.7	0.3737
2988.75	0.3763
2997.81	0.3761
3006.86	0.3758
3015.92	0.3755
3024.97	0.3762
3034.03	0.3776
3043.08	0.3805
3052.14	0.3854
3061.19	0.3904
3070.25	0.3981
3079.3	0.4063
3088.36	0.4165
3097.41	0.427
3106.47	0.4369
3115.52	0.4468
3124.58	0.4557
3133.63	0.4636
3142.69	0.4705
3151.74	0.4769
3160.79	0.4834
3169.85	0.4891
3178.9	0.4948
3187.96	0.4997
3197.01	0.5036
3206.07	0.5074
3215.12	0.511
3224.18	0.5143
3233.23	0.5167
3242.29	0.5192
3251.34	0.5216
3260.4	0.5227
3269.45	0.5238
3278.51	0.5239
3287.56	0.5222
3296.62	0.5193
3305.67	0.5162
3314.73	0.5148
3323.78	0.5123
3332.83	0.51
3341.89	0.5083
3350.94	0.5049
3360	0.5009
3369.05	0.4954
3378.11	0.492
3387.16	0.4895
3396.22	0.484
3405.27	0.4801
3414.33	0.4769
3423.38	0.4754
3432.44	0.4743
3441.49	0.4746
3450.55	0.475
3459.6	0.476
3468.66	0.477
3477.71	0.478
3486.77	0.4804
3495.82	0.4827
3504.88	0.4851
3513.93	0.4881
3522.98	0.4916
3532.04	0.4951
3541.09	0.4995
3550.15	0.5043
3559.2	0.509
3568.26	0.5137
3577.31	0.5197
3586.37	0.5272
3595.42	0.5348
3604.48	0.5445
3613.53	0.5537
3622.59	0.5596
3631.64	0.5652
3640.7	0.5692
3649.75	0.572
3658.81	0.5737
3667.86	0.5752
3676.92	0.5765
3685.97	0.5774
3695.03	0.5783
3704.08	0.5787
3713.13	0.5787
3722.19	0.5791
3731.24	0.5798
3740.3	0.5805
3749.35	0.5812
3758.41	0.5795
3767.46	0.5764
3776.52	0.5728
3785.57	0.5718
3794.63	0.5718
3803.68	0.5708
3812.74	0.5699
3821.79	0.5685
3830.85	0.5656
3839.9	0.5618
3848.96	0.5554
3858.01	0.5534
3867.07	0.5527
3876.12	0.5535
3885.17	0.5543
3894.23	0.5547
3903.28	0.5551
3912.34	0.5548
3921.39	0.5544
3930.45	0.554
3939.5	0.5534
3948.56	0.5529
3957.61	0.5524
3966.67	0.552
3975.72	0.5515
3984.78	0.551
3993.83	0.5505
4002.89	0.5495
4011.94	0.5485
