Infrared Spectrum: ANILINE, 2,3,4,5,6-PENTAFLUORO-
Formula: C6 H2 F5 N
CAS: 771-60-8
State: SOLUTION (10% CCl4 FOR 3800-1330, 10% CS2 FOR 1330-400 CM^-^1)
Melting point: 34 C
Boiling point: 153 C
Class: COBLENTZ III
Instrument: DOW KBr FOREPRISM-GRATING
Instrument parameters: BLAZED AT 3.5, 12.0, 20.0 MICRON AND CHANGED AT 5.0, 7.5, 14.9 MICRON
Sampling: TRANSMISSION
Path length: 0.012 CM, 0.011 CM
Resolution: 2
Origin: DOW CHEMICAL COMPANY
1/CM	TRANSMITTANCE
383	0.2129
392	0.2211
401	0.2373
410	0.3549
419	0.4759
428	0.5036
437	0.5108
446	0.5078
455	0.513
464	0.5234
473	0.5321
482	0.542
491	0.5537
500	0.5668
509	0.5804
518	0.5945
527	0.6097
536	0.6247
545	0.6368
554	0.6373
563	0.511
572	0.6758
581	0.6908
590	0.7057
599	0.7474
608	0.7174
617	0.6084
626	0.6234
635	0.6292
644	0.6456
653	0.6249
662	0.6278
671	0.638
680	0.6478
689	0.6588
698	0.6718
707	0.6883
716	0.6761
725	0.7132
734	0.7254
743	0.7342
752	0.7376
761	0.7389
770	0.7422
779	0.748
788	0.7515
797	0.7474
806	0.7488
815	0.7701
824	0.7751
833	0.7715
842	0.7486
851	0.6647
860	0.6595
869	0.685
878	0.7105
887	0.7275
896	0.778
905	0.7894
914	0.7869
923	0.751
932	0.6407
941	0.1316
950	0.0063
959	0.2184
968	0.3975
977	0.3671
986	0.2594
995	0.0271
1004	0.0264
1013	0.065
1022	0.205
1031	0.4785
1040	0.6765
1049	0.7612
1058	0.7904
1067	0.7989
1076	0.7856
1085	0.7498
1094	0.637
1103	0.7208
1112	0.7184
1121	0.4394
1130	0.1317
1139	0.76
1148	0.7408
1157	0.6419
1166	0.4055
1175	0.0243
1184	0.4621
1193	0.6874
1202	0.7511
1211	0.773
1220	0.7736
1229	0.7982
1238	0.8078
1247	0.8121
1256	0.8012
1265	0.7797
1274	0.7707
1283	0.7994
1292	0.7922
1301	0.7558
1310	0.6388
1319	0.7103
1328	0.7778
1337	0.7498
1346	0.6895
1355	0.72
1364	0.7938
1373	0.8342
1382	0.834
1391	0.8271
1400	0.8207
1409	0.8289
1418	0.8221
1427	0.8136
1436	0.7931
1445	0.7535
1454	0.7544
1463	0.7207
1472	0.7014
1481	0.6651
1490	0.6169
1499	0.4544
1508	0.2134
1517	0.0019
1526	0.0032
1535	0.0273
1544	0.1749
1553	0.2727
1562	0.34
1571	0.4269
1580	0.4506
1589	0.4319
1598	0.3042
1607	0.1083
1616	0.3905
1625	0.6196
1634	0.7092
1643	0.7495
1652	0.7232
1661	0.649
1670	0.2009
1679	0.6231
1688	0.7693
1697	0.7799
1706	0.788
1715	0.7935
1724	0.7874
1733	0.7706
1742	0.7908
1751	0.7808
1760	0.778
1769	0.8141
1778	0.8216
1787	0.8134
1796	0.8057
1805	0.8209
1814	0.8423
1823	0.8455
1832	0.8466
1841	0.8471
1850	0.8467
1859	0.8454
1868	0.8455
1877	0.8423
1886	0.8468
1895	0.8489
1904	0.8468
1913	0.8473
1922	0.8499
1931	0.8517
1940	0.8517
1949	0.8518
1958	0.8564
1967	0.8458
1976	0.8439
1985	0.8445
1994	0.8493
2003	0.857
2012	0.8614
2021	0.8646
2030	0.8657
2039	0.8657
2048	0.8652
2057	0.8637
2066	0.8587
2075	0.8489
2084	0.8065
2093	0.7987
2102	0.8516
2111	0.851
2120	0.8511
2129	0.8512
2138	0.86
2147	0.8597
2156	0.8591
2165	0.8603
2174	0.8628
2183	0.8662
2192	0.8698
2201	0.8717
2210	0.8701
2219	0.868
2228	0.8654
2237	0.8623
2246	0.8557
2255	0.8496
2264	0.8486
2273	0.8488
2282	0.849
2291	0.8498
2300	0.8508
2309	0.8525
2318	0.8615
2327	0.8771
2336	0.8782
2345	0.8775
2354	0.8763
2363	0.875
2372	0.8743
2381	0.8775
2390	0.8764
2399	0.8733
2408	0.8673
2417	0.8511
2426	0.8008
2435	0.8234
2444	0.8517
2453	0.8471
2462	0.8206
2471	0.7778
2480	0.8333
2489	0.846
2498	0.8678
2507	0.8739
2516	0.8818
2525	0.8782
2534	0.8777
2543	0.8766
2552	0.8766
2561	0.878
2570	0.879
2579	0.8761
2588	0.8702
2597	0.8648
2606	0.8627
2615	0.8632
2624	0.8628
2633	0.8575
2642	0.8175
2651	0.8238
2660	0.8501
2669	0.8256
2678	0.7897
2687	0.8632
2696	0.8713
2705	0.8757
2714	0.8765
2723	0.8732
2732	0.8742
2741	0.8721
2750	0.8686
2759	0.8627
2768	0.8585
2777	0.8671
2786	0.8742
2795	0.8792
2804	0.879
2813	0.878
2822	0.8768
2831	0.8759
2840	0.8749
2849	0.8739
2858	0.8728
2867	0.8718
2876	0.871
2885	0.8698
2894	0.8685
2903	0.8668
2912	0.8641
2921	0.8696
2930	0.8703
2939	0.8685
2948	0.8665
2957	0.8639
2966	0.8589
2975	0.8491
2984	0.8509
2993	0.8534
3002	0.8289
3011	0.8477
3020	0.8749
3029	0.8788
3038	0.8794
3047	0.8798
3056	0.8797
3065	0.8795
3074	0.8794
3083	0.8768
3092	0.8742
3101	0.8718
3110	0.8717
3119	0.8715
3128	0.8718
3137	0.8723
3146	0.8745
3155	0.8739
3164	0.8645
3173	0.846
3182	0.8214
3191	0.785
3200	0.811
3209	0.8515
3218	0.8628
3227	0.87
3236	0.8731
3245	0.8725
3254	0.8709
3263	0.8681
3272	0.869
3281	0.8718
3290	0.8728
3299	0.8728
3308	0.8721
3317	0.87
3326	0.8666
3335	0.8602
3344	0.8506
3353	0.838
3362	0.8176
3371	0.7861
3380	0.7406
3389	0.5427
3398	0.2974
3407	0.1145
3416	0.2587
3425	0.6921
3434	0.7868
3443	0.789
3452	0.7746
3461	0.7469
3470	0.6521
3479	0.5334
3488	0.4146
3497	0.2958
3506	0.2504
3515	0.6192
3524	0.7807
3533	0.8246
3542	0.8517
3551	0.8637
3560	0.8717
3569	0.8775
3578	0.8821
3587	0.8852
3596	0.8873
3605	0.8889
3614	0.8894
3623	0.8898
3632	0.8902
3641	0.8905
3650	0.8903
3659	0.8899
3668	0.8896
3677	0.8895
3686	0.8895
3695	0.8896
3704	0.8902
3713	0.8907
3722	0.8911
3731	0.8905
3740	0.89
3749	0.8894
3758	0.889
3767	0.8885
3776	0.8887
3785	0.8888
3794	0.889
