Infrared Spectrum: 2,3-Diaminonaphthalene
Formula: C 10 H 10 N 2
CAS: 771-97-1
State: gas
Instrument: HP-GC/MS/IRD
Origin: NIST Mass Spectrometry Data Center
1/CM	ABSORBANCE
550	0.00533
562	0.003646
574	0.003806
586	0.004738
598	0.006404
610	0.010328
622	0.012908
634	0.010518
646	0.010482
658	0.008414
670	0.006692
682	0.005736
694	0.00533
706	0.005916
718	0.008084
730	0.011296
742	0.010244
754	0.004864
766	0.002996
778	0.002438
790	0.002084
802	0.001866
814	0.001878
826	0.002524
838	0.005944
850	0.010808
862	0.007996
874	0.00343
886	0.001746
898	0.001386
910	0.001048
922	0.00101
934	0.001204
946	0.001126
958	0.000762
970	0.00045
982	0.000402
994	0.000388
1006	0.000606
1018	0.000834
1030	0.000348
1042	0.000154
1054	0.000192
1066	0.00018
1078	0.000484
1090	0.0008
1102	0.0009
1114	0.00086
1126	0.000794
1138	0.000692
1150	0.001064
1162	0.002372
1174	0.00419
1186	0.003086
1198	0.000894
1210	0.000738
1222	0.000994
1234	0.001446
1246	0.003378
1258	0.010604
1270	0.016698
1282	0.007458
1294	0.00164
1306	0.00037
1318	0.000118
1330	0.000166
1342	0.000352
1354	0.00092
1366	0.001176
1378	0.000894
1390	0.001562
1402	0.00293
1414	0.00213
1426	0.000618
1438	0.000562
1450	0.001442
1462	0.00479
1474	0.014612
1486	0.009986
1498	0.006662
1510	0.016756
1522	0.01762
1534	0.004392
1546	0.001896
1558	0.001652
1570	0.002082
1582	0.002854
1594	0.003392
1606	0.005176
1618	0.008042
1630	0.007946
1642	0.007172
1654	0.004672
1666	0.002316
1678	0.001718
1690	0.00095
1702	0.000644
1714	0.000632
1726	0.000432
1738	0.000288
1750	0.00033
1762	0.000372
1774	0.000426
1786	0.000526
1798	0.000518
1810	0.000464
1822	0.000472
1834	0.000408
1846	0.000274
1858	0.000252
1870	0.000368
1882	0.000432
1894	0.000422
1906	0.000466
1918	0.000526
1930	0.000454
1942	7.8e-05
1954	1.8e-05
1966	8e-06
1978	1.8e-05
1990	5.4e-05
2002	7.8e-05
2014	0.000142
2026	9.8e-05
2038	3.2e-05
2050	7.8e-05
2062	6.2e-05
2074	7e-05
2086	0.000116
2098	0.0002
2110	0.000204
2122	0.000146
2134	0.000112
2146	0.000118
2158	0.000124
2170	0.000154
2182	0.00016
2194	0.000198
2206	0.000198
2218	0.000226
2230	0.000252
2242	0.00026
2254	0.000258
2266	0.00028
2278	0.000262
2290	0.00023
2302	0.00024
2314	0.000236
2326	0.00027
2338	0.000234
2350	0.000232
2362	0.000244
2374	0.000192
2386	0.000134
2398	0.000136
2410	0.000128
2422	0.000142
2434	0.000182
2446	0.000174
2458	0.000142
2470	0.000124
2482	0.000138
2494	0.000148
2506	0.000192
2518	0.00021
2530	0.00026
2542	0.000208
2554	0.000158
2566	0.000138
2578	0.000142
2590	0.00012
2602	0.00014
2614	0.000128
2626	0.000174
2638	0.00019
2650	0.000238
2662	0.000298
2674	0.000288
2686	0.000248
2698	0.0002
2710	0.000196
2722	0.00023
2734	0.000254
2746	0.000176
2758	0.000166
2770	0.000164
2782	0.000156
2794	0.000228
2806	0.000308
2818	0.000254
2830	0.000164
2842	0.000132
2854	6.6e-05
2866	0.000122
2878	0.000134
2890	0.000208
2902	0.000278
2914	0.000312
2926	0.000364
2938	0.00052
2950	0.00057
2962	0.000664
2974	0.00079
2986	0.001262
2998	0.002176
3010	0.004202
3022	0.005384
3034	0.004208
3046	0.004812
3058	0.007818
3070	0.006804
3082	0.003552
3094	0.001562
3106	0.000732
3118	0.000388
3130	0.00021
3142	0.000202
3154	0.000224
3166	0.000266
3178	0.000268
3190	0.000246
3202	0.000202
3214	0.000238
3226	0.000346
3238	0.000268
3250	0.000292
3262	0.00018
3274	0.000182
3286	0.000162
3298	0.000136
3310	0.000134
3322	0.000152
3334	0.000286
3346	0.000342
3358	0.001202
3370	0.002776
3382	0.002142
3394	0.001032
3406	0.000644
3418	0.000588
3430	0.00071
3442	0.001352
3454	0.002514
3466	0.002256
3478	0.001308
3490	0.0008
3502	0.000536
3514	0.000456
3526	0.00032
3538	0.000312
3550	0.000322
3562	0.000292
3574	0.00023
3586	0.000228
3598	0.000292
3610	0.000254
3622	0.00027
3634	0.000244
3646	0.000322
3658	0.000242
3670	0.000192
3682	0.000224
3694	0.000286
3706	0.000216
3718	0.000126
3730	0.000126
3742	0.00016
3754	0.00014
3766	0.000158
3778	0.000192
3790	0.000142
3802	0.00014
3814	0.000138
3826	0.000118
3838	0.000178
