Infrared Spectrum: 1-Phenylcyclohexane
Formula: C 12 H 14
CAS: 771-98-2
State: gas
Instrument: HP-GC/MS/IRD
Origin: NIST Mass Spectrometry Data Center
1/CM	ABSORBANCE
550	0.0007378
562	0.000289
574	0.0001224
586	0.0001054
598	7.48e-05
610	4.76e-05
622	7.82e-05
634	0.0001496
646	0.0007106
658	0.001734
670	0.0020638
682	0.0044098
694	0.0073474
706	0.0052394
718	0.0030022
730	0.0041514
742	0.0071366
754	0.0074426
766	0.004386
778	0.0015742
790	0.0008126
802	0.000969
814	0.0005882
826	0.000714
838	0.0011526
850	0.0011798
862	0.0005984
874	0.0004216
886	0.0005712
898	0.0009452
910	0.001343
922	0.001564
934	0.0010132
946	0.0004012
958	0.0002448
970	0.0003366
982	0.0004522
994	0.0008976
1006	0.0015436
1018	0.0011118
1030	0.00119
1042	0.000952
1054	0.0010404
1066	0.0010914
1078	0.0009248
1090	0.0004216
1102	0.000238
1114	0.0002346
1126	0.0004964
1138	0.0009452
1150	0.0005882
1162	0.0002618
1174	0.0003298
1186	0.0002006
1198	0.000136
1210	0.0001394
1222	0.0001972
1234	0.0004386
1246	0.0006902
1258	0.000459
1270	0.0007174
1282	0.0007446
1294	0.00051
1306	0.0004556
1318	0.0006324
1330	0.000986
1342	0.001938
1354	0.001598
1366	0.0008092
1378	0.0004828
1390	0.0004148
1402	0.0003774
1414	0.0005712
1426	0.0012274
1438	0.0029988
1450	0.0031858
1462	0.0022236
1474	0.001462
1486	0.0030872
1498	0.0030906
1510	0.0009962
1522	0.0005746
1534	0.0003876
1546	0.0003366
1558	0.000425
1570	0.000595
1582	0.0012036
1594	0.0024514
1606	0.0017544
1618	0.0005134
1630	0.0004284
1642	0.0007208
1654	0.000816
1666	0.0004318
1678	0.0003638
1690	0.000306
1702	0.0003774
1714	0.0003842
1726	0.0004046
1738	0.0004046
1750	0.0004114
1762	0.0003434
1774	0.000408
1786	0.0006562
1798	0.000612
1810	0.0003128
1822	0.0002142
1834	0.000187
1846	0.0002822
1858	0.000357
1870	0.0004522
1882	0.0003604
1894	0.0002448
1906	0.0002278
1918	0.0003264
1930	0.0004964
1942	0.0006732
1954	0.0005134
1966	0.0001598
1978	8.84e-05
1990	8.16e-05
2002	2.72e-05
2014	3.4e-05
2026	0
2038	3.4e-05
2050	6.8e-06
2062	3.06e-05
2074	1.7e-05
2086	1.7e-05
2098	1.7e-05
2110	0
2122	1.02e-05
2134	2.38e-05
2146	2.38e-05
2158	2.72e-05
2170	2.38e-05
2182	3.4e-05
2194	5.1e-05
2206	4.08e-05
2218	5.44e-05
2230	6.46e-05
2242	5.78e-05
2254	8.16e-05
2266	8.84e-05
2278	8.16e-05
2290	7.14e-05
2302	7.14e-05
2314	0.0001224
2326	8.16e-05
2338	7.48e-05
2350	9.18e-05
2362	7.14e-05
2374	8.16e-05
2386	6.8e-05
2398	6.8e-05
2410	5.78e-05
2422	4.76e-05
2434	4.08e-05
2446	2.04e-05
2458	2.72e-05
2470	5.78e-05
2482	5.44e-05
2494	8.84e-05
2506	0.0001054
2518	0.0001156
2530	9.52e-05
2542	7.82e-05
2554	8.16e-05
2566	9.18e-05
2578	0.0001326
2590	0.0001802
2602	0.0002176
2614	0.0001904
2626	0.000187
2638	0.0002958
2650	0.0004318
2662	0.0004692
2674	0.0004658
2686	0.000425
2698	0.0003128
2710	0.0002312
2722	0.0002244
2734	0.0002278
2746	0.0002346
2758	0.0002958
2770	0.0004012
2782	0.0005984
2794	0.0007378
2806	0.0009996
2818	0.0014042
2830	0.0030294
2842	0.00765
2854	0.009503
2866	0.0107848
2878	0.0092072
2890	0.0082008
2902	0.0089454
2914	0.0139094
2926	0.0230282
2938	0.0325516
2950	0.0262276
2962	0.0061438
2974	0.0022984
2986	0.0018496
2998	0.002125
3010	0.0029954
3022	0.0053176
3034	0.0076976
3046	0.0053822
3058	0.0064464
3070	0.0082722
3082	0.0053788
3094	0.0038318
3106	0.0021896
3118	0.0009928
3130	0.000527
3142	0.0004454
3154	0.000408
3166	0.000323
3178	0.000238
3190	0.0002788
3202	0.0002312
3214	0.0002074
3226	0.0001598
3238	0.0001564
3250	0.0001394
3262	0.00017
3274	0.0001292
3286	0.000136
3298	0.0001462
3310	6.8e-05
3322	0.000119
3334	0.000102
3346	7.48e-05
3358	0.000119
3370	0.0001088
3382	0.0001122
3394	8.84e-05
3406	0.0001122
3418	0.000136
3430	5.78e-05
3442	9.18e-05
3454	3.74e-05
3466	8.16e-05
3478	5.78e-05
3490	3.4e-05
3502	0.0001054
3514	3.74e-05
3526	0.0001088
3538	6.8e-06
3550	0.0001156
3562	7.48e-05
3574	5.78e-05
3586	0.0001496
3598	3.06e-05
3610	0.0001122
3622	6.46e-05
3634	8.84e-05
3646	0.000153
3658	9.52e-05
3670	0.0001734
3682	8.5e-05
3694	0.0001462
3706	0.0001156
3718	0.0001462
3730	0.0001598
3742	0.0001598
3754	9.52e-05
3766	8.84e-05
3778	5.1e-05
3790	5.1e-05
3802	0.0001122
3814	8.5e-05
3826	8.84e-05
3838	0.0001224
