Infrared Spectrum: Acetimidic acid, 2-(dimethylcarbamoyl)-,ethyl ester, hydrochloride
Formula: C7 H15 Cl N2 O2
CAS: 7711-32-2
State: SOLID (0.6 mg / 650 mg KBr DISC)
Class: COBLENTZ III
Instrument: PERKIN-ELMER 21 (GRATING)
Instrument parameters: FILTER CHANGE ABOUT 1080 CM^-^1
Sampling: TRANSMISSION
Resolution: 2
Origin: SOUTHERN RESEARCH INSTITUTE
1/CM	TRANSMITTANCE
601.387	0.683
610.409	0.6935
619.432	0.7184
628.454	0.7617
637.477	0.7912
646.499	0.7869
655.522	0.7813
664.544	0.774
673.567	0.748
682.589	0.7354
691.612	0.7289
700.634	0.7169
709.657	0.7037
718.679	0.6905
727.702	0.6771
736.724	0.6651
745.747	0.6568
754.769	0.6477
763.792	0.63
772.814	0.6042
781.837	0.5735
790.859	0.5468
799.882	0.5227
808.904	0.5361
817.927	0.5429
826.949	0.4685
835.972	0.3643
844.994	0.4529
854.017	0.5013
863.039	0.5005
872.062	0.4609
881.084	0.429
890.107	0.5343
899.129	0.5644
908.152	0.5742
917.174	0.576
926.197	0.5735
935.219	0.5622
944.242	0.5256
953.264	0.5576
962.287	0.5674
971.309	0.559
980.332	0.5373
989.354	0.533
998.377	0.5158
1007.4	0.4687
1016.42	0.4063
1025.44	0.478
1034.47	0.5016
1043.49	0.5009
1052.51	0.49
1061.53	0.4712
1070.56	0.4548
1079.58	0.4318
1088.6	0.4136
1097.62	0.308
1106.65	0.3878
1115.67	0.466
1124.69	0.4532
1133.71	0.3671
1142.74	0.2859
1151.76	0.3307
1160.78	0.4355
1169.8	0.4988
1178.83	0.5217
1187.85	0.5245
1196.87	0.5057
1205.89	0.4449
1214.92	0.4386
1223.94	0.548
1232.96	0.5423
1241.98	0.5307
1251.01	0.5135
1260.03	0.4709
1269.05	0.4655
1278.07	0.5369
1287.1	0.5299
1296.12	0.5028
1305.14	0.4421
1314.16	0.5373
1323.19	0.5386
1332.21	0.5342
1341.23	0.5223
1350.25	0.5062
1359.28	0.4525
1368.3	0.3496
1377.32	0.4252
1386.34	0.3557
1395.37	0.1927
1404.39	0.1579
1413.41	0.2354
1422.43	0.3008
1431.46	0.3604
1440.48	0.3794
1449.5	0.3793
1458.52	0.3711
1467.55	0.3657
1476.57	0.3851
1485.59	0.4545
1494.61	0.4289
1503.64	0.395
1512.66	0.4352
1521.68	0.4893
1530.7	0.4962
1539.73	0.494
1548.75	0.4837
1557.77	0.4469
1566.79	0.3746
1575.82	0.3856
1584.84	0.4167
1593.86	0.4611
1602.88	0.4377
1611.91	0.3797
1620.93	0.3325
1629.95	0.2248
1638.97	0.0678
1648	0.0735
1657.02	0.0876
1666.04	0.1456
1675.06	0.2804
1684.09	0.3682
1693.11	0.4068
1702.13	0.4271
1711.15	0.4369
1720.18	0.4388
1729.2	0.4504
1738.22	0.4805
1747.24	0.5191
1756.27	0.5486
1765.29	0.5647
1774.31	0.5702
1783.33	0.5762
1792.36	0.5922
1801.38	0.5997
1810.4	0.6034
1819.42	0.6061
1828.45	0.61
1837.47	0.6165
1846.49	0.6226
1855.51	0.6268
1864.54	0.6291
1873.56	0.6307
1882.58	0.6316
1891.6	0.6314
1900.63	0.6316
1909.65	0.6323
1918.67	0.6337
1927.69	0.6354
1936.72	0.6368
1945.74	0.6374
1954.76	0.6373
1963.78	0.6368
1972.81	0.6355
1981.83	0.6332
1990.85	0.637
1999.87	0.6393
2008.9	0.6389
2017.92	0.6376
2026.94	0.6376
2035.96	0.6387
2044.99	0.6394
2054.01	0.6398
2063.03	0.64
2072.05	0.6395
2081.08	0.6393
2090.1	0.6392
2099.12	0.6391
2108.14	0.639
2117.17	0.6389
2126.19	0.6389
2135.21	0.6388
2144.23	0.6387
2153.26	0.6386
2162.28	0.6394
2171.3	0.6361
2180.32	0.6295
2189.35	0.6296
2198.37	0.6311
2207.39	0.6318
2216.41	0.6311
2225.44	0.6303
2234.46	0.6302
2243.48	0.6305
2252.5	0.6292
2261.53	0.627
2270.55	0.6273
2279.57	0.6288
2288.59	0.632
2297.62	0.6359
2306.64	0.6407
2315.66	0.6473
2324.68	0.6494
2333.71	0.6468
2342.73	0.6433
2351.75	0.6353
2360.77	0.6274
2369.8	0.6232
2378.82	0.6216
2387.84	0.6206
2396.86	0.6194
2405.89	0.6187
2414.91	0.618
2423.93	0.6182
2432.95	0.6177
2441.98	0.6174
2451	0.6152
2460.02	0.6102
2469.04	0.6041
2478.07	0.5996
2487.09	0.5978
2496.11	0.5911
2505.13	0.5855
2514.16	0.5849
2523.18	0.5825
2532.2	0.5791
2541.22	0.5753
2550.25	0.5736
2559.27	0.5641
2568.29	0.5609
2577.31	0.5597
2586.34	0.5529
2595.36	0.5438
2604.38	0.5338
2613.4	0.5228
2622.43	0.5099
2631.45	0.4986
2640.47	0.4831
2649.49	0.4811
2658.52	0.4795
2667.54	0.4737
2676.56	0.4655
2685.58	0.463
2694.61	0.4616
2703.63	0.459
2712.65	0.4492
2721.67	0.4358
2730.7	0.4201
2739.72	0.4045
2748.74	0.3939
2757.76	0.3808
2766.79	0.3683
2775.81	0.3559
2784.83	0.3435
2793.85	0.3273
2802.88	0.3108
2811.9	0.2981
2820.92	0.2671
2829.94	0.2402
2838.97	0.2251
2847.99	0.215
2857.01	0.2067
2866.03	0.1996
2875.06	0.1897
2884.08	0.1806
2893.1	0.1722
2902.12	0.1654
2911.15	0.1635
2920.17	0.1639
2929.19	0.1665
2938.21	0.1708
2947.24	0.1774
2956.26	0.1849
2965.28	0.1938
2974.3	0.2037
2983.33	0.2148
2992.35	0.227
3001.37	0.238
3010.39	0.2475
3019.42	0.2577
3028.44	0.2644
3037.46	0.2719
3046.48	0.2788
3055.51	0.2836
3064.53	0.2924
3073.55	0.2994
3082.57	0.3185
3091.6	0.3336
3100.62	0.3381
3109.64	0.3532
3118.66	0.3629
3127.69	0.3691
3136.71	0.3777
3145.73	0.388
3154.75	0.3977
3163.78	0.4053
3172.8	0.4132
3181.82	0.4199
3190.84	0.4257
3199.87	0.432
3208.89	0.4384
3217.91	0.4452
3226.93	0.4541
3235.96	0.458
3244.98	0.4585
3254	0.4713
3263.02	0.4738
3272.05	0.4724
3281.07	0.4702
3290.09	0.4712
3299.11	0.4814
3308.14	0.4823
3317.16	0.4816
3326.18	0.4802
3335.2	0.4795
3344.23	0.479
3353.25	0.4784
3362.27	0.4773
3371.29	0.4758
3380.32	0.4735
3389.34	0.471
3398.36	0.4693
3407.38	0.4702
3416.41	0.4737
3425.43	0.4783
3434.45	0.4832
3443.47	0.4878
3452.5	0.4919
3461.52	0.4962
3470.54	0.4991
3479.56	0.5038
3488.59	0.5112
3497.61	0.518
3506.63	0.5234
3515.65	0.5272
3524.68	0.5306
3533.7	0.5387
3542.72	0.5422
3551.74	0.5506
3560.77	0.559
3569.79	0.568
3578.81	0.5757
3587.83	0.5833
3596.86	0.5914
3605.88	0.5975
3614.9	0.6021
3623.92	0.606
3632.95	0.6107
3641.97	0.6147
3650.99	0.6186
3660.01	0.6188
3669.04	0.6185
3678.06	0.6187
3687.08	0.6191
3696.1	0.6204
3705.13	0.6313
3714.15	0.6345
3723.17	0.6346
3732.19	0.6336
3741.22	0.6328
3750.24	0.6315
3759.26	0.6302
3768.28	0.6354
3777.31	0.6362
3786.33	0.6358
3795.35	0.636
3804.37	0.6364
3813.4	0.6369
3822.42	0.6374
3831.44	0.6376
3840.46	0.6376
3849.49	0.6357
3858.51	0.6359
3867.53	0.6353
3876.55	0.6352
3885.58	0.635
3894.6	0.6351
3903.62	0.6354
3912.64	0.6357
3921.67	0.6363
3930.69	0.6369
3939.71	0.6375
3948.73	0.6382
3957.76	0.6388
3966.78	0.6389
3975.8	0.6392
3984.82	0.6395
3993.85	0.6398
4002.87	0.6367
4011.89	0.634
4020.91	0.6341
4029.94	0.6346
4038.96	0.6345
4047.98	0.6307
