Infrared Spectrum: Carbamic acid, [2-(thiocarbamoyl)ethyl]-,benzyl ester
Formula: C11 H14 N2 O2 S
CAS: 77152-98-8
State: SOLID (1 mg / 650 mg KBr DISC)
Class: COBLENTZ III
Instrument: PERKIN-ELMER 521 (GRATING)
Instrument parameters: FILTERS AT 3150, 2500, 2000, 1150, 700, 410. GRATING CHANGES: 2000, 630
Sampling: TRANSMISSION
Resolution: 2
Origin: SOUTHERN RESEARCH INSTITUTE
1/CM	TRANSMITTANCE
253	0.2384
263	0.3036
273	0.3876
283	0.4404
293	0.4511
303	0.5374
313	0.621
323	0.6741
333	0.7124
343	0.7278
353	0.7404
363	0.8035
373	0.8389
383	0.8496
393	0.8737
403	0.8236
413	0.7724
423	0.878
433	0.8876
443	0.8826
453	0.8481
463	0.8535
473	0.8663
483	0.795
493	0.6204
503	0.8643
513	0.8633
523	0.8448
533	0.8192
543	0.7919
553	0.7876
563	0.7649
573	0.664
583	0.7004
593	0.6473
603	0.6462
613	0.6351
623	0.5726
633	0.506
643	0.4872
653	0.4998
663	0.5862
673	0.672
683	0.7118
693	0.5695
703	0.4754
713	0.5153
723	0.5253
733	0.3628
743	0.3902
753	0.6249
763	0.6963
773	0.742
783	0.7745
793	0.9044
803	0.9132
813	0.9224
823	0.9193
833	0.8911
843	0.9066
853	0.9104
863	0.9234
873	0.9188
883	0.9115
893	0.9013
903	0.8318
913	0.8422
923	0.8808
933	0.8635
943	0.8184
953	0.6913
963	0.7047
973	0.5293
983	0.4029
993	0.2886
1003	0.6441
1013	0.8203
1023	0.8337
1033	0.8032
1043	0.774
1053	0.8105
1063	0.7239
1073	0.7014
1083	0.8482
1093	0.8478
1103	0.8326
1113	0.8014
1123	0.7603
1133	0.6844
1143	0.4474
1153	0.679
1163	0.7632
1173	0.7565
1183	0.7143
1193	0.6482
1203	0.5622
1213	0.5608
1223	0.5248
1233	0.4721
1243	0.3743
1253	0.2239
1263	0.1096
1273	0.2695
1283	0.0909
1293	0.1787
1303	0.3464
1313	0.513
1323	0.6077
1333	0.7068
1343	0.738
1353	0.7381
1363	0.732
1373	0.7296
1383	0.7039
1393	0.679
1403	0.5881
1413	0.4285
1423	0.4653
1433	0.3691
1443	0.2441
1453	0.2985
1463	0.4892
1473	0.7071
1483	0.7233
1493	0.6826
1503	0.6366
1513	0.5647
1523	0.3624
1533	0.1406
1543	0.1076
1553	0.3598
1563	0.5216
1573	0.692
1583	0.7789
1593	0.8117
1603	0.7429
1613	0.7173
1623	0.5869
1633	0.3374
1643	0.538
1653	0.5799
1663	0.5551
1673	0.3444
1683	0.08
1693	0.0414
1703	0.308
1713	0.4826
1723	0.7196
1733	0.7961
1743	0.8391
1753	0.8658
1763	0.886
1773	0.9077
1783	0.9211
1793	0.9294
1803	0.9335
1813	0.9321
1823	0.9313
1833	0.9463
1843	0.9532
1853	0.9587
1863	0.9574
1873	0.9502
1883	0.9384
1893	0.9456
1903	0.9503
1913	0.9498
1923	0.9482
1933	0.945
1943	0.938
1953	0.9225
1963	0.9264
1973	0.9339
1983	0.9338
1993	0.9279
2003	0.9308
2013	0.9314
2023	0.9313
2033	0.9306
2043	0.9295
2053	0.9276
2063	0.924
2073	0.9174
2083	0.9089
2093	0.911
2103	0.9165
2113	0.9194
2123	0.92
2133	0.9194
2143	0.9194
2153	0.9188
2163	0.9173
2173	0.9152
2183	0.9105
2193	0.908
2203	0.908
2213	0.9094
2223	0.9099
2233	0.9096
2243	0.9082
2253	0.906
2263	0.9032
2273	0.8996
2283	0.8967
2293	0.894
2303	0.8913
2313	0.8881
2323	0.8846
2333	0.8824
2343	0.8823
2353	0.8825
2363	0.8823
2373	0.8822
2383	0.8813
2393	0.88
2403	0.8795
2413	0.8786
2423	0.8789
2433	0.879
2443	0.88
2453	0.8836
2463	0.8728
2473	0.8773
2483	0.8689
2493	0.867
2503	0.8657
2513	0.8641
2523	0.8634
2533	0.8628
2543	0.8619
2553	0.8606
2563	0.8576
2573	0.854
2583	0.8485
2593	0.8419
2603	0.8259
2613	0.8035
2623	0.7898
2633	0.8048
2643	0.8293
2653	0.8357
2663	0.8355
2673	0.8335
2683	0.8305
2693	0.8257
2703	0.8216
2713	0.8207
2723	0.8182
2733	0.8081
2743	0.8085
2753	0.8102
2763	0.8056
2773	0.7959
2783	0.791
2793	0.7914
2803	0.7909
2813	0.7876
2823	0.7832
2833	0.7742
2843	0.7661
2853	0.7587
2863	0.7486
2873	0.7329
2883	0.7118
2893	0.6959
2903	0.6846
2913	0.6637
2923	0.6407
2933	0.6145
2943	0.5876
2953	0.657
2963	0.6801
2973	0.6647
2983	0.676
2993	0.6884
3003	0.6734
3013	0.669
3023	0.6368
3033	0.5866
3043	0.5915
3053	0.5647
3063	0.5822
3073	0.5879
3083	0.5771
3093	0.5576
3103	0.5304
3113	0.4989
3123	0.4538
3133	0.3908
3143	0.3254
3153	0.2894
3163	0.309
3173	0.3718
3183	0.4368
3193	0.4752
3203	0.49
3213	0.4908
3223	0.4791
3233	0.458
3243	0.4362
3253	0.4059
3263	0.3625
3273	0.2973
3283	0.2441
3293	0.2097
3303	0.1626
3313	0.1086
3323	0.0634
3333	0.0745
3343	0.1439
3353	0.2527
3363	0.3308
3373	0.4087
3383	0.5002
3393	0.5817
3403	0.6326
3413	0.68
3423	0.7145
3433	0.7404
3443	0.7576
3453	0.7695
3463	0.7748
3473	0.7773
3483	0.7796
3493	0.7825
3503	0.7869
3513	0.7903
3523	0.7934
3533	0.7958
3543	0.7982
3553	0.8007
3563	0.8029
3573	0.8064
3583	0.8118
3593	0.8165
3603	0.8198
3613	0.8225
3623	0.8285
3633	0.8289
3643	0.8292
3653	0.8293
3663	0.8293
3673	0.8296
3683	0.835
3693	0.8302
3703	0.8344
3713	0.8323
3723	0.83
3733	0.827
3743	0.8239
3753	0.8209
3763	0.8231
3773	0.8236
3783	0.822
3793	0.8195
3803	0.8169
3813	0.8149
3823	0.814
3833	0.8122
3843	0.8099
3853	0.8082
3863	0.8072
3873	0.8061
3883	0.8039
3893	0.8017
3903	0.7999
3913	0.7967
3923	0.7963
3933	0.7925
3943	0.7895
3953	0.7879
3963	0.7866
3973	0.7856
3983	0.7848
3993	0.7841
4003	0.7831
