Infrared Spectrum: 4-Bromo-2,6-dimethylphenyl isocyanate
Formula: C 9 H 8 Br N O
CAS: 77159-76-3
State: gas
Origin: EPA-IR VAPOR PHASE LIBRARY
1/CM	ABSORBANCE
549.8	0.00383
559.445	0.01021
569.09	0.00691
578.734	0.00531
588.379	0.00332
598.024	0.00118
607.669	0.00097
617.313	0.00183
626.958	0.00156
636.603	0.00208
646.248	0.00256
655.893	0.00324
665.537	0.00477
675.182	0.00621
684.827	0.0094259
694.472	0.00597
704.116	0.0092202
713.761	0.01563
723.406	0.00781
733.051	0.00535
742.695	0.0092577
752.34	0.00524
761.985	0.00394
771.63	0.0048
781.275	0.00563
790.919	0.00582
800.564	0.00436
810.209	0.00344
819.854	0.00612
829.498	0.00597
839.143	0.00709
848.788	0.0222
858.433	0.04937
868.078	0.03331
877.722	0.02184
887.367	0.03501
897.012	0.03794
906.657	0.03983
916.301	0.05601
925.946	0.10441
935.591	0.14341
945.236	0.08947
954.88	0.03829
964.525	0.01843
974.17	0.01217
983.815	0.01126
993.46	0.01294
1003.1	0.01092
1012.75	0.00801
1022.39	0.00722
1032.04	0.00724
1041.68	0.00706
1051.33	0.00625
1060.97	0.00605
1070.62	0.00653
1080.26	0.00728
1089.91	0.01049
1099.55	0.01416
1109.2	0.00709
1118.84	0.008286
1128.49	0.00656
1138.13	0.00387
1147.78	0.00409
1157.42	0.00438
1167.07	0.00417
1176.71	0.00491
1186.36	0.00593
1196	0.008319
1205.64	0.014
1215.29	0.04099
1224.93	0.06795
1234.58	0.02454
1244.22	0.01388
1253.87	0.01427
1263.51	0.02213
1273.16	0.02069
1282.8	0.00751
1292.45	0.00518
1302.09	0.00493
1311.74	0.00496
1321.38	0.00477
1331.03	0.00474
1340.67	0.00493
1350.32	0.00535
1359.96	0.00646
1369.61	0.0091625
1379.25	0.0098933
1388.9	0.01179
1398.54	0.01511
1408.18	0.02527
1417.83	0.02883
1427.47	0.03134
1437.12	0.0419
1446.76	0.05275
1456.41	0.06921
1466.05	0.09593
1475.7	0.06554
1485.34	0.02719
1494.99	0.01691
1504.63	0.0138
1514.28	0.01307
1523.92	0.0136
1533.57	0.01576
1543.21	0.01801
1552.86	0.01879
1562.5	0.02083
1572.15	0.02517
1581.79	0.02304
1591.44	0.01531
1601.08	0.01063
1610.73	0.008597
1620.37	0.00714
1630.01	0.00594
1639.66	0.00506
1649.3	0.00474
1658.95	0.00437
1668.59	0.00407
1678.24	0.00381
1687.88	0.00415
1697.53	0.00424
1707.17	0.00628
1716.82	0.0096997
1726.46	0.01005
1736.11	0.00756
1745.75	0.0055
1755.4	0.00605
1765.04	0.00613
1774.69	0.00549
1784.33	0.00541
1793.98	0.00578
1803.62	0.00649
1813.27	0.00731
1822.91	0.008637
1832.55	0.009838
1842.2	0.01072
1851.84	0.01096
1861.49	0.01108
1871.13	0.01069
1880.78	0.01062
1890.42	0.0108
1900.07	0.01069
1909.71	0.01077
1919.36	0.01142
1929	0.01318
1938.65	0.01628
1948.29	0.02098
1957.94	0.02766
1967.58	0.03772
1977.23	0.05217
1986.87	0.07238
1996.52	0.09945
2006.16	0.13662
2015.81	0.18849
2025.45	0.26613
2035.1	0.37318
2044.74	0.49087
2054.38	0.62675
2064.03	0.78591
2073.67	0.88602
2083.32	0.83715
2092.96	0.62213
2102.61	0.40218
2112.25	0.29497
2121.9	0.28835
2131.54	0.31415
2141.19	0.27544
2150.83	0.20019
2160.48	0.16495
2170.12	0.11727
2179.77	0.06976
2189.41	0.05106
2199.06	0.04267
2208.7	0.03646
2218.35	0.02658
2227.99	0.01836
2237.64	0.01265
2247.28	0.0095266
2256.92	0.00797
2266.57	0.00725
2276.21	0.00732
2285.86	0.0079
2295.5	0.008385
2305.15	0.0092744
2314.79	0.0099978
2324.44	0.01046
2334.08	0.0099356
2343.73	0.0094028
2353.37	0.008829
2363.02	0.00795
2372.66	0.00712
2382.31	0.00691
2391.95	0.00657
2401.6	0.00583
2411.24	0.00597
2420.89	0.00642
2430.53	0.00782
2440.18	0.0096932
2449.82	0.0097661
2459.47	0.00679
2469.11	0.00533
2478.75	0.0054
2488.4	0.0063
2498.04	0.00626
2507.69	0.0058
2517.33	0.00584
2526.98	0.00661
2536.62	0.00738
2546.27	0.00779
2555.91	0.008768
2565.56	0.01005
2575.2	0.0099283
2584.85	0.008173
2594.49	0.00604
2604.14	0.00577
2613.78	0.00571
2623.43	0.006
2633.07	0.00686
2642.72	0.00734
2652.36	0.008339
2662.01	0.00911517
2671.65	0.01015
2681.29	0.0119
2690.94	0.01246
2700.58	0.01048
2710.23	0.00725
2719.87	0.00542
2729.52	0.00437
2739.16	0.00486
2748.81	0.00506
2758.45	0.00473
2768.1	0.00386
2777.74	0.00376
2787.39	0.00353
2797.03	0.00396
2806.68	0.0039
2816.32	0.00446
2825.97	0.00485
2835.61	0.00552
2845.26	0.00658
2854.9	0.008682
2864.55	0.0122
2874.19	0.01341
2883.84	0.01204
2893.48	0.01168
2903.12	0.01299
2912.77	0.01507
2922.41	0.02136
2932.06	0.03101
2941.7	0.03049
2951.35	0.02253
2960.99	0.02211
2970.64	0.02127
2980.28	0.02109
2989.93	0.02763
2999.57	0.02294
3009.22	0.0154
3018.86	0.01189
3028.51	0.01078
3038.15	0.0104
3047.8	0.01048
3057.44	0.01199
3067.09	0.01245
3076.73	0.00908389
3086.38	0.00571
3096.02	0.0051
3105.67	0.00481
3115.31	0.00428
3124.95	0.00337
3134.6	0.00305
3144.24	0.00283
3153.89	0.00203
3163.53	0.00206
3173.18	0.0018
3182.82	0.00239
3192.47	0.00209
3202.11	0.00208
3211.76	0.00178
3221.4	0.00196
3231.05	0.00162
3240.69	0.00178
3250.34	0.00209
3259.98	0.00174
3269.63	0.00175
3279.27	0.00146
3288.92	0.00187
3298.56	0.00127
3308.21	0.00156
3317.85	0.00145
3327.49	0.00169
3337.14	0.00125
3346.78	0.00145
3356.43	0.00138
3366.07	0.00163
3375.72	0.00189
3385.36	0.00183
3395.01	0.00163
3404.65	0.00131
3414.3	0.00182
3423.94	0.00203
3433.59	0.00193
3443.23	0.00179
3452.88	0.00204
3462.52	0.00165
3472.17	0.00204
3481.81	0.0017
3491.46	0.00197
3501.1	0.00178
3510.75	0.00177
3520.39	0.00219
3530.04	0.00185
3539.68	0.00177
3549.32	0.0013
3558.97	0.00143
3568.61	0.00108
3578.26	0.00139
3587.9	0.0019
3597.55	0.00151
3607.19	0.00215
3616.84	0.00132
3626.48	0.00188
3636.13	0.00183
3645.77	0.00176
3655.42	0.00138
3665.06	0.00114
3674.71	0.00171
3684.35	0.00167
3694	0.0022
3703.64	0.00159
3713.29	0.00118
3722.93	0.00123
3732.58	0.00172
3742.22	0.00125
3751.86	0.00132
3761.51	0.00144
3771.15	0.0019
3780.8	0.00145
3790.44	0.00102
3800.09	0.00164
3809.73	0.00181
3819.38	0.00157
3829.02	0.00203
3838.67	0.00221
3848.31	0.00103
3857.96	0.00226
3867.6	0.00173
3877.25	0.00227
3886.89	0.00246
3896.54	0.00201
3906.18	0.00205
3915.83	0.00279
3925.47	0.00227
3935.12	0.00263
3944.76	0.00261
3954.41	0.0029
3964.05	0.00329
3973.69	0.00285
3983.34	0.00333
3992.98	0.00335
