Infrared Spectrum: Thionyl chloride
Formula: Cl 2 O S
CAS: 7719-09-7
State: gas
Origin: EPA-IR VAPOR PHASE LIBRARY
1/CM	ABSORBANCE
549.8	0.004229
559.445	0.002919
569.09	0.002429
578.734	0.001579
588.379	0.001479
598.024	0.001869
607.669	0.002669
617.313	0.003689
626.958	0.004059
636.603	0.003889
646.248	0.003139
655.893	0.002349
665.537	0.002499
675.182	0.002999
684.827	0.002609
694.472	0.002489
704.116	0.002669
713.761	0.003639
723.406	0.004529
733.051	0.005119
742.695	0.005029
752.34	0.004949
761.985	0.006389
771.63	0.007889
781.275	0.008969
790.919	0.009219
800.564	0.006779
810.209	0.004809
819.854	0.004099
829.498	0.004609
839.143	0.004059
848.788	0.003089
858.433	0.002219
868.078	0.001849
877.722	0.002439
887.367	0.002669
897.012	0.003189
906.657	0.004139
916.301	0.005689
925.946	0.008499
935.591	0.010959
945.236	0.011839
954.88	0.009519
964.525	0.005099
974.17	0.002689
983.815	0.001929
993.46	0.001569
1003.1	0.001399
1012.75	0.001349
1022.39	0.001249
1032.04	0.001429
1041.68	0.001509
1051.33	0.001639
1060.97	0.001529
1070.62	0.001499
1080.26	0.0011736
1089.91	0.001369
1099.55	0.001164
1109.2	0.0011023
1118.84	0.001689
1128.49	0.002129
1138.13	0.003729
1147.78	0.005609
1157.42	0.005859
1167.07	0.006369
1176.71	0.008539
1186.36	0.007799
1196	0.012319
1205.64	0.030429
1215.29	0.092919
1224.93	0.259339
1234.58	0.535939
1244.22	0.710699
1253.87	0.711349
1263.51	0.441229
1273.16	0.136449
1282.8	0.022379
1292.45	0.002399
1302.09	0.0008179
1311.74	0.0011274
1321.38	0.002129
1331.03	0.003229
1340.67	0.004049
1350.32	0.003749
1359.96	0.004139
1369.61	0.004039
1379.25	0.004699
1388.9	0.002949
1398.54	0.001469
1408.18	0.0009605
1417.83	0.0008183
1427.47	0.0007233
1437.12	0.0004411
1446.76	0.0003675
1456.41	0.00024365
1466.05	0.000158
1475.7	4e-05
1485.34	1e-05
1494.99	5e-05
1504.63	0.00026112
1514.28	0.0006097
1523.92	0.0007705
1533.57	0.0006437
1543.21	0.0003439
1552.86	0.0001327
1562.5	0.0003597
1572.15	0.0004196
1581.79	0.0007731
1591.44	0.0007759
1601.08	0.0007212
1610.73	0.0006737
1620.37	0.0006447
1630.01	0.0007582
1639.66	0.0007939
1649.3	0.0008731
1658.95	0.001038
1668.59	0.0010698
1678.24	0.0011542
1687.88	0.0011956
1697.53	0.001299
1707.17	0.001399
1716.82	0.001339
1726.46	0.001229
1736.11	0.001259
1745.75	0.0011744
1755.4	0.001093
1765.04	0.0009692
1774.69	0.000988
1784.33	0.0010034
1793.98	0.0010561
1803.62	0.0009108
1813.27	0.0008846
1822.91	0.0008956
1832.55	0.0008929
1842.2	0.0009181
1851.84	0.000878
1861.49	0.0009418
1871.13	0.0008687
1880.78	0.000851
1890.42	0.0009226
1900.07	0.0008955
1909.71	0.0009077
1919.36	0.0009069
1929	0.0008921
1938.65	0.0008561
1948.29	0.0008846
1957.94	0.0009461
1967.58	0.0009731
1977.23	0.0009126
1986.87	0.0009583
1996.52	0.0010047
2006.16	0.0009643
2015.81	0.0010084
2025.45	0.0010679
2035.1	0.0010056
2044.74	0.0009948
2054.38	0.0009932
2064.03	0.0010594
2073.67	0.0011119
2083.32	0.0011033
2092.96	0.0010991
2102.61	0.0010097
2112.25	0.0010911
2121.9	0.0011004
2131.54	0.0010514
2141.19	0.0011424
2150.83	0.0011682
2160.48	0.0011275
2170.12	0.0010493
2179.77	0.0011571
2189.41	0.0010583
2199.06	0.0010916
2208.7	0.0011375
2218.35	0.0010972
2227.99	0.0010748
2237.64	0.001249
2247.28	0.00112
2256.92	0.0011939
2266.57	0.0012001
2276.21	0.001289
2285.86	0.001419
2295.5	0.001419
2305.15	0.001459
2314.79	0.001569
2324.44	0.001629
2334.08	0.001539
2343.73	0.001479
2353.37	0.001539
2363.02	0.001659
2372.66	0.001629
2382.31	0.001489
2391.95	0.001399
2401.6	0.001519
2411.24	0.001569
2420.89	0.001689
2430.53	0.002149
2440.18	0.002979
2449.82	0.004019
2459.47	0.006079
2469.11	0.008999
2478.75	0.010229
2488.4	0.009959
2498.04	0.007199
2507.69	0.003359
2517.33	0.001789
2526.98	0.001499
2536.62	0.001429
2546.27	0.001529
2555.91	0.001499
2565.56	0.001419
2575.2	0.001489
2584.85	0.001569
2594.49	0.001539
2604.14	0.001549
2613.78	0.001559
2623.43	0.001689
2633.07	0.001529
2642.72	0.001609
2652.36	0.002009
2662.01	0.001559
2671.65	0.001449
2681.29	0.001629
2690.94	0.001619
2700.58	0.002069
2710.23	0.001589
2719.87	0.001669
2729.52	0.002099
2739.16	0.001809
2748.81	0.002069
2758.45	0.001759
2768.1	0.001759
2777.74	0.002279
2787.39	0.001799
2797.03	0.002819
2806.68	0.001779
2816.32	0.001949
2825.97	0.001709
2835.61	0.001759
2845.26	0.002539
2854.9	0.001829
2864.55	0.002599
2874.19	0.001829
2883.84	0.001959
2893.48	0.001909
2903.12	0.002139
2912.77	0.001929
2922.41	0.002239
2932.06	0.002109
2941.7	0.002509
2951.35	0.002169
2960.99	0.003189
2970.64	0.002129
2980.28	0.003609
2989.93	0.002139
2999.57	0.002619
3009.22	0.002279
3018.86	0.002109
3028.51	0.002839
3038.15	0.002259
3047.8	0.002239
3057.44	0.002369
3067.09	0.002159
3076.73	0.002029
3086.38	0.002229
3096.02	0.002239
3105.67	0.002169
3115.31	0.002049
3124.95	0.002119
3134.6	0.002059
3144.24	0.002069
3153.89	0.001949
3163.53	0.002019
3173.18	0.002039
3182.82	0.002089
3192.47	0.002009
3202.11	0.001929
3211.76	0.001989
3221.4	0.001969
3231.05	0.002119
3240.69	0.001969
3250.34	0.002049
3259.98	0.002049
3269.63	0.001979
3279.27	0.002039
3288.92	0.002209
3298.56	0.002129
3308.21	0.002089
3317.85	0.002089
3327.49	0.002149
3337.14	0.002059
3346.78	0.002009
3356.43	0.002159
3366.07	0.002129
3375.72	0.002199
3385.36	0.002109
3395.01	0.002099
3404.65	0.002169
3414.3	0.002279
3423.94	0.002209
3433.59	0.002259
3443.23	0.002059
3452.88	0.002079
3462.52	0.002099
3472.17	0.002109
3481.81	0.002029
3491.46	0.002019
3501.1	0.002289
3510.75	0.002109
3520.39	0.002249
3530.04	0.002109
3539.68	0.002189
3549.32	0.002169
3558.97	0.002189
3568.61	0.002229
3578.26	0.002309
3587.9	0.002079
3597.55	0.002209
3607.19	0.002289
3616.84	0.002079
3626.48	0.002289
3636.13	0.002249
3645.77	0.002199
3655.42	0.002349
3665.06	0.002079
3674.71	0.002339
3684.35	0.002509
3694	0.002469
3703.64	0.002249
3713.29	0.002459
3722.93	0.002269
3732.58	0.002359
3742.22	0.002349
3751.86	0.002529
3761.51	0.002419
3771.15	0.002299
3780.8	0.002549
3790.44	0.002309
3800.09	0.002519
3809.73	0.002409
3819.38	0.002499
3829.02	0.002559
3838.67	0.002359
3848.31	0.002419
3857.96	0.002329
3867.6	0.002299
3877.25	0.002409
3886.89	0.002259
3896.54	0.002409
3906.18	0.002409
3915.83	0.002409
3925.47	0.002219
3935.12	0.002109
3944.76	0.002369
3954.41	0.002699
3964.05	0.002649
3973.69	0.002679
3983.34	0.002589
3992.98	0.002559
