Infrared Spectrum: (2-TETRAHYDROPYRANYLMERCAPTO)-ACETHYDROXAMIC ACID
Formula: C7 H13 N O3 S
CAS: 772-68-9
State: SOLID (MINERAL OIL MULL)
Melting point: 100-101 C
Class: COBLENTZ
Instrument: Not specified, most likely a prism, grating, or hybrid spectrometer.
Sampling: TRANSMISSION
Resolution: 4
Origin: ARTHUR D. LITTLE, INC.
1/CM	TRANSMITTANCE
698.196	0.525
705.741	0.516
713.286	0.507
720.831	0.521
728.376	0.561
735.922	0.596
743.467	0.613
751.012	0.63
758.557	0.632
766.102	0.632
773.647	0.632
781.192	0.632
788.737	0.63
796.282	0.624
803.828	0.602
811.373	0.634
818.918	0.632
826.463	0.634
834.008	0.629
841.553	0.622
849.098	0.605
856.643	0.547
864.188	0.607
871.734	0.578
879.279	0.55
886.824	0.618
894.369	0.614
901.914	0.604
909.459	0.602
917.004	0.599
924.549	0.589
932.094	0.578
939.64	0.556
947.185	0.502
954.73	0.444
962.275	0.554
969.82	0.527
977.365	0.463
984.91	0.389
992.455	0.453
1000	0.506
1007.55	0.374
1015.09	0.424
1022.64	0.515
1030.18	0.472
1037.73	0.438
1045.27	0.386
1052.82	0.579
1060.36	0.599
1067.91	0.59
1075.45	0.569
1083	0.55
1090.54	0.581
1098.09	0.576
1105.63	0.568
1113.18	0.559
1120.72	0.546
1128.27	0.517
1135.81	0.477
1143.36	0.45
1150.9	0.556
1158.45	0.534
1165.99	0.487
1173.54	0.54
1181.08	0.531
1188.63	0.52
1196.17	0.498
1203.72	0.481
1211.26	0.501
1218.81	0.503
1226.35	0.503
1233.9	0.502
1241.44	0.496
1248.99	0.481
1256.53	0.474
1264.08	0.472
1271.62	0.462
1279.17	0.433
1286.71	0.408
1294.26	0.409
1301.8	0.442
1309.35	0.444
1316.9	0.431
1324.44	0.413
1331.99	0.401
1339.53	0.416
1347.08	0.421
1354.62	0.399
1362.17	0.39
1369.71	0.4
1377.26	0.397
1384.8	0.376
1392.35	0.361
1399.89	0.363
1407.44	0.372
1414.98	0.389
1422.53	0.463
1430.07	0.487
1437.62	0.478
1445.16	0.472
1452.71	0.476
1460.25	0.488
1467.8	0.534
1475.34	0.607
1482.89	0.619
1490.43	0.622
1497.98	0.62
1505.52	0.614
1513.07	0.612
1520.61	0.6
1528.16	0.596
1535.7	0.574
1543.25	0.555
1550.79	0.55
1558.34	0.547
1565.88	0.55
1573.43	0.555
1580.97	0.551
1588.52	0.525
1596.06	0.502
1603.61	0.463
1611.15	0.399
1618.7	0.346
1626.24	0.347
1633.79	0.366
1641.33	0.367
1648.88	0.53
1656.43	0.682
1663.97	0.748
1671.52	0.793
1679.06	0.814
1686.61	0.843
1694.15	0.871
1701.7	0.899
1709.24	0.916
1716.79	0.929
1724.33	0.939
1731.88	0.943
1739.42	0.948
1746.97	0.953
1754.51	0.955
1762.06	0.957
1769.6	0.957
1777.15	0.957
1784.69	0.955
1792.24	0.954
1799.78	0.952
1807.33	0.95
1814.87	0.948
1822.42	0.945
1829.96	0.943
1837.51	0.943
1845.05	0.942
1852.6	0.94
1860.14	0.939
1867.69	0.94
1875.23	0.939
1882.78	0.938
1890.32	0.937
1897.87	0.934
1905.41	0.934
1912.96	0.933
1920.5	0.933
1928.05	0.931
1935.59	0.93
1943.14	0.928
1950.68	0.926
1958.23	0.925
1965.77	0.924
1973.32	0.923
1980.86	0.923
1988.41	0.923
1995.96	0.923
2003.5	0.92
2011.05	0.918
2018.59	0.915
2026.14	0.913
2033.68	0.911
2041.23	0.911
2048.77	0.91
2056.32	0.909
2063.86	0.908
2071.41	0.908
2078.95	0.905
2086.5	0.905
2094.04	0.901
2101.59	0.897
2109.13	0.895
2116.68	0.894
2124.22	0.892
2131.77	0.891
2139.31	0.891
2146.86	0.891
2154.4	0.89
2161.95	0.886
2169.49	0.884
2177.04	0.882
2184.58	0.881
2192.13	0.88
2199.67	0.88
2207.22	0.879
2214.76	0.875
2222.31	0.872
2229.85	0.871
2237.4	0.869
2244.94	0.865
2252.49	0.862
2260.03	0.86
2267.58	0.857
2275.12	0.853
2282.67	0.853
2290.21	0.852
2297.76	0.85
2305.3	0.848
2312.85	0.847
2320.39	0.846
2327.94	0.846
2335.49	0.845
2343.03	0.846
2350.58	0.846
2358.12	0.847
2365.67	0.848
2373.21	0.848
2380.76	0.85
2388.3	0.851
2395.85	0.851
2403.39	0.851
2410.94	0.85
2418.48	0.85
2426.03	0.847
2433.57	0.846
2441.12	0.842
2448.66	0.84
2456.21	0.837
2463.75	0.835
2471.3	0.835
2478.84	0.832
2486.39	0.829
2493.93	0.828
2501.48	0.826
2509.02	0.823
2516.57	0.823
2524.11	0.821
2531.66	0.816
2539.2	0.812
2546.75	0.807
2554.29	0.804
2561.84	0.803
2569.38	0.801
2576.93	0.799
2584.47	0.795
2592.02	0.789
2599.56	0.78
2607.11	0.768
2614.65	0.761
2622.2	0.758
2629.74	0.753
2637.29	0.748
2644.83	0.744
2652.38	0.736
2659.92	0.732
2667.47	0.727
2675.02	0.725
2682.56	0.719
2690.11	0.71
2697.65	0.7
2705.2	0.692
2712.74	0.677
2720.29	0.663
2727.83	0.654
2735.38	0.644
2742.92	0.63
2750.47	0.614
2758.01	0.602
2765.56	0.595
2773.1	0.58
2780.65	0.555
2788.19	0.541
2795.74	0.513
2803.28	0.502
2810.83	0.487
2818.37	0.465
2825.92	0.445
2833.46	0.425
2841.01	0.389
2848.55	0.338
2856.1	0.303
2863.64	0.289
2871.19	0.288
2878.73	0.292
2886.28	0.293
2893.82	0.294
2901.37	0.284
2908.91	0.249
2916.46	0.227
2924	0.222
2931.55	0.225
2939.09	0.235
2946.64	0.255
2954.18	0.293
2961.73	0.317
2969.27	0.358
2976.82	0.415
2984.36	0.464
2991.91	0.512
2999.45	0.525
3007	0.526
3014.55	0.526
3022.09	0.526
3029.64	0.526
3037.18	0.525
3044.73	0.525
3052.27	0.525
3059.82	0.526
3067.36	0.528
3074.91	0.532
3082.45	0.536
3090	0.537
3097.54	0.537
3105.09	0.537
3112.63	0.534
3120.18	0.528
3127.72	0.526
3135.27	0.525
3142.81	0.523
3150.36	0.523
3157.9	0.523
3165.45	0.523
3172.99	0.527
3180.54	0.53
3188.08	0.535
3195.63	0.55
3203.17	0.564
3210.72	0.575
3218.26	0.608
3225.81	0.636
3233.35	0.671
3240.9	0.707
3248.44	0.734
3255.99	0.76
3263.53	0.775
3271.08	0.789
3278.62	0.803
3286.17	0.818
3293.71	0.823
3301.26	0.826
3308.8	0.828
3316.35	0.828
3323.89	0.831
3331.44	0.835
3338.98	0.835
3346.53	0.835
