Infrared Spectrum: Alpha-Bromo-4-nitro-o-cresol
Formula: C7 H6 Br N O3
CAS: 772-33-8
State: SOLID (SPLIT MULL), FLUOROLUBE FOR 3800-1330 CM^-^1, NUJOL FOR 1330-400 CM^-^1
Class: COBLENTZ III
Instrument: DOW KBr FOREPRISM-GRATING
Instrument parameters: BLAZED AT 3.5, 12.0, 20.0 MICRON AND CHANGED AT 5.0, 7.5, 14.9 MICRON
Sampling: TRANSMISSION
Resolution: 2
Origin: DOW CHEMICAL COMPANY
1/CM	TRANSMITTANCE
3796	0.7444
3787	0.7447
3778	0.7451
3769	0.7455
3760	0.7461
3751	0.748
3742	0.7491
3733	0.7499
3724	0.7507
3715	0.7515
3706	0.7522
3697	0.7536
3688	0.7555
3679	0.7572
3670	0.7593
3661	0.7614
3652	0.7634
3643	0.7651
3634	0.7668
3625	0.7684
3616	0.7699
3607	0.7711
3598	0.7721
3589	0.7703
3580	0.7619
3571	0.7742
3562	0.7754
3553	0.7757
3544	0.7754
3535	0.7714
3526	0.7603
3517	0.7439
3508	0.7214
3499	0.6853
3490	0.6449
3481	0.5935
3472	0.5434
3463	0.4769
3454	0.4119
3445	0.3262
3436	0.27
3427	0.2238
3418	0.2184
3409	0.2627
3400	0.3259
3391	0.3692
3382	0.4062
3373	0.4468
3364	0.4796
3355	0.5089
3346	0.5324
3337	0.556
3328	0.5793
3319	0.6003
3310	0.6217
3301	0.6387
3292	0.6536
3283	0.6678
3274	0.6805
3265	0.6906
3256	0.6996
3247	0.7081
3238	0.7151
3229	0.7218
3220	0.7281
3211	0.7341
3202	0.739
3193	0.7438
3184	0.7482
3175	0.7522
3166	0.7539
3157	0.7551
3148	0.7562
3139	0.7569
3130	0.7575
3121	0.7578
3112	0.7582
3103	0.7572
3094	0.7539
3085	0.7178
3076	0.6255
3067	0.6494
3058	0.6928
3049	0.7181
3040	0.728
3031	0.7343
3022	0.7396
3013	0.7575
3004	0.7646
2995	0.7684
2986	0.7678
2977	0.7558
2968	0.7615
2959	0.7675
2950	0.7681
2941	0.7661
2932	0.765
2923	0.7639
2914	0.7637
2905	0.7671
2896	0.7715
2887	0.773
2878	0.7728
2869	0.7724
2860	0.7719
2851	0.7714
2842	0.7728
2833	0.7747
2824	0.7778
2815	0.7819
2806	0.7847
2797	0.7848
2788	0.7843
2779	0.7851
2770	0.7868
2761	0.789
2752	0.7908
2743	0.7921
2734	0.7928
2725	0.7936
2716	0.7943
2707	0.7943
2698	0.7922
2689	0.7912
2680	0.7917
2671	0.7931
2662	0.7947
2653	0.7951
2644	0.796
2635	0.7976
2626	0.8001
2617	0.8021
2608	0.8033
2599	0.8034
2590	0.8036
2581	0.8037
2572	0.8038
2563	0.804
2554	0.8038
2545	0.8036
2536	0.8034
2527	0.8033
2518	0.8032
2509	0.803
2500	0.8028
2491	0.8028
2482	0.8025
2473	0.8025
2464	0.8022
2455	0.8021
2446	0.8019
2437	0.8018
2428	0.8017
2419	0.8015
2410	0.8021
2401	0.8037
2392	0.8064
2383	0.8091
2374	0.8101
2365	0.8099
2356	0.8097
2347	0.8086
2338	0.8074
2329	0.8061
2320	0.8042
2311	0.8011
2302	0.7988
2293	0.7996
2284	0.8011
2275	0.8028
2266	0.8045
2257	0.8057
2248	0.8068
2239	0.808
2230	0.8091
2221	0.8104
2212	0.8118
2203	0.8132
2194	0.8146
2185	0.8158
2176	0.8174
2167	0.8187
2158	0.8202
2149	0.8215
2140	0.8228
2131	0.8239
2122	0.8251
2113	0.8261
2104	0.8268
2095	0.8275
2086	0.8282
2077	0.8289
2068	0.8298
2059	0.8303
2050	0.8305
2041	0.8306
2032	0.8309
2023	0.8311
2014	0.831
2005	0.8307
1996	0.8262
1987	0.8264
1978	0.827
1969	0.8291
1960	0.8351
1951	0.8331
1942	0.8331
1933	0.833
1924	0.8325
1915	0.8323
1906	0.8314
1897	0.8308
1888	0.8313
1879	0.8318
1870	0.8321
1861	0.8324
1852	0.8324
1843	0.8275
1834	0.8006
1825	0.8014
1816	0.8178
1807	0.8217
1798	0.8232
1789	0.8235
1780	0.8238
1771	0.8241
1762	0.8245
1753	0.825
1744	0.8256
1735	0.8249
1726	0.8239
1717	0.8227
1708	0.8221
1699	0.8234
1690	0.8262
1681	0.8302
1672	0.8317
1663	0.8318
1654	0.8324
1645	0.8356
1636	0.8185
1627	0.7833
1618	0.595
1609	0.7472
1600	0.2581
1591	0.625
1582	0.7511
1573	0.7648
1564	0.7758
1555	0.7778
1546	0.7543
1537	0.6539
1528	0.3478
1519	0.1594
1510	0.4117
1501	0.6725
1492	0.7228
1483	0.5257
1474	0.6783
1465	0.7021
1456	0.5185
1447	0.6157
1438	0.5456
1429	0.6875
1420	0.7608
1411	0.775
1402	0.7778
1393	0.7718
1384	0.7522
1375	0.72
1366	0.5674
1357	0.2963
1348	0.0924
1339	0.1058
1330	0.1332
1321	0.2691
1312	0.3938
1303	0.4753
1294	0.5341
1285	0.5516
1276	0.5364
1267	0.4021
1258	0.1777
1249	0.3312
1240	0.612
1231	0.6608
1222	0.4178
1213	0.2408
1204	0.5907
1195	0.2929
1186	0.1345
1177	0.3032
1168	0.4897
1159	0.5779
1150	0.6205
1141	0.6603
1132	0.3521
1123	0.403
1114	0.6069
1105	0.6259
1096	0.3572
1087	0.5232
1078	0.6287
1069	0.6724
1060	0.6953
1051	0.711
1042	0.7214
1033	0.7288
1024	0.7347
1015	0.7374
1006	0.7408
997	0.7475
988	0.7431
979	0.3862
970	0.6661
961	0.6561
952	0.7091
943	0.7397
934	0.7494
925	0.4029
916	0.6851
907	0.7668
898	0.7819
889	0.4074
880	0.7375
871	0.78
862	0.7928
853	0.8021
844	0.8106
835	0.8157
826	0.8237
817	0.597
808	0.798
799	0.8284
790	0.8216
781	0.6765
772	0.8221
763	0.8342
754	0.7371
745	0.7825
736	0.7739
727	0.7838
718	0.8171
709	0.8601
700	0.8725
691	0.8765
682	0.876
673	0.8703
664	0.8306
655	0.8283
646	0.8571
637	0.8504
628	0.8309
619	0.769
610	0.6284
601	0.6961
592	0.6033
583	0.5674
574	0.4885
565	0.7044
556	0.7171
547	0.6776
538	0.6419
529	0.7186
520	0.7128
511	0.7101
502	0.7208
493	0.7393
484	0.7571
475	0.7645
466	0.7592
457	0.6711
448	0.6438
439	0.7201
430	0.7341
421	0.7371
412	0.7371
403	0.7321
394	0.7296
