Infrared Spectrum: UREA, 1-(p-FLUOROPHENYL)-3-METHYL-
Formula: C8 H9 F N2 O
CAS: 772-55-4
State: SOLID (1 mg / 650 mg KBr DISC)
Class: COBLENTZ III
Instrument: PERKIN-ELMER 221 (GRATING)
Instrument parameters: FILTER AT 980 CM^-^1. GRATING 4000-1428 CM^-^1, NaCl PRISM 1428-650 CM^-^1
Sampling: TRANSMISSION
Resolution: 2
Origin: SOUTHERN RESEARCH INSTITUTE
1/CM	TRANSMITTANCE
645.283	0.338
654.013	0.3545
662.742	0.4003
671.472	0.4732
680.201	0.5335
688.931	0.5834
697.66	0.611
706.39	0.6593
715.119	0.674
723.849	0.6681
732.578	0.6033
741.308	0.6127
750.037	0.6717
758.767	0.6855
767.497	0.6746
776.226	0.4463
784.956	0.6311
793.685	0.7211
802.415	0.5659
811.144	0.364
819.874	0.6325
828.603	0.4252
837.333	0.1907
846.062	0.457
854.792	0.6284
863.521	0.5621
872.251	0.7319
880.981	0.7507
889.71	0.752
898.44	0.752
907.169	0.752
915.899	0.7425
924.628	0.728
933.358	0.727
942.087	0.721
950.817	0.6755
959.546	0.6668
968.276	0.6743
977.005	0.675
985.735	0.6627
994.465	0.6512
1003.19	0.6182
1011.92	0.622
1020.65	0.612
1029.38	0.605
1038.11	0.603
1046.84	0.5968
1055.57	0.5918
1064.3	0.5839
1073.03	0.5716
1081.76	0.5361
1090.49	0.4073
1099.22	0.5371
1107.95	0.5816
1116.68	0.5585
1125.41	0.5356
1134.14	0.5097
1142.87	0.3909
1151.6	0.4757
1160.33	0.4565
1169.06	0.5086
1177.78	0.4893
1186.51	0.4381
1195.24	0.3519
1203.97	0.2112
1212.7	0.1471
1221.43	0.2102
1230.16	0.3607
1238.89	0.5219
1247.62	0.4893
1256.35	0.5678
1265.08	0.4942
1273.81	0.4259
1282.54	0.4399
1291.27	0.4174
1300	0.3
1308.73	0.3732
1317.46	0.5262
1326.19	0.5745
1334.92	0.622
1343.65	0.624
1352.38	0.628
1361.11	0.6187
1369.83	0.5869
1378.56	0.5276
1387.29	0.4373
1396.02	0.3785
1404.75	0.3413
1413.48	0.617
1422.21	0.6127
1430.94	0.5653
1439.67	0.4559
1448.4	0.4624
1457.13	0.4596
1465.86	0.4121
1474.59	0.3754
1483.32	0.337
1492.05	0.2544
1500.78	0.1332
1509.51	0.0639
1518.24	0.3119
1526.97	0.391
1535.7	0.3294
1544.43	0.2794
1553.15	0.2774
1561.88	0.2205
1570.61	0.1738
1579.34	0.103
1588.07	0.1115
1596.8	0.1433
1605.53	0.1621
1614.26	0.1051
1622.99	0.14
1631.72	0.1016
1640.45	0.0849
1649.18	0.0703
1657.91	0.1383
1666.64	0.2468
1675.37	0.307
1684.1	0.4026
1692.83	0.354
1701.56	0.3458
1710.29	0.5224
1719.02	0.5905
1727.75	0.6525
1736.48	0.7079
1745.2	0.7528
1753.93	0.7748
1762.66	0.8046
1771.39	0.8178
1780.12	0.85
1788.85	0.8571
1797.58	0.858
1806.31	0.8721
1815.04	0.898
1823.77	0.9039
1832.5	0.91
1841.23	0.912
1849.96	0.9029
1858.69	0.8523
1867.42	0.8927
1876.15	0.8995
1884.88	0.8641
1893.61	0.8926
1902.34	0.908
1911.07	0.9
1919.8	0.9122
1928.53	0.913
1937.25	0.9102
1945.98	0.9201
1954.71	0.92
1963.44	0.9161
1972.17	0.914
1980.9	0.9084
1989.63	0.905
1998.36	0.907
2007.09	0.905
2015.82	0.9033
2024.55	0.9
2033.28	0.898
2042.01	0.895
2050.74	0.892
2059.47	0.887
2068.2	0.8843
2076.93	0.883
2085.66	0.883
2094.39	0.8837
2103.12	0.882
2111.85	0.878
2120.57	0.876
2129.3	0.873
2138.03	0.872
2146.76	0.872
2155.49	0.869
2164.22	0.867
2172.95	0.8663
2181.68	0.866
2190.41	0.864
2199.14	0.861
2207.87	0.8553
2216.6	0.851
2225.33	0.8486
2234.06	0.8463
2242.79	0.836
2251.52	0.8357
2260.25	0.8417
2268.98	0.845
2277.71	0.845
2286.44	0.84
2295.17	0.8353
2303.9	0.8263
2312.62	0.825
2321.35	0.8226
2330.08	0.819
2338.81	0.8143
2347.54	0.81
2356.27	0.804
2365	0.8034
2373.73	0.806
2382.46	0.809
2391.19	0.809
2399.92	0.807
2408.65	0.806
2417.38	0.802
2426.11	0.801
2434.84	0.802
2443.57	0.804
2452.3	0.804
2461.03	0.805
2469.76	0.8067
2478.49	0.81
2487.22	0.783
2495.95	0.776
2504.67	0.774
2513.4	0.773
2522.13	0.7703
2530.86	0.769
2539.59	0.768
2548.32	0.764
2557.05	0.762
2565.78	0.762
2574.51	0.7597
2583.24	0.76
2591.97	0.7593
2600.7	0.7533
2609.43	0.746
2618.16	0.7396
2626.89	0.736
2635.62	0.7283
2644.35	0.726
2653.08	0.724
2661.81	0.7287
2670.54	0.729
2679.27	0.7273
2687.99	0.7216
2696.72	0.718
2705.45	0.714
2714.18	0.711
2722.91	0.707
2731.64	0.703
2740.37	0.6973
2749.1	0.6903
2757.83	0.6813
2766.56	0.672
2775.29	0.6643
2784.02	0.644
2792.75	0.6206
2801.48	0.5883
2810.21	0.6372
2818.94	0.6497
2827.67	0.649
2836.4	0.6393
2845.13	0.63
2853.86	0.6103
2862.59	0.5926
2871.32	0.5813
2880.04	0.577
2888.77	0.5545
2897.5	0.524
2906.23	0.5634
2914.96	0.57
2923.69	0.5623
2932.42	0.5278
2941.15	0.4986
2949.88	0.493
2958.61	0.4987
2967.34	0.5588
2976.07	0.5796
2984.8	0.5679
2993.53	0.5463
3002.26	0.5206
3010.99	0.5545
3019.72	0.572
3028.45	0.5516
3037.18	0.5206
3045.91	0.489
3054.64	0.454
3063.36	0.452
3072.09	0.4537
3080.82	0.491
3089.55	0.49
3098.28	0.4971
3107.01	0.492
3115.74	0.4733
3124.47	0.468
3133.2	0.467
3141.93	0.468
3150.66	0.468
3159.39	0.4633
3168.12	0.4566
3176.85	0.4299
3185.58	0.426
3194.31	0.425
3203.04	0.425
3211.77	0.427
3220.5	0.432
3229.23	0.4273
3237.96	0.4173
3246.69	0.3859
3255.41	0.3573
3264.14	0.3366
3272.87	0.3076
3281.6	0.2679
3290.33	0.2513
3299.06	0.244
3307.79	0.232
3316.52	0.2307
3325.25	0.2541
3333.98	0.263
3342.71	0.2525
3351.44	0.2021
3360.17	0.1756
3368.9	0.1784
3377.63	0.2168
3386.36	0.2882
3395.09	0.3452
3403.82	0.3827
3412.55	0.4148
3421.28	0.4634
3430.01	0.4937
3438.74	0.5268
3447.46	0.5487
3456.19	0.5697
3464.92	0.5894
3473.65	0.6014
3482.38	0.6137
3491.11	0.62
3499.84	0.6277
3508.57	0.6381
3517.3	0.645
3526.03	0.6481
3534.76	0.651
3543.49	0.6557
3552.22	0.6597
3560.95	0.664
3569.68	0.667
3578.41	0.671
3587.14	0.6757
3595.87	0.6834
3604.6	0.687
3613.33	0.69
3622.06	0.69
3630.78	0.69
3639.51	0.691
3648.24	0.691
3656.97	0.691
3665.7	0.6903
3674.43	0.69
3683.16	0.69
3691.89	0.69
3700.62	0.69
3709.35	0.69
3718.08	0.69
3726.81	0.691
3735.54	0.691
3744.27	0.691
3753	0.691
3761.73	0.691
3770.46	0.6903
3779.19	0.69
3787.92	0.69
3796.65	0.6873
3805.38	0.684
3814.11	0.682
3822.83	0.681
3831.56	0.68
3840.29	0.6793
3849.02	0.674
3857.75	0.6703
3866.48	0.67
3875.21	0.67
3883.94	0.67
3892.67	0.67
3901.4	0.67
3910.13	0.67
3918.86	0.67
3927.59	0.67
3936.32	0.67
3945.05	0.67
3953.78	0.67
3962.51	0.6707
3971.24	0.674
3979.97	0.674
3988.7	0.675
3997.43	0.675
4006.16	0.675
4014.88	0.6753
