Infrared Spectrum: 3-Bromo-4-methoxyphenylacetonitrile
Formula: C9 H8 Br N O
CAS: 772-59-8
State: gas
Origin: EPA-IR VAPOR PHASE LIBRARY
1/CM	ABSORBANCE
549.8	0.003803
559.445	0.003343
569.09	0.003533
578.734	0.002993
588.379	0.003643
598.024	0.004753
607.669	0.004883
617.313	0.003643
626.958	0.002163
636.603	0.001733
646.248	0.001753
655.893	0.002693
665.537	0.007243
675.182	0.012663
684.827	0.007053
694.472	0.003173
704.116	0.002473
713.761	0.002223
723.406	0.002363
733.051	0.002623
742.695	0.004163
752.34	0.007073
761.985	0.005033
771.63	0.003403
781.275	0.003723
790.919	0.007303
800.564	0.016743
810.209	0.019853
819.854	0.013003
829.498	0.007233
839.143	0.005423
848.788	0.006833
858.433	0.009033
868.078	0.008683
877.722	0.005913
887.367	0.003893
897.012	0.003303
906.657	0.003223
916.301	0.003643
925.946	0.004103
935.591	0.003823
945.236	0.003453
954.88	0.002973
964.525	0.003003
974.17	0.003503
983.815	0.004863
993.46	0.007153
1003.1	0.012263
1012.75	0.022753
1022.39	0.028313
1032.04	0.018753
1041.68	0.017813
1051.33	0.039143
1060.97	0.047343
1070.62	0.024883
1080.26	0.008283
1089.91	0.005023
1099.55	0.003483
1109.2	0.002803
1118.84	0.002683
1128.49	0.003793
1138.13	0.007403
1147.78	0.009233
1157.42	0.008253
1167.07	0.005903
1176.71	0.008133
1186.36	0.012083
1196	0.010893
1205.64	0.007643
1215.29	0.007773
1224.93	0.010783
1234.58	0.018523
1244.22	0.038963
1253.87	0.074783
1263.51	0.086503
1273.16	0.084973
1282.8	0.079043
1292.45	0.050063
1302.09	0.025913
1311.74	0.014733
1321.38	0.008283
1331.03	0.005283
1340.67	0.004163
1350.32	0.003783
1359.96	0.003463
1369.61	0.003443
1379.25	0.003973
1388.9	0.006033
1398.54	0.011433
1408.18	0.014393
1417.83	0.013533
1427.47	0.019553
1437.12	0.020663
1446.76	0.023173
1456.41	0.017913
1466.05	0.022773
1475.7	0.027963
1485.34	0.065633
1494.99	0.134273
1504.63	0.087773
1514.28	0.022233
1523.92	0.009293
1533.57	0.006083
1543.21	0.004873
1552.86	0.004793
1562.5	0.006093
1572.15	0.007133
1581.79	0.006913
1591.44	0.010363
1601.08	0.014303
1610.73	0.010333
1620.37	0.004963
1630.01	0.002973
1639.66	0.001913
1649.3	0.001623
1658.95	0.001463
1668.59	0.0013597
1678.24	0.0012383
1687.88	0.0011364
1697.53	0.0011025
1707.17	0.0012169
1716.82	0.001433
1726.46	0.001793
1736.11	0.001703
1745.75	0.001583
1755.4	0.001513
1765.04	0.001463
1774.69	0.001613
1784.33	0.001703
1793.98	0.001513
1803.62	0.0012343
1813.27	0.0011316
1822.91	0.0009993
1832.55	0.0010264
1842.2	0.0011898
1851.84	0.001463
1861.49	0.001713
1871.13	0.001823
1880.78	0.001693
1890.42	0.001523
1900.07	0.0012505
1909.71	0.0009547
1919.36	0.0008312
1929	0.0007726
1938.65	0.0006597
1948.29	0.0006217
1957.94	0.0005484
1967.58	0.0007643
1977.23	0.0007942
1986.87	0.0010627
1996.52	0.001533
2006.16	0.002023
2015.81	0.002273
2025.45	0.002353
2035.1	0.002293
2044.74	0.001953
2054.38	0.001493
2064.03	0.0012609
2073.67	0.0012605
2083.32	0.0013358
2092.96	0.0010995
2102.61	0.0010325
2112.25	0.001069
2121.9	0.0010648
2131.54	0.0010562
2141.19	0.0009849
2150.83	0.0008267
2160.48	0.0007314
2170.12	0.0007915
2179.77	0.0006011
2189.41	0.0005164
2199.06	0.0005418
2208.7	0.0005439
2218.35	0.0006563
2227.99	0.0007564
2237.64	0.0011263
2247.28	0.001633
2256.92	0.001823
2266.57	0.001433
2276.21	0.0010974
2285.86	0.0007912
2295.5	0.0007378
2305.15	0.0008312
2314.79	0.0008104
2324.44	0.0008828
2334.08	0.0009682
2343.73	0.0010227
2353.37	0.001014
2363.02	0.0009258
2372.66	0.0007538
2382.31	0.0006023
2391.95	0.0005134
2401.6	0.0005435
2411.24	0.0006137
2420.89	0.0005127
2430.53	0.0005872
2440.18	0.0006066
2449.82	0.000664
2459.47	0.0006578
2469.11	0.0006947
2478.75	0.0007625
2488.4	0.0008241
2498.04	0.0009532
2507.69	0.0010905
2517.33	0.0012888
2526.98	0.001573
2536.62	0.001943
2546.27	0.001953
2555.91	0.002053
2565.56	0.001753
2575.2	0.001413
2584.85	0.0012406
2594.49	0.0011243
2604.14	0.0010787
2613.78	0.0010092
2623.43	0.0008651
2633.07	0.0008519
2642.72	0.0007695
2652.36	0.0006346
2662.01	0.00040804
2671.65	0.0004915
2681.29	0.0006221
2690.94	0.0006324
2700.58	0.0006308
2710.23	0.0006637
2719.87	0.0006888
2729.52	0.0009115
2739.16	0.0009775
2748.81	0.0009056
2758.45	0.0011012
2768.1	0.0010649
2777.74	0.0011685
2787.39	0.001383
2797.03	0.001563
2806.68	0.001943
2816.32	0.002703
2825.97	0.004313
2835.61	0.007793
2845.26	0.012683
2854.9	0.011233
2864.55	0.006523
2874.19	0.004743
2883.84	0.004863
2893.48	0.006043
2903.12	0.008353
2912.77	0.010723
2922.41	0.012243
2932.06	0.014963
2941.7	0.019883
2951.35	0.022353
2960.99	0.018493
2970.64	0.014213
2980.28	0.009293
2989.93	0.007153
2999.57	0.008023
3009.22	0.012593
3018.86	0.014133
3028.51	0.008523
3038.15	0.007453
3047.8	0.006813
3057.44	0.005193
3067.09	0.003933
3076.73	0.004083
3086.38	0.003903
3096.02	0.003043
3105.67	0.002283
3115.31	0.001723
3124.95	0.0012416
3134.6	0.0010277
3144.24	0.0010423
3153.89	0.0008286
3163.53	0.0009063
3173.18	0.000786
3182.82	0.000949
3192.47	0.0009273
3202.11	0.0009067
3211.76	0.0006819
3221.4	0.00045553
3231.05	0.00040426
3240.69	0.000183
3250.34	0.00041332
3259.98	0.00044084
3269.63	0.000315
3279.27	0.000269
3288.92	0.000221
3298.56	0.000188
3308.21	0.0003124
3317.85	0.000196
3327.49	0.0003265
3337.14	0.000261
3346.78	3.2e-05
3356.43	0.000255
3366.07	0.00015
3375.72	0.000259
3385.36	0.000124
3395.01	0.0002888
3404.65	0.000321
3414.3	8.2e-05
3423.94	0.000131
3433.59	0.000188
3443.23	0.000142
3452.88	0.000202
3462.52	0.000165
3472.17	0.000186
3481.81	0.00038584
3491.46	0.000172
3501.1	0.0002802
3510.75	0.000293
3520.39	0.000219
3530.04	0.0002809
3539.68	0.0003389
3549.32	0.000251
3558.97	0.0003197
3568.61	0.000254
3578.26	0.0003457
3587.9	0.0002982
3597.55	0.00041477
3607.19	0.0003194
3616.84	0.000189
3626.48	0.000239
3636.13	9.4e-05
3645.77	0.000248
3655.42	0.000227
3665.06	8.9e-05
3674.71	0.00042831
3684.35	0.000256
3694	0.000277
3703.64	0.0003467
3713.29	0.000377515
3722.93	0.0003166
3732.58	0.00042802
3742.22	0.000380459
3751.86	0.000263
3761.51	0.00045056
3771.15	0.00037084
3780.8	0.000203
3790.44	0.000233
3800.09	0.0002993
3809.73	0.00042438
3819.38	0.000373713
3829.02	0.000261
3838.67	0.0003241
3848.31	0.0003492
3857.96	0.0003607
3867.6	0.0004945
3877.25	0.000244
3886.89	0.0006148
3896.54	0.00047125
3906.18	0.0003105
3915.83	0.0003387
3925.47	0.0002753
3935.12	0.0002849
3944.76	0.00047092
3954.41	0.00039255
3964.05	0.00042723
3973.69	0.00025
3983.34	0.00046942
3992.98	0.0005753
