Infrared Spectrum: 4-Chlorophenyl phosphorodichloridate
Formula: C 6 H 4 Cl 3 O 2 P
CAS: 772-79-2
State: gas
Origin: EPA-IR VAPOR PHASE LIBRARY
1/CM	ABSORBANCE
549.9	0.14591
559.547	0.19508
569.193	0.14274
578.84	0.16765
588.486	0.2574
598.133	0.33617
607.779	0.29027
617.426	0.21707
627.072	0.21352
636.719	0.18267
646.365	0.09481
656.012	0.04288
665.658	0.0248
675.305	0.01875
684.951	0.01763
694.598	0.02019
704.245	0.02043
713.891	0.01563
723.538	0.01377
733.184	0.01304
742.831	0.01512
752.477	0.02412
762.124	0.06691
771.77	0.10064
781.417	0.02859
791.063	0.01635
800.71	0.01892
810.356	0.03615
820.003	0.08402
829.649	0.13749
839.296	0.09682
848.943	0.03792
858.589	0.01874
868.236	0.01733
877.882	0.02309
887.529	0.02879
897.175	0.03417
906.822	0.05023
916.468	0.08519
926.115	0.1877
935.761	0.37447
945.408	0.63774
955.054	0.39286
964.701	0.16465
974.347	0.07205
983.994	0.04344
993.64	0.03372
1003.29	0.03411
1012.93	0.10641
1022.58	0.05563
1032.23	0.01458
1041.87	0.0119
1051.52	0.01195
1061.17	0.01344
1070.81	0.01894
1080.46	0.03681
1090.11	0.17991
1099.75	0.17873
1109.4	0.03957
1119.05	0.02484
1128.69	0.0219
1138.34	0.02457
1147.99	0.03647
1157.63	0.12993
1167.28	0.21782
1176.92	0.14214
1186.57	0.46777
1196.22	0.57913
1205.86	0.25305
1215.51	0.1505
1225.16	0.09975
1234.8	0.04965
1244.45	0.03907
1254.1	0.03393
1263.74	0.02979
1273.39	0.02532
1283.04	0.02502
1292.68	0.03413
1302.33	0.07137
1311.98	0.17685
1321.62	0.2822
1331.27	0.24295
1340.92	0.12434
1350.56	0.03758
1360.21	0.02122
1369.86	0.0158
1379.5	0.0136
1389.15	0.01282
1398.79	0.01302
1408.44	0.0128
1418.09	0.014
1427.73	0.02454
1437.38	0.02292
1447.03	0.01885
1456.67	0.02338
1466.32	0.04194
1475.97	0.15723
1485.61	0.54916
1495.26	0.23959
1504.91	0.04528
1514.55	0.02602
1524.2	0.0196
1533.85	0.016
1543.49	0.01211
1553.14	0.01184
1562.79	0.01325
1572.43	0.0172
1582.08	0.02684
1591.73	0.02556
1601.37	0.0121
1611.02	0.00933
1620.67	0.00979
1630.31	0.01138
1639.96	0.01191
1649.6	0.00916
1659.25	0.0071452
1668.9	0.006124
1678.54	0.005973
1688.19	0.00670149
1697.84	0.00818
1707.48	0.0097
1717.13	0.01016
1726.78	0.00868
1736.42	0.0076811
1746.07	0.00927
1755.72	0.01066
1765.36	0.00799
1775.01	0.0074347
1784.66	0.00809
1794.3	0.00853
1803.95	0.00851
1813.6	0.00866
1823.24	0.0089
1832.89	0.00816
1842.54	0.00704
1852.18	0.00773
1861.83	0.00998
1871.47	0.01278
1881.12	0.01438
1890.77	0.01243
1900.41	0.00892
1910.06	0.0071058
1919.71	0.006374
1929.35	0.0071049
1939	0.0072166
1948.65	0.0072154
1958.29	0.00934
1967.94	0.00898
1977.59	0.00641
1987.23	0.00552
1996.88	0.00503
2006.53	0.00461
2016.17	0.00462
2025.82	0.00464
2035.47	0.00447
2045.11	0.00416
2054.76	0.00394
2064.41	0.00386
2074.05	0.0038
2083.7	0.00382
2093.35	0.00391
2102.99	0.00397
2112.64	0.00396
2122.28	0.00388
2131.93	0.00379
2141.58	0.00369
2151.22	0.00365
2160.87	0.00365
2170.52	0.00372
2180.16	0.00384
2189.81	0.00374
2199.46	0.00375
2209.1	0.00381
2218.75	0.00385
2228.4	0.00386
2238.04	0.00414
2247.69	0.00501
2257.34	0.0059
2266.98	0.00532
2276.63	0.00485
2286.28	0.00456
2295.92	0.00432
2305.57	0.00426
2315.22	0.00422
2324.86	0.00433
2334.51	0.00423
2344.16	0.00471
2353.8	0.00521
2363.45	0.00481
2373.09	0.00486
2382.74	0.00502
2392.39	0.00462
2402.03	0.00427
2411.68	0.004
2421.33	0.00383
2430.97	0.00376
2440.62	0.0036
2450.27	0.00346
2459.91	0.00346
2469.56	0.00349
2479.21	0.00346
2488.85	0.00347
2498.5	0.00343
2508.15	0.00349
2517.79	0.00342
2527.44	0.00339
2537.09	0.00348
2546.73	0.00355
2556.38	0.00369
2566.03	0.00368
2575.67	0.00359
2585.32	0.00331
2594.96	0.00313
2604.61	0.00313
2614.26	0.00327
2623.9	0.0035
2633.55	0.00347
2643.2	0.00333
2652.84	0.00338
2662.49	0.0031
2672.14	0.00305
2681.78	0.00301
2691.43	0.00277
2701.08	0.00263
2710.72	0.00245
2720.37	0.00228
2730.02	0.00233
2739.66	0.00226
2749.31	0.00227
2758.96	0.00224
2768.6	0.00234
2778.25	0.00244
2787.9	0.0022
2797.54	0.00227
2807.19	0.00222
2816.84	0.00252
2826.48	0.00275
2836.13	0.00316
2845.77	0.00328
2855.42	0.00241
2865.07	0.00186
2874.71	0.00165
2884.36	0.00155
2894.01	0.00137
2903.65	0.00127
2913.3	0.00112
2922.95	0.00118
2932.59	0.00105
2942.24	0.00107
2951.89	0.00081
2961.53	0.00072
2971.18	0.00062
2980.83	0.00086
2990.47	0.00069
3000.12	0.00096
3009.77	0.00086
3019.41	0.00088
3029.06	0.00114
3038.71	0.00169
3048.35	0.0022
3058	0.00202
3067.64	0.00257
3077.29	0.00347
3086.94	0.00372
3096.58	0.00413
3106.23	0.00295
3115.88	0.00136
3125.52	0.0007
3135.17	0.00045
3144.82	0.00044
3154.46	0.00031
3164.11	0.00036
3173.76	0.00033
3183.4	0.0002
3193.05	0.0002
3202.7	0.00016
3212.34	0.00018
3221.99	0.00017
3231.64	0.00012
3241.28	0.00015
3250.93	4e-05
3260.58	0.00013
3270.22	0.00033
3279.87	0.0004
3289.52	0.00033
3299.16	0.00041
3308.81	0.00037
3318.45	0.00058
3328.1	0.00054
3337.75	0.00062
3347.39	0.00066
3357.04	0.00081
3366.69	0.00086
3376.33	0.00093
3385.98	0.00114
3395.63	0.00102
3405.27	0.00124
3414.92	0.00127
3424.57	0.00124
3434.21	0.00144
3443.86	0.00156
3453.51	0.00166
3463.15	0.00178
3472.8	0.00172
3482.45	0.00184
3492.09	0.00192
3501.74	0.00207
3511.39	0.00206
3521.03	0.00223
3530.68	0.00219
3540.33	0.00242
3549.97	0.00221
3559.62	0.0025
3569.26	0.00241
3578.91	0.00262
3588.56	0.00257
3598.2	0.00273
3607.85	0.00268
3617.5	0.00277
3627.14	0.00274
3636.79	0.0029
3646.44	0.00287
3656.08	0.00311
3665.73	0.00313
3675.38	0.00307
3685.02	0.00333
3694.67	0.00336
3704.32	0.00328
3713.96	0.00337
3723.61	0.00356
3733.26	0.00359
3742.9	0.00336
3752.55	0.00331
3762.2	0.00331
3771.84	0.00334
3781.49	0.00334
3791.13	0.00331
3800.78	0.0033
3810.43	0.00348
3820.07	0.00344
3829.72	0.00347
3839.37	0.00342
3849.01	0.0036
3858.66	0.00366
3868.31	0.00366
3877.95	0.00362
3887.6	0.00343
3897.25	0.00352
3906.89	0.00347
3916.54	0.00338
3926.19	0.00344
3935.83	0.00352
3945.48	0.00341
3955.13	0.00344
3964.77	0.00345
3974.42	0.0034
3984.07	0.0034
3993.71	0.0035
