Infrared Spectrum: 30% H2O2 in water
Formula: H 2 O 2 in H 2 O
CAS: 7722-84-1
State: liquid
Instrument: Bruker Tensor 37 FTIR
Resolution: 0.71088936
Origin: Pacific Northwest National Laboratory Under IARPA Contract
1/cm	dispersion index
7797.77	1.32381
7780	1.3238
7762.23	1.32377
7744.46	1.32373
7726.69	1.3237
7708.91	1.32366
7691.14	1.32363
7673.37	1.32359
7655.6	1.32355
7637.82	1.32351
7620.05	1.32348
7602.28	1.32343
7584.51	1.32339
7566.74	1.32335
7548.96	1.32331
7531.19	1.32327
7513.42	1.32323
7495.65	1.32318
7477.87	1.32314
7460.1	1.3231
7442.33	1.32305
7424.56	1.323
7406.78	1.32296
7389.01	1.32291
7371.24	1.32286
7353.47	1.32281
7335.7	1.32276
7317.92	1.32271
7300.15	1.32266
7282.38	1.3226
7264.61	1.32254
7246.83	1.32249
7229.06	1.32243
7211.29	1.32237
7193.52	1.32231
7175.75	1.32225
7157.97	1.32219
7140.2	1.32214
7122.43	1.32209
7104.66	1.32205
7086.88	1.32201
7069.11	1.32198
7051.34	1.32194
7033.57	1.32191
7015.8	1.32188
6998.02	1.32185
6980.25	1.32181
6962.48	1.32178
6944.71	1.32174
6926.93	1.32171
6909.16	1.32167
6891.39	1.32163
6873.62	1.32159
6855.85	1.32155
6838.07	1.32152
6820.3	1.32148
6802.53	1.32143
6784.76	1.32139
6766.98	1.32134
6749.21	1.32129
6731.44	1.32124
6713.67	1.32119
6695.9	1.32113
6678.12	1.32107
6660.35	1.32101
6642.58	1.32095
6624.81	1.32089
6607.03	1.32082
6589.26	1.32076
6571.49	1.32069
6553.72	1.32062
6535.95	1.32055
6518.17	1.32048
6500.4	1.3204
6482.63	1.32033
6464.86	1.32025
6447.08	1.32018
6429.31	1.3201
6411.54	1.32002
6393.77	1.31994
6376	1.31986
6358.22	1.31978
6340.45	1.3197
6322.68	1.31961
6304.91	1.31953
6287.13	1.31944
6269.36	1.31935
6251.59	1.31927
6233.82	1.31918
6216.05	1.31909
6198.27	1.319
6180.5	1.3189
6162.73	1.31881
6144.96	1.31871
6127.18	1.31861
6109.41	1.31852
6091.64	1.31842
6073.87	1.31832
6056.1	1.31821
6038.32	1.31811
6020.55	1.318
6002.78	1.3179
5985.01	1.31779
5967.23	1.31768
5949.46	1.31757
5931.69	1.31746
5913.92	1.31734
5896.15	1.31723
5878.37	1.31711
5860.6	1.31698
5842.83	1.31686
5825.06	1.31674
5807.28	1.31661
5789.51	1.31648
5771.74	1.31635
5753.97	1.31622
5736.19	1.31608
5718.42	1.31594
5700.65	1.31581
5682.88	1.31567
5665.11	1.31552
5647.33	1.31538
5629.56	1.31523
5611.79	1.31508
5594.02	1.31492
5576.24	1.31477
5558.47	1.31461
5540.7	1.31444
5522.93	1.31427
5505.16	1.31409
5487.38	1.3139
5469.61	1.31371
5451.84	1.31351
5434.07	1.3133
5416.29	1.31308
5398.52	1.31284
5380.75	1.31259
5362.98	1.31231
5345.21	1.31202
5327.43	1.31171
5309.66	1.31138
5291.89	1.31108
5274.12	1.31087
5256.34	1.3108
5238.57	1.31082
5220.8	1.31087
5203.03	1.31093
5185.26	1.31097
5167.48	1.31098
5149.71	1.31094
5131.94	1.31087
5114.17	1.31076
5096.39	1.31062
5078.62	1.31045
5060.85	1.31027
5043.08	1.31006
5025.31	1.30984
5007.53	1.3096
4989.76	1.30935
4971.99	1.30907
4954.22	1.30879
4936.44	1.30851
4918.67	1.30822
4900.9	1.30791
4883.13	1.30759
4865.36	1.30727
4847.58	1.30693
4829.81	1.30659
4812.04	1.30626
4794.27	1.30591
4776.49	1.30555
4758.72	1.30518
4740.95	1.3048
4723.18	1.30441
4705.41	1.30401
4687.63	1.30361
4669.86	1.30319
4652.09	1.30275
4634.32	1.3023
4616.54	1.30183
4598.77	1.30135
4581	1.30085
4563.23	1.30035
4545.46	1.29983
4527.68	1.29929
4509.91	1.29873
4492.14	1.29816
4474.37	1.29757
4456.59	1.29695
4438.82	1.29632
4421.05	1.29568
4403.28	1.295
4385.51	1.29432
4367.73	1.2936
4349.96	1.29285
4332.19	1.29206
4314.42	1.29126
4296.64	1.29045
4278.87	1.28958
4261.1	1.28869
4243.33	1.28776
4225.56	1.28675
4207.78	1.28573
4190.01	1.28467
4172.24	1.28358
4154.47	1.28241
4136.69	1.28116
4118.92	1.27991
4101.15	1.27855
4083.38	1.27717
4065.6	1.2757
4047.83	1.27423
4030.06	1.27266
4012.29	1.27096
3994.52	1.26924
3976.74	1.26735
3958.97	1.26537
3941.2	1.26317
3923.43	1.2608
3905.65	1.25828
3887.88	1.25539
3870.11	1.25221
3852.34	1.24869
3834.57	1.2448
3816.79	1.24048
3799.02	1.23558
3781.25	1.23031
3763.48	1.224
3745.7	1.21644
3727.93	1.20724
3710.16	1.19584
3692.39	1.18187
3674.62	1.16563
3656.84	1.15182
3639.07	1.14376
3621.3	1.1424
3603.53	1.14575
3585.75	1.15248
3567.98	1.16134
3550.21	1.17129
3532.44	1.18152
3514.67	1.19217
3496.89	1.20343
3479.12	1.21529
3461.35	1.22858
3443.58	1.24346
3425.8	1.26018
3408.03	1.27746
3390.26	1.29527
3372.49	1.31204
3354.72	1.32682
3336.94	1.33971
3319.17	1.35126
3301.4	1.36267
3283.63	1.37478
3265.85	1.388
3248.08	1.40293
3230.31	1.41827
3212.54	1.43272
3194.77	1.44474
3176.99	1.4538
3159.22	1.45972
3141.45	1.46284
3123.68	1.46379
3105.9	1.46296
3088.13	1.46077
3070.36	1.45741
3052.59	1.45301
3034.82	1.44779
3017.04	1.44224
2999.27	1.43623
2981.5	1.42998
2963.73	1.42362
2945.95	1.41741
2928.18	1.41125
2910.41	1.4055
2892.64	1.40086
2874.87	1.39809
2857.09	1.39931
2839.32	1.40601
2821.55	1.41557
2803.78	1.42248
2786	1.42447
2768.23	1.42289
2750.46	1.41947
2732.69	1.41527
2714.92	1.41098
2697.14	1.40689
2679.37	1.40305
2661.6	1.39945
2643.83	1.39613
2626.05	1.39311
2608.28	1.39021
2590.51	1.38748
2572.74	1.38495
2554.97	1.38254
2537.19	1.38028
2519.42	1.37812
2501.65	1.37609
2483.88	1.37412
2466.1	1.37221
2448.33	1.37037
2430.56	1.36857
2412.79	1.36689
2395.01	1.36517
2377.24	1.36349
2359.47	1.3622
2341.7	1.36074
2323.93	1.35962
2306.15	1.35831
2288.38	1.35703
2270.61	1.3558
2252.84	1.35467
2235.06	1.35359
2217.29	1.3526
2199.52	1.3517
2181.75	1.3509
2163.98	1.3502
2146.2	1.34962
2128.43	1.34914
2110.66	1.34871
2092.89	1.34833
2075.11	1.3479
2057.34	1.34742
2039.57	1.34681
2021.8	1.34605
2004.03	1.34506
1986.25	1.34392
1968.48	1.34252
1950.71	1.3409
1932.94	1.33909
1915.16	1.33709
1897.39	1.33492
1879.62	1.33254
1861.85	1.33005
1844.08	1.32721
1826.3	1.32406
1808.53	1.3205
1790.76	1.31634
1772.99	1.31151
1755.21	1.30565
1737.44	1.2986
1719.67	1.28994
1701.9	1.28043
1684.13	1.27392
1666.35	1.27984
1648.58	1.3094
1630.81	1.35965
1613.04	1.38567
1595.26	1.38156
1577.49	1.37113
1559.72	1.36201
1541.95	1.35454
1524.18	1.34792
1506.4	1.34157
1488.63	1.33619
1470.86	1.33271
1453.09	1.33249
1435.31	1.33493
1417.54	1.33874
1399.77	1.34454
1382	1.35217
1364.23	1.36088
1346.45	1.36926
1328.68	1.3754
1310.91	1.37753
1293.14	1.37617
1275.36	1.37286
1257.59	1.36908
1239.82	1.36542
1222.05	1.36221
1204.28	1.35925
1186.5	1.35643
1168.73	1.35373
1150.96	1.35101
1133.19	1.34822
1115.41	1.34505
1097.64	1.34203
1079.87	1.33864
1062.1	1.3348
1044.33	1.33062
1026.55	1.32582
1008.78	1.32044
991.008	1.31474
973.236	1.30871
955.464	1.30231
937.692	1.29591
919.92	1.29025
902.147	1.28626
884.375	1.28794
866.603	1.29424
848.831	1.29578
831.058	1.30436
813.286	1.31863
795.514	1.33822
777.742	1.36212
759.969	1.39415
742.197	1.43849
724.425	1.48925
706.653	1.56934
