Infrared Spectrum: 2-Fluoro-4-(trifluoromethyl)phenol
Formula: C 7 H 4 F 4 O
CAS: 77227-78-2
State: gas
Origin: EPA-IR VAPOR PHASE LIBRARY
1/CM	ABSORBANCE
549.8	0.00818
559.445	0.01164
569.09	0.01094
578.734	0.00657
588.379	0.02135
598.024	0.03959
607.669	0.02467
617.313	0.04511
626.958	0.10234
636.603	0.06907
646.248	0.04412
655.893	0.03076
665.537	0.01727
675.182	0.01079
684.827	0.01025
694.472	0.00793
704.116	0.00762
713.761	0.01015
723.406	0.01444
733.051	0.03301
742.695	0.0843
752.34	0.06177
761.985	0.03
771.63	0.04144
781.275	0.1377
790.919	0.11088
800.564	0.03336
810.209	0.05525
819.854	0.08175
829.498	0.0875
839.143	0.04765
848.788	0.01913
858.433	0.02108
868.078	0.05723
877.722	0.10877
887.367	0.093
897.012	0.09734
906.657	0.16461
916.301	0.14325
925.946	0.05338
935.591	0.01917
945.236	0.01029
954.88	0.00788
964.525	0.00716
974.17	0.00704
983.815	0.00631
993.46	0.00587
1003.1	0.0077
1012.75	0.01127
1022.39	0.01219
1032.04	0.01225
1041.68	0.02133
1051.33	0.06846
1060.97	0.15593
1070.62	0.11531
1080.26	0.04654
1089.91	0.04938
1099.55	0.10956
1109.2	0.22174
1118.84	0.30427
1128.49	0.39309
1138.13	0.65015
1147.78	0.90284
1157.42	0.64994
1167.07	0.66771
1176.71	0.61587
1186.36	0.32218
1196	0.23312
1205.64	0.51643
1215.29	0.76339
1224.93	0.47387
1234.58	0.21159
1244.22	0.13036
1253.87	0.14872
1263.51	0.15011
1273.16	0.15114
1282.8	0.17202
1292.45	0.21934
1302.09	0.19233
1311.74	0.38864
1321.38	1.18111
1331.03	1.13748
1340.67	0.29395
1350.32	0.147
1359.96	0.14709
1369.61	0.18853
1379.25	0.11458
1388.9	0.04596
1398.54	0.03859
1408.18	0.05228
1417.83	0.08285
1427.47	0.1235
1437.12	0.26987
1446.76	0.29706
1456.41	0.09888
1466.05	0.03825
1475.7	0.02219
1485.34	0.01669
1494.99	0.0226
1504.63	0.065
1514.28	0.20751
1523.92	0.27042
1533.57	0.18016
1543.21	0.09263
1552.86	0.03824
1562.5	0.02624
1572.15	0.01864
1581.79	0.02377
1591.44	0.03886
1601.08	0.07148
1610.73	0.10579
1620.37	0.13216
1630.01	0.14005
1639.66	0.07942
1649.3	0.04306
1658.95	0.03297
1668.59	0.01461
1678.24	0.00722
1687.88	0.00619
1697.53	0.00583
1707.17	0.00564
1716.82	0.00525
1726.46	0.00555
1736.11	0.00697
1745.75	0.01082
1755.4	0.0153
1765.04	0.01457
1774.69	0.00933
1784.33	0.00502
1793.98	0.00427
1803.62	0.00451
1813.27	0.00407
1822.91	0.00363
1832.55	0.0036
1842.2	0.00313
1851.84	0.0034
1861.49	0.00381
1871.13	0.00536
1880.78	0.00874
1890.42	0.01029
1900.07	0.00815
1909.71	0.00491
1919.36	0.00364
1929	0.0028
1938.65	0.00277
1948.29	0.0029
1957.94	0.00325
1967.58	0.00314
1977.23	0.00246
1986.87	0.002
1996.52	0.00199
2006.16	0.00223
2015.81	0.00249
2025.45	0.00339
2035.1	0.00374
2044.74	0.0035
2054.38	0.00427
2064.03	0.00621
2073.67	0.00779
2083.32	0.00621
2092.96	0.00397
2102.61	0.0036
2112.25	0.00453
2121.9	0.00504
2131.54	0.00404
2141.19	0.0027
2150.83	0.00206
2160.48	0.00184
2170.12	0.00154
2179.77	0.00201
2189.41	0.00223
2199.06	0.0024
2208.7	0.00287
2218.35	0.00316
2227.99	0.00379
2237.64	0.00413
2247.28	0.00375
2256.92	0.00399
2266.57	0.00508
2276.21	0.00639
2285.86	0.00655
2295.5	0.00663
2305.15	0.00722
2314.79	0.0071
2324.44	0.00663
2334.08	0.00553
2343.73	0.00529
2353.37	0.0044
2363.02	0.00388
2372.66	0.00399
2382.31	0.00464
2391.95	0.00455
2401.6	0.00447
2411.24	0.00354
2420.89	0.0033
2430.53	0.00341
2440.18	0.00282
2449.82	0.00279
2459.47	0.00344
2469.11	0.00397
2478.75	0.00415
2488.4	0.00428
2498.04	0.00533
2507.69	0.00595
2517.33	0.00593
2526.98	0.0063
2536.62	0.00846
2546.27	0.00818
2555.91	0.00496
2565.56	0.00248
2575.2	0.00225
2584.85	0.00224
2594.49	0.00176
2604.14	0.00155
2613.78	0.00153
2623.43	0.00185
2633.07	0.00258
2642.72	0.00334
2652.36	0.00439
2662.01	0.00466
2671.65	0.00385
2681.29	0.00376
2690.94	0.00395
2700.58	0.0032
2710.23	0.00177
2719.87	0.00144
2729.52	0.00189
2739.16	0.00207
2748.81	0.00169
2758.45	0.00171
2768.1	0.00205
2777.74	0.0023
2787.39	0.00202
2797.03	0.00202
2806.68	0.00215
2816.32	0.0022
2825.97	0.00187
2835.61	0.00208
2845.26	0.0019
2854.9	0.00163
2864.55	0.0013151
2874.19	0.0009014
2883.84	0.0008052
2893.48	0.0005822
2903.12	0.0006334
2912.77	0.0004008
2922.41	0.0010083
2932.06	0.0009284
2941.7	0.00198
2951.35	0.00221
2960.99	0.00147
2970.64	0.0018
2980.28	0.0013342
2989.93	0.0011097
2999.57	0.0012602
3009.22	0.0010069
3018.86	0.00167
3028.51	0.00337
3038.15	0.00403
3047.8	0.00313
3057.44	0.00324
3067.09	0.00364
3076.73	0.00588
3086.38	0.00952
3096.02	0.00722
3105.67	0.0023
3115.31	0.0006694
3124.95	0.0007185
3134.6	0.000279
3144.24	0.0006458
3153.89	0.000431311
3163.53	0.0007947
3173.18	0.000159
3182.82	0.0003756
3192.47	0.0007512
3202.11	0.0008125
3211.76	0.0016
3221.4	0.00251
3231.05	0.00396
3240.69	0.00318
3250.34	0.00267
3259.98	0.00278
3269.63	0.00225
3279.27	0.00189
3288.92	0.0008542
3298.56	0.00179
3308.21	0.00174
3317.85	0.00163
3327.49	0.00204
3337.14	0.00171
3346.78	0.0014067
3356.43	0.0012278
3366.07	0.0009537
3375.72	0.0005969
3385.36	0.0011971
3395.01	0.0009105
3404.65	0.0010634
3414.3	0.0009729
3423.94	0.0009387
3433.59	0.00042982
3443.23	0.0011472
3452.88	0.0008781
3462.52	0.0007151
3472.17	0.00048851
3481.81	0.000219
3491.46	0.000112
3501.1	0.00041
3510.75	0.000559
3520.39	0.0012526
3530.04	0.00165
3539.68	0.0009551
3549.32	0.0009416
3558.97	0.00158
3568.61	0.00206
3578.26	0.00257
3587.9	0.00389
3597.55	0.01156
3607.19	0.04993
3616.84	0.26219
3626.48	0.36894
3636.13	0.12432
3645.77	0.04894
3655.42	0.02999
3665.06	0.0083
3674.71	0.00383
3684.35	0.00218
3694	0.00205
3703.64	0.0018
3713.29	0.00206
3722.93	0.0018
3732.58	0.0010201
3742.22	0.00191
3751.86	0.0014148
3761.51	0.0011742
3771.15	0.0008978
3780.8	0.0012623
3790.44	0.0005699
3800.09	0.000438525
3809.73	0.0010321
3819.38	0.0006285
3829.02	0.0007146
3838.67	0.0010802
3848.31	0.0010806
3857.96	0.0010511
3867.6	0.000219
3877.25	0.0011097
3886.89	0.0013423
3896.54	0.00173
3906.18	0.00185
3915.83	0.00234
3925.47	0.00159
3935.12	0.00272
3944.76	0.00191
3954.41	0.00205
3964.05	0.00192
3973.69	0.00266
3983.34	0.00282
3992.98	0.00211
