Infrared Spectrum: AMMONIUM PHOSPHATE, MONOBASIC
Formula: N H4 H2 P O4
CAS: 7722-76-1
State: SOLID (NUJOL AND FLUOROLUBE MULLS)
Class: COBLENTZ
Instrument: Not specified, most likely a prism, grating, or hybrid spectrometer.
Sampling: TRANSMISSION
Resolution: 4
Origin: MELLON INSTITUTE
MICROMETERS	TRANSMITTANCE
2.054	0.899
2.09398	0.897
2.13395	0.901
2.17393	0.897
2.2139	0.902
2.25388	0.899
2.29386	0.899
2.33383	0.899
2.37381	0.897
2.41379	0.899
2.45376	0.896
2.49374	0.901
2.53371	0.901
2.57369	0.902
2.61367	0.904
2.65364	0.902
2.69362	0.901
2.73359	0.894
2.77357	0.892
2.81355	0.889
2.85352	0.881
2.8935	0.869
2.93348	0.85
2.97345	0.83
3.01343	0.718
3.0534	0.613
3.09338	0.539
3.13336	0.519
3.17333	0.509
3.21331	0.495
3.25328	0.487
3.29326	0.489
3.33324	0.512
3.37321	0.527
3.41319	0.534
3.45317	0.539
3.49314	0.562
3.53312	0.599
3.57309	0.626
3.61307	0.651
3.65305	0.666
3.69302	0.678
3.733	0.688
3.77297	0.703
3.81295	0.718
3.85293	0.721
3.8929	0.73
3.93288	0.731
3.97285	0.718
4.01283	0.706
4.05281	0.693
4.09278	0.683
4.13276	0.664
4.17274	0.659
4.21271	0.654
4.25269	0.651
4.29266	0.654
4.33264	0.653
4.37262	0.649
4.41259	0.651
4.45257	0.648
4.49254	0.649
4.53252	0.653
4.5725	0.656
4.61247	0.663
4.65245	0.671
4.69243	0.675
4.7324	0.68
4.77238	0.681
4.81235	0.683
4.85233	0.69
4.89231	0.691
4.93228	0.69
4.97226	0.686
5.01223	0.683
5.05221	0.683
5.09219	0.68
5.13216	0.671
5.17214	0.663
5.21212	0.654
5.25209	0.651
5.29207	0.651
5.33204	0.648
5.37202	0.643
5.412	0.636
5.45197	0.633
5.49195	0.624
5.53192	0.614
5.5719	0.601
5.61188	0.584
5.65185	0.574
5.69183	0.562
5.73181	0.559
5.77178	0.552
5.81176	0.544
5.85173	0.534
5.89171	0.529
5.93169	0.524
5.97166	0.524
6.01164	0.522
6.05161	0.522
6.09159	0.52
6.13157	0.52
6.17154	0.52
6.21152	0.522
6.2515	0.52
6.29147	0.519
6.33145	0.517
6.37142	0.519
6.4114	0.52
6.45138	0.522
6.49135	0.522
6.53133	0.525
6.5713	0.529
6.61128	0.525
6.65126	0.532
6.69123	0.532
6.73121	0.515
6.77119	0.5
6.81116	0.458
6.85114	0.423
6.89111	0.368
6.93109	0.353
6.97107	0.365
7.01104	0.378
7.05102	0.378
7.09099	0.398
7.13097	0.435
7.17095	0.514
7.21092	0.539
7.2509	0.546
7.29087	0.552
7.33085	0.557
7.37083	0.564
7.4108	0.567
7.45078	0.564
7.49076	0.549
7.53073	0.529
7.57071	0.5
7.61068	0.465
7.65066	0.443
7.69064	0.407
7.73061	0.381
7.77059	0.375
7.81056	0.365
7.85054	0.363
7.89052	0.37
7.93049	0.386
7.97047	0.402
8.01045	0.418
8.05042	0.438
8.0904	0.455
8.13037	0.474
8.17035	0.48
8.21033	0.49
8.2503	0.512
8.29028	0.524
8.33025	0.532
8.37023	0.534
8.41021	0.539
8.45018	0.536
8.49016	0.529
8.53014	0.519
8.57011	0.51
8.61009	0.497
8.65006	0.482
8.69004	0.463
8.73002	0.442
8.76999	0.415
8.80997	0.4
8.84994	0.386
8.88992	0.371
8.9299	0.363
8.96987	0.353
9.00985	0.346
9.04983	0.336
9.0898	0.329
9.12978	0.324
9.16975	0.323
9.20973	0.321
9.24971	0.319
9.28968	0.319
9.32966	0.324
9.36963	0.329
9.40961	0.34
9.44959	0.35
9.48956	0.353
9.52954	0.358
9.56952	0.361
9.60949	0.368
9.64947	0.376
9.68944	0.39
9.72942	0.398
9.7694	0.403
9.80937	0.41
9.84935	0.413
9.88932	0.42
9.9293	0.423
9.96928	0.425
10.0093	0.425
10.0492	0.425
10.0892	0.425
10.1292	0.425
10.1692	0.425
10.2091	0.428
10.2491	0.427
10.2891	0.423
10.3291	0.42
10.369	0.42
10.409	0.408
10.449	0.398
10.489	0.396
10.5289	0.393
10.5689	0.378
10.6089	0.376
10.6489	0.37
10.6888	0.366
10.7288	0.363
10.7688	0.36
10.8088	0.356
10.8488	0.355
10.8887	0.355
10.9287	0.351
10.9687	0.348
11.0087	0.345
11.0486	0.343
11.0886	0.343
11.1286	0.343
11.1686	0.348
11.2085	0.355
11.2485	0.356
11.2885	0.355
11.3285	0.356
11.3684	0.358
11.4084	0.365
11.4484	0.375
11.4884	0.375
11.5283	0.38
11.5683	0.38
11.6083	0.383
11.6483	0.393
11.6883	0.4
11.7282	0.4
11.7682	0.405
11.8082	0.415
11.8482	0.415
11.8881	0.417
11.9281	0.425
11.9681	0.432
12.0081	0.435
12.048	0.442
12.088	0.445
12.128	0.447
12.168	0.448
12.2079	0.45
12.2479	0.453
12.2879	0.458
12.3279	0.463
12.3678	0.469
12.4078	0.474
12.4478	0.479
12.4878	0.484
12.5277	0.492
12.5677	0.49
12.6077	0.495
12.6477	0.499
12.6877	0.502
12.7276	0.504
12.7676	0.509
12.8076	0.51
12.8476	0.514
12.8875	0.52
12.9275	0.522
12.9675	0.525
13.0075	0.527
13.0474	0.527
13.0874	0.53
13.1274	0.53
13.1674	0.532
13.2073	0.534
13.2473	0.537
13.2873	0.539
13.3273	0.541
13.3672	0.541
13.4072	0.541
13.4472	0.541
13.4872	0.539
13.5272	0.541
13.5671	0.542
13.6071	0.544
13.6471	0.544
13.6871	0.541
13.727	0.541
13.767	0.541
13.807	0.537
13.847	0.539
13.8869	0.541
13.9269	0.537
13.9669	0.539
14.0069	0.541
14.0468	0.539
14.0868	0.537
14.1268	0.536
14.1668	0.534
14.2067	0.536
14.2467	0.536
14.2867	0.532
14.3267	0.532
14.3667	0.532
14.4066	0.529
14.4466	0.53
14.4866	0.529
14.5266	0.529
14.5665	0.529
14.6065	0.527
14.6465	0.527
14.6865	0.529
14.7264	0.529
14.7664	0.53
14.8064	0.532
14.8464	0.536
14.8863	0.541
14.9263	0.534
14.9663	0.53
15.0063	0.53
15.0462	0.532
15.0862	0.53
15.1262	0.532
15.1662	0.53
15.2062	0.532
15.2461	0.529
15.2861	0.527
15.3261	0.529
15.3661	0.53
15.406	0.532
15.446	0.537
15.486	0.542
15.526	0.547
15.5659	0.551
15.6059	0.552
15.6459	0.552
15.6859	0.556
15.7258	0.556
15.7658	0.557
15.8058	0.561
15.8458	0.569
15.8857	0.574
15.9257	0.576
15.9657	0.574
16.0057	0.574
