Infrared Spectrum: 1,2,5-SELENADIAZOLE-3-(N-BUTYLCARBOXAMIDE), 4-UREIDO-
Formula: C8 H13 N5 O2 Se
CAS: 7722-07-8
State: SOLID (1 mg / 650 mg KBr DISC)
Class: COBLENTZ III
Instrument: PERKIN-ELMER 221-G (GRATING)
Instrument parameters: FILTER CHANGES AT 2490, 980 CM^-^1, GRATING FOR 4000-1428 CM^-^1, NaCl PRISM FOR 1428-650 CM^-^1
Sampling: TRANSMISSION
Resolution: 4
Origin: SOUTHERN RESEARCH INST.
1/CM	TRANSMITTANCE
596.679	0.634
606.347	0.634
616.014	0.6324
625.682	0.631
635.35	0.6066
645.017	0.5878
654.685	0.6347
664.353	0.6443
674.02	0.5944
683.688	0.5457
693.356	0.5406
703.024	0.5831
712.691	0.6066
722.359	0.6023
732.027	0.59
741.694	0.5823
751.362	0.5084
761.03	0.5442
770.697	0.6064
780.365	0.5123
790.033	0.462
799.7	0.5452
809.368	0.5681
819.036	0.5855
828.703	0.6365
838.371	0.7083
848.039	0.7544
857.706	0.7687
867.374	0.778
877.042	0.781
886.71	0.7824
896.377	0.7771
906.045	0.7419
915.713	0.7517
925.38	0.769
935.048	0.7635
944.716	0.7492
954.383	0.729
964.051	0.7254
973.719	0.6657
983.386	0.6661
993.054	0.737
1002.72	0.745
1012.39	0.7364
1022.06	0.729
1031.72	0.727
1041.39	0.724
1051.06	0.7128
1060.73	0.706
1070.4	0.702
1080.06	0.6959
1089.73	0.6812
1099.4	0.6538
1109.07	0.6274
1118.73	0.5932
1128.4	0.546
1138.07	0.5181
1147.74	0.5555
1157.4	0.6203
1167.07	0.632
1176.74	0.6235
1186.41	0.5964
1196.08	0.5663
1205.74	0.3467
1215.41	0.3146
1225.08	0.3121
1234.75	0.4347
1244.41	0.5275
1254.08	0.5718
1263.75	0.5887
1273.42	0.5885
1283.08	0.5608
1292.75	0.5277
1302.42	0.4965
1312.09	0.4808
1321.76	0.4806
1331.42	0.4432
1341.09	0.3827
1350.76	0.3141
1360.43	0.2067
1370.09	0.1247
1379.76	0.1864
1389.43	0.2618
1399.1	0.3123
1408.76	0.4038
1418.43	0.4422
1428.1	0.4221
1437.77	0.3486
1447.44	0.3447
1457.1	0.2956
1466.77	0.2243
1476.44	0.219
1486.11	0.3659
1495.77	0.4337
1505.44	0.4364
1515.11	0.3627
1524.78	0.2462
1534.44	0.1147
1544.11	0.1309
1553.78	0.2501
1563.45	0.3899
1573.12	0.3883
1582.78	0.2765
1592.45	0.1609
1602.12	0.132
1611.79	0.2368
1621.45	0.3161
1631.12	0.2214
1640.79	0.0804
1650.46	0.0202
1660.12	0.0968
1669.79	0.2916
1679.46	0.375
1689.13	0.1606
1698.8	0.1026
1708.46	0.2321
1718.13	0.2488
1727.8	0.4119
1737.47	0.5672
1747.13	0.6361
1756.8	0.6719
1766.47	0.7039
1776.14	0.7276
1785.8	0.742
1795.47	0.7555
1805.14	0.7697
1814.81	0.7725
1824.47	0.7763
1834.14	0.785
1843.81	0.788
1853.48	0.7898
1863.15	0.793
1872.81	0.795
1882.48	0.7962
1892.15	0.797
1901.82	0.7989
1911.48	0.798
1921.15	0.795
1930.82	0.793
1940.49	0.7908
1950.15	0.788
1959.82	0.786
1969.49	0.785
1979.16	0.7826
1988.83	0.7807
1998.49	0.78
2008.16	0.779
2017.83	0.7779
2027.5	0.776
2037.16	0.7749
2046.83	0.772
2056.5	0.772
2066.17	0.77
2075.83	0.768
2085.5	0.766
2095.17	0.764
2104.84	0.7629
2114.51	0.7589
2124.17	0.756
2133.84	0.7551
2143.51	0.7591
2153.18	0.762
2162.84	0.7609
2172.51	0.759
2182.18	0.757
2191.85	0.756
2201.51	0.754
2211.18	0.753
2220.85	0.752
2230.52	0.751
2240.19	0.75
2249.85	0.749
2259.52	0.749
2269.19	0.748
2278.86	0.747
2288.52	0.744
2298.19	0.743
2307.86	0.741
2317.53	0.74
2327.19	0.739
2336.86	0.739
2346.53	0.738
2356.2	0.737
2365.87	0.7359
2375.53	0.735
2385.2	0.733
2394.87	0.731
2404.54	0.7299
2414.2	0.727
2423.87	0.727
2433.54	0.726
2443.21	0.7249
2452.87	0.723
2462.54	0.723
2472.21	0.723
2481.88	0.723
2491.55	0.722
2501.21	0.7209
2510.88	0.719
2520.55	0.7169
2530.22	0.714
2539.88	0.712
2549.55	0.71
2559.22	0.708
2568.89	0.7059
2578.55	0.7029
2588.22	0.7009
2597.89	0.6989
2607.56	0.697
2617.22	0.6949
2626.89	0.692
2636.56	0.6899
2646.23	0.686
2655.9	0.6839
2665.56	0.681
2675.23	0.6779
2684.9	0.6759
2694.57	0.673
2704.23	0.6709
2713.9	0.6689
2723.57	0.6659
2733.24	0.661
2742.9	0.6569
2752.57	0.6519
2762.24	0.6459
2771.91	0.6409
2781.58	0.636
2791.24	0.6318
2800.91	0.6229
2810.58	0.6159
2820.25	0.6049
2829.91	0.5949
2839.58	0.5757
2849.25	0.5416
2858.92	0.5036
2868.58	0.4961
2878.25	0.5141
2887.92	0.519
2897.59	0.5108
2907.26	0.4889
2916.92	0.4635
2926.59	0.4022
2936.26	0.4333
2945.93	0.4425
2955.59	0.3761
2965.26	0.4115
2974.93	0.4641
2984.6	0.5463
2994.26	0.568
3003.93	0.5619
3013.6	0.5529
3023.27	0.5449
3032.94	0.5328
3042.6	0.5199
3052.27	0.5109
3061.94	0.5049
3071.61	0.4979
3081.27	0.4898
3090.94	0.4728
3100.61	0.4498
3110.28	0.4217
3119.94	0.3867
3129.61	0.3567
3139.28	0.3295
3148.95	0.3191
3158.62	0.3261
3168.28	0.3341
3177.95	0.3421
3187.62	0.3481
3197.29	0.3541
3206.95	0.359
3216.62	0.3631
3226.29	0.365
3235.96	0.3517
3245.62	0.3207
3255.29	0.2928
3264.96	0.2698
3274.63	0.2487
3284.3	0.2298
3293.96	0.2128
3303.63	0.1849
3313.3	0.1799
3322.97	0.175
3332.63	0.1729
3342.3	0.1701
3351.97	0.2177
3361.64	0.2561
3371.3	0.2559
3380.97	0.2522
3390.64	0.2871
3400.31	0.3695
3409.98	0.4012
3419.64	0.4336
3429.31	0.4781
3438.98	0.4913
3448.65	0.5102
3458.31	0.5311
3467.98	0.5391
3477.65	0.546
3487.32	0.5491
3496.98	0.5541
3506.65	0.5682
3516.32	0.5821
3525.99	0.5931
3535.66	0.6001
3545.32	0.603
3554.99	0.6051
3564.66	0.6111
3574.33	0.619
3583.99	0.6251
3593.66	0.6341
3603.33	0.6421
3613	0.648
3622.66	0.6521
3632.33	0.6561
3642	0.657
3651.67	0.658
3661.33	0.659
3671	0.659
3680.67	0.659
3690.34	0.66
3700.01	0.661
3709.67	0.661
3719.34	0.661
3729.01	0.661
3738.68	0.66
3748.34	0.66
3758.01	0.66
3767.68	0.66
3777.35	0.66
3787.01	0.658
3796.68	0.6569
3806.35	0.6529
3816.02	0.6489
3825.69	0.645
3835.35	0.643
3845.02	0.642
3854.69	0.641
3864.36	0.64
3874.02	0.639
3883.69	0.639
3893.36	0.639
3903.03	0.638
3912.69	0.638
3922.36	0.638
3932.03	0.638
3941.7	0.638
3951.37	0.637
3961.03	0.637
3970.7	0.636
3980.37	0.636
3990.04	0.635
