Infrared Spectrum: 1,2,5-SELENADIAZOLE-3-CARBOXAMIDE, 4-AMINO-
Formula: C3 H4 N4 O Se
CAS: 7722-06-7
State: SOLID (1 mg / 500 mg KBr DISC)
Class: COBLENTZ III
Instrument: PERKIN-ELMER 621
Sampling: TRANSMISSION
Resolution: 4
Origin: SOUTHERN RESEARCH INSTITUTE
1/CM	TRANSMITTANCE
255.075	0.272
265.666	0.342
276.258	0.38
286.849	0.5858
297.441	0.615
308.032	0.63
318.623	0.635
329.215	0.657
339.806	0.686
350.398	0.701
360.989	0.711
371.581	0.718
382.172	0.718
392.763	0.717
403.355	0.713
413.946	0.709
424.538	0.694
435.129	0.669
445.72	0.564
456.312	0.525
466.903	0.571
477.495	0.615
488.086	0.61
498.678	0.631
509.269	0.678
519.86	0.69
530.452	0.686
541.043	0.684
551.635	0.681
562.226	0.678
572.817	0.676
583.409	0.678
594	0.688
604.592	0.705
615.183	0.719
625.775	0.715
636.366	0.703
646.957	0.676
657.549	0.677
668.14	0.7
678.732	0.792
689.323	0.806
699.914	0.798
710.506	0.76
721.097	0.707
731.689	0.727
742.28	0.7059
752.871	0.838
763.463	0.861
774.054	0.888
784.646	0.89
795.237	0.803
805.829	0.875
816.42	0.894
827.011	0.911
837.603	0.919
848.194	0.923
858.786	0.926
869.377	0.925
879.968	0.926
890.56	0.926
901.151	0.925
911.743	0.926
922.334	0.925
932.926	0.925
943.517	0.923
954.108	0.923
964.7	0.918
975.291	0.915
985.883	0.911
996.474	0.907
1007.07	0.898
1017.66	0.892
1028.25	0.89
1038.84	0.889
1049.43	0.878
1060.02	0.871
1070.61	0.842
1081.21	0.821
1091.8	0.819
1102.39	0.839
1112.98	0.836
1123.57	0.815
1134.16	0.785
1144.75	0.827
1155.35	0.869
1165.94	0.881
1176.53	0.888
1187.12	0.89
1197.71	0.892
1208.3	0.892
1218.89	0.892
1229.49	0.89
1240.08	0.888
1250.67	0.886
1261.26	0.888
1271.85	0.889
1282.44	0.888
1293.03	0.884
1303.63	0.878
1314.22	0.868
1324.81	0.85
1335.4	0.815
1345.99	0.743
1356.58	0.628
1367.17	0.7101
1377.76	0.777
1388.36	0.728
1398.95	0.763
1409.54	0.75
1420.13	0.601
1430.72	0.609
1441.31	0.755
1451.9	0.826
1462.5	0.85
1473.09	0.856
1483.68	0.851
1494.27	0.818
1504.86	0.74
1515.45	0.728
1526.04	0.757
1536.64	0.739
1547.23	0.625
1557.82	0.476
1568.41	0.339
1579	0.31
1589.59	0.35
1600.18	0.496
1610.78	0.671
1621.37	0.715
1631.96	0.714
1642.55	0.665
1653.14	0.534
1663.73	0.314
1674.32	0.222
1684.92	0.3602
1695.51	0.668
1706.1	0.847
1716.69	0.909
1727.28	0.934
1737.87	0.946
1748.46	0.953
1759.06	0.957
1769.65	0.961
1780.24	0.965
1790.83	0.968
1801.42	0.968
1812.01	0.967
1822.6	0.968
1833.2	0.968
1843.79	0.967
1854.38	0.967
1864.97	0.965
1875.56	0.963
1886.15	0.963
1896.74	0.963
1907.34	0.963
1917.93	0.963
1928.52	0.961
1939.11	0.96
1949.7	0.959
1960.29	0.957
1970.88	0.956
1981.48	0.953
1992.07	0.953
2002.66	0.951
2013.25	0.95
2023.84	0.948
2034.43	0.947
2045.02	0.947
2055.62	0.947
2066.21	0.947
2076.8	0.946
2087.39	0.946
2097.98	0.947
2108.57	0.946
2119.16	0.946
2129.76	0.946
2140.35	0.944
2150.94	0.943
2161.53	0.944
2172.12	0.943
2182.71	0.942
2193.3	0.942
2203.9	0.942
2214.49	0.94
2225.08	0.939
2235.67	0.938
2246.26	0.936
2256.85	0.936
2267.44	0.936
2278.04	0.936
2288.63	0.934
2299.22	0.932
2309.81	0.93
2320.4	0.927
2330.99	0.927
2341.58	0.926
2352.18	0.925
2362.77	0.926
2373.36	0.925
2383.95	0.925
2394.54	0.925
2405.13	0.925
2415.72	0.923
2426.31	0.922
2436.91	0.919
2447.5	0.917
2458.09	0.917
2468.68	0.915
2479.27	0.914
2489.86	0.911
2500.45	0.913
2511.05	0.911
2521.64	0.91
2532.23	0.909
2542.82	0.907
2553.41	0.905
2564	0.905
2574.59	0.903
2585.19	0.902
2595.78	0.901
2606.37	0.9
2616.96	0.897
2627.55	0.894
2638.14	0.892
2648.73	0.89
2659.33	0.888
2669.92	0.884
2680.51	0.882
2691.1	0.881
2701.69	0.878
2712.28	0.875
2722.87	0.872
2733.47	0.872
2744.06	0.873
2754.65	0.873
2765.24	0.873
2775.83	0.873
2786.42	0.873
2797.01	0.871
2807.61	0.868
2818.2	0.865
2828.79	0.863
2839.38	0.859
2849.97	0.856
2860.56	0.855
2871.15	0.853
2881.75	0.851
2892.34	0.847
2902.93	0.842
2913.52	0.831
2924.11	0.83
2934.7	0.828
2945.29	0.825
2955.89	0.823
2966.48	0.823
2977.07	0.822
2987.66	0.815
2998.25	0.811
3008.84	0.806
3019.43	0.8
3030.03	0.796
3040.62	0.788
3051.21	0.778
3061.8	0.769
3072.39	0.756
3082.98	0.74
3093.57	0.725
3104.17	0.709
3114.76	0.689
3125.35	0.661
3135.94	0.631
3146.53	0.602
3157.12	0.576
3167.71	0.56
3178.31	0.557
3188.9	0.551
3199.49	0.548
3210.08	0.55
3220.67	0.559
3231.26	0.567
3241.85	0.561
3252.45	0.547
3263.04	0.521
3273.63	0.51
3284.22	0.51
3294.81	0.509
3305.4	0.502
3315.99	0.496
3326.59	0.472
3337.18	0.453
3347.77	0.469
3358.36	0.502
3368.95	0.494
3379.54	0.478
3390.13	0.457
3400.73	0.44
3411.32	0.419
3421.91	0.406
3432.5	0.3839
3443.09	0.343
3453.68	0.335
3464.27	0.401
3474.86	0.446
3485.46	0.5501
3496.05	0.6171
3506.64	0.653
3517.23	0.675
3527.82	0.696
3538.41	0.71
3549	0.73
3559.6	0.747
3570.19	0.764
3580.78	0.782
3591.37	0.803
3601.96	0.817
3612.55	0.834
3623.14	0.847
3633.74	0.859
3644.33	0.861
3654.92	0.865
3665.51	0.861
3676.1	0.863
3686.69	0.869
3697.28	0.872
3707.88	0.872
3718.47	0.872
3729.06	0.873
3739.65	0.872
3750.24	0.871
3760.83	0.871
3771.42	0.868
3782.02	0.867
3792.61	0.867
3803.2	0.864
3813.79	0.863
3824.38	0.861
3834.97	0.86
3845.56	0.86
3856.16	0.859
3866.75	0.856
3877.34	0.855
3887.93	0.853
3898.52	0.853
3909.11	0.852
3919.7	0.851
3930.3	0.85
3940.89	0.85
3951.48	0.85
3962.07	0.848
3972.66	0.848
3983.25	0.848
3993.84	0.85
