Infrared Spectrum: 2,3-DIHYDRO-IH-PYRROLO[1,2-A] BENZIMIDAZOLE
Formula: C10 H10 N2
CAS: 7724-48-3
State: SOLID (KBr PRESSING)
Melting point: 114.5-116.5 C
Class: COBLENTZ
Instrument: Not specified, most likely a prism, grating, or hybrid spectrometer.
Sampling: TRANSMISSION
Resolution: 4
Origin: EASTMAN KODAK COMPANY, RESEARCH LABORATORIES, ROCHESTER, N.Y.
MICROMETERS	TRANSMITTANCE
2.027	0.541
2.06702	0.541
2.10704	0.554
2.14706	0.546
2.18708	0.543
2.2271	0.546
2.26711	0.559
2.30713	0.564
2.34715	0.564
2.38717	0.567
2.42719	0.571
2.46721	0.584
2.50723	0.582
2.54725	0.582
2.58727	0.592
2.62729	0.6
2.6673	0.62
2.70732	0.605
2.74734	0.59
2.78736	0.546
2.82738	0.523
2.8674	0.5
2.90742	0.513
2.94744	0.525
2.98746	0.551
3.02748	0.582
3.0675	0.592
3.10751	0.602
3.14753	0.61
3.18755	0.612
3.22757	0.613
3.26759	0.451
3.30761	0.564
3.34763	0.535
3.38765	0.522
3.42767	0.523
3.46769	0.582
3.50771	0.612
3.54772	0.635
3.58774	0.643
3.62776	0.662
3.66778	0.677
3.7078	0.664
3.74782	0.667
3.78784	0.687
3.82786	0.69
3.86788	0.689
3.9079	0.695
3.94791	0.692
3.98793	0.697
4.02795	0.702
4.06797	0.71
4.10799	0.716
4.14801	0.713
4.18803	0.713
4.22805	0.725
4.26807	0.723
4.30809	0.721
4.34811	0.721
4.38812	0.725
4.42814	0.723
4.46816	0.723
4.50818	0.729
4.5482	0.731
4.58822	0.739
4.62824	0.733
4.66826	0.729
4.70828	0.733
4.7483	0.736
4.78831	0.743
4.82833	0.739
4.86835	0.731
4.90837	0.749
4.94839	0.749
4.98841	0.752
5.02843	0.754
5.06845	0.759
5.10847	0.761
5.14849	0.759
5.18851	0.761
5.22852	0.749
5.26854	0.749
5.30856	0.716
5.34858	0.754
5.3886	0.747
5.42862	0.765
5.46864	0.765
5.50866	0.759
5.54868	0.762
5.5887	0.752
5.62872	0.731
5.66873	0.764
5.70875	0.772
5.74877	0.769
5.78879	0.751
5.82881	0.744
5.86883	0.741
5.90885	0.761
5.94887	0.769
5.98889	0.767
6.02891	0.764
6.06892	0.752
6.10894	0.754
6.14896	0.702
6.18898	0.569
6.229	0.661
6.26902	0.667
6.30904	0.734
6.34906	0.72
6.38908	0.752
6.4291	0.769
6.46912	0.779
6.50913	0.779
6.54915	0.523
6.58917	0.358
6.62919	0.574
6.66921	0.661
6.70923	0.574
6.74925	0.513
6.78927	0.567
6.82929	0.564
6.86931	0.325
6.90932	0.43
6.94934	0.513
6.98936	0.546
7.02938	0.612
7.0694	0.322
7.10942	0.399
7.14944	0.643
7.18946	0.684
7.22948	0.713
7.2695	0.553
7.30952	0.581
7.34953	0.692
7.38955	0.738
7.42957	0.772
7.46959	0.751
7.50961	0.563
7.54963	0.605
7.58965	0.711
7.62967	0.72
7.66969	0.474
7.70971	0.374
7.74973	0.579
7.78974	0.641
7.82976	0.243
7.86978	0.563
7.9098	0.671
7.94982	0.689
7.98984	0.7
8.02986	0.692
8.06988	0.7
8.1099	0.72
8.14992	0.702
8.18993	0.659
8.22995	0.407
8.26997	0.472
8.30999	0.63
8.35001	0.628
8.39003	0.674
8.43005	0.72
8.47007	0.746
8.51009	0.751
8.55011	0.729
8.59013	0.702
8.63014	0.733
8.67016	0.728
8.71018	0.657
8.7502	0.713
8.79022	0.718
8.83024	0.621
8.87026	0.718
8.91028	0.752
8.9503	0.767
8.99032	0.782
9.03033	0.777
9.07035	0.777
9.11037	0.741
9.15039	0.765
9.19041	0.777
9.23043	0.787
9.27045	0.783
9.31047	0.793
9.35049	0.79
9.39051	0.785
9.43053	0.79
9.47054	0.798
9.51056	0.788
9.55058	0.798
9.5906	0.801
9.63062	0.793
9.67064	0.801
9.71066	0.801
9.75068	0.801
9.7907	0.8
9.83072	0.79
9.87074	0.78
9.91075	0.708
9.95077	0.608
9.99079	0.617
10.0308	0.715
10.0708	0.769
10.1108	0.779
10.1509	0.798
10.1909	0.795
10.2309	0.797
10.2709	0.797
10.3109	0.8
10.351	0.801
10.391	0.779
10.431	0.747
10.471	0.751
10.511	0.761
10.5511	0.777
10.5911	0.792
10.6311	0.795
10.6711	0.779
10.7111	0.636
10.7512	0.649
10.7912	0.749
10.8312	0.798
10.8712	0.798
10.9112	0.819
10.9512	0.81
10.9913	0.806
11.0313	0.81
11.0713	0.8
11.1113	0.78
11.1513	0.782
11.1914	0.779
11.2314	0.787
11.2714	0.793
11.3114	0.808
11.3514	0.808
11.3915	0.806
11.4315	0.816
11.4715	0.819
11.5115	0.824
11.5515	0.826
11.5916	0.826
11.6316	0.823
11.6716	0.81
11.7116	0.787
11.7516	0.738
11.7916	0.654
11.8317	0.738
11.8717	0.772
11.9117	0.797
11.9517	0.8
11.9917	0.798
12.0318	0.806
12.0718	0.801
12.1118	0.798
12.1518	0.792
12.1918	0.788
12.2319	0.798
12.2719	0.787
12.3119	0.787
12.3519	0.772
12.3919	0.779
12.432	0.779
12.472	0.78
12.512	0.782
12.552	0.782
12.592	0.788
12.6321	0.782
12.6721	0.783
12.7121	0.777
12.7521	0.777
12.7921	0.77
12.8321	0.765
12.8722	0.756
12.9122	0.749
12.9522	0.718
12.9922	0.595
13.0322	0.337
13.0723	0.608
13.1123	0.698
13.1523	0.715
13.1923	0.7
13.2323	0.685
13.2724	0.674
13.3124	0.662
13.3524	0.509
13.3924	0.448
13.4324	0.471
13.4725	0.271
13.5125	0.091
13.5525	0.045
13.5925	0.101
13.6325	0.345
13.6725	0.477
13.7126	0.551
13.7526	0.602
13.7926	0.639
13.8326	0.664
13.8726	0.69
13.9127	0.69
13.9527	0.69
13.9927	0.711
14.0327	0.721
14.0727	0.723
14.1128	0.723
14.1528	0.721
14.1928	0.72
14.2328	0.726
14.2728	0.726
14.3129	0.723
14.3529	0.723
14.3929	0.728
14.4329	0.736
14.4729	0.747
14.5129	0.751
14.553	0.769
14.593	0.775
14.633	0.779
14.673	0.77
14.713	0.779
14.7531	0.775
14.7931	0.785
14.8331	0.783
14.8731	0.785
14.9131	0.785
14.9532	0.779
14.9932	0.769
15.0332	0.77
15.0732	0.775
15.1132	0.779
15.1533	0.779
15.1933	0.779
15.2333	0.78
15.2733	0.775
15.3133	0.774
15.3533	0.774
15.3934	0.769
15.4334	0.769
15.4734	0.762
15.5134	0.761
15.5534	0.746
15.5935	0.747
15.6335	0.743
15.6735	0.738
15.7135	0.731
15.7535	0.726
15.7936	0.718
15.8336	0.716
15.8736	0.715
15.9136	0.698
15.9536	0.697
15.9937	0.695
