Infrared Spectrum: 5,7-DICHLORO-8-QUINOLINOL
Formula: C9 H5 Cl2 N O
CAS: 773-76-2
State: SOLID (OIL MULL)
Class: COBLENTZ
Instrument: Not specified, most likely a prism, grating, or hybrid spectrometer.
Sampling: TRANSMISSION
Resolution: 4
Origin: WYANDOTTE CHEMICALS CORP., WYANDOTTE, MICHIGAN, USA
MICROMETERS	TRANSMITTANCE
2.021	0.215
2.06096	0.227
2.10091	0.237
2.14087	0.25
2.18082	0.26
2.22078	0.26
2.26074	0.26
2.30069	0.267
2.34065	0.272
2.3806	0.292
2.42056	0.298
2.46052	0.313
2.50047	0.337
2.54043	0.348
2.58038	0.353
2.62034	0.375
2.6603	0.383
2.70025	0.398
2.74021	0.415
2.78017	0.432
2.82012	0.442
2.86008	0.449
2.90003	0.452
2.93999	0.455
2.97995	0.447
3.0199	0.405
3.05986	0.298
3.09981	0.2
3.13977	0.136
3.17973	0.111
3.21968	0.105
3.25964	0.1
3.29959	0.096
3.33955	0.066
3.37951	0.031
3.41946	0.031
3.45942	0.031
3.49937	0.033
3.53933	0.045
3.57929	0.208
3.61924	0.293
3.6592	0.335
3.69915	0.363
3.73911	0.387
3.77907	0.414
3.81902	0.442
3.85898	0.46
3.89893	0.482
3.93889	0.514
3.97885	0.535
4.0188	0.56
4.05876	0.577
4.09871	0.606
4.13867	0.614
4.17863	0.621
4.21858	0.629
4.25854	0.636
4.2985	0.642
4.33845	0.656
4.37841	0.692
4.41836	0.724
4.45832	0.736
4.49828	0.749
4.53823	0.759
4.57819	0.771
4.61814	0.777
4.6581	0.791
4.69806	0.808
4.73801	0.824
4.77797	0.833
4.81792	0.843
4.85788	0.848
4.89784	0.854
4.93779	0.861
4.97775	0.874
5.0177	0.881
5.05766	0.888
5.09762	0.869
5.13757	0.866
5.17753	0.881
5.21748	0.883
5.25744	0.898
5.2974	0.903
5.33735	0.924
5.37731	0.933
5.41726	0.949
5.45722	0.946
5.49718	0.959
5.53713	0.954
5.57709	0.949
5.61704	0.958
5.657	0.914
5.69696	0.909
5.73691	0.879
5.77687	0.853
5.81683	0.853
5.85678	0.864
5.89674	0.879
5.93669	0.864
5.97665	0.848
6.01661	0.801
6.05656	0.808
6.09652	0.759
6.13647	0.544
6.17643	0.644
6.21639	0.721
6.25634	0.485
6.2963	0.409
6.33625	0.669
6.37621	0.769
6.41617	0.888
6.45612	0.886
6.49608	0.899
6.53603	0.881
6.57599	0.797
6.61595	0.31
6.6559	0.053
6.69586	0.227
6.73581	0.247
6.77577	0.016
6.81573	0.041
6.85568	0.048
6.89564	0.1
6.93559	0.202
6.97555	0.292
7.01551	0.232
7.05546	0.116
7.09542	0.038
7.13537	0.045
7.17533	0.053
7.21529	0.045
7.25524	0.033
7.2952	0.048
7.33516	0.141
7.37511	0.148
7.41507	0.086
7.45502	0.043
7.49498	0.051
7.53494	0.15
7.57489	0.283
7.61485	0.425
7.6548	0.519
7.69476	0.46
7.73472	0.398
7.77467	0.313
7.81463	0.093
7.85458	0.151
7.89454	0.352
7.9345	0.43
7.97445	0.502
8.01441	0.497
8.05436	0.47
8.09432	0.171
8.13428	0.121
8.17423	0.141
8.21419	0.202
8.25414	0.2
8.2941	0.233
8.33406	0.233
8.37401	0.12
8.41397	0.39
8.45392	0.452
8.49388	0.48
8.53384	0.499
8.57379	0.512
8.61375	0.557
8.6537	0.582
8.69366	0.514
8.73362	0.27
8.77357	0.627
8.81353	0.727
8.85349	0.762
8.89344	0.769
8.9334	0.797
8.97335	0.803
9.01331	0.826
9.05327	0.819
9.09322	0.756
9.13318	0.749
9.17313	0.771
9.21309	0.786
9.25305	0.803
9.293	0.819
9.33296	0.831
9.37291	0.829
9.41287	0.813
9.45283	0.632
9.49278	0.263
9.53274	0.622
9.57269	0.782
9.61265	0.799
9.65261	0.791
9.69256	0.839
9.73252	0.864
9.77247	0.873
9.81243	0.879
9.85239	0.891
9.89234	0.891
9.9323	0.893
9.97225	0.898
10.0122	0.864
10.0522	0.796
10.0921	0.838
10.1321	0.853
10.172	0.863
10.212	0.849
10.2519	0.799
10.2919	0.754
10.3319	0.642
10.3718	0.419
10.4118	0.105
10.4517	0.053
10.4917	0.166
10.5316	0.387
10.5716	0.582
10.6116	0.669
10.6515	0.706
10.6915	0.742
10.7314	0.764
10.7714	0.784
10.8113	0.794
10.8513	0.803
10.8912	0.803
10.9312	0.781
10.9712	0.712
11.0111	0.774
11.0511	0.803
11.091	0.819
11.131	0.828
11.1709	0.814
11.2109	0.779
11.2508	0.659
11.2908	0.348
11.3308	0.23
11.3707	0.297
11.4107	0.348
11.4506	0.4
11.4906	0.549
11.5305	0.594
11.5705	0.5
11.6105	0.293
11.6504	0.38
11.6904	0.555
11.7303	0.617
11.7703	0.642
11.8102	0.651
11.8502	0.661
11.8901	0.661
11.9301	0.654
11.9701	0.627
12.01	0.535
12.05	0.509
12.0899	0.595
12.1299	0.639
12.1698	0.667
12.2098	0.634
12.2497	0.507
12.2897	0.198
12.3297	0.038
12.3696	0.128
12.4096	0.282
12.4495	0.382
12.4895	0.435
12.5294	0.445
12.5694	0.445
12.6094	0.42
12.6493	0.328
12.6893	0.135
12.7292	0.15
12.7692	0.434
12.8091	0.644
12.8491	0.679
12.889	0.682
12.929	0.684
12.969	0.696
13.0089	0.702
13.0489	0.709
13.0888	0.697
13.1288	0.664
13.1687	0.619
13.2087	0.555
13.2487	0.499
13.2886	0.435
13.3286	0.437
13.3685	0.45
13.4085	0.48
13.4484	0.509
13.4884	0.519
13.5283	0.549
13.5683	0.597
13.6083	0.636
13.6482	0.664
13.6882	0.656
13.7281	0.572
13.7681	0.429
13.808	0.285
13.848	0.215
13.8879	0.193
13.9279	0.312
13.9679	0.484
14.0078	0.647
14.0478	0.726
14.0877	0.789
14.1277	0.838
14.1676	0.863
14.2076	0.891
14.2476	0.901
14.2875	0.916
14.3275	0.931
14.3674	0.933
14.4074	0.943
14.4473	0.949
14.4873	0.951
14.5272	0.951
14.5672	0.944
14.6072	0.936
14.6471	0.931
14.6871	0.931
14.727	0.921
14.767	0.918
14.8069	0.913
14.8469	0.918
14.8868	0.919
14.9268	0.908
14.9668	0.879
15.0067	0.808
15.0467	0.691
15.0866	0.644
15.1266	0.641
15.1665	0.602
15.2065	0.519
15.2465	0.383
15.2864	0.29
15.3264	0.257
15.3663	0.327
15.4063	0.412
15.4462	0.515
15.4862	0.572
15.5261	0.612
15.5661	0.634
15.6061	0.649
15.646	0.657
15.686	0.657
15.7259	0.649
15.7659	0.637
15.8058	0.619
15.8458	0.585
15.8858	0.547
15.9257	0.51
15.9657	0.497
