Infrared Spectrum: 2-Mesitylenesulfonyl chloride
Formula: C9 H11 Cl O2 S
CAS: 773-64-8
State: SOLID (SPLIT MULL), FLUOROLUBE FOR 3800-1330 CM^-^1, NUJOL FOR 1330-400 CM^-^1
Melting point: 51 C
Class: COBLENTZ III
Instrument: DOW KBr FOREPRISM-GRATING
Instrument parameters: BLAZED AT 3.5, 12.0, 20.0 MICRON AND CHANGED AT 5.0, 7.5, 14.9 MICRON
Sampling: TRANSMISSION
Resolution: 2
Origin: DOW CHEMICAL COMPANY
1/CM	TRANSMITTANCE
3798	0.625
3789	0.6251
3780	0.6253
3771	0.6254
3762	0.6257
3753	0.626
3744	0.6272
3735	0.6286
3726	0.6301
3717	0.6328
3708	0.6355
3699	0.6371
3690	0.6387
3681	0.6396
3672	0.6399
3663	0.6401
3654	0.6415
3645	0.6428
3636	0.6447
3627	0.6471
3618	0.6488
3609	0.6501
3600	0.6508
3591	0.651
3582	0.6506
3573	0.6503
3564	0.6508
3555	0.6512
3546	0.6517
3537	0.6515
3528	0.6514
3519	0.6511
3510	0.651
3501	0.6507
3492	0.6504
3483	0.6501
3474	0.6501
3465	0.6505
3456	0.6508
3447	0.651
3438	0.6514
3429	0.6517
3420	0.6521
3411	0.6525
3402	0.6531
3393	0.6538
3384	0.6547
3375	0.6557
3366	0.6567
3357	0.6575
3348	0.6583
3339	0.6591
3330	0.6599
3321	0.6608
3312	0.6617
3303	0.6625
3294	0.6636
3285	0.6645
3276	0.6654
3267	0.6665
3258	0.6675
3249	0.6685
3240	0.6695
3231	0.6707
3222	0.6718
3213	0.673
3204	0.6743
3195	0.6757
3186	0.6772
3177	0.6787
3168	0.6801
3159	0.6815
3150	0.6828
3141	0.6847
3132	0.6865
3123	0.6885
3114	0.6904
3105	0.6921
3096	0.694
3087	0.6953
3078	0.6965
3069	0.6958
3060	0.6935
3051	0.6888
3042	0.6821
3033	0.6715
3024	0.6672
3015	0.6721
3006	0.6736
2997	0.6535
2988	0.6212
2979	0.5907
2970	0.6451
2961	0.6599
2952	0.6618
2943	0.6246
2934	0.6488
2925	0.6498
2916	0.6592
2907	0.6715
2898	0.6822
2889	0.6903
2880	0.6934
2871	0.6932
2862	0.6946
2853	0.6978
2844	0.7011
2835	0.7044
2826	0.7089
2817	0.7132
2808	0.7172
2799	0.7212
2790	0.7251
2781	0.7291
2772	0.7328
2763	0.7361
2754	0.7364
2745	0.7344
2736	0.7347
2727	0.7365
2718	0.7391
2709	0.7415
2700	0.7442
2691	0.7468
2682	0.7494
2673	0.7518
2664	0.7539
2655	0.7558
2646	0.758
2637	0.7599
2628	0.7618
2619	0.7638
2610	0.7658
2601	0.7661
2592	0.7668
2583	0.7671
2574	0.7671
2565	0.7671
2556	0.7672
2547	0.7674
2538	0.7676
2529	0.7695
2520	0.7717
2511	0.7743
2502	0.7764
2493	0.7775
2484	0.7782
2475	0.7788
2466	0.779
2457	0.7791
2448	0.7787
2439	0.7783
2430	0.7778
2421	0.7775
2412	0.7775
2403	0.7798
2394	0.7825
2385	0.7853
2376	0.7878
2367	0.7885
2358	0.7887
2349	0.7875
2340	0.7862
2331	0.7856
2322	0.7875
2313	0.79
2304	0.7917
2295	0.7928
2286	0.794
2277	0.7951
2268	0.7964
2259	0.7978
2250	0.7995
2241	0.8011
2232	0.803
2223	0.8047
2214	0.8064
2205	0.808
2196	0.8097
2187	0.8118
2178	0.8144
2169	0.8171
2160	0.8203
2151	0.8224
2142	0.8244
2133	0.8263
2124	0.828
2115	0.8296
2106	0.8313
2097	0.8331
2088	0.8346
2079	0.8357
2070	0.8359
2061	0.8359
2052	0.836
2043	0.8391
2034	0.8418
2025	0.8439
2016	0.8439
2007	0.8425
1998	0.8444
1989	0.8471
1980	0.8496
1971	0.8516
1962	0.8531
1953	0.8549
1944	0.8549
1935	0.855
1926	0.8558
1917	0.8565
1908	0.8585
1899	0.8603
1890	0.855
1881	0.8532
1872	0.8571
1863	0.8577
1854	0.8587
1845	0.8597
1836	0.8595
1827	0.8596
1818	0.8601
1809	0.8599
1800	0.8609
1791	0.8618
1782	0.8664
1773	0.8628
1764	0.8617
1755	0.8659
1746	0.865
1737	0.8603
1728	0.8598
1719	0.8649
1710	0.869
1701	0.8675
1692	0.8658
1683	0.8671
1674	0.867
1665	0.873
1656	0.8781
1647	0.879
1638	0.8832
1629	0.8868
1620	0.8857
1611	0.8281
1602	0.6157
1593	0.6986
1584	0.7508
1575	0.7465
1566	0.7397
1557	0.7804
1548	0.8018
1539	0.8018
1530	0.8104
1521	0.8283
1512	0.8398
1503	0.8421
1494	0.839
1485	0.8284
1476	0.7739
1467	0.6987
1458	0.6583
1449	0.6406
1440	0.703
1431	0.7618
1422	0.7674
1413	0.7571
1404	0.7085
1395	0.6962
1386	0.5262
1377	0.3189
1368	0.3184
1359	0.5438
1350	0.5996
1341	0.6622
1332	0.7005
1323	0.7261
1314	0.7325
1305	0.7297
1296	0.6576
1287	0.7046
1278	0.7006
1269	0.7257
1260	0.7319
1251	0.7197
1242	0.7028
1233	0.6941
1224	0.6815
1215	0.6522
1206	0.6298
1197	0.5122
1188	0.2706
1179	0.1451
1170	0.41
1161	0.5774
1152	0.6437
1143	0.6955
1134	0.7297
1125	0.7428
1116	0.7506
1107	0.7486
1098	0.718
1089	0.7262
1080	0.7484
1071	0.7444
1062	0.7307
1053	0.7041
1044	0.6688
1035	0.6101
1026	0.6462
1017	0.7111
1008	0.7451
999	0.7608
990	0.7708
981	0.7762
972	0.784
963	0.7797
954	0.7905
945	0.7938
936	0.7945
927	0.7982
918	0.8025
909	0.8064
900	0.8072
891	0.7971
882	0.7878
873	0.7975
864	0.7961
855	0.7136
846	0.8051
837	0.8408
828	0.8494
819	0.8562
810	0.8603
801	0.8636
792	0.8659
783	0.8671
774	0.8649
765	0.8644
756	0.862
747	0.8571
738	0.8511
729	0.8349
720	0.824
711	0.8078
702	0.7868
693	0.8332
684	0.8111
675	0.8392
666	0.8554
657	0.6621
648	0.3034
639	0.6358
630	0.7578
621	0.8288
612	0.8436
603	0.8165
594	0.7058
585	0.2919
576	0.551
567	0.5712
558	0.8045
549	0.7989
540	0.6514
531	0.5843
522	0.2774
513	0.6067
504	0.8433
495	0.87
486	0.883
477	0.8858
468	0.8823
459	0.8775
450	0.8718
441	0.8657
432	0.8575
423	0.8478
414	0.8368
405	0.8227
396	0.8121
387	0.8042
