Infrared Spectrum: PENTAFLUOROBENZONITRILE
Formula: C7 F5 N
CAS: 773-82-0
State: SOLUTION (10% CCl4 FOR 3800-1330, 10% CS2 FOR 1330-400 CM^-^1)
Boiling point: 162 C
Class: COBLENTZ III
Instrument: BECKMAN IR-9 (GRATING)
Instrument parameters: ORDER CHANGES: 670, 1200, 2000 CM^-^1
Sampling: TRANSMISSION
Path length: 0.010 CM, 0.011 CM
Resolution: 2
Origin: DOW CHEMICAL COMPANY
1/CM	TRANSMITTANCE
423.083	0.529
431.849	0.602
440.614	0.717
449.38	0.775
458.145	0.809
466.911	0.646
475.676	0.85
484.442	0.897
493.207	0.915
501.973	0.931
510.738	0.94
519.504	0.944
528.269	0.945
537.035	0.938
545.801	0.946
554.566	0.951
563.332	0.953
572.097	0.953
580.863	0.956
589.628	0.961
598.394	0.961
607.159	0.955
615.925	0.956
624.69	0.96
633.456	0.951
642.221	0.929
650.987	0.836
659.752	0.887
668.518	0.945
677.284	0.961
686.049	0.97
694.815	0.98
703.58	0.989
712.346	0.998
721.111	0.997
729.877	0.795
738.642	0.98
747.408	0.985
756.173	0.985
764.939	0.986
773.704	0.985
782.47	0.965
791.236	0.917
800.001	0.963
808.767	0.975
817.532	0.979
826.298	0.98
835.063	0.965
843.829	0.925
852.594	0.816
861.36	0.8
870.125	0.836
878.891	0.866
887.656	0.889
896.422	0.853
905.187	0.914
913.953	0.917
922.719	0.7979
931.484	0.44
940.25	0.631
949.015	0.4649
957.781	0.004
966.546	0.687
975.312	0.6161
984.077	0.6919
992.843	0.107
1001.61	0
1010.37	0.0511
1019.14	0.413
1027.91	0.729
1036.67	0.6339
1045.44	0.6771
1054.2	0.87
1062.97	0.927
1071.73	0.946
1080.5	0.952
1089.26	0.927
1098.03	0.925
1106.79	0.911
1115.56	0.7419
1124.33	0.73
1133.09	0.4546
1141.86	0.3174
1150.62	0.838
1159.39	0.866
1168.15	0.893
1176.92	0.931
1185.68	0.946
1194.45	0.9099
1203.22	0.931
1211.98	0.951
1220.75	0.948
1229.51	0.953
1238.28	0.953
1247.04	0.953
1255.81	0.936
1264.57	0.829
1273.34	0.904
1282.11	0.812
1290.87	0.91
1299.64	0.929
1308.4	0.912
1317.17	0.897
1325.93	0.4508
1334.7	0.7341
1343.46	0.908
1352.23	0.944
1361	0.949
1369.76	0.91
1378.53	0.8006
1387.29	0.8511
1396.06	0.934
1404.82	0.944
1413.59	0.914
1422.35	0.931
1431.12	0.908
1439.89	0.8609
1448.65	0.393
1457.42	0.88
1466.18	0.878
1474.95	0.835
1483.71	0.778
1492.48	0.6499
1501.24	0.1459
1510.01	0.002
1518.78	0.002
1527.54	0.0171
1536.31	0.186
1545.07	0.315
1553.84	0.327
1562.6	0.4721
1571.37	0.561
1580.13	0.598
1588.9	0.635
1597.66	0.726
1606.43	0.8051
1615.2	0.889
1623.96	0.902
1632.73	0.836
1641.49	0.7359
1650.26	0.4168
1659.02	0.6852
1667.79	0.882
1676.55	0.882
1685.32	0.775
1694.09	0.848
1702.85	0.923
1711.62	0.941
1720.38	0.949
1729.15	0.919
1737.91	0.944
1746.68	0.948
1755.44	0.866
1764.21	0.949
1772.98	0.963
1781.74	0.965
1790.51	0.97
1799.27	0.975
1808.04	0.976
1816.8	0.976
1825.57	0.975
1834.33	0.96
1843.1	0.959
1851.87	0.967
1860.63	0.971
1869.4	0.971
1878.16	0.976
1886.93	0.979
1895.69	0.976
1904.46	0.976
1913.22	0.972
1921.99	0.971
1930.76	0.975
1939.52	0.98
1948.29	0.979
1957.05	0.979
1965.82	0.98
1974.58	0.979
1983.35	0.976
1992.11	0.979
2000.88	0.9635
2009.65	0.97
2018.41	0.972
2027.18	0.972
2035.94	0.9655
2044.71	0.941
2053.47	0.9429
2062.24	0.953
2071	0.9635
2079.77	0.971
2088.53	0.9715
2097.3	0.972
2106.07	0.9675
2114.83	0.9572
2123.6	0.9623
2132.36	0.975
2141.13	0.9693
2149.89	0.976
2158.66	0.974
2167.42	0.9683
2176.19	0.9769
2184.96	0.98
2193.72	0.983
2202.49	0.983
2211.25	0.985
2220.02	0.985
2228.78	0.9772
2237.55	0.9606
2246.31	0.6962
2255.08	0.8893
2263.85	0.9392
2272.61	0.9232
2281.38	0.9122
2290.14	0.9389
2298.91	0.955
2307.67	0.959
2316.44	0.9611
2325.2	0.9657
2333.97	0.9704
2342.74	0.9727
2351.5	0.976
2360.27	0.98
2369.03	0.9823
2377.8	0.9853
2386.56	0.9843
2395.33	0.982
2404.09	0.98
2412.86	0.978
2421.63	0.967
2430.39	0.964
2439.16	0.9517
2447.92	0.9129
2456.69	0.9446
2465.45	0.951
2474.22	0.951
2482.98	0.9468
2491.75	0.903
2500.52	0.9659
2509.28	0.976
2518.05	0.971
2526.81	0.965
2535.58	0.9686
2544.34	0.9644
2553.11	0.959
2561.87	0.959
2570.64	0.9585
2579.4	0.959
2588.17	0.961
2596.94	0.963
2605.7	0.964
2614.47	0.9725
2623.23	0.9755
2632	0.9693
2640.76	0.9512
2649.53	0.885
2658.29	0.9353
2667.06	0.9443
2675.83	0.9378
2684.59	0.9364
2693.36	0.9676
2702.12	0.972
2710.89	0.9718
2719.65	0.971
2728.42	0.9724
2737.18	0.98
2745.95	0.9816
2754.72	0.9816
2763.48	0.9788
2772.25	0.9696
2781.01	0.9638
2789.78	0.9627
2798.54	0.9562
2807.31	0.9723
2816.07	0.9782
2824.84	0.979
2833.61	0.976
2842.37	0.9718
2851.14	0.964
2859.9	0.963
2868.67	0.9641
2877.43	0.968
2886.2	0.971
2894.96	0.9696
2903.73	0.9649
2912.5	0.961
2921.26	0.9569
2930.03	0.9519
2938.79	0.949
2947.56	0.9451
2956.32	0.9038
2965.09	0.9234
2973.85	0.9523
2982.62	0.9601
2991.39	0.9673
3000.15	0.972
3008.92	0.976
3017.68	0.976
3026.45	0.9739
3035.21	0.9609
3043.98	0.9591
3052.74	0.9682
3061.51	0.972
3070.27	0.9721
3079.04	0.974
3087.81	0.974
3096.57	0.975
3105.34	0.975
3114.1	0.975
3122.87	0.975
3131.63	0.975
3140.4	0.972
3149.16	0.96
3157.93	0.972
3166.7	0.975
3175.46	0.976
3184.23	0.976
3192.99	0.972
3201.76	0.968
3210.52	0.975
3219.29	0.976
3228.05	0.976
3236.82	0.976
3245.59	0.976
3254.35	0.976
3263.12	0.976
3271.88	0.976
3280.65	0.976
3289.41	0.975
3298.18	0.974
3306.94	0.974
3315.71	0.974
3324.48	0.9749
3333.24	0.975
3342.01	0.975
3350.77	0.975
3359.54	0.975
3368.3	0.975
3377.07	0.975
3385.83	0.975
3394.6	0.975
3403.37	0.975
3412.13	0.975
3420.9	0.975
3429.66	0.975
3438.43	0.975
3447.19	0.975
3455.96	0.975
3464.72	0.976
3473.49	0.978
3482.26	0.978
3491.02	0.978
3499.79	0.978
3508.55	0.978
3517.32	0.978
3526.08	0.978
3534.85	0.978
3543.61	0.979
3552.38	0.98
3561.14	0.98
3569.91	0.98
3578.68	0.9782
3587.44	0.9742
3596.21	0.98
3604.97	0.9792
3613.74	0.9735
3622.5	0.979
3631.27	0.982
3640.03	0.9846
3648.8	0.985
3657.57	0.986
3666.33	0.986
3675.1	0.986
3683.86	0.9834
3692.63	0.9756
3701.39	0.9758
3710.16	0.9828
3718.92	0.986
3727.69	0.9868
3736.46	0.987
3745.22	0.989
3753.99	0.989
3762.75	0.989
3771.52	0.989
3780.28	0.987
3789.05	0.987
3797.81	0.987
3806.58	0.987
