Infrared Spectrum: Phosphonic acid, benzyl-, dimethyl ester
Formula: C9 H13 O3 P
CAS: 773-47-7
State: LIQUID (NEAT)
Class: COBLENTZ III
Instrument: PERKIN-ELMER 21 (GRATING)
Instrument parameters: FILTER CHANGE ABOUT 1085 CM^-^1
Path length: CAPILLARY
Resolution: 2
Origin: SOUTHERN RESEARCH INSTITUTE
1/CM	TRANSMITTANCE
603	0.8331
611	0.8332
619	0.8445
627	0.8551
635	0.8804
643	0.8932
651	0.903
659	0.9083
667	0.9105
675	0.9099
683	0.9012
691	0.8096
699	0.5437
707	0.5977
715	0.7388
723	0.8728
731	0.8712
739	0.8527
747	0.8216
755	0.7472
763	0.7805
771	0.7991
779	0.7287
787	0.6142
795	0.5863
803	0.666
811	0.596
819	0.5618
827	0.5452
835	0.4352
843	0.4905
851	0.4757
859	0.4511
867	0.4744
875	0.6977
883	0.7987
891	0.8101
899	0.8075
907	0.788
915	0.7522
923	0.7724
931	0.8046
939	0.8141
947	0.8139
955	0.8111
963	0.8023
971	0.7917
979	0.7832
987	0.7632
995	0.7189
1003	0.6572
1011	0.5801
1019	0.2308
1027	0.0922
1035	0.0939
1043	0.16
1051	0.1479
1059	0.1471
1067	0.2763
1075	0.4553
1083	0.6154
1091	0.6909
1099	0.719
1107	0.7459
1115	0.7586
1123	0.7587
1131	0.7552
1139	0.757
1147	0.7551
1155	0.7413
1163	0.7181
1171	0.6873
1179	0.6157
1187	0.5636
1195	0.5768
1203	0.6697
1211	0.6991
1219	0.6584
1227	0.513
1235	0.451
1243	0.3458
1251	0.2795
1259	0.3029
1267	0.3636
1275	0.4088
1283	0.576
1291	0.722
1299	0.7618
1307	0.7833
1315	0.7941
1323	0.7992
1331	0.8109
1339	0.8138
1347	0.8194
1355	0.8254
1363	0.8271
1371	0.823
1379	0.8157
1387	0.8037
1395	0.7775
1403	0.7552
1411	0.7523
1419	0.7831
1427	0.7885
1435	0.7713
1443	0.7356
1451	0.6705
1459	0.6151
1467	0.6858
1475	0.7358
1483	0.7544
1491	0.6971
1499	0.6065
1507	0.7889
1515	0.7939
1523	0.7971
1531	0.8005
1539	0.7908
1547	0.7933
1555	0.7935
1563	0.7959
1571	0.7983
1579	0.7867
1587	0.782
1595	0.7627
1603	0.7304
1611	0.7843
1619	0.7845
1627	0.7851
1635	0.7848
1643	0.7838
1651	0.7802
1659	0.7906
1667	0.792
1675	0.7932
1683	0.7934
1691	0.7931
1699	0.7923
1707	0.7914
1715	0.7908
1723	0.7902
1731	0.7897
1739	0.7897
1747	0.79
1755	0.791
1763	0.7925
1771	0.7943
1779	0.7894
1787	0.788
1795	0.7879
1803	0.7892
1811	0.7893
1819	0.7837
1827	0.7871
1835	0.7907
1843	0.791
1851	0.7914
1859	0.79
1867	0.7879
1875	0.7875
1883	0.7879
1891	0.7884
1899	0.789
1907	0.7892
1915	0.7889
1923	0.7895
1931	0.7904
1939	0.7916
1947	0.7929
1955	0.7917
1963	0.7883
1971	0.7879
1979	0.7905
1987	0.7928
1995	0.7941
2003	0.7947
2011	0.7945
2019	0.7942
2027	0.7939
2035	0.7937
2043	0.7935
2051	0.7937
2059	0.794
2067	0.7953
2075	0.7969
2083	0.7985
2091	0.7993
2099	0.7997
2107	0.7997
2115	0.7999
2123	0.8008
2131	0.8016
2139	0.8017
2147	0.8015
2155	0.8008
2163	0.7981
2171	0.7951
2179	0.7937
2187	0.7932
2195	0.7931
2203	0.7934
2211	0.7937
2219	0.7941
2227	0.7962
2235	0.7983
2243	0.798
2251	0.7959
2259	0.794
2267	0.7937
2275	0.7936
2283	0.7928
2291	0.792
2299	0.7911
2307	0.7902
2315	0.7893
2323	0.7887
2331	0.7882
2339	0.788
2347	0.7908
2355	0.7919
2363	0.7925
2371	0.7919
2379	0.7923
2387	0.7928
2395	0.7942
2403	0.796
2411	0.7973
2419	0.7978
2427	0.803
2435	0.8046
2443	0.7978
2451	0.792
2459	0.792
2467	0.7911
2475	0.7895
2483	0.7875
2491	0.7847
2499	0.782
2507	0.7801
2515	0.7793
2523	0.7804
2531	0.7829
2539	0.7837
2547	0.7847
2555	0.7848
2563	0.7835
2571	0.7848
2579	0.7868
2587	0.7874
2595	0.7875
2603	0.7854
2611	0.781
2619	0.7785
2627	0.7798
2635	0.7823
2643	0.7828
2651	0.7828
2659	0.7827
2667	0.7825
2675	0.7822
2683	0.7823
2691	0.7824
2699	0.7824
2707	0.7823
2715	0.782
2723	0.7808
2731	0.7768
2739	0.7744
2747	0.7741
2755	0.774
2763	0.7739
2771	0.7737
2779	0.7724
2787	0.7706
2795	0.7677
2803	0.7631
2811	0.7556
2819	0.7456
2827	0.7333
2835	0.7197
2843	0.7139
2851	0.7207
2859	0.7396
2867	0.7417
2875	0.741
2883	0.7353
2891	0.722
2899	0.7085
2907	0.699
2915	0.6972
2923	0.6957
2931	0.6848
2939	0.6501
2947	0.6127
2955	0.6105
2963	0.6519
2971	0.6828
2979	0.6883
2987	0.685
2995	0.6801
3003	0.6755
3011	0.6735
3019	0.6748
3027	0.6772
3035	0.6813
3043	0.6863
3051	0.6948
3059	0.7015
3067	0.7062
3075	0.7196
3083	0.7294
3091	0.7365
3099	0.7436
3107	0.7512
3115	0.7583
3123	0.7627
3131	0.764
3139	0.7639
3147	0.7638
3155	0.7645
3163	0.7656
3171	0.768
3179	0.7684
3187	0.7682
3195	0.7673
3203	0.7662
3211	0.7653
3219	0.7653
3227	0.7661
3235	0.7648
3243	0.7622
3251	0.7583
3259	0.7569
3267	0.7564
3275	0.756
3283	0.7561
3291	0.7561
3299	0.7558
3307	0.755
3315	0.7487
3323	0.7467
3331	0.7456
3339	0.7448
3347	0.744
3355	0.7431
3363	0.7421
3371	0.7411
3379	0.7381
3387	0.7301
3395	0.7252
3403	0.7236
3411	0.7191
3419	0.7137
3427	0.708
3435	0.7024
3443	0.7001
3451	0.6982
3459	0.6964
3467	0.6955
3475	0.6949
3483	0.6947
3491	0.6945
3499	0.6948
3507	0.6953
3515	0.6968
3523	0.6987
3531	0.7006
3539	0.703
3547	0.7054
3555	0.7093
3563	0.7136
3571	0.7273
3579	0.7354
3587	0.7434
3595	0.7441
