Infrared Spectrum: PHOSPHONIC ACID, METHYL-, o,o-DIHEXYL ESTER
Formula: C13 H29 O3 P
CAS: 77304-63-3
State: LIQUID
Class: COBLENTZ
Instrument: Not specified, most likely a prism, grating, or hybrid spectrometer.
Sampling: TRANSMISSION
Path length: LIQUID FILM BETWEEN KBr PLATES
Resolution: 4
Origin: G. A. M. S.
1/CM	TRANSMITTANCE
598.354	0.709
607.525	0.715
616.696	0.726
625.867	0.74
635.038	0.76
644.209	0.781
653.381	0.804
662.552	0.82
671.723	0.832
680.894	0.841
690.065	0.85
699.236	0.853
708.407	0.85
717.578	0.833
726.749	0.813
735.92	0.806
745.091	0.703
754.262	0.793
763.434	0.855
772.605	0.85
781.776	0.83
790.947	0.792
800.118	0.687
809.289	0.59
818.46	0.7689
827.631	0.872
836.802	0.884
845.973	0.878
855.144	0.849
864.315	0.749
873.487	0.833
882.658	0.763
891.829	0.646
901	0.669
910.171	0.712
919.342	0.732
928.513	0.544
937.684	0.601
946.855	0.573
956.026	0.3091
965.197	0.138
974.368	0.121
983.54	0.209
992.711	0.232
1001.88	0.244
1011.05	0.256
1020.22	0.273
1029.39	0.513
1038.57	0.624
1047.74	0.538
1056.91	0.58
1066.08	0.593
1075.25	0.39
1084.42	0.453
1093.59	0.69
1102.76	0.7
1111.93	0.633
1121.11	0.773
1130.28	0.838
1139.45	0.846
1148.62	0.852
1157.79	0.852
1166.96	0.85
1176.13	0.846
1185.3	0.832
1194.47	0.8
1203.65	0.718
1212.82	0.596
1221.99	0.53
1231.16	0.396
1240.33	0.309
1249.5	0.29
1258.67	0.524
1267.84	0.723
1277.01	0.836
1286.19	0.846
1295.36	0.813
1304.53	0.553
1313.7	0.649
1322.87	0.833
1332.04	0.844
1341.21	0.824
1350.38	0.781
1359.55	0.706
1368.73	0.578
1377.9	0.55
1387.07	0.701
1396.24	0.646
1405.41	0.801
1414.58	0.804
1423.75	0.818
1432.92	0.816
1442.09	0.766
1451.26	0.718
1460.44	0.643
1469.61	0.649
1478.78	0.593
1487.95	0.71
1497.12	0.875
1506.29	0.906
1515.46	0.92
1524.63	0.926
1533.8	0.927
1542.98	0.929
1552.15	0.929
1561.32	0.929
1570.49	0.927
1579.66	0.927
1588.83	0.927
1598	0.926
1607.17	0.921
1616.34	0.916
1625.52	0.909
1634.69	0.907
1643.86	0.903
1653.03	0.91
1662.2	0.924
1671.37	0.929
1680.54	0.93
1689.71	0.929
1698.88	0.927
1708.06	0.924
1717.23	0.926
1726.4	0.94
1735.57	0.947
1744.74	0.952
1753.91	0.95
1763.08	0.953
1772.25	0.96
1781.42	0.967
1790.6	0.97
1799.77	0.972
1808.94	0.975
1818.11	0.978
1827.28	0.981
1836.45	0.983
1845.62	0.984
1854.79	0.984
1863.96	0.986
1873.13	0.989
1882.31	0.99
1891.48	0.992
1900.65	0.993
1909.82	0.996
1918.99	1.001
1928.16	1.004
1937.33	1.006
1946.5	1.007
1955.67	1.007
1964.85	1.007
1974.02	1.006
1983.19	1.001
1992.36	0.993
2001.53	0.9865
2010.7	0.984
2019.87	0.983
2029.04	0.981
2038.21	0.98
2047.39	0.978
2056.56	0.976
2065.73	0.976
2074.9	0.975
2084.07	0.975
2093.24	0.975
2102.41	0.973
2111.58	0.973
2120.75	0.973
2129.93	0.973
2139.1	0.973
2148.27	0.9727
2157.44	0.973
2166.61	0.973
2175.78	0.973
2184.95	0.972
2194.12	0.972
2203.29	0.97
2212.46	0.97
2221.64	0.9674
2230.81	0.967
2239.98	0.966
2249.15	0.964
2258.32	0.963
2267.49	0.961
2276.66	0.9582
2285.83	0.955
2295	0.952
2304.18	0.9491
2313.35	0.9461
2322.52	0.9441
2331.69	0.943
2340.86	0.943
2350.03	0.944
2359.2	0.944
2368.37	0.944
2377.54	0.944
2386.72	0.944
2395.89	0.944
2405.06	0.944
2414.23	0.944
2423.4	0.9439
2432.57	0.943
2441.74	0.941
2450.91	0.9409
2460.08	0.94
2469.26	0.938
2478.43	0.936
2487.6	0.935
2496.77	0.9346
2505.94	0.9328
2515.11	0.932
2524.28	0.93
2533.45	0.929
2542.62	0.9285
2551.8	0.927
2560.97	0.927
2570.14	0.926
2579.31	0.926
2588.48	0.924
2597.65	0.924
2606.82	0.923
2615.99	0.923
2625.16	0.923
2634.33	0.923
2643.51	0.923
2652.68	0.923
2661.85	0.923
2671.02	0.9221
2680.19	0.92
2689.36	0.916
2698.53	0.9141
2707.7	0.91
2716.87	0.908
2726.05	0.904
2735.22	0.9035
2744.39	0.901
2753.56	0.9
2762.73	0.8954
2771.9	0.8909
2781.07	0.8849
2790.24	0.8788
2799.41	0.8724
2808.59	0.8664
2817.76	0.8591
2826.93	0.8507
2836.1	0.8433
2845.27	0.831
2854.44	0.8166
2863.61	0.7897
2872.78	0.6897
2881.95	0.5953
2891.13	0.5905
2900.3	0.5826
2909.47	0.5603
2918.64	0.5497
2927.81	0.5258
2936.98	0.5021
2946.15	0.4713
2955.32	0.4252
2964.49	0.3893
2973.66	0.3542
2982.84	0.3304
2992.01	0.3261
3001.18	0.3319
3010.35	0.4372
3019.52	0.5929
3028.69	0.8189
3037.86	0.8455
3047.03	0.8627
3056.2	0.873
3065.38	0.88
3074.55	0.884
3083.72	0.886
3092.89	0.889
3102.06	0.89
3111.23	0.89
3120.4	0.89
3129.57	0.89
3138.74	0.89
3147.92	0.889
3157.09	0.887
3166.26	0.886
3175.43	0.8839
3184.6	0.881
3193.77	0.8797
3202.94	0.878
3212.11	0.878
3221.28	0.878
3230.46	0.878
3239.63	0.8764
3248.8	0.8775
3257.97	0.876
3267.14	0.876
3276.31	0.875
3285.48	0.875
3294.65	0.8744
3303.82	0.873
3313	0.872
3322.17	0.87
3331.34	0.8697
3340.51	0.8683
3349.68	0.866
3358.85	0.8636
3368.02	0.8622
3377.19	0.8592
3386.36	0.855
3395.53	0.8507
3404.71	0.8436
3413.88	0.8366
3423.05	0.8295
3432.22	0.8235
3441.39	0.817
3450.56	0.811
3459.73	0.8065
3468.9	0.804
3478.07	0.803
3487.25	0.803
3496.42	0.801
3505.59	0.803
3514.76	0.804
3523.93	0.8052
3533.1	0.8082
3542.27	0.8113
3551.44	0.813
3560.61	0.8186
3569.79	0.8223
3578.96	0.8283
3588.13	0.8371
3597.3	0.8497
3606.47	0.8651
3615.64	0.8712
3624.81	0.8822
3633.98	0.8863
3643.15	0.8898
3652.33	0.893
3661.5	0.8974
3670.67	0.8996
3679.84	0.9008
3689.01	0.903
3698.18	0.9038
3707.35	0.9057
3716.52	0.9069
3725.69	0.907
3734.86	0.9088
3744.04	0.9099
3753.21	0.9091
3762.38	0.91
3771.55	0.91
3780.72	0.91
3789.89	0.909
3799.06	0.91
3808.23	0.909
3817.4	0.909
3826.58	0.907
3835.75	0.907
3844.92	0.906
3854.09	0.904
3863.26	0.904
3872.43	0.904
3881.6	0.903
3890.77	0.903
3899.94	0.901
3909.12	0.901
3918.29	0.9008
3927.46	0.9
3936.63	0.8997
3945.8	0.9
3954.97	0.898
3964.14	0.896
3973.31	0.8946
