Infrared Spectrum: Tryptophan, 6-fluoro-
Formula: C11 H11 F N2 O2
CAS: 7730-20-3
State: SOLID (SPLIT MULL), FLUOROLUBE FOR 3800-1330 CM^-^1, NUJOL FOR 1330-470 CM^-^1
Class: COBLENTZ III
Instrument: DOW KBr FOREPRISM-GRATING
Instrument parameters: BLAZED AT 3.5, 12.0, 20.0 MICRON AND CHANGED AT 5.0, 7.5, 14.9 MICRON
Sampling: TRANSMISSION
Resolution: 2
Origin: DOW CHEMICAL COMPANY
1/CM	TRANSMITTANCE
3800	0.776
3791	0.7751
3782	0.7744
3773	0.7736
3764	0.776
3755	0.7796
3746	0.7843
3737	0.7885
3728	0.7918
3719	0.7912
3710	0.7907
3701	0.7901
3692	0.7898
3683	0.7893
3674	0.7885
3665	0.7903
3656	0.7853
3647	0.7856
3638	0.7838
3629	0.781
3620	0.7775
3611	0.7751
3602	0.7719
3593	0.7684
3584	0.7612
3575	0.7528
3566	0.7519
3557	0.7507
3548	0.7492
3539	0.7476
3530	0.7451
3521	0.7425
3512	0.7389
3503	0.7347
3494	0.7301
3485	0.725
3476	0.7135
3467	0.6971
3458	0.6796
3449	0.6571
3440	0.6238
3431	0.5697
3422	0.0648
3413	0.0483
3404	0.1333
3395	0.2626
3386	0.3797
3377	0.4924
3368	0.5585
3359	0.5955
3350	0.6198
3341	0.6352
3332	0.6468
3323	0.6575
3314	0.6653
3305	0.6694
3296	0.6732
3287	0.6761
3278	0.6793
3269	0.6821
3260	0.6845
3251	0.6851
3242	0.6849
3233	0.6814
3224	0.6761
3215	0.67
3206	0.6622
3197	0.6515
3188	0.6375
3179	0.6198
3170	0.5997
3161	0.578
3152	0.5545
3143	0.5219
3134	0.4912
3125	0.4582
3116	0.4257
3107	0.3438
3098	0.2867
3089	0.2639
3080	0.2441
3071	0.2169
3062	0.1887
3053	0.182
3044	0.1856
3035	0.192
3026	0.2006
3017	0.2118
3008	0.2221
2999	0.2389
2990	0.2554
2981	0.2654
2972	0.2443
2963	0.2345
2954	0.2522
2945	0.2697
2936	0.2891
2927	0.3093
2918	0.3364
2909	0.3384
2900	0.3541
2891	0.3749
2882	0.3829
2873	0.3814
2864	0.3671
2855	0.347
2846	0.364
2837	0.3857
2828	0.3968
2819	0.4072
2810	0.4171
2801	0.427
2792	0.4333
2783	0.4344
2774	0.4307
2765	0.423
2756	0.4086
2747	0.3959
2738	0.3958
2729	0.398
2720	0.4045
2711	0.4151
2702	0.4291
2693	0.4414
2684	0.4522
2675	0.4618
2666	0.4691
2657	0.4739
2648	0.4745
2639	0.4667
2630	0.4597
2621	0.4526
2612	0.4445
2603	0.4359
2594	0.4266
2585	0.4169
2576	0.4079
2567	0.3987
2558	0.391
2549	0.3896
2540	0.3929
2531	0.3997
2522	0.4032
2513	0.4024
2504	0.3968
2495	0.3954
2486	0.3964
2477	0.3962
2468	0.3992
2459	0.4079
2450	0.4188
2441	0.4304
2432	0.4435
2423	0.453
2414	0.4604
2405	0.4668
2396	0.4747
2387	0.4881
2378	0.4983
2369	0.504
2360	0.5131
2351	0.524
2342	0.5344
2333	0.5448
2324	0.5541
2315	0.5624
2306	0.5709
2297	0.5796
2288	0.5893
2279	0.6014
2270	0.6155
2261	0.6307
2252	0.6503
2243	0.6701
2234	0.6858
2225	0.6998
2216	0.7096
2207	0.7158
2198	0.7178
2189	0.7168
2180	0.7142
2171	0.7018
2162	0.6793
2153	0.6595
2144	0.6436
2135	0.6365
2126	0.632
2117	0.6291
2108	0.6294
2099	0.6415
2090	0.6615
2081	0.6837
2072	0.7085
2063	0.7361
2054	0.7617
2045	0.7837
2036	0.8025
2027	0.8158
2018	0.8282
2009	0.8338
2000	0.824
1991	0.8413
1982	0.8401
1973	0.8408
1964	0.8523
1955	0.8363
1946	0.8345
1937	0.839
1928	0.8373
1919	0.835
1910	0.8423
1901	0.8475
1892	0.851
1883	0.8518
1874	0.8175
1865	0.8078
1856	0.8371
1847	0.8532
1838	0.8612
1829	0.8612
1820	0.8636
1811	0.8728
1802	0.8796
1793	0.8852
1784	0.8883
1775	0.8899
1766	0.8897
1757	0.8878
1748	0.8786
1739	0.8689
1730	0.8591
1721	0.8455
1712	0.832
1703	0.8033
1694	0.7321
1685	0.6019
1676	0.2759
1667	0.0745
1658	0.1658
1649	0.3707
1640	0.4202
1631	0.174
1622	0.1013
1613	0.0505
1604	0.0791
1595	0.0698
1586	0.0555
1577	0.1255
1568	0.2245
1559	0.1555
1550	0.3521
1541	0.4784
1532	0.5268
1523	0.5631
1514	0.6051
1505	0.4993
1496	0.431
1487	0.6328
1478	0.6711
1469	0.6656
1460	0.4799
1451	0.3345
1442	0.5728
1433	0.6042
1424	0.3102
1415	0.322
1406	0.2076
1397	0.457
1388	0.5753
1379	0.6218
1370	0.6324
1361	0.6425
1352	0.3524
1343	0.1362
1334	0.3834
1325	0.5692
1316	0.3979
1307	0.4207
1298	0.6235
1289	0.738
1280	0.7628
1271	0.758
1262	0.5768
1253	0.6083
1244	0.7433
1235	0.6811
1226	0.6247
1217	0.7957
1208	0.7625
1199	0.81
1190	0.8247
1181	0.8114
1172	0.7756
1163	0.4856
1154	0.6241
1145	0.3458
1136	0.6117
1127	0.7114
1118	0.5223
1109	0.8121
1100	0.7998
1091	0.5268
1082	0.7812
1073	0.7768
1064	0.7044
1055	0.6536
1046	0.7475
1037	0.7569
1028	0.7554
1019	0.7371
1010	0.6925
1001	0.6653
992	0.6417
983	0.6885
974	0.7468
965	0.6686
956	0.6804
947	0.6496
938	0.7565
929	0.7962
920	0.7948
911	0.7841
902	0.8104
893	0.8189
884	0.8223
875	0.7985
866	0.5149
857	0.7154
848	0.7269
839	0.451
830	0.5105
821	0.4462
812	0.148
803	0.7511
794	0.8121
785	0.8119
776	0.7843
767	0.8261
758	0.7818
749	0.8141
740	0.8171
731	0.8021
722	0.7715
713	0.8115
704	0.7975
695	0.8457
686	0.8531
677	0.8737
668	0.8618
659	0.786
650	0.788
641	0.8482
632	0.836
623	0.7492
614	0.791
605	0.7071
596	0.8115
587	0.7811
578	0.7825
569	0.7467
560	0.6944
551	0.4874
542	0.2471
533	0.3043
524	0.5202
515	0.5107
506	0.3603
497	0.3171
488	0.5091
479	0.5915
470	0.61
