Infrared Spectrum: cis-4-Methylcyclohexanol
Formula: C 7 H 14 O
CAS: 7731-28-4
State: gas
Instrument: HP-GC/MS/IRD
Origin: NIST Mass Spectrometry Data Center
1/CM	ABSORBANCE
550	0.0007839
562	0.000402
574	0.0003752
586	0.0003082
598	0.0003015
610	0.0001608
622	0.0002211
634	0.0005092
646	0.0006365
658	0.000536
670	0.0002747
682	0.0004891
694	0.0003417
706	6.03e-05
718	6.03e-05
730	5.36e-05
742	8.04e-05
754	0.0002412
766	0.0003082
778	0.0003819
790	0.0004958
802	0.0007035
814	0.0005963
826	0.0003216
838	0.0001474
850	0.0002613
862	0.0005695
874	0.000938
886	0.000871
898	0.0008442
910	0.001943
922	0.0037721
934	0.0040937
946	0.0030887
958	0.003417
970	0.0063047
982	0.009983
994	0.009581
1006	0.0052997
1018	0.0041942
1030	0.0058625
1042	0.0065459
1054	0.0066129
1066	0.0068206
1078	0.0062042
1090	0.0037051
1102	0.0026733
1114	0.0032562
1126	0.0047637
1138	0.005293
1150	0.0041473
1162	0.0028408
1174	0.0021842
1186	0.0021909
1198	0.0029145
1210	0.0045493
1222	0.0061506
1234	0.005963
1246	0.0047034
1258	0.0035979
1270	0.0027604
1282	0.0021775
1294	0.0021239
1306	0.0022512
1318	0.0023316
1330	0.002479
1342	0.0027001
1354	0.0035242
1366	0.0053332
1378	0.0060032
1390	0.0042411
1402	0.0023316
1414	0.0017688
1426	0.0027135
1438	0.0048642
1450	0.0068474
1462	0.0059965
1474	0.0035309
1486	0.0014338
1498	0.0005293
1510	0.0002814
1522	0.0001407
1534	9.38e-05
1546	8.71e-05
1558	8.04e-05
1570	8.04e-05
1582	8.71e-05
1594	8.71e-05
1606	0.0001005
1618	8.71e-05
1630	8.71e-05
1642	4.69e-05
1654	4.02e-05
1666	3.35e-05
1678	2.68e-05
1690	1.34e-05
1702	0
1714	2.68e-05
1726	4.02e-05
1738	4.02e-05
1750	6.03e-05
1762	5.36e-05
1774	8.04e-05
1786	7.37e-05
1798	4.02e-05
1810	1.34e-05
1822	4.69e-05
1834	2.68e-05
1846	5.36e-05
1858	5.36e-05
1870	4.69e-05
1882	3.35e-05
1894	3.35e-05
1906	5.36e-05
1918	5.36e-05
1930	5.36e-05
1942	2.68e-05
1954	1.34e-05
1966	1.34e-05
1978	1.34e-05
1990	0
2002	2.68e-05
2014	2.68e-05
2026	3.35e-05
2038	2.68e-05
2050	2.68e-05
2062	2.01e-05
2074	4.69e-05
2086	1.34e-05
2098	4.02e-05
2110	5.36e-05
2122	6.7e-05
2134	4.02e-05
2146	5.36e-05
2158	3.35e-05
2170	2.68e-05
2182	3.35e-05
2194	1.34e-05
2206	2.01e-05
2218	4.02e-05
2230	6.03e-05
2242	4.02e-05
2254	4.69e-05
2266	3.35e-05
2278	4.02e-05
2290	7.37e-05
2302	4.69e-05
2314	4.02e-05
2326	4.69e-05
2338	2.68e-05
2350	4.02e-05
2362	6.7e-06
2374	5.36e-05
2386	6.03e-05
2398	6.7e-05
2410	6.03e-05
2422	9.38e-05
2434	0.0001139
2446	0.0001139
2458	0.0001139
2470	0.0001072
2482	8.04e-05
2494	0.0001139
2506	0.0001139
2518	9.38e-05
2530	0.0001072
2542	0.0001206
2554	0.0001474
2566	0.0001809
2578	0.0002479
2590	0.0002948
2602	0.000402
2614	0.0004824
2626	0.0005695
2638	0.0007236
2650	0.0008844
2662	0.0009715
2674	0.0009648
2686	0.0009648
2698	0.0009715
2710	0.0009246
2722	0.0008576
2734	0.0008576
2746	0.0008911
2758	0.0009447
2770	0.0010251
2782	0.0011055
2794	0.0012529
2806	0.0015276
2818	0.0020837
2830	0.0033701
2842	0.0075241
2854	0.0157651
2866	0.0228738
2878	0.0245354
2890	0.0244349
2902	0.0268536
2914	0.0406087
2926	0.0617472
2938	0.0633083
2950	0.0448498
2962	0.0275303
2974	0.0136747
2986	0.0043349
2998	0.0015276
3010	0.0009246
3022	0.0007236
3034	0.0005963
3046	0.0006097
3058	0.0006231
3070	0.0005963
3082	0.0005293
3094	0.0004489
3106	0.0004355
3118	0.0004221
3130	0.0004288
3142	0.0004489
3154	0.0003283
3166	0.0002948
3178	0.0002077
3190	0.0001206
3202	4.69e-05
3214	2.01e-05
3226	2.01e-05
3238	5.36e-05
3250	4.69e-05
3262	8.71e-05
3274	0.0001005
3286	0.0001273
3298	0.0001474
3310	0.0001675
3322	0.0001675
3334	0.0001139
3346	0.0001206
3358	0.0001876
3370	0.0001474
3382	0.0001273
3394	0.000134
3406	0.000201
3418	0.000268
3430	0.0002479
3442	0.0002077
3454	0.000201
3466	0.0001943
3478	0.0001876
3490	0.0001474
3502	0.0001541
3514	0.0002144
3526	0.0002278
3538	0.000201
3550	0.0001675
3562	0.0001943
3574	0.0001809
3586	0.0001876
3598	0.0002479
3610	0.0003149
3622	0.0005695
3634	0.0015343
3646	0.0032093
3658	0.0035041
3670	0.0018157
3682	0.0007035
3694	0.0004087
3706	0.0002948
3718	0.0002814
3730	0.0002479
3742	0.0001943
3754	0.0002211
3766	0.000268
3778	0.000268
3790	0.0002613
3802	0.0003685
3814	0.0003685
3826	0.0003953
3838	0.0003618
