Infrared Spectrum: trans-4-Methylcyclohexanol
Formula: C 7 H 14 O
CAS: 7731-29-5
State: gas
Instrument: HP-GC/MS/IRD
Origin: NIST Mass Spectrometry Data Center
1/CM	ABSORBANCE
550	0.0001334
562	0.0001682
574	0.0002262
586	0.0007598
598	0.0013166
610	0.0007366
622	0.0001856
634	4.64e-05
646	2.9e-05
658	5.8e-05
670	0.0001392
682	0.0001682
694	7.54e-05
706	8.12e-05
718	3.48e-05
730	6.38e-05
742	9.86e-05
754	8.7e-05
766	0.000174
778	0.000116
790	0.0001798
802	0.000145
814	0.000174
826	0.0002552
838	0.0003828
850	0.0003828
862	0.0004872
874	0.0009454
886	0.0012412
898	0.0013862
910	0.0012586
922	0.001131
934	0.0018328
946	0.0029116
958	0.0026506
970	0.0020996
982	0.0031378
994	0.0051388
1006	0.0057536
1018	0.0048836
1030	0.0076966
1042	0.0199172
1054	0.0219182
1066	0.0089958
1078	0.010034
1090	0.0115594
1102	0.0061364
1114	0.0025578
1126	0.0026274
1138	0.0027202
1150	0.0022272
1162	0.0018038
1174	0.0016646
1186	0.0019836
1198	0.0026622
1210	0.003219
1222	0.0038454
1234	0.004147
1246	0.0038628
1258	0.0036772
1270	0.0033002
1282	0.0025288
1294	0.0021286
1306	0.0021344
1318	0.0020764
1330	0.0021576
1342	0.002668
1354	0.0038164
1366	0.0055216
1378	0.0058522
1390	0.004147
1402	0.0023606
1414	0.0017342
1426	0.0020242
1438	0.004002
1450	0.00667
1462	0.0069252
1474	0.003741
1486	0.001537
1498	0.0007134
1510	0.0004292
1522	0.0002842
1534	0.0002378
1546	0.0002262
1558	0.0001798
1570	0.0001682
1582	0.0001798
1594	0.000174
1606	0.0001972
1618	0.0001624
1630	0.0001624
1642	0.000174
1654	0.0001798
1666	0.000145
1678	0.0001218
1690	0.0001044
1702	8.7e-05
1714	8.7e-05
1726	8.12e-05
1738	8.12e-05
1750	5.22e-05
1762	5.22e-05
1774	8.7e-05
1786	3.48e-05
1798	1.16e-05
1810	5.8e-05
1822	4.64e-05
1834	3.48e-05
1846	0
1858	1.16e-05
1870	2.9e-05
1882	8.12e-05
1894	9.86e-05
1906	5.8e-05
1918	8.12e-05
1930	6.96e-05
1942	4.06e-05
1954	5.22e-05
1966	4.06e-05
1978	5.22e-05
1990	8.12e-05
2002	6.96e-05
2014	2.9e-05
2026	5.8e-05
2038	6.38e-05
2050	5.22e-05
2062	6.38e-05
2074	7.54e-05
2086	9.86e-05
2098	5.8e-05
2110	4.06e-05
2122	4.64e-05
2134	2.9e-05
2146	2.32e-05
2158	2.9e-05
2170	1.16e-05
2182	1.74e-05
2194	5.22e-05
2206	4.64e-05
2218	3.48e-05
2230	0
2242	2.32e-05
2254	3.48e-05
2266	5.8e-05
2278	4.64e-05
2290	4.64e-05
2302	5.22e-05
2314	5.22e-05
2326	0.0001044
2338	0.000116
2350	8.7e-05
2362	0.0001624
2374	0.0001276
2386	0.0001276
2398	0.0001392
2410	0.0001044
2422	0.000116
2434	0.0001276
2446	0.0001334
2458	0.0001624
2470	0.000145
2482	0.0001218
2494	0.0001102
2506	0.0001334
2518	0.0001798
2530	0.0001624
2542	0.000174
2554	0.0001856
2566	0.000203
2578	0.0002668
2590	0.0003306
2602	0.0004466
2614	0.0005336
2626	0.0006496
2638	0.0007192
2650	0.000754
2662	0.0007424
2674	0.0007308
2686	0.000696
2698	0.000696
2710	0.0007192
2722	0.0007946
2734	0.0008816
2746	0.001015
2758	0.0010498
2770	0.0010788
2782	0.0011484
2794	0.001363
2806	0.0017342
2818	0.00232
2830	0.004002
2842	0.0091176
2854	0.018531
2866	0.0238612
2878	0.022504
2890	0.0195634
2902	0.0223996
2914	0.0335298
2926	0.0534122
2938	0.0568748
2950	0.0423226
2962	0.0274224
2974	0.0136648
2986	0.003973
2998	0.001305
3010	0.0007888
3022	0.0006322
3034	0.0005162
3046	0.0005104
3058	0.0005278
3070	0.0005336
3082	0.0005452
3094	0.0004234
3106	0.0003538
3118	0.0003886
3130	0.0003944
3142	0.0003944
3154	0.0003886
3166	0.000348
3178	0.0002726
3190	0.0001798
3202	0.0001334
3214	8.7e-05
3226	4.64e-05
3238	4.64e-05
3250	7.54e-05
3262	2.32e-05
3274	1.74e-05
3286	6.96e-05
3298	2.32e-05
3310	1.16e-05
3322	0.0001044
3334	0.0001102
3346	9.86e-05
3358	6.96e-05
3370	8.12e-05
3382	6.38e-05
3394	9.28e-05
3406	9.86e-05
3418	0.0001102
3430	0.0001276
3442	0.0001566
3454	0.000116
3466	6.96e-05
3478	9.86e-05
3490	4.06e-05
3502	5.22e-05
3514	2.32e-05
3526	1.74e-05
3538	5.8e-05
3550	5.8e-05
3562	2.9e-05
3574	0
3586	5.8e-05
3598	0.0001276
3610	0.0002088
3622	0.000522
3634	0.0016588
3646	0.0034684
3658	0.003132
3670	0.0010498
3682	0.0002668
3694	0.0001276
3706	0.0001276
3718	8.7e-05
3730	2.9e-05
3742	4.64e-05
3754	8.7e-05
3766	9.28e-05
3778	9.86e-05
3790	0.0001334
3802	0.0001566
3814	0.000174
3826	0.0001914
3838	0.0001798
