Infrared Spectrum: 2-Amino-6-fluorobenzonitrile
Formula: C 7 H 5 F N 2
CAS: 77326-36-4
State: gas
Origin: EPA-IR VAPOR PHASE LIBRARY
1/CM	ABSORBANCE
549.8	0.009386
559.445	0.006306
569.09	0.006926
578.734	0.005106
588.379	0.007696
598.024	0.007486
607.669	0.008836
617.313	0.008566
626.958	0.007656
636.603	0.006636
646.248	0.008466
655.893	0.010096
665.537	0.009866
675.182	0.008316
684.827	0.009666
694.472	0.011616
704.116	0.018266
713.761	0.023216
723.406	0.022656
733.051	0.019016
742.695	0.013986
752.34	0.013256
761.985	0.018796
771.63	0.029866
781.275	0.048836
790.919	0.027596
800.564	0.016876
810.209	0.011956
819.854	0.010016
829.498	0.009136
839.143	0.007856
848.788	0.007216
858.433	0.006626
868.078	0.006206
877.722	0.005476
887.367	0.005126
897.012	0.004716
906.657	0.004386
916.301	0.004546
925.946	0.004616
935.591	0.004816
945.236	0.004976
954.88	0.005136
964.525	0.005836
974.17	0.007306
983.815	0.010986
993.46	0.016766
1003.1	0.018006
1012.75	0.012536
1022.39	0.007956
1032.04	0.006646
1041.68	0.012686
1051.33	0.017706
1060.97	0.014836
1070.62	0.004396
1080.26	0.003036
1089.91	0.003476
1099.55	0.006626
1109.2	0.013876
1118.84	0.019326
1128.49	0.018526
1138.13	0.011386
1147.78	0.007216
1157.42	0.005846
1167.07	0.004256
1176.71	0.002726
1186.36	0.004126
1196	0.003916
1205.64	0.003436
1215.29	0.003676
1224.93	0.005096
1234.58	0.004386
1244.22	0.008566
1253.87	0.022116
1263.51	0.028006
1273.16	0.027306
1282.8	0.021806
1292.45	0.018086
1302.09	0.014246
1311.74	0.010656
1321.38	0.012766
1331.03	0.016986
1340.67	0.014456
1350.32	0.006476
1359.96	0.002786
1369.61	0.002376
1379.25	0.002446
1388.9	0.002416
1398.54	0.001786
1408.18	0.001806
1417.83	0.001916
1427.47	0.002706
1437.12	0.004806
1446.76	0.009406
1456.41	0.021326
1466.05	0.049096
1475.7	0.082686
1485.34	0.081716
1494.99	0.042326
1504.63	0.012576
1514.28	0.006546
1523.92	0.005616
1533.57	0.007076
1543.21	0.014146
1552.86	0.026056
1562.5	0.034386
1572.15	0.039156
1581.79	0.038766
1591.44	0.035686
1601.08	0.032866
1610.73	0.051176
1620.37	0.087096
1630.01	0.109186
1639.66	0.089796
1649.3	0.045076
1658.95	0.016846
1668.59	0.007546
1678.24	0.004816
1687.88	0.003726
1697.53	0.003146
1707.17	0.002956
1716.82	0.002696
1726.46	0.002356
1736.11	0.002146
1745.75	0.002086
1755.4	0.002016
1765.04	0.002086
1774.69	0.002186
1784.33	0.001986
1793.98	0.002246
1803.62	0.002256
1813.27	0.002236
1822.91	0.001896
1832.55	0.001596
1842.2	0.001386
1851.84	0.0013015
1861.49	0.0012904
1871.13	0.0011182
1880.78	0.00123
1890.42	0.0013115
1900.07	0.001926
1909.71	0.003306
1919.36	0.003386
1929	0.002456
1938.65	0.001356
1948.29	0.0010908
1957.94	0.0010079
1967.58	0.0009749
1977.23	0.0009255
1986.87	0.0010873
1996.52	0.0010084
2006.16	0.000933
2015.81	0.0007717
2025.45	0.0009575
2035.1	0.0009131
2044.74	0.0010032
2054.38	0.0009364
2064.03	0.0011848
2073.67	0.001121
2083.32	0.0010421
2092.96	0.0012547
2102.61	0.001333
2112.25	0.001326
2121.9	0.001376
2131.54	0.001396
2141.19	0.0011541
2150.83	0.0009972
2160.48	0.0008801
2170.12	0.0009381
2179.77	0.0012575
2189.41	0.0012531
2199.06	0.001546
2208.7	0.003786
2218.35	0.009496
2227.99	0.012516
2237.64	0.009186
2247.28	0.002906
2256.92	0.001936
2266.57	0.001836
2276.21	0.001956
2285.86	0.001456
2295.5	0.001406
2305.15	0.0011812
2314.79	0.0010243
2324.44	0.0010695
2334.08	0.001496
2343.73	0.0009834
2353.37	0.0010038
2363.02	0.001051
2372.66	0.001066
2382.31	0.001232
2391.95	0.0011787
2401.6	0.001001
2411.24	0.0007667
2420.89	0.0008127
2430.53	0.0006692
2440.18	0.0009065
2449.82	0.0009147
2459.47	0.0009747
2469.11	0.0011154
2478.75	0.0009236
2488.4	0.0009923
2498.04	0.0006389
2507.69	0.0008656
2517.33	0.0008827
2526.98	0.0010526
2536.62	0.0009589
2546.27	0.0008052
2555.91	0.0007231
2565.56	0.0007904
2575.2	0.0007193
2584.85	0.001099
2594.49	0.0010473
2604.14	0.0010372
2613.78	0.000989
2623.43	0.0010746
2633.07	0.0009392
2642.72	0.0010369
2652.36	0.0010907
2662.01	0.000667
2671.65	0.0010012
2681.29	0.0007407
2690.94	0.000752
2700.58	0.000582
2710.23	0.00044642
2719.87	0.0005137
2729.52	0.0008937
2739.16	0.0010307
2748.81	0.0011095
2758.45	0.0011835
2768.1	0.001526
2777.74	0.001526
2787.39	0.0012411
2797.03	0.0009073
2806.68	0.0011218
2816.32	0.0008389
2825.97	0.0008683
2835.61	0.000360777
2845.26	0.0006035
2854.9	0.0008811
2864.55	0.0007441
2874.19	0.0007809
2883.84	0.0009687
2893.48	0.0007833
2903.12	0.0006266
2912.77	0.0007647
2922.41	0.0006761
2932.06	0.0006754
2941.7	0.00037416
2951.35	0.0009079
2960.99	0.0005422
2970.64	0.0005943
2980.28	0.0008256
2989.93	0.0006884
2999.57	0.0006949
3009.22	0.0010404
3018.86	0.001456
3028.51	0.002196
3038.15	0.003306
3047.8	0.004606
3057.44	0.005216
3067.09	0.005036
3076.73	0.004636
3086.38	0.003896
3096.02	0.002616
3105.67	0.001806
3115.31	0.000862
3124.95	0.0005441
3134.6	0.0006223
3144.24	0.00038921
3153.89	0.0006787
3163.53	0.0011577
3173.18	0.001354
3182.82	0.0008276
3192.47	0.0012261
3202.11	0.001556
3211.76	0.001526
3221.4	0.001686
3231.05	0.001646
3240.69	0.0012464
3250.34	0.0010863
3259.98	0.0011294
3269.63	0.0011268
3279.27	0.0006018
3288.92	0.0006085
3298.56	0.0007904
3308.21	0.0006415
3317.85	0.000205
3327.49	0.0005975
3337.14	0.0004967
3346.78	0.0007704
3356.43	0.0010675
3366.07	0.0007841
3375.72	0.001596
3385.36	0.002776
3395.01	0.005196
3404.65	0.010636
3414.3	0.018606
3423.94	0.021656
3433.59	0.016486
3443.23	0.007356
3452.88	0.003246
3462.52	0.002276
3472.17	0.002936
3481.81	0.004146
3491.46	0.005336
3501.1	0.007206
3510.75	0.011176
3520.39	0.013386
3530.04	0.012336
3539.68	0.007546
3549.32	0.003796
3558.97	0.002266
3568.61	0.0012893
3578.26	0.001177
3587.9	0.0010661
3597.55	0.0011023
3607.19	0.000812
3616.84	0.00038639
3626.48	0.0007218
3636.13	0.00039297
3645.77	0.000662
3655.42	0.00098
3665.06	0.000521
3674.71	0.0005188
3684.35	0.00040263
3694	0.000244
3703.64	0.0005847
3713.29	0.0004905
3722.93	0.0003137
3732.58	0.0005356
3742.22	0.00043618
3751.86	0.0006742
3761.51	0.00036702
3771.15	0.0002854
3780.8	0.0003359
3790.44	0.0008587
3800.09	0.00063
3809.73	0.00041907
3819.38	0.0008934
3829.02	0.0006517
3838.67	0.0008857
3848.31	0.0008984
3857.96	0.0005633
3867.6	0.0008298
3877.25	0.0009717
3886.89	0.0010623
3896.54	0.0009229
3906.18	0.0007135
3915.83	0.0006783
3925.47	0.0005608
3935.12	0.0007257
3944.76	0.0005436
3954.41	0.0008795
3964.05	0.0006157
3973.69	0.0006994
3983.34	7.8e-05
3992.98	0.000247
