Infrared Spectrum: 2,2-DIPHENYLMORPHOLINE
Formula: C16 H17 N O
CAS: 77373-34-3
State: SOLUTION (7% CHCl3)
Class: COBLENTZ
Instrument: Not specified, most likely a prism, grating, or hybrid spectrometer.
Sampling: TRANSMISSION
Path length: 0.01 CM CELL
Resolution: 4
MICROMETERS	TRANSMITTANCE
2.028	0.979
2.05622	0.977
2.08443	0.977
2.11265	0.979
2.14087	0.977
2.16908	0.974
2.1973	0.967
2.22552	0.967
2.25373	0.968
2.28195	0.97
2.31016	0.968
2.33838	0.965
2.3666	0.972
2.39481	0.974
2.42303	0.963
2.45125	0.948
2.47946	0.946
2.50768	0.942
2.5359	0.951
2.56411	0.954
2.59233	0.954
2.62055	0.954
2.64876	0.954
2.67698	0.953
2.70519	0.953
2.73341	0.953
2.76163	0.953
2.78984	0.963
2.81806	0.958
2.84628	0.946
2.87449	0.937
2.90271	0.935
2.93093	0.934
2.95914	0.922
2.98736	0.911
3.01558	0.89
3.04379	0.88
3.07201	0.887
3.10022	0.89
3.12844	0.892
3.15666	0.892
3.18487	0.899
3.21309	0.899
3.24131	0.899
3.26952	0.838
3.29774	0.79
3.32596	0.804
3.35417	0.74
3.38239	0.663
3.41061	0.483
3.43882	0.518
3.46704	0.62
3.49526	0.719
3.52347	0.675
3.55169	0.714
3.5799	0.774
3.60812	0.842
3.63634	0.883
3.66455	0.894
3.69277	0.896
3.72099	0.896
3.7492	0.902
3.77742	0.911
3.80564	0.915
3.83385	0.915
3.86207	0.915
3.89029	0.916
3.9185	0.915
3.94672	0.911
3.97493	0.911
4.00315	0.906
4.03137	0.904
4.05958	0.904
4.0878	0.904
4.11602	0.908
4.14423	0.92
4.17245	0.925
4.20067	0.934
4.22888	0.941
4.2571	0.941
4.28532	0.941
4.31353	0.935
4.34175	0.928
4.36997	0.923
4.39818	0.922
4.4264	0.923
4.45461	0.927
4.48283	0.927
4.51105	0.927
4.53926	0.925
4.56748	0.927
4.5957	0.928
4.62391	0.928
4.65213	0.928
4.68035	0.928
4.70856	0.927
4.73678	0.925
4.765	0.925
4.79321	0.927
4.82143	0.927
4.84964	0.927
4.87786	0.927
4.90608	0.925
4.93429	0.923
4.96251	0.925
4.99073	0.922
5.01894	0.918
5.04716	0.918
5.07538	0.909
5.10359	0.896
5.13181	0.883
5.16003	0.875
5.18824	0.892
5.21646	0.902
5.24467	0.909
5.27289	0.908
5.30111	0.901
5.32932	0.894
5.35754	0.897
5.38576	0.904
5.41397	0.911
5.44219	0.913
5.47041	0.913
5.49862	0.902
5.52684	0.894
5.55506	0.892
5.58327	0.902
5.61149	0.909
5.63971	0.909
5.66792	0.909
5.69614	0.902
5.72435	0.902
5.75257	0.906
5.78079	0.908
5.809	0.909
5.83722	0.909
5.86544	0.913
5.89365	0.911
5.92187	0.902
5.95009	0.902
5.9783	0.901
6.00652	0.897
6.03474	0.897
6.06295	0.897
6.09117	0.901
6.11938	0.899
6.1476	0.897
6.17582	0.894
6.20403	0.89
6.23225	0.871
6.26047	0.83
6.28868	0.812
6.3169	0.842
6.34512	0.863
6.37333	0.892
6.40155	0.901
6.42977	0.902
6.45798	0.906
6.4862	0.908
6.51442	0.911
6.54263	0.911
6.57085	0.918
6.59906	0.92
6.62728	0.908
6.6555	0.896
6.68371	0.849
6.71193	0.779
6.74015	0.575
6.76836	0.688
6.79658	0.814
6.8248	0.854
6.85301	0.818
6.88123	0.75
6.90945	0.651
6.93766	0.357
6.96588	0.329
6.99409	0.736
7.02231	0.83
7.05053	0.871
7.07874	0.89
7.10696	0.889
7.13518	0.885
7.16339	0.883
7.19161	0.883
7.21983	0.873
7.24804	0.863
7.27626	0.859
7.30448	0.852
7.33269	0.85
7.36091	0.854
7.38912	0.87
7.41734	0.878
7.44556	0.88
7.47377	0.88
7.50199	0.857
7.53021	0.8
7.55842	0.752
7.58664	0.71
7.61486	0.726
7.64307	0.783
7.67129	0.811
7.69951	0.828
7.72772	0.83
7.75594	0.828
7.78416	0.83
7.81237	0.837
7.84059	0.831
7.8688	0.814
7.89702	0.778
7.92524	0.771
7.95345	0.79
7.98167	0.792
8.00989	0.788
8.0381	0.788
8.06632	0.785
8.09454	0.767
8.12275	0.753
8.15097	0.753
8.17919	0.76
8.2074	0.769
8.23562	0.772
8.26383	0.772
8.29205	0.774
8.32027	0.778
8.34848	0.8
8.3767	0.847
8.40492	0.875
8.43313	0.87
8.46135	0.828
8.48957	0.764
8.51778	0.743
8.546	0.771
8.57422	0.816
8.60243	0.838
8.63065	0.847
8.65887	0.847
8.68708	0.833
8.7153	0.828
8.74351	0.812
8.77173	0.772
8.79995	0.686
8.82816	0.625
8.85638	0.601
8.8846	0.604
8.91281	0.615
8.94103	0.616
8.96925	0.637
8.99746	0.696
9.02568	0.733
9.0539	0.752
9.08211	0.753
9.11033	0.7
9.13854	0.649
9.16676	0.511
9.19498	0.422
9.22319	0.367
9.25141	0.275
9.27963	0.256
9.30784	0.272
9.33606	0.37
9.36428	0.512
9.39249	0.674
9.42071	0.696
9.44893	0.663
9.47714	0.649
9.50536	0.658
9.53357	0.686
9.56179	0.733
9.59001	0.766
9.61822	0.701
9.64644	0.663
9.67466	0.686
9.70287	0.648
9.73109	0.644
9.75931	0.651
9.78752	0.665
9.81574	0.748
9.84396	0.819
9.87217	0.852
9.90039	0.866
9.92861	0.866
9.95682	0.856
9.98504	0.828
10.0133	0.811
10.0415	0.816
10.0697	0.798
10.0979	0.795
10.1261	0.818
10.1543	0.842
10.1826	0.863
10.2108	0.868
10.239	0.875
10.2672	0.876
10.2954	0.87
10.3236	0.856
10.3519	0.83
10.3801	0.798
10.4083	0.814
10.4365	0.84
10.4647	0.859
10.4929	0.866
10.5212	0.863
10.5494	0.814
10.5776	0.757
10.6058	0.769
10.634	0.821
10.6622	0.857
10.6904	0.866
10.7187	0.876
10.7469	0.885
10.7751	0.873
10.8033	0.837
10.8315	0.807
10.8597	0.79
10.888	0.785
10.9162	0.781
10.9444	0.764
10.9726	0.733
11.0008	0.677
11.029	0.648
11.0573	0.653
11.0855	0.686
11.1137	0.748
11.1419	0.795
11.1701	0.824
11.1983	0.845
11.2266	0.85
11.2548	0.852
11.283	0.854
11.3112	0.85
11.3394	0.849
11.3676	0.849
11.3959	0.845
11.4241	0.835
11.4523	0.811
11.4805	0.776
11.5087	0.708
11.5369	0.658
11.5652	0.641
11.5934	0.663
11.6216	0.698
11.6498	0.714
11.678	0.71
11.7062	0.71
11.7345	0.714
11.7627	0.719
11.7909	0.727
11.8191	0.74
11.8473	0.741
11.8755	0.734
11.9038	0.72
11.932	0.707
11.9602	0.686
11.9884	0.658
12.0166	0.642
12.0448	0.623
12.0731	0.611
12.1013	0.596
12.1295	0.578
12.1577	0.564
12.1859	0.547
12.2141	0.532
12.2424	0.523
12.2706	0.53
12.2988	0.537
12.327	0.544
12.3552	0.545
12.3834	0.564
12.4117	0.585
12.4399	0.599
12.4681	0.615
12.4963	0.63
12.5245	0.646
12.5527	0.653
12.581	0.662
12.6092	0.668
12.6374	0.67
12.6656	0.677
12.6938	0.686
12.722	0.696
12.7502	0.698
12.7785	0.698
12.8067	0.698
12.8349	0.698
12.8631	0.698
12.8913	0.698
12.9195	0.696
12.9478	0.698
12.976	0.696
13.0042	0.696
13.0324	0.698
13.0606	0.703
13.0888	0.708
13.1171	0.708
13.1453	0.71
13.1735	0.71
13.2017	0.71
13.2299	0.714
13.2581	0.714
