Infrared Spectrum: ANDROSTA-1,4-DIENE-3,11,17-TRIONE
Formula: C19 H22 O3
CAS: 7738-93-4
State: SOLID (KBr DISC)
Class: COBLENTZ III
Instrument: BECKMAN IR-7
Sampling: TRANSMISSION
Resolution: 4
Origin: THE WORCESTER FOUNDATION FOR EXPERIMENTAL BIOLOGY, Neal L. McNiven
1/CM	TRANSMITTANCE
597.082	0.714
605.837	0.694
614.591	0.637
623.346	0.745
632.1	0.803
640.855	0.864
649.609	0.899
658.364	0.915
667.119	0.8601
675.873	0.928
684.628	0.899
693.382	0.854
702.137	0.661
710.891	0.951
719.646	0.943
728.4	0.946
737.155	0.947
745.91	0.954
754.664	0.951
763.419	0.944
772.173	0.954
780.928	0.952
789.682	0.939
798.437	0.905
807.192	0.78
815.946	0.486
824.701	0.859
833.455	0.931
842.21	0.906
850.964	0.897
859.719	0.848
868.473	0.718
877.228	0.7711
885.983	0.3179
894.737	0.8259
903.492	0.899
912.246	0.84
921.001	0.565
929.755	0.8441
938.51	0.673
947.265	0.763
956.019	0.717
964.774	0.885
973.528	0.88
982.283	0.73
991.037	0.694
999.792	0.656
1008.55	0.753
1017.3	0.811
1026.06	0.688
1034.81	0.704
1043.56	0.436
1052.32	0.771
1061.07	0.839
1069.83	0.7591
1078.58	0.435
1087.34	0.712
1096.09	0.71
1104.85	0.856
1113.6	0.866
1122.36	0.825
1131.11	0.796
1139.86	0.599
1148.62	0.62
1157.37	0.692
1166.13	0.754
1174.88	0.847
1183.64	0.787
1192.39	0.7459
1201.15	0.734
1209.9	0.625
1218.66	0.4601
1227.41	0.5287
1236.17	0.595
1244.92	0.7159
1253.67	0.835
1262.43	0.859
1271.18	0.851
1279.94	0.6421
1288.69	0.518
1297.45	0.648
1306.2	0.837
1314.96	0.848
1323.71	0.801
1332.47	0.8429
1341.22	0.868
1349.97	0.784
1358.73	0.765
1367.48	0.5959
1376.24	0.6401
1384.99	0.436
1393.75	0.649
1402.5	0.747
1411.26	0.83
1420.01	0.816
1428.77	0.711
1437.52	0.582
1446.27	0.619
1455.03	0.6319
1463.78	0.7641
1472.54	0.864
1481.29	0.916
1490.05	0.924
1498.8	0.923
1507.56	0.915
1516.31	0.909
1525.07	0.906
1533.82	0.899
1542.57	0.888
1551.33	0.873
1560.08	0.856
1568.84	0.838
1577.59	0.777
1586.35	0.6601
1595.1	0.347
1603.86	0.631
1612.61	0.511
1621.37	0.302
1630.12	0.546
1638.88	0.4721
1647.63	0.225
1656.38	0.058
1665.14	0.132
1673.89	0.552
1682.65	0.615
1691.4	0.445
1700.16	0.182
1708.91	0.291
1717.67	0.544
1726.42	0.412
1735.18	0.082
1743.93	0.2
1752.68	0.628
1761.44	0.784
1770.19	0.851
1778.95	0.894
1787.7	0.905
1796.46	0.935
1805.21	0.936
1813.97	0.935
1822.72	0.937
1831.48	0.949
1840.23	0.954
1848.98	0.957
1857.74	0.958
1866.49	0.962
1875.25	0.965
1884	0.966
1892.76	0.968
1901.51	0.968
1910.27	0.968
1919.02	0.968
1927.78	0.966
1936.53	0.964
1945.28	0.965
1954.04	0.962
1962.79	0.964
1971.55	0.962
1980.3	0.961
1989.06	0.961
1997.81	0.959
2006.57	0.9577
2015.32	0.957
2024.08	0.957
2032.83	0.956
2041.59	0.956
2050.34	0.9556
2059.09	0.955
2067.85	0.955
2076.6	0.9545
2085.36	0.954
2094.11	0.954
2102.87	0.954
2111.62	0.954
2120.38	0.954
2129.13	0.954
2137.89	0.954
2146.64	0.954
2155.39	0.9532
2164.15	0.953
2172.9	0.9521
2181.66	0.952
2190.41	0.9501
2199.17	0.949
2207.92	0.947
2216.68	0.946
2225.43	0.944
2234.19	0.943
2242.94	0.9419
2251.69	0.941
2260.45	0.94
2269.2	0.939
2277.96	0.938
2286.71	0.938
2295.47	0.937
2304.22	0.936
2312.98	0.936
2321.73	0.935
2330.49	0.933
2339.24	0.932
2347.99	0.931
2356.75	0.931
2365.5	0.931
2374.26	0.9304
2383.01	0.929
2391.77	0.928
2400.52	0.9263
2409.28	0.925
2418.03	0.9243
2426.79	0.923
2435.54	0.923
2444.29	0.922
2453.05	0.921
2461.8	0.92
2470.56	0.92
2479.31	0.919
2488.07	0.918
2496.82	0.917
2505.58	0.916
2514.33	0.9149
2523.09	0.913
2531.84	0.912
2540.6	0.912
2549.35	0.9108
2558.1	0.909
2566.86	0.9087
2575.61	0.907
2584.37	0.907
2593.12	0.905
2601.88	0.904
2610.63	0.902
2619.39	0.901
2628.14	0.8995
2636.9	0.8985
2645.65	0.896
2654.4	0.894
2663.16	0.893
2671.91	0.891
2680.67	0.89
2689.42	0.888
2698.18	0.887
2706.93	0.885
2715.69	0.884
2724.44	0.8802
2733.2	0.877
2741.95	0.875
2750.7	0.8721
2759.46	0.87
2768.21	0.869
2776.97	0.864
2785.72	0.8609
2794.48	0.8455
2803.23	0.8292
2811.99	0.8044
2820.74	0.7584
2829.5	0.7043
2838.25	0.604
2847	0.6638
2855.76	0.7014
2864.51	0.6777
2873.27	0.6643
2882.02	0.6507
2890.78	0.5788
2899.53	0.5331
2908.29	0.6085
2917.04	0.5528
2925.8	0.4203
2934.55	0.4805
2943.31	0.587
2952.06	0.441
2960.81	0.5869
2969.57	0.6255
2978.32	0.6846
2987.08	0.7439
2995.83	0.7904
3004.59	0.8146
3013.34	0.819
3022.1	0.8199
3030.85	0.8152
3039.61	0.8081
3048.36	0.802
3057.11	0.798
3065.87	0.796
3074.62	0.7971
3083.38	0.806
3092.13	0.8138
3100.89	0.8232
3109.64	0.827
3118.4	0.83
3127.15	0.83
3135.91	0.83
3144.66	0.8297
3153.41	0.829
3162.17	0.827
3170.92	0.8266
3179.68	0.825
3188.43	0.8225
3197.19	0.8195
3205.94	0.8175
3214.7	0.8148
3223.45	0.8105
3232.21	0.7954
3240.96	0.794
3249.71	0.7964
3258.47	0.798
3267.22	0.799
3275.98	0.801
3284.73	0.803
3293.49	0.806
3302.24	0.8079
3311	0.806
3319.75	0.805
3328.51	0.803
3337.26	0.802
3346.02	0.7989
3354.77	0.7907
3363.52	0.7784
3372.28	0.7621
3381.03	0.7448
3389.79	0.7461
3398.54	0.7577
3407.3	0.7635
3416.05	0.7667
3424.81	0.7643
3433.56	0.7566
3442.32	0.7426
3451.07	0.7516
3459.82	0.7665
3468.58	0.7764
3477.33	0.7825
3486.09	0.7856
3494.84	0.7876
3503.6	0.7896
3512.35	0.7936
3521.11	0.7977
3529.86	0.7987
3538.62	0.7997
3547.37	0.8
3556.12	0.801
3564.88	0.8058
3573.63	0.809
3582.39	0.8099
3591.14	0.8119
3599.9	0.816
3608.65	0.82
3617.41	0.8261
3626.16	0.8301
3634.92	0.8321
3643.67	0.835
3652.42	0.8361
3661.18	0.838
3669.93	0.8392
3678.69	0.84
3687.44	0.84
3696.2	0.84
3704.95	0.84
3713.71	0.839
3722.46	0.8386
3731.22	0.838
3739.97	0.838
3748.72	0.837
3757.48	0.8355
3766.23	0.835
3774.99	0.8334
3783.74	0.832
3792.5	0.8313
3801.25	0.83
3810.01	0.83
3818.76	0.828
3827.52	0.828
3836.27	0.828
3845.03	0.827
3853.78	0.827
3862.53	0.8251
3871.29	0.824
3880.04	0.824
3888.8	0.823
3897.55	0.822
3906.31	0.82
3915.06	0.8178
3923.82	0.8159
3932.57	0.814
3941.33	0.8138
3950.08	0.8128
3958.83	0.812
3967.59	0.811
3976.34	0.8117
3985.1	0.811
3993.85	0.81
