Infrared Spectrum: 3-Bromo-4-methoxyphenylacetic acid
Formula: C 9 H 9 Br O 3
CAS: 774-81-2
State: gas
Origin: EPA-IR VAPOR PHASE LIBRARY
1/CM	ABSORBANCE
549.8	0.011128
559.445	0.016158
569.09	0.023178
578.734	0.022578
588.379	0.015048
598.024	0.014798
607.669	0.018048
617.313	0.018788
626.958	0.016878
636.603	0.014448
646.248	0.011868
655.893	0.010658
665.537	0.013158
675.182	0.010268
684.827	0.006058
694.472	0.004838
704.116	0.004418
713.761	0.003898
723.406	0.002728
733.051	0.002078
742.695	0.001848
752.34	0.001838
761.985	0.002688
771.63	0.005058
781.275	0.007248
790.919	0.006748
800.564	0.008588
810.209	0.009738
819.854	0.007268
829.498	0.004438
839.143	0.003348
848.788	0.003488
858.433	0.004538
868.078	0.005188
877.722	0.006228
887.367	0.006608
897.012	0.005188
906.657	0.003978
916.301	0.003508
925.946	0.003428
935.591	0.003488
945.236	0.003428
954.88	0.002798
964.525	0.002848
974.17	0.003158
983.815	0.003898
993.46	0.005138
1003.1	0.007718
1012.75	0.013548
1022.39	0.017328
1032.04	0.011928
1041.68	0.012868
1051.33	0.026718
1060.97	0.033218
1070.62	0.022228
1080.26	0.018978
1089.91	0.027668
1099.55	0.045558
1109.2	0.072208
1118.84	0.065448
1128.49	0.039068
1138.13	0.029958
1147.78	0.023838
1157.42	0.016738
1167.07	0.013078
1176.71	0.013118
1186.36	0.015088
1196	0.018328
1205.64	0.017878
1215.29	0.016188
1224.93	0.017218
1234.58	0.019958
1244.22	0.031478
1253.87	0.053868
1263.51	0.052938
1273.16	0.048778
1282.8	0.040268
1292.45	0.028698
1302.09	0.017958
1311.74	0.011388
1321.38	0.009508
1331.03	0.009838
1340.67	0.011388
1350.32	0.012958
1359.96	0.012888
1369.61	0.009828
1379.25	0.007208
1388.9	0.006728
1398.54	0.008128
1408.18	0.009558
1417.83	0.008928
1427.47	0.009838
1437.12	0.013308
1446.76	0.015008
1456.41	0.011138
1466.05	0.013868
1475.7	0.016278
1485.34	0.037768
1494.99	0.079088
1504.63	0.048688
1514.28	0.013438
1523.92	0.006088
1533.57	0.003818
1543.21	0.003308
1552.86	0.003528
1562.5	0.004168
1572.15	0.004408
1581.79	0.004248
1591.44	0.006028
1601.08	0.008378
1610.73	0.006348
1620.37	0.003218
1630.01	0.001938
1639.66	0.0015046
1649.3	0.001568
1658.95	0.0015264
1668.59	0.001648
1678.24	0.001858
1687.88	0.002228
1697.53	0.002788
1707.17	0.003788
1716.82	0.005378
1726.46	0.008068
1736.11	0.012608
1745.75	0.021218
1755.4	0.033798
1765.04	0.048228
1774.69	0.068618
1784.33	0.069658
1793.98	0.051998
1803.62	0.033938
1813.27	0.017678
1822.91	0.008968
1832.55	0.005028
1842.2	0.003228
1851.84	0.002598
1861.49	0.002328
1871.13	0.002008
1880.78	0.001728
1890.42	0.0013666
1900.07	0.0012112
1909.71	0.0010905
1919.36	0.0010944
1929	0.0010987
1938.65	0.0010546
1948.29	0.0011053
1957.94	0.0012339
1967.58	0.0012494
1977.23	0.0013182
1986.87	0.0013002
1996.52	0.0013853
2006.16	0.0014857
2015.81	0.0014543
2025.45	0.001698
2035.1	0.001738
2044.74	0.001688
2054.38	0.0014715
2064.03	0.0014091
2073.67	0.0012249
2083.32	0.001241
2092.96	0.001011
2102.61	0.0009637
2112.25	0.0009976
2121.9	0.0010286
2131.54	0.0010397
2141.19	0.0009413
2150.83	0.0008557
2160.48	0.0007576
2170.12	0.0008016
2179.77	0.000827
2189.41	0.0008598
2199.06	0.0008869
2208.7	0.0009437
2218.35	0.000981
2227.99	0.0009114
2237.64	0.0007822
2247.28	0.0009008
2256.92	0.0009563
2266.57	0.000901
2276.21	0.0010012
2285.86	0.0009048
2295.5	0.0009186
2305.15	0.0009301
2314.79	0.0009084
2324.44	0.0009826
2334.08	0.0008876
2343.73	0.0009089
2353.37	0.0009422
2363.02	0.0009833
2372.66	0.0009407
2382.31	0.0009648
2391.95	0.0008311
2401.6	0.0007313
2411.24	0.0006909
2420.89	0.0007459
2430.53	0.0006984
2440.18	0.0007341
2449.82	0.000714
2459.47	0.0006973
2469.11	0.000875
2478.75	0.0008498
2488.4	0.0008094
2498.04	0.0007867
2507.69	0.0011366
2517.33	0.0011456
2526.98	0.0012693
2536.62	0.0014261
2546.27	0.001395
2555.91	0.0011709
2565.56	0.0010832
2575.2	0.0007438
2584.85	0.0007962
2594.49	0.0008168
2604.14	0.0007755
2613.78	0.0008031
2623.43	0.0008082
2633.07	0.0007589
2642.72	0.0007056
2652.36	0.00063452
2662.01	0.0006608
2671.65	0.00066
2681.29	0.00053102
2690.94	0.0006646
2700.58	0.0006855
2710.23	0.0007177
2719.87	0.00061004
2729.52	0.0006763
2739.16	0.0006992
2748.81	0.000822
2758.45	0.000763
2768.1	0.000832
2777.74	0.0009933
2787.39	0.0009838
2797.03	0.0010041
2806.68	0.001588
2816.32	0.001978
2825.97	0.002908
2835.61	0.005268
2845.26	0.008178
2854.9	0.006538
2864.55	0.004208
2874.19	0.003368
2883.84	0.003518
2893.48	0.004348
2903.12	0.005748
2912.77	0.007188
2922.41	0.008178
2932.06	0.010018
2941.7	0.013928
2951.35	0.015268
2960.99	0.012128
2970.64	0.008868
2980.28	0.006218
2989.93	0.005588
2999.57	0.006628
3009.22	0.009368
3018.86	0.008268
3028.51	0.005128
3038.15	0.004838
3047.8	0.004588
3057.44	0.003658
3067.09	0.003138
3076.73	0.003258
3086.38	0.002968
3096.02	0.002258
3105.67	0.001858
3115.31	0.0012443
3124.95	0.0010184
3134.6	0.0009376
3144.24	0.0007583
3153.89	0.0007166
3163.53	0.0006696
3173.18	0.0004568
3182.82	0.000432
3192.47	0.00055785
3202.11	0.000388
3211.76	0.000296
3221.4	0.00028
3231.05	0.000308
3240.69	0.0005038
3250.34	0.000376
3259.98	0.00032
3269.63	0.000187
3279.27	0.000306
3288.92	0.000211
3298.56	0.000305
3308.21	0.000313
3317.85	0.000271
3327.49	0.000183
3337.14	0.000267
3346.78	0.000256
3356.43	0.000238
3366.07	0.000306
3375.72	0.000224
3385.36	0.000306
3395.01	0.00013
3404.65	0.000254
3414.3	3.6e-05
3423.94	0.00028
3433.59	0.000267
3443.23	0.000228
3452.88	0.000137
3462.52	0.000397
3472.17	0.000299
3481.81	0.000427
3491.46	0.00059892
3501.1	0.000717
3510.75	0.0009171
3520.39	0.0010243
3530.04	0.0014824
3539.68	0.002268
3549.32	0.004638
3558.97	0.008538
3568.61	0.028748
3578.26	0.032888
3587.9	0.008588
3597.55	0.003938
3607.19	0.001838
3616.84	0.0011346
3626.48	0.0007907
3636.13	0.0005026
3645.77	0.00057316
3655.42	0.0004488
3665.06	0.000153
3674.71	0.0004484
3684.35	0.000348
3694	0.000357
3703.64	0.00031
3713.29	0.000359
3722.93	0.000229
3732.58	0.000423
3742.22	0.000299
3751.86	0.000148
3761.51	0.00041
3771.15	0.000307
3780.8	0.000305
3790.44	0.000349
3800.09	0
3809.73	0.000172
3819.38	0.000282
3829.02	0.000384
3838.67	0.0004475
3848.31	0.000341
3857.96	0.000328
3867.6	0.000312
3877.25	0.00038
3886.89	0.0004651
3896.54	0.000437
3906.18	0.00034
3915.83	0.000409
3925.47	0.000395
3935.12	0.00037
3944.76	0.000246
3954.41	0.0004974
3964.05	0.000228
3973.69	0.0004957
3983.34	0.000383
3992.98	0.0004528
