Infrared Spectrum: 2,4-DICHLOROPHENOXY ACETYL CHLORIDE
Formula: C8 H5 Cl3 O2
CAS: 774-74-3
State: SOLUTION (10% CCl4 FOR 3800-1333, 10% CS2 FOR 1333-400 CM^-^1)
Class: COBLENTZ
Instrument: Not specified, most likely a prism, grating, or hybrid spectrometer.
Sampling: TRANSMISSION
Path length: 0.0112 CM, 0.0116 CM
Resolution: 4
Origin: DOW CHEMICAL COMPANY
1/CM	TRANSMITTANCE
427.783	0.751
436.917	0.753
446.051	0.758
455.186	0.813
464.32	0.861
473.454	0.872
482.588	0.898
491.722	0.891
500.856	0.937
509.991	0.966
519.125	0.968
528.259	0.944
537.393	0.978
546.527	0.98
555.662	0.948
564.796	0.719
573.93	0.5862
583.064	0.6139
592.198	0.868
601.333	0.937
610.467	0.968
619.601	0.976
628.735	0.968
637.869	0.925
647.003	0.3492
656.138	0.817
665.272	0.925
674.406	0.969
683.54	0.959
692.674	0.9
701.809	0.428
710.943	0.63
720.077	0.4739
729.211	0.6409
738.345	0.801
747.479	0.744
756.614	0.3852
765.748	0.0811
774.882	0.1449
784.016	0.5
793.15	0.4579
802.285	0.129
811.419	0.5859
820.553	0.731
829.687	0.52
838.821	0.69
847.955	0.6108
857.09	0.728
866.224	0.6111
875.358	0.303
884.492	0.742
893.626	0.8609
902.761	0.891
911.895	0.877
921.029	0.809
930.163	0.5129
939.297	0.015
948.432	0.0879
957.566	0.328
966.7	0.342
975.834	0.506
984.968	0.6979
994.102	0.804
1003.24	0.818
1012.37	0.866
1021.5	0.884
1030.64	0.879
1039.77	0.849
1048.91	0.779
1058.04	0.516
1067.18	0.756
1076.31	0.77
1085.44	0.5949
1094.58	0.513
1103.71	0.298
1112.85	0.2071
1121.98	0.5269
1131.12	0.7369
1140.25	0.841
1149.38	0.877
1158.52	0.927
1167.65	0.962
1176.79	0.978
1185.92	0.969
1195.05	0.964
1204.19	0.946
1213.32	0.891
1222.46	0.735
1231.59	0.255
1240.73	0.17
1249.86	0.468
1258.99	0.357
1268.13	0.2201
1277.26	0.468
1286.4	0.543
1295.53	0.3489
1304.66	0.2069
1313.8	0.7149
1322.93	0.911
1332.07	0.943
1341.2	0.944
1350.34	0.936
1359.47	0.879
1368.6	0.879
1377.74	0.898
1386.87	0.7899
1396.01	0.566
1405.14	0.872
1414.27	0.753
1423.41	0.5179
1432.54	0.4633
1441.68	0.674
1450.81	0.71
1459.95	0.69
1469.08	0.4999
1478.21	0.01
1487.35	0.042
1496.48	0.23
1505.62	0.529
1514.75	0.626
1523.89	0.664
1533.02	0.646
1542.15	0.57
1551.29	0.481
1560.42	0.5041
1569.56	0.559
1578.69	0.5271
1587.82	0.476
1596.96	0.687
1606.09	0.822
1615.23	0.911
1624.36	0.944
1633.5	0.964
1642.63	0.971
1651.76	0.969
1660.9	0.969
1670.03	0.969
1679.17	0.969
1688.3	0.964
1697.43	0.959
1706.57	0.944
1715.7	0.946
1724.84	0.936
1733.97	0.92
1743.11	0.895
1752.24	0.888
1761.37	0.872
1770.51	0.809
1779.64	0.6229
1788.78	0.335
1797.91	0.431
1807.04	0.056
1816.18	0.019
1825.31	0.14
1834.45	0.392
1843.58	0.6122
1852.72	0.753
1861.85	0.792
1870.98	0.776
1880.12	0.71
1889.25	0.68
1898.39	0.74
1907.52	0.827
1916.66	0.889
1925.79	0.914
1934.92	0.928
1944.06	0.932
1953.19	0.948
1962.33	0.957
1971.46	0.962
1980.59	0.96
1989.73	0.96
1998.86	0.962
2008	0.96
2017.13	0.9595
2026.27	0.968
2035.4	0.971
2044.53	0.97
2053.67	0.974
2062.8	0.973
2071.94	0.973
2081.07	0.973
2090.2	0.983
2099.34	0.979
2108.47	0.978
2117.61	0.9739
2126.74	0.971
2135.88	0.969
2145.01	0.9685
2154.14	0.9701
2163.28	0.9769
2172.41	0.9755
2181.55	0.971
2190.68	0.969
2199.81	0.9701
2208.95	0.973
2218.08	0.973
2227.22	0.973
2236.35	0.973
2245.49	0.973
2254.62	0.973
2263.75	0.969
2272.89	0.9684
2282.02	0.962
2291.16	0.9579
2300.29	0.9539
2309.43	0.9498
2318.56	0.948
2327.69	0.95
2336.83	0.9553
2345.96	0.96
2355.1	0.9701
2364.23	0.975
2373.36	0.9772
2382.5	0.9803
2391.63	0.9828
2400.77	0.9832
2409.9	0.984
2419.04	0.9846
2428.17	0.985
2437.3	0.987
2446.44	0.9858
2455.57	0.984
2464.71	0.984
2473.84	0.9862
2482.97	0.9816
2492.11	0.978
2501.24	0.978
2510.38	0.98
2519.51	0.9768
2528.65	0.973
2537.78	0.973
2546.91	0.9742
2556.05	0.9754
2565.18	0.9756
2574.32	0.9828
2583.45	0.9812
2592.58	0.9862
2601.72	0.987
2610.85	0.9844
2619.99	0.9846
2629.12	0.987
2638.26	0.987
2647.39	0.9883
2656.52	0.989
2665.66	0.987
2674.79	0.9857
2683.93	0.982
2693.06	0.982
2702.19	0.984
2711.33	0.9807
2720.46	0.976
2729.6	0.9737
2738.73	0.9743
2747.87	0.9813
2757	0.984
2766.13	0.984
2775.27	0.98
2784.4	0.985
2793.54	0.9857
2802.67	0.9827
2811.81	0.9753
2820.94	0.9697
2830.07	0.96
2839.21	0.9667
2848.34	0.975
2857.48	0.975
2866.61	0.9716
2875.74	0.9683
2884.88	0.96
2894.01	0.9392
2903.15	0.9216
2912.28	0.8763
2921.42	0.8333
2930.55	0.8691
2939.68	0.9285
2948.82	0.9527
2957.95	0.955
2967.09	0.955
2976.22	0.9642
2985.35	0.9757
2994.49	0.9847
3003.62	0.9884
3012.76	0.989
3021.89	0.991
3031.03	0.9856
3040.16	0.9774
3049.29	0.987
3058.43	0.985
3067.56	0.9637
3076.7	0.921
3085.83	0.9584
3094.96	0.9546
3104.1	0.9649
3113.23	0.9815
3122.37	0.9905
3131.5	0.9935
3140.64	0.996
3149.77	0.9975
3158.9	0.9995
3168.04	0.9995
3177.17	1.003
3186.31	1.0065
3195.44	1.008
3204.58	1.008
3213.71	1.0072
3222.84	1.005
3231.98	1.007
3241.11	1.007
3250.25	1.008
3259.38	1.01
3268.51	1.008
3277.65	1.0078
3286.78	1.01
3295.92	1.008
3305.05	1.008
3314.19	1.008
3323.32	1.008
3332.45	1.01
3341.59	1.008
3350.72	1.008
3359.86	1.01
3368.99	1.0116
3378.12	1.012
3387.26	1.008
3396.39	1.008
3405.53	1.01
3414.66	1.008
3423.8	1.008
3432.93	1.008
3442.06	1.008
3451.2	1.007
3460.33	1.007
3469.47	1.007
3478.6	1.007
3487.73	1.007
3496.87	1.0054
3506	1.005
3515.14	1.005
3524.27	1.0034
3533.41	1.0014
3542.54	1
3551.67	1
3560.81	1
3569.94	0.998
3579.08	0.9912
3588.21	0.9752
3597.35	0.971
3606.48	0.9808
3615.61	0.989
3624.75	0.9937
3633.88	0.994
3643.02	0.992
3652.15	0.992
3661.28	0.992
3670.42	0.9974
3679.55	1
3688.69	1.0027
3697.82	1.003
3706.96	1.003
3716.09	1.003
3725.22	1.003
3734.36	1.001
3743.49	1
3752.63	1.0027
3761.76	1.003
3770.89	1.0047
3780.03	1.005
3789.16	1.005
