Infrared Spectrum: 17-ETHYLENEDIOXY-ANDROST-5-EN-3Beta-OL
Formula: C21 H32 O3
CAS: 7745-40-6
State: SOLUTION (7% IN CHCl3)
Class: COBLENTZ
Instrument: PERKIN-ELMER
Sampling: TRANSMISSION
Path length: 0.010 CM CELL
Resolution: 4
Origin: ABBOTT LABORATORIES - WASHBURN
MICROMETERS	TRANSMITTANCE
2.009	0.912
2.04216	0.917
2.07531	0.92
2.10847	0.9229
2.14162	0.927
2.17478	0.927
2.20793	0.932
2.24109	0.933
2.27424	0.9302
2.3074	0.9253
2.34055	0.9201
2.37371	0.92
2.40686	0.925
2.44002	0.9299
2.47317	0.9331
2.50633	0.936
2.53948	0.9349
2.57264	0.936
2.60579	0.938
2.63895	0.94
2.6721	0.941
2.70526	0.941
2.73841	0.9227
2.77157	0.8065
2.80472	0.8799
2.83788	0.8654
2.87103	0.824
2.90419	0.817
2.93734	0.8317
2.9705	0.8514
3.00365	0.8718
3.03681	0.8849
3.06996	0.895
3.10312	0.915
3.13627	0.9198
3.16943	0.9182
3.20258	0.9151
3.23574	0.9072
3.26889	0.8642
3.30205	0.7244
3.3352	0.3632
3.36836	0.2648
3.40151	0.2618
3.43467	0.283
3.46782	0.3547
3.50098	0.4677
3.53413	0.7085
3.56729	0.8471
3.60044	0.8845
3.6336	0.908
3.66675	0.917
3.69991	0.9219
3.73306	0.923
3.76622	0.927
3.79937	0.928
3.83253	0.9378
3.86568	0.9429
3.89884	0.945
3.93199	0.948
3.96515	0.945
3.9983	0.9432
4.03146	0.933
4.06461	0.9251
4.09777	0.917
4.13092	0.927
4.16408	0.9409
4.19723	0.9528
4.23039	0.951
4.26354	0.9509
4.2967	0.955
4.32985	0.96
4.36301	0.968
4.39616	0.966
4.42932	0.9613
4.46247	0.963
4.49563	0.966
4.52879	0.966
4.56194	0.966
4.5951	0.961
4.62825	0.963
4.66141	0.968
4.69456	0.968
4.72772	0.966
4.76087	0.968
4.79403	0.965
4.82718	0.96
4.86034	0.961
4.89349	0.956
4.92665	0.9628
4.9598	0.963
4.99296	0.955
5.02611	0.956
5.05927	0.961
5.09242	0.963
5.12558	0.96
5.15873	0.96
5.19189	0.9606
5.22504	0.963
5.2582	0.965
5.29135	0.966
5.32451	0.968
5.35766	0.968
5.39082	0.968
5.42397	0.968
5.45713	0.966
5.49028	0.9658
5.52344	0.966
5.55659	0.9609
5.58975	0.96
5.6229	0.958
5.65606	0.961
5.68921	0.96
5.72237	0.9584
5.75552	0.9507
5.78868	0.95
5.82183	0.9536
5.85499	0.955
5.88814	0.956
5.9213	0.955
5.95445	0.9444
5.98761	0.927
6.02076	0.931
6.05392	0.938
6.08707	0.9435
6.12023	0.9476
6.15338	0.9447
6.18654	0.945
6.21969	0.946
6.25285	0.938
6.286	0.94
6.31916	0.9382
6.35231	0.9427
6.38547	0.938
6.41862	0.9375
6.45178	0.943
6.48493	0.946
6.51809	0.9419
6.55124	0.935
6.5844	0.9311
6.61755	0.9242
6.65071	0.9163
6.68386	0.905
6.71702	0.8807
6.75017	0.835
6.78333	0.7203
6.81648	0.6159
6.84964	0.5981
6.88279	0.6362
6.91595	0.7201
6.9491	0.6801
6.98226	0.6573
7.01542	0.7766
7.04857	0.8165
7.08173	0.829
7.11488	0.8307
7.14804	0.8202
7.18119	0.7929
7.21435	0.6951
7.2475	0.5736
7.28066	0.6306
7.31381	0.7004
7.34697	0.7295
7.38012	0.7412
7.41328	0.7489
7.44643	0.739
7.47959	0.7707
7.51274	0.7716
7.5459	0.769
7.57905	0.769
7.61221	0.7345
7.64536	0.5364
7.67852	0.5195
7.71167	0.7004
7.74483	0.7456
7.77798	0.7527
7.81114	0.6897
7.84429	0.6417
7.87745	0.6655
7.9106	0.6983
7.94376	0.7148
7.97691	0.7082
8.01007	0.6926
8.04322	0.6704
8.07638	0.635
8.10953	0.6031
8.14269	0.6
8.17584	0.5997
8.209	0.6124
8.24215	0.6272
8.27531	0.6488
8.30846	0.6593
8.34162	0.6698
8.37477	0.6835
8.40793	0.684
8.44108	0.6821
8.47424	0.6333
8.50739	0.5049
8.54055	0.4121
8.5737	0.3555
8.60686	0.3828
8.64001	0.4518
8.67317	0.5308
8.70632	0.5734
8.73948	0.6525
8.77263	0.6876
8.80579	0.6793
8.83894	0.6973
8.8721	0.7065
8.90525	0.6996
8.93841	0.703
8.97156	0.6469
9.00472	0.5139
9.03787	0.4339
9.07103	0.4233
9.10418	0.3918
9.13734	0.4163
9.17049	0.4852
9.20365	0.544
9.2368	0.567
9.26996	0.5567
9.30311	0.548
9.33627	0.553
9.36942	0.527
9.40258	0.4841
9.43573	0.5063
9.46889	0.5192
9.50205	0.4739
9.5352	0.375
9.56836	0.2333
9.60151	0.1261
9.63467	0.1261
9.66782	0.2358
9.70098	0.3493
9.73413	0.4386
9.76729	0.5263
9.80044	0.5354
9.8336	0.5084
9.86675	0.5245
9.89991	0.5887
9.93306	0.6436
9.96622	0.668
9.99937	0.6459
10.0325	0.6736
10.0657	0.7445
10.0988	0.7713
10.132	0.771
10.1651	0.7395
10.1983	0.6847
10.2315	0.695
10.2646	0.7471
10.2978	0.7564
10.3309	0.7075
10.3641	0.6262
10.3972	0.5238
10.4304	0.5185
10.4635	0.57
10.4967	0.517
10.5299	0.4516
10.563	0.5469
10.5962	0.6833
10.6293	0.7596
10.6625	0.799
10.6956	0.8297
10.7288	0.8488
10.7619	0.8617
10.7951	0.8666
10.8282	0.8695
10.8614	0.873
10.8946	0.875
10.9277	0.867
10.9609	0.865
10.994	0.8631
11.0272	0.8208
11.0603	0.7698
11.0935	0.7417
11.1266	0.7644
11.1598	0.8181
11.193	0.8448
11.2261	0.86
11.2593	0.8599
11.2924	0.8499
11.3256	0.8104
11.3587	0.7725
11.3919	0.7611
11.425	0.773
11.4582	0.8265
11.4913	0.8485
11.5245	0.867
11.5577	0.8842
11.5908	0.89
11.624	0.895
11.6571	0.895
11.6903	0.897
11.7234	0.893
11.7566	0.8871
11.7897	0.8631
11.8229	0.8227
11.8561	0.79
11.8892	0.7565
11.9224	0.7158
11.9555	0.711
11.9887	0.7207
12.0218	0.7631
12.055	0.8099
12.0881	0.8439
12.1213	0.8612
12.1545	0.8757
12.1876	0.883
12.2208	0.8874
12.2539	0.892
12.2871	0.8944
12.3202	0.892
12.3534	0.8819
12.3865	0.8617
12.4197	0.8438
12.4528	0.8389
12.486	0.837
12.5192	0.834
12.5523	0.837
12.5855	0.835
12.6186	0.842
12.6518	0.84
12.6849	0.842
12.7181	0.8463
12.7512	0.8532
12.7844	0.862
12.8176	0.867
12.8507	0.868
12.8839	0.8662
12.917	0.867
12.9502	0.8736
12.9833	0.8772
13.0165	0.8784
13.0496	0.8829
13.0828	0.8832
13.1159	0.8851
13.1491	0.892
13.1823	0.89
13.2154	0.885
13.2486	0.8897
13.2817	0.8915
13.3149	0.897
13.348	0.895
13.3812	0.9
13.4143	0.9
13.4475	0.9
13.4807	0.8991
13.5138	0.8988
13.547	0.8976
13.5801	0.9
13.6133	0.897
13.6464	0.9
13.6796	0.9
13.7127	0.902
13.7459	0.905
13.779	0.905
13.8122	0.907
13.8454	0.91
13.8785	0.91
13.9117	0.9104
13.9448	0.9127
13.978	0.915
14.0111	0.9157
14.0443	0.913
14.0774	0.908
14.1106	0.904
14.1438	0.8991
14.1769	0.8942
14.2101	0.8937
14.2432	0.8973
14.2764	0.8995
14.3095	0.8917
14.3427	0.887
14.3758	0.885
14.409	0.888
14.4421	0.888
14.4753	0.888
14.5085	0.8871
14.5416	0.885
14.5748	0.885
14.6079	0.885
14.6411	0.8823
14.6742	0.88
14.7074	0.8774
14.7405	0.875
14.7737	0.872
14.8069	0.868
14.84	0.865
14.8732	0.865
14.9063	0.865
14.9395	0.868
