Infrared Spectrum: 2-Bromo-4-nitrotoluene
Formula: C 7 H 6 Br N O 2
CAS: 7745-93-9
State: gas
Origin: EPA-IR VAPOR PHASE LIBRARY
1/CM	ABSORBANCE
549.8	0.00025612
559.445	0.0004586
569.09	1.7e-05
578.734	0.0005056
588.379	0.0003612
598.024	0.00025579
607.669	0.0004726
617.313	0.0011064
626.958	0.006375
636.603	0.005015
646.248	0.001345
655.893	0.001255
665.537	0.004735
675.182	0.019535
684.827	0.018785
694.472	0.005865
704.116	0.003345
713.761	0.005375
723.406	0.010005
733.051	0.016135
742.695	0.016105
752.34	0.005555
761.985	0.001675
771.63	0.001745
781.275	0.006945
790.919	0.031135
800.564	0.016795
810.209	0.005595
819.854	0.010815
829.498	0.010465
839.143	0.004815
848.788	0.002985
858.433	0.004045
868.078	0.007945
877.722	0.016195
887.367	0.016255
897.012	0.013255
906.657	0.006695
916.301	0.002265
925.946	0.0011211
935.591	0.001227
945.236	0.001174
954.88	0.0011704
964.525	0.001525
974.17	0.001715
983.815	0.002065
993.46	0.003335
1003.1	0.003125
1012.75	0.002245
1022.39	0.003795
1032.04	0.012255
1041.68	0.017975
1051.33	0.008015
1060.97	0.002425
1070.62	0.002025
1080.26	0.001785
1089.91	0.002305
1099.55	0.005555
1109.2	0.014455
1118.84	0.024885
1128.49	0.016665
1138.13	0.006245
1147.78	0.002775
1157.42	0.0012017
1167.07	0.001705
1176.71	0.001395
1186.36	0.001435
1196	0.001545
1205.64	0.0011462
1215.29	0.001485
1224.93	0.001275
1234.58	0.002465
1244.22	0.003395
1253.87	0.006015
1263.51	0.012265
1273.16	0.007865
1282.8	0.005015
1292.45	0.003665
1302.09	0.003925
1311.74	0.005175
1321.38	0.007815
1331.03	0.023235
1340.67	0.094425
1350.32	0.169685
1359.96	0.075555
1369.61	0.018185
1379.25	0.014705
1388.9	0.015665
1398.54	0.011755
1408.18	0.008135
1417.83	0.006735
1427.47	0.006305
1437.12	0.007575
1446.76	0.010645
1456.41	0.014805
1466.05	0.022185
1475.7	0.026675
1485.34	0.025145
1494.99	0.022455
1504.63	0.016675
1514.28	0.017175
1523.92	0.043245
1533.57	0.124285
1543.21	0.159035
1552.86	0.077995
1562.5	0.032225
1572.15	0.023185
1581.79	0.025915
1591.44	0.025705
1601.08	0.015495
1610.73	0.006335
1620.37	0.003865
1630.01	0.004445
1639.66	0.005355
1649.3	0.004475
1658.95	0.002285
1668.59	0.001635
1678.24	0.001645
1687.88	0.001825
1697.53	0.001635
1707.17	0.001495
1716.82	0.001265
1726.46	0.0009666
1736.11	0.0008311
1745.75	0.0007777
1755.4	0.0009666
1765.04	0.001595
1774.69	0.002345
1784.33	0.002295
1793.98	0.001785
1803.62	0.0010347
1813.27	0.0006087
1822.91	0.0004523
1832.55	0.0004874
1842.2	0.000485
1851.84	0.0004898
1861.49	0.0005923
1871.13	0.0006008
1880.78	0.0007286
1890.42	0.0010445
1900.07	0.001625
1909.71	0.001865
1919.36	0.0010382
1929	0.0005703
1938.65	0.0004123
1948.29	0.000391
1957.94	0.0003881
1967.58	0.0003706
1977.23	0.0005227
1986.87	0.000584
1996.52	0.0006137
2006.16	0.0005133
2015.81	0.0003993
2025.45	0.000253143
2035.1	0.00027
2044.74	0.00029903
2054.38	0.0003747
2064.03	0.0004953
2073.67	0.0003583
2083.32	0.0004548
2092.96	0.00031783
2102.61	0.00030301
2112.25	0.0003523
2121.9	0.00033987
2131.54	0.00030456
2141.19	0.00033255
2150.83	0.0003455
2160.48	0.0003762
2170.12	0.0003717
2179.77	0.000415
2189.41	0.00027654
2199.06	0.00033516
2208.7	0.0004207
2218.35	0.0004253
2227.99	0.0004985
2237.64	0.0004849
2247.28	0.0003872
2256.92	0.0003611
2266.57	0.000491
2276.21	0.0005592
2285.86	0.0004524
2295.5	0.0003969
2305.15	0.0003668
2314.79	0.000396
2324.44	0.0004543
2334.08	0.00030739
2343.73	0.0003558
2353.37	0.000398
2363.02	0.0004454
2372.66	0.0005157
2382.31	0.0006308
2391.95	0.0005658
2401.6	0.0006951
2411.24	0.0008192
2420.89	0.0007098
2430.53	0.0006683
2440.18	0.0006139
2449.82	0.0007943
2459.47	0.0010549
2469.11	0.0010991
2478.75	0.0008382
2488.4	0.0006783
2498.04	0.0005175
2507.69	0.0005031
2517.33	0.0005322
2526.98	0.0004645
2536.62	0.0003931
2546.27	0.0004823
2555.91	0.0009122
2565.56	0.0010333
2575.2	0.0008616
2584.85	0.0008928
2594.49	0.0007097
2604.14	0.0005421
2613.78	0.0003686
2623.43	0.0005359
2633.07	0.0005184
2642.72	0.00042
2652.36	0.0004564
2662.01	0.0004674
2671.65	0.0006662
2681.29	0.0010864
2690.94	0.001335
2700.58	0.001315
2710.23	0.0010535
2719.87	0.0009614
2729.52	0.000886
2739.16	0.0008411
2748.81	0.0008326
2758.45	0.000833
2768.1	0.0006136
2777.74	0.0005108
2787.39	0.0006513
2797.03	0.0007034
2806.68	0.0008616
2816.32	0.0011497
2825.97	0.0011779
2835.61	0.001715
2845.26	0.001975
2854.9	0.002515
2864.55	0.003635
2874.19	0.004405
2883.84	0.004645
2893.48	0.003595
2903.12	0.002795
2912.77	0.002875
2922.41	0.003935
2932.06	0.006915
2941.7	0.008035
2951.35	0.005195
2960.99	0.004385
2970.64	0.004805
2980.28	0.004815
2989.93	0.005675
2999.57	0.004915
3009.22	0.003165
3018.86	0.002535
3028.51	0.002845
3038.15	0.003195
3047.8	0.002965
3057.44	0.003805
3067.09	0.005845
3076.73	0.006195
3086.38	0.004225
3096.02	0.003465
3105.67	0.003525
3115.31	0.002025
3124.95	0.0008932
3134.6	0.0008212
3144.24	0.0006293
3153.89	0.0003675
3163.53	0.0004347
3173.18	0.00038
3182.82	0.00085
3192.47	0.0008713
3202.11	0.0005217
3211.76	0.0003968
3221.4	0.00029859
3231.05	0.0004918
3240.69	0.0005431
3250.34	0.0004042
3259.98	0.0004165
3269.63	0.0004852
3279.27	0.000127
3288.92	0.00026674
3298.56	0.00030088
3308.21	0.000225
3317.85	0.0002336
3327.49	0.00026611
3337.14	0.0003515
3346.78	0.0003547
3356.43	0.00024975
3366.07	0.000134
3375.72	0.000345
3385.36	0.0003495
3395.01	0.0004656
3404.65	0.00029127
3414.3	0.0004206
3423.94	0.00026678
3433.59	0.0004088
3443.23	0.0003807
3452.88	0.0005865
3462.52	0.000252967
3472.17	0.00025532
3481.81	0.0003585
3491.46	0.0005184
3501.1	0.00034329
3510.75	0.00029434
3520.39	0.0004489
3530.04	0.0004366
3539.68	0.000129
3549.32	6.8e-05
3558.97	0.0003587
3568.61	0.00029346
3578.26	0.0004195
3587.9	0.0003482
3597.55	0.0004557
3607.19	0.0002239
3616.84	0.00025708
3626.48	0.000249234
3636.13	0.00033948
3645.77	0.00033643
3655.42	0.0002089
3665.06	0.0003893
3674.71	0.0003542
3684.35	0.0003516
3694	0.00034081
3703.64	0.0003514
3713.29	0.0003779
3722.93	0.000252436
3732.58	0.0004249
3742.22	0.00027738
3751.86	0.0004582
3761.51	0.0004807
3771.15	0.000459
3780.8	0.0005681
3790.44	0.0004048
3800.09	0.0004875
3809.73	0.0003459
3819.38	0.0004737
3829.02	0.0003577
3838.67	0.0003604
3848.31	0.00033941
3857.96	0.0004151
3867.6	0.0005545
3877.25	0.0005178
3886.89	0.0006145
3896.54	0.000643
3906.18	0.0004454
3915.83	0.0003947
3925.47	0.0005316
3935.12	0.0007496
3944.76	0.0004702
3954.41	0.0003962
3964.05	0.0004296
3973.69	0.00034041
3983.34	0.0004492
3992.98	0.00032914
