Infrared Spectrum: 5-Fluoro-2-methylbenzonitrile
Formula: C 8 H 6 F N
CAS: 77532-79-7
State: gas
Origin: EPA-IR VAPOR PHASE LIBRARY
1/CM	ABSORBANCE
549.8	0.001838
559.445	0.0020094
569.09	0.004
578.734	0.00633
588.379	0.00508
598.024	0.00341
607.669	0.00372
617.313	0.00362
626.958	0.0015738
636.603	0.001211
646.248	0.0015308
655.893	0.00139131
665.537	0.000978
675.182	0.001021
684.827	0.00333
694.472	0.0052
704.116	0.01371
713.761	0.01269
723.406	0.01067
733.051	0.00673
742.695	0.01023
752.34	0.0133
761.985	0.00885
771.63	0.00321
781.275	0.00309
790.919	0.00561
800.564	0.01701
810.209	0.03472
819.854	0.05958
829.498	0.02636
839.143	0.00991
848.788	0.00622
858.433	0.01405
868.078	0.03129
877.722	0.06064
887.367	0.02821
897.012	0.01062
906.657	0.00442
916.301	0.007
925.946	0.02358
935.591	0.03606
945.236	0.03297
954.88	0.01776
964.525	0.00808
974.17	0.00588
983.815	0.0069
993.46	0.00797
1003.1	0.00673
1012.75	0.00507
1022.39	0.00408
1032.04	0.00356
1041.68	0.00322
1051.33	0.00483
1060.97	0.00376
1070.62	0.00502
1080.26	0.00672
1089.91	0.01599
1099.55	0.01939
1109.2	0.00949
1118.84	0.00515
1128.49	0.01008
1138.13	0.02372
1147.78	0.02879
1157.42	0.01825
1167.07	0.0183
1176.71	0.01746
1186.36	0.01736
1196	0.01494
1205.64	0.01255
1215.29	0.00732
1224.93	0.00702
1234.58	0.01385
1244.22	0.05062
1253.87	0.09051
1263.51	0.10891
1273.16	0.0885
1282.8	0.06723
1292.45	0.04224
1302.09	0.02834
1311.74	0.01279
1321.38	0.00669
1331.03	0.00533
1340.67	0.00457
1350.32	0.00414
1359.96	0.00431
1369.61	0.00464
1379.25	0.00615
1388.9	0.01092
1398.54	0.01999
1408.18	0.02663
1417.83	0.02331
1427.47	0.01282
1437.12	0.01169
1446.76	0.01435
1456.41	0.01845
1466.05	0.03211
1475.7	0.06407
1485.34	0.10452
1494.99	0.1537
1504.63	0.12824
1514.28	0.03984
1523.92	0.01487
1533.57	0.01153
1543.21	0.01396
1552.86	0.01698
1562.5	0.02257
1572.15	0.0335
1581.79	0.04244
1591.44	0.03833
1601.08	0.03582
1610.73	0.04706
1620.37	0.04085
1630.01	0.01931
1639.66	0.00866
1649.3	0.00529
1658.95	0.00365
1668.59	0.00319
1678.24	0.00296
1687.88	0.00282
1697.53	0.00305
1707.17	0.00251
1716.82	0.00249
1726.46	0.00301
1736.11	0.00477
1745.75	0.00708
1755.4	0.00732
1765.04	0.00519
1774.69	0.00274
1784.33	0.0018529
1793.98	0.0017092
1803.62	0.0019264
1813.27	0.0019534
1822.91	0.0019098
1832.55	0.00238
1842.2	0.0021014
1851.84	0.00237
1861.49	0.00252
1871.13	0.00359
1880.78	0.00553
1890.42	0.00592
1900.07	0.00412
1909.71	0.0022075
1919.36	0.0017447
1929	0.00142876
1938.65	0.00132
1948.29	0.0013223
1957.94	0.0018786
1967.58	0.0021246
1977.23	0.0021446
1986.87	0.0020758
1996.52	0.0020448
2006.16	0.0019479
2015.81	0.0019167
2025.45	0.0014496
2035.1	0.0016402
2044.74	0.001824
2054.38	0.0014688
2064.03	0.0012429
2073.67	0.0013043
2083.32	0.0015739
2092.96	0.001457
2102.61	0.0016187
2112.25	0.0014791
2121.9	0.00135328
2131.54	0.0016186
2141.19	0.0012826
2150.83	0.001231
2160.48	0.00142809
2170.12	0.0015729
2179.77	0.0021509
2189.41	0.0022502
2199.06	0.00265
2208.7	0.0033
2218.35	0.00585
2227.99	0.00969
2237.64	0.01073
2247.28	0.00671
2256.92	0.00339
2266.57	0.0018554
2276.21	0.0015943
2285.86	0.00138591
2295.5	0.0012513
2305.15	0.0012631
2314.79	0.0014427
2324.44	0.0017877
2334.08	0.0017489
2343.73	0.0018972
2353.37	0.0019295
2363.02	0.0022332
2372.66	0.0019397
2382.31	0.0017171
2391.95	0.001216
2401.6	0.0018058
2411.24	0.0019975
2420.89	0.0023057
2430.53	0.00244
2440.18	0.0020031
2449.82	0.0019901
2459.47	0.0015079
2469.11	0.0016951
2478.75	0.0016962
2488.4	0.0015173
2498.04	0.0018446
2507.69	0.0018532
2517.33	0.002103
2526.98	0.0024
2536.62	0.0019627
2546.27	0.00236
2555.91	0.00212
2565.56	0.00246
2575.2	0.0021718
2584.85	0.0018647
2594.49	0.0016489
2604.14	0.001535
2613.78	0.0019041
2623.43	0.00137693
2633.07	0.00156
2642.72	0.0014902
2652.36	0.00140675
2662.01	0.001872
2671.65	0.0019751
2681.29	0.0017941
2690.94	0.0016415
2700.58	0.0020195
2710.23	0.0020777
2719.87	0.0022107
2729.52	0.0016671
2739.16	0.0021679
2748.81	0.0023216
2758.45	0.0023277
2768.1	0.0020528
2777.74	0.001561
2787.39	0.0014771
2797.03	0.0014651
2806.68	0.0018448
2816.32	0.00133
2825.97	0.00243
2835.61	0.00249
2845.26	0.00306
2854.9	0.00422
2864.55	0.00578
2874.19	0.00806
2883.84	0.00852
2893.48	0.00787
2903.12	0.00727
2912.77	0.00744
2922.41	0.00967
2932.06	0.01529
2941.7	0.01705
2951.35	0.01345
2960.99	0.00918
2970.64	0.00874
2980.28	0.00908
2989.93	0.00901
2999.57	0.00891
3009.22	0.00784
3018.86	0.00721
3028.51	0.00777
3038.15	0.01117
3047.8	0.01256
3057.44	0.01086
3067.09	0.0095
3076.73	0.00933
3086.38	0.00727
3096.02	0.0041
3105.67	0.00289
3115.31	0.002299
3124.95	0.00254
3134.6	0.001518
3144.24	0.00133688
3153.89	0.000886
3163.53	0.0012912
3173.18	0.0017758
3182.82	0.000751
3192.47	0.0013689
3202.11	0.000694
3211.76	0.001204
3221.4	0.001214
3231.05	0.001118
3240.69	0.000501
3250.34	0.000938
3259.98	0.001118
3269.63	0.000941
3279.27	0.000975
3288.92	0.000659
3298.56	0.000555
3308.21	0.000499
3317.85	0.000984
3327.49	0.001032
3337.14	0.000735
3346.78	0.0015573
3356.43	0.0014676
3366.07	0.001165
3375.72	0.000755
3385.36	0.001189
3395.01	0.000732
3404.65	0.0012661
3414.3	0.00115
3423.94	0.000745
3433.59	0.000783
3443.23	0.001023
3452.88	0.00034
3462.52	0.001063
3472.17	0.0017954
3481.81	0.000654
3491.46	0.001156
3501.1	0.0013287
3510.75	0.000837
3520.39	0.001046
3530.04	0.000956
3539.68	0.000759
3549.32	0.000932
3558.97	0.0013146
3568.61	0.001199
3578.26	0.001071
3587.9	0.000668
3597.55	0.000475
3607.19	0.000424
3616.84	0.0012836
3626.48	0.00029
3636.13	0.000968
3645.77	0.001169
3655.42	0.000922
3665.06	0.0017303
3674.71	0.001237
3684.35	0.000862
3694	0.000579
3703.64	0.000666
3713.29	0.00134274
3722.93	0.000589
3732.58	0.001441
3742.22	0.0014492
3751.86	0.00140529
3761.51	0.000658
3771.15	0.000897
3780.8	0.000972
3790.44	0.0012
3800.09	0.001734
3809.73	0.00136743
3819.38	0.001009
3829.02	0.001051
3838.67	0.001204
3848.31	0.001036
3857.96	0.001021
3867.6	0.000897
3877.25	0
3886.89	0.000982
3896.54	0.0012525
3906.18	0.001001
3915.83	0.0015931
3925.47	0.001
3935.12	0.000593
3944.76	0.000955
3954.41	0.00135412
3964.05	0.0014427
3973.69	0.000802
3983.34	0.000514
3992.98	0.000861
