Infrared Spectrum: Sodium Sulfate, Anhydrous
Formula: Na 2 S O 4
CAS: 7757-82-6
State: solid
Instrument: Bruker Tensor 37 FTIR
Resolution: 0.96450084
Origin: Pacific Northwest National Laboratory Under IARPA Contract
1/cm	Reflectance
7498.99	0.824685
7481.63	0.821805
7464.27	0.821408
7446.91	0.816012
7429.55	0.81609
7412.19	0.816701
7394.84	0.818261
7377.48	0.817832
7360.12	0.81891
7342.76	0.816802
7325.4	0.816785
7308.04	0.814866
7290.68	0.814246
7273.32	0.813011
7255.96	0.811191
7238.6	0.811832
7221.24	0.810138
7203.88	0.811036
7186.52	0.809907
7169.16	0.811906
7151.8	0.811059
7134.44	0.810953
7117.08	0.811379
7099.72	0.811743
7082.36	0.812989
7065	0.813609
7047.64	0.814194
7030.28	0.814943
7012.92	0.815134
6995.56	0.815812
6978.2	0.816188
6960.84	0.816652
6943.48	0.817168
6926.12	0.818406
6908.76	0.81844
6891.4	0.819714
6874.04	0.82052
6856.68	0.820998
6839.32	0.820848
6821.96	0.821218
6804.6	0.821086
6787.24	0.822163
6769.88	0.822615
6752.52	0.822688
6735.16	0.823152
6717.8	0.823354
6700.44	0.824291
6683.08	0.824179
6665.72	0.824275
6648.36	0.824011
6631	0.823881
6613.64	0.824045
6596.28	0.823455
6578.92	0.824048
6561.56	0.823579
6544.2	0.822895
6526.85	0.823071
6509.49	0.823082
6492.13	0.824005
6474.77	0.823697
6457.41	0.823977
6440.05	0.822157
6422.69	0.820665
6405.33	0.816955
6387.97	0.807373
6370.61	0.797755
6353.25	0.793125
6335.89	0.791889
6318.53	0.794435
6301.17	0.796656
6283.81	0.798915
6266.45	0.802432
6249.09	0.805313
6231.73	0.806906
6214.37	0.809404
6197.01	0.810648
6179.65	0.812443
6162.29	0.813962
6144.93	0.814372
6127.57	0.815476
6110.21	0.816628
6092.85	0.815905
6075.49	0.816745
6058.13	0.817303
6040.77	0.816545
6023.41	0.815979
6006.05	0.815801
5988.69	0.814652
5971.33	0.814269
5953.97	0.813041
5936.61	0.812455
5919.25	0.810355
5901.89	0.807068
5884.53	0.808185
5867.17	0.806899
5849.81	0.801861
5832.45	0.802071
5815.09	0.801785
5797.73	0.797794
5780.37	0.790899
5763.01	0.793565
5745.65	0.792324
5728.29	0.791205
5710.93	0.790414
5693.57	0.789837
5676.21	0.786485
5658.86	0.78341
5641.5	0.780739
5624.14	0.77277
5606.78	0.753975
5589.42	0.712178
5572.06	0.649505
5554.7	0.595851
5537.34	0.555558
5519.98	0.525871
5502.62	0.496572
5485.26	0.472886
5467.9	0.44763
5450.54	0.42507
5433.18	0.41776
5415.82	0.40149
5398.46	0.41416
5381.1	0.42017
5363.74	0.39576
5346.38	0.40817
5329.02	0.4708
5311.66	0.47646
5294.3	0.38263
5276.94	0.52021
5259.58	0.55203
5242.22	0.55982
5224.86	0.55735
5207.5	0.55306
5190.14	0.55572
5172.78	0.56119
5155.42	0.60885
5138.06	0.62691
5120.7	0.60559
5103.34	0.61646
5085.98	0.64358
5068.62	0.60724
5051.26	0.5293
5033.9	0.5497
5016.54	0.56227
4999.18	0.52251
4981.82	0.44389
4964.46	0.37495
4947.1	0.29694
4929.74	0.21194
4912.38	0.06157
4895.02	0.0351
4877.66	0.03292
4860.3	0.03394
4842.94	0.03276
4825.58	0.03295
4808.22	0.02907
4790.86	0.03669
4773.51	0.19828
4756.15	0.31478
4738.79	0.38061
4721.43	0.42878
4704.07	0.45409
4686.71	0.45441
4669.35	0.34355
4651.99	0.25574
4634.63	0.18498
4617.27	0.14651
4599.91	0.37159
4582.55	0.21766
4565.19	0.07675
4547.83	0.04482
4530.47	0.0496
4513.11	0.20295
4495.75	0.20709
4478.39	0.16374
4461.03	0.10844
4443.67	0.04426
4426.31	0.02072
4408.95	0.01586
4391.59	0.01368
4374.23	0.01451
4356.87	0.11219
4339.51	0.46624
4322.15	0.457
4304.79	0.25582
4287.43	0.08023
4270.07	0.05634
4252.71	0.04799
4235.35	0.04539
4217.99	0.05112
4200.63	0.05582
4183.27	0.05813
4165.91	0.05964
4148.55	0.0423033
4131.19	0.0389454
4113.83	0.0355732
4096.47	0.0260666
4079.11	0.01699
4061.75	0.10426
4044.39	0.822243
4027.03	0.822787
4009.67	0.81801
3992.31	0.814828
3974.95	0.814397
3957.59	0.814326
3940.23	0.817438
3922.87	0.817616
3905.52	0.817676
3888.16	0.817804
3870.8	0.816882
3853.44	0.815301
3836.08	0.813802
3818.72	0.813604
3801.36	0.811567
3784	0.810396
3766.64	0.810161
3749.28	0.811004
3731.92	0.809541
3714.56	0.809851
3697.2	0.810086
3679.84	0.809717
3662.48	0.811874
3645.12	0.812705
3627.76	0.813537
3610.4	0.813406
3593.04	0.81534
3575.68	0.816838
3558.32	0.817175
3540.96	0.817732
3523.6	0.817894
3506.24	0.818438
3488.88	0.818983
3471.52	0.818344
3454.16	0.819131
3436.8	0.820654
3419.44	0.820379
3402.08	0.820304
3384.72	0.82078
3367.36	0.821167
3350	0.821924
3332.64	0.821657
3315.28	0.823019
3297.92	0.82283
3280.56	0.822429
3263.2	0.823204
3245.84	0.823124
3228.48	0.824201
3211.12	0.823137
3193.76	0.823503
3176.4	0.822981
3159.04	0.823159
3141.68	0.822533
3124.32	0.823087
3106.96	0.823208
3089.6	0.82469
3072.24	0.823436
3054.88	0.824267
3037.53	0.824421
3020.17	0.823781
3002.81	0.823038
2985.45	0.822756
2968.09	0.819939
2950.73	0.814047
2933.37	0.80314
2916.01	0.794738
2898.65	0.792354
2881.29	0.792185
2863.93	0.793691
2846.57	0.796261
2829.21	0.799033
2811.85	0.802846
2794.49	0.805887
2777.13	0.809183
2759.77	0.810399
2742.41	0.812067
2725.05	0.813581
2707.69	0.81438
2690.33	0.816128
2672.97	0.81667
2655.61	0.817352
2638.25	0.817959
2620.89	0.818385
2603.53	0.817977
2586.17	0.818396
2568.81	0.818106
2551.45	0.817955
2534.09	0.817376
2516.73	0.816052
2499.37	0.815489
2482.01	0.81424
2464.65	0.811715
2447.29	0.809233
2429.93	0.810192
2412.57	0.809353
2395.21	0.802872
2377.85	0.804615
2360.49	0.804036
2343.13	0.799236
2325.77	0.795879
2308.41	0.795888
2291.05	0.794362
2273.69	0.793874
2256.33	0.79347
2238.97	0.792911
2221.61	0.790389
2204.25	0.787289
2186.89	0.782919
2169.53	0.774217
2152.18	0.74906
2134.82	0.700085
2117.46	0.63485
2100.1	0.583752
2082.74	0.545769
2065.38	0.517198
2048.02	0.489114
2030.66	0.465882
2013.3	0.439886
1995.94	0.423074
1978.58	0.415357
1961.22	0.400202
1943.86	0.411998
1926.5	0.418532
1909.14	0.37564
1891.78	0.445645
1874.42	0.478839
1857.06	0.463802
1839.7	0.360625
1822.34	0.537607
1804.98	0.558057
1787.62	0.562943
1770.26	0.558089
1752.9	0.559488
1735.54	0.558746
1718.18	0.573072
1700.82	0.622314
1683.46	0.630042
1666.1	0.607923
1648.74	0.640859
1631.38	0.64482
1614.02	0.564396
1596.66	0.52454
1579.3	0.552191
1561.94	0.5643
1544.58	0.497793
1527.22	0.422374
1509.86	0.348775
1492.5	0.273066
1475.14	0.133239
1457.78	0.0470895
1440.42	0.0385004
1423.06	0.0333448
1405.7	0.0467021
1388.34	0.0332156
1370.98	0.0327528
1353.62	0.0297606
1336.26	0.078131
1318.9	0.241055
1301.54	0.336838
1284.19	0.396306
1266.83	0.444816
1249.47	0.459368
1232.11	0.451995
1214.75	0.273313
1197.39	0.258427
1180.03	0.158565
1162.67	0.175431
1145.31	0.375446
1127.95	0.161977
1110.59	0.0453244
1093.23	0.0450445
1075.87	0.0758814
1058.51	0.217484
1041.15	0.196689
1023.79	0.14439
1006.43	0.087409
989.068	0.0363477
971.709	0.0206118
954.349	0.0169092
936.989	0.0157467
919.629	0.0196538
902.269	0.246911
884.91	0.418822
867.55	0.517199
850.19	0.159286
832.83	0.0716407
815.47	0.0548822
798.111	0.0491238
780.751	0.0486933
763.391	0.0553988
746.031	0.0581435
728.671	0.0629332
711.312	0.0549145
693.952	0.0423106
676.592	0.039792
659.232	0.0335278
641.872	0.0245404
624.513	0.0688315
607.153	0.114393
