Infrared Spectrum: Silane, methyldiphenyl-,
Formula: C13 H14 Si
CAS: 776-76-1
State: SOLUTION (10% CCl4 FOR 3800-1335, 10% CS2 FOR 1335-460 CM^-^1)
Class: COBLENTZ III
Instrument: DOW KBr FOREPRISM-GRATING
Instrument parameters: BLAZED AT 3.5, 12.0, 20.0 MICRON AND CHANGED AT 5.0, 7.5, 14.9 MICRON
Sampling: TRANSMISSION
Path length: 0.011 CM, 0.011 CM
Resolution: 2
Origin: DOW CHEMICAL COMPANY
1/CM	TRANSMITTANCE
3804	0.8928
3795	0.8923
3786	0.8918
3777	0.8911
3768	0.8904
3759	0.8893
3750	0.8882
3741	0.8874
3732	0.8868
3723	0.8873
3714	0.8867
3705	0.8858
3696	0.8858
3687	0.8861
3678	0.887
3669	0.888
3660	0.8891
3651	0.8899
3642	0.8896
3633	0.8837
3624	0.8844
3615	0.8875
3606	0.8894
3597	0.8897
3588	0.89
3579	0.8903
3570	0.8905
3561	0.8908
3552	0.891
3543	0.8912
3534	0.8914
3525	0.8916
3516	0.8918
3507	0.8912
3498	0.8906
3489	0.89
3480	0.8895
3471	0.8894
3462	0.8893
3453	0.889
3444	0.8885
3435	0.8875
3426	0.8863
3417	0.8854
3408	0.8856
3399	0.8857
3390	0.8859
3381	0.8857
3372	0.8853
3363	0.8847
3354	0.8842
3345	0.8837
3336	0.8833
3327	0.8828
3318	0.882
3309	0.8808
3300	0.8796
3291	0.878
3282	0.876
3273	0.874
3264	0.8724
3255	0.8711
3246	0.8701
3237	0.8692
3228	0.8678
3219	0.8662
3210	0.8645
3201	0.8625
3192	0.8604
3183	0.8583
3174	0.8562
3165	0.8536
3156	0.8493
3147	0.7943
3138	0.8065
3129	0.828
3120	0.8265
3111	0.8041
3102	0.7204
3093	0.6098
3084	0.4206
3075	0.2893
3066	0.4084
3057	0.3396
3048	0.5485
3039	0.5787
3030	0.4732
3021	0.4602
3012	0.5209
3003	0.5204
2994	0.7268
2985	0.7255
2976	0.624
2967	0.5412
2958	0.7237
2949	0.7872
2940	0.7982
2931	0.7999
2922	0.7819
2913	0.7624
2904	0.7915
2895	0.8174
2886	0.8308
2877	0.8399
2868	0.8407
2859	0.8391
2850	0.8466
2841	0.8493
2832	0.8484
2823	0.8512
2814	0.855
2805	0.8592
2796	0.8633
2787	0.8668
2778	0.87
2769	0.8721
2760	0.8736
2751	0.875
2742	0.8764
2733	0.8773
2724	0.8757
2715	0.8691
2706	0.8646
2697	0.866
2688	0.8706
2679	0.873
2670	0.8745
2661	0.8755
2652	0.8762
2643	0.8758
2634	0.8756
2625	0.8675
2616	0.8715
2607	0.8736
2598	0.8699
2589	0.8698
2580	0.8744
2571	0.8754
2562	0.8763
2553	0.877
2544	0.8777
2535	0.8783
2526	0.8782
2517	0.8771
2508	0.8759
2499	0.8743
2490	0.8738
2481	0.8747
2472	0.8763
2463	0.8775
2454	0.8781
2445	0.8778
2436	0.8777
2427	0.8777
2418	0.8778
2409	0.8738
2400	0.872
2391	0.8715
2382	0.8701
2373	0.8692
2364	0.8673
2355	0.8634
2346	0.8624
2337	0.8617
2328	0.8545
2319	0.8574
2310	0.8635
2301	0.863
2292	0.8634
2283	0.864
2274	0.8636
2265	0.862
2256	0.859
2247	0.8548
2238	0.8488
2229	0.8457
2220	0.8439
2211	0.8364
2202	0.818
2193	0.793
2184	0.741
2175	0.6418
2166	0.5237
2157	0.428
2148	0.2625
2139	0.0916
2130	0.0845
2121	0.2119
2112	0.4218
2103	0.6593
2094	0.7744
2085	0.8151
2076	0.8396
2067	0.8537
2058	0.8612
2049	0.866
2040	0.8699
2031	0.8709
2022	0.8712
2013	0.8695
2004	0.8644
1995	0.8634
1986	0.8573
1977	0.8169
1968	0.8074
1959	0.7585
1950	0.8112
1941	0.8549
1932	0.8675
1923	0.8675
1914	0.8517
1905	0.788
1896	0.8165
1887	0.7549
1878	0.8195
1869	0.8612
1860	0.8677
1851	0.8653
1842	0.8418
1833	0.8289
1824	0.7725
1815	0.8068
1806	0.8461
1797	0.8558
1788	0.8573
1779	0.8336
1770	0.8099
1761	0.8221
1752	0.8364
1743	0.8362
1734	0.844
1725	0.8461
1716	0.8456
1707	0.8443
1698	0.8282
1689	0.832
1680	0.8324
1671	0.8287
1662	0.8215
1653	0.8155
1644	0.8115
1635	0.8258
1626	0.8261
1617	0.8051
1608	0.8184
1599	0.7908
1590	0.7142
1581	0.8055
1572	0.7926
1563	0.8456
1554	0.8348
1545	0.8488
1536	0.856
1527	0.8549
1518	0.8511
1509	0.8444
1500	0.8051
1491	0.5232
1482	0.7425
1473	0.7945
1464	0.7938
1455	0.7841
1446	0.7601
1437	0.4352
1428	0.3209
1419	0.653
1410	0.713
1401	0.7676
1392	0.7978
1383	0.7794
1374	0.7628
1365	0.8175
1356	0.8259
1347	0.8167
1338	0.7837
1329	0.7475
1320	0.7575
1311	0.7665
1302	0.6864
1293	0.7608
1284	0.7858
1275	0.77
1266	0.6422
1257	0.6234
1248	0.4412
1239	0.7361
1230	0.7899
1221	0.8101
1212	0.8112
1203	0.8018
1194	0.7711
1185	0.7564
1176	0.7795
1167	0.7784
1158	0.7437
1149	0.7644
1140	0.7488
1131	0.6755
1122	0.1477
1113	0.1466
1104	0.3392
1095	0.7135
1086	0.7583
1077	0.7821
1068	0.7433
1059	0.7931
1050	0.8205
1041	0.8261
1032	0.8114
1023	0.8186
1014	0.8243
1005	0.8215
996	0.7883
987	0.811
978	0.8119
969	0.804
960	0.8061
951	0.8075
942	0.8026
933	0.794
924	0.7728
915	0.7037
906	0.7128
897	0.6438
888	0.3916
879	0.041
870	0.1619
861	0.4142
852	0.3652
843	0.068
834	0
825	0.1144
816	0.534
807	0.6808
798	0.733
789	0.7582
780	0.7476
771	0.7345
762	0.6756
753	0.5744
744	0.2647
735	0.1155
726	0.0121
717	0.2127
708	0.2174
699	0.0241
690	0.3789
681	0.5088
672	0.6925
663	0.7614
654	0.7599
645	0.7857
636	0.7919
627	0.7864
618	0.7761
609	0.7676
600	0.7738
591	0.7738
582	0.7725
573	0.7664
564	0.7599
555	0.7534
546	0.7478
537	0.7496
528	0.7478
519	0.7446
510	0.7391
501	0.7089
492	0.5837
483	0.4262
474	0.4608
