Infrared Spectrum: Bromodiphenylmethane
Formula: C 13 H 11 Br
CAS: 776-74-9
State: gas
Instrument: HP-GC/MS/IRD
Origin: NIST Mass Spectrometry Data Center
1/CM	ABSORBANCE
550	0.0005712
562	0.0004746
574	0.0024346
586	0.00196
598	0.0008932
610	0.0033754
622	0.0051016
634	0.0020986
646	0.0014196
658	0.0026166
670	0.005488
682	0.0091784
694	0.014
706	0.008232
718	0.0033712
730	0.0031444
742	0.0055328
754	0.0040978
766	0.0023758
778	0.0011326
790	0.0006216
802	0.0006272
814	0.0012964
826	0.000777
838	0.000399
850	0.0005656
862	0.0002674
874	0.0001498
886	0.000147
898	9.66e-05
910	0.0002156
922	0.0001736
934	6.3e-05
946	9.8e-06
958	2.38e-05
970	2.24e-05
982	5.74e-05
994	0.0002646
1006	0.0003906
1018	0.0003766
1030	0.0016408
1042	0.000483
1054	0.0002702
1066	0.0006902
1078	0.0007616
1090	0.0003542
1102	0.0003514
1114	0.0002338
1126	0.0002506
1138	0.0006678
1150	0.0015652
1162	0.0022918
1174	0.0024416
1186	0.0023828
1198	0.0012446
1210	0.0006552
1222	0.0004256
1234	0.0004662
1246	0.000651
1258	0.0009548
1270	0.0005642
1282	0.00049
1294	0.0004872
1306	0.00049
1318	0.0005474
1330	0.0005922
1342	0.0004704
1354	0.0002492
1366	0.0002352
1378	0.0002772
1390	0.0001932
1402	0.0001778
1414	0.0002758
1426	0.0006258
1438	0.0015974
1450	0.0028434
1462	0.0016198
1474	0.0008708
1486	0.002072
1498	0.0036876
1510	0.0006734
1522	0.0003066
1534	0.0002506
1546	0.0001526
1558	0.0001568
1570	0.0004032
1582	0.0008498
1594	0.0013146
1606	0.0010906
1618	0.0003374
1630	0.0001778
1642	0.0001344
1654	0.0001666
1666	0.0002212
1678	0.0001652
1690	0.0001414
1702	9.52e-05
1714	0.000147
1726	0.0002408
1738	0.0003038
1750	0.0003388
1762	0.0002534
1774	0.0002562
1786	0.0005208
1798	0.000728
1810	0.0003276
1822	0.0002226
1834	0.0001176
1846	9.94e-05
1858	0.0002128
1870	0.0004326
1882	0.0005278
1894	0.0005012
1906	0.0001848
1918	0.0001932
1930	0.0003892
1942	0.0005964
1954	0.000609
1966	0.000329
1978	0.000105
1990	6.72e-05
2002	6.44e-05
2014	3.36e-05
2026	2.94e-05
2038	5.88e-05
2050	2.66e-05
2062	4.06e-05
2074	3.78e-05
2086	0
2098	2.38e-05
2110	5.46e-05
2122	1.12e-05
2134	2.1e-05
2146	2.8e-05
2158	2.24e-05
2170	5.32e-05
2182	2.66e-05
2194	3.64e-05
2206	2.24e-05
2218	1.82e-05
2230	2.66e-05
2242	4.2e-06
2254	4.48e-05
2266	5.32e-05
2278	5.04e-05
2290	6.58e-05
2302	8.4e-05
2314	0.0001596
2326	8.4e-05
2338	7e-05
2350	8.26e-05
2362	2.94e-05
2374	4.9e-05
2386	5.18e-05
2398	4.76e-05
2410	6.44e-05
2422	8.12e-05
2434	4.48e-05
2446	6.44e-05
2458	5.18e-05
2470	5.04e-05
2482	2.94e-05
2494	4.2e-05
2506	7.14e-05
2518	6.86e-05
2530	3.92e-05
2542	4.06e-05
2554	4.06e-05
2566	4.62e-05
2578	7.42e-05
2590	7.56e-05
2602	9.24e-05
2614	8.54e-05
2626	5.6e-05
2638	4.2e-05
2650	4.2e-05
2662	4.34e-05
2674	3.64e-05
2686	3.78e-05
2698	2.66e-05
2710	2.66e-05
2722	3.5e-05
2734	4.62e-05
2746	4.48e-05
2758	6.58e-05
2770	0.0001064
2782	9.24e-05
2794	3.36e-05
2806	4.34e-05
2818	5.32e-05
2830	6.44e-05
2842	8.54e-05
2854	0.0001008
2866	0.0001134
2878	9.66e-05
2890	0.000119
2902	0.0001484
2914	0.0001652
2926	0.0001932
2938	0.0001946
2950	0.0002044
2962	0.000413
2974	0.00042
2986	0.0003318
2998	0.0004396
3010	0.0009618
3022	0.0023856
3034	0.004599
3046	0.0036092
3058	0.0039102
3070	0.0075782
3082	0.004956
3094	0.0032816
3106	0.0019362
3118	0.0008974
3130	0.000301
3142	0.0002072
3154	0.0001988
3166	0.000189
3178	0.0001274
3190	7.42e-05
3202	5.88e-05
3214	1.68e-05
3226	2.24e-05
3238	7.84e-05
3250	4.76e-05
3262	4.62e-05
3274	6.72e-05
3286	2.8e-05
3298	2.94e-05
3310	4.06e-05
3322	4.48e-05
3334	1.82e-05
3346	6.02e-05
3358	5.32e-05
3370	5.04e-05
3382	4.62e-05
3394	2.94e-05
3406	4.9e-05
3418	6.44e-05
3430	4.62e-05
3442	0.000119
3454	7.84e-05
3466	3.92e-05
3478	8.26e-05
3490	6.72e-05
3502	6.86e-05
3514	7e-05
3526	5.46e-05
3538	7.84e-05
3550	0.0001022
3562	0.000105
3574	0.0001162
3586	0.0001456
3598	9.8e-05
3610	8.12e-05
3622	0.000112
3634	9.24e-05
3646	0.0001512
3658	0.0001442
3670	0.0001162
3682	0.0001288
3694	0.0001022
3706	0.0001288
3718	0.0001036
3730	2.24e-05
3742	2.24e-05
3754	5.6e-05
3766	0.000105
3778	7.42e-05
3790	5.6e-05
3802	0.0001078
3814	0.0001022
3826	0.0001106
3838	8.68e-05
