Infrared Spectrum: 9,10-Dihydrophenanthrene
Formula: C 14 H 12
CAS: 776-35-2
State: gas
Instrument: HP-GC/MS/IRD
Origin: NIST Mass Spectrometry Data Center
1/CM	ABSORBANCE
550	7.84e-05
562	5.32e-05
574	0.000105
586	0.0002268
598	0.0006202
610	0.0008274
622	0.0015456
634	0.0003556
646	0.0002184
658	0.0001232
670	0.0001526
682	0.000217
694	0.0004326
706	0.0004984
718	0.0020678
730	0.0066528
742	0.014
754	0.005985
766	0.0020132
778	0.0015386
790	0.0004396
802	0.0002422
814	0.0002282
826	0.0002044
838	0.0001862
850	0.0003206
862	0.000441
874	0.0002338
886	0.0003472
898	0.0003696
910	0.0002352
922	0.0002884
934	0.0004816
946	0.0003276
958	0.0001344
970	0.0001456
982	0.0001988
994	0.000602
1006	0.0007084
1018	0.0004494
1030	0.0004508
1042	0.000665
1054	0.0002968
1066	0.000154
1078	0.0002674
1090	0.0004816
1102	0.000196
1114	9.8e-05
1126	0.0001134
1138	0.000105
1150	0.0002982
1162	0.0002842
1174	0.0001162
1186	0.0001862
1198	0.0002632
1210	0.0001904
1222	0.000133
1234	0.0001652
1246	0.0003934
1258	0.0006356
1270	0.0003962
1282	0.0004172
1294	0.0007
1306	0.0006384
1318	0.000301
1330	0.0001498
1342	0.0001946
1354	0.0002534
1366	0.0001582
1378	0.000147
1390	0.000119
1402	0.0002492
1414	0.0005698
1426	0.001148
1438	0.0024542
1450	0.003619
1462	0.0022848
1474	0.0013216
1486	0.003164
1498	0.0009436
1510	0.000364
1522	0.0002464
1534	0.0001442
1546	0.0001456
1558	0.0001568
1570	0.0002968
1582	0.0005502
1594	0.0004886
1606	0.0004242
1618	0.0001834
1630	0.000217
1642	0.0002086
1654	0.0001372
1666	0.0002044
1678	0.000245
1690	0.0002002
1702	0.0002436
1714	0.0003304
1726	0.0002184
1738	0.0001624
1750	0.0001694
1762	0.0001134
1774	0.000147
1786	0.0003584
1798	0.0004158
1810	0.000189
1822	0.0003108
1834	0.0003276
1846	0.0001106
1858	0.0001526
1870	0.0003416
1882	0.0002618
1894	0.0004158
1906	0.000637
1918	0.000301
1930	0.0004102
1942	0.0005418
1954	0.0001624
1966	8.82e-05
1978	7.84e-05
1990	7.14e-05
2002	7e-05
2014	9.52e-05
2026	6.86e-05
2038	9.66e-05
2050	7.14e-05
2062	3.92e-05
2074	5.18e-05
2086	5.46e-05
2098	5.04e-05
2110	5.6e-05
2122	4.48e-05
2134	3.22e-05
2146	4.2e-05
2158	0
2170	5.6e-05
2182	5.18e-05
2194	7.56e-05
2206	7.7e-05
2218	0.0001022
2230	8.68e-05
2242	6.72e-05
2254	6.86e-05
2266	7.98e-05
2278	4.9e-05
2290	0.000105
2302	8.68e-05
2314	0.000133
2326	0.0001554
2338	8.4e-05
2350	9.1e-05
2362	7e-05
2374	9.52e-05
2386	6.86e-05
2398	6.44e-05
2410	5.74e-05
2422	4.34e-05
2434	6.44e-05
2446	7.7e-05
2458	4.9e-05
2470	8.12e-05
2482	5.32e-05
2494	7.14e-05
2506	6.44e-05
2518	7e-05
2530	6.3e-05
2542	6.3e-05
2554	7e-05
2566	6.3e-05
2578	9.1e-05
2590	9.24e-05
2602	9.66e-05
2614	0.00014
2626	0.000112
2638	8.54e-05
2650	7.84e-05
2662	6.86e-05
2674	6.58e-05
2686	0.0001092
2698	7.7e-05
2710	5.18e-05
2722	9.52e-05
2734	9.38e-05
2746	0.000105
2758	0.0001274
2770	0.0001288
2782	0.0001708
2794	0.0002016
2806	0.0002618
2818	0.0002982
2830	0.0007532
2842	0.0022036
2854	0.0023366
2866	0.0011186
2878	0.0009072
2890	0.0015722
2902	0.0030688
2914	0.002086
2926	0.0016142
2938	0.0052836
2950	0.0075208
2962	0.0022736
2974	0.0005796
2986	0.0003808
2998	0.0005698
3010	0.001764
3022	0.0037576
3034	0.0041818
3046	0.0034846
3058	0.003626
3070	0.0073668
3082	0.0047768
3094	0.0016674
3106	0.0012222
3118	0.0006048
3130	0.0003794
3142	0.0003654
3154	0.0003374
3166	0.0002114
3178	0.0001442
3190	0.0001484
3202	0.0001218
3214	0.0001204
3226	0.0001134
3238	9.8e-05
3250	8.68e-05
3262	7.14e-05
3274	0.0001008
3286	0.0001064
3298	0.0001246
3310	5.32e-05
3322	8.26e-05
3334	0.0001008
3346	0.0001064
3358	3.08e-05
3370	0.0001036
3382	0.0001078
3394	8.82e-05
3406	0.0001036
3418	9.1e-05
3430	0.0001022
3442	0.000112
3454	4.34e-05
3466	0.0001176
3478	0.0001722
3490	0.0001246
3502	0.00014
3514	0.0001316
3526	9.1e-05
3538	0.0001708
3550	0.0001274
3562	0.0001078
3574	0.0001092
3586	0.0001162
3598	0.0001498
3610	9.1e-05
3622	0.0001092
3634	0.0001274
3646	0.0001218
3658	0.0001512
3670	0.0001316
3682	0.0001792
3694	0.0001498
3706	0.000119
3718	0.0001358
3730	0.000147
3742	0.00014
3754	0.0001736
3766	0.0001484
3778	0.0002002
3790	0.0001876
3802	0.0001596
3814	0.0002044
3826	0.0002128
3838	0.0001736
