Infrared Spectrum: 2-Trifluoromethylbenzenesulphonyl chloride
Formula: C 7 H 4 Cl F 3 O 2 S
CAS: 776-04-5
State: gas
Origin: EPA-IR VAPOR PHASE LIBRARY
1/CM	ABSORBANCE
549.9	0.0237
559.547	0.05314
569.193	0.04227
578.84	0.07743
588.486	0.10375
598.133	0.06721
607.779	0.02702
617.426	0.00985
627.072	0.00488
636.719	0.01008
646.365	0.01122
656.012	0.00412
665.658	0.00303
675.305	0.00249
684.951	0.00288
694.598	0.00499
704.245	0.01944
713.891	0.03191
723.538	0.01005
733.184	0.0041
742.831	0.00414
752.477	0.00819
762.124	0.02524
771.77	0.02333
781.417	0.00858
791.063	0.00473
800.71	0.0020512
810.356	0.0018571
820.003	0.0017818
829.649	0.0015985
839.296	0.0014807
848.943	0.0013327
858.589	0.0012868
868.236	0.0013214
877.882	0.0020202
887.529	0.0020577
897.175	0.00124169
906.822	0.00104
916.468	0.001082
926.115	0.0011006
935.761	0.00120292
945.408	0.00126559
955.054	0.0016628
964.701	0.00227
974.347	0.0015859
983.994	0.0013819
993.64	0.0016377
1003.29	0.0021402
1012.93	0.00382
1022.58	0.01299
1032.23	0.03429
1041.87	0.02542
1051.52	0.00759
1061.17	0.00469
1070.81	0.00597
1080.46	0.01401
1090.11	0.02992
1099.75	0.0239
1109.4	0.01814
1119.05	0.02788
1128.69	0.03282
1138.34	0.02139
1147.99	0.02973
1157.63	0.04945
1167.28	0.08956
1176.92	0.14556
1186.57	0.18136
1196.22	0.17115
1205.86	0.08553
1215.51	0.02644
1225.16	0.0144
1234.8	0.0102
1244.45	0.00924
1254.1	0.01341
1263.74	0.03812
1273.39	0.05315
1283.04	0.03341
1292.68	0.03471
1302.33	0.09577
1311.98	0.1129
1321.62	0.03312
1331.27	0.013
1340.92	0.00793
1350.56	0.00614
1360.21	0.00642
1369.86	0.00745
1379.5	0.01134
1389.15	0.02131
1398.79	0.05559
1408.44	0.09108
1418.09	0.0388
1427.73	0.01352
1437.38	0.01485
1447.03	0.01027
1456.67	0.00442
1466.32	0.00234
1475.97	0.0017961
1485.61	0.0015172
1495.26	0.0014149
1504.91	0.00126979
1514.55	0.001073
1524.2	0.001039
1533.85	0.0010867
1543.49	0.000954
1553.14	0.000887
1562.79	0.0011176
1572.43	0.0016992
1582.08	0.0020882
1591.73	0.00251
1601.37	0.00225
1611.02	0.0013381
1620.67	0.0013707
1630.31	0.0013142
1639.96	0.0016887
1649.6	0.0020232
1659.25	0.0015002
1668.9	0.001046
1678.54	0.001013
1688.19	0.001063
1697.84	0.001106
1707.48	0.000963
1717.13	0.0011692
1726.78	0.0014434
1736.42	0.0013352
1746.07	0.001034
1755.72	0.0011474
1765.36	0.0011565
1775.01	0.000947
1784.66	0.000893
1794.3	0.000871
1803.95	0.001013
1813.6	0.001007
1823.24	0.001075
1832.89	0.0014136
1842.54	0.0017861
1852.18	0.0013589
1861.83	0.001073
1871.47	0.00124145
1881.12	0.001076
1890.77	0.000904
1900.41	0.000854
1910.06	0.000882
1919.71	0.000969
1929.35	0.001074
1939	0.00122624
1948.65	0.0017457
1958.29	0.0019108
1967.94	0.0014074
1977.59	0.0014231
1987.23	0.00122622
1996.88	0.000802
2006.53	0.000718
2016.17	0.000704
2025.82	0.000756
2035.47	0.000806
2045.11	0.000842
2054.76	0.000927
2064.41	0.000931
2074.05	0.000954
2083.7	0.001018
2093.35	0.001043
2102.99	0.000884
2112.64	0.000862
2122.28	0.000957
2131.93	0.000887
2141.58	0.000898
2151.22	0.000868
2160.87	0.000848
2170.52	0.000896
2180.16	0.000879
2189.81	0.000932
2199.46	0.000967
2209.1	0.0010909
2218.75	0.0011311
2228.4	0.001061
2238.04	0.000991
2247.69	0.00101
2257.34	0.0011353
2266.98	0.0011626
2276.63	0.0011691
2286.28	0.00119104
2295.92	0.00124816
2305.57	0.00126095
2315.22	0.00120388
2324.86	0.00126875
2334.51	0.0013155
2344.16	0.0015236
2353.8	0.0015953
2363.45	0.0014748
2373.09	0.0013366
2382.74	0.00125189
2392.39	0.0011524
2402.03	0.001037
2411.68	0.000918
2421.33	0.000836
2430.97	0.000926
2440.62	0.000989
2450.27	0.000993
2459.91	0.000975
2469.56	0.001077
2479.21	0.001041
2488.85	0.0010839
2498.5	0.0011326
2508.15	0.00107
2517.79	0.00101
2527.44	0.001047
2537.09	0.000996
2546.73	0.001064
2556.38	0.0011269
2566.03	0.0012329
2575.67	0.0013694
2585.32	0.0015019
2594.96	0.0015322
2604.61	0.0014113
2614.26	0.00122322
2623.9	0.0011016
2633.55	0.000995
2643.2	0.000835
2652.84	0.000942
2662.49	0.000852
2672.14	0.000877
2681.78	0.000849
2691.43	0.000896
2701.08	0.000843
2710.72	0.00079
2720.37	0.000848
2730.02	0.000816
2739.66	0.000792
2749.31	0.000891
2758.96	0.000902
2768.6	0.000727
2778.25	0.000791
2787.9	0.000985
2797.54	0.000882
2807.19	0.000828
2816.84	0.000716
2826.48	0.000695
2836.13	0.000726
2845.77	0.000769
2855.42	0.000705
2865.07	0.000773
2874.71	0.000882
2884.36	0.000772
2894.01	0.00089
2903.65	0.000877
2913.3	0.000634
2922.95	0.000772
2932.59	0.000873
2942.24	0.0007
2951.89	0.000671
2961.53	0.000802
2971.18	0.000718
2980.83	0.000843
2990.47	0.000881
3000.12	0.000849
3009.77	0.000749
3019.41	0.000893
3029.06	0.0011019
3038.71	0.00120909
3048.35	0.0014293
3058	0.0016376
3067.64	0.00244
3077.29	0.00474
3086.94	0.00463
3096.58	0.00315
3106.23	0.0015282
3115.88	0.000966
3125.52	0.00076
3135.17	0.000804
3144.82	0.000844
3154.46	0.000627
3164.11	0.00076
3173.76	0.000617
3183.4	0.000453
3193.05	0.000407
3202.7	0.000336
3212.34	0.00016
3221.99	0.000232
3231.64	0.00034
3241.28	0.000268
3250.93	0.000213
3260.58	0.000426
3270.22	0.000219
3279.87	0.000245
3289.52	0.00013
3299.16	0.000254
3308.81	0.000376
3318.45	0.000359
3328.1	0.000307
3337.75	0.000259
3347.39	0.00016
3357.04	0.000222
3366.69	0.000265
3376.33	0.000422
3385.98	0.00018
3395.63	0.000195
3405.27	0
3414.92	0.0001
3424.57	0.000329
3434.21	0.00027
3443.86	0.00034
3453.51	0.000193
3463.15	0.000277
3472.8	0.000475
3482.45	0.000443
3492.09	0.00019
3501.74	0.000575
3511.39	0.000402
3521.03	0.000464
3530.68	0.000354
3540.33	0.000484
3549.97	0.00042
3559.62	0.000607
3569.26	0.000474
3578.91	0.000469
3588.56	0.000491
3598.2	0.000268
3607.85	0.000586
3617.5	0.000455
3627.14	0.000489
3636.79	0.000638
3646.44	0.000607
3656.08	0.000825
3665.73	0.000804
3675.38	0.000552
3685.02	0.000659
3694.67	0.000515
3704.32	0.000794
3713.96	0.00076
3723.61	0.000714
3733.26	0.000622
3742.9	0.000712
3752.55	0.000637
3762.2	0.000544
3771.84	0.000727
3781.49	0.000772
3791.13	0.000796
3800.78	0.00056
3810.43	0.000923
3820.07	0.000802
3829.72	0.000815
3839.37	0.000766
3849.01	0.000865
3858.66	0.000788
3868.31	0.001045
3877.95	0.000937
3887.6	0.000849
3897.25	0.000778
3906.89	0.000598
3916.54	0.000804
3926.19	0.000873
3935.83	0.000806
3945.48	0.000798
3955.13	0.000874
3964.77	0.000764
3974.42	0.000806
3984.07	0.000726
3993.71	0.000896
