Infrared Spectrum: GLYCOURIL, 1,3,4,6-TETRACHLORO-
Formula: C4 H2 Cl4 N4 O2
CAS: 776-19-2
State: SOLID (SPLIT MULL), FLUOROLUBE FOR 3800-1330 CM^-^1, NUJOL FOR 1330-400 CM^-^1
Class: COBLENTZ III
Instrument: BECKMAN IR-9 (GRATING)
Instrument parameters: ORDER CHANGES: 670, 1200, 2000 CM^-^1
Sampling: TRANSMISSION
Resolution: 2
Origin: DOW CHEMICAL COMPANY
1/CM	TRANSMITTANCE
400	0.6068
409	0.6093
418	0.6295
427	0.6837
436	0.7237
445	0.7521
454	0.7746
463	0.7933
472	0.8055
481	0.8169
490	0.8307
499	0.8418
508	0.8497
517	0.8556
526	0.857
535	0.8565
544	0.8556
553	0.8545
562	0.8531
571	0.8582
580	0.8578
589	0.8567
598	0.8551
607	0.8521
616	0.8485
625	0.8454
634	0.8413
643	0.8358
652	0.8293
661	0.822
670	0.8145
679	0.8086
688	0.8006
697	0.7758
706	0.6518
715	0.5986
724	0.6725
733	0.6171
742	0.6383
751	0.7161
760	0.7131
769	0.5746
778	0.5965
787	0.7425
796	0.7925
805	0.8008
814	0.8062
823	0.8072
832	0.8078
841	0.8068
850	0.8038
859	0.7997
868	0.7957
877	0.7895
886	0.6045
895	0.7632
904	0.8101
913	0.8122
922	0.8082
931	0.7915
940	0.7118
949	0.7949
958	0.8046
967	0.8022
976	0.7974
985	0.8105
994	0.8164
1003	0.8149
1012	0.8164
1021	0.8081
1030	0.8054
1039	0.7872
1048	0.7741
1057	0.7818
1066	0.769
1075	0.7545
1084	0.7457
1093	0.7068
1102	0.6971
1111	0.7136
1120	0.6962
1129	0.6555
1138	0.6248
1147	0.5908
1156	0.5464
1165	0.4496
1174	0.4312
1183	0.5237
1192	0.5673
1201	0.5695
1210	0.6232
1219	0.592
1228	0.5917
1237	0.6961
1246	0.7415
1255	0.7707
1264	0.7734
1273	0.7545
1282	0.7068
1291	0.6624
1300	0.7144
1309	0.7445
1318	0.7561
1327	0.745
1336	0.6767
1345	0.6557
1354	0.6358
1363	0.5756
1372	0.47
1381	0.4901
1390	0.6283
1399	0.6945
1408	0.7021
1417	0.7008
1426	0.7184
1435	0.7354
1444	0.7554
1453	0.7782
1462	0.7984
1471	0.8135
1480	0.826
1489	0.8344
1498	0.8395
1507	0.8415
1516	0.8439
1525	0.8455
1534	0.846
1543	0.8435
1552	0.8454
1561	0.845
1570	0.8444
1579	0.8431
1588	0.8394
1597	0.8354
1606	0.8307
1615	0.8238
1624	0.8192
1633	0.8121
1642	0.7944
1651	0.7837
1660	0.7704
1669	0.7578
1678	0.7411
1687	0.7105
1696	0.6725
1705	0.6316
1714	0.5934
1723	0.5246
1732	0.521
1741	0.4785
1750	0.3547
1759	0.1492
1768	0.174
1777	0.1038
1786	0.3131
1795	0.5553
1804	0.7033
1813	0.7911
1822	0.8418
1831	0.8623
1840	0.8751
1849	0.8797
1858	0.8821
1867	0.8828
1876	0.8821
1885	0.8809
1894	0.8797
1903	0.8781
1912	0.8771
1921	0.8768
1930	0.8773
1939	0.877
1948	0.8749
1957	0.8717
1966	0.8678
1975	0.8648
1984	0.8607
1993	0.8537
2002	0.8521
2011	0.8504
2020	0.848
2029	0.8455
2038	0.8428
2047	0.8407
2056	0.8389
2065	0.8374
2074	0.8365
2083	0.8352
2092	0.8332
2101	0.831
2110	0.8291
2119	0.8271
2128	0.8261
2137	0.8257
2146	0.8254
2155	0.8258
2164	0.8256
2173	0.8247
2182	0.8234
2191	0.8218
2200	0.8207
2209	0.8192
2218	0.8175
2227	0.8142
2236	0.8086
2245	0.8033
2254	0.7988
2263	0.7954
2272	0.7936
2281	0.7919
2290	0.7908
2299	0.7901
2308	0.7899
2317	0.7896
2326	0.7904
2335	0.7912
2344	0.7926
2353	0.7941
2362	0.7957
2371	0.7974
2380	0.8004
2389	0.8039
2398	0.8048
2407	0.8055
2416	0.8065
2425	0.8081
2434	0.8097
2443	0.8112
2452	0.8128
2461	0.8144
2470	0.8156
2479	0.8165
2488	0.8174
2497	0.8182
2506	0.819
2515	0.8195
2524	0.8192
2533	0.8194
2542	0.8197
2551	0.8194
2560	0.819
2569	0.8181
2578	0.8175
2587	0.8172
2596	0.8165
2605	0.8155
2614	0.8145
2623	0.8136
2632	0.8125
2641	0.8119
2650	0.8117
2659	0.8111
2668	0.8099
2677	0.8085
2686	0.8071
2695	0.8054
2704	0.8036
2713	0.8017
2722	0.7998
2731	0.7978
2740	0.7958
2749	0.7937
2758	0.7915
2767	0.7893
2776	0.7871
2785	0.7838
2794	0.7805
2803	0.7771
2812	0.7739
2821	0.7706
2830	0.7674
2839	0.7642
2848	0.7603
2857	0.7561
2866	0.7518
2875	0.7498
2884	0.748
2893	0.7468
2902	0.7467
2911	0.7464
2920	0.7447
2929	0.7421
2938	0.7396
2947	0.7371
2956	0.735
2965	0.7315
2974	0.7267
2983	0.7205
2992	0.7108
3001	0.6968
3010	0.6808
3019	0.6998
3028	0.6971
3037	0.6905
3046	0.6832
3055	0.6783
3064	0.6754
3073	0.6735
3082	0.6721
3091	0.6707
3100	0.6691
3109	0.6671
3118	0.6653
3127	0.6632
3136	0.661
3145	0.6588
3154	0.6565
3163	0.6542
3172	0.6512
3181	0.6484
3190	0.6468
3199	0.6461
3208	0.6461
3217	0.6462
3226	0.6462
3235	0.6469
3244	0.6482
3253	0.6497
3262	0.6517
3271	0.6536
3280	0.6558
3289	0.6575
3298	0.6591
3307	0.66
3316	0.6604
3325	0.6604
3334	0.66
3343	0.6595
3352	0.659
3361	0.6581
3370	0.6571
3379	0.6557
3388	0.6538
3397	0.6518
3406	0.6498
3415	0.6476
3424	0.6453
3433	0.6435
3442	0.643
3451	0.6439
3460	0.645
3469	0.6462
3478	0.6482
3487	0.6504
3496	0.6506
3505	0.6491
3514	0.6458
3523	0.6418
3532	0.6417
3541	0.6443
3550	0.6471
3559	0.65
3568	0.6521
3577	0.6517
3586	0.6491
3595	0.6471
3604	0.6525
3613	0.6506
3622	0.6471
3631	0.6476
3640	0.6493
3649	0.65
3658	0.6499
3667	0.6498
3676	0.6495
3685	0.6489
3694	0.6484
3703	0.6478
3712	0.6468
3721	0.646
3730	0.6448
3739	0.6436
3748	0.6425
3757	0.6412
3766	0.6395
3775	0.6367
3784	0.6344
3793	0.6329
