Infrared Spectrum: 2,4-Undecadienol
Formula: C 11 H 20 O
CAS: 77657-78-4
State: gas
Origin: EPA-IR VAPOR PHASE LIBRARY
1/CM	ABSORBANCE
549.8	0.00157
559.445	0.0008706
569.09	0.00144
578.734	0.00227
588.379	0.00119
598.024	0.00141
607.669	0.00134
617.313	0.00137
626.958	0.00162
636.603	0.00119
646.248	0.0010592
655.893	0.00147
665.537	0.00135
675.182	0.00142
684.827	0.00118
694.472	0.00159
704.116	0.00195
713.761	0.00201
723.406	0.00294
733.051	0.0024
742.695	0.00181
752.34	0.00171
761.985	0.00251
771.63	0.00143
781.275	0.0011201
790.919	0.00187
800.564	0.0023
810.209	0.00212
819.854	0.00327
829.498	0.00206
839.143	0.0019
848.788	0.00259
858.433	0.00222
868.078	0.00226
877.722	0.00269
887.367	0.00292
897.012	0.0039
906.657	0.00471
916.301	0.00547
925.946	0.00595
935.591	0.00788
945.236	0.00975
954.88	0.01275
964.525	0.0199
974.17	0.02964
983.815	0.03775
993.46	0.03431
1003.1	0.02891
1012.75	0.02276
1022.39	0.01414
1032.04	0.01052
1041.68	0.0088
1051.33	0.00992
1060.97	0.00984
1070.62	0.01184
1080.26	0.01432
1089.91	0.01294
1099.55	0.01071
1109.2	0.00763
1118.84	0.00488
1128.49	0.00479
1138.13	0.00478
1147.78	0.00329
1157.42	0.00423
1167.07	0.00441
1176.71	0.00535
1186.36	0.00423
1196	0.00607
1205.64	0.00554
1215.29	0.00677
1224.93	0.00346
1234.58	0.00372
1244.22	0.00528
1253.87	0.00413
1263.51	0.00468
1273.16	0.00434
1282.8	0.00487
1292.45	0.00547
1302.09	0.00629
1311.74	0.00632
1321.38	0.0065
1331.03	0.0074
1340.67	0.00888
1350.32	0.00982
1359.96	0.01109
1369.61	0.01376
1379.25	0.01696
1388.9	0.01464
1398.54	0.00971
1408.18	0.00718
1417.83	0.0059
1427.47	0.00548
1437.12	0.00644
1446.76	0.008
1456.41	0.00883
1466.05	0.00882
1475.7	0.00583
1485.34	0.00362
1494.99	0.0026
1504.63	0.00195
1514.28	0.00186
1523.92	0.00195
1533.57	0.00153
1543.21	0.0014
1552.86	0.0014
1562.5	0.00126
1572.15	0.0013
1581.79	0.00147
1591.44	0.00178
1601.08	0.00125
1610.73	0.00147
1620.37	0.00203
1630.01	0.00172
1639.66	0.00246
1649.3	0.00337
1658.95	0.00426
1668.59	0.00236
1678.24	0.00166
1687.88	0.00136
1697.53	0.0015
1707.17	0.00188
1716.82	0.00166
1726.46	0.00154
1736.11	0.00125
1745.75	0.00125
1755.4	0.00139
1765.04	0.00124
1774.69	0.00127
1784.33	0.0010087
1793.98	0.00119
1803.62	0.00148
1813.27	0.00158
1822.91	0.00172
1832.55	0.00174
1842.2	0.00123
1851.84	0.00159
1861.49	0.001072
1871.13	0.00137
1880.78	0.0010977
1890.42	0.0008921
1900.07	0.0010036
1909.71	0.0009681
1919.36	0.0008555
1929	0.0011262
1938.65	0.0009394
1948.29	0.0010652
1957.94	0.0010775
1967.58	0.0010155
1977.23	0.0009792
1986.87	0.00126
1996.52	0.0009722
2006.16	0.00118
2015.81	0.0010963
2025.45	0.0010035
2035.1	0.0011239
2044.74	0.001003
2054.38	0.00116
2064.03	0.0010026
2073.67	0.0009053
2083.32	0.0008899
2092.96	0.0007794
2102.61	0.0009995
2112.25	0.0009362
2121.9	0.00128
2131.54	0.0009512
2141.19	0.00122
2150.83	0.00118
2160.48	0.0008383
2170.12	0.0007129
2179.77	0.0008976
2189.41	0.0011272
2199.06	0.00127
2208.7	0.0008615
2218.35	0.0009836
2227.99	0.0008033
2237.64	0.0010852
2247.28	0.0009755
2256.92	0.0008405
2266.57	0.001015
2276.21	0.0005545
2285.86	0.000867
2295.5	0.0009484
2305.15	0.001077
2314.79	0.0011223
2324.44	0.0008299
2334.08	0.0009628
2343.73	0.0008582
2353.37	0.0009199
2363.02	0.00116
2372.66	0.0010258
2382.31	0.001054
2391.95	0.00142
2401.6	0.0010772
2411.24	0.0013
2420.89	0.0010442
2430.53	0.00119
2440.18	0.0012
2449.82	0.00118
2459.47	0.0009202
2469.11	0.00135
2478.75	0.0010072
2488.4	0.0009836
2498.04	0.0009626
2507.69	0.00124
2517.33	0.0007632
2526.98	0.00116
2536.62	0.0008211
2546.27	0.00157
2555.91	0.0014
2565.56	0.00153
2575.2	0.00121
2584.85	0.0008534
2594.49	0.00137
2604.14	0.00136
2613.78	0.00158
2623.43	0.0010359
2633.07	0.00174
2642.72	0.00133
2652.36	0.00216
2662.01	0.00185
2671.65	0.002
2681.29	0.00213
2690.94	0.00204
2700.58	0.00184
2710.23	0.002
2719.87	0.0023
2729.52	0.00227
2739.16	0.00238
2748.81	0.00254
2758.45	0.00258
2768.1	0.00291
2777.74	0.00296
2787.39	0.00305
2797.03	0.00404
2806.68	0.00455
2816.32	0.00627
2825.97	0.00733
2835.61	0.01112
2845.26	0.01802
2854.9	0.02936
2864.55	0.04104
2874.19	0.03915
2883.84	0.03471
2893.48	0.03099
2903.12	0.03495
2912.77	0.0461
2922.41	0.06784
2932.06	0.09218
2941.7	0.07766
2951.35	0.05067
2960.99	0.04519
2970.64	0.04281
2980.28	0.02593
2989.93	0.01767
2999.57	0.01537
3009.22	0.01667
3018.86	0.01862
3028.51	0.01529
3038.15	0.00991
3047.8	0.00664
3057.44	0.00508
3067.09	0.00341
3076.73	0.00296
3086.38	0.00234
3096.02	0.00225
3105.67	0.00156
3115.31	0.00247
3124.95	0.00114
3134.6	0.00138
3144.24	0.00147
3153.89	0.00168
3163.53	0.00157
3173.18	0.00174
3182.82	0.00128
3192.47	0.0010733
3202.11	0.00154
3211.76	0.00115
3221.4	0.00142
3231.05	0.000757
3240.69	0.00141
3250.34	0.0010943
3259.98	0.00146
3269.63	0.0005922
3279.27	0.0009052
3288.92	0.0009612
3298.56	0.0008332
3308.21	0.00146
3317.85	0.00118
3327.49	0.0006609
3337.14	0.0005844
3346.78	0.0005019
3356.43	0.0007492
3366.07	0.00143
3375.72	0.0009713
3385.36	0.00127
3395.01	0.00133
3404.65	0.0005416
3414.3	0.001025
3423.94	0.0010281
3433.59	0.0013
3443.23	0.0009116
3452.88	5.04e-05
3462.52	0.0006606
3472.17	0.0008533
3481.81	0.0012
3491.46	0.0006547
3501.1	0.0007139
3510.75	0.0008321
3520.39	0.0014
3530.04	0.00121
3539.68	0.00117
3549.32	0.0002548
3558.97	0.0010473
3568.61	0.0009482
3578.26	0.0005552
3587.9	0.0015
3597.55	0.00153
3607.19	0.00122
3616.84	0.00168
3626.48	0.0022
3636.13	0.00331
3645.77	0.00364
3655.42	0.00507
3665.06	0.00505
3674.71	0.00321
3684.35	0.00263
3694	0.00173
3703.64	0.0009909
3713.29	0.0009361
3722.93	0.00129
3732.58	0.0010076
3742.22	0.00123
3751.86	0.000627
3761.51	0.00156
3771.15	0.0009328
3780.8	0.000854
3790.44	0.0008028
3800.09	0.00128
3809.73	0.0010638
3819.38	0.00114
3829.02	0.00132
3838.67	0.0012
3848.31	0.0008157
3857.96	0.0007152
3867.6	0.00125
3877.25	0.0010662
3886.89	0.0011008
3896.54	0.0009046
3906.18	0.00145
3915.83	0.00122
3925.47	0.00125
3935.12	0.0007148
3944.76	0.00121
3954.41	0.0005119
3964.05	0.000818
3973.69	0.00113
3983.34	0.0006928
3992.98	0.00132
