Infrared Spectrum: Acetic acid, chloro-, p-nitrophenyl ester
Formula: C8 H6 Cl N O4
CAS: 777-84-4
State: SOLUTION, SATURATED (CCl4 FOR 3800-1330, CS2 FOR 1330-450 CM^-^1)
Class: COBLENTZ
Instrument: DOW KBr FOREPRISM-GRATING
Instrument parameters: BLAZED AT 3.5, 12.0, 20.0 MICRON AND CHANGED AT 5.0, 7.5, 14.9 MICRON
Sampling: TRANSMISSION
Path length: 0.101 CM, 0.10 CM
Resolution: 2
Origin: DOW CHEMICAL COMPANY
1/CM	TRANSMITTANCE
452	0.6407
461	0.6582
470	0.6866
479	0.7022
488	0.6809
497	0.6431
506	0.7736
515	0.8218
524	0.8255
533	0.8252
542	0.8413
551	0.8198
560	0.7986
569	0.8426
578	0.8578
587	0.852
596	0.8415
605	0.8258
614	0.8009
623	0.7568
632	0.6493
641	0.5955
650	0.4541
659	0.4637
668	0.5892
677	0.4919
686	0.653
695	0.661
704	0.5467
713	0.4148
722	0.6345
731	0.7051
740	0.705
749	0.4518
758	0.7203
767	0.7163
776	0.501
785	0.6066
794	0.6691
803	0.7002
812	0.662
821	0.6125
830	0.5331
839	0.3773
848	0.0877
857	0.064
866	0.0454
875	0.2165
884	0.3947
893	0.6208
902	0.6827
911	0.5538
920	0.305
929	0.4388
938	0.7651
947	0.8239
956	0.8435
965	0.8633
974	0.8719
983	0.8736
992	0.8702
1001	0.8627
1010	0.7733
1019	0.8626
1028	0.8651
1037	0.8497
1046	0.8484
1055	0.8524
1064	0.8456
1073	0.8242
1082	0.7652
1091	0.6536
1100	0.4629
1109	0.1941
1118	0.0086
1127	0.0812
1136	0.3604
1145	0.5214
1154	0.3117
1163	0.1863
1172	0.4786
1181	0.5445
1190	0.4815
1199	0.0931
1208	0.0167
1217	0.2766
1226	0.1687
1235	0.1854
1244	0.3715
1253	0.6256
1262	0.6634
1271	0.5353
1280	0.3754
1289	0.5598
1298	0.4604
1307	0.4992
1316	0.6051
1325	0.4719
1334	0.4895
1343	0.2245
1352	0.0098
1361	0.262
1370	0.4659
1379	0.644
1388	0.666
1397	0.6698
1406	0.6382
1415	0.4171
1424	0.5547
1433	0.5991
1442	0.6485
1451	0.6505
1460	0.6397
1469	0.5883
1478	0.4843
1487	0.2362
1496	0.1082
1505	0.1059
1514	0.0614
1523	0.0152
1532	0.0025
1541	0.0013
1550	0.0014
1559	0.0045
1568	0.0119
1577	0.0214
1586	0.0238
1595	0.0131
1604	0.1648
1613	0.2669
1622	0.3183
1631	0.5916
1640	0.656
1649	0.6977
1658	0.7154
1667	0.7214
1676	0.7336
1685	0.7408
1694	0.7475
1703	0.7422
1712	0.7307
1721	0.7114
1730	0.6876
1739	0.6547
1748	0.5849
1757	0.3505
1766	0.1686
1775	0.1557
1784	0.2603
1793	0.1232
1802	0.1977
1811	0.5632
1820	0.6441
1829	0.6596
1838	0.6688
1847	0.6762
1856	0.6919
1865	0.7186
1874	0.7469
1883	0.7596
1892	0.7598
1901	0.7535
1910	0.7296
1919	0.7357
1928	0.7877
1937	0.7892
1946	0.7869
1955	0.7822
1964	0.7747
1973	0.7654
1982	0.7557
1991	0.7537
2000	0.7517
2009	0.7573
2018	0.7615
2027	0.7666
2036	0.7726
2045	0.7796
2054	0.7879
2063	0.7939
2072	0.7991
2081	0.8048
2090	0.8158
2099	0.8222
2108	0.8247
2117	0.8249
2126	0.8245
2135	0.8245
2144	0.8242
2153	0.8238
2162	0.8246
2171	0.8259
2180	0.8271
2189	0.8271
2198	0.8229
2207	0.816
2216	0.8091
2225	0.8012
2234	0.7922
2243	0.7807
2252	0.7665
2261	0.7472
2270	0.7212
2279	0.6868
2288	0.6609
2297	0.6609
2306	0.6737
2315	0.6924
2324	0.7156
2333	0.7394
2342	0.7592
2351	0.7757
2360	0.7894
2369	0.8032
2378	0.8065
2387	0.8079
2396	0.8096
2405	0.8149
2414	0.8296
2423	0.8346
2432	0.8328
2441	0.8257
2450	0.8169
2459	0.8171
2468	0.8294
2477	0.8374
2486	0.8409
2495	0.8422
2504	0.8426
2513	0.8426
2522	0.8423
2531	0.842
2540	0.8418
2549	0.841
2558	0.8403
2567	0.8395
2576	0.839
2585	0.8385
2594	0.8381
2603	0.8375
2612	0.8368
2621	0.8361
2630	0.8355
2639	0.8353
2648	0.8363
2657	0.8403
2666	0.8439
2675	0.8428
2684	0.8396
2693	0.837
2702	0.8371
2711	0.8374
2720	0.8381
2729	0.8388
2738	0.8395
2747	0.8399
2756	0.8392
2765	0.8378
2774	0.8369
2783	0.8384
2792	0.8437
2801	0.8473
2810	0.8473
2819	0.8462
2828	0.8418
2837	0.8352
2846	0.8245
2855	0.8034
2864	0.7735
2873	0.7855
2882	0.817
2891	0.8336
2900	0.8341
2909	0.8298
2918	0.8232
2927	0.8138
2936	0.8001
2945	0.7663
2954	0.7435
2963	0.7798
2972	0.8043
2981	0.8216
2990	0.8249
2999	0.8203
3008	0.8196
3017	0.8213
3026	0.8236
3035	0.823
3044	0.8214
3053	0.8184
3062	0.8191
3071	0.8127
3080	0.7716
3089	0.7432
3098	0.7896
3107	0.8028
3116	0.7844
3125	0.7818
3134	0.8106
3143	0.8302
3152	0.8381
3161	0.8422
3170	0.845
3179	0.8467
3188	0.8484
3197	0.8501
3206	0.8521
3215	0.8528
3224	0.8534
3233	0.8528
3242	0.8535
3251	0.8562
3260	0.8585
3269	0.8598
3278	0.8609
3287	0.8613
3296	0.8617
3305	0.862
3314	0.8621
3323	0.8622
3332	0.8621
3341	0.8619
3350	0.8617
3359	0.8616
3368	0.8616
3377	0.8619
3386	0.8628
3395	0.8638
3404	0.8648
3413	0.8651
3422	0.8648
3431	0.8636
3440	0.8622
3449	0.8601
3458	0.8579
3467	0.8552
3476	0.8525
3485	0.85
3494	0.8476
3503	0.8438
3512	0.8417
3521	0.844
3530	0.8484
3539	0.8525
3548	0.8536
3557	0.8507
3566	0.8443
3575	0.8324
3584	0.8244
3593	0.8301
3602	0.8445
3611	0.8645
3620	0.8723
3629	0.8746
3638	0.876
3647	0.877
3656	0.8768
3665	0.8756
3674	0.8738
3683	0.8713
3692	0.8701
3701	0.8721
3710	0.8749
3719	0.8779
3728	0.881
3737	0.8834
3746	0.8851
3755	0.8852
3764	0.8844
3773	0.8831
3782	0.883
3791	0.884
