Infrared Spectrum: Urea, 3-(p-fluorophenyl)-1-methyl-1-nitroso-
Formula: C8 H8 F N3 O2
CAS: 777-59-3
State: SOLID (1 mg / 650 mg KBr DISC)
Class: COBLENTZ III
Instrument: PERKIN-ELMER 221 (GRATING)
Instrument parameters: FILTER AT 980 CM^-^1. GRATING 4000-1428 CM^-^1, NaCl PRISM 1428-650 CM^-^1
Resolution: 2
Origin: SOUTHERN RESEARCH INSTITUTE
1/CM	TRANSMITTANCE
645.69	0.5062
654.731	0.4377
663.772	0.4896
672.813	0.6171
681.854	0.7161
690.895	0.7042
699.936	0.755
708.978	0.7597
718.019	0.756
727.06	0.7299
736.101	0.582
745.142	0.7699
754.183	0.7408
763.224	0.6188
772.265	0.7141
781.306	0.643
790.347	0.3815
799.388	0.1809
808.429	0.6977
817.471	0.5448
826.512	0.1857
835.553	0.5347
844.594	0.7408
853.635	0.7905
862.676	0.7824
871.717	0.7553
880.758	0.7056
889.799	0.5359
898.84	0.7501
907.881	0.7458
916.922	0.7207
925.964	0.6474
935.005	0.6372
944.046	0.5138
953.087	0.4309
962.128	0.2619
971.169	0.1316
980.21	0.2244
989.251	0.5362
998.292	0.6811
1007.33	0.69
1016.37	0.7644
1025.42	0.767
1034.46	0.7653
1043.5	0.7604
1052.54	0.7363
1061.58	0.72
1070.62	0.6806
1079.66	0.5464
1088.7	0.3465
1097.74	0.2471
1106.79	0.2603
1115.83	0.2264
1124.87	0.5015
1133.91	0.727
1142.95	0.7392
1151.99	0.6917
1161.03	0.6017
1170.07	0.7354
1179.11	0.7026
1188.15	0.5999
1197.2	0.3783
1206.24	0.2228
1215.28	0.3839
1224.32	0.3514
1233.36	0.5519
1242.4	0.5851
1251.44	0.6365
1260.48	0.7516
1269.52	0.7647
1278.57	0.726
1287.61	0.6889
1296.65	0.7159
1305.69	0.6952
1314.73	0.5608
1323.77	0.5849
1332.81	0.6909
1341.85	0.6937
1350.89	0.6926
1359.94	0.6871
1368.98	0.6772
1378.02	0.6417
1387.06	0.5701
1396.1	0.4617
1405.14	0.3617
1414.18	0.5828
1423.22	0.5816
1432.26	0.5526
1441.31	0.4806
1450.35	0.3868
1459.39	0.2112
1468.43	0.1114
1477.47	0.3128
1486.51	0.4297
1495.55	0.359
1504.59	0.1255
1513.63	0.3193
1522.67	0.4204
1531.72	0.2874
1540.76	0.1543
1549.8	0.1196
1558.84	0.203
1567.88	0.4376
1576.92	0.6076
1585.96	0.666
1595	0.6787
1604.04	0.4558
1613.09	0.5738
1622.13	0.6343
1631.17	0.6879
1640.21	0.6978
1649.25	0.71
1658.29	0.7249
1667.33	0.7176
1676.37	0.6912
1685.41	0.6786
1694.46	0.6351
1703.5	0.579
1712.54	0.4688
1721.58	0.2667
1730.62	0.1875
1739.66	0.2809
1748.7	0.4325
1757.74	0.5839
1766.78	0.6907
1775.83	0.7427
1784.87	0.7791
1793.91	0.8026
1802.95	0.8204
1811.99	0.8308
1821.03	0.8354
1830.07	0.8364
1839.11	0.8377
1848.15	0.8417
1857.2	0.8499
1866.24	0.8505
1875.28	0.8318
1884.32	0.7886
1893.36	0.8594
1902.4	0.8636
1911.44	0.8642
1920.48	0.8648
1929.52	0.8686
1938.56	0.872
1947.61	0.8722
1956.65	0.8709
1965.69	0.869
1974.73	0.8671
1983.77	0.865
1992.81	0.8627
2001.85	0.8614
2010.89	0.8615
2019.93	0.8616
2028.98	0.8619
2038.02	0.862
2047.06	0.8618
2056.1	0.862
2065.14	0.8636
2074.18	0.8659
2083.22	0.8681
2092.26	0.8687
2101.3	0.8679
2110.35	0.867
2119.39	0.8672
2128.43	0.8681
2137.47	0.8696
2146.51	0.8689
2155.55	0.8689
2164.59	0.8692
2173.63	0.8683
2182.67	0.8673
2191.72	0.8663
2200.76	0.8656
2209.8	0.8643
2218.84	0.8621
2227.88	0.8593
2236.92	0.8578
2245.96	0.8564
2255	0.8551
2264.04	0.8537
2273.08	0.8535
2282.13	0.854
2291.17	0.8535
2300.21	0.8533
2309.25	0.8539
2318.29	0.8544
2327.33	0.8543
2336.37	0.8543
2345.41	0.8544
2354.45	0.8546
2363.5	0.8549
2372.54	0.8551
2381.58	0.8552
2390.62	0.855
2399.66	0.8543
2408.7	0.8536
2417.74	0.8527
2426.78	0.8517
2435.82	0.8513
2444.87	0.8534
2453.91	0.8562
2462.95	0.8601
2471.99	0.864
2481.03	0.8587
2490.07	0.846
2499.11	0.8433
2508.15	0.8425
2517.19	0.842
2526.24	0.8415
2535.28	0.8414
2544.32	0.8413
2553.36	0.8416
2562.4	0.8417
2571.44	0.8416
2580.48	0.8415
2589.52	0.8412
2598.56	0.8409
2607.6	0.8406
2616.65	0.8402
2625.69	0.8403
2634.73	0.8404
2643.77	0.8404
2652.81	0.8401
2661.85	0.8397
2670.89	0.8413
2679.93	0.8445
2688.97	0.845
2698.02	0.843
2707.06	0.8409
2716.1	0.8384
2725.14	0.8357
2734.18	0.8326
2743.22	0.8295
2752.26	0.8255
2761.3	0.8218
2770.34	0.8192
2779.39	0.8173
2788.43	0.8165
2797.47	0.816
2806.51	0.8161
2815.55	0.8142
2824.59	0.8084
2833.63	0.8034
2842.67	0.8003
2851.71	0.7989
2860.76	0.8001
2869.8	0.7991
2878.84	0.7934
2887.88	0.7864
2896.92	0.7817
2905.96	0.7783
2915	0.7805
2924.04	0.7841
2933.08	0.7874
2942.12	0.7878
2951.17	0.7887
2960.21	0.7907
2969.25	0.792
2978.29	0.7881
2987.33	0.7817
2996.37	0.777
3005.41	0.7765
3014.45	0.7777
3023.49	0.7798
3032.54	0.7753
3041.58	0.7567
3050.62	0.7427
3059.66	0.7314
3068.7	0.7262
3077.74	0.7338
3086.78	0.7589
3095.82	0.7642
3104.86	0.7627
3113.91	0.7549
3122.95	0.7477
3131.99	0.745
3141.03	0.7429
3150.07	0.7423
3159.11	0.7458
3168.15	0.7453
3177.19	0.7377
3186.23	0.7277
3195.28	0.7177
3204.32	0.7066
3213.36	0.6955
3222.4	0.686
3231.44	0.6778
3240.48	0.6604
3249.52	0.6406
3258.56	0.6177
3267.6	0.5926
3276.64	0.5614
3285.69	0.5237
3294.73	0.4704
3303.77	0.3407
3312.81	0.3004
3321.85	0.3628
3330.89	0.5113
3339.93	0.5942
3348.97	0.6938
3358.01	0.7216
3367.06	0.7401
3376.1	0.7528
3385.14	0.7608
3394.18	0.7668
3403.22	0.7683
3412.26	0.7682
3421.3	0.7663
3430.34	0.7621
3439.38	0.7652
3448.43	0.771
3457.47	0.7796
3466.51	0.7814
3475.55	0.7788
3484.59	0.7774
3493.63	0.7786
3502.67	0.7804
3511.71	0.7826
3520.75	0.7854
3529.8	0.789
3538.84	0.7924
3547.88	0.7958
3556.92	0.7995
3565.96	0.8025
3575	0.8044
3584.04	0.8051
3593.08	0.8059
3602.12	0.8067
3611.16	0.8078
3620.21	0.8089
3629.25	0.8101
3638.29	0.8109
3647.33	0.8109
3656.37	0.8108
3665.41	0.8106
3674.45	0.8101
3683.49	0.8096
3692.53	0.8093
3701.58	0.809
3710.62	0.8086
3719.66	0.808
3728.7	0.8075
3737.74	0.8069
3746.78	0.8063
3755.82	0.8055
3764.86	0.8046
3773.9	0.8038
3782.95	0.8028
3791.99	0.8017
3801.03	0.8007
3810.07	0.7997
3819.11	0.7995
3828.15	0.7996
3837.19	0.7997
3846.23	0.7998
3855.27	0.8002
3864.32	0.8007
3873.36	0.8013
3882.4	0.8022
3891.44	0.8031
3900.48	0.8033
3909.52	0.8032
3918.56	0.8031
3927.6	0.803
3936.64	0.8029
3945.69	0.8029
3954.73	0.8029
3963.77	0.803
3972.81	0.8032
3981.85	0.8033
3990.89	0.8035
3999.93	0.8037
4008.97	0.8038
