Infrared Spectrum: 4-Hydroxy-1-naphthaldehyde
Formula: C 11 H 8 O 2
CAS: 7770-45-8
State: gas
Origin: EPA-IR VAPOR PHASE LIBRARY
1/CM	ABSORBANCE
549.8	0.001568
559.445	0.0007292
569.09	0.0007247
578.734	0.0010907
588.379	0.0012859
598.024	0.0012169
607.669	0.001568
617.313	0.003268
626.958	0.004818
636.603	0.003308
646.248	0.001898
655.893	0.0011983
665.537	0.0013048
675.182	0.0011231
684.827	0.001388
694.472	0.002388
704.116	0.003048
713.761	0.001928
723.406	0.0013648
733.051	0.001758
742.695	0.005038
752.34	0.012198
761.985	0.015448
771.63	0.009258
781.275	0.006978
790.919	0.005228
800.564	0.006128
810.209	0.007568
819.854	0.006098
829.498	0.004248
839.143	0.002348
848.788	0.001418
858.433	0.0010039
868.078	0.0007362
877.722	0.0006508
887.367	0.000902
897.012	0.0006997
906.657	0.0009548
916.301	0.0006363
925.946	0.0006129
935.591	0.0007999
945.236	0.0008641
954.88	0.0008447
964.525	0.0009668
974.17	0.001968
983.815	0.003098
993.46	0.004438
1003.1	0.004498
1012.75	0.007078
1022.39	0.007628
1032.04	0.005428
1041.68	0.013118
1051.33	0.017358
1060.97	0.007378
1070.62	0.002628
1080.26	0.0010026
1089.91	0.0010825
1099.55	0.001758
1109.2	0.001928
1118.84	0.002268
1128.49	0.003798
1138.13	0.008968
1147.78	0.011208
1157.42	0.013008
1167.07	0.012928
1176.71	0.008948
1186.36	0.013748
1196	0.018208
1205.64	0.024928
1215.29	0.023998
1224.93	0.011688
1234.58	0.004038
1244.22	0.005968
1253.87	0.007508
1263.51	0.004948
1273.16	0.004018
1282.8	0.004538
1292.45	0.002788
1302.09	0.001918
1311.74	0.003208
1321.38	0.006208
1331.03	0.010188
1340.67	0.010488
1350.32	0.006348
1359.96	0.004288
1369.61	0.004758
1379.25	0.004978
1388.9	0.004538
1398.54	0.004718
1408.18	0.005148
1417.83	0.004508
1427.47	0.005088
1437.12	0.006698
1446.76	0.004788
1456.41	0.002728
1466.05	0.002988
1475.7	0.002458
1485.34	0.001708
1494.99	0.003138
1504.63	0.010958
1514.28	0.018658
1523.92	0.011408
1533.57	0.003698
1543.21	0.003078
1552.86	0.005028
1562.5	0.010738
1572.15	0.024268
1581.79	0.030518
1591.44	0.017658
1601.08	0.008418
1610.73	0.005298
1620.37	0.006028
1630.01	0.005148
1639.66	0.002908
1649.3	0.001968
1658.95	0.001918
1668.59	0.002188
1678.24	0.003378
1687.88	0.007838
1697.53	0.032858
1707.17	0.058558
1716.82	0.031128
1726.46	0.004148
1736.11	0.001908
1745.75	0.001608
1755.4	0.001468
1765.04	0.001538
1774.69	0.001648
1784.33	0.0012269
1793.98	0.0009424
1803.62	0.0009266
1813.27	0.0009013
1822.91	0.0010913
1832.55	0.001478
1842.2	0.0013557
1851.84	0.0011779
1861.49	0.0010519
1871.13	0.0009671
1880.78	0.0008308
1890.42	0.0007223
1900.07	0.0006884
1909.71	0.0008049
1919.36	0.000799
1929	0.0009079
1938.65	0.0008363
1948.29	0.0008295
1957.94	0.0007268
1967.58	0.0006337
1977.23	0.0005871
1986.87	0.0005277
1996.52	0.00046634
2006.16	0.0005075
2015.81	0.00041245
2025.45	0.00045022
2035.1	0.00039259
2044.74	0.0004947
2054.38	0.00040536
2064.03	0.0005624
2073.67	0.0003771
2083.32	0.0003806
2092.96	0.0003686
2102.61	0.0003406
2112.25	0.0003778
2121.9	0.0003356
2131.54	0.00038491
2141.19	0.0003709
2150.83	0.000336
2160.48	0.000268
2170.12	0.000337
2179.77	0.00046525
2189.41	0.0003343
2199.06	0.0004927
2208.7	0.0004935
2218.35	0.0005077
2227.99	0.00047054
2237.64	0.00037
2247.28	0.0005316
2256.92	0.000572
2266.57	0.0005853
2276.21	0.0005669
2285.86	0.0006415
2295.5	0.0005024
2305.15	0.0005463
2314.79	0.00048789
2324.44	0.0004916
2334.08	0.0005062
2343.73	0.00046447
2353.37	0.00048252
2363.02	0.000367
2372.66	0.00043984
2382.31	0.000526
2391.95	0.0005295
2401.6	0.00041976
2411.24	0.0005936
2420.89	0.0006837
2430.53	0.0006495
2440.18	0.000676
2449.82	0.0005057
2459.47	0.0004967
2469.11	0.00045818
2478.75	0.00046585
2488.4	0.00044826
2498.04	0.000564
2507.69	0.0005164
2517.33	0.0004934
2526.98	0.0006465
2536.62	0.0006547
2546.27	0.0006211
2555.91	0.0006834
2565.56	0.0004959
2575.2	0.0006304
2584.85	0.0005547
2594.49	0.0006359
2604.14	0.0006483
2613.78	0.0007297
2623.43	0.000726
2633.07	0.0008188
2642.72	0.0009196
2652.36	0.0009695
2662.01	0.0010178
2671.65	0.0010296
2681.29	0.001538
2690.94	0.002418
2700.58	0.004018
2710.23	0.008728
2719.87	0.012588
2729.52	0.008368
2739.16	0.003908
2748.81	0.002778
2758.45	0.002598
2768.1	0.002428
2777.74	0.002348
2787.39	0.002588
2797.03	0.002918
2806.68	0.003018
2816.32	0.002868
2825.97	0.003118
2835.61	0.003878
2845.26	0.003798
2854.9	0.002868
2864.55	0.001808
2874.19	0.0012949
2883.84	0.0011567
2893.48	0.0010133
2903.12	0.000853
2912.77	0.0005754
2922.41	0.0007505
2932.06	0.0007355
2941.7	0.0006699
2951.35	0.0005446
2960.99	0.000783
2970.64	0.0006631
2980.28	0.000709
2989.93	0.0008673
2999.57	0.0010088
3009.22	0.001568
3018.86	0.002318
3028.51	0.003038
3038.15	0.004008
3047.8	0.004478
3057.44	0.003928
3067.09	0.004048
3076.73	0.004158
3086.38	0.004288
3096.02	0.003658
3105.67	0.002328
3115.31	0.0010985
3124.95	0.0006749
3134.6	0.00047837
3144.24	0.0005484
3153.89	0.00041528
3163.53	0.00047553
3173.18	0.00046394
3182.82	0.00044948
3192.47	0.0005165
3202.11	0.00042409
3211.76	0.0004181
3221.4	0.0004924
3231.05	0.0005326
3240.69	0.0003262
3250.34	0.000287
3259.98	0.00041656
3269.63	0.0005183
3279.27	0.0003589
3288.92	0.0006337
3298.56	0.0005595
3308.21	0.00043087
3317.85	0.0005096
3327.49	0.0004917
3337.14	0.00041214
3346.78	0.00042434
3356.43	0.000396281
3366.07	0.000337
3375.72	0.0007301
3385.36	0.0008293
3395.01	0.0012978
3404.65	0.0008857
3414.3	0.00041453
3423.94	0.000237
3433.59	0.00040126
3443.23	0.000204
3452.88	0.0002949
3462.52	0.000118
3472.17	0.0003165
3481.81	0.000275
3491.46	0.000231
3501.1	0.000164
3510.75	0.00041658
3520.39	0.000259
3530.04	0.000103
3539.68	0.000158
3549.32	0.0003336
3558.97	0.000226
3568.61	0.000142
3578.26	0.0003567
3587.9	0.000207
3597.55	0.0003574
3607.19	0.00046257
3616.84	0.0010439
3626.48	0.003188
3636.13	0.013778
3645.77	0.017738
3655.42	0.006478
3665.06	0.0011378
3674.71	0.0005881
3684.35	0.000241
3694	0.000268
3703.64	0.00038932
3713.29	0.0002939
3722.93	0.000145
3732.58	0.000123
3742.22	0.0002969
3751.86	0.000289
3761.51	0.000234
3771.15	0.000272
3780.8	0.0003297
3790.44	0.000231
3800.09	0.00041893
3809.73	0.0006037
3819.38	0.0003254
3829.02	0.00044462
3838.67	0.000283
3848.31	0.00041244
3857.96	0.0002954
3867.6	0.000294
3877.25	0.000173
3886.89	0.000149
3896.54	0.0003219
3906.18	0.00024
3915.83	0.000241
3925.47	0.0003398
3935.12	0.0003766
3944.76	0.000247
3954.41	0.0003643
3964.05	0.0003443
3973.69	0.0003297
3983.34	0.0002919
3992.98	0.000212
