Infrared Spectrum: AMMONIUM SULFAMATE
Formula: N2 H6 O3 S
CAS: 7773-06-0
State: SOLID (ARNEEL C MULL)
Class: COBLENTZ
Instrument: PERKIN-ELMER
Sampling: TRANSMISSION
Resolution: 4
MICROMETERS	TRANSMITTANCE
2.018	0.629
2.05471	0.629
2.09141	0.618
2.12812	0.614
2.16483	0.629
2.20153	0.641
2.23824	0.672
2.27495	0.696
2.31165	0.725
2.34836	0.754
2.38507	0.765
2.42177	0.795
2.45848	0.812
2.49518	0.838
2.53189	0.864
2.5686	0.879
2.6053	0.905
2.64201	0.916
2.67872	0.931
2.71542	0.943
2.75213	0.943
2.78884	0.939
2.82554	0.913
2.86225	0.83
2.89896	0.711
2.93566	0.553
2.97237	0.379
3.00908	0.26
3.04578	0.225
3.08249	0.211
3.1192	0.199
3.1559	0.189
3.19261	0.189
3.22932	0.196
3.26602	0.199
3.30273	0.204
3.33943	0.225
3.37614	0.236
3.41285	0.253
3.44955	0.274
3.48626	0.298
3.52297	0.368
3.55967	0.472
3.59638	0.539
3.63309	0.596
3.66979	0.628
3.7065	0.653
3.74321	0.66
3.77991	0.672
3.81662	0.713
3.85333	0.75
3.89003	0.777
3.92674	0.8
3.96345	0.821
4.00015	0.827
4.03686	0.838
4.07357	0.85
4.11027	0.856
4.14698	0.859
4.18368	0.864
4.22039	0.873
4.2571	0.871
4.2938	0.871
4.33051	0.876
4.36722	0.867
4.40392	0.856
4.44063	0.839
4.47734	0.87
4.51404	0.876
4.55075	0.87
4.58746	0.89
4.62416	0.91
4.66087	0.919
4.69758	0.916
4.73428	0.902
4.77099	0.879
4.8077	0.864
4.8444	0.852
4.88111	0.852
4.91782	0.865
4.95452	0.884
4.99123	0.893
5.02793	0.903
5.06464	0.903
5.10135	0.911
5.13805	0.902
5.17476	0.897
5.21147	0.89
5.24817	0.887
5.28488	0.888
5.32159	0.893
5.35829	0.89
5.395	0.887
5.43171	0.879
5.46841	0.87
5.50512	0.868
5.54183	0.861
5.57853	0.856
5.61524	0.849
5.65195	0.847
5.68865	0.839
5.72536	0.829
5.76207	0.823
5.79877	0.809
5.83548	0.782
5.87218	0.759
5.90889	0.734
5.9456	0.74
5.9823	0.76
6.01901	0.775
6.05572	0.772
6.09242	0.765
6.12913	0.74
6.16584	0.699
6.20254	0.663
6.23925	0.657
6.27596	0.653
6.31266	0.647
6.34937	0.626
6.38608	0.596
6.42278	0.562
6.45949	0.503
6.4962	0.483
6.5329	0.463
6.56961	0.469
6.60632	0.475
6.64302	0.471
6.67973	0.457
6.71643	0.425
6.75314	0.373
6.78985	0.346
6.82655	0.301
6.86326	0.263
6.89997	0.23
6.93667	0.211
6.97338	0.204
7.01009	0.198
7.04679	0.196
7.0835	0.172
7.12021	0.164
7.15691	0.185
7.19362	0.239
7.23033	0.314
7.26703	0.365
7.30374	0.442
7.34045	0.487
7.37715	0.551
7.41386	0.579
7.45057	0.602
7.48727	0.603
7.52398	0.603
7.56068	0.588
7.59739	0.562
7.6341	0.521
7.6708	0.458
7.70751	0.397
7.74422	0.347
7.78092	0.324
7.81763	0.307
7.85434	0.277
7.89104	0.246
7.92775	0.217
7.96446	0.189
8.00116	0.167
8.03787	0.164
8.07458	0.163
8.11128	0.172
8.14799	0.179
8.1847	0.193
8.2214	0.205
8.25811	0.205
8.29482	0.199
8.33152	0.184
8.36823	0.172
8.40493	0.149
8.44164	0.144
8.47835	0.149
8.51505	0.157
8.55176	0.166
8.58847	0.173
8.62517	0.178
8.66188	0.179
8.69859	0.178
8.73529	0.179
8.772	0.175
8.80871	0.176
8.84541	0.179
8.88212	0.189
8.91883	0.198
8.95553	0.216
8.99224	0.24
9.02895	0.259
9.06565	0.275
9.10236	0.303
9.13907	0.32
9.17577	0.327
9.21248	0.338
9.24918	0.33
9.28589	0.312
9.3226	0.321
9.3593	0.323
9.39601	0.321
9.43272	0.277
9.46942	0.227
9.50613	0.198
9.54284	0.19
9.57954	0.19
9.61625	0.193
9.65296	0.201
9.68966	0.201
9.72637	0.195
9.76308	0.198
9.79978	0.201
9.83649	0.225
9.8732	0.265
9.9099	0.314
9.94661	0.347
9.98332	0.382
10.02	0.426
10.0567	0.449
10.0934	0.478
10.1301	0.486
10.1668	0.503
10.2036	0.515
10.2403	0.53
10.277	0.533
10.3137	0.535
10.3504	0.539
10.3871	0.539
10.4238	0.535
10.4605	0.528
10.4972	0.527
10.5339	0.522
10.5706	0.518
10.6073	0.519
10.644	0.513
10.6807	0.512
10.7174	0.509
10.7542	0.509
10.7909	0.509
10.8276	0.518
10.8643	0.533
10.901	0.547
10.9377	0.559
10.9744	0.574
11.0111	0.599
11.0478	0.626
11.0845	0.638
11.1212	0.661
11.1579	0.682
11.1946	0.699
11.2313	0.707
11.268	0.71
11.3047	0.708
11.3415	0.71
11.3782	0.702
11.4149	0.705
11.4516	0.704
11.4883	0.702
11.525	0.704
11.5617	0.705
11.5984	0.699
11.6351	0.693
11.6718	0.678
11.7085	0.661
11.7452	0.643
11.7819	0.629
11.8186	0.603
11.8553	0.582
11.8921	0.547
11.9288	0.522
11.9655	0.49
12.0022	0.451
12.0389	0.429
12.0756	0.399
12.1123	0.359
12.149	0.329
12.1857	0.298
12.2224	0.277
12.2591	0.259
12.2958	0.25
12.3325	0.236
12.3692	0.23
12.4059	0.222
12.4427	0.214
12.4794	0.21
12.5161	0.202
12.5528	0.205
12.5895	0.205
12.6262	0.207
12.6629	0.204
12.6996	0.204
12.7363	0.208
12.773	0.208
12.8097	0.214
12.8464	0.225
12.8831	0.233
12.9198	0.243
12.9565	0.248
12.9932	0.254
13.03	0.268
13.0667	0.292
13.1034	0.31
13.1401	0.323
13.1768	0.338
13.2135	0.352
13.2502	0.359
13.2869	0.382
13.3236	0.393
13.3603	0.411
13.397	0.416
13.4337	0.423
13.4704	0.442
13.5071	0.449
13.5438	0.455
13.5806	0.466
13.6173	0.477
13.654	0.492
13.6907	0.496
13.7274	0.501
13.7641	0.503
13.8008	0.506
13.8375	0.515
13.8742	0.53
13.9109	0.541
13.9476	0.545
13.9843	0.562
14.021	0.58
14.0577	0.596
14.0944	0.614
14.1312	0.623
14.1679	0.637
14.2046	0.657
14.2413	0.661
14.278	0.669
14.3147	0.672
14.3514	0.685
14.3881	0.69
14.4248	0.704
14.4615	0.707
14.4982	0.713
14.5349	0.722
14.5716	0.73
14.6083	0.742
14.645	0.745
14.6817	0.757
14.7185	0.756
14.7552	0.76
14.7919	0.762
14.8286	0.765
14.8653	0.777
14.902	0.782
14.9387	0.785
14.9754	0.78
15.0121	0.783
15.0488	0.791
15.0855	0.795
15.1222	0.803
15.1589	0.804
15.1956	0.809
15.2323	0.818
15.2691	0.818
15.3058	0.823
15.3425	0.83
15.3792	0.83
15.4159	0.827
15.4526	0.829
15.4893	0.826
15.526	0.826
