Infrared Spectrum: CALCIUM SULFATE, ANHYDROUS
Formula: Ca S O4
CAS: 7778-18-9
State: SOLID (0.4 mg / 300 mg CsI DISC)
Class: COBLENTZ III
Instrument: BECKMAN IR-12 (GRATING)
Sampling: TRANSMISSION
Resolution: 4
Origin: DESOTO CHEMICAL COATINGS, INC.
1/CM	TRANSMITTANCE
203.988	0.948
214.623	0.945
225.258	0.948
235.894	0.95
246.529	0.905
257.164	0.75
267.799	0.684
278.434	0.675
289.069	0.679
299.705	0.708
310.34	0.736
320.975	0.792
331.61	0.847
342.245	0.878
352.88	0.904
363.516	0.913
374.151	0.918
384.786	0.924
395.421	0.928
406.056	0.938
416.692	0.945
427.327	0.95
437.962	0.954
448.597	0.957
459.232	0.961
469.867	0.961
480.503	0.966
491.138	0.973
501.773	0.976
512.408	0.978
523.043	0.981
533.678	0.984
544.314	0.982
554.949	0.988
565.584	0.992
576.219	0.994
586.854	0.993
597.49	0.6553
608.125	0.953
618.76	0.7729
629.395	0.985
640.03	1
650.665	0.998
661.301	0.984
671.936	0.8711
682.571	0.773
693.206	0.972
703.841	0.992
714.476	0.994
725.112	1
735.747	1.001
746.382	1.003
757.017	1.003
767.652	1.007
778.287	1.002
788.923	1.001
799.558	1
810.193	1.002
820.828	1.006
831.463	1.006
842.099	1.007
852.734	1.006
863.369	1.006
874.004	1.002
884.639	1.001
895.274	0.998
905.91	0.993
916.545	0.994
927.18	0.997
937.815	1
948.45	0.998
959.085	0.997
969.721	0.994
980.356	0.988
990.991	0.984
1001.63	0.978
1012.26	0.965
1022.9	0.956
1033.53	0.954
1044.17	0.953
1054.8	0.952
1065.44	0.948
1076.07	0.938
1086.71	0.921
1097.34	0.856
1107.98	0.549
1118.61	0.2341
1129.25	0.3119
1139.88	0.402
1150.52	0.256
1161.15	0.164
1171.79	0.2709
1182.42	0.3569
1193.06	0.6279
1203.69	0.821
1214.33	0.901
1224.96	0.916
1235.6	0.933
1246.24	0.941
1256.87	0.944
1267.51	0.949
1278.14	0.95
1288.78	0.953
1299.41	0.954
1310.05	0.953
1320.68	0.956
1331.32	0.957
1341.95	0.957
1352.59	0.96
1363.22	0.954
1373.86	0.954
1384.49	0.956
1395.13	0.958
1405.76	0.956
1416.4	0.954
1427.03	0.957
1437.67	0.956
1448.3	0.953
1458.94	0.953
1469.57	0.95
1480.21	0.953
1490.84	0.95
1501.48	0.949
1512.11	0.949
1522.75	0.95
1533.38	0.952
1544.02	0.95
1554.66	0.946
1565.29	0.942
1575.93	0.938
1586.56	0.926
1597.2	0.912
1607.83	0.9
1618.47	0.892
1629.1	0.897
1639.74	0.91
1650.37	0.918
1661.01	0.922
1671.64	0.924
1682.28	0.929
1692.91	0.93
1703.55	0.933
1714.18	0.934
1724.82	0.934
1735.45	0.936
1746.09	0.934
1756.72	0.937
1767.36	0.938
1777.99	0.938
1788.63	0.937
1799.26	0.937
1809.9	0.936
1820.53	0.933
1831.17	0.934
1841.81	0.933
1852.44	0.932
1863.08	0.932
1873.71	0.93
1884.35	0.93
1894.98	0.928
1905.62	0.93
1916.25	0.928
1926.89	0.928
1937.52	0.925
1948.16	0.925
1958.79	0.924
1969.43	0.922
1980.06	0.922
1990.7	0.921
2001.33	0.922
2011.97	0.922
2022.6	0.922
2033.24	0.924
2043.87	0.922
2054.51	0.9215
2065.14	0.919
2075.78	0.918
2086.41	0.92
2097.05	0.918
2107.68	0.918
2118.32	0.9175
2128.95	0.916
2139.59	0.911
2150.23	0.9085
2160.86	0.908
2171.5	0.909
2182.13	0.912
2192.77	0.912
2203.4	0.91
2214.04	0.9085
2224.67	0.902
2235.31	0.9045
2245.94	0.906
2256.58	0.905
2267.21	0.904
2277.85	0.904
2288.48	0.904
2299.12	0.9015
2309.75	0.898
2320.39	0.9015
2331.02	0.9055
2341.66	0.905
2352.29	0.91
2362.93	0.9085
2373.56	0.9095
2384.2	0.905
2394.83	0.9027
2405.47	0.8991
2416.1	0.897
2426.74	0.894
2437.37	0.896
2448.01	0.8936
2458.65	0.892
2469.28	0.8907
2479.92	0.889
2490.55	0.889
2501.19	0.888
2511.82	0.8871
2522.46	0.885
2533.09	0.884
2543.73	0.884
2554.36	0.882
2565	0.882
2575.63	0.881
2586.27	0.881
2596.9	0.881
2607.54	0.878
2618.17	0.8776
2628.81	0.877
2639.44	0.873
2650.08	0.871
2660.71	0.871
2671.35	0.8702
2681.98	0.865
2692.62	0.863
2703.25	0.863
2713.89	0.863
2724.52	0.861
2735.16	0.863
2745.8	0.863
2756.43	0.8606
2767.07	0.8596
2777.7	0.8582
2788.34	0.857
2798.97	0.8556
2809.61	0.852
2820.24	0.851
2830.88	0.848
2841.51	0.8486
2852.15	0.8414
2862.78	0.8342
2873.42	0.835
2884.05	0.8356
2894.69	0.835
2905.32	0.835
2915.96	0.8302
2926.59	0.8178
2937.23	0.8126
2947.86	0.8124
2958.5	0.8178
2969.13	0.8194
2979.77	0.8204
2990.4	0.824
3001.04	0.827
3011.67	0.827
3022.31	0.825
3032.94	0.8243
3043.58	0.823
3054.22	0.823
3064.85	0.82
3075.49	0.817
3086.12	0.8143
3096.76	0.812
3107.39	0.811
3118.03	0.809
3128.66	0.808
3139.3	0.8063
3149.93	0.804
3160.57	0.803
3171.2	0.801
3181.84	0.7996
3192.47	0.7983
3203.11	0.796
3213.74	0.793
3224.38	0.7903
3235.01	0.7863
3245.65	0.783
3256.28	0.7796
3266.92	0.7766
3277.55	0.775
3288.19	0.7726
3298.82	0.7677
3309.46	0.7636
3320.09	0.7583
3330.73	0.7526
3341.36	0.7477
3352	0.7437
3362.64	0.7373
3373.27	0.729
3383.91	0.7227
3394.54	0.7147
3405.18	0.705
3415.81	0.6947
3426.45	0.683
3437.08	0.6787
3447.72	0.6747
3458.35	0.6717
3468.99	0.671
3479.62	0.674
3490.26	0.675
3500.89	0.6783
3511.53	0.6823
3522.16	0.686
3532.8	0.6913
3543.43	0.6953
3554.07	0.6993
3564.7	0.706
3575.34	0.7143
3585.97	0.7223
3596.61	0.729
3607.24	0.7383
3617.88	0.742
3628.51	0.746
3639.15	0.7486
3649.78	0.752
3660.42	0.753
3671.06	0.755
3681.69	0.755
3692.33	0.755
3702.96	0.755
3713.6	0.753
3724.23	0.753
3734.87	0.752
3745.5	0.7517
3756.14	0.751
3766.77	0.75
3777.41	0.748
3788.04	0.747
3798.68	0.746
3809.31	0.742
3819.95	0.7446
3830.58	0.7454
3841.22	0.743
3851.85	0.742
3862.49	0.742
3873.12	0.742
3883.76	0.74
3894.39	0.74
3905.03	0.74
3915.66	0.7397
3926.3	0.739
3936.93	0.7387
3947.57	0.738
3958.21	0.736
3968.84	0.7347
3979.48	0.731
3990.11	0.731
