Infrared Spectrum: 2,2-DIMETHOXY PROPANE
Formula: C5 H12 O2
CAS: 7778-85-0
State: LIQUID
Class: COBLENTZ
Instrument: Not specified, most likely a prism, grating, or hybrid spectrometer.
Sampling: TRANSMISSION
Path length: CAPILLARY FILM
Resolution: 4
Origin: WYANDOTTE CHEMICALS CORP., WYANDOTTE, MICHIGAN, USA
MICROMETERS	TRANSMITTANCE
2.027	0.975
2.06685	0.976
2.10671	0.978
2.14656	0.961
2.18642	0.903
2.22627	0.933
2.26613	0.956
2.30598	0.946
2.34583	0.951
2.38569	0.945
2.42554	0.955
2.4654	0.971
2.50525	0.978
2.54511	0.983
2.58496	0.986
2.62481	0.996
2.66467	0.985
2.70452	0.983
2.74438	0.971
2.78423	0.956
2.82409	0.898
2.86394	0.928
2.9038	0.96
2.94365	0.96
2.9835	0.971
3.02336	0.976
3.06321	0.976
3.10307	0.963
3.14292	0.95
3.18278	0.938
3.22263	0.918
3.26248	0.847
3.30234	0.47
3.34219	0.152
3.38205	0.142
3.4219	0.265
3.46176	0.515
3.50161	0.636
3.54146	0.462
3.58132	0.905
3.62117	0.946
3.66103	0.961
3.70088	0.976
3.74074	0.985
3.78059	0.971
3.82044	0.976
3.8603	0.975
3.90015	0.985
3.94001	0.996
3.97986	1.001
4.01972	1
4.05957	0.996
4.09943	0.998
4.13928	1
4.17913	1.001
4.21899	1.001
4.25884	1.001
4.2987	1.001
4.33855	1
4.37841	0.993
4.41826	0.983
4.45811	1.004
4.49797	1.008
4.53782	1.004
4.57768	1.003
4.61753	1
4.65739	0.99
4.69724	1
4.73709	0.978
4.77695	0.946
4.8168	0.966
4.85666	0.998
4.89651	0.998
4.93637	0.996
4.97622	0.986
5.01607	0.981
5.05593	0.971
5.09578	0.981
5.13564	0.996
5.17549	1.008
5.21535	1
5.2552	0.986
5.29505	0.97
5.33491	0.985
5.37476	0.993
5.41462	1.008
5.45447	1.009
5.49433	1.009
5.53418	0.99
5.57404	0.986
5.61389	0.981
5.65374	0.983
5.6936	0.981
5.73345	0.98
5.77331	0.986
5.81316	0.981
5.85302	0.986
5.89287	0.976
5.93272	0.98
5.97258	0.978
6.01243	0.94
6.05229	0.912
6.09214	0.94
6.132	0.958
6.17185	0.96
6.2117	0.973
6.25156	0.963
6.29141	0.96
6.33127	0.94
6.37112	0.913
6.41098	0.897
6.45083	0.923
6.49068	0.932
6.53054	0.933
6.57039	0.918
6.61025	0.905
6.6501	0.877
6.68996	0.805
6.72981	0.678
6.76967	0.5
6.80952	0.436
6.84937	0.542
6.88923	0.64
6.92908	0.651
6.96894	0.681
7.00879	0.814
7.04865	0.835
7.0885	0.83
7.12835	0.814
7.16821	0.714
7.20806	0.374
7.24792	0.092
7.28777	0.137
7.32763	0.538
7.36748	0.781
7.40733	0.864
7.44719	0.898
7.48704	0.913
7.5269	0.923
7.56675	0.917
7.60661	0.897
7.64646	0.905
7.68631	0.905
7.72617	0.878
7.76602	0.796
7.80588	0.736
7.84573	0.699
7.88559	0.464
7.92544	0.257
7.9653	0.378
8.00515	0.499
8.045	0.51
8.08486	0.432
8.12471	0.248
8.16457	0.064
8.20442	0.039
8.24428	0.039
8.28413	0.079
8.32398	0.116
8.36384	0.107
8.40369	0.074
8.44355	0.043
8.4834	0.053
8.52326	0.169
8.56311	0.308
8.60296	0.323
8.64282	0.237
8.68267	0.2
8.72253	0.15
8.76238	0.248
8.80224	0.399
8.84209	0.552
8.88194	0.641
8.9218	0.688
8.96165	0.721
9.00151	0.701
9.04136	0.633
9.08122	0.53
9.12107	0.383
9.16092	0.179
9.20078	0.049
9.24063	0.038
9.28049	0.056
9.32034	0.101
9.3602	0.084
9.40005	0.039
9.43991	0.039
9.47976	0.039
9.51961	0.043
9.55947	0.094
9.59932	0.217
9.63918	0.351
9.67903	0.512
9.71889	0.626
9.75874	0.708
9.79859	0.766
9.83845	0.804
9.8783	0.83
9.91816	0.847
9.95801	0.857
9.99787	0.852
10.0377	0.822
10.0776	0.746
10.1174	0.729
10.1573	0.822
10.1971	0.887
10.237	0.915
10.2768	0.928
10.3167	0.935
10.3566	0.938
10.3964	0.938
10.4363	0.94
10.4761	0.938
10.516	0.938
10.5558	0.938
10.5957	0.927
10.6355	0.922
10.6754	0.9
10.7152	0.885
10.7551	0.837
10.795	0.752
10.8348	0.776
10.8747	0.837
10.9145	0.882
10.9544	0.91
10.9942	0.927
11.0341	0.936
11.0739	0.935
11.1138	0.945
11.1536	0.948
11.1935	0.945
11.2334	0.948
11.2732	0.938
11.3131	0.941
11.3529	0.941
11.3928	0.933
11.4326	0.932
11.4725	0.933
11.5123	0.93
11.5522	0.923
11.592	0.912
11.6319	0.902
11.6717	0.897
11.7116	0.873
11.7515	0.847
11.7913	0.814
11.8312	0.764
11.871	0.698
11.9109	0.616
11.9507	0.514
11.9906	0.383
12.0304	0.177
12.0703	0.056
12.1101	0.043
12.15	0.044
12.1899	0.067
12.2297	0.155
12.2696	0.308
12.3094	0.467
12.3493	0.59
12.3891	0.686
12.429	0.759
12.4688	0.805
12.5087	0.832
12.5485	0.859
12.5884	0.877
12.6283	0.888
12.6681	0.895
12.708	0.903
12.7478	0.915
12.7877	0.92
12.8275	0.928
12.8674	0.935
12.9072	0.935
12.9471	0.94
12.9869	0.945
13.0268	0.943
13.0666	0.948
13.1065	0.941
13.1464	0.951
13.1862	0.953
13.2261	0.951
13.2659	0.945
13.3058	0.95
13.3456	0.946
13.3855	0.946
13.4253	0.94
13.4652	0.933
13.505	0.93
13.5449	0.923
13.5848	0.912
13.6246	0.895
13.6645	0.854
13.7043	0.825
13.7442	0.822
13.784	0.849
13.8239	0.88
13.8637	0.898
13.9036	0.908
13.9434	0.92
13.9833	0.93
14.0232	0.933
14.063	0.938
14.1029	0.94
14.1427	0.941
14.1826	0.941
14.2224	0.94
14.2623	0.94
14.3021	0.938
14.342	0.941
14.3818	0.935
14.4217	0.935
14.4616	0.933
14.5014	0.932
14.5413	0.925
14.5811	0.918
14.621	0.918
14.6608	0.917
14.7007	0.912
14.7405	0.907
14.7804	0.903
14.8202	0.9
14.8601	0.898
14.8999	0.897
14.9398	0.897
14.9797	0.89
15.0195	0.86
15.0594	0.842
15.0992	0.83
15.1391	0.865
15.1789	0.875
15.2188	0.87
15.2586	0.86
15.2985	0.854
15.3383	0.85
15.3782	0.832
15.4181	0.829
15.4579	0.824
15.4978	0.825
15.5376	0.81
15.5775	0.814
15.6173	0.81
15.6572	0.802
15.697	0.792
15.7369	0.796
15.7767	0.786
15.8166	0.781
15.8565	0.782
15.8963	0.771
15.9362	0.771
15.976	0.771
