Infrared Spectrum: 2,2,4,4,6,6-Hexamethylcyclohexane-1,3,5-trione
Formula: C 12 H 18 O 3
CAS: 778-18-7
State: gas
Instrument: HP-GC/MS/IRD
Origin: NIST Mass Spectrometry Data Center
1/CM	ABSORBANCE
550	0.0002205
562	0.000171
574	0.0001395
586	0.0001485
598	6.75e-05
610	0.000225
622	0.000243
634	0.0002385
646	0.000234
658	0.0001935
670	0.000297
682	0.000252
694	0.0002115
706	0.000234
718	0.0002655
730	0.0002925
742	0.0003105
754	0.0003555
766	0.0003375
778	0.000297
790	0.000306
802	0.000324
814	0.0003555
826	0.0003825
838	0.000495
850	0.001305
862	0.002142
874	0.001377
886	0.0005715
898	0.0004185
910	0.000441
922	0.000459
934	0.000504
946	0.0007965
958	0.001116
970	0.001008
982	0.001314
994	0.0022815
1006	0.0035055
1018	0.0047295
1030	0.007416
1042	0.0126945
1054	0.0133965
1066	0.007119
1078	0.003321
1090	0.00225
1102	0.0021285
1114	0.001989
1126	0.001278
1138	0.0008865
1150	0.000837
1162	0.000918
1174	0.0012285
1186	0.0019395
1198	0.002331
1210	0.002097
1222	0.001944
1234	0.0019215
1246	0.002502
1258	0.00405
1270	0.0054765
1282	0.004572
1294	0.0025515
1306	0.001251
1318	0.0007695
1330	0.0005985
1342	0.0006435
1354	0.001161
1366	0.0033075
1378	0.007317
1390	0.010008
1402	0.0027675
1414	0.0013455
1426	0.0014445
1438	0.0024075
1450	0.0042075
1462	0.0061425
1474	0.0064575
1486	0.002952
1498	0.0013095
1510	0.0008595
1522	0.0006705
1534	0.0005715
1546	0.0005085
1558	0.000441
1570	0.000468
1582	0.000468
1594	0.0004905
1606	0.000558
1618	0.000702
1630	0.0009135
1642	0.001233
1654	0.0016065
1666	0.002529
1678	0.0044685
1690	0.0109215
1702	0.035037
1714	0.0398925
1726	0.012474
1738	0.0047385
1750	0.0026685
1762	0.001863
1774	0.0013545
1786	0.000981
1798	0.0007065
1810	0.000531
1822	0.000396
1834	0.0003195
1846	0.0002025
1858	0.00018
1870	0.000162
1882	0.000171
1894	0.0001755
1906	0.0001845
1918	0.0001755
1930	0.0001485
1942	0.0001305
1954	0.000135
1966	0.0001305
1978	0.0001575
1990	0.0001395
2002	0.0001575
2014	0.0001395
2026	0.0001395
2038	0.0001395
2050	0.0001305
2062	0.0001215
2074	9.9e-05
2086	9.45e-05
2098	8.1e-05
2110	9.9e-05
2122	9e-05
2134	9.45e-05
2146	0.0001215
2158	0.000117
2170	0.0001035
2182	0.000117
2194	9.9e-05
2206	0.000117
2218	0.000135
2230	0.0001215
2242	0.000108
2254	9e-05
2266	6.3e-05
2278	6.75e-05
2290	7.65e-05
2302	7.2e-05
2314	0.0001125
2326	9.9e-05
2338	5.85e-05
2350	7.65e-05
2362	6.3e-05
2374	5.4e-05
2386	6.75e-05
2398	5.85e-05
2410	4.5e-05
2422	9e-05
2434	8.55e-05
2446	8.1e-05
2458	9e-05
2470	7.65e-05
2482	8.55e-05
2494	5.85e-05
2506	4.95e-05
2518	4.05e-05
2530	3.15e-05
2542	4.5e-05
2554	6.75e-05
2566	4.95e-05
2578	4.05e-05
2590	3.15e-05
2602	3.15e-05
2614	9e-06
2626	4.05e-05
2638	4.95e-05
2650	7.2e-05
2662	3.15e-05
2674	4.05e-05
2686	4.05e-05
2698	3.15e-05
2710	4.95e-05
2722	7.2e-05
2734	9e-05
2746	0.0001125
2758	8.55e-05
2770	9.9e-05
2782	0.0001035
2794	0.000162
2806	0.0002745
2818	0.000324
2830	0.00036
2842	0.0004095
2854	0.0006435
2866	0.0012735
2878	0.002718
2890	0.003105
2902	0.002385
2914	0.0024615
2926	0.0031545
2938	0.005229
2950	0.007938
2962	0.005589
2974	0.0059985
2986	0.012303
2998	0.0127755
3010	0.0049455
3022	0.00153
3034	0.0007335
3046	0.0004725
3058	0.0003645
3070	0.000342
3082	0.0003105
3094	0.0002565
3106	0.0002385
3118	0.000243
3130	0.0002565
3142	0.000297
3154	0.000252
3166	0.0002565
3178	0.000306
3190	0.000225
3202	0.0002475
3214	0.000207
3226	0.000216
3238	0.000171
3250	0.00018
3262	0.000153
3274	0.000162
3286	0.0001125
3298	0.0001305
3310	0.0001035
3322	0.0001485
3334	0.0001395
3346	0.0001575
3358	0.0001035
3370	0.0001935
3382	0.000216
3394	0.000396
3406	0.0006615
3418	0.0006075
3430	0.000432
3442	0.000477
3454	0.000441
3466	0.0002475
3478	0.000126
3490	8.1e-05
3502	9.45e-05
3514	7.65e-05
3526	5.85e-05
3538	8.55e-05
3550	4.95e-05
3562	7.2e-05
3574	7.65e-05
3586	6.75e-05
3598	7.2e-05
3610	1.8e-05
3622	5.4e-05
3634	8.1e-05
3646	5.4e-05
3658	4.5e-05
3670	0
3682	4.95e-05
3694	6.75e-05
3706	9e-05
3718	4.95e-05
3730	4.05e-05
3742	7.2e-05
3754	5.85e-05
3766	8.1e-05
3778	4.95e-05
3790	7.65e-05
3802	2.7e-05
3814	6.3e-05
3826	5.4e-05
3838	9.9e-05
