Infrared Spectrum: 5-PYRIMIDINECARBOXYLIC ACID, 4-AMINO-2-(ETHYLTHIO)-, ETHYL ESTER
Formula: C9 H13 N3 O2 S
CAS: 778-97-2
State: SOLID (SPLIT MULL)
Class: COBLENTZ III
Instrument: DOW KBr FOREPRISM-GRATING
Instrument parameters: BLAZED AT 3.5, 12.0, 20.0 MICRON AND CHANGED AT 5.0, 7.5, 14.9 MICRON
Sampling: TRANSMISSION
Resolution: 2
Origin: DOW CHEMICAL COMPANY
1/CM	TRANSMITTANCE
460	0.8992
469	0.8997
478	0.9015
487	0.8999
496	0.8781
505	0.6828
514	0.879
523	0.8695
532	0.8514
541	0.8239
550	0.7593
559	0.69
568	0.6597
577	0.5138
586	0.4666
595	0.5897
604	0.6334
613	0.8428
622	0.8701
631	0.8823
640	0.8882
649	0.8902
658	0.889
667	0.8586
676	0.8695
685	0.8714
694	0.8938
703	0.8835
712	0.8366
721	0.7168
730	0.7451
739	0.7171
748	0.7361
757	0.7945
766	0.7484
775	0.7404
784	0.7786
793	0.7528
802	0.4708
811	0.7761
820	0.8294
829	0.8225
838	0.6618
847	0.8247
856	0.8139
865	0.7846
874	0.7121
883	0.8017
892	0.7958
901	0.7976
910	0.7841
919	0.766
928	0.7471
937	0.7256
946	0.6685
955	0.4053
964	0.521
973	0.7158
982	0.7208
991	0.7001
1000	0.6714
1009	0.6276
1018	0.5423
1027	0.4394
1036	0.6042
1045	0.5899
1054	0.5158
1063	0.5429
1072	0.514
1081	0.4392
1090	0.2812
1099	0.0895
1108	0.2353
1117	0.4054
1126	0.4722
1135	0.4426
1144	0.3316
1153	0.24
1162	0.1412
1171	0.0916
1180	0.0802
1189	0.1109
1198	0.2245
1207	0.4751
1216	0.5997
1225	0.542
1234	0.3532
1243	0.2108
1252	0.1778
1261	0.319
1270	0.3526
1279	0.4135
1288	0.3448
1297	0.1989
1306	0.1187
1315	0.5042
1324	0.4243
1333	0.4503
1342	0.5528
1351	0.5457
1360	0.5079
1369	0.238
1378	0.322
1387	0.2419
1396	0.4938
1405	0.6815
1414	0.7068
1423	0.7219
1432	0.7021
1441	0.6172
1450	0.6247
1459	0.6024
1468	0.6449
1477	0.6455
1486	0.6768
1495	0.6398
1504	0.586
1513	0.5102
1522	0.4102
1531	0.4605
1540	0.5881
1549	0.5828
1558	0.4622
1567	0.1742
1576	0.1081
1585	0.1337
1594	0.5132
1603	0.464
1612	0.3046
1621	0.1271
1630	0.0678
1639	0.1903
1648	0.4399
1657	0.631
1666	0.6749
1675	0.5819
1684	0.3063
1693	0.0595
1702	0.3926
1711	0.6495
1720	0.7428
1729	0.8303
1738	0.8788
1747	0.9157
1756	0.9453
1765	0.9687
1774	0.9736
1783	0.97
1792	0.9665
1801	0.9628
1810	0.9613
1819	0.9605
1828	0.9592
1837	0.9565
1846	0.9528
1855	0.9491
1864	0.9449
1873	0.9413
1882	0.9391
1891	0.9368
1900	0.9341
1909	0.9308
1918	0.9228
1927	0.905
1936	0.9225
1945	0.9132
1954	0.9094
1963	0.9063
1972	0.9067
1981	0.9039
1990	0.8993
1999	0.8978
2008	0.9078
2017	0.9004
2026	0.9
2035	0.8998
2044	0.8986
2053	0.897
2062	0.8952
2071	0.8924
2080	0.8886
2089	0.8834
2098	0.8775
2107	0.8718
2116	0.8661
2125	0.8615
2134	0.8585
2143	0.8566
2152	0.8563
2161	0.8545
2170	0.8478
2179	0.8384
2188	0.8318
2197	0.8275
2206	0.8244
2215	0.8212
2224	0.8176
2233	0.814
2242	0.8104
2251	0.8064
2260	0.8022
2269	0.7981
2278	0.794
2287	0.7898
2296	0.7858
2305	0.7821
2314	0.7797
2323	0.7835
2332	0.7856
2341	0.7769
2350	0.776
2359	0.7758
2368	0.775
2377	0.7743
2386	0.7719
2395	0.7668
2404	0.7615
2413	0.7586
2422	0.7575
2431	0.7568
2440	0.7567
2449	0.7549
2458	0.7501
2467	0.7457
2476	0.7428
2485	0.7439
2494	0.7456
2503	0.7458
2512	0.7453
2521	0.7437
2530	0.7421
2539	0.74
2548	0.7375
2557	0.735
2566	0.7319
2575	0.7289
2584	0.7258
2593	0.7231
2602	0.7205
2611	0.7182
2620	0.7158
2629	0.713
2638	0.71
2647	0.7065
2656	0.7018
2665	0.6955
2674	0.6898
2683	0.686
2692	0.6833
2701	0.6793
2710	0.6747
2719	0.6711
2728	0.6683
2737	0.6649
2746	0.6611
2755	0.6575
2764	0.654
2773	0.6499
2782	0.6458
2791	0.6396
2800	0.6325
2809	0.6294
2818	0.628
2827	0.6254
2836	0.6199
2845	0.609
2854	0.594
2863	0.5792
2872	0.5717
2881	0.5698
2890	0.546
2899	0.515
2908	0.5224
2917	0.5292
2926	0.4721
2935	0.4707
2944	0.4716
2953	0.4662
2962	0.4804
2971	0.4242
2980	0.416
2989	0.3618
2998	0.4537
3007	0.4641
3016	0.4605
3025	0.4471
3034	0.4338
3043	0.4215
3052	0.4098
3061	0.3946
3070	0.3792
3079	0.3634
3088	0.3477
3097	0.3334
3106	0.3224
3115	0.3253
3124	0.3399
3133	0.3639
3142	0.3844
3151	0.3912
3160	0.3868
3169	0.3889
3178	0.4174
3187	0.4501
3196	0.4787
3205	0.5104
3214	0.5304
3223	0.5496
3232	0.5471
3241	0.5351
3250	0.5042
3259	0.4619
3268	0.4458
3277	0.4891
3286	0.551
3295	0.5975
3304	0.6138
3313	0.6179
3322	0.6266
3331	0.6315
3340	0.6284
3349	0.6233
3358	0.6149
3367	0.6053
3376	0.5944
3385	0.5735
3394	0.5251
3403	0.3768
3412	0.2415
3421	0.4572
3430	0.6821
3439	0.6876
3448	0.6844
3457	0.6825
3466	0.6831
3475	0.6838
3484	0.6832
3493	0.68
3502	0.6745
3511	0.67
3520	0.6667
3529	0.6647
3538	0.6621
3547	0.6595
3556	0.6565
3565	0.6535
3574	0.6507
3583	0.6518
3592	0.6515
3601	0.6485
3610	0.6458
3619	0.6435
3628	0.6411
3637	0.6392
3646	0.6379
3655	0.6364
3664	0.6346
3673	0.6325
3682	0.6306
3691	0.6286
3700	0.6265
3709	0.6239
3718	0.6214
3727	0.6189
3736	0.6162
3745	0.6138
3754	0.6112
3763	0.6086
3772	0.6059
3781	0.6031
3790	0.6002
3799	0.5976
