Infrared Spectrum: SILANOL, METHYLDIPHENYL-
Formula: C13 H14 O Si
CAS: 778-25-6
State: SOLUTION (11% CCl4 FOR 3800-1300, 3% CS2 FOR 1300-650, AND 11% CCl4 FOR 650-300) VS SOLVENT
Melting point: 167 C
Boiling point: 148 C AT 3 mmHg
Class: COBLENTZ III
Instrument: PERKIN-ELMER 521 (GRATING)
Instrument parameters: FILTERS AT 3150, 2500, 2000, 1150, 700, 410. GRATING CHANGES: 2000, 630
Sampling: TRANSMISSION
Path length: 0.012 CM, 0.010 CM, AND 0.009 CM
Resolution: 2
Origin: DOW CHEMICAL COMPANY
1/CM	TRANSMITTANCE
262	0.7967
271	0.8001
280	0.8054
289	0.8096
298	0.8095
307	0.7998
316	0.7912
325	0.7931
334	0.811
343	0.8363
352	0.8275
361	0.7855
370	0.6605
379	0.6304
388	0.7989
397	0.8536
406	0.8457
415	0.7988
424	0.7221
433	0.5664
442	0.3336
451	0.447
460	0.5833
469	0.301
478	0.2223
487	0.2643
496	0.7083
505	0.7743
514	0.7965
523	0.8051
532	0.8071
541	0.8047
550	0.8011
559	0.8047
568	0.8
577	0.7918
586	0.7832
595	0.7753
604	0.7699
613	0.7735
622	0.7768
631	0.7749
640	0.7643
649	0.8415
658	0.8045
667	0.8191
676	0.8274
685	0.8216
694	0.6067
703	0.2633
712	0.6518
721	0.3739
730	0.4176
739	0.3512
748	0.6165
757	0.7091
766	0.6222
775	0.6131
784	0.5404
793	0.3722
802	0.5609
811	0.5329
820	0.4692
829	0.4164
838	0.467
847	0.5915
856	0.6056
865	0.614
874	0.7067
883	0.7083
892	0.7255
901	0.8284
910	0.8898
919	0.911
928	0.9202
937	0.9265
946	0.9255
955	0.9218
964	0.9185
973	0.9152
982	0.9151
991	0.9174
1000	0.874
1009	0.9392
1018	0.9408
1027	0.9251
1036	0.9489
1045	0.9462
1054	0.9408
1063	0.933
1072	0.9446
1081	0.9482
1090	0.9283
1099	0.8765
1108	0.7008
1117	0.3709
1126	0.8078
1135	0.9397
1144	0.9553
1153	0.9553
1162	0.9543
1171	0.9487
1180	0.9306
1189	0.9124
1198	0.9575
1207	0.9562
1216	0.952
1225	0.9436
1234	0.927
1243	0.8658
1252	0.5857
1261	0.8448
1270	0.9435
1279	0.9474
1288	0.9411
1297	0.9155
1306	0.7218
1315	0.7497
1324	0.6958
1333	0.7775
1342	0.8274
1351	0.8318
1360	0.8137
1369	0.7792
1378	0.7748
1387	0.7911
1396	0.7753
1405	0.6501
1414	0.7299
1423	0.5178
1432	0.1642
1441	0.7805
1450	0.8008
1459	0.8304
1468	0.8287
1477	0.8207
1486	0.7211
1495	0.8433
1504	0.8727
1513	0.877
1522	0.8787
1531	0.8765
1540	0.8684
1549	0.8586
1558	0.8518
1567	0.82
1576	0.8445
1585	0.7374
1594	0.562
1603	0.8412
1612	0.8355
1621	0.8685
1630	0.8677
1639	0.8581
1648	0.8454
1657	0.8482
1666	0.8725
1675	0.8818
1684	0.8853
1693	0.8839
1702	0.8848
1711	0.8871
1720	0.8887
1729	0.8889
1738	0.8884
1747	0.8874
1756	0.8796
1765	0.8542
1774	0.8604
1783	0.8925
1792	0.8962
1801	0.8887
1810	0.8557
1819	0.7911
1828	0.8412
1837	0.8658
1846	0.885
1855	0.886
1864	0.8843
1873	0.8671
1882	0.8149
1891	0.8118
1900	0.8103
1909	0.8713
1918	0.8865
1927	0.8895
1936	0.8846
1945	0.8573
1954	0.7875
1963	0.8264
1972	0.8258
1981	0.8751
1990	0.8888
1999	0.8436
2008	0.9059
2017	0.9054
2026	0.9061
2035	0.9067
2044	0.907
2053	0.9075
2062	0.908
2071	0.9083
2080	0.9089
2089	0.9095
2098	0.9102
2107	0.9104
2116	0.9106
2125	0.9107
2134	0.9106
2143	0.9103
2152	0.9102
2161	0.9098
2170	0.9095
2179	0.9091
2188	0.908
2197	0.9068
2206	0.9052
2215	0.9032
2224	0.9009
2233	0.9009
2242	0.9018
2251	0.904
2260	0.9055
2269	0.9068
2278	0.9065
2287	0.9067
2296	0.9068
2305	0.9067
2314	0.9071
2323	0.9123
2332	0.9112
2341	0.9064
2350	0.9067
2359	0.9108
2368	0.9139
2377	0.9159
2386	0.9168
2395	0.9174
2404	0.9174
2413	0.9175
2422	0.9178
2431	0.918
2440	0.9183
2449	0.9187
2458	0.9191
2467	0.9187
2476	0.9155
2485	0.9115
2494	0.9113
2503	0.9123
2512	0.9135
2521	0.9146
2530	0.9164
2539	0.9178
2548	0.9182
2557	0.9171
2566	0.9146
2575	0.9152
2584	0.9115
2593	0.9105
2602	0.9117
2611	0.9132
2620	0.914
2629	0.9146
2638	0.9149
2647	0.915
2656	0.9148
2665	0.9134
2674	0.9112
2683	0.9075
2692	0.9035
2701	0.9012
2710	0.9081
2719	0.9133
2728	0.9142
2737	0.9138
2746	0.913
2755	0.911
2764	0.9086
2773	0.9028
2782	0.8918
2791	0.8851
2800	0.8841
2809	0.8834
2818	0.8789
2827	0.8818
2836	0.8832
2845	0.8796
2854	0.8738
2863	0.8671
2872	0.8571
2881	0.8408
2890	0.8143
2899	0.7964
2908	0.7972
2917	0.8042
2926	0.8061
2935	0.8011
2944	0.7885
2953	0.7342
2962	0.5327
2971	0.5604
2980	0.6755
2989	0.7157
2998	0.6156
3007	0.4849
3016	0.464
3025	0.4676
3034	0.4637
3043	0.5212
3052	0.3722
3061	0.2856
3070	0.3806
3079	0.1964
3088	0.5279
3097	0.4925
3106	0.6278
3115	0.6195
3124	0.6046
3133	0.5734
3142	0.5358
3151	0.5571
3160	0.5344
3169	0.5151
3178	0.4941
3187	0.4714
3196	0.452
3205	0.4318
3214	0.4092
3223	0.3922
3232	0.3771
3241	0.3637
3250	0.3527
3259	0.3432
3268	0.336
3277	0.3309
3286	0.3277
3295	0.3272
3304	0.3292
3313	0.3324
3322	0.3366
3331	0.3412
3340	0.3462
3349	0.3526
3358	0.3626
3367	0.3716
3376	0.3806
3385	0.3909
3394	0.4014
3403	0.4143
3412	0.429
3421	0.4441
3430	0.4612
3439	0.477
3448	0.4926
3457	0.5088
3466	0.529
3475	0.55
3484	0.5768
3493	0.5981
3502	0.6242
3511	0.6539
3520	0.673
3529	0.6878
3538	0.7021
3547	0.7051
3556	0.7014
3565	0.6958
3574	0.7085
3583	0.7272
3592	0.7438
3601	0.7478
3610	0.7421
3619	0.7335
3628	0.7243
3637	0.7132
3646	0.6996
3655	0.6846
3664	0.6541
3673	0.555
3682	0.4502
3691	0.4152
3700	0.6541
3709	0.8321
3718	0.8751
3727	0.8902
3736	0.8913
3745	0.8934
3754	0.8978
3763	0.9032
3772	0.9082
3781	0.909
3790	0.9084
3799	0.9077
