Infrared Spectrum: Dimethyldiphenylsilane
Formula: C 14 H 16 Si
CAS: 778-24-5
State: gas
Origin: EPA-IR VAPOR PHASE LIBRARY
1/CM	ABSORBANCE
549.9	0.0029221
559.547	0.0027324
569.193	0.0029672
578.84	0.0028532
588.486	0.0031256
598.133	0.00351
607.779	0.00502
617.426	0.00715
627.072	0.01168
636.719	0.02334
646.365	0.02422
656.012	0.01481
665.658	0.01737
675.305	0.0317
684.951	0.06415
694.598	0.12137
704.245	0.14356
713.891	0.11066
723.538	0.11418
733.184	0.10972
742.831	0.07126
752.477	0.04455
762.124	0.04338
771.77	0.06962
781.417	0.07557
791.063	0.05007
800.71	0.06171
810.356	0.14806
820.003	0.24522
829.649	0.17682
839.296	0.11555
848.943	0.06417
858.589	0.04009
868.236	0.02964
877.882	0.02301
887.529	0.01784
897.175	0.01362
906.822	0.01034
916.468	0.00793
926.115	0.00655
935.761	0.00615
945.408	0.00562
955.054	0.00459
964.701	0.00377
974.347	0.00339
983.994	0.00362
993.64	0.00819
1003.29	0.00817
1012.93	0.0032996
1022.58	0.00379
1032.23	0.00407
1041.87	0.00357
1051.52	0.00455
1061.17	0.00516
1070.81	0.00576
1080.46	0.00948
1090.11	0.02493
1099.75	0.08754
1109.4	0.14591
1119.05	0.08336
1128.69	0.04234
1138.34	0.01577
1147.99	0.00711
1157.63	0.00517
1167.28	0.00488
1176.92	0.00533
1186.57	0.01162
1196.22	0.01458
1205.86	0.00634
1215.51	0.00448
1225.16	0.00688
1234.8	0.01492
1244.45	0.041
1254.1	0.09097
1263.74	0.06631
1273.39	0.02442
1283.04	0.01507
1292.68	0.01358
1302.33	0.01272
1311.98	0.01161
1321.62	0.01039
1331.27	0.00913
1340.92	0.00777
1350.56	0.00624
1360.21	0.00578
1369.86	0.00568
1379.5	0.0056
1389.15	0.00683
1398.79	0.01131
1408.44	0.0196
1418.09	0.03009
1427.73	0.03577
1437.38	0.02516
1447.03	0.0123
1456.67	0.0072
1466.32	0.00522
1475.97	0.00522
1485.61	0.00822
1495.26	0.00614
1504.91	0.0031113
1514.55	0.0029696
1524.2	0.0031801
1533.85	0.00371
1543.49	0.0043
1553.14	0.00458
1562.79	0.00485
1572.43	0.00507
1582.08	0.00525
1591.73	0.00483
1601.37	0.00394
1611.02	0.00391
1620.67	0.00334
1630.31	0.00405
1639.96	0.00574
1649.6	0.00446
1659.25	0.0030073
1668.9	0.0025338
1678.54	0.00239329
1688.19	0.00236222
1697.84	0.0022482
1707.48	0.002126
1717.13	0.002034
1726.78	0.002042
1736.42	0.00239491
1746.07	0.003108
1755.72	0.00356
1765.36	0.0032675
1775.01	0.00344
1784.66	0.0030105
1794.3	0.00436
1803.95	0.00888
1813.6	0.00931
1823.24	0.00545
1832.89	0.00362
1842.54	0.0029826
1852.18	0.0031517
1861.83	0.00433
1871.47	0.00631
1881.12	0.00824
1890.77	0.00887
1900.41	0.00482
1910.06	0.0029911
1919.71	0.0031016
1929.35	0.00414
1939	0.00607
1948.65	0.00791
1958.29	0.00845
1967.94	0.00546
1977.59	0.0027202
1987.23	0.002176
1996.88	0.002048
2006.53	0.002074
2016.17	0.002078
2025.82	0.002093
2035.47	0.002082
2045.11	0.002015
2054.76	0.001883
2064.41	0.001704
2074.05	0.00168
2083.7	0.001688
2093.35	0.001732
2102.99	0.001723
2112.64	0.001735
2122.28	0.001736
2131.93	0.001839
2141.58	0.001838
2151.22	0.001767
2160.87	0.001672
2170.52	0.00165
2180.16	0.001713
2189.81	0.001721
2199.46	0.001722
2209.1	0.001918
2218.75	0.002042
2228.4	0.001888
2238.04	0.001785
2247.69	0.001754
2257.34	0.001748
2266.98	0.001737
2276.63	0.00175
2286.28	0.001813
2295.92	0.001851
2305.57	0.002193
2315.22	0.0026854
2324.86	0.001985
2334.51	0.001845
2344.16	0.001993
2353.8	0.002083
2363.45	0.001931
2373.09	0.001686
2382.74	0.001631
2392.39	0.001643
2402.03	0.001571
2411.68	0.001592
2421.33	0.001479
2430.97	0.001442
2440.62	0.00145
2450.27	0.001503
2459.91	0.001473
2469.56	0.001445
2479.21	0.001476
2488.85	0.001692
2498.5	0.001715
2508.15	0.001488
2517.79	0.001488
2527.44	0.001451
2537.09	0.001545
2546.73	0.00151
2556.38	0.0016
2566.03	0.001616
2575.67	0.001871
2585.32	0.002163
2594.96	0.00184
2604.61	0.001795
2614.26	0.001965
2623.9	0.001756
2633.55	0.001538
2643.2	0.001516
2652.84	0.00156
2662.49	0.001669
2672.14	0.001802
2681.78	0.002075
2691.43	0.0022483
2701.08	0.002055
2710.72	0.001658
2720.37	0.001478
2730.02	0.001421
2739.66	0.001513
2749.31	0.001597
2758.96	0.001749
2768.6	0.001998
2778.25	0.00240725
2787.9	0.003227
2797.54	0.00402
2807.19	0.00482
2816.84	0.0049
2826.48	0.00459
2836.13	0.00423
2845.77	0.00455
2855.42	0.00489
2865.07	0.00519
2874.71	0.0059
2884.36	0.00818
2894.01	0.0132
2903.65	0.01854
2913.3	0.01666
2922.95	0.01072
2932.59	0.00847
2942.24	0.01136
2951.89	0.02771
2961.53	0.06548
2971.18	0.05052
2980.83	0.02282
2990.47	0.01913
3000.12	0.02706
3009.77	0.04276
3019.41	0.04732
3029.06	0.03588
3038.71	0.03434
3048.35	0.05931
3058	0.12179
3067.64	0.10132
3077.29	0.0777
3086.94	0.05416
3096.58	0.0289
3106.23	0.012
3115.88	0.00773
3125.52	0.0076
3135.17	0.00798
3144.82	0.00498
3154.46	0.0025152
3164.11	0.002089
3173.76	0.002139
3183.4	0.001806
3193.05	0.00096
3202.7	0.00066
3212.34	0.00047
3221.99	0.00037
3231.64	0.00033
3241.28	0.00037
3250.93	0.00035
3260.58	0.00025
3270.22	0.00034
3279.87	0.00018
3289.52	0.00028
3299.16	0.0001
3308.81	0.0002
3318.45	0.00025
3328.1	1e-05
3337.75	0.00013
3347.39	0.00027
3357.04	0.00013
3366.69	0.00027
3376.33	0.00047
3385.98	0.0003
3395.63	0.00026
3405.27	0.0003
3414.92	0.00029
3424.57	0.00038
3434.21	0.00064
3443.86	0.00053
3453.51	0.00039
3463.15	0.00038
3472.8	0.00027
3482.45	0.00053
3492.09	0.00041
3501.74	0.0006
3511.39	0.00059
3521.03	0.00071
3530.68	0.00069
3540.33	0.0007
3549.97	0.00092
3559.62	0.001
3569.26	0.00101
3578.91	0.00102
3588.56	0.00104
3598.2	0.00125
3607.85	0.00124
3617.5	0.001454
3627.14	0.001675
3636.79	0.001797
3646.44	0.001821
3656.08	0.001881
3665.73	0.001809
3675.38	0.002115
3685.02	0.0024219
3694.67	0.00240994
3704.32	0.00218
3713.96	0.002102
3723.61	0.002146
3733.26	0.002183
3742.9	0.002106
3752.55	0.001892
3762.2	0.001733
3771.84	0.001541
3781.49	0.001597
3791.13	0.001428
3800.78	0.001352
3810.43	0.00129
3820.07	0.00129
3829.72	0.00111
3839.37	0.00118
3849.01	0.00099
3858.66	0.00111
3868.31	0.00125
3877.95	0.00118
3887.6	0.00124
3897.25	0.00125
3906.89	0.00114
3916.54	0.00127
3926.19	0.00122
3935.83	0.00122
3945.48	0.00113
3955.13	0.0012
3964.77	0.001397
3974.42	0.001406
3984.07	0.001449
3993.71	0.001536
