Infrared Spectrum: 2,2-Diphenylpropane
Formula: C 15 H 16
CAS: 778-22-3
State: gas
Instrument: HP-GC/MS/IRD
Origin: NIST Mass Spectrometry Data Center
1/CM	ABSORBANCE
550	0.0019936
562	0.0035296
574	0.0038112
586	0.0018368
598	0.0025408
610	0.0007264
622	0.000352
634	0.0004
646	0.0005152
658	0.0015456
670	0.0031712
682	0.0081696
694	0.0250144
706	0.0198592
718	0.0056192
730	0.0028864
742	0.0050976
754	0.011232
766	0.0086112
778	0.0035232
790	0.0021984
802	0.001248
814	0.000432
826	0.0002496
838	0.0001184
850	2.24e-05
862	1.28e-05
874	0.0001504
886	0.0002656
898	0.0005696
910	0.0006656
922	0.0004512
934	0.0004832
946	0.0001792
958	9.92e-05
970	0.0001248
982	0.0001824
994	0.00032
1006	0.000896
1018	0.0030464
1030	0.008112
1042	0.0022496
1054	0.0012864
1066	0.0026208
1078	0.0024544
1090	0.0032576
1102	0.0012192
1114	0.0006304
1126	0.0002048
1138	0.0001728
1150	0.0001024
1162	5.76e-05
1174	0.0001664
1186	0.0010368
1198	0.001248
1210	0.0013664
1222	0.0030336
1234	0.0035264
1246	0.002224
1258	0.0011936
1270	0.0010752
1282	0.0011808
1294	0.0007424
1306	0.0006432
1318	0.0003264
1330	0.0002144
1342	0.0003584
1354	0.0013088
1366	0.0042944
1378	0.004192
1390	0.0035744
1402	0.001536
1414	0.0010784
1426	0.0018304
1438	0.0047136
1450	0.0057664
1462	0.0045952
1474	0.0053344
1486	0.009424
1498	0.0119424
1510	0.002768
1522	0.0014112
1534	0.0011168
1546	0.0006656
1558	0.0005248
1570	0.0010368
1582	0.0028736
1594	0.0057856
1606	0.0044352
1618	0.0013664
1630	0.000512
1642	0.0002976
1654	0.0004064
1666	0.000528
1678	0.0004608
1690	0.000304
1702	0.0002464
1714	0.0002944
1726	0.0004576
1738	0.0005952
1750	0.0004896
1762	0.000368
1774	0.0005408
1786	0.0011808
1798	0.0016576
1810	0.0007648
1822	0.0003648
1834	0.000272
1846	0.0003968
1858	0.0007904
1870	0.001072
1882	0.0010592
1894	0.0005856
1906	0.0004064
1918	0.0004768
1930	0.001024
1942	0.0015552
1954	0.0012672
1966	0.0004512
1978	0.0001856
1990	0.0001248
2002	8e-05
2014	8.64e-05
2026	6.4e-05
2038	6.08e-05
2050	2.56e-05
2062	6.72e-05
2074	5.76e-05
2086	5.12e-05
2098	3.52e-05
2110	3.52e-05
2122	3.84e-05
2134	3.52e-05
2146	3.52e-05
2158	4.16e-05
2170	7.36e-05
2182	6.08e-05
2194	5.12e-05
2206	2.88e-05
2218	9.6e-06
2230	6.4e-06
2242	3.52e-05
2254	2.56e-05
2266	3.84e-05
2278	3.84e-05
2290	4.8e-05
2302	7.36e-05
2314	0.000208
2326	0.0001152
2338	8.32e-05
2350	0.00016
2362	8.96e-05
2374	0.000112
2386	0.0001312
2398	0.0001056
2410	0.0001312
2422	8.96e-05
2434	8.32e-05
2446	9.92e-05
2458	8.32e-05
2470	6.4e-05
2482	0.0001056
2494	5.12e-05
2506	0.0001184
2518	0.0001024
2530	0.000112
2542	8.32e-05
2554	0.0001088
2566	0.0001472
2578	0.0001856
2590	0.0001696
2602	0.0001888
2614	0.0001568
2626	0.0001536
2638	0.0001664
2650	0.0001696
2662	0.0001504
2674	0.0001728
2686	0.0001856
2698	0.0001728
2710	0.0001984
2722	0.0002016
2734	0.0002272
2746	0.0002272
2758	0.0002176
2770	0.0003392
2782	0.0002656
2794	0.0002784
2806	0.0004064
2818	0.000576
2830	0.0006336
2842	0.0008512
2854	0.00136
2866	0.002304
2878	0.0047104
2890	0.0055104
2902	0.0048096
2914	0.0049376
2926	0.0061216
2938	0.0083328
2950	0.0090144
2962	0.011648
2974	0.0309504
2986	0.0193248
2998	0.0058272
3010	0.0043136
3022	0.0078048
3034	0.0120128
3046	0.0105984
3058	0.0143808
3070	0.0198432
3082	0.0127552
3094	0.0099904
3106	0.00528
3118	0.0025824
3130	0.0011872
3142	0.0007968
3154	0.0006944
3166	0.0005504
3178	0.0004
3190	0.0003136
3202	0.0003168
3214	0.0002912
3226	0.0002912
3238	0.0002336
3250	0.0002784
3262	0.0003392
3274	0.0003616
3286	0.0003328
3298	0.0002176
3310	0.0001216
3322	0.0002176
3334	0.0001632
3346	8.96e-05
3358	9.92e-05
3370	0.00016
3382	9.28e-05
3394	0.000128
3406	6.4e-05
3418	6.72e-05
3430	5.44e-05
3442	8.64e-05
3454	0.0001024
3466	1.28e-05
3478	8.96e-05
3490	3.2e-05
3502	0
3514	6.72e-05
3526	6.4e-06
3538	2.88e-05
3550	1.28e-05
3562	6.4e-05
3574	6.72e-05
3586	1.92e-05
3598	3.2e-05
3610	2.88e-05
3622	6.72e-05
3634	0.0001216
3646	0.0001024
3658	0.0001504
3670	8.32e-05
3682	0.0001312
3694	0.0001344
3706	0.0001344
3718	0.0001152
3730	0.0001536
3742	0.0001312
3754	0.000128
3766	0.0001632
3778	8.96e-05
3790	7.68e-05
3802	2.88e-05
3814	0.0001472
3826	7.68e-05
3838	5.76e-05
