Infrared Spectrum: 4-Bromo-2-methyl-6-nitroaniline
Formula: C 7 H 7 Br N 2 O 2
CAS: 77811-44-0
State: gas
Origin: EPA-IR VAPOR PHASE LIBRARY
1/CM	ABSORBANCE
549.8	0.0154398
559.445	0.0107398
569.09	0.0108098
578.734	0.0102298
588.379	0.0098898
598.024	0.0082498
607.669	0.0083298
617.313	0.0095498
626.958	0.0099398
636.603	0.0102698
646.248	0.0116898
655.893	0.0123098
665.537	0.0121398
675.182	0.0120098
684.827	0.0153198
694.472	0.0257398
704.116	0.0305998
713.761	0.0143698
723.406	0.0093298
733.051	0.0081398
742.695	0.0087198
752.34	0.0103698
761.985	0.0149998
771.63	0.0149898
781.275	0.0123698
790.919	0.0107898
800.564	0.0080298
810.209	0.0061898
819.854	0.0059598
829.498	0.0072398
839.143	0.0068398
848.788	0.0074398
858.433	0.0113198
868.078	0.0327898
877.722	0.0414298
887.367	0.0200198
897.012	0.0163298
906.657	0.0222698
916.301	0.0145098
925.946	0.0066698
935.591	0.0047398
945.236	0.0052198
954.88	0.0039398
964.525	0.0043298
974.17	0.0048098
983.815	0.0057298
993.46	0.0080898
1003.1	0.0112998
1012.75	0.0077598
1022.39	0.0056298
1032.04	0.0038298
1041.68	0.0037398
1051.33	0.0026598
1060.97	0.0036998
1070.62	0.0057998
1080.26	0.0067498
1089.91	0.0066998
1099.55	0.0105498
1109.2	0.0101298
1118.84	0.0058598
1128.49	0.0062798
1138.13	0.0041198
1147.78	0.0030498
1157.42	0.0022798
1167.07	0.0037298
1176.71	0.0055298
1186.36	0.0114998
1196	0.0219798
1205.64	0.0200198
1215.29	0.0165098
1224.93	0.0221898
1234.58	0.0462998
1244.22	0.0581298
1253.87	0.0340598
1263.51	0.0292298
1273.16	0.0275298
1282.8	0.0180398
1292.45	0.0141698
1302.09	0.0181598
1311.74	0.0340898
1321.38	0.0446098
1331.03	0.0493198
1340.67	0.10125
1350.32	0.10456
1359.96	0.0324798
1369.61	0.0157698
1379.25	0.0159998
1388.9	0.0195098
1398.54	0.0248198
1408.18	0.0218198
1417.83	0.0131198
1427.47	0.0118398
1437.12	0.0135998
1446.76	0.0196698
1456.41	0.0253398
1466.05	0.0390398
1475.7	0.0420698
1485.34	0.0324098
1494.99	0.0327498
1504.63	0.0381298
1514.28	0.0714298
1523.92	0.18826
1533.57	0.23534
1543.21	0.0860198
1552.86	0.0357198
1562.5	0.0287398
1572.15	0.0261298
1581.79	0.0192698
1591.44	0.0166998
1601.08	0.0210498
1610.73	0.0402298
1620.37	0.0677498
1630.01	0.0435398
1639.66	0.0160698
1649.3	0.0084298
1658.95	0.0053198
1668.59	0.0037898
1678.24	0.0033398
1687.88	0.0031098
1697.53	0.0025998
1707.17	0.0025998
1716.82	0.0026698
1726.46	0.0023198
1736.11	0.0022998
1745.75	0.0026798
1755.4	0.0037398
1765.04	0.0046198
1774.69	0.0038898
1784.33	0.0026098
1793.98	0.0018098
1803.62	0.0016098
1813.27	0.0018598
1822.91	0.0017698
1832.55	0.0015498
1842.2	0.0015098
1851.84	0.0013098
1861.49	0.0013698
1871.13	0.0012998
1880.78	0.0012198
1890.42	0.0011798
1900.07	0.0015798
1909.71	0.0012898
1919.36	0.0013398
1929	0.0012198
1938.65	0.0010144
1948.29	0.0012498
1957.94	0.0010798
1967.58	0.0010398
1977.23	0.0010698
1986.87	0.0012598
1996.52	0.0012798
2006.16	0.0011598
2015.81	0.0010171
2025.45	0.0010998
2035.1	0.0011098
2044.74	0.0009783
2054.38	0.0012098
2064.03	0.0010498
2073.67	0.0009873
2083.32	0.000762
2092.96	0.0010498
2102.61	0.0010398
2112.25	0.0008398
2121.9	0.0010598
2131.54	0.0011398
2141.19	0.0010898
2150.83	0.0010998
2160.48	0.0008887
2170.12	0.0008917
2179.77	0.0011698
2189.41	0.0008916
2199.06	0.0007979
2208.7	0.0010398
2218.35	0.0012198
2227.99	0.0011698
2237.64	0.0012498
2247.28	0.0013698
2256.92	0.0015598
2266.57	0.0011298
2276.21	0.0013498
2285.86	0.0011898
2295.5	0.0012098
2305.15	0.0014598
2314.79	0.0017598
2324.44	0.0011998
2334.08	0.0010598
2343.73	0.0010798
2353.37	0.0009006
2363.02	0.0010298
2372.66	0.0007282
2382.31	0.001012
2391.95	0.0010498
2401.6	0.0015298
2411.24	0.0013698
2420.89	0.0015698
2430.53	0.0014498
2440.18	0.0014798
2449.82	0.0012298
2459.47	0.0010798
2469.11	0.0013298
2478.75	0.0015498
2488.4	0.0013698
2498.04	0.0007998
2507.69	0.0014698
2517.33	0.0010034
2526.98	0.0014198
2536.62	0.0014998
2546.27	0.0016398
2555.91	0.0013398
2565.56	0.0012598
2575.2	0.0014198
2584.85	0.0012098
2594.49	0.0012098
2604.14	0.0012398
2613.78	0.0014298
2623.43	0.0013298
2633.07	0.0016498
2642.72	0.0010107
2652.36	0.0017398
2662.01	0.0015098
2671.65	0.0012698
2681.29	0.0016198
2690.94	0.0020398
2700.58	0.0010898
2710.23	0.0014798
2719.87	0.0016998
2729.52	0.0016098
2739.16	0.0017098
2748.81	0.0022598
2758.45	0.0020198
2768.1	0.0012698
2777.74	0.0018998
2787.39	0.0015698
2797.03	0.0017898
2806.68	0.0023798
2816.32	0.0016598
2825.97	0.0022598
2835.61	0.0032298
2845.26	0.0030898
2854.9	0.0040098
2864.55	0.0053498
2874.19	0.0074298
2883.84	0.0079798
2893.48	0.0070598
2903.12	0.0073398
2912.77	0.0077498
2922.41	0.0082598
2932.06	0.0088498
2941.7	0.0097098
2951.35	0.0080198
2960.99	0.0047598
2970.64	0.0039998
2980.28	0.0054098
2989.93	0.0073398
2999.57	0.0049198
3009.22	0.0029498
3018.86	0.0021198
3028.51	0.0022298
3038.15	0.0023698
3047.8	0.0023498
3057.44	0.0027198
3067.09	0.0025998
3076.73	0.0026598
3086.38	0.0030398
3096.02	0.0046098
3105.67	0.0052398
3115.31	0.0025498
3124.95	0.0013198
3134.6	0.0010598
3144.24	0.0013298
3153.89	0.0014998
3163.53	0.0012498
3173.18	0.0010898
3182.82	0.0012098
3192.47	0.0020798
3202.11	0.0011898
3211.76	0.0011198
3221.4	0.0010298
3231.05	0.0012498
3240.69	0.0007364
3250.34	0.0009044
3259.98	1.246e-05
3269.63	0.0007865
3279.27	0.0010698
3288.92	0.0007424
3298.56	0.000592
3308.21	0.0012098
3317.85	0.0010598
3327.49	0.0008476
3337.14	0.0016998
3346.78	0.0010198
3356.43	0.0021698
3366.07	0.0029398
3375.72	0.0047398
3385.36	0.0105598
3395.01	0.0275398
3404.65	0.0401498
3414.3	0.0244098
3423.94	0.0075798
3433.59	0.0038298
3443.23	0.0021398
3452.88	0.0024998
3462.52	0.0029498
3472.17	0.0026898
3481.81	0.0041598
3491.46	0.0058898
3501.1	0.0097098
3510.75	0.0156798
3520.39	0.0235698
3530.04	0.0245598
3539.68	0.0171098
3549.32	0.0092498
3558.97	0.0039498
3568.61	0.0024998
3578.26	0.0016998
3587.9	0.0009753
3597.55	0.0017498
3607.19	0.0010898
3616.84	0.0010598
3626.48	0.0008457
3636.13	0.0011898
3645.77	0.0005782
3655.42	0.0005538
3665.06	0.0008109
3674.71	0.0009349
3684.35	0.0009259
3694	0.0006486
3703.64	0.0007128
3713.29	6.616e-05
3722.93	0.0003356
3732.58	0.0010898
3742.22	0.0013498
3751.86	0.0009625
3761.51	0.0008804
3771.15	0.0007473
3780.8	7.201e-05
3790.44	0.0008878
3800.09	0.0006172
3809.73	0.0009129
3819.38	0.0006632
3829.02	0.0005928
3838.67	0.0011198
3848.31	0.0008216
3857.96	0.0004169
3867.6	0.0013998
3877.25	0.0006604
3886.89	0.0005255
3896.54	0.0008816
3906.18	0.0009889
3915.83	0.0006476
3925.47	0.0004669
3935.12	0.0008625
3944.76	0.0015198
3954.41	0.0010197
3964.05	0.0009405
3973.69	0.0014798
3983.34	0.0014798
3992.98	0.0010398
