Infrared Spectrum: Ethyl-m-hydroxy benzoate
Formula: C 9 H 10 O 3
CAS: 7781-98-8
State: gas
Origin: EPA-IR VAPOR PHASE LIBRARY
1/CM	ABSORBANCE
501.5	0.0016643
513.074	0.0016843
524.648	0.0020543
536.222	0.0027543
547.796	0.0022743
559.37	0.0013043
570.944	0.0008488
582.518	0.0006582
594.092	0.0004935
605.666	0.0004295
617.24	0.0004422
628.814	0.0004187
640.388	0.0005969
651.962	0.0009974
663.536	0.0031343
675.11	0.0059543
686.684	0.0039043
698.258	0.0014643
709.832	0.0010843
721.406	0.0016843
732.98	0.0048443
744.554	0.0162643
756.128	0.0248043
767.702	0.0126643
779.276	0.0062343
790.85	0.0052843
802.423	0.0065943
813.997	0.0071543
825.571	0.0055343
837.145	0.0034243
848.719	0.0028843
860.293	0.0040643
871.867	0.0053743
883.441	0.0051243
895.015	0.0046343
906.589	0.0056943
918.163	0.0123043
929.737	0.0162443
941.311	0.0069343
952.885	0.0031543
964.459	0.0028043
976.033	0.0030143
987.607	0.0042843
999.181	0.0086743
1010.76	0.0108143
1022.33	0.0155343
1033.9	0.0106843
1045.48	0.0060543
1057.05	0.0100543
1068.63	0.0228243
1080.2	0.0246243
1091.77	0.0429443
1103.35	0.0627143
1114.92	0.0229343
1126.49	0.0097343
1138.07	0.0094243
1149.64	0.0164443
1161.22	0.0316743
1172.79	0.0454643
1184.36	0.0436943
1195.94	0.0440943
1207.51	0.0534443
1219.09	0.0907943
1230.66	0.0760443
1242.23	0.0263243
1253.81	0.0175743
1265.38	0.0294143
1276.96	0.0904843
1288.53	0.141734
1300.1	0.0697243
1311.68	0.0343243
1323.25	0.0184443
1334.83	0.0098643
1346.4	0.0062643
1357.97	0.0074543
1369.55	0.0132843
1381.12	0.0074543
1392.7	0.0058843
1404.27	0.0056743
1415.84	0.0061243
1427.42	0.0094943
1438.99	0.0193943
1450.57	0.0290443
1462.14	0.0202243
1473.71	0.0156743
1485.29	0.0117343
1496.86	0.0077043
1508.44	0.0046343
1520.01	0.0033743
1531.58	0.0030643
1543.16	0.0033143
1554.73	0.0036943
1566.31	0.0056043
1577.88	0.0127143
1589.45	0.0232843
1601.03	0.0236543
1612.6	0.0155143
1624.18	0.0074943
1635.75	0.0034743
1647.32	0.0023643
1658.9	0.0022743
1670.47	0.0027643
1682.05	0.0039643
1693.62	0.0061043
1705.19	0.0081543
1716.77	0.0141943
1728.34	0.0446943
1739.92	0.0883143
1751.49	0.0525143
1763.06	0.0120643
1774.64	0.0062243
1786.21	0.0050943
1797.79	0.0033243
1809.36	0.0019943
1820.93	0.0014043
1832.51	0.0012143
1844.08	0.0012943
1855.66	0.0012843
1867.23	0.0013243
1878.8	0.0011543
1890.38	0.0007643
1901.95	0.0005623
1913.53	0.0005936
1925.1	0.0008953
1936.67	0.0011043
1948.25	0.0009338
1959.82	0.0008257
1971.4	0.0006894
1982.97	0.0005022
1994.54	0.0004062
2006.12	0.0003652
2017.69	0.0003139
2029.27	0.0003787
2040.84	0.0003923
2052.41	0.0004956
2063.99	0.0005688
2075.56	0.0006697
2087.14	0.0007766
2098.71	0.0006675
2110.28	0.0005042
2121.86	0.0004858
2133.43	0.0004758
2145.01	0.0005535
2156.58	0.0004582
2168.15	0.0002572
2179.73	0.0001934
2191.3	0.0001783
2202.88	0.0002211
2214.45	0.000238
2226.02	0.0002408
2237.6	0.0002273
2249.17	0.0001862
2260.74	0.0001921
2272.32	0.0001827
2283.89	0.0002123
2295.47	0.0002285
2307.04	0.0003665
2318.61	0.0005725
2330.19	0.000542
2341.76	0.0004136
2353.34	0.0003459
2364.91	0.0004159
2376.48	0.0005105
2388.06	0.0006062
2399.63	0.0006142
2411.21	0.0005389
2422.78	0.0004535
2434.35	0.0003842
2445.93	0.0003794
2457.5	0.0004528
2469.08	0.0004805
2480.65	0.0004662
2492.22	0.0004172
2503.8	0.0003511
2515.37	0.0002926
2526.95	0.0002984
2538.52	0.0002694
2550.09	0.0002203
2561.67	0.0002026
2573.24	0.000234
2584.82	0.000241
2596.39	0.0002873
2607.96	0.0003249
2619.54	0.0002862
2631.11	0.0003039
2642.69	0.000229
2654.26	0.0002099
2665.83	0.0001901
2677.41	0.00011587
2688.98	0.00010401
2700.56	9.636e-05
2712.13	0.000132
2723.7	0.0001422
2735.28	0.0002346
2746.85	0.0002565
2758.43	0.0003136
2770	0.0003747
2781.57	0.0004291
2793.15	0.0003633
2804.72	0.0004373
2816.3	0.0005268
2827.87	0.0006991
2839.44	0.0007403
2851.02	0.0009035
2862.59	0.0012443
2874.17	0.0020643
2885.74	0.0033443
2897.31	0.0036843
2908.89	0.0044243
2920.46	0.0046443
2932.04	0.0056643
2943.61	0.0086843
2955.18	0.0080143
2966.76	0.0092543
2978.33	0.0144243
2989.91	0.0166243
3001.48	0.0102743
3013.05	0.0067643
3024.63	0.0053343
3036.2	0.0041943
3047.78	0.0043643
3059.35	0.0046643
3070.92	0.0042043
3082.5	0.0041143
3094.07	0.0028343
3105.65	0.0017843
3117.22	0.0010343
3128.79	0.0005627
3140.37	0.0003644
3151.94	0.0002649
3163.52	0.0003153
3175.09	0.0002969
3186.66	0.0002568
3198.24	0.000238
3209.81	0.0002153
3221.39	0.00010218
3232.96	0.000132
3244.53	3.2944e-05
3256.11	9.78e-05
3267.68	5.268e-05
3279.26	3.875e-05
3290.83	3.31e-05
3302.4	5.966e-05
3313.98	0.0001338
3325.55	0.0002255
3337.13	0.0003155
3348.7	0.0003935
3360.27	0.0003448
3371.85	0.0003247
3383.42	0.0003443
3395	0.0002665
3406.57	0.0002449
3418.14	0.0003524
3429.72	0.0003885
3441.29	0.0005129
3452.86	0.0007637
3464.44	0.0009242
3476.01	0.0006896
3487.59	0.0003986
3499.16	0.0002166
3510.73	0.00010677
3522.31	7.588e-05
3533.88	4.803e-05
3545.46	4.836e-05
3557.03	9.995e-05
3568.6	0.0001619
3580.18	0.00010356
3591.75	0.0002646
3603.33	0.0004522
3614.9	0.0009065
3626.47	0.0026343
3638.05	0.0103143
3649.62	0.0254543
3661.2	0.0141343
3672.77	0.0020143
3684.34	0.0005615
3695.92	0.0003722
3707.49	0.0002227
3719.07	0.0001733
3730.64	0.00011219
3742.21	0.0001757
3753.79	0.0001567
3765.36	0.00012319
3776.94	0.0001469
3788.51	9.399e-05
3800.08	0.0001252
3811.66	0.0001741
3823.23	0.000241
3834.81	0.0002452
3846.38	0.0002688
3857.95	0.0003215
3869.53	0.0002609
3881.1	0.0002463
3892.68	0.000277
3904.25	0.0002322
3915.82	0.0002545
3927.4	0.0002186
3938.97	0.0002135
3950.55	0.0002965
3962.12	0.0003431
3973.69	0.0002142
3985.27	0.0001817
3996.84	0.00011391
