Infrared Spectrum: R-(-)-2-Phenylpropionic acid
Formula: C 9 H 10 O 2
CAS: 7782-26-5
State: gas
Origin: EPA-IR VAPOR PHASE LIBRARY
1/CM	ABSORBANCE
549.8	0.005252
559.445	0.006882
569.09	0.007682
578.734	0.007452
588.379	0.010372
598.024	0.011342
607.669	0.007902
617.313	0.005262
626.958	0.004222
636.603	0.003922
646.248	0.003292
655.893	0.002812
665.537	0.002452
675.182	0.002892
684.827	0.005552
694.472	0.008332
704.116	0.007472
713.761	0.005332
723.406	0.004552
733.051	0.003752
742.695	0.003642
752.34	0.003992
761.985	0.003002
771.63	0.002342
781.275	0.001712
790.919	0.001922
800.564	0.002462
810.209	0.002412
819.854	0.002042
829.498	0.001752
839.143	0.001962
848.788	0.001632
858.433	0.0012979
868.078	0.0010694
877.722	0.0007373
887.367	0.0012383
897.012	0.0009581
906.657	0.0011069
916.301	0.0012133
925.946	0.0007815
935.591	0.0010018
945.236	0.0010668
954.88	0.0014911
964.525	0.0013325
974.17	0.0010715
983.815	0.002312
993.46	0.002382
1003.1	0.002502
1012.75	0.002912
1022.39	0.004372
1032.04	0.005222
1041.68	0.005782
1051.33	0.007082
1060.97	0.008042
1070.62	0.008762
1080.26	0.009752
1089.91	0.009682
1099.55	0.010672
1109.2	0.011962
1118.84	0.014802
1128.49	0.017342
1138.13	0.016182
1147.78	0.011832
1157.42	0.009912
1167.07	0.008192
1176.71	0.006532
1186.36	0.005112
1196	0.004072
1205.64	0.003682
1215.29	0.002172
1224.93	0.003032
1234.58	0.002332
1244.22	0.002132
1253.87	0.002282
1263.51	0.002682
1273.16	0.002732
1282.8	0.002712
1292.45	0.002752
1302.09	0.003132
1311.74	0.003222
1321.38	0.003182
1331.03	0.003152
1340.67	0.003092
1350.32	0.003332
1359.96	0.003532
1369.61	0.003842
1379.25	0.003932
1388.9	0.003412
1398.54	0.002362
1408.18	0.001682
1417.83	0.001652
1427.47	0.001622
1437.12	0.001902
1446.76	0.003012
1456.41	0.003742
1466.05	0.003372
1475.7	0.002372
1485.34	0.002652
1494.99	0.003742
1504.63	0.002942
1514.28	0.0012655
1523.92	0.0011883
1533.57	0.0010263
1543.21	0.0009481
1552.86	0.0009726
1562.5	0.0009522
1572.15	0.0011349
1581.79	0.0014379
1591.44	0.001992
1601.08	0.001902
1610.73	0.001632
1620.37	0.0011854
1630.01	0.0011295
1639.66	0.0010553
1649.3	0.000947
1658.95	0.0009409
1668.59	0.0010728
1678.24	0.0011471
1687.88	0.0010915
1697.53	0.0011643
1707.17	0.001742
1716.82	0.002342
1726.46	0.004062
1736.11	0.006132
1745.75	0.008932
1755.4	0.015142
1765.04	0.027802
1774.69	0.033222
1784.33	0.021072
1793.98	0.011882
1803.62	0.007702
1813.27	0.004242
1822.91	0.002422
1832.55	0.001762
1842.2	0.0013895
1851.84	0.0012317
1861.49	0.0013298
1871.13	0.0013248
1880.78	0.0013267
1890.42	0.0011738
1900.07	0.0009916
1909.71	0.0008853
1919.36	0.0009999
1929	0.001029
1938.65	0.0011664
1948.29	0.0012062
1957.94	0.0011188
1967.58	0.0009713
1977.23	0.0009091
1986.87	0.0008067
1996.52	0.0007083
2006.16	0.0007681
2015.81	0.0007798
2025.45	0.0007093
2035.1	0.00058598
2044.74	0.0008008
2054.38	0.0007119
2064.03	0.0005105
2073.67	0.00067166
2083.32	0.0006644
2092.96	0.000591035
2102.61	0.00062305
2112.25	0.000722
2121.9	0.0007196
2131.54	0.00066366
2141.19	0.00067939
2150.83	0.0007402
2160.48	0.00066427
2170.12	0.0006989
2179.77	0.000805
2189.41	0.000699
2199.06	0.0008077
2208.7	0.000721
2218.35	0.0006648
2227.99	0.0007984
2237.64	0.0007453
2247.28	0.00063683
2256.92	0.00062003
2266.57	0.0007592
2276.21	0.00067591
2285.86	0.0007342
2295.5	0.0007711
2305.15	0.0007929
2314.79	0.00068364
2324.44	0.0008484
2334.08	0.0007836
2343.73	0.0008289
2353.37	0.0007525
2363.02	0.00062453
2372.66	0.0008403
2382.31	0.0007728
2391.95	0.00065376
2401.6	0.0007219
2411.24	0.00066786
2420.89	0.000627
2430.53	0.0005809
2440.18	0.0007475
2449.82	0.00061196
2459.47	0.0006965
2469.11	0.00066007
2478.75	0.00060736
2488.4	0.00066926
2498.04	0.0007651
2507.69	0.00066323
2517.33	0.0007601
2526.98	0.00061609
2536.62	0.00065652
2546.27	0.00066488
2555.91	0.0005388
2565.56	0.00066809
2575.2	0.00060265
2584.85	0.0005276
2594.49	0.0005748
2604.14	0.0006712
2613.78	0.0008932
2623.43	0.0006955
2633.07	0.00058628
2642.72	0.00060686
2652.36	0.00069185
2662.01	0.000597154
2671.65	0.00068548
2681.29	0.00064186
2690.94	0.000598702
2700.58	0.00059015
2710.23	0.00068958
2719.87	0.000423
2729.52	0.000468
2739.16	0.00062107
2748.81	0.00063662
2758.45	0.000482
2768.1	0.0005565
2777.74	0.0005244
2787.39	0.0007516
2797.03	0.000487
2806.68	0.0007818
2816.32	0.000479
2825.97	0.0007855
2835.61	0.0006995
2845.26	0.00063389
2854.9	0.0008435
2864.55	0.0007779
2874.19	0.0009368
2883.84	0.0014498
2893.48	0.002042
2903.12	0.0015712
2912.77	0.0015873
2922.41	0.001632
2932.06	0.002332
2941.7	0.003032
2951.35	0.003242
2960.99	0.002272
2970.64	0.002542
2980.28	0.004712
2989.93	0.006162
2999.57	0.004072
3009.22	0.002172
3018.86	0.002292
3028.51	0.003392
3038.15	0.004202
3047.8	0.003312
3057.44	0.003342
3067.09	0.004322
3076.73	0.004492
3086.38	0.003432
3096.02	0.002452
3105.67	0.002022
3115.31	0.0013478
3124.95	0.0008391
3134.6	0.0007941
3144.24	0.000466
3153.89	0.0007122
3163.53	0.00058934
3173.18	0.00060755
3182.82	0.0008453
3192.47	0.0005313
3202.11	0.0005508
3211.76	0.000202
3221.4	0.000298
3231.05	0.000489
3240.69	0.000451
3250.34	0.00063136
3259.98	0.000428
3269.63	0.000266
3279.27	0.00039
3288.92	0.000402
3298.56	0.0005302
3308.21	0.000372
3317.85	0.000438
3327.49	0.00062333
3337.14	0.00068776
3346.78	0.000298
3356.43	0.000298
3366.07	0.000333
3375.72	0.00061373
3385.36	0.000485
3395.01	0.000105
3404.65	0.0005565
3414.3	0.0005105
3423.94	0.000344
3433.59	0.000445
3443.23	0.0008034
3452.88	0.000284
3462.52	0.000456
3472.17	0.0004994
3481.81	0.000547
3491.46	0.00060224
3501.1	0.0007571
3510.75	0.000482
3520.39	0.000717
3530.04	0.001015
3539.68	0.0012055
3549.32	0.0013347
3558.97	0.004372
3568.61	0.011152
3578.26	0.010942
3587.9	0.003902
3597.55	0.0015173
3607.19	0.0009365
3616.84	0.000416
3626.48	0.00060655
3636.13	0.0005524
3645.77	0.000328
3655.42	0.000267
3665.06	0.000297
3674.71	0.000403
3684.35	0.000475
3694	0.0005601
3703.64	0.000478
3713.29	0.000251
3722.93	0.000247
3732.58	0.000324
3742.22	0.000202
3751.86	0.000374
3761.51	0.000487
3771.15	0.000366
3780.8	0.00034
3790.44	0.00023
3800.09	0
3809.73	0.000226
3819.38	0.000355
3829.02	0.000286
3838.67	0.000253
3848.31	0.0005084
3857.96	0.000439
3867.6	0.0005062
3877.25	0.000232
3886.89	0.000272
3896.54	0.0005719
3906.18	0.000267
3915.83	0.000106
3925.47	0.000351
3935.12	0.0005785
3944.76	0.000337
3954.41	0.000429
3964.05	0.000198
3973.69	0.000367
3983.34	0.0005142
3992.98	0.000274
