Infrared Spectrum: S-(+)-2-Phenylpropionic acid
Formula: C 9 H 10 O 2
CAS: 7782-24-3
State: gas
Origin: EPA-IR VAPOR PHASE LIBRARY
1/CM	ABSORBANCE
549.8	0.009507
559.445	0.012287
569.09	0.012777
578.734	0.013147
588.379	0.017857
598.024	0.020207
607.669	0.013877
617.313	0.008317
626.958	0.006967
636.603	0.006457
646.248	0.005647
655.893	0.003947
665.537	0.003267
675.182	0.004297
684.827	0.008947
694.472	0.013987
704.116	0.012027
713.761	0.008797
723.406	0.007387
733.051	0.005567
742.695	0.006107
752.34	0.005587
761.985	0.004537
771.63	0.003137
781.275	0.002427
790.919	0.002117
800.564	0.002707
810.209	0.002557
819.854	0.001907
829.498	0.002247
839.143	0.002537
848.788	0.002237
858.433	0.0011321
868.078	0.0011077
877.722	0.0008496
887.367	0.000987
897.012	0.0012573
906.657	0.001347
916.301	0.0010765
925.946	0.0012262
935.591	0.000701
945.236	0.000983
954.88	0.0010959
964.525	0.001467
974.17	0.002307
983.815	0.002987
993.46	0.003067
1003.1	0.003667
1012.75	0.004067
1022.39	0.006377
1032.04	0.007697
1041.68	0.008337
1051.33	0.011657
1060.97	0.013177
1070.62	0.013707
1080.26	0.015107
1089.91	0.016117
1099.55	0.016487
1109.2	0.021707
1118.84	0.025987
1128.49	0.031537
1138.13	0.029587
1147.78	0.020167
1157.42	0.016547
1167.07	0.012747
1176.71	0.008777
1186.36	0.007047
1196	0.005687
1205.64	0.004077
1215.29	0.003877
1224.93	0.003117
1234.58	0.002517
1244.22	0.002617
1253.87	0.002497
1263.51	0.002397
1273.16	0.003807
1282.8	0.003667
1292.45	0.004317
1302.09	0.004767
1311.74	0.005137
1321.38	0.004997
1331.03	0.004807
1340.67	0.004677
1350.32	0.005267
1359.96	0.005927
1369.61	0.006287
1379.25	0.006177
1388.9	0.005427
1398.54	0.003477
1408.18	0.002557
1417.83	0.002207
1427.47	0.001997
1437.12	0.002847
1446.76	0.004617
1456.41	0.006307
1466.05	0.005297
1475.7	0.003627
1485.34	0.004267
1494.99	0.006147
1504.63	0.004567
1514.28	0.001687
1523.92	0.0013246
1533.57	0.0012821
1543.21	0.0012008
1552.86	0.0011059
1562.5	0.0011909
1572.15	0.0012542
1581.79	0.001917
1591.44	0.002967
1601.08	0.003127
1610.73	0.002197
1620.37	0.001367
1630.01	0.0011819
1639.66	0.0011752
1649.3	0.0011658
1658.95	0.0012931
1668.59	0.001347
1678.24	0.0013121
1687.88	0.001357
1697.53	0.001747
1707.17	0.002287
1716.82	0.003577
1726.46	0.006207
1736.11	0.010097
1745.75	0.015477
1755.4	0.027107
1765.04	0.050247
1774.69	0.060227
1784.33	0.037897
1793.98	0.021017
1803.62	0.013447
1813.27	0.006937
1822.91	0.003857
1832.55	0.002357
1842.2	0.001827
1851.84	0.001667
1861.49	0.001467
1871.13	0.001707
1880.78	0.001807
1890.42	0.0012838
1900.07	0.001099
1909.71	0.00101
1919.36	0.001045
1929	0.0012003
1938.65	0.001407
1948.29	0.001557
1957.94	0.001191
1967.58	0.001049
1977.23	0.0008198
1986.87	0.0008648
1996.52	0.0008162
2006.16	0.0008083
2015.81	0.000702
2025.45	0.0005619
2035.1	0.0006631
2044.74	0.0007003
2054.38	0.0005697
2064.03	0.0007034
2073.67	0.000553
2083.32	0.0006441
2092.96	0.000555
2102.61	0.0005503
2112.25	0.0006948
2121.9	0.0006579
2131.54	0.0007767
2141.19	0.0007038
2150.83	0.0007709
2160.48	0.000712
2170.12	0.0007349
2179.77	0.0007684
2189.41	0.0008707
2199.06	0.0007319
2208.7	0.0007407
2218.35	0.000692
2227.99	0.0008657
2237.64	0.0007171
2247.28	0.00065
2256.92	0.0008615
2266.57	0.0008325
2276.21	0.0009932
2285.86	0.0007257
2295.5	0.0006103
2305.15	0.0006253
2314.79	0.0008372
2324.44	0.0007784
2334.08	0.000892
2343.73	0.0008797
2353.37	0.0007332
2363.02	0.0008021
2372.66	0.0006829
2382.31	0.0008234
2391.95	0.0007666
2401.6	0.0006684
2411.24	0.0007202
2420.89	0.0005785
2430.53	0.0008228
2440.18	0.0007774
2449.82	0.0007606
2459.47	0.0006563
2469.11	0.0007147
2478.75	0.000682
2488.4	0.0008768
2498.04	0.0008113
2507.69	0.0007939
2517.33	0.0007787
2526.98	0.0006433
2536.62	0.000635
2546.27	0.0004949
2555.91	0.0005216
2565.56	0.0006251
2575.2	0.0007143
2584.85	0.0007792
2594.49	0.0007407
2604.14	0.000692
2613.78	0.0007586
2623.43	0.000478
2633.07	0.0007409
2642.72	0.0007271
2652.36	0.0006412
2662.01	0.0006247
2671.65	0.00035853
2681.29	0.0005114
2690.94	0.000511
2700.58	0.0005198
2710.23	0.0004429
2719.87	0.000614
2729.52	0.0007559
2739.16	0.0004889
2748.81	0.0005222
2758.45	0.0006681
2768.1	0.0006237
2777.74	0.0007312
2787.39	0.0006289
2797.03	0.0005111
2806.68	0.0006429
2816.32	0.0007804
2825.97	0.0009122
2835.61	0.0008887
2845.26	0.0010241
2854.9	0.0008518
2864.55	0.0011763
2874.19	0.001757
2883.84	0.002737
2893.48	0.002897
2903.12	0.002667
2912.77	0.002427
2922.41	0.002847
2932.06	0.003767
2941.7	0.005457
2951.35	0.005447
2960.99	0.003707
2970.64	0.003587
2980.28	0.007937
2989.93	0.010677
2999.57	0.006957
3009.22	0.003557
3018.86	0.004047
3028.51	0.005967
3038.15	0.007017
3047.8	0.006067
3057.44	0.005137
3067.09	0.007777
3076.73	0.008027
3086.38	0.005707
3096.02	0.004477
3105.67	0.002887
3115.31	0.002287
3124.95	0.001302
3134.6	0.0009132
3144.24	0.0011134
3153.89	0.0010501
3163.53	0.0009168
3173.18	0.0009213
3182.82	0.0006116
3192.47	0.0006232
3202.11	0.0008515
3211.76	0.0006328
3221.4	0.0008725
3231.05	0.0007655
3240.69	0.0009056
3250.34	0.0007915
3259.98	0.000576
3269.63	0.000121
3279.27	0.0007881
3288.92	0.0007453
3298.56	0.0005909
3308.21	0.00034239
3317.85	0.0004749
3327.49	0.0007706
3337.14	0.0002833
3346.78	0.0004549
3356.43	0.0007184
3366.07	0.000616
3375.72	0.0004004
3385.36	0.0006699
3395.01	0.0005441
3404.65	0.0007102
3414.3	0.000327534
3423.94	0.0006784
3433.59	0.0005735
3443.23	0.00086
3452.88	0.0006539
3462.52	0.0006633
3472.17	0.000693
3481.81	0.0006404
3491.46	0.00039193
3501.1	0.0011317
3510.75	0.0010793
3520.39	0.0008784
3530.04	0.001557
3539.68	0.002147
3549.32	0.002847
3558.97	0.007997
3568.61	0.020607
3578.26	0.020277
3587.9	0.006697
3597.55	0.002177
3607.19	0.001567
3616.84	0.0011295
3626.48	0.000704
3636.13	0.0005344
3645.77	0.0005383
3655.42	0.000828
3665.06	0.0008111
3674.71	0.0006949
3684.35	0.00037364
3694	0.0006469
3703.64	0.0006971
3713.29	0.000989
3722.93	0.00040533
3732.58	0.00037576
3742.22	0.0006339
3751.86	0.00038589
3761.51	0.000213
3771.15	0.0006669
3780.8	0.00034118
3790.44	0.0007804
3800.09	0.0004783
3809.73	0.0005929
3819.38	0.00037532
3829.02	0.0005778
3838.67	0.0005298
3848.31	0.0005614
3857.96	0.0007909
3867.6	0.00040263
3877.25	0.0005009
3886.89	0.00036228
3896.54	0.00032475
3906.18	0.0004896
3915.83	0.0006135
3925.47	0.0007226
3935.12	0.00040545
3944.76	0.00035591
3954.41	0.0008591
3964.05	0.0008474
3973.69	0.0006395
3983.34	0.0006746
3992.98	0.00046
