Infrared Spectrum: MAGNESIUM FLUORIDE
Formula: Mg F2
CAS: 7783-40-6
State: SOLID (MINERAL OIL MULL)
Class: COBLENTZ
Instrument: Not specified, most likely a prism, grating, or hybrid spectrometer.
Sampling: TRANSMISSION
Resolution: 4
Origin: WYANDOTTE CHEMICALS CORP., WYANDOTTE, MICHIGAN, USA
MICROMETERS	TRANSMITTANCE
2.027	0.849
2.0679	0.849
2.10879	0.852
2.14969	0.873
2.19059	0.873
2.23148	0.868
2.27238	0.856
2.31328	0.851
2.35418	0.849
2.39507	0.849
2.43597	0.849
2.47687	0.851
2.51776	0.852
2.55866	0.861
2.59956	0.864
2.64045	0.87
2.68135	0.868
2.72225	0.829
2.76315	0.75
2.80404	0.663
2.84494	0.629
2.88584	0.605
2.92673	0.579
2.96763	0.565
3.00853	0.56
3.04942	0.555
3.09032	0.56
3.13122	0.579
3.17212	0.6
3.21301	0.627
3.25391	0.654
3.29481	0.675
3.3357	0.608
3.3766	0.307
3.4175	0.099
3.45839	0.073
3.49929	0.059
3.54019	0.054
3.58108	0.268
3.62198	0.529
3.66288	0.649
3.70378	0.685
3.74467	0.711
3.78557	0.729
3.82647	0.752
3.86736	0.774
3.90826	0.794
3.94916	0.823
3.99005	0.842
4.03095	0.858
4.07185	0.871
4.11275	0.873
4.15364	0.876
4.19454	0.887
4.23544	0.89
4.27633	0.888
4.31723	0.897
4.35813	0.9
4.39902	0.919
4.43992	0.926
4.48082	0.924
4.52172	0.926
4.56261	0.928
4.60351	0.929
4.64441	0.931
4.6853	0.931
4.7262	0.938
4.7671	0.943
4.80799	0.948
4.84889	0.948
4.88979	0.948
4.93069	0.948
4.97158	0.948
5.01248	0.95
5.05338	0.95
5.09427	0.95
5.13517	0.95
5.17607	0.95
5.21696	0.95
5.25786	0.95
5.29876	0.952
5.33965	0.952
5.38055	0.953
5.42145	0.953
5.46235	0.95
5.50324	0.948
5.54414	0.948
5.58504	0.947
5.62593	0.948
5.66683	0.943
5.70773	0.931
5.74862	0.919
5.78952	0.89
5.83042	0.851
5.87132	0.83
5.91221	0.796
5.95311	0.75
5.99401	0.719
6.0349	0.7
6.0758	0.707
6.1167	0.705
6.15759	0.716
6.19849	0.723
6.23939	0.741
6.28029	0.731
6.32118	0.728
6.36208	0.716
6.40298	0.702
6.44387	0.683
6.48477	0.67
6.52567	0.649
6.56656	0.63
6.60746	0.598
6.64836	0.579
6.68925	0.55
6.73015	0.49
6.77105	0.36
6.81195	0.124
6.85284	0.099
6.89374	0.129
6.93464	0.22
6.97553	0.353
7.01643	0.49
7.05733	0.547
7.09822	0.579
7.13912	0.6
7.18002	0.605
7.22092	0.492
7.26181	0.271
7.30271	0.347
7.34361	0.478
7.3845	0.61
7.4254	0.646
7.4663	0.67
7.50719	0.692
7.54809	0.724
7.58899	0.733
7.62989	0.74
7.67078	0.741
7.71168	0.743
7.75258	0.745
7.79347	0.752
7.83437	0.757
7.87527	0.76
7.91616	0.762
7.95706	0.765
7.99796	0.764
8.03885	0.762
8.07975	0.752
8.12065	0.747
8.16155	0.741
8.20244	0.736
8.24334	0.736
8.28424	0.733
8.32513	0.724
8.36603	0.728
8.40693	0.735
8.44782	0.743
8.48872	0.743
8.52962	0.738
8.57052	0.729
8.61141	0.726
8.65231	0.723
8.69321	0.719
8.7341	0.721
8.775	0.726
8.8159	0.726
8.85679	0.728
8.89769	0.728
8.93859	0.724
8.97949	0.719
9.02038	0.714
9.06128	0.711
9.10218	0.711
9.14307	0.712
9.18397	0.712
9.22487	0.714
9.26576	0.716
9.30666	0.714
9.34756	0.714
9.38846	0.714
9.42935	0.716
9.47025	0.719
9.51115	0.716
9.55204	0.712
9.59294	0.7
9.63384	0.695
9.67473	0.682
9.71563	0.67
9.75653	0.649
9.79742	0.635
9.83832	0.61
9.87922	0.579
9.92012	0.557
9.96101	0.543
10.0019	0.543
10.0428	0.555
10.0837	0.572
10.1246	0.591
10.1655	0.594
10.2064	0.603
10.2473	0.613
10.2882	0.62
10.3291	0.625
10.37	0.627
10.4109	0.63
10.4518	0.63
10.4927	0.634
10.5336	0.649
10.5745	0.652
10.6154	0.651
10.6563	0.649
10.6972	0.649
10.7381	0.649
10.779	0.649
10.8198	0.649
10.8607	0.654
10.9016	0.658
10.9425	0.659
10.9834	0.663
11.0243	0.666
11.0652	0.668
11.1061	0.668
11.147	0.663
11.1879	0.656
11.2288	0.646
11.2697	0.639
11.3106	0.634
11.3515	0.627
11.3924	0.627
11.4333	0.625
11.4742	0.623
11.5151	0.627
11.556	0.627
11.5969	0.625
11.6378	0.629
11.6787	0.632
11.7196	0.632
11.7605	0.625
11.8014	0.622
11.8423	0.615
11.8832	0.613
11.9241	0.61
11.965	0.61
12.0059	0.606
12.0468	0.6
12.0877	0.596
12.1286	0.594
12.1694	0.589
12.2103	0.586
12.2512	0.582
12.2921	0.577
12.333	0.576
12.3739	0.569
12.4148	0.564
12.4557	0.555
12.4966	0.553
12.5375	0.548
12.5784	0.547
12.6193	0.538
12.6602	0.536
12.7011	0.528
12.742	0.521
12.7829	0.507
12.8238	0.49
12.8647	0.482
12.9056	0.475
12.9465	0.459
12.9874	0.449
13.0283	0.441
13.0692	0.437
13.1101	0.429
13.151	0.422
13.1919	0.418
13.2328	0.411
13.2737	0.398
13.3146	0.394
13.3555	0.389
13.3964	0.389
13.4373	0.389
13.4782	0.386
13.519	0.384
13.5599	0.386
13.6008	0.388
13.6417	0.388
13.6826	0.388
13.7235	0.393
13.7644	0.389
13.8053	0.386
13.8462	0.386
13.8871	0.386
13.928	0.379
13.9689	0.382
14.0098	0.396
14.0507	0.42
14.0916	0.427
14.1325	0.43
14.1734	0.447
14.2143	0.451
14.2552	0.454
14.2961	0.456
14.337	0.459
14.3779	0.463
14.4188	0.468
14.4597	0.468
14.5006	0.475
14.5415	0.475
14.5824	0.476
14.6233	0.478
14.6642	0.482
14.7051	0.482
14.746	0.483
14.7869	0.485
14.8278	0.492
14.8686	0.495
14.9095	0.499
14.9504	0.497
14.9913	0.495
15.0322	0.497
15.0731	0.504
15.114	0.507
15.1549	0.504
15.1958	0.504
15.2367	0.5
15.2776	0.5
15.3185	0.5
15.3594	0.504
15.4003	0.505
15.4412	0.509
15.4821	0.512
15.523	0.521
15.5639	0.523
15.6048	0.523
15.6457	0.524
15.6866	0.528
15.7275	0.531
15.7684	0.533
15.8093	0.536
15.8502	0.538
15.8911	0.557
15.932	0.56
15.9729	0.567
