Infrared Spectrum: AMMONIUM SULFATE
Formula: ( N H4)2 S O4
CAS: 7783-20-2
State: SOLID (NUJOL MULL)
Class: COBLENTZ
Instrument: Not specified, most likely a prism, grating, or hybrid spectrometer.
Sampling: TRANSMISSION
Resolution: 4
Origin: MELLON INSTITUTE
MICROMETERS	TRANSMITTANCE
2.041	0.923
2.08095	0.921
2.12091	0.921
2.16086	0.919
2.20081	0.918
2.24077	0.916
2.28072	0.914
2.32067	0.914
2.36062	0.914
2.40058	0.916
2.44053	0.916
2.48048	0.918
2.52044	0.921
2.56039	0.923
2.60034	0.924
2.6403	0.924
2.68025	0.929
2.7202	0.929
2.76016	0.928
2.80011	0.924
2.84006	0.914
2.88001	0.903
2.91997	0.881
2.95992	0.857
2.99987	0.775
3.03983	0.655
3.07978	0.503
3.11973	0.356
3.15969	0.27
3.19964	0.285
3.23959	0.284
3.27955	0.279
3.3195	0.352
3.35945	0.322
3.3994	0.359
3.43936	0.438
3.47931	0.446
3.51926	0.6
3.55922	0.714
3.59917	0.809
3.63912	0.841
3.67908	0.861
3.71903	0.874
3.75898	0.889
3.79894	0.901
3.83889	0.911
3.87884	0.921
3.91879	0.924
3.95875	0.928
3.9987	0.931
4.03865	0.931
4.07861	0.933
4.11856	0.936
4.15851	0.936
4.19847	0.938
4.23842	0.938
4.27837	0.938
4.31833	0.943
4.35828	0.944
4.39823	0.946
4.43818	0.944
4.47814	0.941
4.51809	0.936
4.55804	0.934
4.598	0.934
4.63795	0.936
4.6779	0.934
4.71786	0.933
4.75781	0.933
4.79776	0.931
4.83772	0.928
4.87767	0.926
4.91762	0.923
4.95757	0.921
4.99753	0.918
5.03748	0.918
5.07743	0.919
5.11739	0.923
5.15734	0.924
5.19729	0.929
5.23725	0.931
5.2772	0.931
5.31715	0.931
5.35711	0.933
5.39706	0.933
5.43701	0.933
5.47696	0.933
5.51692	0.931
5.55687	0.929
5.59682	0.923
5.63678	0.914
5.67673	0.908
5.71668	0.904
5.75664	0.901
5.79659	0.903
5.83654	0.908
5.8765	0.913
5.91645	0.921
5.9564	0.929
5.99635	0.934
6.03631	0.941
6.07626	0.946
6.11621	0.951
6.15617	0.953
6.19612	0.956
6.23607	0.956
6.27603	0.956
6.31598	0.956
6.35593	0.954
6.39589	0.953
6.43584	0.954
6.47579	0.953
6.51574	0.949
6.5557	0.946
6.59565	0.949
6.6356	0.943
6.67556	0.933
6.71551	0.914
6.75546	0.876
6.79542	0.777
6.83537	0.71
6.87532	0.623
6.91528	0.57
6.95523	0.56
6.99518	0.496
7.03513	0.352
7.07509	0.2
7.11504	0.19
7.15499	0.476
7.19495	0.628
7.2349	0.732
7.27485	0.804
7.31481	0.851
7.35476	0.887
7.39471	0.909
7.43467	0.916
7.47462	0.926
7.51457	0.934
7.55452	0.939
7.59448	0.943
7.63443	0.946
7.67438	0.951
7.71434	0.954
7.75429	0.958
7.79424	0.959
7.8342	0.961
7.87415	0.961
7.9141	0.961
7.95406	0.961
7.99401	0.961
8.03396	0.961
8.07391	0.959
8.11387	0.956
8.15382	0.953
8.19377	0.949
8.23373	0.943
8.27368	0.933
8.31363	0.916
8.35359	0.887
8.39354	0.811
8.43349	0.719
8.47345	0.632
8.5134	0.553
8.55335	0.503
8.5933	0.468
8.63326	0.436
8.67321	0.397
8.71316	0.354
8.75312	0.319
8.79307	0.279
8.83302	0.23
8.87298	0.188
8.91293	0.172
8.95288	0.162
8.99284	0.157
9.03279	0.15
9.07274	0.15
9.11269	0.212
9.15265	0.289
9.1926	0.352
9.23255	0.413
9.27251	0.463
9.31246	0.503
9.35241	0.55
9.39237	0.596
9.43232	0.633
9.47227	0.69
9.51223	0.74
9.55218	0.774
9.59213	0.802
9.63208	0.817
9.67204	0.834
9.71199	0.847
9.75194	0.867
9.7919	0.882
9.83185	0.901
9.8718	0.906
9.91176	0.916
9.95171	0.926
9.99166	0.933
10.0316	0.936
10.0716	0.936
10.1115	0.941
10.1515	0.944
10.1914	0.948
10.2314	0.948
10.2713	0.951
10.3113	0.953
10.3512	0.958
10.3912	0.958
10.4311	0.959
10.4711	0.961
10.5111	0.961
10.551	0.964
10.591	0.966
10.6309	0.973
10.6709	0.974
10.7108	0.974
10.7508	0.976
10.7907	0.978
10.8307	0.983
10.8706	0.983
10.9106	0.984
10.9505	0.984
10.9905	0.986
11.0304	0.986
11.0704	0.986
11.1103	0.989
11.1503	0.993
11.1903	0.994
11.2302	0.996
11.2702	1.001
11.3101	1.001
11.3501	1.003
11.39	1.003
11.43	1.003
11.4699	1.003
11.5099	1.003
11.5498	1.003
11.5898	1.005
11.6297	1.003
11.6697	1.005
11.7096	1.005
11.7496	1.006
11.7896	1.005
11.8295	1.005
11.8695	1.005
11.9094	1.006
11.9494	1.005
11.9893	1.003
12.0293	1.003
12.0692	1.003
12.1092	1.003
12.1491	1.005
12.1891	1.005
12.229	1.005
12.269	1.003
12.3089	1.005
12.3489	1.003
12.3888	1.001
12.4288	1.001
12.4688	1
12.5087	1
12.5487	1
12.5886	0.998
12.6286	0.998
12.6685	0.996
12.7085	0.994
12.7484	0.989
12.7884	0.986
12.8283	0.984
12.8683	0.981
12.9082	0.979
12.9482	0.976
12.9881	0.974
13.0281	0.976
13.068	0.973
13.108	0.971
13.148	0.968
13.1879	0.964
13.2279	0.961
13.2678	0.959
13.3078	0.956
13.3477	0.953
13.3877	0.953
13.4276	0.951
13.4676	0.946
13.5075	0.943
13.5475	0.938
13.5874	0.934
13.6274	0.931
13.6673	0.926
13.7073	0.924
13.7473	0.919
13.7872	0.914
13.8272	0.909
13.8671	0.903
13.9071	0.903
13.947	0.901
13.987	0.901
14.0269	0.897
14.0669	0.896
14.1068	0.891
14.1468	0.884
14.1867	0.882
14.2267	0.877
14.2666	0.874
14.3066	0.867
14.3465	0.859
14.3865	0.854
14.4265	0.846
14.4664	0.839
14.5064	0.836
14.5463	0.831
14.5863	0.826
14.6262	0.822
14.6662	0.817
14.7061	0.811
14.7461	0.806
14.786	0.802
14.826	0.804
14.8659	0.804
14.9059	0.799
14.9458	0.794
14.9858	0.79
15.0257	0.787
15.0657	0.784
15.1057	0.78
15.1456	0.775
15.1856	0.77
15.2255	0.765
15.2655	0.76
15.3054	0.754
15.3454	0.745
15.3853	0.735
15.4253	0.724
15.4652	0.717
15.5052	0.714
15.5451	0.715
15.5851	0.717
15.625	0.722
15.665	0.724
15.705	0.73
15.7449	0.734
15.7849	0.735
15.8248	0.734
15.8648	0.735
15.9047	0.737
15.9447	0.74
15.9846	0.747
