Infrared Spectrum: ALUMINUM FLUORIDE
Formula: Al F3
CAS: 7784-18-1
State: SOLID (MINERAL OIL MULL)
Class: COBLENTZ
Instrument: Not specified, most likely a prism, grating, or hybrid spectrometer.
Sampling: TRANSMISSION
Resolution: 4
Origin: WYANDOTTE CHEMICALS CORP., WYANDOTTE, MICHIGAN, USA
MICROMETERS	TRANSMITTANCE
2.027	0.73
2.06798	0.734
2.10895	0.739
2.14993	0.742
2.19091	0.741
2.23188	0.729
2.27286	0.722
2.31384	0.717
2.35481	0.712
2.39579	0.71
2.43677	0.698
2.47774	0.684
2.51872	0.662
2.5597	0.645
2.60067	0.613
2.64165	0.584
2.68263	0.529
2.7236	0.461
2.76458	0.398
2.80556	0.308
2.84653	0.229
2.88751	0.18
2.92849	0.137
2.96946	0.109
3.01044	0.083
3.05142	0.068
3.09239	0.056
3.13337	0.049
3.17435	0.042
3.21532	0.04
3.2563	0.037
3.29728	0.037
3.33825	0.037
3.37923	0.034
3.42021	0.034
3.46118	0.037
3.50216	0.044
3.54314	0.206
3.58411	0.328
3.62509	0.395
3.66607	0.442
3.70704	0.483
3.74802	0.509
3.78899	0.507
3.82997	0.48
3.87095	0.453
3.91192	0.432
3.9529	0.434
3.99388	0.453
4.03485	0.5
4.07583	0.551
4.11681	0.614
4.15778	0.652
4.19876	0.683
4.23974	0.715
4.28071	0.732
4.32169	0.761
4.36267	0.781
4.40364	0.822
4.44462	0.839
4.4856	0.853
4.52657	0.863
4.56755	0.867
4.60853	0.87
4.6495	0.879
4.69048	0.892
4.73146	0.904
4.77243	0.913
4.81341	0.928
4.85439	0.928
4.89536	0.931
4.93634	0.931
4.97732	0.93
5.01829	0.93
5.05927	0.933
5.10025	0.94
5.14122	0.938
5.1822	0.933
5.22318	0.93
5.26415	0.926
5.30513	0.921
5.34611	0.913
5.38708	0.899
5.42806	0.885
5.46904	0.867
5.51001	0.848
5.55099	0.819
5.59197	0.8
5.63294	0.761
5.67392	0.712
5.7149	0.642
5.75587	0.522
5.79685	0.371
5.83783	0.258
5.8788	0.229
5.91978	0.243
5.96076	0.299
6.00173	0.354
6.04271	0.419
6.08369	0.449
6.12466	0.477
6.16564	0.497
6.20662	0.511
6.24759	0.541
6.28857	0.563
6.32955	0.58
6.37052	0.586
6.4115	0.597
6.45248	0.599
6.49345	0.601
6.53443	0.603
6.57541	0.601
6.61638	0.601
6.65736	0.597
6.69834	0.589
6.73931	0.522
6.78029	0.333
6.82127	0.264
6.86224	0.299
6.90322	0.386
6.9442	0.483
6.98517	0.567
7.02615	0.606
7.06712	0.613
7.1081	0.618
7.14908	0.621
7.19005	0.592
7.23103	0.459
7.27201	0.434
7.31298	0.511
7.35396	0.582
7.39494	0.601
7.43591	0.599
7.47689	0.614
7.51787	0.63
7.55884	0.642
7.59982	0.649
7.6408	0.652
7.68177	0.652
7.72275	0.654
7.76373	0.652
7.8047	0.657
7.84568	0.66
7.88666	0.659
7.92763	0.66
7.96861	0.659
8.00959	0.652
8.05056	0.649
8.09154	0.638
8.13252	0.63
8.17349	0.621
8.21447	0.618
8.25545	0.613
8.29642	0.618
8.3374	0.638
8.37838	0.652
8.41935	0.654
8.46033	0.652
8.50131	0.657
8.54228	0.66
8.58326	0.662
8.62424	0.664
8.66521	0.666
8.70619	0.672
8.74717	0.679
8.78814	0.679
8.82912	0.679
8.8701	0.681
8.91107	0.681
8.95205	0.671
8.99303	0.66
9.034	0.654
9.07498	0.655
9.11596	0.659
9.15693	0.664
9.19791	0.666
9.23889	0.666
9.27986	0.664
9.32084	0.667
9.36182	0.667
9.40279	0.666
9.44377	0.659
9.48475	0.65
9.52572	0.647
9.5667	0.642
9.60768	0.635
9.64865	0.63
9.68963	0.621
9.73061	0.618
9.77158	0.613
9.81256	0.608
9.85354	0.608
9.89451	0.609
9.93549	0.618
9.97647	0.63
10.0174	0.633
10.0584	0.638
10.0994	0.633
10.1404	0.628
10.1813	0.623
10.2223	0.609
10.2633	0.599
10.3043	0.594
10.3453	0.579
10.3862	0.563
10.4272	0.557
10.4682	0.553
10.5092	0.548
10.5501	0.531
10.5911	0.512
10.6321	0.49
10.6731	0.473
10.714	0.449
10.755	0.427
10.796	0.408
10.837	0.379
10.878	0.359
10.9189	0.333
10.9599	0.316
11.0009	0.298
11.0419	0.284
11.0828	0.277
11.1238	0.267
11.1648	0.252
11.2058	0.247
11.2467	0.233
11.2877	0.228
11.3287	0.219
11.3697	0.204
11.4106	0.201
11.4516	0.197
11.4926	0.192
11.5336	0.185
11.5746	0.183
11.6155	0.182
11.6565	0.182
11.6975	0.182
11.7385	0.182
11.7794	0.183
11.8204	0.19
11.8614	0.192
11.9024	0.194
11.9433	0.206
11.9843	0.211
12.0253	0.209
12.0663	0.212
12.1072	0.214
12.1482	0.216
12.1892	0.219
12.2302	0.228
12.2712	0.233
12.3121	0.233
12.3531	0.233
12.3941	0.233
12.4351	0.236
12.476	0.236
12.517	0.243
12.558	0.241
12.599	0.24
12.6399	0.238
12.6809	0.238
12.7219	0.24
12.7629	0.241
12.8039	0.24
12.8448	0.241
12.8858	0.241
12.9268	0.241
12.9678	0.24
13.0087	0.236
13.0497	0.235
13.0907	0.233
13.1317	0.233
13.1726	0.228
13.2136	0.224
13.2546	0.221
13.2956	0.216
13.3365	0.214
13.3775	0.209
13.4185	0.207
13.4595	0.197
13.5005	0.19
13.5414	0.19
13.5824	0.18
13.6234	0.175
13.6644	0.173
13.7053	0.17
13.7463	0.161
13.7873	0.158
13.8283	0.153
13.8692	0.144
13.9102	0.141
13.9512	0.134
13.9922	0.131
14.0332	0.127
14.0741	0.127
14.1151	0.126
14.1561	0.124
14.1971	0.119
14.238	0.114
14.279	0.107
14.32	0.107
14.361	0.107
14.4019	0.109
14.4429	0.102
14.4839	0.114
14.5249	0.112
14.5658	0.112
14.6068	0.114
14.6478	0.114
14.6888	0.119
14.7298	0.119
14.7707	0.126
14.8117	0.127
14.8527	0.132
14.8937	0.132
14.9346	0.132
14.9756	0.137
15.0166	0.156
15.0576	0.178
15.0985	0.19
15.1395	0.19
15.1805	0.18
15.2215	0.18
15.2625	0.182
15.3034	0.183
15.3444	0.194
15.3854	0.204
15.4264	0.216
15.4673	0.224
15.5083	0.24
15.5493	0.248
15.5903	0.252
15.6312	0.264
15.6722	0.269
15.7132	0.279
15.7542	0.291
15.7951	0.299
15.8361	0.31
15.8771	0.323
15.9181	0.335
15.9591	0.352
