Infrared Spectrum: (-).alpha.-Pinene
Formula: C 10 H 16
CAS: 7785-26-4
State: gas
Origin: EPA-IR VAPOR PHASE LIBRARY
1/CM	ABSORBANCE
549.8	0.0007965
559.445	0.001817
569.09	0.001657
578.734	0.0010232
588.379	0.00027296
598.024	0.0004379
607.669	0.0006902
617.313	0.001237
626.958	0.0008868
636.603	0.000308
646.248	0.0004522
655.893	0.0003894
665.537	0.0005664
675.182	0.0006288
684.827	0.0001136
694.472	0.00024717
704.116	0.00025115
713.761	0.00023057
723.406	0.0003575
733.051	0.0004224
742.695	0.0005732
752.34	0.001637
761.985	0.003967
771.63	0.009027
781.275	0.013937
790.919	0.015237
800.564	0.008127
810.209	0.001967
819.854	0.000889
829.498	0.0009545
839.143	0.0010822
848.788	0.0011072
858.433	0.001357
868.078	0.002877
877.722	0.005667
887.367	0.006877
897.012	0.004497
906.657	0.002187
916.301	0.001987
925.946	0.002517
935.591	0.003087
945.236	0.004487
954.88	0.004707
964.525	0.002787
974.17	0.0009919
983.815	0.0008713
993.46	0.001447
1003.1	0.002427
1012.75	0.003327
1022.39	0.003267
1032.04	0.002257
1041.68	0.001907
1051.33	0.001947
1060.97	0.001787
1070.62	0.003067
1080.26	0.004607
1089.91	0.005017
1099.55	0.004157
1109.2	0.004217
1118.84	0.005137
1128.49	0.005047
1138.13	0.003157
1147.78	0.001977
1157.42	0.002847
1167.07	0.003387
1176.71	0.003407
1186.36	0.003877
1196	0.005337
1205.64	0.007567
1215.29	0.007687
1224.93	0.005237
1234.58	0.002777
1244.22	0.002377
1253.87	0.003287
1263.51	0.004217
1273.16	0.003357
1282.8	0.002687
1292.45	0.002407
1302.09	0.002927
1311.74	0.003297
1321.38	0.005047
1331.03	0.006417
1340.67	0.005627
1350.32	0.005647
1359.96	0.010027
1369.61	0.018527
1379.25	0.020527
1388.9	0.015917
1398.54	0.007957
1408.18	0.004087
1417.83	0.004997
1427.47	0.009537
1437.12	0.016167
1446.76	0.020467
1456.41	0.020527
1466.05	0.017357
1475.7	0.013497
1485.34	0.008347
1494.99	0.004187
1504.63	0.002197
1514.28	0.001547
1523.92	0.001267
1533.57	0.001277
1543.21	0.001477
1552.86	0.001947
1562.5	0.002547
1572.15	0.002927
1581.79	0.002447
1591.44	0.002017
1601.08	0.001877
1610.73	0.002027
1620.37	0.001947
1630.01	0.002077
1639.66	0.002487
1649.3	0.003197
1658.95	0.003477
1668.59	0.002757
1678.24	0.001687
1687.88	0.001267
1697.53	0.0009674
1707.17	0.0008162
1716.82	0.0008644
1726.46	0.0009625
1736.11	0.0009922
1745.75	0.0009192
1755.4	0.0008899
1765.04	0.0008393
1774.69	0.0009519
1784.33	0.0007564
1793.98	0.0005889
1803.62	0.0005754
1813.27	0.0005381
1822.91	0.0005664
1832.55	0.00063
1842.2	0.0005532
1851.84	0.0006966
1861.49	0.0006273
1871.13	0.0005646
1880.78	0.0005883
1890.42	0.0005037
1900.07	0.0005496
1909.71	0.0004244
1919.36	0.0004508
1929	0.0005102
1938.65	0.0006021
1948.29	0.0005407
1957.94	0.000527
1967.58	0.0005691
1977.23	0.0005776
1986.87	0.0006351
1996.52	0.0005016
2006.16	0.0005634
2015.81	0.0005056
2025.45	0.0005769
2035.1	0.0006548
2044.74	0.0006739
2054.38	0.0007011
2064.03	0.0006549
2073.67	0.0006062
2083.32	0.0005947
2092.96	0.000593
2102.61	0.0006206
2112.25	0.0005419
2121.9	0.0006178
2131.54	0.0006786
2141.19	0.0007362
2150.83	0.000707
2160.48	0.0006502
2170.12	0.00059
2179.77	0.000569
2189.41	0.000523
2199.06	0.0006251
2208.7	0.0007208
2218.35	0.0005253
2227.99	0.000511
2237.64	0.0004384
2247.28	0.0004725
2256.92	0.0004654
2266.57	0.0004827
2276.21	0.000468
2285.86	0.0005816
2295.5	0.0005346
2305.15	0.0005582
2314.79	0.0005351
2324.44	0.0005795
2334.08	0.0006371
2343.73	0.0007262
2353.37	0.0006778
2363.02	0.0007624
2372.66	0.0007401
2382.31	0.0007266
2391.95	0.0007121
2401.6	0.0006836
2411.24	0.0005841
2420.89	0.0007001
2430.53	0.0006449
2440.18	0.000563
2449.82	0.000653
2459.47	0.0008331
2469.11	0.0008069
2478.75	0.0009371
2488.4	0.0008694
2498.04	0.0008395
2507.69	0.0009466
2517.33	0.0008749
2526.98	0.0010005
2536.62	0.0008233
2546.27	0.0009377
2555.91	0.0010379
2565.56	0.0010227
2575.2	0.000957
2584.85	0.0009596
2594.49	0.0009098
2604.14	0.0008865
2613.78	0.0010175
2623.43	0.0010715
2633.07	0.0011943
2642.72	0.001327
2652.36	0.001617
2662.01	0.001677
2671.65	0.001417
2681.29	0.000991
2690.94	0.0010474
2700.58	0.001237
2710.23	0.001797
2719.87	0.002547
2729.52	0.003617
2739.16	0.003907
2748.81	0.003347
2758.45	0.003147
2768.1	0.003257
2777.74	0.003377
2787.39	0.003697
2797.03	0.004457
2806.68	0.005757
2816.32	0.007517
2825.97	0.012647
2835.61	0.026047
2845.26	0.040187
2854.9	0.041147
2864.55	0.046467
2874.19	0.064507
2883.84	0.087897
2893.48	0.108887
2903.12	0.103667
2912.77	0.154107
2922.41	0.225167
2932.06	0.209327
2941.7	0.138757
2951.35	0.111167
2960.99	0.105267
2970.64	0.094787
2980.28	0.089537
2989.93	0.088797
2999.57	0.069497
3009.22	0.036677
3018.86	0.027137
3028.51	0.030367
3038.15	0.022207
3047.8	0.010247
3057.44	0.007597
3067.09	0.007327
3076.73	0.006897
3086.38	0.005847
3096.02	0.005007
3105.67	0.004757
3115.31	0.004347
3124.95	0.003977
3134.6	0.003337
3144.24	0.002987
3153.89	0.002847
3163.53	0.002217
3173.18	0.001767
3182.82	0.001587
3192.47	0.001457
3202.11	0.000939
3211.76	0.0011044
3221.4	0.001447
3231.05	0.0008244
3240.69	0.0008682
3250.34	0.000663
3259.98	0.0006925
3269.63	0.0010021
3279.27	0.0007039
3288.92	0.0007175
3298.56	0.0006247
3308.21	0.0007802
3317.85	0.0006775
3327.49	0.000858
3337.14	0.0006535
3346.78	0.0007236
3356.43	0.0005967
3366.07	0.0006281
3375.72	0.0005618
3385.36	0.0003929
3395.01	0.0006994
3404.65	0.000669
3414.3	0.0006539
3423.94	0.000551
3433.59	0.00023112
3443.23	0.0003806
3452.88	0.0005324
3462.52	0.0004016
3472.17	0.0004258
3481.81	0.0004356
3491.46	0.0003589
3501.1	0.0005325
3510.75	0.0003768
3520.39	0.000214198
3530.04	0.00029536
3539.68	0.00026996
3549.32	0.0004681
3558.97	0.000321
3568.61	0.0005229
3578.26	0.0005153
3587.9	0.0004053
3597.55	0.0003361
3607.19	0.0004332
3616.84	0.00030449
3626.48	0.0003172
3636.13	0.00027545
3645.77	0.0003638
3655.42	0.0001888
3665.06	0.0003853
3674.71	0.0004157
3684.35	0.000448
3694	0.0004464
3703.64	0.0003967
3713.29	0.000549
3722.93	0.0003837
3732.58	0.0005855
3742.22	0.0005099
3751.86	0.0008269
3761.51	0.0005019
3771.15	0.0003712
3780.8	0.0004327
3790.44	0.0007418
3800.09	0.0006679
3809.73	0.0005124
3819.38	0.0008122
3829.02	0.000898
3838.67	0.0007946
3848.31	0.000982
3857.96	0.0006611
3867.6	0.0008219
3877.25	0.0009542
3886.89	0.0010348
3896.54	0.000912
3906.18	0.0007991
3915.83	0.001027
3925.47	0.0008936
3935.12	0.0008289
3944.76	0.0007877
3954.41	0.0009416
3964.05	0.0008145
3973.69	0.0008353
3983.34	0.0008307
3992.98	0.0009172
