Infrared Spectrum: Dextro-Alpha-Pinene
Formula: C10 H16
CAS: 7785-70-8
State: LIQUID (NEAT)
Class: COBLENTZ III
Instrument: CARY 90 (GRATING)
Instrument parameters: GRATING CHANGES: 3000, 2000, 1200 CM^-^1
Sampling: TRANSMISSION
Path length: 0.0025 CM
Resolution: 2
Origin: WESTERN REGIONAL RES. USDA
1/CM	TRANSMITTANCE
461	0.8725
470	0.871
479	0.8743
488	0.8822
497	0.8986
506	0.9048
515	0.9033
524	0.8984
533	0.8944
542	0.8902
551	0.8619
560	0.5678
569	0.8304
578	0.8795
587	0.8839
596	0.8811
605	0.8731
614	0.7182
623	0.8584
632	0.875
641	0.8806
650	0.8821
659	0.8766
668	0.8617
677	0.8927
686	0.9019
695	0.9103
704	0.9179
713	0.9245
722	0.9223
731	0.8932
740	0.8046
749	0.5393
758	0.2324
767	0.1351
776	0.0974
785	0.0026
794	0.3172
803	0.7309
812	0.8633
821	0.9132
830	0.9171
839	0.7932
848	0.9376
857	0.9459
866	0.9287
875	0.8291
884	0.3544
893	0.8813
902	0.8546
911	0.9264
920	0.8859
929	0.776
938	0.88
947	0.608
956	0.6581
965	0.868
974	0.9514
983	0.9451
992	0.8833
1001	0.9072
1010	0.4022
1019	0.7592
1028	0.8564
1037	0.8447
1046	0.8628
1055	0.8232
1064	0.7507
1073	0.8725
1082	0.5607
1091	0.7948
1100	0.6582
1109	0.8837
1118	0.7741
1127	0.6474
1136	0.9602
1145	0.9677
1154	0.9364
1163	0.6104
1172	0.8668
1181	0.7472
1190	0.8992
1199	0.7008
1208	0.6092
1217	0.4386
1226	0.7452
1235	0.8261
1244	0.7564
1253	0.7129
1262	0.4899
1271	0.8011
1280	0.833
1289	0.8357
1298	0.8155
1307	0.8102
1316	0.7946
1325	0.5457
1334	0.5551
1343	0.7592
1352	0.715
1361	0.2278
1370	0.3657
1379	0.2089
1388	0.6923
1397	0.7243
1406	0.7135
1415	0.6635
1424	0.4169
1433	0.115
1442	0.0971
1451	0.2201
1460	0.3216
1469	0.1813
1478	0.5966
1487	0.7424
1496	0.8119
1505	0.8428
1514	0.8544
1523	0.8586
1532	0.8678
1541	0.8612
1550	0.8443
1559	0.8227
1568	0.7996
1577	0.809
1586	0.8406
1595	0.8356
1604	0.8438
1613	0.8419
1622	0.8367
1631	0.8431
1640	0.8492
1649	0.8327
1658	0.6939
1667	0.8285
1676	0.8541
1685	0.8665
1694	0.8767
1703	0.8859
1712	0.8896
1721	0.8873
1730	0.8806
1739	0.8738
1748	0.8867
1757	0.9039
1766	0.9017
1775	0.8994
1784	0.9005
1793	0.9021
1802	0.9027
1811	0.9025
1820	0.901
1829	0.9001
1838	0.8995
1847	0.8991
1856	0.8995
1865	0.9028
1874	0.9073
1883	0.9088
1892	0.9079
1901	0.9107
1910	0.9189
1919	0.9188
1928	0.9151
1937	0.9126
1946	0.9121
1955	0.9123
1964	0.9122
1973	0.9122
1982	0.9126
1991	0.9146
2000	0.9207
2009	0.923
2018	0.9236
2027	0.9217
2036	0.9197
2045	0.9189
2054	0.9191
2063	0.9207
2072	0.9226
2081	0.9227
2090	0.9224
2099	0.9219
2108	0.9214
2117	0.9209
2126	0.9195
2135	0.9179
2144	0.916
2153	0.9159
2162	0.9187
2171	0.9202
2180	0.9196
2189	0.9189
2198	0.9178
2207	0.9154
2216	0.9142
2225	0.9162
2234	0.9199
2243	0.9225
2252	0.922
2261	0.9211
2270	0.9194
2279	0.9176
2288	0.9156
2297	0.9135
2306	0.9099
2315	0.9038
2324	0.8972
2333	0.8904
2342	0.8831
2351	0.8743
2360	0.8673
2369	0.8727
2378	0.8891
2387	0.9026
2396	0.9097
2405	0.9133
2414	0.9149
2423	0.9152
2432	0.915
2441	0.9137
2450	0.9122
2459	0.9104
2468	0.9084
2477	0.9062
2486	0.9048
2495	0.9039
2504	0.9032
2513	0.9029
2522	0.9027
2531	0.9027
2540	0.9028
2549	0.9028
2558	0.9029
2567	0.9032
2576	0.9039
2585	0.9046
2594	0.9058
2603	0.9035
2612	0.8988
2621	0.895
2630	0.8937
2639	0.8976
2648	0.887
2657	0.8074
2666	0.8462
2675	0.8912
2684	0.8939
2693	0.892
2702	0.8684
2711	0.8244
2720	0.7716
2729	0.7391
2738	0.8139
2747	0.8322
2756	0.7903
2765	0.822
2774	0.8245
2783	0.811
2792	0.7889
2801	0.7213
2810	0.6295
2819	0.4987
2828	0.2429
2837	0.0207
2846	0.1651
2855	0.1199
2864	0.0599
2873	0.0164
2882	0.0099
2891	0.0092
2900	0.0089
2909	0.0083
2918	0.0077
2927	0.0074
2936	0.0075
2945	0.0076
2954	0.0082
2963	0.0088
2972	0.0095
2981	0.0102
2990	0.0094
2999	0.1386
3008	0.322
3017	0.3518
3026	0.1643
3035	0.3784
3044	0.5542
3053	0.6726
3062	0.7346
3071	0.7733
3080	0.7855
3089	0.7911
3098	0.7927
3107	0.7934
3116	0.7947
3125	0.8001
3134	0.8054
3143	0.8118
3152	0.8201
3161	0.8288
3170	0.8376
3179	0.8467
3188	0.8556
3197	0.8641
3206	0.8685
3215	0.8674
3224	0.8648
3233	0.8718
3242	0.8823
3251	0.885
3260	0.8863
3269	0.8866
3278	0.8863
3287	0.8858
3296	0.8852
3305	0.8845
3314	0.8847
3323	0.8853
3332	0.8859
3341	0.8866
3350	0.8876
3359	0.8886
3368	0.8896
3377	0.8907
3386	0.8918
3395	0.8929
3404	0.8941
3413	0.8952
3422	0.8963
3431	0.8974
3440	0.8986
3449	0.8999
3458	0.9012
3467	0.9025
3476	0.9041
3485	0.9057
3494	0.9057
3503	0.9048
3512	0.9037
3521	0.9017
3530	0.8998
3539	0.8998
3548	0.8999
3557	0.9
3566	0.9002
3575	0.9002
3584	0.9002
3593	0.9002
3602	0.9002
3611	0.9001
3620	0.9001
3629	0.9001
3638	0.9
3647	0.8999
3656	0.8998
3665	0.8997
3674	0.8996
3683	0.8995
3692	0.8992
3701	0.8983
3710	0.8974
3719	0.8965
3728	0.8956
3737	0.8948
3746	0.8941
3755	0.8934
3764	0.8927
3773	0.8934
3782	0.8943
3791	0.8949
3800	0.8932
3809	0.8904
3818	0.8859
3827	0.8824
3836	0.8816
3845	0.882
3854	0.8835
3863	0.8854
3872	0.8871
3881	0.8886
3890	0.8899
3899	0.8907
3908	0.8914
3917	0.8919
3926	0.8917
3935	0.8915
3944	0.8914
3953	0.8912
3962	0.8914
3971	0.8922
3980	0.893
3989	0.8938
3998	0.8947
