Infrared Spectrum: Isopulegol
Formula: C10 H18 O
CAS: 7786-67-6
State: SOLUTION (10% CCl4 FOR 4000-1330, 10% CS2 FOR 1330-450 CM^-^1) VS SOLVENT
Class: COBLENTZ III
Instrument: CARY 90 (GRATING)
Instrument parameters: GRATING CHANGES: 3000, 2000, 1200 CM^-^1
Sampling: TRANSMISSION
Path length: 0.01 CM, AND 0.01 CM
Resolution: 2
Origin: WESTERN REGIONAL RES. USDA
1/CM	TRANSMITTANCE
454	0.8162
463	0.7783
472	0.7701
481	0.8033
490	0.8302
499	0.8423
508	0.8353
517	0.8046
526	0.7415
535	0.7734
544	0.5341
553	0.5574
562	0.803
571	0.829
580	0.7575
589	0.7956
598	0.8432
607	0.8537
616	0.8609
625	0.8666
634	0.8706
643	0.8733
652	0.8758
661	0.8783
670	0.8806
679	0.883
688	0.8855
697	0.8874
706	0.8838
715	0.8539
724	0.8858
733	0.9117
742	0.9182
751	0.9105
760	0.8979
769	0.885
778	0.8896
787	0.8787
796	0.9185
805	0.9162
814	0.9029
823	0.9059
832	0.8837
841	0.6237
850	0.6683
859	0.88
868	0.8612
877	0.712
886	0.3205
895	0.1403
904	0.44
913	0.77
922	0.6654
931	0.5521
940	0.8202
949	0.8769
958	0.8449
967	0.8117
976	0.8643
985	0.7725
994	0.5446
1003	0.5955
1012	0.6108
1021	0.295
1030	0.2156
1039	0.4706
1048	0.1987
1057	0.4732
1066	0.4986
1075	0.6116
1084	0.6607
1093	0.331
1102	0.5413
1111	0.6769
1120	0.6596
1129	0.5928
1138	0.8295
1147	0.8697
1156	0.8528
1165	0.82
1174	0.8749
1183	0.8809
1192	0.8741
1201	0.8399
1210	0.7713
1219	0.6916
1228	0.6564
1237	0.6816
1246	0.5665
1255	0.4921
1264	0.6421
1273	0.5003
1282	0.3135
1291	0.3885
1300	0.5882
1309	0.6438
1318	0.7029
1327	0.7016
1336	0.6278
1345	0.5302
1354	0.5929
1363	0.5984
1372	0.3722
1381	0.4851
1390	0.4682
1399	0.4792
1408	0.6288
1417	0.6924
1426	0.6271
1435	0.4016
1444	0.2041
1453	0.1441
1462	0.2794
1471	0.6313
1480	0.7586
1489	0.8568
1498	0.8828
1507	0.9047
1516	0.9212
1525	0.9329
1534	0.9399
1543	0.9446
1552	0.9475
1561	0.9458
1570	0.9414
1579	0.9351
1588	0.9235
1597	0.9017
1606	0.8696
1615	0.8277
1624	0.7835
1633	0.6897
1642	0.2394
1651	0.628
1660	0.8398
1669	0.8953
1678	0.9175
1687	0.9188
1696	0.9283
1705	0.9247
1714	0.9275
1723	0.9327
1732	0.923
1741	0.9191
1750	0.9276
1759	0.9381
1768	0.936
1777	0.9244
1786	0.9135
1795	0.902
1804	0.89
1813	0.8952
1822	0.9222
1831	0.9385
1840	0.9422
1849	0.9442
1858	0.9442
1867	0.9439
1876	0.9438
1885	0.943
1894	0.9413
1903	0.9419
1912	0.9432
1921	0.9452
1930	0.9464
1939	0.947
1948	0.9484
1957	0.9483
1966	0.9482
1975	0.9482
1984	0.948
1993	0.9473
2002	0.9461
2011	0.9453
2020	0.9449
2029	0.941
2038	0.9404
2047	0.9412
2056	0.9418
2065	0.9424
2074	0.9427
2083	0.9429
2092	0.9429
2101	0.9429
2110	0.9429
2119	0.9425
2128	0.942
2137	0.9415
2146	0.9412
2155	0.9408
2164	0.9406
2173	0.9403
2182	0.9399
2191	0.9392
2200	0.9386
2209	0.9387
2218	0.9397
2227	0.9408
2236	0.9421
2245	0.9435
2254	0.9426
2263	0.9418
2272	0.9428
2281	0.9438
2290	0.9427
2299	0.9395
2308	0.9406
2317	0.9446
2326	0.9417
2335	0.9367
2344	0.9333
2353	0.9315
2362	0.9317
2371	0.9318
2380	0.9321
2389	0.9328
2398	0.9334
2407	0.934
2416	0.9344
2425	0.9347
2434	0.9344
2443	0.9328
2452	0.9313
2461	0.931
2470	0.9312
2479	0.9317
2488	0.9328
2497	0.9328
2506	0.9326
2515	0.9323
2524	0.9316
2533	0.9308
2542	0.9301
2551	0.9274
2560	0.9246
2569	0.919
2578	0.9146
2587	0.9111
2596	0.8981
2605	0.8853
2614	0.8811
2623	0.8816
2632	0.8838
2641	0.8815
2650	0.8742
2659	0.8723
2668	0.8759
2677	0.8794
2686	0.8818
2695	0.8826
2704	0.8785
2713	0.8647
2722	0.8282
2731	0.845
2740	0.8644
2749	0.8675
2758	0.8586
2767	0.8423
2776	0.8303
2785	0.8171
2794	0.7942
2803	0.7762
2812	0.761
2821	0.7004
2830	0.5673
2839	0.2
2848	0.0909
2857	0.0639
2866	0.0459
2875	0.1106
2884	0.1203
2893	0.1173
2902	0.0737
2911	0.0172
2920	0.0052
2929	0.0098
2938	0.0429
2947	0.0229
2956	0.0556
2965	0.1893
2974	0.3231
2983	0.4568
2992	0.5906
3001	0.7242
3010	0.7881
3019	0.8088
3028	0.8389
3037	0.8496
3046	0.846
3055	0.8247
3064	0.7393
3073	0.5061
3082	0.5756
3091	0.7676
3100	0.847
3109	0.8755
3118	0.8811
3127	0.8821
3136	0.8817
3145	0.8804
3154	0.8786
3163	0.8764
3172	0.8741
3181	0.8709
3190	0.8673
3199	0.8635
3208	0.8594
3217	0.8548
3226	0.8501
3235	0.8454
3244	0.8404
3253	0.8353
3262	0.8291
3271	0.8222
3280	0.8131
3289	0.8035
3298	0.7916
3307	0.7773
3316	0.762
3325	0.7468
3334	0.7316
3343	0.7165
3352	0.7007
3361	0.6846
3370	0.6687
3379	0.6528
3388	0.6368
3397	0.6206
3406	0.6043
3415	0.5874
3424	0.5705
3433	0.5534
3442	0.5362
3451	0.5231
3460	0.5105
3469	0.502
3478	0.501
3487	0.5026
3496	0.5076
3505	0.5196
3514	0.537
3523	0.5635
3532	0.5845
3541	0.5855
3550	0.5548
3559	0.5159
3568	0.477
3577	0.4639
3586	0.5084
3595	0.5527
3604	0.6164
3613	0.7181
3622	0.7514
3631	0.7893
3640	0.8492
3649	0.8731
3658	0.8819
3667	0.8801
3676	0.8735
3685	0.8622
3694	0.871
3703	0.8924
3712	0.9057
3721	0.9102
3730	0.9117
3739	0.9126
3748	0.9131
3757	0.9134
3766	0.9135
3775	0.913
3784	0.9127
3793	0.9122
3802	0.9114
3811	0.9107
3820	0.9099
3829	0.9085
3838	0.9073
3847	0.9058
3856	0.9039
3865	0.902
3874	0.9008
3883	0.8998
3892	0.9006
3901	0.9015
3910	0.9027
3919	0.904
3928	0.9055
3937	0.9069
3946	0.9083
3955	0.9093
3964	0.9103
3973	0.9117
3982	0.9136
3991	0.9157
4000	0.9176
