Infrared Spectrum: Phosdrin
Formula: C 7 H 13 O 6 P
CAS: 7786-34-7
State: gas
Instrument: HP-GC/MS/IRD
Origin: NIST Mass Spectrometry Data Center
1/CM	ABSORBANCE
550	0.00504
562	0.0064008
574	0.0051576
586	0.0035448
598	0.0018312
610	0.0007224
622	0.0002856
634	0.000168
646	0.0001512
658	0.0003864
670	0.0007056
682	0.0013776
694	0.0022344
706	0.00336
718	0.0043344
730	0.0049056
742	0.006048
754	0.0062496
766	0.0063336
778	0.0086016
790	0.0159096
802	0.0278712
814	0.0283248
826	0.0191856
838	0.026796
850	0.0389592
862	0.0322896
874	0.0230328
886	0.027552
898	0.0256704
910	0.0152376
922	0.0114744
934	0.0195384
946	0.0298032
958	0.0247968
970	0.0191352
982	0.0206808
994	0.0256536
1006	0.0411768
1018	0.0769272
1030	0.135391
1042	0.168
1054	0.160423
1066	0.129343
1078	0.09408
1090	0.0541968
1102	0.0412608
1114	0.046116
1126	0.0726264
1138	0.0990024
1150	0.0587832
1162	0.036624
1174	0.0320712
1186	0.033768
1198	0.0368424
1210	0.0435456
1222	0.0402528
1234	0.036876
1246	0.030828
1258	0.0243768
1270	0.026544
1282	0.0316176
1294	0.0466872
1306	0.0556752
1318	0.0564648
1330	0.0401184
1342	0.0297024
1354	0.018312
1366	0.0099792
1378	0.0114912
1390	0.0214704
1402	0.012852
1414	0.0078456
1426	0.009828
1438	0.0195216
1450	0.0140952
1462	0.0101136
1474	0.0071568
1486	0.0050736
1498	0.0038976
1510	0.0033264
1522	0.0031584
1534	0.0032256
1546	0.0034272
1558	0.003444
1570	0.0033768
1582	0.0034104
1594	0.0036456
1606	0.0043848
1618	0.0063
1630	0.0110208
1642	0.0232344
1654	0.053508
1666	0.0550032
1678	0.0240072
1690	0.012768
1702	0.0115752
1714	0.0158256
1726	0.0338352
1738	0.0688464
1750	0.0495096
1762	0.0177912
1774	0.008316
1786	0.005124
1798	0.0032424
1810	0.0022176
1822	0.0017136
1834	0.0015624
1846	0.0015624
1858	0.0015792
1870	0.001512
1882	0.0014616
1894	0.0014616
1906	0.001512
1918	0.0014952
1930	0.0013272
1942	0.0010248
1954	0.00084
1966	0.000756
1978	0.0007224
1990	0.0006888
2002	0.000588
2014	0.0005544
2026	0.0006384
2038	0.000756
2050	0.0007728
2062	0.00084
2074	0.0007728
2086	0.0007056
2098	0.0006216
2110	0.0006216
2122	0.0006888
2134	0.000672
2146	0.0004536
2158	0.0002856
2170	0.000252
2182	0.0002016
2194	0.0001344
2206	8.4e-05
2218	6.72e-05
2230	0.0001008
2242	0.0001008
2254	6.72e-05
2266	0.0001344
2278	6.72e-05
2290	8.4e-05
2302	5.04e-05
2314	3.36e-05
2326	8.4e-05
2338	0.000168
2350	0.0002352
2362	0.0002688
2374	0.0002352
2386	0.0001848
2398	0.0001008
2410	6.72e-05
2422	5.04e-05
2434	5.04e-05
2446	6.72e-05
2458	5.04e-05
2470	0.0001008
2482	6.72e-05
2494	3.36e-05
2506	1.68e-05
2518	3.36e-05
2530	0.0001176
2542	0.000168
2554	0.0002184
2566	0.0001512
2578	0.0002016
2590	0.0001848
2602	0.0002184
2614	0.0002184
2626	0.000252
2638	0.0003192
2650	0.0002352
2662	0.000252
2674	0.0001344
2686	0.000168
2698	0.0001176
2710	0.0001344
2722	0.0001344
2734	0.000168
2746	0.0001848
2758	0.0003024
2770	0.0003696
2782	0.00042
2794	0.000504
2806	0.0006888
2818	0.0010416
2830	0.0017976
2842	0.0036456
2854	0.0068376
2866	0.0090048
2878	0.005208
2890	0.0039816
2902	0.0047544
2914	0.0060144
2926	0.0075768
2938	0.0096096
2950	0.016716
2962	0.0330792
2974	0.019992
2986	0.0109704
2998	0.0105504
3010	0.0098952
3022	0.0088368
3034	0.0072408
3046	0.0050904
3058	0.0040992
3070	0.0037464
3082	0.0036792
3094	0.003192
3106	0.0025032
3118	0.0018312
3130	0.0013944
3142	0.0010248
3154	0.0008232
3166	0.0006384
3178	0.000504
3190	0.0004032
3202	0.0003528
3214	0.0003024
3226	0.000252
3238	0.0002184
3250	0.0002688
3262	0.0002184
3274	0.0002856
3286	0.0002688
3298	0.0002856
3310	0.0002856
3322	0.0003696
3334	0.0003192
3346	0.000252
3358	0.000252
3370	0.0003192
3382	0.0003192
3394	0.0003696
3406	0.000336
3418	0.0003024
3430	0.0003864
3442	0.0004704
3454	0.000756
3466	0.0007896
3478	0.000672
3490	0.0004872
3502	0.0004536
3514	0.000336
3526	0.0002016
3538	0.0002688
3550	0.0002352
3562	0.000252
3574	0.0002016
3586	0.0001848
3598	0.000168
3610	0.0002352
3622	0.0001848
3634	0.0002184
3646	0.0001344
3658	0.0001512
3670	0.0001848
3682	0.0001512
3694	0.000168
3706	0.000168
3718	0.0001512
3730	0.0001344
3742	0.0001848
3754	0.0001848
3766	0.0001344
3778	0.0001848
3790	0.0001848
3802	0.0002184
3814	0.000252
3826	0.000252
3838	0.0002184
