Infrared Spectrum: 2-Methoxy-4-vinylphenol
Formula: C 9 H 10 O 2
CAS: 7786-61-0
State: gas
Origin: EPA-IR VAPOR PHASE LIBRARY
1/CM	ABSORBANCE
549.8	0.003864
559.445	0.004694
569.09	0.004264
578.734	0.003734
588.379	0.002344
598.024	0.001394
607.669	0.001844
617.313	0.0012617
626.958	0.0011304
636.603	0.0009759
646.248	0.0005565
655.893	0.0006157
665.537	0.0004697
675.182	0.0004963
684.827	0.001394
694.472	0.001494
704.116	0.001784
713.761	0.001334
723.406	0.001284
733.051	0.001844
742.695	0.0011875
752.34	0.001534
761.985	0.002614
771.63	0.003874
781.275	0.007784
790.919	0.010564
800.564	0.007854
810.209	0.007164
819.854	0.011704
829.498	0.007234
839.143	0.005394
848.788	0.006794
858.433	0.008154
868.078	0.006224
877.722	0.005754
887.367	0.006264
897.012	0.010734
906.657	0.012104
916.301	0.007894
925.946	0.004614
935.591	0.003154
945.236	0.002604
954.88	0.002984
964.525	0.004234
974.17	0.005054
983.815	0.006394
993.46	0.005834
1003.1	0.005184
1012.75	0.007054
1022.39	0.012434
1032.04	0.015224
1041.68	0.013534
1051.33	0.007944
1060.97	0.003044
1070.62	0.003034
1080.26	0.003144
1089.91	0.003134
1099.55	0.003724
1109.2	0.009194
1118.84	0.013734
1128.49	0.014194
1138.13	0.011794
1147.78	0.016364
1157.42	0.017754
1167.07	0.014194
1176.71	0.014074
1186.36	0.017664
1196	0.020394
1205.64	0.024034
1215.29	0.021824
1224.93	0.024044
1234.58	0.034144
1244.22	0.035424
1253.87	0.035044
1263.51	0.057154
1273.16	0.067734
1282.8	0.040704
1292.45	0.016824
1302.09	0.007804
1311.74	0.004834
1321.38	0.004174
1331.03	0.003784
1340.67	0.005094
1350.32	0.009044
1359.96	0.012794
1369.61	0.011914
1379.25	0.007264
1388.9	0.004284
1398.54	0.004844
1408.18	0.008594
1417.83	0.012594
1427.47	0.013334
1437.12	0.009804
1446.76	0.007204
1456.41	0.009894
1466.05	0.011554
1475.7	0.010734
1485.34	0.011124
1494.99	0.023444
1504.63	0.058164
1514.28	0.068354
1523.92	0.030024
1533.57	0.007784
1543.21	0.004624
1552.86	0.003614
1562.5	0.003444
1572.15	0.005014
1581.79	0.008714
1591.44	0.012814
1601.08	0.013484
1610.73	0.012354
1620.37	0.010474
1630.01	0.007544
1639.66	0.005054
1649.3	0.002484
1658.95	0.001534
1668.59	0.001354
1678.24	0.001434
1687.88	0.0012522
1697.53	0.0011878
1707.17	0.0011994
1716.82	0.0012358
1726.46	0.0010857
1736.11	0.0010259
1745.75	0.0010293
1755.4	0.0010361
1765.04	0.0007455
1774.69	0.0008361
1784.33	0.000988
1793.98	0.001404
1803.62	0.002024
1813.27	0.002024
1822.91	0.001724
1832.55	0.0010777
1842.2	0.0010671
1851.84	0.0012441
1861.49	0.001364
1871.13	0.0011961
1880.78	0.0006463
1890.42	0.0004786
1900.07	0.0006804
1909.71	0.0007202
1919.36	0.0008773
1929	0.0010623
1938.65	0.0009818
1948.29	0.0008951
1957.94	0.0007696
1967.58	0.0007351
1977.23	0.0004481
1986.87	0.0006901
1996.52	0.0006951
2006.16	0.0005607
2015.81	0.0007231
2025.45	0.0009861
2035.1	0.0009451
2044.74	0.001374
2054.38	0.001494
2064.03	0.001394
2073.67	0.0011659
2083.32	0.0007963
2092.96	0.0007042
2102.61	0.0007266
2112.25	0.0005808
2121.9	0.0005006
2131.54	0.000499
2141.19	0.0008071
2150.83	0.0007889
2160.48	0.0005987
2170.12	0.0005529
2179.77	0.0005901
2189.41	0.0007753
2199.06	0.0006904
2208.7	0.0005558
2218.35	0.0005544
2227.99	0.000614
2237.64	0.0004461
2247.28	0.0005375
2256.92	0.0004551
2266.57	0.0004062
2276.21	0.0005288
2285.86	0.0006107
2295.5	0.0006897
2305.15	0.0008919
2314.79	0.0007125
2324.44	0.000705
2334.08	0.0007346
2343.73	0.0006435
2353.37	0.0008345
2363.02	0.0007464
2372.66	0.0007874
2382.31	0.00092
2391.95	0.0007563
2401.6	0.0005787
2411.24	0.0007527
2420.89	0.0006359
2430.53	0.0008402
2440.18	0.0006338
2449.82	0.0007135
2459.47	0.0007367
2469.11	0.0007957
2478.75	0.0009107
2488.4	0.0010183
2498.04	0.0010073
2507.69	0.0010706
2517.33	0.0010961
2526.98	0.0010421
2536.62	0.0008961
2546.27	0.000655
2555.91	0.0008199
2565.56	0.0005642
2575.2	0.0005773
2584.85	0.0005447
2594.49	0.0005952
2604.14	0.0008122
2613.78	0.0008322
2623.43	0.0010347
2633.07	0.0010438
2642.72	0.000722
2652.36	0.0006235
2662.01	0.0005253
2671.65	0.0008642
2681.29	0.0006329
2690.94	0.0005403
2700.58	0.000531
2710.23	0.0006258
2719.87	0.0007165
2729.52	0.0007457
2739.16	0.00049
2748.81	0.0009708
2758.45	0.0008044
2768.1	0.0005172
2777.74	0.0008673
2787.39	0.0008751
2797.03	0.0010026
2806.68	0.0012637
2816.32	0.001524
2825.97	0.002104
2835.61	0.003324
2845.26	0.004714
2854.9	0.005124
2864.55	0.003714
2874.19	0.003144
2883.84	0.003034
2893.48	0.002864
2903.12	0.003094
2912.77	0.003834
2922.41	0.004904
2932.06	0.005974
2941.7	0.008054
2951.35	0.009814
2960.99	0.009354
2970.64	0.007694
2980.28	0.006704
2989.93	0.006544
2999.57	0.008694
3009.22	0.011924
3018.86	0.009274
3028.51	0.004954
3038.15	0.004684
3047.8	0.005674
3057.44	0.006754
3067.09	0.006454
3076.73	0.005324
3086.38	0.006434
3096.02	0.006974
3105.67	0.003754
3115.31	0.001664
3124.95	0.001131
3134.6	0.0012666
3144.24	0.0009754
3153.89	0.0007974
3163.53	0.0006737
3173.18	0.0007639
3182.82	0.001038
3192.47	0.0006585
3202.11	0.0008368
3211.76	0.0004421
3221.4	0.00037984
3231.05	0.0005146
3240.69	0.0006871
3250.34	0.0006049
3259.98	0.0006699
3269.63	0.0005344
3279.27	0.000619
3288.92	0.0006525
3298.56	0.0006948
3308.21	0.00034811
3317.85	0.0007159
3327.49	0.0004864
3337.14	0.0004202
3346.78	0.0006324
3356.43	0.0005933
3366.07	0.00035122
3375.72	0.00030718
3385.36	0.0005535
3395.01	0.0008553
3404.65	0.0005885
3414.3	0.0003868
3423.94	0.000172
3433.59	0.0004367
3443.23	0.0005019
3452.88	0.000538
3462.52	0.0003351
3472.17	0.000505
3481.81	0.00037804
3491.46	0.0004545
3501.1	0.0003849
3510.75	0.0004866
3520.39	0.0006947
3530.04	0.0008322
3539.68	0.0012618
3549.32	0.0012066
3558.97	0.002924
3568.61	0.008464
3578.26	0.023834
3587.9	0.032044
3597.55	0.018664
3607.19	0.005484
3616.84	0.002194
3626.48	0.0012247
3636.13	0.0011428
3645.77	0.0012132
3655.42	0.001494
3665.06	0.0008275
3674.71	0.0004534
3684.35	0.0004572
3694	0.0005971
3703.64	0.0005185
3713.29	0.0005787
3722.93	0.0005386
3732.58	0.0002509
3742.22	0.000521
3751.86	0.0005581
3761.51	0.0005217
3771.15	0.0007577
3780.8	0.000169
3790.44	0.0002252
3800.09	0.0004863
3809.73	0.000153
3819.38	4.6e-05
3829.02	0.0006806
3838.67	0.0005765
3848.31	0.00033459
3857.96	0.000436
3867.6	0.0005109
3877.25	0.0007513
3886.89	0.00012
3896.54	0.00032863
3906.18	0.0007248
3915.83	0.00035164
3925.47	0.00032213
3935.12	0.0004899
3944.76	0.0002491
3954.41	0.000608
3964.05	0.00034379
3973.69	0.0005899
3983.34	0.0005962
3992.98	0.0008441
