Infrared Spectrum: BARIUM FLUORIDE
Formula: Ba F2
CAS: 7787-32-8
State: SOLID (MINERAL OIL MULL)
Class: COBLENTZ
Instrument: Not specified, most likely a prism, grating, or hybrid spectrometer.
Sampling: TRANSMISSION
Resolution: 4
Origin: WYANDOTTE CHEMICALS CORP., WYANDOTTE, MICHIGAN, USA
MICROMETERS	TRANSMITTANCE
2.027	0.938
2.06792	0.938
2.10884	0.942
2.14975	0.945
2.19067	0.942
2.23159	0.901
2.27251	0.872
2.31342	0.857
2.35434	0.855
2.39526	0.858
2.43618	0.865
2.4771	0.886
2.51801	0.903
2.55893	0.908
2.59985	0.911
2.64077	0.913
2.68169	0.914
2.7226	0.904
2.76352	0.886
2.80444	0.845
2.84536	0.797
2.88627	0.741
2.92719	0.707
2.96811	0.681
3.00903	0.658
3.04995	0.629
3.09086	0.627
3.13178	0.624
3.1727	0.619
3.21362	0.617
3.25453	0.617
3.29545	0.583
3.33637	0.401
3.37729	0.122
3.41821	0.047
3.45912	0.037
3.50004	0.037
3.54096	0.034
3.58188	0.175
3.6228	0.411
3.66371	0.54
3.70463	0.576
3.74555	0.602
3.78647	0.612
3.82738	0.653
3.8683	0.683
3.90922	0.7
3.95014	0.729
3.99106	0.758
4.03197	0.777
4.07289	0.787
4.11381	0.799
4.15473	0.809
4.19565	0.809
4.23656	0.809
4.27748	0.799
4.3184	0.807
4.35932	0.795
4.40023	0.807
4.44115	0.824
4.48207	0.836
4.52299	0.843
4.56391	0.85
4.60482	0.855
4.64574	0.862
4.68666	0.865
4.72758	0.867
4.76849	0.869
4.80941	0.87
4.85033	0.869
4.89125	0.872
4.93217	0.882
4.97308	0.887
5.014	0.886
5.05492	0.889
5.09584	0.887
5.13676	0.884
5.17767	0.884
5.21859	0.884
5.25951	0.882
5.30043	0.88
5.34134	0.88
5.38226	0.88
5.42318	0.877
5.4641	0.875
5.50502	0.872
5.54593	0.872
5.58685	0.87
5.62777	0.869
5.66869	0.865
5.7096	0.853
5.75052	0.828
5.79144	0.801
5.83236	0.778
5.87328	0.763
5.91419	0.739
5.95511	0.693
5.99603	0.659
6.03695	0.629
6.07787	0.625
6.11878	0.629
6.1597	0.637
6.20062	0.681
6.24154	0.714
6.28245	0.741
6.32337	0.753
6.36429	0.756
6.40521	0.758
6.44613	0.753
6.48704	0.755
6.52796	0.751
6.56888	0.748
6.6098	0.732
6.65071	0.704
6.69163	0.656
6.73255	0.54
6.77347	0.319
6.81439	0.061
6.8553	0.049
6.89622	0.066
6.93714	0.151
6.97806	0.352
7.01898	0.534
7.05989	0.583
7.10081	0.595
7.14173	0.585
7.18265	0.54
7.22356	0.324
7.26448	0.119
7.3054	0.183
7.34632	0.297
7.38724	0.421
7.42815	0.457
7.46907	0.482
7.50999	0.522
7.55091	0.557
7.59183	0.568
7.63274	0.571
7.67366	0.564
7.71458	0.573
7.7555	0.591
7.79641	0.605
7.83733	0.61
7.87825	0.613
7.91917	0.613
7.96009	0.62
8.001	0.629
8.04192	0.627
8.08284	0.619
8.12376	0.607
8.16467	0.588
8.20559	0.579
8.24651	0.557
8.28743	0.525
8.32835	0.488
8.36926	0.445
8.41018	0.401
8.4511	0.394
8.49202	0.403
8.53294	0.445
8.57385	0.459
8.61477	0.482
8.65569	0.479
8.69661	0.477
8.73752	0.45
8.77844	0.418
8.81936	0.38
8.86028	0.363
8.9012	0.374
8.94211	0.408
8.98303	0.431
9.02395	0.447
9.06487	0.452
9.10578	0.448
9.1467	0.414
9.18762	0.365
9.22854	0.331
9.26946	0.319
9.31037	0.341
9.35129	0.403
9.39221	0.467
9.43313	0.527
9.47405	0.574
9.51496	0.603
9.55588	0.615
9.5968	0.625
9.63772	0.63
9.67863	0.634
9.71955	0.637
9.76047	0.637
9.80139	0.639
9.84231	0.641
9.88322	0.646
9.92414	0.649
9.96506	0.656
10.006	0.658
10.0469	0.661
10.0878	0.664
10.1287	0.663
10.1696	0.639
10.2106	0.627
10.2515	0.63
10.2924	0.634
10.3333	0.632
10.3742	0.63
10.4152	0.63
10.4561	0.632
10.497	0.639
10.5379	0.646
10.5788	0.647
10.6197	0.647
10.6607	0.646
10.7016	0.644
10.7425	0.641
10.7834	0.639
10.8243	0.644
10.8653	0.651
10.9062	0.651
10.9471	0.649
10.988	0.654
11.0289	0.658
11.0698	0.67
11.1108	0.678
11.1517	0.68
11.1926	0.68
11.2335	0.678
11.2744	0.678
11.3153	0.68
11.3563	0.692
11.3972	0.7
11.4381	0.702
11.479	0.704
11.5199	0.705
11.5609	0.707
11.6018	0.707
11.6427	0.712
11.6836	0.71
11.7245	0.707
11.7654	0.702
11.8064	0.702
11.8473	0.692
11.8882	0.683
11.9291	0.688
11.97	0.695
12.011	0.7
12.0519	0.705
12.0928	0.709
12.1337	0.714
12.1746	0.715
12.2155	0.719
12.2565	0.717
12.2974	0.717
12.3383	0.714
12.3792	0.714
12.4201	0.714
12.461	0.714
12.502	0.714
12.5429	0.707
12.5838	0.71
12.6247	0.705
12.6656	0.704
12.7066	0.705
12.7475	0.702
12.7884	0.698
12.8293	0.688
12.8702	0.678
12.9111	0.675
12.9521	0.666
12.993	0.651
13.0339	0.649
13.0748	0.644
13.1157	0.644
13.1567	0.642
13.1976	0.639
13.2385	0.636
13.2794	0.63
13.3203	0.625
13.3612	0.619
13.4022	0.608
13.4431	0.603
13.484	0.591
13.5249	0.578
13.5658	0.568
13.6067	0.557
13.6477	0.556
13.6886	0.549
13.7295	0.534
13.7704	0.528
13.8113	0.51
13.8523	0.498
13.8932	0.494
13.9341	0.496
13.975	0.508
14.0159	0.549
14.0568	0.578
14.0978	0.6
14.1387	0.619
14.1796	0.636
14.2205	0.647
14.2614	0.661
14.3023	0.673
14.3433	0.678
14.3842	0.678
14.4251	0.678
14.466	0.681
14.5069	0.678
14.5479	0.678
14.5888	0.683
14.6297	0.683
14.6706	0.68
14.7115	0.678
14.7524	0.676
14.7934	0.676
14.8343	0.676
14.8752	0.676
14.9161	0.673
14.957	0.671
14.998	0.666
15.0389	0.668
15.0798	0.666
15.1207	0.664
15.1616	0.658
15.2025	0.642
15.2435	0.636
15.2844	0.637
15.3253	0.634
15.3662	0.639
15.4071	0.634
15.448	0.637
15.489	0.637
15.5299	0.637
15.5708	0.636
15.6117	0.63
15.6526	0.615
15.6936	0.615
15.7345	0.617
15.7754	0.61
15.8163	0.612
15.8572	0.612
15.8981	0.613
15.9391	0.617
15.98	0.617
