Infrared Spectrum: 1-Chloroethyltrimethylsilane
Formula: C 5 H 13 Cl Si
CAS: 7787-87-3
State: gas
Origin: EPA-IR VAPOR PHASE LIBRARY
1/CM	ABSORBANCE
549.8	0.0051
559.445	0.00569
569.09	0.00444
578.734	0.001681
588.379	0.0017047
598.024	0.00386
607.669	0.00852
617.313	0.01748
626.958	0.02127
636.603	0.01274
646.248	0.00474
655.893	0.00452
665.537	0.00492
675.182	0.00835
684.827	0.01371
694.472	0.02223
704.116	0.02736
713.761	0.02697
723.406	0.02169
733.051	0.01877
742.695	0.02277
752.34	0.03112
761.985	0.03299
771.63	0.02527
781.275	0.01776
790.919	0.01518
800.564	0.01787
810.209	0.02719
819.854	0.05018
829.498	0.10027
839.143	0.15999
848.788	0.16879
858.433	0.13879
868.078	0.10256
877.722	0.06744
887.367	0.04215
897.012	0.0288
906.657	0.0199
916.301	0.01434
925.946	0.01026
935.591	0.00838
945.236	0.00969
954.88	0.01157
964.525	0.01068
974.17	0.00659
983.815	0.00491
993.46	0.00781
1003.1	0.0146
1012.75	0.01812
1022.39	0.01237
1032.04	0.00482
1041.68	0.00275
1051.33	0.00305
1060.97	0.00342
1070.62	0.00365
1080.26	0.00298
1089.91	0.00236
1099.55	0.00082
1109.2	0.000463
1118.84	0.0016855
1128.49	0.0016744
1138.13	0.001175
1147.78	0.0012986
1157.42	0.00353
1167.07	0.00495
1176.71	0.00609
1186.36	0.00561
1196	0.00361
1205.64	0.00264
1215.29	0.00538
1224.93	0.0086
1234.58	0.01908
1244.22	0.04451
1253.87	0.07606
1263.51	0.08129
1273.16	0.05094
1282.8	0.01967
1292.45	0.00917
1302.09	0.00778
1311.74	0.00806
1321.38	0.00689
1331.03	0.00519
1340.67	0.00412
1350.32	0.00374
1359.96	0.00429
1369.61	0.00628
1379.25	0.00844
1388.9	0.00827
1398.54	0.00776
1408.18	0.00828
1417.83	0.00819
1427.47	0.00851
1437.12	0.01057
1446.76	0.01177
1456.41	0.0106
1466.05	0.00887
1475.7	0.00601
1485.34	0.00371
1494.99	0.00286
1504.63	0.0026
1514.28	0.00261
1523.92	0.00249
1533.57	0.0022954
1543.21	0.00241
1552.86	0.0021324
1562.5	0.0021787
1572.15	0.00244
1581.79	0.0020923
1591.44	0.0020473
1601.08	0.0019535
1610.73	0.0019259
1620.37	0.0017002
1630.01	0.0018884
1639.66	0.0017396
1649.3	0.0017705
1658.95	0.002023
1668.59	0.0019635
1678.24	0.0016649
1687.88	0.0015315
1697.53	0.001482
1707.17	0.0014848
1716.82	0.00141756
1726.46	0.001583
1736.11	0.0015816
1745.75	0.0012763
1755.4	0.0012736
1765.04	0.0013148
1774.69	0.0014051
1784.33	0.001211
1793.98	0.00140953
1803.62	0.00142301
1813.27	0.0014875
1822.91	0.0016101
1832.55	0.0015053
1842.2	0.0013126
1851.84	0.00140375
1861.49	0.0018172
1871.13	0.0018978
1880.78	0.0022152
1890.42	0.0021845
1900.07	0.0018357
1909.71	0.0017752
1919.36	0.0017379
1929	0.0020513
1938.65	0.0021586
1948.29	0.002325
1957.94	0.00238
1967.58	0.00251
1977.23	0.0018036
1986.87	0.0019366
1996.52	0.0017707
2006.16	0.0016825
2015.81	0.0017047
2025.45	0.0015304
2035.1	0.0017542
2044.74	0.0015105
2054.38	0.0013354
2064.03	0.0015899
2073.67	0.0012819
2083.32	0.0018146
2092.96	0.0018535
2102.61	0.0019806
2112.25	0.0021478
2121.9	0.0020961
2131.54	0.0019473
2141.19	0.001728
2150.83	0.001492
2160.48	0.00143924
2170.12	0.0015145
2179.77	0.0015788
2189.41	0.0017821
2199.06	0.0014922
2208.7	0.0015022
2218.35	0.0018541
2227.99	0.0014997
2237.64	0.00143858
2247.28	0.0015657
2256.92	0.0012869
2266.57	0.0017181
2276.21	0.0015401
2285.86	0.0014615
2295.5	0.0014673
2305.15	0.0013098
2314.79	0.0015744
2324.44	0.0016615
2334.08	0.00122
2343.73	0.001603
2353.37	0.00142715
2363.02	0.001712
2372.66	0.00139703
2382.31	0.00136717
2391.95	0.00137405
2401.6	0.000942
2411.24	0.0013248
2420.89	0.00134177
2430.53	0.0016025
2440.18	0.0017336
2449.82	0.0018301
2459.47	0.0017089
2469.11	0.00137887
2478.75	0.0015061
2488.4	0.00141127
2498.04	0.0017393
2507.69	0.0014737
2517.33	0.00142023
2526.98	0.0015375
2536.62	0.0016954
2546.27	0.001119
2555.91	0.000938
2565.56	0.001461
2575.2	0.001093
2584.85	0.001115
2594.49	0.00143389
2604.14	0.0014604
2613.78	0.0016756
2623.43	0.00139298
2633.07	0.00136691
2642.72	0.001019
2652.36	0.0016415
2662.01	0.0020214
2671.65	0.00134565
2681.29	0.0015503
2690.94	0.0015495
2700.58	0.00135461
2710.23	0.0019385
2719.87	0.0020724
2729.52	0.0021772
2739.16	0.0023172
2748.81	0.00252
2758.45	0.0022818
2768.1	0.00275
2777.74	0.00326
2787.39	0.00349
2797.03	0.00428
2806.68	0.00513
2816.32	0.00547
2825.97	0.00565
2835.61	0.00596
2845.26	0.00724
2854.9	0.00876
2864.55	0.01205
2874.19	0.01389
2883.84	0.01568
2893.48	0.02115
2903.12	0.02904
2912.77	0.0338
2922.41	0.0345
2932.06	0.02983
2941.7	0.02949
2951.35	0.04429
2960.99	0.0732
2970.64	0.07806
2980.28	0.0537
2989.93	0.02271
2999.57	0.00985
3009.22	0.0072
3018.86	0.00592
3028.51	0.00622
3038.15	0.00572
3047.8	0.00557
3057.44	0.00659
3067.09	0.00615
3076.73	0.00641
3086.38	0.00666
3096.02	0.00593
3105.67	0.0047
3115.31	0.00406
3124.95	0.0041
3134.6	0.00331
3144.24	0.00267
3153.89	0.00274
3163.53	0.0022462
3173.18	0.00261
3182.82	0.00246
3192.47	0.00266
3202.11	0.00235
3211.76	0.0019281
3221.4	0.0017657
3231.05	0.001544
3240.69	0.0016397
3250.34	0.0012834
3259.98	0.0020739
3269.63	0.0016231
3279.27	0.0023183
3288.92	0.001185
3298.56	0.0016775
3308.21	0.000972
3317.85	0.001194
3327.49	0.0019117
3337.14	0.0015469
3346.78	0.000915
3356.43	0.0020193
3366.07	0.0014797
3375.72	0.000914
3385.36	0.000973
3395.01	0.001104
3404.65	0.0018986
3414.3	0.00137547
3423.94	0.0015214
3433.59	0.001097
3443.23	0.0016111
3452.88	0.0017669
3462.52	0.00136624
3472.17	0.001086
3481.81	0.000731
3491.46	0.0019625
3501.1	0.0013033
3510.75	0.0019602
3520.39	0.001201
3530.04	0.0014492
3539.68	0.00143781
3549.32	0.0020428
3558.97	0.0018491
3568.61	0.0015078
3578.26	0.0015215
3587.9	0.0023025
3597.55	0.0016213
3607.19	0.0014571
3616.84	0.0019377
3626.48	0.0019144
3636.13	0.0022454
3645.77	0.0016864
3655.42	0.0018567
3665.06	0.0016883
3674.71	0.0019641
3684.35	0.0015768
3694	0.001676
3703.64	0.0021508
3713.29	0.0026
3722.93	0.001631
3732.58	0.00257
3742.22	0.002125
3751.86	0.0023004
3761.51	0.0021487
3771.15	0.0018121
3780.8	0.0021042
3790.44	0.0018255
3800.09	0.002257
3809.73	0.0023337
3819.38	0.0019217
3829.02	0.0018091
3838.67	0.0015041
3848.31	0.0019207
3857.96	0.0015601
3867.6	0.000979
3877.25	0.0017097
3886.89	0.0016142
3896.54	0.00134055
3906.18	0.001007
3915.83	0.0013011
3925.47	0.0016521
3935.12	0.0015957
3944.76	0.0017422
3954.41	0.001068
3964.05	0.0015344
3973.69	0.0020332
3983.34	0.0013283
3992.98	0.001181
