Infrared Spectrum: Salicylidene aniline
Formula: C 13 H 11 N O
CAS: 779-84-0
State: gas
Origin: EPA-IR VAPOR PHASE LIBRARY
1/CM	ABSORBANCE
549.8	0.00922
559.445	0.00456
569.09	0.00556
578.734	0.00347
588.379	0.00185
598.024	0.00206
607.669	0.00202
617.313	0.00215
626.958	0.00223
636.603	0.00282
646.248	0.00391
655.893	0.00873
665.537	0.01053
675.182	0.01273
684.827	0.02147
694.472	0.02552
704.116	0.01813
713.761	0.01289
723.406	0.01436
733.051	0.0239
742.695	0.04977
752.34	0.07858
761.985	0.05485
771.63	0.03274
781.275	0.02712
790.919	0.01526
800.564	0.00793
810.209	0.00607
819.854	0.00569
829.498	0.00845
839.143	0.01737
848.788	0.01348
858.433	0.00703
868.078	0.00518
877.722	0.00643
887.367	0.01312
897.012	0.01954
906.657	0.02165
916.301	0.02476
925.946	0.00863
935.591	0.00445
945.236	0.00307
954.88	0.00315
964.525	0.00429
974.17	0.00613
983.815	0.00546
993.46	0.00306
1003.1	0.0028
1012.75	0.0044
1022.39	0.0108
1032.04	0.01069
1041.68	0.0044
1051.33	0.00281
1060.97	0.00395
1070.62	0.00447
1080.26	0.00421
1089.91	0.00302
1099.55	0.00569
1109.2	0.00822
1118.84	0.01145
1128.49	0.0051
1138.13	0.01171
1147.78	0.0425
1157.42	0.02886
1167.07	0.03326
1176.71	0.04273
1186.36	0.06394
1196	0.03765
1205.64	0.01449
1215.29	0.01305
1224.93	0.01394
1234.58	0.01296
1244.22	0.0088
1253.87	0.00991
1263.51	0.01829
1273.16	0.03774
1282.8	0.05222
1292.45	0.03633
1302.09	0.02009
1311.74	0.01303
1321.38	0.00831
1331.03	0.00468
1340.67	0.00443
1350.32	0.00692
1359.96	0.01259
1369.61	0.01543
1379.25	0.01467
1388.9	0.01371
1398.54	0.01243
1408.18	0.01246
1417.83	0.01224
1427.47	0.01165
1437.12	0.01296
1446.76	0.01706
1456.41	0.02315
1466.05	0.03119
1475.7	0.05108
1485.34	0.07673
1494.99	0.04915
1504.63	0.02888
1514.28	0.01784
1523.92	0.01567
1533.57	0.01416
1543.21	0.0146
1552.86	0.01914
1562.5	0.03654
1572.15	0.0792
1581.79	0.09435
1591.44	0.09306
1601.08	0.07567
1610.73	0.07525
1620.37	0.17756
1630.01	0.14335
1639.66	0.03642
1649.3	0.01609
1658.95	0.01127
1668.59	0.01073
1678.24	0.01074
1687.88	0.00793
1697.53	0.00537
1707.17	0.00522
1716.82	0.00463
1726.46	0.00402
1736.11	0.00339
1745.75	0.00312
1755.4	0.00306
1765.04	0.00307
1774.69	0.00442
1784.33	0.005
1793.98	0.00324
1803.62	0.00264
1813.27	0.00297
1822.91	0.00333
1832.55	0.00278
1842.2	0.00255
1851.84	0.003
1861.49	0.00359
1871.13	0.00361
1880.78	0.00269
1890.42	0.00271
1900.07	0.00312
1909.71	0.00254
1919.36	0.00263
1929	0.00432
1938.65	0.00597
1948.29	0.00437
1957.94	0.00275
1967.58	0.00132
1977.23	0.00117
1986.87	0.00113
1996.52	0.00114
2006.16	0.00128
2015.81	0.00144
2025.45	0.0013
2035.1	0.00142
2044.74	0.00146
2054.38	0.0019
2064.03	0.00196
2073.67	0.00173
2083.32	0.00154
2092.96	0.00136
2102.61	0.00117
2112.25	0.00122
2121.9	0.00125
2131.54	0.00124
2141.19	0.00131
2150.83	0.0014
2160.48	0.00141
2170.12	0.00137
2179.77	0.00143
2189.41	0.00172
2199.06	0.00175
2208.7	0.00162
2218.35	0.00162
2227.99	0.00173
2237.64	0.00171
2247.28	0.00177
2256.92	0.00194
2266.57	0.00214
2276.21	0.00193
2285.86	0.00169
2295.5	0.00187
2305.15	0.00197
2314.79	0.00245
2324.44	0.00257
2334.08	0.00296
2343.73	0.00296
2353.37	0.00267
2363.02	0.00272
2372.66	0.00273
2382.31	0.00293
2391.95	0.00311
2401.6	0.00312
2411.24	0.00305
2420.89	0.0031
2430.53	0.00328
2440.18	0.00341
2449.82	0.00329
2459.47	0.00344
2469.11	0.00362
2478.75	0.00362
2488.4	0.00369
2498.04	0.00403
2507.69	0.00431
2517.33	0.00463
2526.98	0.00452
2536.62	0.0047
2546.27	0.00494
2555.91	0.0053
2565.56	0.00555
2575.2	0.00568
2584.85	0.00605
2594.49	0.0064
2604.14	0.00674
2613.78	0.00688
2623.43	0.00727
2633.07	0.00736
2642.72	0.00734
2652.36	0.00736
2662.01	0.0072
2671.65	0.00711
2681.29	0.007
2690.94	0.00734
2700.58	0.00794
2710.23	0.00855
2719.87	0.00899
2729.52	0.00925
2739.16	0.00973
2748.81	0.01033
2758.45	0.01092
2768.1	0.01118
2777.74	0.01093
2787.39	0.01072
2797.03	0.01052
2806.68	0.01045
2816.32	0.01069
2825.97	0.01119
2835.61	0.01207
2845.26	0.01329
2854.9	0.01444
2864.55	0.01508
2874.19	0.0172
2883.84	0.02096
2893.48	0.02114
2903.12	0.01712
2912.77	0.01448
2922.41	0.01406
2932.06	0.01467
2941.7	0.01473
2951.35	0.01407
2960.99	0.01404
2970.64	0.01499
2980.28	0.01675
2989.93	0.0194
2999.57	0.01974
3009.22	0.02021
3018.86	0.02243
3028.51	0.0266
3038.15	0.0307
3047.8	0.02945
3057.44	0.03205
3067.09	0.0461
3076.73	0.05302
3086.38	0.0361
3096.02	0.02934
3105.67	0.023
3115.31	0.01911
3124.95	0.01678
3134.6	0.01583
3144.24	0.01554
3153.89	0.01566
3163.53	0.01578
3173.18	0.01534
3182.82	0.01483
3192.47	0.01453
3202.11	0.01386
3211.76	0.01362
3221.4	0.01383
3231.05	0.01395
3240.69	0.01365
3250.34	0.01268
3259.98	0.01188
3269.63	0.01116
3279.27	0.01038
3288.92	0.00973
3298.56	0.0094
3308.21	0.00878
3317.85	0.00827
3327.49	0.00769
3337.14	0.00706
3346.78	0.00663
3356.43	0.00594
3366.07	0.00542
3375.72	0.00494
3385.36	0.00459
3395.01	0.00433
3404.65	0.00356
3414.3	0.00321
3423.94	0.00316
3433.59	0.00297
3443.23	0.00263
3452.88	0.00236
3462.52	0.0022
3472.17	0.00204
3481.81	0.00167
3491.46	0.00146
3501.1	0.00137
3510.75	0.00141
3520.39	0.00126
3530.04	0.00106
3539.68	0.00108
3549.32	0.0009132
3558.97	0.00089
3568.61	0.0005949
3578.26	0.0008234
3587.9	0.0005917
3597.55	0.0008519
3607.19	0.0006219
3616.84	0.0008889
3626.48	0.0006585
3636.13	0.0006799
3645.77	0.0007228
3655.42	0.0007287
3665.06	0.0006161
3674.71	0.0005277
3684.35	0.0004176
3694	0.000448
3703.64	0.0005126
3713.29	0.0006117
3722.93	0.0005903
3732.58	0.0005293
3742.22	0.000313
3751.86	0.0003174
3761.51	0.0003557
3771.15	0.0003563
3780.8	0.0002942
3790.44	0.0003597
3800.09	0.0004931
3809.73	0.0006137
3819.38	0.0006683
3829.02	0.000512
3838.67	0.0004014
3848.31	0.0004839
3857.96	0.000539
3867.6	0.0007433
3877.25	0.0005879
3886.89	0.0006539
3896.54	0.0005459
3906.18	0.0004378
3915.83	0.0006063
3925.47	0.0007161
3935.12	0.0008423
3944.76	0.0005433
3954.41	0.0008601
3964.05	0.000624
3973.69	0.0005713
3983.34	0.0006725
3992.98	0.000695
