Infrared Spectrum: 3-Acetamidocoumarin
Formula: C 11 H 9 N O 3
CAS: 779-30-6
State: gas
Origin: EPA-IR VAPOR PHASE LIBRARY
1/CM	ABSORBANCE
549.8	0.001164
559.445	0.0021149
569.09	0.00254
578.734	0.00295
588.379	0.00365
598.024	0.00382
607.669	0.0021532
617.313	0.000925
626.958	0.0017861
636.603	0.002091
646.248	0.0015881
655.893	0.0017642
665.537	0.001463
675.182	0.001191
684.827	0.0012331
694.472	0.00130218
704.116	0.0016007
713.761	0.001162
723.406	0.00135439
733.051	0.0017979
742.695	0.00381
752.34	0.0063
761.985	0.00311
771.63	0.0016521
781.275	0.0015036
790.919	0.00130296
800.564	0.0019855
810.209	0.0015489
819.854	0.00428
829.498	0.000808
839.143	0.001131
848.788	0.0018708
858.433	0.0014119
868.078	0.0014011
877.722	0.0015267
887.367	0.0012746
897.012	0.0018237
906.657	0.00255
916.301	0.0022058
925.946	0.00262
935.591	0.00279
945.236	0.0022757
954.88	0.00132671
964.525	0.001167
974.17	0.0017856
983.815	0.0014436
993.46	0.0016081
1003.1	0.000963
1012.75	0.0017131
1022.39	0.0014776
1032.04	0.001172
1041.68	0.0014597
1051.33	0.000738
1060.97	0.000533
1070.62	0.0016031
1080.26	5e-05
1089.91	0.000919
1099.55	0.0016863
1109.2	0.00367
1118.84	0.00277
1128.49	0.00396
1138.13	0.00734
1147.78	0.00393
1157.42	0.00249
1167.07	0.00312
1176.71	0.0048
1186.36	0.0021134
1196	0.00387
1205.64	0.0037
1215.29	0.00421
1224.93	0.01022
1234.58	0.01062
1244.22	0.00647
1253.87	0.00411
1263.51	0.00303
1273.16	0.002286
1282.8	0.00353
1292.45	0.00325
1302.09	0.00268
1311.74	0.00243
1321.38	0.00253
1331.03	0.00298
1340.67	0.00564
1350.32	0.01171
1359.96	0.0102
1369.61	0.00847
1379.25	0.00612
1388.9	0.00388
1398.54	0.00252
1408.18	0.0022831
1417.83	0.0021471
1427.47	0.00258
1437.12	0.00281
1446.76	0.00395
1456.41	0.00697
1466.05	0.00604
1475.7	0.00709
1485.34	0.00908
1494.99	0.00822
1504.63	0.01454
1514.28	0.02431
1523.92	0.02094
1533.57	0.0096
1543.21	0.00453
1552.86	0.0031
1562.5	0.00261
1572.15	0.00231
1581.79	0.0024
1591.44	0.00291
1601.08	0.00324
1610.73	0.00298
1620.37	0.00354
1630.01	0.00418
1639.66	0.00385
1649.3	0.00295
1658.95	0.0022556
1668.59	0.0024
1678.24	0.00268
1687.88	0.00311
1697.53	0.0041
1707.17	0.00745
1716.82	0.01642
1726.46	0.02531
1736.11	0.02818
1745.75	0.02372
1755.4	0.01033
1765.04	0.00409
1774.69	0.00306
1784.33	0.00249
1793.98	0.00204
1803.62	0.0018286
1813.27	0.0019507
1822.91	0.0018238
1832.55	0.0016135
1842.2	0.0015582
1851.84	0.0017198
1861.49	0.0016409
1871.13	0.0014813
1880.78	0.0015333
1890.42	0.00135737
1900.07	0.0012325
1909.71	0.0014102
1919.36	0.001305
1929	0.0014176
1938.65	0.0015529
1948.29	0.00130758
1957.94	0.001148
1967.58	0.0012118
1977.23	0.001134
1986.87	0.001182
1996.52	0.001071
2006.16	0.00146
2015.81	0.0012806
2025.45	0.0012074
2035.1	0.00137911
2044.74	0.00131347
2054.38	0.0012772
2064.03	0.00117
2073.67	0.00133298
2083.32	0.001087
2092.96	0.001185
2102.61	0.0012486
2112.25	0.0012669
2121.9	0.001121
2131.54	0.0012117
2141.19	0.0012534
2150.83	0.001163
2160.48	0.00138569
2170.12	0.0012688
2179.77	0.0012362
2189.41	0.001214
2199.06	0.000932
2208.7	0.000927
2218.35	0.001182
2227.99	0.0012748
2237.64	0.001074
2247.28	0.0012845
2256.92	0.0012046
2266.57	0.0015795
2276.21	0.0017331
2285.86	0.00131307
2295.5	0.00132939
2305.15	0.00138196
2314.79	0.001116
2324.44	0.001178
2334.08	0.00135643
2343.73	0.001161
2353.37	0.0012385
2363.02	0.0015104
2372.66	0.0014262
2382.31	0.0014307
2391.95	0.00138807
2401.6	0.00137424
2411.24	0.0013661
2420.89	0.001112
2430.53	0.00129712
2440.18	0.0014995
2449.82	0.0012184
2459.47	0.0013258
2469.11	0.001261
2478.75	0.001019
2488.4	0.0014855
2498.04	0.0012193
2507.69	0.00130035
2517.33	0.00136757
2526.98	0.0015351
2536.62	0.00139594
2546.27	0.00132324
2555.91	0.001182
2565.56	0.0012888
2575.2	0.0012094
2584.85	0.001161
2594.49	0.000944
2604.14	0.0014676
2613.78	0.000824
2623.43	0.001163
2633.07	0.000985
2642.72	0.0012437
2652.36	0.0012421
2662.01	0.0016681
2671.65	0.00130891
2681.29	0.001033
2690.94	0.001245
2700.58	0.0015478
2710.23	0.00130391
2719.87	0.0013807
2729.52	0.0015075
2739.16	0.0013879
2748.81	0.0018385
2758.45	0.001173
2768.1	0.0017701
2777.74	0.00129329
2787.39	0.001127
2797.03	0.0012106
2806.68	0.0012696
2816.32	0.00159
2825.97	0.0012612
2835.61	0.0016555
2845.26	0.00129932
2854.9	0.001538
2864.55	0.0012117
2874.19	0.00130445
2883.84	0.00135205
2893.48	0.0012217
2903.12	0.001148
2912.77	0.00129736
2922.41	0.00131621
2932.06	0.0014295
2941.7	0.0021018
2951.35	0.0014508
2960.99	0.0014522
2970.64	0.0016232
2980.28	0.0013333
2989.93	0.001425
2999.57	0.0012917
3009.22	0.00138637
3018.86	0.00129149
3028.51	0.0014029
3038.15	0.0016471
3047.8	0.0019093
3057.44	0.0012538
3067.09	0.0021021
3076.73	0.002226
3086.38	0.00238
3096.02	0.0017845
3105.67	0.0015454
3115.31	0.001182
3124.95	0.0012183
3134.6	0.000933
3144.24	0.00138495
3153.89	0.000909
3163.53	0.001656
3173.18	0.00134032
3182.82	0.0014345
3192.47	0.001144
3202.11	0.001193
3211.76	0.001067
3221.4	0.00133633
3231.05	0.001
3240.69	0.00101
3250.34	0.000455
3259.98	0.001078
3269.63	0.001125
3279.27	0.000832
3288.92	0.001072
3298.56	0.000726
3308.21	0.001098
3317.85	0.00084
3327.49	0.000846
3337.14	0.0018704
3346.78	0.00130894
3356.43	0.0012808
3366.07	0.0012768
3375.72	0.00113
3385.36	0.001012
3395.01	0.00233
3404.65	0.00362
3414.3	0.00487
3423.94	0.00255
3433.59	0.0014987
3443.23	0.0016253
3452.88	0.001053
3462.52	0.00139499
3472.17	0.00132922
3481.81	0.001173
3491.46	0.0012154
3501.1	0.0016202
3510.75	0.000985
3520.39	0.000795
3530.04	0.000855
3539.68	0.000832
3549.32	0.000624
3558.97	0.0012742
3568.61	0.001173
3578.26	0.000865
3587.9	0.000868
3597.55	0.001067
3607.19	0.0015724
3616.84	0.0012328
3626.48	0.000781
3636.13	0.000874
3645.77	0.000951
3655.42	0.000659
3665.06	0.000978
3674.71	0.0015391
3684.35	0.000883
3694	0.000494
3703.64	0.000954
3713.29	0.000838
3722.93	0.000923
3732.58	0.000683
3742.22	0.000793
3751.86	0.00078
3761.51	0.000912
3771.15	0.001099
3780.8	0.001068
3790.44	0.000895
3800.09	0.00058
3809.73	0.000806
3819.38	0.001054
3829.02	0.00055
3838.67	0.001158
3848.31	0.000392
3857.96	0.000802
3867.6	0.000746
3877.25	0.000551
3886.89	0.000559
3896.54	0.001026
3906.18	0.0016871
3915.83	0.00102
3925.47	0.001195
3935.12	0.0012226
3944.76	0.001144
3954.41	0.001445
3964.05	0.0014171
3973.69	0.001096
3983.34	0.001097
3992.98	0.000755
