Infrared Spectrum: AMMONIUM PERCHLORATE
Formula: N H4 Cl O4
CAS: 7790-98-9
State: SOLID (NUJOL MULL)
Class: COBLENTZ
Instrument: Not specified, most likely a prism, grating, or hybrid spectrometer.
Sampling: TRANSMISSION
Resolution: 4
Origin: MELLON INSTITUTE
MICROMETERS	TRANSMITTANCE
2.067	0.978
2.10698	0.974
2.14695	0.971
2.18693	0.988
2.2269	0.993
2.26688	0.986
2.30686	0.981
2.34683	0.984
2.38681	0.989
2.42678	0.989
2.46676	1.001
2.50674	1.006
2.54671	1
2.58669	1.006
2.62666	1.008
2.66664	0.991
2.70662	1.001
2.74659	0.993
2.78657	0.989
2.82654	0.956
2.86652	0.863
2.9065	0.724
2.94647	0.589
2.98645	0.398
3.02642	0.29
3.0664	0.449
3.10638	0.597
3.14635	0.729
3.18633	0.794
3.22631	0.838
3.26628	0.861
3.30626	0.779
3.34623	0.387
3.38621	0.275
3.42619	0.469
3.46616	0.499
3.50614	0.866
3.54611	0.944
3.58609	0.973
3.62607	0.983
3.66604	0.983
3.70602	0.984
3.74599	0.986
3.78597	0.986
3.82595	0.989
3.86592	0.991
3.9059	0.991
3.94587	0.991
3.98585	0.991
4.02583	0.991
4.0658	0.989
4.10578	0.989
4.14575	0.986
4.18573	0.976
4.22571	0.953
4.26568	0.948
4.30566	0.943
4.34563	0.941
4.38561	0.954
4.42559	0.958
4.46556	0.956
4.50554	0.951
4.54551	0.944
4.58549	0.934
4.62547	0.931
4.66544	0.923
4.70542	0.921
4.74539	0.928
4.78537	0.926
4.82535	0.923
4.86532	0.914
4.9053	0.903
4.94527	0.899
4.98525	0.896
5.02523	0.893
5.0652	0.889
5.10518	0.893
5.14515	0.899
5.18513	0.899
5.22511	0.901
5.26508	0.899
5.30506	0.899
5.34504	0.899
5.38501	0.896
5.42499	0.898
5.46496	0.894
5.50494	0.889
5.54492	0.893
5.58489	0.898
5.62487	0.889
5.66484	0.893
5.70482	0.889
5.7448	0.886
5.78477	0.888
5.82475	0.898
5.86472	0.893
5.9047	0.889
5.94468	0.888
5.98465	0.884
6.02463	0.893
6.0646	0.888
6.10458	0.888
6.14456	0.886
6.18453	0.888
6.22451	0.886
6.26448	0.879
6.30446	0.869
6.34444	0.858
6.38441	0.851
6.42439	0.843
6.46436	0.839
6.50434	0.826
6.54432	0.821
6.58429	0.818
6.62427	0.801
6.66424	0.784
6.70422	0.742
6.7442	0.681
6.78417	0.609
6.82415	0.484
6.86412	0.43
6.9041	0.378
6.94408	0.315
6.98405	0.27
7.02403	0.245
7.064	0.245
7.10398	0.302
7.14396	0.375
7.18393	0.475
7.22391	0.509
7.26388	0.534
7.30386	0.617
7.34384	0.679
7.38381	0.716
7.42379	0.737
7.46377	0.759
7.50374	0.777
7.54372	0.797
7.58369	0.813
7.62367	0.818
7.66365	0.823
7.70362	0.831
7.7436	0.841
7.78357	0.848
7.82355	0.853
7.86353	0.863
7.9035	0.866
7.94348	0.869
7.98345	0.866
8.02343	0.866
8.06341	0.868
8.10338	0.871
8.14336	0.869
8.18333	0.869
8.22331	0.863
8.26329	0.856
8.30326	0.849
8.34324	0.843
8.38321	0.833
8.42319	0.813
8.46317	0.799
8.50314	0.769
8.54312	0.707
8.58309	0.627
8.62307	0.554
8.66305	0.472
8.70302	0.404
8.743	0.342
8.78297	0.298
8.82295	0.272
8.86293	0.26
8.9029	0.253
8.94288	0.237
8.98285	0.223
9.02283	0.217
9.06281	0.205
9.10278	0.198
9.14276	0.191
9.18273	0.185
9.22271	0.178
9.26269	0.171
9.30266	0.165
9.34264	0.16
9.38261	0.155
9.42259	0.153
9.46257	0.153
9.50254	0.156
9.54252	0.175
9.5825	0.225
9.62247	0.28
9.66245	0.333
9.70242	0.38
9.7424	0.434
9.78238	0.472
9.82235	0.517
9.86233	0.557
9.9023	0.582
9.94228	0.595
9.98226	0.616
10.0222	0.634
10.0622	0.651
10.1022	0.666
10.1422	0.682
10.1821	0.689
10.2221	0.699
10.2621	0.712
10.3021	0.724
10.342	0.731
10.382	0.739
10.422	0.751
10.462	0.757
10.5019	0.766
10.5419	0.771
10.5819	0.779
10.6219	0.789
10.6618	0.792
10.7018	0.782
10.7418	0.782
10.7818	0.787
10.8218	0.794
10.8617	0.799
10.9017	0.808
10.9417	0.816
10.9817	0.826
11.0216	0.836
11.0616	0.843
11.1016	0.851
11.1416	0.856
11.1815	0.861
11.2215	0.861
11.2615	0.864
11.3015	0.864
11.3414	0.868
11.3814	0.871
11.4214	0.873
11.4614	0.878
11.5013	0.883
11.5413	0.886
11.5813	0.891
11.6213	0.896
11.6612	0.896
11.7012	0.898
11.7412	0.901
11.7812	0.904
11.8212	0.909
11.8611	0.913
11.9011	0.913
11.9411	0.913
11.9811	0.916
12.021	0.918
12.061	0.923
12.101	0.923
12.141	0.923
12.1809	0.928
12.2209	0.928
12.2609	0.924
12.3009	0.924
12.3408	0.928
12.3808	0.929
12.4208	0.923
12.4608	0.923
12.5007	0.926
12.5407	0.929
12.5807	0.933
12.6207	0.934
12.6607	0.936
12.7006	0.936
12.7406	0.936
12.7806	0.939
12.8206	0.939
12.8605	0.939
12.9005	0.934
12.9405	0.939
12.9805	0.939
13.0204	0.938
13.0604	0.936
13.1004	0.938
13.1404	0.939
13.1803	0.943
13.2203	0.946
13.2603	0.944
13.3003	0.944
13.3402	0.948
13.3802	0.951
13.4202	0.949
13.4602	0.948
13.5001	0.948
13.5401	0.948
13.5801	0.948
13.6201	0.949
13.6601	0.946
13.7	0.948
13.74	0.946
13.78	0.944
13.82	0.939
13.8599	0.934
13.8999	0.936
13.9399	0.934
13.9799	0.936
14.0198	0.938
14.0598	0.943
14.0998	0.944
14.1398	0.949
14.1797	0.943
14.2197	0.941
14.2597	0.936
14.2997	0.933
14.3396	0.926
14.3796	0.924
14.4196	0.916
14.4596	0.914
14.4995	0.909
14.5395	0.909
14.5795	0.904
14.6195	0.901
14.6595	0.898
14.6994	0.898
14.7394	0.896
14.7794	0.894
14.8194	0.883
14.8593	0.873
14.8993	0.869
14.9393	0.868
14.9793	0.864
15.0192	0.859
15.0592	0.854
15.0992	0.848
15.1392	0.836
15.1791	0.828
15.2191	0.823
15.2591	0.818
15.2991	0.809
15.339	0.804
15.379	0.797
15.419	0.784
15.459	0.767
15.4989	0.731
15.5389	0.699
15.5789	0.677
15.6189	0.659
15.6589	0.641
15.6988	0.629
15.7388	0.616
15.7788	0.607
15.8188	0.604
15.8587	0.604
15.8987	0.604
15.9387	0.602
15.9787	0.604
16.0186	0.606
