Infrared Spectrum: (4R,5S)-(+)-4-Methyl-5-phenyl-2-oxazolidinone
Formula: C 10 H 11 N O 2
CAS: 77943-39-6
State: gas
Origin: EPA-IR VAPOR PHASE LIBRARY
1/CM	ABSORBANCE
549.8	0.002535
559.445	0.002715
569.09	0.003975
578.734	0.004025
588.379	0.003305
598.024	0.003265
607.669	0.002995
617.313	0.003115
626.958	0.003885
636.603	0.002945
646.248	0.002605
655.893	0.002885
665.537	0.003525
675.182	0.004025
684.827	0.009075
694.472	0.016455
704.116	0.016445
713.761	0.011875
723.406	0.012505
733.051	0.012695
742.695	0.012345
752.34	0.012575
761.985	0.012825
771.63	0.010395
781.275	0.006205
790.919	0.004925
800.564	0.004365
810.209	0.004685
819.854	0.003305
829.498	0.003065
839.143	0.002425
848.788	0.002025
858.433	0.001585
868.078	0.002015
877.722	0.003525
887.367	0.004525
897.012	0.003725
906.657	0.004005
916.301	0.006455
925.946	0.009275
935.591	0.016305
945.236	0.016795
954.88	0.010075
964.525	0.007845
974.17	0.007675
983.815	0.009385
993.46	0.016315
1003.1	0.025845
1012.75	0.026445
1022.39	0.023295
1032.04	0.021695
1041.68	0.018565
1051.33	0.012825
1060.97	0.010695
1070.62	0.010195
1080.26	0.009795
1089.91	0.014975
1099.55	0.015975
1109.2	0.014985
1118.84	0.019575
1128.49	0.017065
1138.13	0.009435
1147.78	0.005755
1157.42	0.006635
1167.07	0.008915
1176.71	0.012945
1186.36	0.022195
1196	0.032175
1205.64	0.036525
1215.29	0.026935
1224.93	0.013095
1234.58	0.007185
1244.22	0.005235
1253.87	0.004085
1263.51	0.003955
1273.16	0.004555
1282.8	0.006195
1292.45	0.006355
1302.09	0.007515
1311.74	0.010955
1321.38	0.018365
1331.03	0.025435
1340.67	0.020955
1350.32	0.017925
1359.96	0.019075
1369.61	0.021085
1379.25	0.023825
1388.9	0.023135
1398.54	0.012615
1408.18	0.005745
1417.83	0.003635
1427.47	0.003085
1437.12	0.003775
1446.76	0.006685
1456.41	0.008865
1466.05	0.005525
1475.7	0.002675
1485.34	0.003145
1494.99	0.005245
1504.63	0.004065
1514.28	0.002275
1523.92	0.002345
1533.57	0.002395
1543.21	0.001825
1552.86	0.0012413
1562.5	0.001054
1572.15	0.0010168
1581.79	0.0012307
1591.44	0.001376
1601.08	0.001925
1610.73	0.001475
1620.37	0.0008065
1630.01	0.0009022
1639.66	0.0009915
1649.3	0.0009713
1658.95	0.0011763
1668.59	0.0011851
1678.24	0.0011581
1687.88	0.001455
1697.53	0.001785
1707.17	0.002305
1716.82	0.002605
1726.46	0.002685
1736.11	0.003445
1745.75	0.004815
1755.4	0.007925
1765.04	0.012055
1774.69	0.016255
1784.33	0.024285
1793.98	0.055595
1803.62	0.139615
1813.27	0.233825
1822.91	0.195285
1832.55	0.090045
1842.2	0.038105
1851.84	0.021675
1861.49	0.016185
1871.13	0.014155
1880.78	0.011935
1890.42	0.009115
1900.07	0.006605
1909.71	0.004915
1919.36	0.004595
1929	0.004185
1938.65	0.004235
1948.29	0.004045
1957.94	0.003085
1967.58	0.002405
1977.23	0.001675
1986.87	0.0012304
1996.52	0.0010273
2006.16	0.0010146
2015.81	0.0007642
2025.45	0.0010436
2035.1	0.0008654
2044.74	0.0006531
2054.38	0.0008447
2064.03	0.0010167
2073.67	0.0009942
2083.32	0.0009008
2092.96	0.0007566
2102.61	0.000927
2112.25	0.0005936
2121.9	0.0007062
2131.54	0.0008052
2141.19	0.0007446
2150.83	0.00050824
2160.48	0.000676
2170.12	0.00047146
2179.77	0.000771
2189.41	0.000671
2199.06	0.0007519
2208.7	0.0007857
2218.35	0.0006677
2227.99	0.0006895
2237.64	0.0005742
2247.28	0.0007127
2256.92	0.0009
2266.57	0.0007738
2276.21	0.0005885
2285.86	0.00050079
2295.5	0.0006407
2305.15	0.00053079
2314.79	0.0006498
2324.44	0.0006148
2334.08	0.0006354
2343.73	0.0008184
2353.37	0.000449121
2363.02	0.0005464
2372.66	0.0007646
2382.31	0.0007008
2391.95	0.0006592
2401.6	0.0006724
2411.24	0.00049314
2420.89	0.0006324
2430.53	0.0006446
2440.18	0.0004244
2449.82	0.0006422
2459.47	0.000402
2469.11	0.0003966
2478.75	0.00050331
2488.4	0.000292
2498.04	0.0004203
2507.69	0.00048216
2517.33	0.0005603
2526.98	0.0007123
2536.62	0.0006786
2546.27	0.0005907
2555.91	0.0004118
2565.56	0.00049992
2575.2	0.0006178
2584.85	0.00050784
2594.49	0.000452546
2604.14	0.00048601
2613.78	0.0003873
2623.43	0.0008271
2633.07	0.00043619
2642.72	0.0007388
2652.36	0.0004045
2662.01	0.0006248
2671.65	0.00049697
2681.29	0.0005691
2690.94	0.0008266
2700.58	0.0008142
2710.23	0.000975
2719.87	0.0007968
2729.52	0.0008013
2739.16	0.0008435
2748.81	0.0007006
2758.45	0.0008343
2768.1	0.0009193
2777.74	0.0007003
2787.39	0.0004432
2797.03	0.0007083
2806.68	0.000745
2816.32	0.0007145
2825.97	0.0009829
2835.61	0.0011691
2845.26	0.0010673
2854.9	0.001535
2864.55	0.002675
2874.19	0.004565
2883.84	0.006635
2893.48	0.007355
2903.12	0.007575
2912.77	0.006955
2922.41	0.006985
2932.06	0.010295
2941.7	0.012415
2951.35	0.009235
2960.99	0.007275
2970.64	0.012695
2980.28	0.015455
2989.93	0.009415
2999.57	0.005185
3009.22	0.003015
3018.86	0.003965
3028.51	0.007145
3038.15	0.008125
3047.8	0.005795
3057.44	0.005565
3067.09	0.008415
3076.73	0.009365
3086.38	0.006005
3096.02	0.004485
3105.67	0.003325
3115.31	0.002045
3124.95	0.0011971
3134.6	0.0009929
3144.24	0.0007143
3153.89	0.0009601
3163.53	0.0009261
3173.18	0.0007246
3182.82	0.0009463
3192.47	0.0008106
3202.11	0.0008291
3211.76	0.0004331
3221.4	0.0005182
3231.05	0.0007838
3240.69	0.000198
3250.34	0.000335
3259.98	0.0006219
3269.63	0.0004094
3279.27	0.000281
3288.92	0.00047793
3298.56	0.000319
3308.21	0.00048399
3317.85	0.000356
3327.49	0.000297
3337.14	0.000141
3346.78	0.0004071
3356.43	0.000207
3366.07	0.00049984
3375.72	0.000223
3385.36	0.0006529
3395.01	0.0003808
3404.65	0.0007432
3414.3	0.0006227
3423.94	0.0007544
3433.59	0.0005959
3443.23	0.0011887
3452.88	0.001935
3462.52	0.005055
3472.17	0.013665
3481.81	0.014505
3491.46	0.005855
3501.1	0.001725
3510.75	0.0012143
3520.39	0.0009752
3530.04	0.0008476
3539.68	0.0006921
3549.32	0.00050687
3558.97	0.0008407
3568.61	0.00052078
3578.26	0.0011401
3587.9	0.001455
3597.55	0.001845
3607.19	0.001905
3616.84	0.002175
3626.48	0.0012178
3636.13	0.0012985
3645.77	0.0009939
3655.42	0.0009154
3665.06	0.0005924
3674.71	0.0005813
3684.35	0.000785
3694	0.0007958
3703.64	0.0005875
3713.29	0.000335
3722.93	0.0006567
3732.58	0.0003979
3742.22	0.00051217
3751.86	0.0004223
3761.51	0.000321
3771.15	0.0006378
3780.8	0.00047792
3790.44	0.000312
3800.09	0.0010845
3809.73	0.0009674
3819.38	0.000213
3829.02	0.000187
3838.67	0.0005841
3848.31	0.0010414
3857.96	0.0007418
3867.6	0.000307
3877.25	0.0005512
3886.89	0.0010716
3896.54	0.000287
3906.18	0.0005485
3915.83	0.0006849
3925.47	0.00054072
3935.12	0.00053138
3944.76	0.0008546
3954.41	0.0009102
3964.05	0.0007535
3973.69	0.0004011
3983.34	0.00044021
3992.98	0.0008716
