Infrared Spectrum: DIBUTYL[(MALEOYL)DIOXY] TIN
Formula: C12 H20 O4 Sn
CAS: 78-04-6
State: SOLID (KBr WAFER)
Class: COBLENTZ
Instrument: BECKMAN IR-4 (HYBRID PRISM-GRATING)
Sampling: TRANSMISSION
Resolution: 4
Origin: FLUKA AG, BUCHS, SWITZERLAND
MICROMETERS	TRANSMITTANCE
2.015	0.757
2.05001	0.759
2.08503	0.761
2.12004	0.766
2.15505	0.769
2.19007	0.756
2.22508	0.747
2.26009	0.746
2.29511	0.745
2.33012	0.749
2.36513	0.747
2.40015	0.744
2.43516	0.749
2.47018	0.744
2.50519	0.752
2.5402	0.746
2.57522	0.75
2.61023	0.74
2.64524	0.744
2.68026	0.739
2.71527	0.727
2.75028	0.708
2.7853	0.703
2.82031	0.7
2.85532	0.69
2.89034	0.7
2.92535	0.717
2.96036	0.739
2.99538	0.746
3.03039	0.752
3.0654	0.757
3.10042	0.755
3.13543	0.747
3.17044	0.745
3.20546	0.737
3.24047	0.707
3.27548	0.666
3.3105	0.54
3.34551	0.375
3.38053	0.39
3.41554	0.549
3.45055	0.548
3.48557	0.72
3.52058	0.797
3.55559	0.808
3.59061	0.816
3.62562	0.819
3.66063	0.83
3.69565	0.833
3.73066	0.834
3.76567	0.838
3.80069	0.839
3.8357	0.836
3.87071	0.838
3.90573	0.84
3.94074	0.849
3.97575	0.853
4.01077	0.851
4.04578	0.853
4.08079	0.846
4.11581	0.846
4.15082	0.849
4.18584	0.851
4.22085	0.856
4.25586	0.858
4.29088	0.861
4.32589	0.86
4.3609	0.858
4.39592	0.86
4.43093	0.863
4.46594	0.861
4.50096	0.86
4.53597	0.855
4.57098	0.86
4.606	0.859
4.64101	0.858
4.67602	0.856
4.71104	0.86
4.74605	0.86
4.78106	0.858
4.81608	0.859
4.85109	0.856
4.8861	0.855
4.92112	0.854
4.95613	0.859
4.99115	0.86
5.02616	0.856
5.06117	0.849
5.09619	0.849
5.1312	0.848
5.16621	0.848
5.20123	0.848
5.23624	0.844
5.27125	0.841
5.30627	0.83
5.34128	0.828
5.37629	0.829
5.41131	0.833
5.44632	0.835
5.48133	0.825
5.51635	0.82
5.55136	0.816
5.58637	0.808
5.62139	0.797
5.6564	0.781
5.69141	0.749
5.72643	0.72
5.76144	0.696
5.79645	0.646
5.83147	0.608
5.86648	0.572
5.9015	0.508
5.93651	0.455
5.97152	0.375
6.00654	0.313
6.04155	0.283
6.07656	0.243
6.11158	0.199
6.14659	0.158
6.1816	0.13
6.21662	0.106
6.25163	0.06
6.28664	0.046
6.32166	0.058
6.35667	0.125
6.39168	0.19
6.4267	0.198
6.46171	0.188
6.49672	0.181
6.53174	0.171
6.56675	0.173
6.60176	0.181
6.63678	0.199
6.67179	0.25
6.70681	0.283
6.74182	0.343
6.77683	0.362
6.81185	0.39
6.84686	0.44
6.88187	0.455
6.91689	0.447
6.9519	0.426
6.98691	0.398
7.02193	0.393
7.05694	0.41
7.09195	0.427
7.12697	0.355
7.16198	0.224
7.19699	0.199
7.23201	0.242
7.26702	0.242
7.30203	0.309
7.33705	0.437
7.37206	0.599
7.40707	0.658
7.44209	0.715
7.4771	0.74
7.51212	0.737
7.54713	0.727
7.58214	0.71
7.61716	0.693
7.65217	0.644
7.68718	0.594
7.7222	0.549
7.75721	0.528
7.79222	0.529
7.82724	0.533
7.86225	0.535
7.89726	0.544
7.93228	0.555
7.96729	0.563
8.0023	0.59
8.03732	0.621
8.07233	0.652
8.10734	0.668
8.14236	0.658
8.17737	0.632
8.21238	0.604
8.2474	0.557
8.28241	0.499
8.31742	0.424
8.35244	0.378
8.38745	0.401
8.42247	0.435
8.45748	0.476
8.49249	0.534
8.52751	0.574
8.56252	0.588
8.59753	0.598
8.63255	0.606
8.66756	0.642
8.70257	0.681
8.73759	0.705
8.7726	0.708
8.80761	0.708
8.84263	0.702
8.87764	0.691
8.91265	0.677
8.94767	0.661
8.98268	0.637
9.01769	0.623
9.05271	0.616
9.08772	0.59
9.12273	0.568
9.15775	0.534
9.19276	0.494
9.22778	0.47
9.26279	0.496
9.2978	0.543
9.33282	0.573
9.36783	0.583
9.40284	0.583
9.43786	0.583
9.47287	0.582
9.50788	0.579
9.5429	0.577
9.57791	0.572
9.61292	0.558
9.64794	0.531
9.68295	0.498
9.71796	0.475
9.75298	0.465
9.78799	0.46
9.823	0.457
9.85802	0.457
9.89303	0.456
9.92804	0.459
9.96306	0.465
9.99807	0.479
10.0331	0.496
10.0681	0.515
10.1031	0.539
10.1381	0.564
10.1731	0.587
10.2082	0.614
10.2432	0.641
10.2782	0.668
10.3132	0.678
10.3482	0.701
10.3832	0.745
10.4182	0.775
10.4532	0.806
10.4883	0.83
10.5233	0.84
10.5583	0.845
10.5933	0.845
10.6283	0.825
10.6633	0.805
10.6983	0.792
10.7334	0.785
10.7684	0.779
10.8034	0.777
10.8384	0.775
10.8734	0.772
10.9084	0.769
10.9434	0.767
10.9784	0.757
11.0135	0.757
11.0485	0.757
11.0835	0.757
11.1185	0.756
11.1535	0.75
11.1885	0.731
11.2235	0.7
11.2586	0.664
11.2936	0.627
11.3286	0.579
11.3636	0.455
11.3986	0.312
11.4336	0.405
11.4686	0.519
11.5037	0.459
11.5387	0.314
11.5737	0.371
11.6087	0.562
11.6437	0.638
11.6787	0.675
11.7137	0.708
11.7487	0.747
11.7838	0.776
11.8188	0.809
11.8538	0.828
11.8888	0.843
11.9238	0.844
11.9588	0.839
11.9938	0.833
12.0289	0.823
12.0639	0.826
12.0989	0.834
12.1339	0.839
12.1689	0.846
12.2039	0.854
12.2389	0.861
12.2739	0.868
12.309	0.875
12.344	0.883
12.379	0.885
12.414	0.888
12.449	0.889
12.484	0.893
12.519	0.894
12.5541	0.898
12.5891	0.899
12.6241	0.898
12.6591	0.894
12.6941	0.885
12.7291	0.877
12.7641	0.874
12.7991	0.868
12.8342	0.858
12.8692	0.841
12.9042	0.82
12.9392	0.81
12.9742	0.805
13.0092	0.806
13.0442	0.808
13.0793	0.796
13.1143	0.785
13.1493	0.761
13.1843	0.742
13.2193	0.732
13.2543	0.702
13.2893	0.692
13.3244	0.688
13.3594	0.682
13.3944	0.681
13.4294	0.673
13.4644	0.661
13.4994	0.648
13.5344	0.637
13.5694	0.629
13.6045	0.621
13.6395	0.614
13.6745	0.598
13.7095	0.584
13.7445	0.56
13.7795	0.544
13.8145	0.531
13.8496	0.504
13.8846	0.489
13.9196	0.476
13.9546	0.47
13.9896	0.466
14.0246	0.465
14.0596	0.465
14.0946	0.466
14.1297	0.47
14.1647	0.483
14.1997	0.491
14.2347	0.5
14.2697	0.509
14.3047	0.516
14.3397	0.519
14.3748	0.519
14.4098	0.511
14.4448	0.508
14.4798	0.501
14.5148	0.494
14.5498	0.493
14.5848	0.496
14.6198	0.508
14.6549	0.519
14.6899	0.524
14.7249	0.535
14.7599	0.545
14.7949	0.553
14.8299	0.564
14.8649	0.574
14.9	0.582
14.935	0.583
14.97	0.584
15.005	0.584
