Infrared Spectrum: DIBUTYLTIN MERCAPTOPROPIONATE
Formula: C11 H22 O2 S Sn
CAS: 78-06-8
State: SOLID (NUJOL MULL)
Class: COBLENTZ
Instrument: Not specified, most likely a grating spectrometer.
Sampling: TRANSMISSION
Path length: NUJOL MULL ON CsBr
Resolution: 4
Origin: STANDARD OIL OF OHIO
1/CM	TRANSMITTANCE
236.486	0.68
245.945	0.668
255.405	0.656
264.864	0.703
274.324	0.8049
283.783	0.8729
293.243	0.896
302.702	0.918
312.162	0.912
321.621	0.906
331.081	0.829
340.54	0.6221
350	0.7439
359.459	0.829
368.919	0.8339
378.378	0.908
387.838	0.884
397.297	0.864
406.757	0.898
416.216	0.915
425.676	0.925
435.135	0.925
444.595	0.918
454.054	0.91
463.514	0.906
472.973	0.913
482.433	0.908
491.892	0.886
501.352	0.8151
510.811	0.666
520.271	0.747
529.73	0.834
539.19	0.884
548.649	0.901
558.109	0.903
567.568	0.9
577.028	0.891
586.487	0.869
595.947	0.8001
605.406	0.693
614.866	0.6
624.325	0.365
633.785	0.6319
643.244	0.842
652.704	0.7901
662.163	0.6391
671.623	0.522
681.082	0.5748
690.542	0.727
700.001	0.715
709.461	0.752
718.92	0.785
728.38	0.82
737.839	0.839
747.299	0.849
756.758	0.869
766.218	0.861
775.677	0.868
785.137	0.879
794.596	0.883
804.056	0.879
813.515	0.878
822.975	0.869
832.434	0.852
841.894	0.7711
851.353	0.642
860.813	0.725
870.272	0.6749
879.732	0.712
889.191	0.798
898.651	0.844
908.11	0.849
917.57	0.834
927.029	0.803
936.489	0.834
945.948	0.832
955.408	0.8
964.867	0.631
974.327	0.82
983.786	0.818
993.246	0.783
1002.71	0.771
1012.16	0.742
1021.62	0.768
1031.08	0.776
1040.54	0.776
1050	0.785
1059.46	0.795
1068.92	0.7121
1078.38	0.653
1087.84	0.805
1097.3	0.825
1106.76	0.827
1116.22	0.824
1125.68	0.817
1135.14	0.8
1144.6	0.739
1154.06	0.648
1163.52	0.756
1172.98	0.746
1182.44	0.715
1191.9	0.69
1201.35	0.658
1210.81	0.527
1220.27	0.7439
1229.73	0.768
1239.19	0.749
1248.65	0.7021
1258.11	0.685
1267.57	0.568
1277.03	0.2401
1286.49	0.5729
1295.95	0.561
1305.41	0.336
1314.87	0.6098
1324.33	0.708
1333.79	0.68
1343.25	0.637
1352.71	0.62
1362.17	0.583
1371.63	0.4379
1381.09	0.4059
1390.54	0.514
1400	0.357
1409.46	0.365
1418.92	0.328
1428.38	0.285
1437.84	0.1151
1447.3	0.12
1456.76	0.179
1466.22	0.192
1475.68	0.4509
1485.14	0.514
1494.6	0.51
1504.06	0.416
1513.52	0.346
1522.98	0.192
1532.44	0.05
1541.9	0.033
1551.36	0.064
1560.82	0.1551
1570.28	0.3259
1579.73	0.489
1589.19	0.602
1598.65	0.695
1608.11	0.758
1617.57	0.785
1627.03	0.798
1636.49	0.81
1645.95	0.812
1655.41	0.808
1664.87	0.81
1674.33	0.81
1683.79	0.802
1693.25	0.808
1702.71	0.815
1712.17	0.818
1721.63	0.824
1731.09	0.825
1740.55	0.818
1750.01	0.818
1759.47	0.817
1768.92	0.817
1778.38	0.818
1787.84	0.818
1797.3	0.818
1806.76	0.817
1816.22	0.815
1825.68	0.817
1835.14	0.815
1844.6	0.817
1854.06	0.813
1863.52	0.81
1872.98	0.808
1882.44	0.805
1891.9	0.803
1901.36	0.802
1910.82	0.802
1920.28	0.8
1929.74	0.8
1939.2	0.8
1948.65	0.8
1958.11	0.8
1967.57	0.798
1977.03	0.796
1986.49	0.795
1995.95	0.795
2005.41	0.793
2014.87	0.79
2024.33	0.79
2033.79	0.788
2043.25	0.783
2052.71	0.781
2062.17	0.783
2071.63	0.7805
2081.09	0.778
2090.55	0.78
2100.01	0.778
2109.47	0.774
2118.93	0.776
2128.39	0.775
2137.84	0.771
2147.3	0.768
2156.76	0.768
2166.22	0.7635
2175.68	0.761
2185.14	0.763
2194.6	0.761
2204.06	0.76
2213.52	0.761
2222.98	0.7585
2232.44	0.756
2241.9	0.754
2251.36	0.752
2260.82	0.7515
2270.28	0.749
2279.74	0.744
2289.2	0.744
2298.66	0.742
2308.12	0.741
2317.58	0.74
2327.03	0.737
2336.49	0.738
2345.95	0.739
2355.41	0.727
2364.87	0.729
2374.33	0.73
2383.79	0.727
2393.25	0.725
2402.71	0.725
2412.17	0.7245
2421.63	0.725
2431.09	0.725
2440.55	0.724
2450.01	0.722
2459.47	0.719
2468.93	0.717
2478.39	0.715
2487.85	0.713
2497.31	0.712
2506.77	0.71
2516.22	0.708
2525.68	0.708
2535.14	0.708
2544.6	0.7075
2554.06	0.7
2563.52	0.696
2572.98	0.692
2582.44	0.687
2591.9	0.683
2601.36	0.68
2610.82	0.676
2620.28	0.672
2629.74	0.668
2639.2	0.665
2648.66	0.663
2658.12	0.661
2667.58	0.659
2677.04	0.658
2686.5	0.656
2695.96	0.654
2705.41	0.651
2714.87	0.6445
2724.33	0.627
2733.79	0.6325
2743.25	0.646
2752.71	0.644
2762.17	0.642
2771.63	0.636
2781.09	0.6241
2790.55	0.6
2800.01	0.582
2809.47	0.547
2818.93	0.492
2828.39	0.4202
2837.85	0.2989
2847.31	0.1226
2856.77	0.047
2866.23	0.0645
2875.69	0.084
2885.15	0.1285
2894.6	0.098
2904.06	0.055
2913.52	0.035
2922.98	0.016
2932.44	0.02
2941.9	0.029
2951.36	0.028
2960.82	0.0305
2970.28	0.0539
2979.74	0.2245
2989.2	0.3798
2998.66	0.4624
3008.12	0.502
3017.58	0.5364
3027.04	0.558
3036.5	0.5715
3045.96	0.582
3055.42	0.5925
3064.88	0.598
3074.34	0.602
3083.79	0.609
3093.25	0.613
3102.71	0.612
3112.17	0.6145
3121.63	0.617
3131.09	0.622
3140.55	0.615
3150.01	0.618
3159.47	0.619
3168.93	0.617
3178.39	0.617
3187.85	0.6195
3197.31	0.62
3206.77	0.624
3216.23	0.624
3225.69	0.627
3235.15	0.629
3244.61	0.631
3254.07	0.631
3263.53	0.631
3272.98	0.631
3282.44	0.631
3291.9	0.631
3301.36	0.629
3310.82	0.629
3320.28	0.627
3329.74	0.626
3339.2	0.624
3348.66	0.624
3358.12	0.624
3367.58	0.622
3377.04	0.622
3386.5	0.62
3395.96	0.619
3405.42	0.62
3414.88	0.6195
3424.34	0.619
3433.8	0.62
3443.26	0.62
3452.71	0.62
3462.17	0.62
3471.63	0.619
3481.09	0.619
3490.55	0.619
3500.01	0.619
3509.47	0.619
3518.93	0.617
3528.39	0.617
3537.85	0.617
3547.31	0.615
3556.77	0.614
3566.23	0.614
3575.69	0.612
3585.15	0.61
3594.61	0.61
3604.07	0.61
3613.53	0.609
3622.99	0.609
3632.45	0.607
3641.9	0.605
3651.36	0.604
3660.82	0.603
3670.28	0.602
3679.74	0.6
3689.2	0.6
3698.66	0.6
3708.12	0.6
3717.58	0.6
3727.04	0.598
3736.5	0.598
3745.96	0.598
3755.42	0.596
3764.88	0.593
3774.34	0.592
3783.8	0.59
3793.26	0.59
3802.72	0.592
3812.18	0.59
3821.64	0.588
3831.09	0.5875
3840.55	0.587
3850.01	0.5875
3859.47	0.585
3868.93	0.585
3878.39	0.585
3887.85	0.5825
