Infrared Spectrum: PENTAERYTHRITYL TETRANITRATE
Formula: C5 H8 N4 O12
CAS: 78-11-5
State: SOLID (1.2 mg / 200 mg KBr DISC)
Melting point: 140 C
Class: COBLENTZ III
Instrument: PERKIN-ELMER 21 (GRATING)
Instrument parameters: FILTER AT ABOUT 10 MICRONS
Sampling: TRANSMISSION
Resolution: 2
1/CM	TRANSMITTANCE
4000	0.8196
3991	0.8197
3982	0.8199
3973	0.8201
3964	0.8202
3955	0.8204
3946	0.8205
3937	0.8208
3928	0.8209
3919	0.821
3910	0.8212
3901	0.8213
3892	0.8216
3883	0.8217
3874	0.8218
3865	0.822
3856	0.8223
3847	0.8224
3838	0.8227
3829	0.8228
3820	0.8231
3811	0.8232
3802	0.8235
3793	0.8237
3784	0.8239
3775	0.8241
3766	0.8243
3757	0.8245
3748	0.8247
3739	0.8247
3730	0.8248
3721	0.8248
3712	0.8248
3703	0.8248
3694	0.8248
3685	0.8249
3676	0.8249
3667	0.8249
3658	0.8248
3649	0.8246
3640	0.8245
3631	0.8242
3622	0.824
3613	0.8239
3604	0.8235
3595	0.8228
3586	0.8223
3577	0.8217
3568	0.821
3559	0.8202
3550	0.8185
3541	0.8168
3532	0.815
3523	0.8133
3514	0.811
3505	0.8081
3496	0.8054
3487	0.8025
3478	0.7997
3469	0.7957
3460	0.7915
3451	0.7874
3442	0.7831
3433	0.7794
3424	0.7764
3415	0.7733
3406	0.7705
3397	0.7688
3388	0.7671
3379	0.7658
3370	0.7651
3361	0.7643
3352	0.7638
3343	0.7637
3334	0.7636
3325	0.7635
3316	0.7634
3307	0.7633
3298	0.7635
3289	0.7638
3280	0.764
3271	0.7642
3262	0.7645
3253	0.7648
3244	0.7651
3235	0.7655
3226	0.7658
3217	0.7662
3208	0.7675
3199	0.7688
3190	0.7707
3181	0.7734
3172	0.7768
3163	0.7806
3154	0.7833
3145	0.7849
3136	0.7851
3127	0.785
3118	0.7849
3109	0.7838
3100	0.7821
3091	0.7803
3082	0.7786
3073	0.7778
3064	0.7774
3055	0.7776
3046	0.7782
3037	0.7784
3028	0.7785
3019	0.7785
3010	0.7765
3001	0.7678
2992	0.7615
2983	0.759
2974	0.7568
2965	0.7468
2956	0.7385
2947	0.7326
2938	0.7284
2929	0.7253
2920	0.7217
2911	0.7169
2902	0.7071
2893	0.6785
2884	0.6494
2875	0.6339
2866	0.6335
2857	0.6478
2848	0.6961
2839	0.7195
2830	0.7224
2821	0.7256
2812	0.7348
2803	0.7468
2794	0.7599
2785	0.7731
2776	0.7828
2767	0.7901
2758	0.7943
2749	0.7962
2740	0.7983
2731	0.8001
2722	0.8018
2713	0.8036
2704	0.805
2695	0.8055
2686	0.8058
2677	0.8062
2668	0.8067
2659	0.8068
2650	0.8065
2641	0.8054
2632	0.8043
2623	0.8036
2614	0.8031
2605	0.8025
2596	0.8018
2587	0.8015
2578	0.8012
2569	0.801
2560	0.8008
2551	0.8004
2542	0.7965
2533	0.7928
2524	0.7921
2515	0.7921
2506	0.7925
2497	0.7932
2488	0.794
2479	0.7949
2470	0.7961
2461	0.7978
2452	0.7998
2443	0.8018
2434	0.8039
2425	0.8055
2416	0.8068
2407	0.8076
2398	0.8068
2389	0.8038
2380	0.8018
2371	0.8011
2362	0.8007
2353	0.8007
2344	0.8006
2335	0.8006
2326	0.8007
2317	0.8008
2308	0.8011
2299	0.8011
2290	0.8011
2281	0.8011
2272	0.801
2263	0.801
2254	0.8006
2245	0.7997
2236	0.7987
2227	0.7975
2218	0.7965
2209	0.7956
2200	0.7949
2191	0.7942
2182	0.7936
2173	0.7926
2164	0.7917
2155	0.7906
2146	0.7896
2137	0.7876
2128	0.7858
2119	0.784
2110	0.7818
2101	0.7796
2092	0.7771
2083	0.7747
2074	0.7721
2065	0.7693
2056	0.7664
2047	0.7635
2038	0.7606
2029	0.7575
2020	0.7542
2011	0.7508
2002	0.7474
1993	0.7438
1984	0.7397
1975	0.7358
1966	0.7328
1957	0.7303
1948	0.7268
1939	0.7225
1930	0.7107
1921	0.7033
1912	0.6968
1903	0.6901
1894	0.6832
1885	0.6761
1876	0.669
1867	0.6618
1858	0.6539
1849	0.6439
1840	0.6338
1831	0.6228
1822	0.6096
1813	0.5942
1804	0.5715
1795	0.5478
1786	0.526
1777	0.5033
1768	0.4868
1759	0.4723
1750	0.4552
1741	0.433
1732	0.4034
1723	0.3632
1714	0.3312
1705	0.3013
1696	0.2697
1687	0.2305
1678	0.1844
1669	0.1066
1660	0.0574
1651	0.0433
1642	0.0477
1633	0.1088
1624	0.1806
1615	0.2517
1606	0.3218
1597	0.3768
1588	0.4382
1579	0.4883
1570	0.5328
1561	0.57
1552	0.6058
1543	0.628
1534	0.661
1525	0.7031
1516	0.7169
1507	0.7236
1498	0.7638
1489	0.7428
1480	0.5334
1471	0.4454
1462	0.6284
1453	0.6996
1444	0.7232
1435	0.7317
1426	0.7142
1417	0.6619
1408	0.5957
1399	0.5094
1390	0.5309
1381	0.6547
1372	0.6885
1363	0.6775
1354	0.6262
1345	0.5751
1336	0.5212
1327	0.4424
1318	0.3616
1309	0.2503
1300	0.2438
1291	0.1753
1282	0.0781
1273	0.0928
1264	0.1271
1255	0.2378
1246	0.3149
1237	0.405
1228	0.4905
1219	0.541
1210	0.5899
1201	0.621
1192	0.6244
1183	0.6707
1174	0.7044
1165	0.7093
1156	0.7197
1147	0.7517
1138	0.7685
1129	0.7645
1120	0.7626
1111	0.7634
1102	0.7618
1093	0.7547
1084	0.7407
1075	0.7168
1066	0.673
1057	0.599
1048	0.501
1039	0.3284
1030	0.4287
1021	0.5362
1012	0.4489
1003	0.2204
994	0.4252
985	0.6104
976	0.6969
967	0.7262
958	0.6585
949	0.5654
940	0.4545
931	0.5505
922	0.6097
913	0.5603
904	0.4646
895	0.421
886	0.35
877	0.2175
868	0.1298
859	0.1195
850	0.0886
841	0.1289
832	0.1695
823	0.2414
814	0.3189
805	0.3834
796	0.4622
787	0.5355
778	0.5931
769	0.6134
760	0.4736
751	0.3664
742	0.3729
733	0.4802
724	0.5676
715	0.6165
706	0.3432
697	0.3714
688	0.4922
679	0.5585
670	0.6041
