Infrared Spectrum: Octyl silicate
Formula: C32 H68 O4 Si
CAS: 78-14-8
State: SOLUTION (10% CCl4 FOR 3800-1330, 10% CS2 FOR 1330-400 CM^-^1)
Class: COBLENTZ III
Instrument: DOW KBr FOREPRISM-GRATING
Instrument parameters: BLAZED AT 3.5, 12.0, 20.0 MICRON AND CHANGED AT 5.0, 7.5, 14.9 MICRON
Sampling: TRANSMISSION
Path length: 0.011 CM, 0.011 CM
Resolution: 2
Origin: DOW CHEMICAL COMPANY
1/CM	TRANSMITTANCE
3806	0.8678
3797	0.868
3788	0.8683
3779	0.8688
3770	0.8694
3761	0.8697
3752	0.8699
3743	0.8696
3734	0.8683
3725	0.8662
3716	0.8615
3707	0.859
3698	0.8584
3689	0.8583
3680	0.858
3671	0.8568
3662	0.8536
3653	0.8199
3644	0.8104
3635	0.816
3626	0.8306
3617	0.8457
3608	0.856
3599	0.8591
3590	0.8555
3581	0.8565
3572	0.8578
3563	0.8577
3554	0.8557
3545	0.8534
3536	0.8513
3527	0.8492
3518	0.8487
3509	0.8485
3500	0.8486
3491	0.8491
3482	0.8498
3473	0.8505
3464	0.8511
3455	0.8513
3446	0.8516
3437	0.8518
3428	0.8517
3419	0.8513
3410	0.851
3401	0.8504
3392	0.8499
3383	0.8492
3374	0.8492
3365	0.8499
3356	0.8507
3347	0.8513
3338	0.8518
3329	0.8523
3320	0.8528
3311	0.8532
3302	0.8533
3293	0.8533
3284	0.8534
3275	0.8533
3266	0.8533
3257	0.8532
3248	0.8534
3239	0.8532
3230	0.8514
3221	0.8494
3212	0.8474
3203	0.8458
3194	0.8451
3185	0.8444
3176	0.844
3167	0.8438
3158	0.8436
3149	0.8435
3140	0.8437
3131	0.8435
3122	0.8428
3113	0.842
3104	0.8401
3095	0.8368
3086	0.8328
3077	0.8273
3068	0.8212
3059	0.8128
3050	0.8036
3041	0.793
3032	0.7814
3023	0.7675
3014	0.7454
3005	0.7197
2996	0.6861
2987	0.5987
2978	0.3686
2969	0.2044
2960	0.0366
2951	0.0247
2942	0.0176
2933	0.0125
2924	0.0077
2915	0.0091
2906	0.026
2897	0.0928
2888	0.137
2879	0.1334
2870	0.0761
2861	0.0621
2852	0.0299
2843	0.1082
2834	0.2414
2825	0.5757
2816	0.69
2807	0.7255
2798	0.7514
2789	0.7668
2780	0.7787
2771	0.7855
2762	0.7812
2753	0.7742
2744	0.763
2735	0.7607
2726	0.7696
2717	0.7968
2708	0.8115
2699	0.8155
2690	0.8157
2681	0.8157
2672	0.8157
2663	0.8156
2654	0.8189
2645	0.8271
2636	0.8342
2627	0.8397
2618	0.8416
2609	0.8434
2600	0.8458
2591	0.8484
2582	0.8516
2573	0.855
2564	0.8578
2555	0.8598
2546	0.8614
2537	0.8627
2528	0.8639
2519	0.8652
2510	0.8667
2501	0.8687
2492	0.8708
2483	0.8716
2474	0.8721
2465	0.8727
2456	0.8731
2447	0.8734
2438	0.8738
2429	0.8741
2420	0.8747
2411	0.8753
2402	0.876
2393	0.8766
2384	0.8764
2375	0.8757
2366	0.8752
2357	0.8747
2348	0.875
2339	0.8752
2330	0.8754
2321	0.8753
2312	0.8761
2303	0.8825
2294	0.8842
2285	0.885
2276	0.8853
2267	0.8854
2258	0.8851
2249	0.8847
2240	0.8843
2231	0.8839
2222	0.8835
2213	0.883
2204	0.8827
2195	0.8821
2186	0.8818
2177	0.8813
2168	0.8808
2159	0.8805
2150	0.8804
2141	0.8802
2132	0.8801
2123	0.8799
2114	0.8797
2105	0.8795
2096	0.8791
2087	0.8786
2078	0.8786
2069	0.8787
2060	0.8787
2051	0.8784
2042	0.8775
2033	0.8764
2024	0.8759
2015	0.8749
2006	0.8746
1997	0.8446
1988	0.8435
1979	0.8413
1970	0.8392
1961	0.8383
1952	0.8371
1943	0.8359
1934	0.8345
1925	0.8338
1916	0.8333
1907	0.8345
1898	0.8356
1889	0.8366
1880	0.8378
1871	0.8395
1862	0.8412
1853	0.8424
1844	0.8432
1835	0.844
1826	0.8456
1817	0.8468
1808	0.8468
1799	0.846
1790	0.8414
1781	0.8221
1772	0.8086
1763	0.8184
1754	0.8224
1745	0.8232
1736	0.8237
1727	0.8238
1718	0.8241
1709	0.8257
1700	0.829
1691	0.8323
1682	0.8324
1673	0.8321
1664	0.8313
1655	0.8306
1646	0.8302
1637	0.83
1628	0.8299
1619	0.83
1610	0.8324
1601	0.8411
1592	0.8517
1583	0.8567
1574	0.8563
1565	0.8603
1556	0.8638
1547	0.867
1538	0.866
1529	0.8524
1520	0.8336
1511	0.8286
1502	0.8182
1493	0.7951
1484	0.7353
1475	0.5641
1466	0.2752
1457	0.3291
1448	0.5302
1439	0.6177
1430	0.631
1421	0.7492
1412	0.7601
1403	0.7586
1394	0.6096
1385	0.5583
1376	0.5338
1367	0.6637
1358	0.7068
1349	0.7239
1340	0.744
1331	0.6978
1322	0.7017
1313	0.6895
1304	0.6347
1295	0.6236
1286	0.637
1277	0.6272
1268	0.6569
1259	0.6503
1250	0.6177
1241	0.6197
1232	0.6469
1223	0.6587
1214	0.5921
1205	0.6047
1196	0.5922
1187	0.5517
1178	0.5451
1169	0.5321
1160	0.4637
1151	0.3568
1142	0.2855
1133	0.211
1124	0.1441
1115	0.0981
1106	0.015
1097	0.0049
1088	0.0054
1079	0.0398
1070	0.1001
1061	0.1563
1052	0.1737
1043	0.2765
1034	0.3195
1025	0.3894
1016	0.4345
1007	0.4373
998	0.4272
989	0.4294
980	0.4364
971	0.5601
962	0.6356
953	0.6658
944	0.6886
935	0.6247
926	0.5388
917	0.6045
908	0.6701
899	0.6857
890	0.6385
881	0.5705
872	0.4827
863	0.4294
854	0.396
845	0.409
836	0.493
827	0.5685
818	0.587
809	0.5721
800	0.5945
791	0.6808
782	0.7412
773	0.7221
764	0.6698
755	0.7265
746	0.7418
737	0.7111
728	0.6039
719	0.6165
710	0.7978
701	0.8678
692	0.888
683	0.8918
674	0.892
665	0.8893
656	0.9027
647	0.9094
638	0.9097
629	0.9095
620	0.9056
611	0.904
602	0.9015
593	0.8991
584	0.8971
575	0.8934
566	0.8873
557	0.8721
548	0.8427
539	0.7978
530	0.7742
521	0.7736
512	0.7801
503	0.7836
494	0.7758
485	0.7533
476	0.7362
467	0.7321
458	0.7322
449	0.7318
440	0.7261
431	0.72
422	0.7169
413	0.715
404	0.7138
395	0.7128
386	0.7122
