Infrared Spectrum: TETRAETHOXYSILANE
Formula: C8 H20 O4 Si
CAS: 78-10-4
State: SOLUTION (5% IN CCl4 FOR 3800-1330, 2% IN CS2 FOR 1330-600, AND 5% IN CCl4 FOR 600-250 CM^-^1) VS. SOLVENT
Boiling point: 168 C
Class: COBLENTZ III
Instrument: PERKIN-ELMER 521 (GRATING)
Instrument parameters: FILTERS AT 3150, 2500, 2000, 1150, 700, 410. GRATING CHANGES: 2000, 630 CM^-^1
Sampling: TRANSMISSION
Path length: 0.011 CM, 0.011 CM, AND 0.021 CM
Resolution: 2
Origin: DOW CORNING CORP.
1/CM	TRANSMITTANCE
222.12	0.718
231.337	0.736
240.553	0.75
249.77	0.752
258.986	0.748
268.203	0.738
277.42	0.731
286.636	0.721
295.853	0.704
305.069	0.699
314.286	0.708
323.503	0.716
332.719	0.74
341.936	0.756
351.152	0.761
360.369	0.762
369.586	0.757
378.802	0.74
388.019	0.724
397.235	0.706
406.452	0.692
415.669	0.68
424.885	0.656
434.102	0.609
443.318	0.565
452.535	0.493
461.752	0.441
470.968	0.405
480.185	0.41
489.401	0.504
498.618	0.681
507.835	0.794
517.051	0.856
526.268	0.878
535.484	0.893
544.701	0.91
553.918	0.915
563.134	0.921
572.351	0.922
581.567	0.924
590.784	0.928
600.001	0.929
609.217	0.93
618.434	0.93
627.65	0.93
636.867	0.929
646.084	0.928
655.3	0.926
664.517	0.93
673.734	0.932
682.95	0.932
692.167	0.926
701.383	0.93
710.6	0.929
719.817	0.924
729.033	0.921
738.25	0.897
747.466	0.89
756.683	0.859
765.9	0.769
775.116	0.544
784.333	0.395
793.549	0.443
802.766	0.564
811.983	0.666
821.199	0.826
830.416	0.876
839.632	0.899
848.849	0.91
858.066	0.914
867.282	0.916
876.499	0.917
885.715	0.916
894.932	0.91
904.149	0.899
913.365	0.883
922.582	0.833
931.798	0.762
941.015	0.624
950.232	0.448
959.448	0.384
968.665	0.484
977.881	0.752
987.098	0.838
996.315	0.843
1005.53	0.825
1014.75	0.806
1023.96	0.771
1033.18	0.721
1042.4	0.649
1051.61	0.497
1060.83	0.299
1070.05	0.077
1079.26	0.07
1088.48	0.086
1097.7	0.044
1106.91	0.1141
1116.13	0.2751
1125.35	0.449
1134.56	0.528
1143.78	0.558
1153	0.49
1162.21	0.401
1171.43	0.634
1180.65	0.78
1189.86	0.828
1199.08	0.84
1208.3	0.848
1217.51	0.849
1226.73	0.848
1235.95	0.845
1245.16	0.841
1254.38	0.827
1263.6	0.813
1272.81	0.78
1282.03	0.731
1291.25	0.62
1300.46	0.75
1309.68	0.828
1318.9	0.844
1328.11	0.85
1337.33	0.848
1346.55	0.83
1355.76	0.771
1364.98	0.6931
1374.2	0.7
1383.41	0.4339
1392.63	0.596
1401.85	0.784
1411.06	0.802
1420.28	0.795
1429.49	0.742
1438.71	0.606
1447.93	0.708
1457.14	0.7741
1466.36	0.805
1475.58	0.757
1484.79	0.796
1494.01	0.86
1503.23	0.885
1512.44	0.891
1521.66	0.896
1530.88	0.899
1540.09	0.9
1549.31	0.9
1558.53	0.901
1567.74	0.905
1576.96	0.906
1586.18	0.906
1595.39	0.906
1604.61	0.906
1613.83	0.909
1623.04	0.914
1632.26	0.92
1641.48	0.92
1650.69	0.921
1659.91	0.922
1669.13	0.923
1678.34	0.923
1687.56	0.923
1696.78	0.92
1705.99	0.915
1715.21	0.912
1724.43	0.907
1733.64	0.901
1742.86	0.902
1752.08	0.905
1761.29	0.906
1770.51	0.913
1779.73	0.928
1788.94	0.932
1798.16	0.932
1807.38	0.93
1816.59	0.931
1825.81	0.928
1835.03	0.926
1844.24	0.92
1853.46	0.913
1862.68	0.905
1871.89	0.9
1881.11	0.89
1890.32	0.882
1899.54	0.888
1908.76	0.892
1917.97	0.898
1927.19	0.906
1936.41	0.913
1945.62	0.918
1954.84	0.923
1964.06	0.929
1973.27	0.931
1982.49	0.932
1991.71	0.932
2000.92	0.9395
2010.14	0.9465
2019.36	0.947
2028.57	0.947
2037.79	0.946
2047.01	0.946
2056.22	0.946
2065.44	0.946
2074.66	0.946
2083.87	0.946
2093.09	0.945
2102.31	0.945
2111.52	0.944
2120.74	0.942
2129.96	0.942
2139.17	0.942
2148.39	0.9409
2157.61	0.936
2166.82	0.933
2176.04	0.9332
2185.26	0.938
2194.47	0.94
2203.69	0.94
2212.91	0.94
2222.12	0.94
2231.34	0.94
2240.56	0.938
2249.77	0.938
2258.99	0.938
2268.21	0.9445
2277.42	0.9445
2286.64	0.944
2295.86	0.944
2305.07	0.944
2314.29	0.942
2323.51	0.941
2332.72	0.94
2341.94	0.94
2351.16	0.941
2360.37	0.941
2369.59	0.941
2378.8	0.941
2388.02	0.941
2397.24	0.94
2406.45	0.938
2415.67	0.9359
2424.89	0.932
2434.1	0.9299
2443.32	0.9258
2452.54	0.9282
2461.75	0.929
2470.97	0.929
2480.19	0.93
2489.4	0.931
2498.62	0.931
2507.84	0.932
2517.05	0.932
2526.27	0.9315
2535.49	0.93
2544.7	0.93
2553.92	0.9263
2563.14	0.926
2572.35	0.925
2581.57	0.923
2590.79	0.923
2600	0.922
2609.22	0.9172
2618.44	0.915
2627.65	0.913
2636.87	0.914
2646.09	0.914
2655.3	0.914
2664.52	0.914
2673.74	0.914
2682.95	0.9129
2692.17	0.9118
2701.39	0.9057
2710.6	0.8954
2719.82	0.8756
2729.04	0.8506
2738.25	0.805
2747.47	0.8378
2756.69	0.848
2765.9	0.8296
2775.12	0.8415
2784.34	0.86
2793.55	0.86
2802.77	0.854
2811.99	0.8331
2821.2	0.8204
2830.42	0.8035
2839.64	0.7729
2848.85	0.7255
2858.07	0.6348
2867.28	0.5197
2876.5	0.4527
2885.72	0.3112
2894.93	0.2531
2904.15	0.3438
2913.37	0.3819
2922.58	0.3026
2931.8	0.251
2941.02	0.3971
2950.23	0.4961
2959.45	0.488
2968.67	0.248
2977.88	0.0822
2987.1	0.1923
2996.32	0.4046
3005.53	0.6588
3014.75	0.7594
3023.97	0.8007
3033.18	0.8311
3042.4	0.8512
3051.62	0.8618
3060.83	0.877
3070.05	0.8855
3079.27	0.8905
3088.48	0.8936
3097.7	0.897
3106.92	0.8986
3116.13	0.9
3125.35	0.9057
3134.57	0.9098
3143.78	0.91
3153	0.91
3162.22	0.91
3171.43	0.9118
3180.65	0.912
3189.87	0.912
3199.08	0.912
3208.3	0.909
3217.52	0.91
3226.73	0.91
3235.95	0.913
3245.17	0.9152
3254.38	0.916
3263.6	0.916
3272.82	0.916
3282.03	0.916
3291.25	0.916
3300.47	0.916
3309.68	0.916
3318.9	0.916
3328.11	0.916
3337.33	0.9155
3346.55	0.915
3355.76	0.915
3364.98	0.915
3374.2	0.915
3383.41	0.915
3392.63	0.915
3401.85	0.915
3411.06	0.915
3420.28	0.915
3429.5	0.916
3438.71	0.917
3447.93	0.918
3457.15	0.92
3466.36	0.921
3475.58	0.922
3484.8	0.922
3494.01	0.922
3503.23	0.922
3512.45	0.923
3521.66	0.924
3530.88	0.925
3540.1	0.9253
3549.31	0.926
3558.53	0.929
3567.75	0.93
3576.96	0.9296
3586.18	0.929
3595.4	0.928
3604.61	0.926
3613.83	0.925
3623.05	0.9234
3632.26	0.92
3641.48	0.9173
3650.7	0.917
3659.91	0.9217
3669.13	0.923
3678.35	0.9222
3687.56	0.922
3696.78	0.922
3706	0.9211
3715.21	0.92
3724.43	0.917
3733.65	0.916
3742.86	0.916
3752.08	0.917
3761.3	0.9182
3770.51	0.9221
3779.73	0.924
3788.95	0.924
