Infrared Spectrum: Tri-p-cresyl phosphate
Formula: C 21 H 21 O 4 P
CAS: 78-32-0
State: gas
Origin: EPA-IR VAPOR PHASE LIBRARY
1/CM	ABSORBANCE
549.8	0.02477
559.445	0.03407
569.09	0.03342
578.734	0.01682
588.379	0.00763
598.024	0.00484
607.669	0.00419
617.313	0.00476
626.958	0.00581
636.603	0.00967
646.248	0.00939
655.893	0.00733
665.537	0.00824
675.182	0.00981
684.827	0.01256
694.472	0.01916
704.116	0.01969
713.761	0.01841
723.406	0.01213
733.051	0.00603
742.695	0.0036
752.34	0.00307
761.985	0.00327
771.63	0.00394
781.275	0.00559
790.919	0.00987
800.564	0.01952
810.209	0.04083
819.854	0.06487
829.498	0.05798
839.143	0.02856
848.788	0.01316
858.433	0.00946
868.078	0.00871
877.722	0.00924
887.367	0.01089
897.012	0.014
906.657	0.0204
916.301	0.03412
925.946	0.0631
935.591	0.09126
945.236	0.15589
954.88	0.30382
964.525	0.46453
974.17	0.35955
983.815	0.16505
993.46	0.07146
1003.1	0.03673
1012.75	0.03089
1022.39	0.03428
1032.04	0.01331
1041.68	0.01058
1051.33	0.00913
1060.97	0.00766
1070.62	0.00653
1080.26	0.00659
1089.91	0.00762
1099.55	0.01092
1109.2	0.01271
1118.84	0.01157
1128.49	0.00948
1138.13	0.01211
1147.78	0.02175
1157.42	0.06196
1167.07	0.18944
1176.71	0.07135
1186.36	0.1562
1196	0.45305
1205.64	0.26178
1215.29	0.14222
1224.93	0.07451
1234.58	0.05235
1244.22	0.03857
1253.87	0.02574
1263.51	0.01941
1273.16	0.01702
1282.8	0.01612
1292.45	0.02064
1302.09	0.03539
1311.74	0.0471
1321.38	0.07103
1331.03	0.07919
1340.67	0.0276
1350.32	0.01309
1359.96	0.00934
1369.61	0.00814
1379.25	0.00838
1388.9	0.00899
1398.54	0.00758
1408.18	0.00768
1417.83	0.00888
1427.47	0.00941
1437.12	0.00829
1446.76	0.00759
1456.41	0.00849
1466.05	0.01049
1475.7	0.01489
1485.34	0.02977
1494.99	0.10471
1504.63	0.30395
1514.28	0.14057
1523.92	0.04527
1533.57	0.0176
1543.21	0.00979
1552.86	0.00711
1562.5	0.00639
1572.15	0.00699
1581.79	0.00983
1591.44	0.01626
1601.08	0.02633
1610.73	0.02743
1620.37	0.0126
1630.01	0.00957
1639.66	0.00805
1649.3	0.00603
1658.95	0.00486
1668.59	0.00419
1678.24	0.00369
1687.88	0.00313
1697.53	0.00248
1707.17	0.00199
1716.82	0.00187
1726.46	0.00205
1736.11	0.00256
1745.75	0.00328
1755.4	0.0039
1765.04	0.00487
1774.69	0.00328
1784.33	0.00226
1793.98	0.00208
1803.62	0.002
1813.27	0.00177
1822.91	0.00172
1832.55	0.00196
1842.2	0.00241
1851.84	0.00327
1861.49	0.00492
1871.13	0.00707
1880.78	0.00848
1890.42	0.00712
1900.07	0.00543
1909.71	0.0048
1919.36	0.00425
1929	0.00385
1938.65	0.00349
1948.29	0.00301
1957.94	0.0025
1967.58	0.002
1977.23	0.00184
1986.87	0.00188
1996.52	0.0021
2006.16	0.00182
2015.81	0.00168
2025.45	0.00164
2035.1	0.00151
2044.74	0.00142
2054.38	0.00135
2064.03	0.00125
2073.67	0.0010952
2083.32	0.0009871
2092.96	0.0008308
2102.61	0.0007565
2112.25	0.0006194
2121.9	0.0006153
2131.54	0.0005723
2141.19	0.000496
2150.83	0.0004994
2160.48	0.0004469
2170.12	0.0005634
2179.77	0.0006747
2189.41	0.0007605
2199.06	0.0006769
2208.7	0.0007609
2218.35	0.0007227
2227.99	0.0006925
2237.64	0.0006715
2247.28	0.0006231
2256.92	0.0006796
2266.57	0.0007879
2276.21	0.0009952
2285.86	0.00115
2295.5	0.00124
2305.15	0.00131
2314.79	0.00138
2324.44	0.00142
2334.08	0.00145
2343.73	0.00126
2353.37	0.00126
2363.02	0.00155
2372.66	0.00135
2382.31	0.00146
2391.95	0.00164
2401.6	0.00175
2411.24	0.0017
2420.89	0.00156
2430.53	0.00161
2440.18	0.00154
2449.82	0.00127
2459.47	0.0010068
2469.11	0.0009737
2478.75	0.0009568
2488.4	0.0008318
2498.04	0.0007669
2507.69	0.0007591
2517.33	0.0008537
2526.98	0.000911
2536.62	0.0009659
2546.27	0.0009596
2555.91	0.0009142
2565.56	0.0010074
2575.2	0.0010733
2584.85	0.00117
2594.49	0.0009978
2604.14	0.0008357
2613.78	0.0006471
2623.43	0.000634
2633.07	0.0004482
2642.72	0.0004864
2652.36	0.0004546
2662.01	0.0005064
2671.65	0.0005791
2681.29	0.0005478
2690.94	0.0006227
2700.58	0.0007662
2710.23	0.0007535
2719.87	0.000825
2729.52	0.000941
2739.16	0.00169
2748.81	0.00212
2758.45	0.0010804
2768.1	0.0008495
2777.74	0.000801
2787.39	0.0009402
2797.03	0.0010846
2806.68	0.00129
2816.32	0.00154
2825.97	0.00193
2835.61	0.00244
2845.26	0.00387
2854.9	0.00616
2864.55	0.01027
2874.19	0.01664
2883.84	0.01753
2893.48	0.01422
2903.12	0.01321
2912.77	0.01484
2922.41	0.02126
2932.06	0.03504
2941.7	0.03013
2951.35	0.01452
2960.99	0.00975
2970.64	0.00832
2980.28	0.00881
2989.93	0.01135
2999.57	0.01458
3009.22	0.01617
3018.86	0.01682
3028.51	0.02271
3038.15	0.03698
3047.8	0.02659
3057.44	0.01532
3067.09	0.01101
3076.73	0.00899
3086.38	0.00613
3096.02	0.00532
3105.67	0.00486
3115.31	0.00418
3124.95	0.00319
3134.6	0.00205
3144.24	0.00123
3153.89	0.001014
3163.53	0.0007746
3173.18	0.0006404
3182.82	0.000737
3192.47	0.0006962
3202.11	0.0007662
3211.76	0.0005083
3221.4	0.0004885
3231.05	0.0005111
3240.69	0.0004313
3250.34	0.0004131
3259.98	0.000342
3269.63	0.0003101
3279.27	0.0002807
3288.92	0.0002473
3298.56	0.0002134
3308.21	0.0003596
3317.85	0.0003772
3327.49	0.00017612
3337.14	0.0003096
3346.78	0.0002994
3356.43	0.0002994
3366.07	0.0003065
3375.72	0.00019829
3385.36	0.00022105
3395.01	0.0002881
3404.65	0.0002599
3414.3	0.0002606
3423.94	0.00022929
3433.59	0.00021932
3443.23	0.00020157
3452.88	0.00017863
3462.52	0.00019762
3472.17	0.0002417
3481.81	0.00016957
3491.46	8.09e-05
3501.1	0.00017281
3510.75	0.00021883
3520.39	0.00021382
3530.04	0.00012172
3539.68	3.32e-05
3549.32	0.0002054
3558.97	0.000139672
3568.61	0.0002379
3578.26	0.000138889
3587.9	8.78e-05
3597.55	0.00021258
3607.19	8.22e-05
3616.84	0.0002424
3626.48	0.00019154
3636.13	0.00021447
3645.77	0.00012107
3655.42	0.00017585
3665.06	0.0002447
3674.71	0.0003209
3684.35	0.0003393
3694	0.0002467
3703.64	0.0002454
3713.29	0.0002425
3722.93	0.00019961
3732.58	0.00016522
3742.22	0.00021624
3751.86	0.0002452
3761.51	0.0003395
3771.15	0.0002321
3780.8	0.000136741
3790.44	0.00021148
3800.09	5.7e-05
3809.73	0.00021764
3819.38	0.00016323
3829.02	0.00014351
3838.67	0.00018345
3848.31	0.0003416
3857.96	0.00019052
3867.6	0.0003122
3877.25	0.0004287
3886.89	0.0003481
3896.54	0.0003392
3906.18	0.0003408
3915.83	0.0003626
3925.47	0.0002423
3935.12	0.0003697
3944.76	0.00021478
3954.41	0.0001143
3964.05	0.0003408
3973.69	0.000368
3983.34	0.00020003
3992.98	0.0002419
