Infrared Spectrum: Phosphoric acid, tri-2-methylphenyl ester
Formula: C21 H21 O4 P
CAS: 78-30-8
State: SOLUTION (10% CCl4 FOR 2.7-7.5, 10% CS2 FOR 7.5-26 MICRON) VS SOLVENT
Class: COBLENTZ III
Instrument: DOW KBr FOREPRISM-GRATING
Instrument parameters: BLAZED AT 3.5, 12.0, 20.0 MICRON AND CHANGED AT 5.0, 7.5, 14.9 MICRON
Sampling: TRANSMISSION
Path length: 0.011 CM, 0.011 CM
Resolution: 2
Origin: DOW CHEMICAL COMPANY
1/CM	TRANSMITTANCE
3792	0.8492
3783	0.8505
3774	0.8527
3765	0.855
3756	0.8559
3747	0.856
3738	0.8561
3729	0.8562
3720	0.8563
3711	0.8564
3702	0.8564
3693	0.8561
3684	0.856
3675	0.8557
3666	0.8556
3657	0.8554
3648	0.8553
3639	0.8548
3630	0.8544
3621	0.8538
3612	0.8533
3603	0.8528
3594	0.8535
3585	0.8552
3576	0.8578
3567	0.8635
3558	0.867
3549	0.8681
3540	0.8693
3531	0.8699
3522	0.8702
3513	0.8704
3504	0.8706
3495	0.8707
3486	0.8707
3477	0.8707
3468	0.8707
3459	0.8706
3450	0.8702
3441	0.8693
3432	0.868
3423	0.8663
3414	0.8623
3405	0.8563
3396	0.8501
3387	0.8453
3378	0.8417
3369	0.8388
3360	0.8378
3351	0.8391
3342	0.8431
3333	0.849
3324	0.8548
3315	0.8596
3306	0.8641
3297	0.8681
3288	0.8718
3279	0.8764
3270	0.8805
3261	0.8833
3252	0.8859
3243	0.8871
3234	0.8881
3225	0.8884
3216	0.8886
3207	0.8878
3198	0.8871
3189	0.8862
3180	0.8853
3171	0.8847
3162	0.8843
3153	0.8837
3144	0.8833
3135	0.882
3126	0.8784
3117	0.8725
3108	0.8644
3099	0.8515
3090	0.8285
3081	0.7103
3072	0.6869
3063	0.6092
3054	0.6022
3045	0.6731
3036	0.6556
3027	0.5939
3018	0.691
3009	0.7634
3000	0.7712
2991	0.7478
2982	0.6564
2973	0.6665
2964	0.6735
2955	0.6595
2946	0.6688
2937	0.6892
2928	0.6265
2919	0.6221
2910	0.6584
2901	0.7312
2892	0.7758
2883	0.7792
2874	0.7836
2865	0.7765
2856	0.7657
2847	0.7765
2838	0.8048
2829	0.8325
2820	0.8493
2811	0.8565
2802	0.8617
2793	0.866
2784	0.8692
2775	0.8713
2766	0.8732
2757	0.8723
2748	0.8673
2739	0.8573
2730	0.8549
2721	0.8594
2712	0.8638
2703	0.8662
2694	0.8678
2685	0.8691
2676	0.87
2667	0.8707
2658	0.8712
2649	0.8715
2640	0.8718
2631	0.8721
2622	0.8725
2613	0.871
2604	0.8668
2595	0.8636
2586	0.8588
2577	0.8559
2568	0.8571
2559	0.8599
2550	0.8623
2541	0.8638
2532	0.8653
2523	0.8668
2514	0.8689
2505	0.8705
2496	0.8711
2487	0.8709
2478	0.8704
2469	0.8671
2460	0.8646
2451	0.8654
2442	0.8678
2433	0.8682
2424	0.8631
2415	0.8589
2406	0.8575
2397	0.8591
2388	0.8618
2379	0.8641
2370	0.8661
2361	0.8674
2352	0.8675
2343	0.8673
2334	0.867
2325	0.865
2316	0.8596
2307	0.8628
2298	0.8652
2289	0.8633
2280	0.8621
2271	0.8628
2262	0.8639
2253	0.8665
2244	0.8686
2235	0.8671
2226	0.866
2217	0.8678
2208	0.87
2199	0.8716
2190	0.8735
2181	0.8791
2172	0.8852
2163	0.8804
2154	0.8804
2145	0.8809
2136	0.882
2127	0.8828
2118	0.8828
2109	0.8818
2100	0.8813
2091	0.8809
2082	0.8805
2073	0.8789
2064	0.8765
2055	0.875
2046	0.8746
2037	0.8741
2028	0.8739
2019	0.8725
2010	0.8715
2001	0.8674
1992	0.8656
1983	0.8628
1974	0.853
1965	0.8468
1956	0.8418
1947	0.8328
1938	0.7941
1929	0.8115
1920	0.8211
1911	0.8121
1902	0.7732
1893	0.7775
1884	0.8147
1875	0.8364
1866	0.8355
1857	0.8371
1848	0.8518
1839	0.8554
1830	0.8478
1821	0.835
1812	0.8377
1803	0.8459
1794	0.8401
1785	0.8076
1776	0.8004
1767	0.8147
1758	0.8337
1749	0.8444
1740	0.8474
1731	0.8506
1722	0.8488
1713	0.8428
1704	0.8336
1695	0.8221
1686	0.8175
1677	0.8241
1668	0.8297
1659	0.8365
1650	0.8416
1641	0.8423
1632	0.8414
1623	0.8265
1614	0.7903
1605	0.7454
1596	0.6249
1587	0.2763
1578	0.6119
1569	0.7415
1560	0.7792
1551	0.7931
1542	0.7946
1533	0.773
1524	0.7384
1515	0.6542
1506	0.424
1497	0.0414
1488	0.092
1479	0.5309
1470	0.3466
1461	0.2499
1452	0.3864
1443	0.4343
1434	0.5831
1425	0.7101
1416	0.7461
1407	0.7674
1398	0.7768
1389	0.7632
1380	0.7161
1371	0.7558
1362	0.7594
1353	0.761
1344	0.7572
1335	0.7365
1326	0.6224
1317	0.227
1308	0.0538
1299	0.0963
1290	0.2748
1281	0.3534
1272	0.5772
1263	0.6192
1254	0.6273
1245	0.4612
1236	0.3109
1227	0.0361
1218	0.1804
1209	0.5068
1200	0.4831
1191	0.4294
1182	0.4316
1173	0.0103
1164	0.0104
1155	0.416
1146	0.6082
1137	0.6585
1128	0.6672
1119	0.3612
1110	0.015
1101	0.0574
1092	0.5996
1083	0.7069
1074	0.7495
1065	0.7669
1056	0.7399
1047	0.2461
1038	0.3823
1029	0.618
1020	0.6651
1011	0.6647
1002	0.5208
993	0.2597
984	0.0584
975	0
966	0
957	0
948	0.1913
939	0.2934
930	0.2768
921	0.6142
912	0.7085
903	0.759
894	0.7805
885	0.7948
876	0.8008
867	0.8006
858	0.7396
849	0.7365
840	0.7828
831	0.7811
822	0.623
813	0.1249
804	0.6568
795	0.6474
786	0.7488
777	0.6997
768	0.0987
759	0
750	0.2331
741	0.5883
732	0.5821
723	0.6903
714	0.6636
705	0.5462
696	0.7144
687	0.8035
678	0.8225
669	0.833
660	0.8491
651	0.832
642	0.8325
633	0.8301
624	0.8137
615	0.7474
606	0.4387
597	0.5196
588	0.6431
579	0.7186
570	0.5887
561	0.5008
552	0.5522
543	0.4791
534	0.3979
525	0.3814
516	0.4221
507	0.6565
498	0.6625
489	0.6235
480	0.6158
471	0.6512
462	0.6746
453	0.6319
444	0.5669
435	0.5973
426	0.616
417	0.6235
408	0.6272
399	0.6304
