Infrared Spectrum: Dioxathion
Formula: C 12 H 26 O 6 P 2 S 4
CAS: 78-34-2
State: gas
Instrument: HP-GC/MS/IRD
Origin: NIST Mass Spectrometry Data Center
1/CM	ABSORBANCE
550	0.00288
562	0.000738
574	0.000729
586	0.000792
598	0.001089
610	4.5e-05
622	0.000576
634	0.002898
646	0.014031
658	0.038484
670	0.018432
682	0.005364
694	0.001755
706	0.000846
718	0.000666
730	0.000819
742	0.001404
754	0.003141
766	0.007119
778	0.012339
790	0.019404
802	0.026955
814	0.022878
826	0.016164
838	0.009198
850	0.003753
862	0.003267
874	0.006885
886	0.00495
898	0.006255
910	0.018594
922	0.021537
934	0.021834
946	0.040563
958	0.047277
970	0.029538
982	0.016722
994	0.018513
1006	0.032643
1018	0.070938
1030	0.089424
1042	0.069273
1054	0.05049
1066	0.032364
1078	0.026496
1090	0.026406
1102	0.034461
1114	0.034002
1126	0.019926
1138	0.030555
1150	0.053694
1162	0.031275
1174	0.00945
1186	0.004797
1198	0.002547
1210	0.001332
1222	0.00126
1234	0.003303
1246	0.004869
1258	0.002916
1270	0.005166
1282	0.002736
1294	0.010305
1306	0.017865
1318	0.003024
1330	0.00117
1342	0.001017
1354	0.001674
1366	0.004716
1378	0.004824
1390	0.007083
1402	0.004851
1414	0.002241
1426	0.001881
1438	0.002061
1450	0.003258
1462	0.004059
1474	0.002439
1486	0.001701
1498	0.000909
1510	0.000504
1522	0.000261
1534	0.000135
1546	0.00018
1558	0.000369
1570	0.000855
1582	0.001863
1594	0.003276
1606	0.005013
1618	0.011808
1630	0.03033
1642	0.012051
1654	0.001944
1666	0.000891
1678	0.000504
1690	0.000396
1702	0.000477
1714	0.000414
1726	0.000324
1738	0.000432
1750	0.000396
1762	0.00027
1774	0.000297
1786	0.000387
1798	0.000576
1810	0.000774
1822	0.000837
1834	0.000801
1846	0.000558
1858	0.000405
1870	0.00027
1882	0.000198
1894	0.000162
1906	0.000135
1918	4.5e-05
1930	9e-06
1942	2.7e-05
1954	0
1966	2.7e-05
1978	9.9e-05
1990	0.000198
2002	0.000261
2014	0.000468
2026	0.00063
2038	0.000324
2050	0.000234
2062	0.000324
2074	0.000198
2086	3.6e-05
2098	2.7e-05
2110	3.6e-05
2122	0.000189
2134	0.000378
2146	0.000297
2158	0.000117
2170	5.4e-05
2182	0.000108
2194	0.00018
2206	0.000243
2218	0.000252
2230	0.000243
2242	0.000243
2254	0.000279
2266	0.000279
2278	0.00027
2290	0.000306
2302	0.000216
2314	9e-05
2326	0.000108
2338	0.000117
2350	9.9e-05
2362	0.000117
2374	9.9e-05
2386	9e-06
2398	5.4e-05
2410	9.9e-05
2422	0.000117
2434	0.000144
2446	0.000171
2458	0.000243
2470	0.000162
2482	7.2e-05
2494	4.5e-05
2506	8.1e-05
2518	8.1e-05
2530	5.4e-05
2542	0.000126
2554	0.000117
2566	6.3e-05
2578	8.1e-05
2590	0.000126
2602	0.000216
2614	0.000216
2626	0.000243
2638	0.000162
2650	0.000189
2662	0.000171
2674	0.000207
2686	0.000252
2698	0.000369
2710	0.000666
2722	0.001107
2734	0.000828
2746	0.00072
2758	0.000783
2770	0.000972
2782	0.001026
2794	0.000747
2806	0.000783
2818	0.000972
2830	0.001323
2842	0.001512
2854	0.002115
2866	0.003744
2878	0.009108
2890	0.012663
2902	0.007812
2914	0.008019
2926	0.010692
2938	0.018972
2950	0.013617
2962	0.010422
2974	0.019674
2986	0.03285
2998	0.014895
3010	0.0072
3022	0.004284
3034	0.002583
3046	0.001629
3058	0.001062
3070	0.000882
3082	0.000711
3094	0.000702
3106	0.00108
3118	0.00126
3130	0.000558
3142	0.000477
3154	0.000378
3166	0.000432
3178	0.000315
3190	0.000396
3202	0.000369
3214	0.000342
3226	0.000306
3238	0.000306
3250	0.000306
3262	0.000351
3274	0.000225
3286	0.000225
3298	0.000189
3310	0.000162
3322	0.000144
3334	8.1e-05
3346	0.000189
3358	0.000189
3370	0.000171
3382	0.000171
3394	0.000234
3406	0.000171
3418	0.000153
3430	0.000117
3442	3.6e-05
3454	0.000153
3466	0.000144
3478	0.000162
3490	0.000135
3502	6.3e-05
3514	4.5e-05
3526	0.00018
3538	0.000198
3550	5.4e-05
3562	0.000126
3574	0.000135
3586	0.00018
3598	0.000135
3610	9.9e-05
3622	0.000207
3634	0.000162
3646	0.000144
3658	0.000144
3670	0.000153
3682	0.000189
3694	0.000207
3706	0.000126
3718	0.000252
3730	0.000225
3742	0.000117
3754	0.000189
3766	0.00018
3778	0.000171
3790	0.000189
3802	0.000216
3814	0.000306
3826	0.000216
3838	0.000198
