Infrared Spectrum: Tris(4-tert-butylphenyl) phosphate
Formula: C30 H39 O4 P
CAS: 78-33-1
State: SOLUTION (10% CCl4 FOR 2.7-7.5, 10% CS2 FOR 7.5-26 MICRON) VS SOLVENT
Class: COBLENTZ III
Instrument: DOW KBr FOREPRISM-GRATING
Instrument parameters: BLAZED AT 3.5, 12.0, 20.0 MICRON AND CHANGED AT 5.0, 7.5, 14.9 MICRON
Sampling: TRANSMISSION
Path length: 0.011 CM, 0.011 CM
Resolution: 2
Origin: DOW CHEMICAL COMPANY
1/CM	TRANSMITTANCE
3794	0.849
3785	0.8473
3776	0.8481
3767	0.8485
3758	0.8478
3749	0.8473
3740	0.8474
3731	0.8481
3722	0.8505
3713	0.8543
3704	0.855
3695	0.8551
3686	0.8552
3677	0.8552
3668	0.8551
3659	0.8553
3650	0.8559
3641	0.8565
3632	0.8571
3623	0.8581
3614	0.8589
3605	0.8596
3596	0.8596
3587	0.8612
3578	0.8647
3569	0.8688
3560	0.8716
3551	0.8714
3542	0.8711
3533	0.8707
3524	0.8707
3515	0.8716
3506	0.8731
3497	0.8746
3488	0.8751
3479	0.8754
3470	0.8758
3461	0.8768
3452	0.8778
3443	0.8788
3434	0.8798
3425	0.8808
3416	0.8817
3407	0.8827
3398	0.8836
3389	0.8844
3380	0.8852
3371	0.8859
3362	0.8866
3353	0.8868
3344	0.8871
3335	0.8874
3326	0.8875
3317	0.8875
3308	0.8875
3299	0.8875
3290	0.8875
3281	0.8874
3272	0.887
3263	0.8862
3254	0.8854
3245	0.8847
3236	0.8841
3227	0.8832
3218	0.8823
3209	0.8815
3200	0.8809
3191	0.8809
3182	0.8801
3173	0.8792
3164	0.8786
3155	0.8783
3146	0.8782
3137	0.8771
3128	0.8768
3119	0.8671
3110	0.8602
3101	0.85
3092	0.8415
3083	0.8393
3074	0.8237
3065	0.7747
3056	0.7274
3047	0.7328
3038	0.7269
3029	0.768
3020	0.8146
3011	0.8135
3002	0.7869
2993	0.6893
2984	0.4217
2975	0.119
2966	0.0358
2957	0.0522
2948	0.1394
2939	0.269
2930	0.3525
2921	0.4167
2912	0.4569
2903	0.3249
2894	0.433
2885	0.5366
2876	0.4435
2867	0.3512
2858	0.4472
2849	0.7081
2840	0.7672
2831	0.8004
2822	0.8228
2813	0.8361
2804	0.8368
2795	0.8403
2786	0.8463
2777	0.8525
2768	0.8595
2759	0.8641
2750	0.8644
2741	0.8567
2732	0.8578
2723	0.8617
2714	0.8599
2705	0.8478
2696	0.8508
2687	0.8606
2678	0.866
2669	0.8665
2660	0.867
2651	0.8677
2642	0.8687
2633	0.8699
2624	0.8713
2615	0.871
2606	0.8693
2597	0.8667
2588	0.8634
2579	0.8617
2570	0.8611
2561	0.8617
2552	0.8636
2543	0.8668
2534	0.871
2525	0.8725
2516	0.8727
2507	0.8725
2498	0.8724
2489	0.873
2480	0.8737
2471	0.8734
2462	0.8732
2453	0.873
2444	0.873
2435	0.8732
2426	0.8725
2417	0.8659
2408	0.8599
2399	0.8607
2390	0.8561
2381	0.8545
2372	0.8565
2363	0.8587
2354	0.8604
2345	0.8618
2336	0.8633
2327	0.8652
2318	0.8667
2309	0.8649
2300	0.8605
2291	0.8594
2282	0.8617
2273	0.8642
2264	0.8656
2255	0.8668
2246	0.8684
2237	0.8703
2228	0.8725
2219	0.8741
2210	0.8753
2201	0.877
2192	0.8796
2183	0.8821
2174	0.8904
2165	0.8828
2156	0.8817
2147	0.8818
2138	0.8823
2129	0.8825
2120	0.8828
2111	0.8828
2102	0.883
2093	0.883
2084	0.8832
2075	0.8827
2066	0.8808
2057	0.8774
2048	0.874
2039	0.8708
2030	0.8638
2021	0.8574
2012	0.8586
2003	0.8644
1994	0.8725
1985	0.8695
1976	0.8693
1967	0.8706
1958	0.8654
1949	0.8478
1940	0.8462
1931	0.851
1922	0.8531
1913	0.8527
1904	0.8506
1895	0.8381
1886	0.7825
1877	0.7815
1868	0.8151
1859	0.8395
1850	0.856
1841	0.8654
1832	0.8681
1823	0.8673
1814	0.8666
1805	0.8666
1796	0.8671
1787	0.8685
1778	0.8699
1769	0.8641
1760	0.8349
1751	0.837
1742	0.8473
1733	0.8523
1724	0.8533
1715	0.8538
1706	0.8552
1697	0.8617
1688	0.8665
1679	0.8664
1670	0.863
1661	0.8521
1652	0.8175
1643	0.7968
1634	0.8111
1625	0.8128
1616	0.8001
1607	0.6354
1598	0.5176
1589	0.6575
1580	0.7324
1571	0.7851
1562	0.8104
1553	0.8257
1544	0.8318
1535	0.8193
1526	0.7498
1517	0.3814
1508	0.0125
1499	0.056
1490	0.2885
1481	0.4485
1472	0.4484
1463	0.3849
1454	0.4945
1445	0.6632
1436	0.7484
1427	0.7774
1418	0.771
1409	0.6569
1400	0.6968
1391	0.5491
1382	0.7233
1373	0.694
1364	0.1706
1355	0.6478
1346	0.7458
1337	0.7536
1328	0.7415
1319	0.5539
1310	0.0945
1301	0.1893
1292	0.13
1283	0.398
1274	0.5615
1265	0.2843
1256	0.536
1247	0.5746
1238	0.3709
1229	0.4267
1220	0.3318
1211	0.2408
1202	0.026
1193	0.0147
1184	0.4045
1175	0.1421
1166	0.0056
1157	0.3712
1148	0.6491
1139	0.7083
1130	0.7392
1121	0.7565
1112	0.5919
1103	0.5378
1094	0.7718
1085	0.7978
1076	0.8147
1067	0.8246
1058	0.8275
1049	0.8278
1040	0.8228
1031	0.7951
1022	0.7456
1013	0.1998
1004	0.634
995	0.5781
986	0.3127
977	0.0769
968	0.0001
959	0
950	0.0002
941	0.2119
932	0.1833
923	0.3759
914	0.5971
905	0.731
896	0.7656
887	0.79
878	0.8062
869	0.8076
860	0.7958
851	0.763
842	0.2466
833	0.0266
824	0.5504
815	0.7111
806	0.7689
797	0.8028
788	0.7467
779	0.4869
770	0.7596
761	0.8074
752	0.7583
743	0.8091
734	0.8425
725	0.7528
716	0.844
707	0.8556
698	0.8544
689	0.8511
680	0.8464
671	0.8273
662	0.7319
653	0.5944
644	0.6262
635	0.6512
626	0.6504
617	0.73
608	0.7881
599	0.8005
590	0.7998
581	0.7651
572	0.34
563	0.3221
554	0.4171
545	0.4831
536	0.3609
527	0.4082
518	0.5769
509	0.5138
500	0.5649
491	0.6425
482	0.72
473	0.7555
464	0.7582
455	0.7671
446	0.7775
437	0.7778
428	0.7774
419	0.7775
410	0.7799
401	0.7808
392	0.7778
