Infrared Spectrum: PHOSPHORIC ACID, TRIS-(2,3-DICHLOROPROPYL ESTER)
Formula: C9 H15 Cl6 O4 P
CAS: 78-43-3
Class: COBLENTZ
Instrument: Not specified, most likely a prism, grating, or hybrid spectrometer.
Sampling: TRANSMISSION
Path length: SMEAR
Resolution: 4
Origin: TENNESSEE EASTMAN COMPANY, RESEARCH LABORATORIES
MICROMETERS	TRANSMITTANCE
2.034	0.901
2.07491	0.906
2.11583	0.909
2.15674	0.911
2.19766	0.911
2.23857	0.901
2.27949	0.899
2.3204	0.899
2.36132	0.899
2.40223	0.899
2.44315	0.904
2.48406	0.908
2.52498	0.909
2.56589	0.911
2.60681	0.911
2.64772	0.913
2.68864	0.914
2.72955	0.914
2.77047	0.914
2.81138	0.913
2.8523	0.909
2.89321	0.908
2.93413	0.908
2.97504	0.911
3.01596	0.913
3.05687	0.916
3.09779	0.916
3.1387	0.916
3.17962	0.916
3.22053	0.916
3.26145	0.904
3.30236	0.853
3.34328	0.817
3.38419	0.676
3.42511	0.833
3.46602	0.87
3.50694	0.879
3.54785	0.923
3.58877	0.928
3.62968	0.93
3.6706	0.93
3.71151	0.925
3.75243	0.926
3.79334	0.931
3.83426	0.931
3.87517	0.933
3.91609	0.933
3.957	0.935
3.99792	0.936
4.03883	0.935
4.07974	0.936
4.12066	0.936
4.16157	0.936
4.20249	0.936
4.2434	0.942
4.28432	0.938
4.32523	0.938
4.36615	0.93
4.40706	0.938
4.44798	0.942
4.48889	0.94
4.52981	0.942
4.57072	0.945
4.61164	0.947
4.65255	0.947
4.69347	0.948
4.73438	0.948
4.7753	0.948
4.81621	0.948
4.85713	0.948
4.89804	0.948
4.93896	0.945
4.97987	0.942
5.02079	0.952
5.0617	0.945
5.10262	0.947
5.14353	0.947
5.18445	0.947
5.22536	0.947
5.26628	0.945
5.30719	0.943
5.34811	0.942
5.38902	0.936
5.42994	0.933
5.47085	0.933
5.51177	0.931
5.55268	0.931
5.5936	0.93
5.63451	0.93
5.67543	0.93
5.71634	0.93
5.75726	0.926
5.79817	0.928
5.83909	0.931
5.88	0.942
5.92092	0.931
5.96183	0.936
6.00275	0.93
6.04366	0.93
6.08458	0.93
6.12549	0.933
6.1664	0.936
6.20732	0.936
6.24823	0.938
6.28915	0.942
6.33006	0.947
6.37098	0.94
6.41189	0.935
6.45281	0.938
6.49372	0.928
6.53464	0.938
6.57555	0.933
6.61647	0.93
6.65738	0.931
6.6983	0.926
6.73921	0.921
6.78013	0.901
6.82104	0.858
6.86196	0.778
6.90287	0.565
6.94379	0.477
6.9847	0.431
7.02562	0.686
7.06653	0.855
7.10745	0.889
7.14836	0.892
7.18928	0.887
7.23019	0.86
7.27111	0.824
7.31202	0.77
7.35294	0.717
7.39385	0.691
7.43477	0.671
7.47568	0.672
7.5166	0.749
7.55751	0.792
7.59843	0.764
7.63934	0.633
7.68026	0.429
7.72117	0.32
7.76209	0.204
7.803	0.163
7.84392	0.172
7.88483	0.201
7.92575	0.255
7.96666	0.4
8.00758	0.504
8.04849	0.691
8.08941	0.754
8.13032	0.768
8.17123	0.713
8.21215	0.613
8.25306	0.592
8.29398	0.689
8.33489	0.71
8.37581	0.676
8.41672	0.684
8.45764	0.749
8.49855	0.787
8.53947	0.787
8.58038	0.775
8.6213	0.742
8.66221	0.669
8.70313	0.671
8.74404	0.695
8.78496	0.683
8.82587	0.655
8.86679	0.638
8.9077	0.611
8.94862	0.575
8.98953	0.512
9.03045	0.466
9.07136	0.446
9.11228	0.436
9.15319	0.419
9.19411	0.391
9.23502	0.342
9.27594	0.298
9.31685	0.258
9.35777	0.231
9.39868	0.192
9.4396	0.126
9.48051	0.083
9.52143	0.056
9.56234	0.045
9.60326	0.042
9.64417	0.042
9.68509	0.042
9.726	0.044
9.76692	0.049
9.80783	0.059
9.84875	0.071
9.88966	0.083
9.93058	0.09
9.97149	0.09
10.0124	0.08
10.0533	0.073
10.0942	0.073
10.1352	0.088
10.1761	0.126
10.217	0.192
10.2579	0.265
10.2988	0.325
10.3397	0.359
10.3806	0.362
10.4216	0.362
10.4625	0.361
10.5034	0.379
10.5443	0.436
10.5852	0.492
10.6261	0.568
10.667	0.626
10.708	0.674
10.7489	0.701
10.7898	0.729
10.8307	0.752
10.8716	0.771
10.9125	0.79
10.9534	0.8
10.9944	0.81
11.0353	0.814
11.0762	0.814
11.1171	0.81
11.158	0.795
11.1989	0.775
11.2399	0.735
11.2808	0.657
11.3217	0.55
11.3626	0.408
11.4035	0.313
11.4444	0.303
11.4853	0.361
11.5263	0.514
11.5672	0.638
11.6081	0.73
11.649	0.788
11.6899	0.81
11.7308	0.824
11.7717	0.834
11.8127	0.839
11.8536	0.844
11.8945	0.848
11.9354	0.848
11.9763	0.846
12.0172	0.839
12.0582	0.839
12.0991	0.827
12.14	0.817
12.1809	0.797
12.2218	0.771
12.2627	0.722
12.3036	0.681
12.3446	0.635
12.3855	0.604
12.4264	0.57
12.4673	0.555
12.5082	0.553
12.5491	0.56
12.59	0.577
12.631	0.582
12.6719	0.582
12.7128	0.582
12.7537	0.586
12.7946	0.592
12.8355	0.596
12.8764	0.568
12.9174	0.514
12.9583	0.442
12.9992	0.403
13.0401	0.362
13.081	0.354
13.1219	0.378
13.1629	0.419
13.2038	0.458
13.2447	0.49
13.2856	0.502
13.3265	0.507
13.3674	0.509
13.4083	0.516
13.4493	0.529
13.4902	0.548
13.5311	0.574
13.572	0.601
13.6129	0.635
13.6538	0.659
13.6947	0.681
13.7357	0.7
13.7766	0.713
13.8175	0.72
13.8584	0.722
13.8993	0.71
13.9402	0.672
13.9812	0.614
14.0221	0.562
14.063	0.494
14.1039	0.432
14.1448	0.386
14.1857	0.362
14.2266	0.354
14.2676	0.357
14.3085	0.371
14.3494	0.386
14.3903	0.419
14.4312	0.437
14.4721	0.451
14.513	0.461
14.554	0.473
14.5949	0.482
14.6358	0.5
14.6767	0.522
14.7176	0.553
14.7585	0.58
14.7994	0.62
14.8404	0.649
14.8813	0.674
14.9222	0.696
14.9631	0.706
15.004	0.72
15.0449	0.732
15.0859	0.739
15.1268	0.741
15.1677	0.744
15.2086	0.746
15.2495	0.746
15.2904	0.746
15.3313	0.742
15.3723	0.739
15.4132	0.737
15.4541	0.737
15.495	0.734
15.5359	0.732
15.5768	0.73
15.6177	0.729
15.6587	0.727
15.6996	0.724
15.7405	0.722
15.7814	0.72
15.8223	0.718
15.8632	0.715
15.9042	0.713
15.9451	0.715
15.986	0.715
