Infrared Spectrum: CARISOPRODOL
Formula: C12 H24 N2 O4
CAS: 78-44-4
State: SOLID (1 mg / 650 mg KBr DISC)
Class: COBLENTZ III
Instrument: PERKIN-ELMER 521 (GRATING)
Instrument parameters: FILTERS AT 3150, 2500, 2000, 1150, 700, 410. GRATING CHANGES: 2000, 630 CM^-^1
Sampling: TRANSMISSION
Resolution: 2
Origin: SOUTHERN RESEARCH INSTITUTE
1/CM	TRANSMITTANCE
249.364	0.286
259.508	0.3707
269.651	0.4498
279.795	0.5255
289.939	0.5776
300.082	0.6222
310.226	0.66
320.37	0.6758
330.514	0.7066
340.657	0.7313
350.801	0.7622
360.945	0.7832
371.088	0.7967
381.232	0.799
391.376	0.7778
401.519	0.811
411.663	0.813
421.807	0.824
431.95	0.83
442.094	0.8285
452.238	0.8207
462.382	0.8223
472.525	0.8214
482.669	0.8144
492.813	0.8143
502.956	0.7954
513.1	0.7727
523.244	0.7374
533.387	0.6859
543.531	0.637
553.675	0.6385
563.818	0.6603
573.962	0.6988
584.106	0.7266
594.25	0.7652
604.393	0.7921
614.537	0.8101
624.681	0.83
634.824	0.843
644.968	0.8529
655.112	0.8569
665.255	0.829
675.399	0.8637
685.543	0.868
695.686	0.8714
705.83	0.8853
715.974	0.89
726.118	0.8794
736.261	0.8735
746.405	0.884
756.549	0.893
766.692	0.8758
776.836	0.738
786.98	0.8054
797.123	0.8905
807.267	0.8875
817.411	0.902
827.554	0.8991
837.698	0.8941
847.842	0.8812
857.986	0.893
868.129	0.893
878.273	0.893
888.417	0.892
898.56	0.888
908.704	0.8768
918.848	0.859
928.991	0.8316
939.135	0.8052
949.279	0.8432
959.422	0.8434
969.566	0.8069
979.71	0.8211
989.854	0.848
999.997	0.838
1010.14	0.8289
1020.28	0.8251
1030.43	0.8141
1040.57	0.7922
1050.72	0.7451
1060.86	0.6541
1071	0.3665
1081.15	0.4807
1091.29	0.6085
1101.43	0.4951
1111.58	0.7079
1121.72	0.7727
1131.87	0.7431
1142.01	0.7681
1152.15	0.7434
1162.3	0.7284
1172.44	0.7546
1182.58	0.769
1192.73	0.7915
1202.87	0.7955
1213.01	0.7877
1223.16	0.7444
1233.3	0.6171
1243.45	0.4443
1253.59	0.5229
1263.73	0.6978
1273.88	0.772
1284.02	0.8017
1294.16	0.8025
1304.31	0.7418
1314.45	0.6279
1324.6	0.651
1334.74	0.7057
1344.88	0.5357
1355.03	0.6753
1365.17	0.708
1375.31	0.76
1385.46	0.4884
1395.6	0.7193
1405.74	0.5391
1415.89	0.4979
1426.03	0.6647
1436.18	0.7457
1446.32	0.714
1456.46	0.6073
1466.61	0.6198
1476.75	0.7091
1486.89	0.7873
1497.04	0.7973
1507.18	0.7451
1517.33	0.6156
1527.47	0.3483
1537.61	0.531
1547.76	0.7017
1557.9	0.763
1568.04	0.8069
1578.19	0.8245
1588.33	0.8136
1598.48	0.705
1608.62	0.5277
1618.76	0.7644
1628.91	0.7913
1639.05	0.794
1649.19	0.7779
1659.34	0.7161
1669.48	0.6389
1679.62	0.5249
1689.77	0.2341
1699.91	0.1373
1710.06	0.2906
1720.2	0.4557
1730.34	0.5801
1740.49	0.6801
1750.63	0.727
1760.77	0.7719
1770.92	0.7948
1781.06	0.8099
1791.21	0.8228
1801.35	0.8299
1811.49	0.8388
1821.64	0.8466
1831.78	0.8538
1841.92	0.859
1852.07	0.864
1862.21	0.8677
1872.35	0.8717
1882.5	0.875
1892.64	0.877
1902.79	0.878
1912.93	0.88
1923.07	0.881
1933.22	0.882
1943.36	0.8825
1953.5	0.883
1963.65	0.883
1973.79	0.883
1983.94	0.883
1994.08	0.881
2004.22	0.875
2014.37	0.877
2024.51	0.878
2034.65	0.88
2044.8	0.881
2054.94	0.881
2065.08	0.881
2075.23	0.881
2085.37	0.882
2095.52	0.883
2105.66	0.885
2115.8	0.886
2125.95	0.886
2136.09	0.886
2146.23	0.885
2156.38	0.886
2166.52	0.886
2176.67	0.886
2186.81	0.886
2196.95	0.886
2207.1	0.886
2217.24	0.887
2227.38	0.887
2237.53	0.887
2247.67	0.888
2257.82	0.89
2267.96	0.89
2278.1	0.89
2288.25	0.888
2298.39	0.888
2308.53	0.887
2318.68	0.888
2328.82	0.888
2338.96	0.888
2349.11	0.8867
2359.25	0.886
2369.4	0.886
2379.54	0.886
2389.68	0.887
2399.83	0.887
2409.97	0.887
2420.11	0.887
2430.26	0.8867
2440.4	0.886
2450.55	0.886
2460.69	0.887
2470.83	0.8867
2480.98	0.885
2491.12	0.883
2501.26	0.883
2511.41	0.883
2521.55	0.883
2531.69	0.883
2541.84	0.883
2551.98	0.883
2562.13	0.883
2572.27	0.883
2582.41	0.883
2592.56	0.885
2602.7	0.883
2612.84	0.881
2622.99	0.88
2633.13	0.88
2643.28	0.88
2653.42	0.88
2663.56	0.88
2673.71	0.878
2683.85	0.877
2693.99	0.876
2704.14	0.873
2714.28	0.873
2724.42	0.872
2734.57	0.872
2744.71	0.872
2754.86	0.8703
2765	0.871
2775.14	0.869
2785.29	0.868
2795.43	0.866
2805.57	0.8637
2815.72	0.862
2825.86	0.8603
2836.01	0.853
2846.15	0.8387
2856.29	0.805
2866.44	0.7577
2876.58	0.7547
2886.72	0.7687
2896.87	0.7467
2907.01	0.736
2917.16	0.7187
2927.3	0.6767
2937.44	0.6433
2947.59	0.709
2957.73	0.5743
2967.87	0.5327
2978.02	0.6066
2988.16	0.7016
2998.3	0.757
3008.45	0.8137
3018.59	0.828
3028.74	0.8323
3038.88	0.84
3049.02	0.8433
3059.17	0.844
3069.31	0.845
3079.45	0.847
3089.6	0.847
3099.74	0.847
3109.89	0.845
3120.03	0.843
3130.17	0.8427
3140.32	0.85
3150.46	0.8313
3160.6	0.8247
3170.75	0.813
3180.89	0.8007
3191.03	0.7794
3201.18	0.736
3211.32	0.6843
3221.47	0.7293
3231.61	0.763
3241.75	0.7573
3251.9	0.7281
3262.04	0.6657
3272.18	0.6357
3282.33	0.692
3292.47	0.7273
3302.62	0.7143
3312.76	0.7047
3322.9	0.6687
3333.05	0.6303
3343.19	0.63
3353.33	0.62
3363.48	0.606
3373.62	0.5341
3383.76	0.5343
3393.91	0.638
3404.05	0.672
3414.2	0.6717
3424.34	0.6553
3434.48	0.6087
3444.63	0.4744
3454.77	0.4089
3464.91	0.5476
3475.06	0.6486
3485.2	0.6913
3495.35	0.7163
3505.49	0.7363
3515.63	0.7513
3525.78	0.761
3535.92	0.772
3546.06	0.7793
3556.21	0.7877
3566.35	0.795
3576.5	0.7977
3586.64	0.805
3596.78	0.8117
3606.93	0.8167
3617.07	0.8217
3627.21	0.827
3637.36	0.8323
3647.5	0.834
3657.64	0.837
3667.79	0.838
3677.93	0.835
3688.08	0.837
3698.22	0.8433
3708.36	0.845
3718.51	0.845
3728.65	0.848
3738.79	0.845
3748.94	0.842
3759.08	0.8413
3769.23	0.848
3779.37	0.849
3789.51	0.849
3799.66	0.8487
3809.8	0.8483
3819.94	0.845
3830.09	0.8473
3840.23	0.8463
3850.37	0.845
3860.52	0.8437
3870.66	0.845
3880.81	0.847
3890.95	0.845
3901.09	0.845
3911.24	0.844
3921.38	0.848
3931.52	0.8487
3941.67	0.8483
3951.81	0.848
3961.96	0.848
3972.1	0.848
3982.24	0.848
3992.39	0.848
4002.53	0.847
