Infrared Spectrum: Tri-(2-ethylhexyl) phosphate
Formula: C24 H51 O4 P
CAS: 78-42-2
State: SOLUTION (10% CCl4 FOR 2.7-7.5, 10% CS2 FOR 7.5-26 MICRON) VS SOLVENT
Class: COBLENTZ III
Instrument: DOW KBr FOREPRISM-GRATING
Instrument parameters: BLAZED AT 3.5, 12.0, 20.0 MICRON AND CHANGED AT 5.0, 7.5, 14.9 MICRON
Sampling: TRANSMISSION
Path length: 0.011 CM, 0.011 CM
Resolution: 2
Origin: DOW CHEMICAL COMPANY
1/CM	TRANSMITTANCE
3796	0.8534
3787	0.8536
3778	0.8539
3769	0.8542
3760	0.8543
3751	0.854
3742	0.8535
3733	0.8533
3724	0.854
3715	0.8551
3706	0.8559
3697	0.8568
3688	0.8571
3679	0.8559
3670	0.8386
3661	0.828
3652	0.8375
3643	0.8514
3634	0.8544
3625	0.8547
3616	0.8556
3607	0.8571
3598	0.8591
3589	0.8612
3580	0.8633
3571	0.8654
3562	0.8673
3553	0.8684
3544	0.8693
3535	0.8698
3526	0.8696
3517	0.8686
3508	0.8664
3499	0.8628
3490	0.8578
3481	0.8508
3472	0.8428
3463	0.8354
3454	0.8286
3445	0.824
3436	0.823
3427	0.8232
3418	0.8261
3409	0.8321
3400	0.8384
3391	0.8449
3382	0.8514
3373	0.8573
3364	0.863
3355	0.8674
3346	0.8713
3337	0.8743
3328	0.8768
3319	0.8791
3310	0.8812
3301	0.8831
3292	0.8848
3283	0.8863
3274	0.8877
3265	0.8886
3256	0.8892
3247	0.8897
3238	0.8894
3229	0.8874
3220	0.8851
3211	0.8828
3202	0.8807
3193	0.8794
3184	0.8782
3175	0.8778
3166	0.8774
3157	0.877
3148	0.8768
3139	0.8765
3130	0.876
3121	0.8751
3112	0.8738
3103	0.8715
3094	0.8688
3085	0.8648
3076	0.8596
3067	0.853
3058	0.8461
3049	0.8392
3040	0.8318
3031	0.8218
3022	0.8053
3013	0.7803
3004	0.7515
2995	0.6898
2986	0.485
2977	0.2224
2968	0.0204
2959	0.0137
2950	0.0253
2941	0.0416
2932	0.0286
2923	0.0238
2914	0.0598
2905	0.1087
2896	0.1576
2887	0.2065
2878	0.0846
2869	0.1178
2860	0.0935
2851	0.2874
2842	0.5351
2833	0.6039
2824	0.6565
2815	0.7058
2806	0.7411
2797	0.7601
2788	0.7772
2779	0.79
2770	0.7992
2761	0.8044
2752	0.8076
2743	0.8103
2734	0.8105
2725	0.8078
2716	0.8104
2707	0.8194
2698	0.8277
2689	0.8343
2680	0.8385
2671	0.8393
2662	0.8383
2653	0.8401
2644	0.8445
2635	0.847
2626	0.8481
2617	0.8487
2608	0.8494
2599	0.8496
2590	0.8516
2581	0.8541
2572	0.8568
2563	0.8593
2554	0.8616
2545	0.8637
2536	0.866
2527	0.8684
2518	0.8704
2509	0.8718
2500	0.8731
2491	0.8747
2482	0.8761
2473	0.8773
2464	0.8785
2455	0.879
2446	0.8796
2437	0.8797
2428	0.8795
2419	0.8787
2410	0.878
2401	0.8768
2392	0.8755
2383	0.8741
2374	0.8739
2365	0.8752
2356	0.8761
2347	0.8767
2338	0.8773
2329	0.8775
2320	0.8775
2311	0.8718
2302	0.8703
2293	0.8709
2284	0.8721
2275	0.8728
2266	0.8736
2257	0.8746
2248	0.8757
2239	0.8768
2230	0.8777
2221	0.8784
2212	0.879
2203	0.8797
2194	0.8806
2185	0.8828
2176	0.8887
2167	0.8884
2158	0.8825
2149	0.8833
2140	0.8843
2131	0.8846
2122	0.8848
2113	0.8848
2104	0.8846
2095	0.8841
2086	0.8832
2077	0.8821
2068	0.8814
2059	0.8808
2050	0.8797
2041	0.8787
2032	0.8778
2023	0.8778
2014	0.8782
2005	0.8792
1996	0.8814
1987	0.8833
1978	0.8839
1969	0.8824
1960	0.88
1951	0.8787
1942	0.8768
1933	0.8743
1924	0.8718
1915	0.87
1906	0.8687
1897	0.8681
1888	0.8682
1879	0.8689
1870	0.8697
1861	0.8704
1852	0.8716
1843	0.8723
1834	0.8725
1825	0.872
1816	0.8713
1807	0.8705
1798	0.8697
1789	0.8711
1780	0.8725
1771	0.8739
1762	0.8753
1753	0.8758
1744	0.875
1735	0.8616
1726	0.8513
1717	0.8501
1708	0.8593
1699	0.8695
1690	0.8718
1681	0.8711
1672	0.8701
1663	0.8689
1654	0.8668
1645	0.8634
1636	0.8592
1627	0.8542
1618	0.8518
1609	0.8528
1600	0.8556
1591	0.8573
1582	0.8584
1573	0.8615
1564	0.8661
1555	0.8701
1546	0.8704
1537	0.8649
1528	0.8575
1519	0.851
1510	0.8401
1501	0.825
1492	0.7951
1483	0.7099
1474	0.4692
1465	0.1929
1456	0.3009
1447	0.5457
1438	0.6967
1429	0.7694
1420	0.783
1411	0.7894
1402	0.7733
1393	0.6708
1384	0.466
1375	0.6468
1366	0.7322
1357	0.7484
1348	0.7589
1339	0.7471
1330	0.7524
1321	0.7586
1312	0.7295
1303	0.6848
1294	0.3768
1285	0.1436
1276	0.1324
1267	0.1504
1258	0.1621
1249	0.3408
1240	0.5324
1231	0.6721
1222	0.7437
1213	0.763
1204	0.7753
1195	0.7975
1186	0.8184
1177	0.82
1168	0.7825
1159	0.7044
1150	0.6517
1141	0.6632
1132	0.6965
1123	0.7119
1114	0.6698
1105	0.6688
1096	0.6919
1087	0.5282
1078	0.4226
1069	0.3646
1060	0.3209
1051	0.2654
1042	0.0939
1033	0.019
1024	0.0017
1015	0.0019
1006	0.0096
997	0.0475
988	0.102
979	0.1152
970	0.2425
961	0.4582
952	0.6003
943	0.6785
934	0.6486
925	0.6106
916	0.5877
907	0.5255
898	0.5299
889	0.4312
880	0.3816
871	0.4377
862	0.5766
853	0.6933
844	0.7541
835	0.7454
826	0.7331
817	0.7414
808	0.7688
799	0.7404
790	0.7021
781	0.6749
772	0.6507
763	0.6769
754	0.8092
745	0.8146
736	0.7905
727	0.7061
718	0.8265
709	0.856
700	0.8651
691	0.8659
682	0.8647
673	0.8645
664	0.8878
655	0.8624
646	0.8635
637	0.8602
628	0.8414
619	0.7862
610	0.745
601	0.7428
592	0.7275
583	0.7192
574	0.7191
565	0.7076
556	0.6884
547	0.6696
538	0.6561
529	0.6518
520	0.6549
511	0.6584
502	0.6603
493	0.6621
484	0.659
475	0.6561
466	0.661
457	0.6819
448	0.7022
439	0.7192
430	0.7297
421	0.734
412	0.7374
403	0.7407
