Infrared Spectrum: 3,6-Dimethyl-4-octyn-3,6-diol
Formula: C 10 H 18 O 2
CAS: 78-66-0
State: gas
Instrument: HP-GC/MS/IRD
Origin: NIST Mass Spectrometry Data Center
1/CM	ABSORBANCE
550	0.0012006
562	0.0007092
574	0.0006408
586	0.0006642
598	0.0007218
610	0.000495
622	0.0003906
634	0.0003798
646	0.0003546
658	0.000342
670	0.000207
682	0.0001062
694	0.000189
706	1.8e-05
718	3.78e-05
730	7.38e-05
742	0.0002484
754	0.0004878
766	0.000315
778	0.0002664
790	0.0004932
802	0.000477
814	0.000207
826	0.0001404
838	0.0001746
850	0.000324
862	0.0004428
874	0.0006732
886	0.0013896
898	0.0036684
910	0.0064332
922	0.0046458
934	0.0022014
946	0.0022212
958	0.0030492
970	0.0024534
982	0.0027054
994	0.0038844
1006	0.0043308
1018	0.00414
1030	0.0040086
1042	0.0034074
1054	0.0028206
1066	0.0019098
1078	0.0017766
1090	0.0023382
1102	0.0033372
1114	0.0046746
1126	0.0063666
1138	0.0073278
1150	0.0072954
1162	0.006579
1174	0.004716
1186	0.0037494
1198	0.0038304
1210	0.0042282
1222	0.0040932
1234	0.0036306
1246	0.003348
1258	0.0032112
1270	0.0031554
1282	0.0033822
1294	0.0041472
1306	0.0053586
1318	0.0069516
1330	0.0079668
1342	0.008559
1354	0.0070344
1366	0.005373
1378	0.005598
1390	0.0036432
1402	0.0017568
1414	0.0012258
1426	0.001242
1438	0.0017658
1450	0.0025308
1462	0.0027846
1474	0.0018432
1486	0.000837
1498	0.0004698
1510	0.000369
1522	0.0002934
1534	0.0003042
1546	0.0002574
1558	0.000243
1570	0.0002178
1582	0.0001746
1594	0.0001584
1606	0.0001422
1618	0.0001404
1630	0.0001134
1642	0.0001008
1654	9.18e-05
1666	9.72e-05
1678	7.38e-05
1690	3.42e-05
1702	3.78e-05
1714	2.7e-05
1726	3.06e-05
1738	7.2e-06
1750	2.52e-05
1762	1.08e-05
1774	3.06e-05
1786	9e-06
1798	3.06e-05
1810	3.24e-05
1822	4.5e-05
1834	5.22e-05
1846	2.16e-05
1858	4.14e-05
1870	2.52e-05
1882	1.98e-05
1894	5.94e-05
1906	4.68e-05
1918	6.12e-05
1930	4.14e-05
1942	4.86e-05
1954	4.86e-05
1966	3.6e-05
1978	5.22e-05
1990	1.62e-05
2002	5.4e-05
2014	2.34e-05
2026	5.22e-05
2038	3.42e-05
2050	5.94e-05
2062	5.4e-05
2074	3.42e-05
2086	5.04e-05
2098	5.76e-05
2110	3.96e-05
2122	5.22e-05
2134	3.78e-05
2146	4.14e-05
2158	6.12e-05
2170	6.12e-05
2182	5.58e-05
2194	5.76e-05
2206	7.38e-05
2218	6.66e-05
2230	7.02e-05
2242	7.2e-05
2254	6.66e-05
2266	6.48e-05
2278	6.66e-05
2290	6.66e-05
2302	3.24e-05
2314	9.72e-05
2326	7.2e-05
2338	5.94e-05
2350	4.32e-05
2362	6.48e-05
2374	0.0001044
2386	7.2e-05
2398	0.0001098
2410	8.1e-05
2422	7.2e-05
2434	7.38e-05
2446	6.3e-05
2458	3.6e-05
2470	3.24e-05
2482	4.68e-05
2494	4.68e-05
2506	3.06e-05
2518	5.94e-05
2530	3.96e-05
2542	5.22e-05
2554	5.94e-05
2566	4.32e-05
2578	5.76e-05
2590	7.38e-05
2602	9.54e-05
2614	8.64e-05
2626	9.36e-05
2638	0.0001062
2650	8.46e-05
2662	0.0001152
2674	0.0001026
2686	7.56e-05
2698	0.0001224
2710	0.0001116
2722	0.0001404
2734	0.0001926
2746	0.0002664
2758	0.0002376
2770	0.000279
2782	0.0002772
2794	0.0003672
2806	0.0004374
2818	0.0005166
2830	0.000657
2842	0.0009738
2854	0.0016416
2866	0.0025074
2878	0.0034704
2890	0.0043902
2902	0.0039438
2914	0.0041418
2926	0.007335
2938	0.0112734
2950	0.0098496
2962	0.0076662
2974	0.0142344
2986	0.0172512
2998	0.0082818
3010	0.0024948
3022	0.001089
3034	0.000837
3046	0.0006948
3058	0.000549
3070	0.0005202
3082	0.0005256
3094	0.0004608
3106	0.0003906
3118	0.000342
3130	0.0003114
3142	0.0001998
3154	0.0002484
3166	0.0001782
3178	0.0002124
3190	0.00018
3202	0.000171
3214	0.0002016
3226	0.000162
3238	0.0001314
3250	8.82e-05
3262	5.04e-05
3274	3.42e-05
3286	8.46e-05
3298	3.06e-05
3310	7.56e-05
3322	3.6e-05
3334	9.18e-05
3346	9.72e-05
3358	9.72e-05
3370	0.0001224
3382	0.0001386
3394	0.0001224
3406	8.28e-05
3418	0.0001098
3430	0.0001296
3442	8.46e-05
3454	0.000144
3466	0.0001404
3478	0.0001134
3490	7.02e-05
3502	0.0001512
3514	0.0001548
3526	0.0001152
3538	0.0001026
3550	8.46e-05
3562	8.64e-05
3574	0.0001062
3586	0.00018
3598	0.0001908
3610	0.000342
3622	0.0009936
3634	0.0026892
3646	0.0030978
3658	0.00126
3670	0.0003222
3682	0.0001944
3694	0.0001818
3706	0.0001296
3718	0.0001386
3730	0.000144
3742	0.000126
3754	0.0001512
3766	0.0001368
3778	0.000162
3790	0.0001818
3802	0.0001602
3814	0.0002052
3826	0.0001368
3838	0.0001098
