Infrared Spectrum: 2,2'-Azobis(2-methylpropionitrile)
Formula: C 8 H 12 N 4
CAS: 78-67-1
State: gas
Instrument: HP-GC/MS/IRD
Origin: NIST Mass Spectrometry Data Center
1/CM	ABSORBANCE
550	0.0001206
562	8.46e-05
574	0.0001377
586	6.84e-05
598	0.000171
610	0.0001917
622	0.0002214
634	0.0002268
646	0.0001404
658	1.89e-05
670	6.12e-05
682	6.93e-05
694	9.99e-05
706	9.72e-05
718	0.0001089
730	0.0001656
742	0.0002664
754	0.0001998
766	0.0002052
778	0.0002394
790	0.0001557
802	8.37e-05
814	0.0001467
826	0.0001386
838	9.99e-05
850	8.28e-05
862	6.03e-05
874	9.09e-05
886	0.000144
898	0.0001188
910	0.000207
922	0.0001206
934	0.0001656
946	0.0002529
958	0.000261
970	0.0001422
982	0.0001161
994	0.0001116
1006	0.0001089
1018	0.0001107
1030	8.91e-05
1042	0.0001152
1054	0.0001368
1066	0.0002052
1078	0.0002484
1090	0.0003663
1102	0.0006525
1114	0.0010557
1126	0.0016416
1138	0.0029808
1150	0.0035559
1162	0.0021114
1174	0.0015669
1186	0.0015534
1198	0.0012249
1210	0.0007974
1222	0.0005661
1234	0.0004806
1246	0.0002997
1258	0.0002583
1270	0.0002034
1282	0.0001836
1294	0.00018
1306	0.0002097
1318	0.0001998
1330	0.0002133
1342	0.0002295
1354	0.0003456
1366	0.0010152
1378	0.0028728
1390	0.0041733
1402	0.0025128
1414	0.0008154
1426	0.0005373
1438	0.0008307
1450	0.0018
1462	0.0033687
1474	0.0031455
1486	0.0014067
1498	0.0004734
1510	0.0003132
1522	0.0002466
1534	0.0002016
1546	0.0001755
1558	0.0001404
1570	0.0001323
1582	0.0001026
1594	0.0001314
1606	0.0001413
1618	0.0001449
1630	0.000126
1642	0.0001431
1654	0.0001602
1666	0.0001143
1678	0.0001404
1690	0.0001278
1702	0.0001332
1714	0.0001188
1726	0.0001206
1738	9.72e-05
1750	0.0001017
1762	0.0001071
1774	0.000108
1786	0.0001071
1798	0.0001125
1810	5.4e-05
1822	6.66e-05
1834	9.54e-05
1846	9.36e-05
1858	8.1e-05
1870	6.03e-05
1882	6.93e-05
1894	7.65e-05
1906	5.94e-05
1918	5.4e-05
1930	5.04e-05
1942	5.49e-05
1954	5.31e-05
1966	7.74e-05
1978	5.49e-05
1990	4.95e-05
2002	3.33e-05
2014	7.74e-05
2026	6.03e-05
2038	7.56e-05
2050	5.67e-05
2062	6.21e-05
2074	3.69e-05
2086	5.58e-05
2098	2.43e-05
2110	1.8e-05
2122	9.9e-06
2134	5.4e-05
2146	3.6e-06
2158	0
2170	2.88e-05
2182	1.89e-05
2194	3.06e-05
2206	9.9e-06
2218	3.51e-05
2230	0.0001098
2242	0.000189
2254	9.27e-05
2266	3.42e-05
2278	4.05e-05
2290	3.96e-05
2302	4.14e-05
2314	7.47e-05
2326	6.93e-05
2338	5.22e-05
2350	4.86e-05
2362	5.85e-05
2374	5.4e-05
2386	5.85e-05
2398	7.2e-05
2410	6.66e-05
2422	7.74e-05
2434	5.58e-05
2446	8.1e-05
2458	5.04e-05
2470	3.42e-05
2482	6.12e-05
2494	4.95e-05
2506	4.86e-05
2518	5.94e-05
2530	7.92e-05
2542	6.75e-05
2554	7.11e-05
2566	9.18e-05
2578	7.74e-05
2590	0.0001008
2602	6.3e-05
2614	7.56e-05
2626	7.83e-05
2638	8.19e-05
2650	0.0001107
2662	7.65e-05
2674	3.42e-05
2686	3.96e-05
2698	5.13e-05
2710	6.03e-05
2722	7.74e-05
2734	9e-05
2746	9.27e-05
2758	0.0001062
2770	6.66e-05
2782	0.0001539
2794	0.0001242
2806	0.000153
2818	0.0002295
2830	0.0002178
2842	0.0002727
2854	0.0003177
2866	0.0004302
2878	0.0008208
2890	0.0012843
2902	0.0013509
2914	0.0012636
2926	0.0014391
2938	0.0019926
2950	0.0027081
2962	0.0025065
2974	0.0021339
2986	0.0054621
2998	0.009
3010	0.006174
3022	0.0022185
3034	0.0007164
3046	0.0003807
3058	0.000306
3070	0.0002475
3082	0.0002268
3094	0.0001899
3106	0.0002556
3118	0.0001818
3130	0.0001953
3142	0.0001629
3154	0.0001935
3166	0.0002016
3178	0.0002106
3190	0.000198
3202	0.0001809
3214	0.0001512
3226	0.0002394
3238	0.0001791
3250	0.0001899
3262	0.000117
3274	0.0001062
3286	0.0001044
3298	6.57e-05
3310	8.91e-05
3322	0.000117
3334	7.47e-05
3346	8.19e-05
3358	5.76e-05
3370	0.000135
3382	9.81e-05
3394	0.0001134
3406	0.0001089
3418	0.000117
3430	0.0001053
3442	8.64e-05
3454	9.72e-05
3466	9.63e-05
3478	9.36e-05
3490	0.0001368
3502	5.67e-05
3514	9.9e-05
3526	9.99e-05
3538	8.82e-05
3550	0.0001017
3562	5.67e-05
3574	0.0001089
3586	6.12e-05
3598	0.0001296
3610	7.47e-05
3622	0.0001161
3634	1.89e-05
3646	7.11e-05
3658	5.13e-05
3670	4.59e-05
3682	8.01e-05
3694	2.52e-05
3706	8.37e-05
3718	2.43e-05
3730	4.68e-05
3742	4.41e-05
3754	6.39e-05
3766	7.74e-05
3778	7.92e-05
3790	7.65e-05
3802	0.0001224
3814	0.0001269
3826	0.0001071
3838	6.39e-05
