Infrared Spectrum: 3,7-Dimethyl-3-octanol
Formula: C 10 H 22 O
CAS: 78-69-3
State: gas
Instrument: HP-GC/MS/IRD
Origin: NIST Mass Spectrometry Data Center
1/CM	ABSORBANCE
550	0.0007812
562	0.0003096
574	0.0003096
586	0.000306
598	1.44e-05
610	0.0001908
622	0.0002016
634	0.0002412
646	0.000198
658	0.0002268
670	0.0001908
682	0.0002412
694	0.0003168
706	0.0002772
718	0.0004464
730	0.0005148
742	0.0006084
754	0.0004248
766	0.0004428
778	0.000432
790	0.0005004
802	0.0005184
814	0.0004572
826	0.0006012
838	0.000738
850	0.0006084
862	0.0005796
874	0.0008712
886	0.001602
898	0.002664
910	0.0029844
922	0.0028512
934	0.002412
946	0.0021132
958	0.0019692
970	0.0022176
982	0.0020556
994	0.0018216
1006	0.001782
1018	0.0017244
1030	0.0017748
1042	0.001998
1054	0.0016704
1066	0.0015732
1078	0.0017208
1090	0.00207
1102	0.0023652
1114	0.0027324
1126	0.0032076
1138	0.0038484
1150	0.004788
1162	0.0052992
1174	0.0044316
1186	0.0032112
1198	0.002862
1210	0.0026424
1222	0.0024408
1234	0.0024228
1246	0.0025704
1258	0.0026172
1270	0.0024948
1282	0.0024264
1294	0.002448
1306	0.0025308
1318	0.0025488
1330	0.0025164
1342	0.0027252
1354	0.0031464
1366	0.0045756
1378	0.0063036
1390	0.0051516
1402	0.0022716
1414	0.0014544
1426	0.0014508
1438	0.0021348
1450	0.003618
1462	0.0053496
1474	0.0044928
1486	0.0020916
1498	0.0010188
1510	0.0006372
1522	0.0004968
1534	0.000342
1546	0.0002916
1558	0.0003348
1570	0.0002844
1582	0.0002736
1594	0.0002304
1606	0.0002412
1618	0.0002232
1630	0.000198
1642	0.0002052
1654	0.0002088
1666	0.0001656
1678	0.0001692
1690	0.000126
1702	0.0001404
1714	0.0001476
1726	0.0001188
1738	0.0001152
1750	0.0001116
1762	0.0001116
1774	7.92e-05
1786	9.72e-05
1798	0.0001008
1810	9.72e-05
1822	9e-05
1834	0.0001044
1846	0.0001044
1858	0.0001044
1870	7.56e-05
1882	7.92e-05
1894	7.2e-05
1906	7.92e-05
1918	5.76e-05
1930	5.4e-05
1942	6.48e-05
1954	2.16e-05
1966	2.52e-05
1978	2.52e-05
1990	5.04e-05
2002	7.56e-05
2014	5.04e-05
2026	6.48e-05
2038	5.76e-05
2050	5.04e-05
2062	7.2e-05
2074	6.48e-05
2086	5.76e-05
2098	6.12e-05
2110	6.12e-05
2122	5.04e-05
2134	5.4e-05
2146	2.88e-05
2158	4.32e-05
2170	5.76e-05
2182	6.84e-05
2194	5.4e-05
2206	5.04e-05
2218	6.84e-05
2230	1.8e-05
2242	5.04e-05
2254	5.4e-05
2266	9.36e-05
2278	9.72e-05
2290	0.0001044
2302	0.0001044
2314	7.2e-05
2326	0.000126
2338	0.0001296
2350	0.0001368
2362	0.00018
2374	0.0001368
2386	0.0001116
2398	9.36e-05
2410	7.92e-05
2422	0.0001008
2434	0.0001224
2446	0.0001188
2458	9e-05
2470	9.36e-05
2482	0.0001116
2494	0.0001008
2506	0.0001404
2518	0.0001008
2530	7.92e-05
2542	0.000144
2554	0.000126
2566	0.0001764
2578	0.000198
2590	0.0002628
2602	0.0002484
2614	0.0002988
2626	0.0003132
2638	0.0003384
2650	0.0003456
2662	0.0003348
2674	0.00036
2686	0.0003924
2698	0.0004104
2710	0.0004752
2722	0.0005904
2734	0.000702
2746	0.0006804
2758	0.0006948
2770	0.0007704
2782	0.0008568
2794	0.0010656
2806	0.001332
2818	0.0017136
2830	0.002466
2842	0.004212
2854	0.0070848
2866	0.0094536
2878	0.012906
2890	0.0146124
2902	0.0163188
2914	0.0190836
2926	0.0224244
2938	0.0273528
2950	0.0286092
2962	0.0348228
2974	0.0308196
2986	0.015606
2998	0.0061128
3010	0.0027792
3022	0.001764
3034	0.0013356
3046	0.0011124
3058	0.0010044
3070	0.0009468
3082	0.0008532
3094	0.0007812
3106	0.0006588
3118	0.00063
3130	0.0005616
3142	0.0005076
3154	0.0005004
3166	0.0004644
3178	0.0004608
3190	0.0004716
3202	0.0003708
3214	0.0002808
3226	0.000198
3238	0.0001332
3250	0.0001224
3262	9.36e-05
3274	0.0001404
3286	0.0001584
3298	0.0001152
3310	0.0001044
3322	0.0001008
3334	0.0001476
3346	0.0001296
3358	0.00018
3370	0.0001188
3382	6.48e-05
3394	0.0001332
3406	0.0001332
3418	0.0001044
3430	0.0001188
3442	0.0001332
3454	9.72e-05
3466	8.64e-05
3478	4.32e-05
3490	3.24e-05
3502	6.12e-05
3514	4.32e-05
3526	6.48e-05
3538	5.76e-05
3550	7.2e-06
3562	8.28e-05
3574	7.56e-05
3586	2.88e-05
3598	7.56e-05
3610	0.0001656
3622	0.0004752
3634	0.00126
3646	0.0013392
3658	0.0005616
3670	0.0001872
3682	0.000144
3694	6.84e-05
3706	7.92e-05
3718	1.8e-05
3730	6.12e-05
3742	6.48e-05
3754	1.8e-05
3766	4.32e-05
3778	6.48e-05
3790	0.000144
3802	0.0001116
3814	0.0001116
3826	0.000198
3838	7.2e-05
