Infrared Spectrum: Diethoxydimethylsilane
Formula: C 6 H 16 O 2 Si
CAS: 78-62-6
State: gas
Origin: EPA-IR VAPOR PHASE LIBRARY
1/CM	ABSORBANCE
501.5	0.0005005
513.074	0.0002353
524.648	0.0002101
536.222	0.0001795
547.796	0.0001884
559.37	0.0003154
570.944	0.0002113
582.518	0.0004489
594.092	0.000388
605.666	0.0005886
617.24	0.0009393
628.814	0.0011069
640.388	0.0011969
651.962	0.0013169
663.536	0.0018669
675.11	0.0031469
686.684	0.0049869
698.258	0.0073969
709.832	0.0125069
721.406	0.0194969
732.98	0.0206569
744.554	0.0172669
756.128	0.0159769
767.702	0.0189369
779.276	0.0364269
790.85	0.0718269
802.423	0.0747269
813.997	0.0490069
825.571	0.0552569
837.145	0.0814669
848.719	0.0767669
860.293	0.0457469
871.867	0.0265069
883.441	0.0171069
895.015	0.0125469
906.589	0.0121569
918.163	0.0187869
929.737	0.0400469
941.311	0.0744469
952.885	0.0794369
964.459	0.0455769
976.033	0.0201269
987.607	0.0114669
999.181	0.0087769
1010.76	0.0086969
1022.33	0.0107569
1033.9	0.0158869
1045.48	0.0267269
1057.05	0.0499969
1068.63	0.0907569
1080.2	0.117207
1091.77	0.107027
1103.35	0.141217
1114.92	0.197507
1126.49	0.171387
1138.07	0.117547
1149.64	0.0827369
1161.22	0.0596869
1172.79	0.0443369
1184.36	0.0326269
1195.94	0.0220169
1207.51	0.0155069
1219.09	0.0131169
1230.66	0.0142869
1242.23	0.0232169
1253.81	0.0480369
1265.38	0.0603469
1276.96	0.0339369
1288.53	0.0161069
1300.1	0.0123069
1311.68	0.0100969
1323.25	0.0080569
1334.83	0.0071969
1346.4	0.0074569
1357.97	0.0086969
1369.55	0.0111869
1381.12	0.0167069
1392.7	0.0222869
1404.27	0.0170469
1415.84	0.0098769
1427.42	0.0077969
1438.99	0.0070769
1450.57	0.0064869
1462.14	0.0052669
1473.71	0.0042369
1485.29	0.0035669
1496.86	0.0028569
1508.44	0.0021969
1520.01	0.0018169
1531.58	0.0015169
1543.16	0.0013369
1554.73	0.0012469
1566.31	0.0011069
1577.88	0.0009113
1589.45	0.0007902
1601.03	0.0007043
1612.6	0.0006826
1624.18	0.0006936
1635.75	0.0007663
1647.32	0.000878
1658.9	0.0010569
1670.47	0.0012069
1682.05	0.0011769
1693.62	0.0011069
1705.19	0.0010154
1716.77	0.0009482
1728.34	0.0010127
1739.92	0.0010122
1751.49	0.0009964
1763.06	0.0010569
1774.64	0.0012569
1786.21	0.0015469
1797.79	0.0017469
1809.36	0.0018769
1820.93	0.0019769
1832.51	0.0022469
1844.08	0.0024869
1855.66	0.0023369
1867.23	0.0020669
1878.8	0.0018369
1890.38	0.0015069
1901.95	0.0012469
1913.53	0.0011269
1925.1	0.0010669
1936.67	0.0010469
1948.25	0.0010291
1959.82	0.0010339
1971.4	0.0009789
1982.97	0.000861
1994.54	0.0007448
2006.12	0.0005766
2017.69	0.000431
2029.27	0.0003253
2040.84	0.0003515
2052.41	0.000408
2063.99	0.0003753
2075.56	0.0003225
2087.14	0.0003192
2098.71	0.0003678
2110.28	0.0003774
2121.86	0.0003126
2133.43	0.0003191
2145.01	0.0002879
2156.58	0.0003354
2168.15	0.0004876
2179.73	0.0005845
2191.3	0.0006233
2202.88	0.0005628
2214.45	0.0005062
2226.02	0.0005158
2237.6	0.0004788
2249.17	0.0003942
2260.74	0.0003489
2272.32	0.0002411
2283.89	0.0002082
2295.47	0.0002195
2307.04	0.0002236
2318.61	0.0002562
2330.19	0.0002815
2341.76	0.0002394
2353.34	0.0001502
2364.91	8.573e-05
2376.48	1.99e-05
2388.06	2.18e-05
2399.63	5.456e-05
2411.21	6.952e-05
2422.78	0.000123
2434.35	0.0002207
2445.93	0.0003192
2457.5	0.0003384
2469.08	0.0002288
2480.65	0.0001723
2492.22	0.0001854
2503.8	0.0001864
2515.37	0.0001717
2526.95	8.244e-05
2538.52	0.00011179
2550.09	0.0001614
2561.67	0.0002603
2573.24	0.0003359
2584.82	0.0003227
2596.39	0.0004356
2607.96	0.0005422
2619.54	0.0006396
2631.11	0.0006623
2642.69	0.0007831
2654.26	0.0007771
2665.83	0.0008517
2677.41	0.0009002
2688.98	0.0010469
2700.56	0.0013569
2712.13	0.0019969
2723.7	0.0027469
2735.28	0.0033269
2746.85	0.0035869
2758.43	0.0036769
2770	0.0038669
2781.57	0.0037969
2793.15	0.0038569
2804.72	0.0045269
2816.3	0.0057369
2827.87	0.0075569
2839.44	0.0103869
2851.02	0.0148969
2862.59	0.0222069
2874.17	0.0326269
2885.74	0.0404969
2897.31	0.0417469
2908.89	0.0431169
2920.46	0.0434769
2932.04	0.0477169
2943.61	0.0457269
2955.18	0.0461369
2966.76	0.0645369
2978.33	0.0696869
2989.91	0.0465369
3001.48	0.0266069
3013.05	0.0166769
3024.63	0.0104669
3036.2	0.0072369
3047.78	0.0055869
3059.35	0.0047569
3070.92	0.0042269
3082.5	0.0036569
3094.07	0.0031869
3105.65	0.0027669
3117.22	0.0023369
3128.79	0.0018369
3140.37	0.0014069
3151.94	0.0011169
3163.52	0.0010769
3175.09	0.0011069
3186.66	0.0010869
3198.24	0.0009494
3209.81	0.0009115
3221.39	0.0007873
3232.96	0.0006634
3244.53	0.0005456
3256.11	0.0003961
3267.68	0.0003539
3279.26	0.0002904
3290.83	0.0002301
3302.4	0.0002241
3313.98	0.0003167
3325.55	0.0002214
3337.13	0.0001568
3348.7	0.0001909
3360.27	0.0002505
3371.85	0.0002225
3383.42	0.0001553
3395	0.0002303
3406.57	0.0001741
3418.14	0.00011011
3429.72	8.611e-05
3441.29	6.733e-05
3452.86	7.377e-05
3464.44	4.21e-05
3476.01	0.0001273
3487.59	6.253e-05
3499.16	5.5716e-05
3510.73	0.00013465
3522.31	0.00010563
3533.88	0.00010246
3545.46	0.00011102
3557.03	0.0002067
3568.6	0.0001506
3580.18	0.0002711
3591.75	0.0003299
3603.33	0.0003153
3614.9	0.0002418
3626.47	0.0003978
3638.05	0.0004439
3649.62	0.0004039
3661.2	0.0004884
3672.77	0.0004813
3684.34	0.0004865
3695.92	0.0005727
3707.49	0.0006223
3719.07	0.000591
3730.64	0.0005575
3742.21	0.0007174
3753.79	0.000603
3765.36	0.00054
3776.94	0.0004657
3788.51	0.000384
3800.08	0.0002919
3811.66	0.0003256
3823.23	0.0003236
3834.81	0.000376
3846.38	0.0002141
3857.95	0.0002314
3869.53	0.0002772
3881.1	0.0002564
3892.68	0.000297
3904.25	0.000238
3915.82	0.0002541
3927.4	0.0003252
3938.97	0.0003719
3950.55	0.0003479
3962.12	0.0003691
3973.69	0.0003941
3985.27	0.0005184
3996.84	0.0006404
