Infrared Spectrum: Linolool
Formula: C 10 H 18 O
CAS: 78-70-6
State: gas
Instrument: HP-GC/MS/IRD
Origin: NIST Mass Spectrometry Data Center
1/CM	ABSORBANCE
550	0.000477
562	0.0003345
574	0.000216
586	0.0001485
598	9.75e-05
610	7.5e-05
622	7.95e-05
634	0.000213
646	0.000147
658	0.0002745
670	0.000612
682	0.000942
694	0.0008505
706	0.000639
718	0.0005265
730	0.0005505
742	0.000507
754	0.0005205
766	0.00042
778	0.000393
790	0.000507
802	0.000732
814	0.001059
826	0.0014445
838	0.001434
850	0.0010395
862	0.000873
874	0.0009945
886	0.0014685
898	0.002616
910	0.0049905
922	0.0077445
934	0.0050145
946	0.003123
958	0.002433
970	0.002163
982	0.002856
994	0.003957
1006	0.003027
1018	0.002244
1030	0.0018375
1042	0.0017115
1054	0.001929
1066	0.0022665
1078	0.0030165
1090	0.004074
1102	0.0047865
1114	0.004677
1126	0.0039015
1138	0.003273
1150	0.0029355
1162	0.0030885
1174	0.003231
1186	0.0032355
1198	0.003021
1210	0.0026985
1222	0.0024165
1234	0.0023685
1246	0.002316
1258	0.002295
1270	0.002316
1282	0.0023835
1294	0.00252
1306	0.002574
1318	0.0025005
1330	0.0023445
1342	0.0024675
1354	0.0025275
1366	0.0034785
1378	0.0046155
1390	0.003414
1402	0.0026715
1414	0.003159
1426	0.002646
1438	0.0027825
1450	0.003078
1462	0.0027045
1474	0.001689
1486	0.000993
1498	0.000693
1510	0.0005475
1522	0.000489
1534	0.000423
1546	0.0004125
1558	0.0003975
1570	0.000357
1582	0.0003825
1594	0.000405
1606	0.000432
1618	0.000531
1630	0.00066
1642	0.000837
1654	0.000717
1666	0.0005145
1678	0.00033
1690	0.00018
1702	0.0001245
1714	7.65e-05
1726	3e-05
1738	3.9e-05
1750	2.4e-05
1762	2.1e-05
1774	6.3e-05
1786	6.75e-05
1798	4.65e-05
1810	6.75e-05
1822	0.00015
1834	0.0002985
1846	0.00051
1858	0.000318
1870	0.000165
1882	7.35e-05
1894	5.1e-05
1906	4.65e-05
1918	5.4e-05
1930	4.8e-05
1942	4.95e-05
1954	6.15e-05
1966	7.35e-05
1978	5.55e-05
1990	5.85e-05
2002	2.25e-05
2014	3.45e-05
2026	4.2e-05
2038	2.4e-05
2050	2.4e-05
2062	5.1e-05
2074	3.75e-05
2086	3.3e-05
2098	0
2110	2.4e-05
2122	3e-05
2134	2.55e-05
2146	2.25e-05
2158	3e-05
2170	3.9e-05
2182	1.8e-05
2194	1.5e-05
2206	4.65e-05
2218	1.95e-05
2230	3.45e-05
2242	5.25e-05
2254	3.9e-05
2266	4.05e-05
2278	5.4e-05
2290	3.75e-05
2302	4.95e-05
2314	3.6e-05
2326	7.5e-05
2338	9.75e-05
2350	8.55e-05
2362	0.0001035
2374	0.0001185
2386	8.85e-05
2398	7.2e-05
2410	0.000117
2422	9.6e-05
2434	8.7e-05
2446	7.95e-05
2458	0.0001155
2470	0.0001335
2482	6.75e-05
2494	8.25e-05
2506	6.3e-05
2518	9.6e-05
2530	7.95e-05
2542	8.55e-05
2554	0.0001125
2566	9.75e-05
2578	0.0001125
2590	0.0001185
2602	0.000123
2614	0.000129
2626	9.75e-05
2638	0.000123
2650	0.0001215
2662	0.0001815
2674	0.0001365
2686	0.000135
2698	0.0002235
2710	0.000291
2722	0.0004095
2734	0.000561
2746	0.0006075
2758	0.00045
2770	0.0005235
2782	0.000546
2794	0.0006615
2806	0.0008505
2818	0.00114
2830	0.0015765
2842	0.002637
2854	0.0043845
2866	0.0065265
2878	0.0069225
2890	0.007206
2902	0.0081705
2914	0.01107
2926	0.0147225
2938	0.0136425
2950	0.010077
2962	0.0097875
2974	0.0132555
2986	0.0123795
2998	0.0072915
3010	0.0048255
3022	0.0037575
3034	0.002667
3046	0.0021255
3058	0.001896
3070	0.001785
3082	0.002154
3094	0.002595
3106	0.001371
3118	0.000663
3130	0.000459
3142	0.0003255
3154	0.000249
3166	0.000237
3178	0.000144
3190	0.000177
3202	0.0001785
3214	0.0002175
3226	0.0001335
3238	0.0001725
3250	0.00012
3262	7.95e-05
3274	6.45e-05
3286	0.0001035
3298	6.15e-05
3310	7.65e-05
3322	5.55e-05
3334	0.0001155
3346	8.7e-05
3358	9.3e-05
3370	0.000144
3382	8.25e-05
3394	0.000102
3406	5.25e-05
3418	0.000111
3430	0.000108
3442	0.0001095
3454	8.25e-05
3466	0.000105
3478	9.75e-05
3490	7.2e-05
3502	6e-05
3514	2.4e-05
3526	7.2e-05
3538	4.65e-05
3550	0.0001215
3562	0.0002385
3574	0.0004455
3586	0.00057
3598	0.0006315
3610	0.0006075
3622	0.0008955
3634	0.001584
3646	0.0012015
3658	0.0004005
3670	0.0001485
3682	0.0001335
3694	4.95e-05
3706	8.55e-05
3718	9e-05
3730	4.05e-05
3742	8.25e-05
3754	5.55e-05
3766	4.65e-05
3778	0.000108
3790	6.9e-05
3802	6e-06
3814	0.0001185
3826	0.0001005
3838	0.0001215
