Infrared Spectrum: Silane, phenyltriethoxy-,
Formula: C12 H20 O3 Si
CAS: 780-69-8
State: SOLUTION (10% CCl4 FOR 3800-1300, 2% CS2 FOR 1300-650, AND 10% CCl4 FOR 650-250)
Boiling point: 162 C AT 79 mmHg
Class: COBLENTZ III
Instrument: PERKIN-ELMER 521 (GRATING)
Instrument parameters: FILTERS AT 3150, 2500, 2000, 1150, 700, 410. GRATING CHANGES: 2000, 630
Path length: 0.011 CM, 0.011 CM, AND 0.010 CM
Resolution: 2
Origin: DOW CORNING CORP.
1/CM	TRANSMITTANCE
246	0.8222
255	0.7979
264	0.7842
273	0.7791
282	0.7746
291	0.7695
300	0.7653
309	0.7633
318	0.7639
327	0.7678
336	0.7719
345	0.7703
354	0.7689
363	0.7678
372	0.7666
381	0.7568
390	0.7428
399	0.7461
408	0.744
417	0.7308
426	0.7148
435	0.6963
444	0.6621
453	0.6341
462	0.6133
471	0.5266
480	0.3297
489	0.2201
498	0.1574
507	0.1752
516	0.3977
525	0.6606
534	0.7751
543	0.8168
552	0.8329
561	0.8414
570	0.8426
579	0.8391
588	0.8348
597	0.8321
606	0.8311
615	0.8306
624	0.8076
633	0.7866
642	0.7532
651	0.7879
660	0.801
669	0.8175
678	0.8189
687	0.8036
696	0.5014
705	0.7676
714	0.7918
723	0.7302
732	0.3658
741	0.5547
750	0.7604
759	0.7598
768	0.676
777	0.5149
786	0.5124
795	0.6607
804	0.7292
813	0.7929
822	0.8231
831	0.8319
840	0.8325
849	0.8318
858	0.8308
867	0.8299
876	0.8288
885	0.8272
894	0.8255
903	0.8089
912	0.7863
921	0.7488
930	0.6624
939	0.6133
948	0.5475
957	0.4576
966	0.6132
975	0.7729
984	0.7795
993	0.7658
1002	0.764
1011	0.7393
1020	0.6972
1029	0.6706
1038	0.6262
1047	0.5735
1056	0.4771
1065	0.2797
1074	0.1086
1083	0.1763
1092	0.2081
1101	0.1668
1110	0.2766
1119	0.2461
1128	0.31
1137	0.5229
1146	0.5508
1155	0.4848
1164	0.4814
1173	0.6741
1182	0.7496
1191	0.7834
1200	0.7945
1209	0.8044
1218	0.8112
1227	0.8117
1236	0.81
1245	0.8077
1254	0.8054
1263	0.8044
1272	0.7995
1281	0.7767
1290	0.7667
1299	0.6672
1308	0.7606
1317	0.7765
1326	0.7864
1335	0.799
1344	0.7836
1353	0.73
1362	0.5987
1371	0.5901
1380	0.3792
1389	0.3184
1398	0.6766
1407	0.7314
1416	0.6913
1425	0.1626
1434	0.5166
1443	0.6367
1452	0.6948
1461	0.7545
1470	0.7038
1479	0.6536
1488	0.7982
1497	0.8315
1506	0.8379
1515	0.8412
1524	0.8499
1533	0.8572
1542	0.8461
1551	0.8496
1560	0.8499
1569	0.8416
1578	0.8036
1587	0.6188
1596	0.8361
1605	0.8406
1614	0.8427
1623	0.8555
1632	0.8538
1641	0.8467
1650	0.8392
1659	0.8514
1668	0.8537
1677	0.8537
1686	0.8535
1695	0.853
1704	0.8516
1713	0.8468
1722	0.8371
1731	0.8201
1740	0.8138
1749	0.8345
1758	0.8322
1767	0.8331
1776	0.8486
1785	0.8565
1794	0.8527
1803	0.839
1812	0.8224
1821	0.8093
1830	0.8213
1839	0.8218
1848	0.8185
1857	0.8043
1866	0.7994
1875	0.7805
1884	0.7588
1893	0.7778
1902	0.8048
1911	0.8332
1920	0.8463
1929	0.8546
1938	0.851
1947	0.8233
1956	0.8273
1965	0.8425
1974	0.8643
1983	0.8734
1992	0.8806
2001	0.8906
2010	0.8794
2019	0.8789
2028	0.8798
2037	0.8801
2046	0.8805
2055	0.8793
2064	0.878
2073	0.8773
2082	0.8769
2091	0.8719
2100	0.872
2109	0.8724
2118	0.872
2127	0.8707
2136	0.8702
2145	0.8695
2154	0.8681
2163	0.8654
2172	0.8636
2181	0.8625
2190	0.8647
2199	0.8667
2208	0.8682
2217	0.8694
2226	0.8694
2235	0.8681
2244	0.866
2253	0.8663
2262	0.8673
2271	0.8679
2280	0.8681
2289	0.8684
2298	0.8696
2307	0.8708
2316	0.8718
2325	0.8722
2334	0.8727
2343	0.8731
2352	0.8736
2361	0.8726
2370	0.8716
2379	0.8705
2388	0.8695
2397	0.8678
2406	0.8653
2415	0.8627
2424	0.8602
2433	0.8575
2442	0.857
2451	0.8586
2460	0.8608
2469	0.8644
2478	0.8672
2487	0.8665
2496	0.8664
2505	0.8656
2514	0.8641
2523	0.8626
2532	0.861
2541	0.8592
2550	0.8575
2559	0.8557
2568	0.8542
2577	0.8526
2586	0.8516
2595	0.8505
2604	0.8486
2613	0.8457
2622	0.8414
2631	0.8416
2640	0.8491
2649	0.8493
2658	0.8496
2667	0.8499
2676	0.8501
2685	0.8474
2694	0.843
2703	0.8235
2712	0.8016
2721	0.7755
2730	0.7268
2739	0.761
2748	0.7839
2757	0.7706
2766	0.7744
2775	0.8016
2784	0.8098
2793	0.7986
2802	0.7734
2811	0.752
2820	0.7493
2829	0.7245
2838	0.6601
2847	0.6492
2856	0.5252
2865	0.3785
2874	0.26
2883	0.169
2892	0.1799
2901	0.2732
2910	0.2796
2919	0.2359
2928	0.1716
2937	0.3466
2946	0.4518
2955	0.3219
2964	0.1124
2973	0.0293
2982	0.1311
2991	0.2977
3000	0.4644
3009	0.592
3018	0.6207
3027	0.6522
3036	0.6843
3045	0.6046
3054	0.5655
3063	0.6079
3072	0.5035
3081	0.7592
3090	0.7668
3099	0.8301
3108	0.8372
3117	0.8401
3126	0.8414
3135	0.8327
3144	0.8423
3153	0.8577
3162	0.8604
3171	0.8624
3180	0.8633
3189	0.8631
3198	0.8628
3207	0.8624
3216	0.8622
3225	0.8626
3234	0.8652
3243	0.8689
3252	0.8715
3261	0.8722
3270	0.8723
3279	0.8722
3288	0.8721
3297	0.872
3306	0.8719
3315	0.8718
3324	0.8719
3333	0.8721
3342	0.8725
3351	0.8727
3360	0.8728
3369	0.8726
3378	0.8724
3387	0.8721
3396	0.8713
3405	0.8705
3414	0.8697
3423	0.8688
3432	0.8681
3441	0.8674
3450	0.8667
3459	0.8654
3468	0.8636
3477	0.8617
3486	0.8596
3495	0.8575
3504	0.8549
3513	0.8516
3522	0.851
3531	0.8523
3540	0.8556
3549	0.86
3558	0.8649
3567	0.8664
3576	0.8712
3585	0.8796
3594	0.8719
3603	0.8659
3612	0.8653
3621	0.8588
3630	0.8517
3639	0.8512
3648	0.876
3657	0.8754
3666	0.8763
3675	0.8792
3684	0.8773
3693	0.8795
3702	0.8784
3711	0.8822
3720	0.8869
3729	0.892
3738	0.8959
3747	0.9037
3756	0.9006
3765	0.8907
3774	0.8868
3783	0.8863
3792	0.8878
3801	0.8911
3810	0.8949
