Infrared Spectrum: AMMONIUM HYPOPHOSPHITE
Formula: N H6 P O2
CAS: 7803-65-8
State: SOLID (MINERAL OIL MULL)
Class: COBLENTZ
Instrument: Not specified, most likely a prism, grating, or hybrid spectrometer.
Sampling: TRANSMISSION
Resolution: 4
Origin: DOW CHEMICAL COMPANY
MICROMETERS	TRANSMITTANCE
2.041	0.801
2.08014	0.801
2.11928	0.8
2.15842	0.8
2.19756	0.805
2.23669	0.808
2.27583	0.81
2.31497	0.814
2.35411	0.829
2.39325	0.834
2.43239	0.839
2.47153	0.845
2.51067	0.85
2.54981	0.85
2.58894	0.845
2.62808	0.85
2.66722	0.849
2.70636	0.844
2.7455	0.844
2.78464	0.827
2.82378	0.805
2.86292	0.78
2.90205	0.758
2.94119	0.728
2.98033	0.67
3.01947	0.592
3.05861	0.483
3.09775	0.327
3.13689	0.217
3.17603	0.189
3.21517	0.173
3.2543	0.131
3.29344	0.099
3.33258	0.071
3.37172	0.058
3.41086	0.047
3.45	0.06
3.48914	0.081
3.52828	0.181
3.56742	0.272
3.60655	0.358
3.64569	0.443
3.68483	0.506
3.72397	0.54
3.76311	0.579
3.80225	0.621
3.84139	0.676
3.88053	0.709
3.91966	0.74
3.9588	0.758
3.99794	0.771
4.03708	0.772
4.07622	0.775
4.11536	0.764
4.1545	0.724
4.19364	0.59
4.23278	0.443
4.27191	0.576
4.31105	0.741
4.35019	0.714
4.38933	0.727
4.42847	0.74
4.46761	0.751
4.50675	0.73
4.54589	0.702
4.58503	0.72
4.62416	0.75
4.6633	0.762
4.70244	0.761
4.74158	0.774
4.78072	0.792
4.81986	0.801
4.859	0.798
4.89814	0.78
4.93728	0.769
4.97641	0.766
5.01555	0.738
5.05469	0.696
5.09383	0.652
5.13297	0.62
5.17211	0.642
5.21125	0.681
5.25039	0.689
5.28952	0.714
5.32866	0.756
5.3678	0.784
5.40694	0.798
5.44608	0.811
5.48522	0.818
5.52436	0.821
5.5635	0.821
5.60264	0.823
5.64177	0.819
5.68091	0.819
5.72005	0.814
5.75919	0.819
5.79833	0.818
5.83747	0.819
5.87661	0.816
5.91575	0.81
5.95489	0.808
5.99402	0.813
6.03316	0.81
6.0723	0.818
6.11144	0.811
6.15058	0.816
6.18972	0.819
6.22886	0.811
6.268	0.814
6.30713	0.806
6.34627	0.803
6.38541	0.801
6.42455	0.8
6.46369	0.793
6.50283	0.782
6.54197	0.761
6.58111	0.753
6.62025	0.724
6.65938	0.675
6.69852	0.556
6.73766	0.381
6.7768	0.11
6.81594	0.061
6.85508	0.17
6.89422	0.301
6.93336	0.422
6.9725	0.474
7.01163	0.462
7.05077	0.426
7.08991	0.417
7.12905	0.543
7.16819	0.629
7.20733	0.612
7.24647	0.636
7.28561	0.725
7.32475	0.772
7.36388	0.78
7.40302	0.795
7.44216	0.81
7.4813	0.814
7.52044	0.818
7.55958	0.806
7.59872	0.797
7.63786	0.788
7.67699	0.785
7.71613	0.78
7.75527	0.779
7.79441	0.772
7.83355	0.764
7.87269	0.759
7.91183	0.75
7.95097	0.737
7.99011	0.724
8.02924	0.702
8.06838	0.681
8.10752	0.66
8.14666	0.621
8.1858	0.563
8.22494	0.493
8.26408	0.396
8.30322	0.292
8.34236	0.193
8.38149	0.136
8.42063	0.081
8.45977	0.058
8.49891	0.048
8.53805	0.043
8.57719	0.05
8.61633	0.081
8.65547	0.141
8.6946	0.134
8.73374	0.152
8.77288	0.318
8.81202	0.438
8.85116	0.491
8.8903	0.524
8.92944	0.545
8.96858	0.556
9.00772	0.524
9.04685	0.366
9.08599	0.17
9.12513	0.233
9.16427	0.368
9.20341	0.426
9.24255	0.449
9.28169	0.459
9.32083	0.469
9.35997	0.469
9.3991	0.451
9.43824	0.397
9.47738	0.31
9.51652	0.215
9.55566	0.155
9.5948	0.134
9.63394	0.131
9.67308	0.172
9.71222	0.259
9.75135	0.399
9.79049	0.487
9.82963	0.534
9.86877	0.558
9.90791	0.579
9.94705	0.59
9.98619	0.6
10.0253	0.612
10.0645	0.62
10.1036	0.623
10.1427	0.625
10.1819	0.626
10.221	0.631
10.2602	0.642
10.2993	0.662
10.3384	0.673
10.3776	0.678
10.4167	0.681
10.4559	0.688
10.495	0.694
10.5341	0.702
10.5733	0.707
10.6124	0.712
10.6515	0.714
10.6907	0.714
10.7298	0.715
10.769	0.719
10.8081	0.722
10.8472	0.728
10.8864	0.733
10.9255	0.737
10.9647	0.735
11.0038	0.732
11.0429	0.73
11.0821	0.728
11.1212	0.725
11.1604	0.722
11.1995	0.719
11.2386	0.719
11.2778	0.714
11.3169	0.711
11.356	0.709
11.3952	0.706
11.4343	0.702
11.4735	0.699
11.5126	0.698
11.5517	0.696
11.5909	0.696
11.63	0.699
11.6692	0.701
11.7083	0.701
11.7474	0.701
11.7866	0.704
11.8257	0.709
11.8649	0.709
11.904	0.706
11.9431	0.699
11.9823	0.694
12.0214	0.688
12.0605	0.678
12.0997	0.667
12.1388	0.65
12.178	0.618
12.2171	0.584
12.2562	0.527
12.2954	0.438
12.3345	0.337
12.3737	0.248
12.4128	0.168
12.4519	0.121
12.4911	0.102
12.5302	0.123
12.5694	0.219
12.6085	0.417
12.6476	0.524
12.6868	0.59
12.7259	0.62
12.765	0.65
12.8042	0.672
12.8433	0.681
12.8825	0.691
12.9216	0.696
12.9607	0.701
12.9999	0.702
13.039	0.706
13.0782	0.707
13.1173	0.709
13.1564	0.706
13.1956	0.706
13.2347	0.704
13.2739	0.702
13.313	0.702
13.3521	0.701
13.3913	0.699
13.4304	0.693
13.4695	0.688
13.5087	0.683
13.5478	0.681
13.587	0.681
13.6261	0.676
13.6652	0.672
13.7044	0.667
13.7435	0.663
13.7827	0.659
13.8218	0.652
13.8609	0.65
13.9001	0.65
13.9392	0.65
13.9783	0.647
14.0175	0.641
14.0566	0.636
14.0958	0.629
14.1349	0.623
14.174	0.616
14.2132	0.61
14.2523	0.605
14.2915	0.6
14.3306	0.595
14.3697	0.59
14.4089	0.586
14.448	0.582
14.4872	0.577
14.5263	0.573
14.5654	0.568
14.6046	0.56
14.6437	0.555
14.6828	0.548
14.722	0.54
14.7611	0.535
14.8003	0.529
14.8394	0.524
14.8785	0.514
14.9177	0.506
14.9568	0.503
14.996	0.5
15.0351	0.491
15.0742	0.482
15.1134	0.477
15.1525	0.472
15.1917	0.465
15.2308	0.459
15.2699	0.454
15.3091	0.449
15.3482	0.441
15.3873	0.439
15.4265	0.431
15.4656	0.422
15.5048	0.412
15.5439	0.405
15.583	0.399
15.6222	0.389
15.6613	0.381
15.7005	0.371
15.7396	0.362
15.7787	0.355
15.8179	0.345
15.857	0.344
15.8962	0.355
