Infrared Spectrum: AMMONIUM BISULFATE
Formula: N H4 H S O4
CAS: 7803-63-6
State: SOLID (NUJOL MULL)
Class: COBLENTZ
Instrument: Not specified, most likely a prism, grating, or hybrid spectrometer.
Sampling: TRANSMISSION
Resolution: 4
Origin: MELLON INSTITUTE
MICROMETERS	TRANSMITTANCE
2.02	0.986
2.06	0.986
2.1	0.983
2.14	0.971
2.18	0.976
2.21999	0.976
2.25999	0.971
2.29999	0.951
2.33999	0.938
2.37999	0.936
2.41999	0.933
2.45999	0.931
2.49999	0.936
2.53999	0.926
2.57999	0.919
2.61998	0.918
2.65998	0.894
2.69998	0.893
2.73998	0.853
2.77998	0.806
2.81998	0.769
2.85998	0.737
2.89998	0.719
2.93998	0.702
2.97997	0.684
3.01997	0.619
3.05997	0.569
3.09997	0.542
3.13997	0.53
3.17997	0.527
3.21997	0.542
3.25997	0.52
3.29997	0.5
3.33997	0.287
3.37996	0.19
3.41996	0.198
3.45996	0.228
3.49996	0.28
3.53996	0.557
3.57996	0.654
3.61996	0.694
3.65996	0.701
3.69996	0.717
3.73995	0.722
3.77995	0.727
3.81995	0.737
3.85995	0.746
3.89995	0.749
3.93995	0.754
3.97995	0.757
4.01995	0.759
4.05995	0.762
4.09995	0.764
4.13994	0.767
4.17994	0.772
4.21994	0.749
4.25994	0.736
4.29994	0.734
4.33994	0.739
4.37994	0.774
4.41994	0.799
4.45994	0.806
4.49993	0.809
4.53993	0.813
4.57993	0.813
4.61993	0.819
4.65993	0.823
4.69993	0.829
4.73993	0.834
4.77993	0.836
4.81993	0.839
4.85993	0.841
4.89992	0.849
4.93992	0.851
4.97992	0.851
5.01992	0.853
5.05992	0.854
5.09992	0.858
5.13992	0.856
5.17992	0.861
5.21992	0.859
5.25991	0.858
5.29991	0.856
5.33991	0.861
5.37991	0.856
5.41991	0.851
5.45991	0.848
5.49991	0.843
5.53991	0.838
5.57991	0.834
5.61991	0.833
5.6599	0.829
5.6999	0.824
5.7399	0.823
5.7799	0.821
5.8199	0.821
5.8599	0.814
5.8999	0.818
5.9399	0.819
5.9799	0.819
6.01989	0.809
6.05989	0.801
6.09989	0.799
6.13989	0.801
6.17989	0.808
6.21989	0.818
6.25989	0.821
6.29989	0.804
6.33989	0.797
6.37989	0.792
6.41988	0.774
6.45988	0.769
6.49988	0.762
6.53988	0.759
6.57988	0.754
6.61988	0.747
6.65988	0.741
6.69988	0.709
6.73988	0.661
6.77988	0.595
6.81987	0.407
6.85987	0.37
6.89987	0.368
6.93987	0.402
6.97987	0.457
7.01987	0.495
7.05987	0.502
7.09987	0.5
7.13987	0.527
7.17986	0.575
7.21986	0.55
7.25986	0.497
7.29986	0.544
7.33986	0.584
7.37986	0.614
7.41986	0.612
7.45986	0.601
7.49986	0.612
7.53986	0.609
7.57985	0.601
7.61985	0.594
7.65985	0.587
7.69985	0.582
7.73985	0.579
7.77985	0.579
7.81985	0.579
7.85985	0.575
7.89985	0.569
7.93984	0.562
7.97984	0.544
8.01984	0.519
8.05984	0.502
8.09984	0.489
8.13984	0.474
8.17984	0.469
8.21984	0.452
8.25984	0.447
8.29984	0.437
8.33983	0.43
8.37983	0.425
8.41983	0.422
8.45983	0.419
8.49983	0.42
8.53983	0.419
8.57983	0.42
8.61983	0.432
8.65983	0.442
8.69982	0.457
8.73982	0.47
8.77982	0.484
8.81982	0.502
8.85982	0.51
8.89982	0.52
8.93982	0.534
8.97982	0.544
9.01982	0.55
9.05982	0.562
9.09981	0.574
9.13981	0.575
9.17981	0.575
9.21981	0.575
9.25981	0.574
9.29981	0.569
9.33981	0.55
9.37981	0.534
9.41981	0.519
9.4598	0.5
9.4998	0.489
9.5398	0.479
9.5798	0.474
9.6198	0.469
9.6598	0.47
9.6998	0.47
9.7398	0.48
9.7798	0.485
9.8198	0.49
9.85979	0.495
9.89979	0.509
9.93979	0.512
9.97979	0.527
10.0198	0.537
10.0598	0.537
10.0998	0.542
10.1398	0.547
10.1798	0.55
10.2198	0.55
10.2598	0.552
10.2998	0.557
10.3398	0.562
10.3798	0.565
10.4198	0.575
10.4598	0.582
10.4998	0.589
10.5398	0.589
10.5798	0.592
10.6198	0.599
10.6598	0.601
10.6998	0.606
10.7398	0.606
10.7798	0.611
10.8198	0.614
10.8598	0.616
10.8998	0.617
10.9398	0.616
10.9798	0.607
11.0198	0.601
11.0598	0.595
11.0998	0.589
11.1398	0.582
11.1798	0.569
11.2198	0.557
11.2598	0.54
11.2998	0.539
11.3398	0.522
11.3798	0.52
11.4198	0.514
11.4598	0.51
11.4998	0.504
11.5398	0.502
11.5797	0.5
11.6197	0.494
11.6597	0.492
11.6997	0.492
11.7397	0.489
11.7797	0.494
11.8197	0.497
11.8597	0.499
11.8997	0.502
11.9397	0.509
11.9797	0.514
12.0197	0.522
12.0597	0.527
12.0997	0.535
12.1397	0.545
12.1797	0.549
12.2197	0.554
12.2597	0.555
12.2997	0.562
12.3397	0.567
12.3797	0.569
12.4197	0.574
12.4597	0.575
12.4997	0.575
12.5397	0.577
12.5797	0.579
12.6197	0.579
12.6597	0.577
12.6997	0.579
12.7397	0.577
12.7797	0.58
12.8197	0.587
12.8597	0.584
12.8997	0.584
12.9397	0.585
12.9797	0.587
13.0197	0.587
13.0597	0.585
13.0997	0.589
13.1397	0.587
13.1797	0.584
13.2197	0.585
13.2597	0.587
13.2997	0.587
13.3397	0.589
13.3797	0.592
13.4197	0.587
13.4597	0.59
13.4997	0.589
13.5397	0.584
13.5797	0.58
13.6197	0.577
13.6597	0.575
13.6997	0.574
13.7397	0.57
13.7797	0.57
13.8197	0.569
13.8597	0.567
13.8997	0.564
13.9397	0.565
13.9797	0.57
14.0197	0.577
14.0597	0.579
14.0997	0.579
14.1397	0.582
14.1797	0.582
14.2197	0.58
14.2597	0.579
14.2997	0.58
14.3397	0.58
14.3797	0.58
14.4197	0.58
14.4597	0.577
14.4997	0.584
14.5397	0.58
14.5797	0.58
14.6197	0.575
14.6597	0.572
14.6997	0.57
14.7397	0.572
14.7797	0.575
14.8197	0.57
14.8597	0.569
14.8997	0.562
14.9397	0.565
14.9797	0.562
15.0197	0.565
15.0597	0.564
15.0997	0.564
15.1397	0.56
15.1797	0.56
15.2197	0.56
15.2597	0.56
15.2997	0.56
15.3397	0.565
15.3796	0.557
15.4196	0.557
15.4596	0.557
15.4996	0.559
15.5396	0.56
15.5796	0.56
15.6196	0.56
15.6596	0.56
15.6996	0.565
15.7396	0.565
15.7796	0.562
15.8196	0.565
15.8596	0.565
15.8996	0.57
15.9396	0.569
15.9796	0.57
