Infrared Spectrum: 4-Dimethylaminonaphthalene-1-carboxylic acid
Formula: C 13 H 13 N O 2
CAS: 78062-03-0
State: gas
Origin: EPA-IR VAPOR PHASE LIBRARY
1/CM	ABSORBANCE
549.8	0.006822
559.445	0.006392
569.09	0.007472
578.734	0.008122
588.379	0.012592
598.024	0.018912
607.669	0.012052
617.313	0.006862
626.958	0.003992
636.603	0.002872
646.248	0.0013559
655.893	0.002132
665.537	0.001702
675.182	0.001872
684.827	0.001612
694.472	0.002292
704.116	0.007992
713.761	0.011192
723.406	0.003902
733.051	0.002172
742.695	0.002472
752.34	0.004082
761.985	0.012772
771.63	0.028152
781.275	0.015482
790.919	0.007712
800.564	0.005252
810.209	0.003222
819.854	0.002052
829.498	0.003002
839.143	0.004402
848.788	0.002702
858.433	0.001592
868.078	0.001452
877.722	0.0012367
887.367	0.002622
897.012	0.004432
906.657	0.003702
916.301	0.001922
925.946	0.001672
935.591	0.002312
945.236	0.002312
954.88	0.002932
964.525	0.006812
974.17	0.009582
983.815	0.006122
993.46	0.003192
1003.1	0.002652
1012.75	0.003602
1022.39	0.007032
1032.04	0.011322
1041.68	0.015832
1051.33	0.020642
1060.97	0.012512
1070.62	0.008472
1080.26	0.008222
1089.91	0.013612
1099.55	0.034332
1109.2	0.057172
1118.84	0.041962
1128.49	0.023692
1138.13	0.028892
1147.78	0.030912
1157.42	0.026132
1167.07	0.030732
1176.71	0.019312
1186.36	0.014952
1196	0.015232
1205.64	0.014102
1215.29	0.013792
1224.93	0.009942
1234.58	0.006642
1244.22	0.006062
1253.87	0.005702
1263.51	0.006382
1273.16	0.008502
1282.8	0.010572
1292.45	0.011902
1302.09	0.012172
1311.74	0.012312
1321.38	0.017452
1331.03	0.021432
1340.67	0.017032
1350.32	0.012742
1359.96	0.008842
1369.61	0.006802
1379.25	0.006902
1388.9	0.009652
1398.54	0.009552
1408.18	0.005932
1417.83	0.007602
1427.47	0.012382
1437.12	0.007952
1446.76	0.007752
1456.41	0.010422
1466.05	0.009912
1475.7	0.007292
1485.34	0.006552
1494.99	0.006712
1504.63	0.014292
1514.28	0.018182
1523.92	0.007062
1533.57	0.003692
1543.21	0.003102
1552.86	0.004762
1562.5	0.011342
1572.15	0.031192
1581.79	0.030972
1591.44	0.011522
1601.08	0.004842
1610.73	0.004162
1620.37	0.003412
1630.01	0.002882
1639.66	0.002512
1649.3	0.002142
1658.95	0.002132
1668.59	0.002532
1678.24	0.003172
1687.88	0.003372
1697.53	0.004792
1707.17	0.007292
1716.82	0.010312
1726.46	0.014052
1736.11	0.041512
1745.75	0.085122
1755.4	0.039972
1765.04	0.011912
1774.69	0.010582
1784.33	0.010362
1793.98	0.005742
1803.62	0.002912
1813.27	0.002182
1822.91	0.002112
1832.55	0.001942
1842.2	0.001612
1851.84	0.001742
1861.49	0.001542
1871.13	0.001692
1880.78	0.001932
1890.42	0.001602
1900.07	0.0013145
1909.71	0.0009667
1919.36	0.0013171
1929	0.0013641
1938.65	0.001492
1948.29	0.001432
1957.94	0.0012664
1967.58	0.0007854
1977.23	0.0009037
1986.87	0.0007841
1996.52	0.0008891
2006.16	0.0008283
2015.81	0.0009592
2025.45	0.0007741
2035.1	0.0009766
2044.74	0.0006188
2054.38	0.0005573
2064.03	0.0008468
2073.67	0.0009597
2083.32	0.0008682
2092.96	0.0007505
2102.61	0.000766
2112.25	0.0006456
2121.9	0.0007078
2131.54	0.0006763
2141.19	0.0008055
2150.83	0.0006464
2160.48	0.0006441
2170.12	0.0006736
2179.77	0.0006364
2189.41	0.0007452
2199.06	0.0006752
2208.7	0.000691
2218.35	0.0006112
2227.99	0.0007071
2237.64	0.0006647
2247.28	0.0007222
2256.92	0.0007551
2266.57	0.0007542
2276.21	0.0008422
2285.86	0.0007581
2295.5	0.0008695
2305.15	0.0009972
2314.79	0.0010946
2324.44	0.0010785
2334.08	0.0010967
2343.73	0.001108
2353.37	0.0011446
2363.02	0.0011149
2372.66	0.0012194
2382.31	0.0008426
2391.95	0.0006647
2401.6	0.0006973
2411.24	0.0006334
2420.89	0.0006835
2430.53	0.00058
2440.18	0.0007148
2449.82	0.0008677
2459.47	0.0006965
2469.11	0.0007294
2478.75	0.0007888
2488.4	0.0006857
2498.04	0.0006578
2507.69	0.0008269
2517.33	0.0007504
2526.98	0.0007861
2536.62	0.0006762
2546.27	0.0006192
2555.91	0.0006084
2565.56	0.00045191
2575.2	0.0006664
2584.85	0.0005541
2594.49	0.0007519
2604.14	0.0008609
2613.78	0.0008029
2623.43	0.000836
2633.07	0.0008947
2642.72	0.0008748
2652.36	0.001008
2662.01	0.0008406
2671.65	0.0009161
2681.29	0.0007427
2690.94	0.0007362
2700.58	0.0006761
2710.23	0.0009825
2719.87	0.0011073
2729.52	0.0012831
2739.16	0.0012359
2748.81	0.001672
2758.45	0.001942
2768.1	0.003102
2777.74	0.005082
2787.39	0.008872
2797.03	0.012212
2806.68	0.009222
2816.32	0.006132
2825.97	0.006262
2835.61	0.010942
2845.26	0.012692
2854.9	0.009002
2864.55	0.007982
2874.19	0.008312
2883.84	0.007392
2893.48	0.006402
2903.12	0.006412
2912.77	0.006072
2922.41	0.005962
2932.06	0.007752
2941.7	0.011822
2951.35	0.014962
2960.99	0.009472
2970.64	0.004702
2980.28	0.005532
2989.93	0.007442
2999.57	0.005652
3009.22	0.003832
3018.86	0.003082
3028.51	0.002572
3038.15	0.003092
3047.8	0.004392
3057.44	0.005582
3067.09	0.005302
3076.73	0.005342
3086.38	0.006312
3096.02	0.004522
3105.67	0.003022
3115.31	0.001692
3124.95	0.0011789
3134.6	0.0008005
3144.24	0.0007408
3153.89	0.0007383
3163.53	0.0008075
3173.18	0.0008904
3182.82	0.000511
3192.47	0.0005714
3202.11	0.0008987
3211.76	0.0008325
3221.4	0.0006695
3231.05	0.00022
3240.69	0.000569
3250.34	0.0005833
3259.98	0.0005758
3269.63	0.0006001
3279.27	0.0003776
3288.92	4e-05
3298.56	0.000393048
3308.21	0.00045752
3317.85	0.0003662
3327.49	0.0009752
3337.14	0.000682
3346.78	0.000185
3356.43	0.0004253
3366.07	0.00043184
3375.72	0.0004493
3385.36	0.00047796
3395.01	0.0006398
3404.65	0.0006353
3414.3	0.0005498
3423.94	0.000814
3433.59	0.0007074
3443.23	0.000577
3452.88	0.0008223
3462.52	0.000814
3472.17	0.0010585
3481.81	0.0008077
3491.46	0.0005613
3501.1	0.0005407
3510.75	0.0008187
3520.39	0.0009338
3530.04	0.0007221
3539.68	0.000631
3549.32	0.001354
3558.97	0.005282
3568.61	0.013832
3578.26	0.021472
3587.9	0.014362
3597.55	0.002452
3607.19	0.001173
3616.84	0.0008688
3626.48	0.0009246
3636.13	0.0010815
3645.77	0.0009294
3655.42	0.0005938
3665.06	0.0008708
3674.71	0.0006543
3684.35	0.0005332
3694	0.0006883
3703.64	0.0005421
3713.29	0.0006787
3722.93	0.00049181
3732.58	0.00038562
3742.22	0.00046891
3751.86	0.0006888
3761.51	0.0005724
3771.15	0.0007914
3780.8	0.0008729
3790.44	0.0006964
3800.09	0.00042887
3809.73	0.0006164
3819.38	0.000655
3829.02	0.0006771
3838.67	0.0008339
3848.31	0.000205
3857.96	0.000509
3867.6	0.000251
3877.25	0.0008556
3886.89	0.0003092
3896.54	0.00038733
3906.18	0.0008338
3915.83	0.0006927
3925.47	0.0005686
3935.12	0.0007942
3944.76	0.0005197
3954.41	0.000394308
3964.05	0.00040443
3973.69	0.0011585
3983.34	0.0008731
3992.98	0.0009106
