Infrared Spectrum: 9,10-Dimethylanthracene
Formula: C 16 H 14
CAS: 781-43-1
State: gas
Instrument: HP-GC/MS/IRD
Origin: NIST Mass Spectrometry Data Center
1/CM	ABSORBANCE
550	0.000448
562	0.000238
574	0.002052
586	0.002296
598	0.001386
610	0.000518
622	0
634	0.000124
646	0.000112
658	2.4e-05
670	0.000152
682	0.000156
694	0.000252
706	0.000316
718	0.000776
730	0.005444
742	0.02
754	0.006874
766	0.00173
778	0.000468
790	0.000284
802	0.000368
814	0.00045
826	0.000264
838	0.000258
850	0.000222
862	0.000406
874	0.000282
886	0.000134
898	9e-05
910	1e-05
922	4.8e-05
934	3.2e-05
946	0.000106
958	0.000242
970	0.000518
982	0.00121
994	0.001158
1006	0.000566
1018	0.000902
1030	0.000856
1042	0.000302
1054	0.00026
1066	0.000164
1078	0.000126
1090	7.8e-05
1102	1.2e-05
1114	8e-06
1126	2.2e-05
1138	2.8e-05
1150	3.6e-05
1162	7.6e-05
1174	8.6e-05
1186	0.000106
1198	1.4e-05
1210	2.4e-05
1222	4.6e-05
1234	6.4e-05
1246	3.8e-05
1258	6.6e-05
1270	0.000118
1282	0.000154
1294	0.000118
1306	0.000146
1318	0.000144
1330	0.000272
1342	0.00067
1354	0.002004
1366	0.002962
1378	0.002684
1390	0.003086
1402	0.001802
1414	0.001168
1426	0.001122
1438	0.001234
1450	0.000822
1462	0.000518
1474	0.000532
1486	0.000782
1498	0.000624
1510	0.000548
1522	0.001044
1534	0.001056
1546	0.00042
1558	0.000208
1570	0.000418
1582	0.000474
1594	0.000352
1606	0.000424
1618	0.00063
1630	0.00042
1642	0.000158
1654	1.6e-05
1666	0.000172
1678	0.0007
1690	0.001022
1702	0.000292
1714	0.00013
1726	0.00018
1738	0.00024
1750	2.4e-05
1762	7.2e-05
1774	0.000302
1786	0.000476
1798	0.000698
1810	0.00047
1822	8e-05
1834	2.2e-05
1846	1.4e-05
1858	7.4e-05
1870	5.2e-05
1882	0.000276
1894	0.000428
1906	0.000406
1918	0.000408
1930	0.000764
1942	0.000232
1954	6.6e-05
1966	2.8e-05
1978	2.8e-05
1990	2e-05
2002	1.6e-05
2014	1.6e-05
2026	2.4e-05
2038	2.2e-05
2050	4e-05
2062	1.6e-05
2074	2e-05
2086	4e-06
2098	2.6e-05
2110	2.2e-05
2122	2e-05
2134	4e-05
2146	3.2e-05
2158	1.8e-05
2170	1e-05
2182	2e-05
2194	2.4e-05
2206	3.4e-05
2218	2.2e-05
2230	6e-06
2242	2.4e-05
2254	2.2e-05
2266	2.6e-05
2278	4.4e-05
2290	4.2e-05
2302	4.2e-05
2314	3.8e-05
2326	4e-05
2338	0.000118
2350	6.8e-05
2362	3.8e-05
2374	9.2e-05
2386	0.000116
2398	8e-05
2410	0.00011
2422	7.8e-05
2434	9e-05
2446	8.6e-05
2458	8e-05
2470	8e-05
2482	8.4e-05
2494	0.000122
2506	0.0001
2518	9.8e-05
2530	8.6e-05
2542	0.000102
2554	0.0001
2566	9.2e-05
2578	9.6e-05
2590	0.0001
2602	0.000106
2614	9.6e-05
2626	0.000122
2638	0.000114
2650	0.000124
2662	0.000122
2674	0.000132
2686	0.000136
2698	0.000158
2710	0.00015
2722	0.000178
2734	0.000244
2746	0.000294
2758	0.000272
2770	0.000264
2782	0.000206
2794	0.000224
2806	0.000294
2818	0.00036
2830	0.000478
2842	0.000612
2854	0.00095
2866	0.001532
2878	0.002302
2890	0.002508
2902	0.002366
2914	0.00253
2926	0.003244
2938	0.004004
2950	0.003666
2962	0.002664
2974	0.001984
2986	0.001836
2998	0.001878
3010	0.00214
3022	0.002428
3034	0.002818
3046	0.004026
3058	0.00489
3070	0.005618
3082	0.008122
3094	0.007386
3106	0.002588
3118	0.00114
3130	0.000652
3142	0.000456
3154	0.000368
3166	0.000338
3178	0.000318
3190	0.000294
3202	0.000242
3214	0.000272
3226	0.000266
3238	0.000284
3250	0.0002
3262	0.000166
3274	0.000166
3286	0.00015
3298	0.000126
3310	0.000148
3322	0.000166
3334	0.000136
3346	0.000104
3358	0.000146
3370	0.000112
3382	0.000144
3394	0.000134
3406	0.000176
3418	0.000158
3430	0.000144
3442	0.000146
3454	0.000138
3466	0.000134
3478	0.00015
3490	0.000132
3502	0.000126
3514	0.000134
3526	0.0001
3538	0.000136
3550	9.8e-05
3562	9.6e-05
3574	0.000134
3586	2.2e-05
3598	9.6e-05
3610	4e-05
3622	0.000112
3634	9.4e-05
3646	8e-05
3658	0.000122
3670	6.6e-05
3682	0.000168
3694	0.000124
3706	0.000168
3718	0.0001
3730	3.8e-05
3742	3.2e-05
3754	8e-05
3766	0.000134
3778	0.000166
3790	0.000186
3802	0.000136
3814	0.000172
3826	0.00018
3838	0.00014
