Infrared Spectrum: 2-Acetylfluorene
Formula: C 15 H 12 O
CAS: 781-73-7
State: gas
Instrument: HP-GC/MS/IRD
Origin: NIST Mass Spectrometry Data Center
1/CM	ABSORBANCE
550	0.0002184
562	0
574	0.0002856
586	0.0009096
598	0.002484
610	0.0011736
622	0.0008016
634	0.0006504
646	0.0007584
658	0.00042
670	0.0003888
682	0.0018072
694	0.0006984
706	0.0004512
718	0.002292
730	0.0072216
742	0.0038688
754	0.0018216
766	0.0036696
778	0.0017832
790	0.0003048
802	0.0003
814	0.0010632
826	0.0020328
838	0.0015744
850	0.0006384
862	0.000504
874	0.0008328
886	0.0006336
898	0.0004632
910	0.000312
922	0.0004344
934	0.0007536
946	0.00204
958	0.0025152
970	0.001788
982	0.000828
994	0.0009768
1006	0.0013344
1018	0.000708
1030	0.0004728
1042	0.0003696
1054	0.0003408
1066	0.0004032
1078	0.0004416
1090	0.00072
1102	0.000852
1114	0.00072
1126	0.0010056
1138	0.0011808
1150	0.0038664
1162	0.001968
1174	0.0016008
1186	0.0025848
1198	0.0025512
1210	0.003012
1222	0.0068616
1234	0.0051864
1246	0.005676
1258	0.0199872
1270	0.0146016
1282	0.0054024
1294	0.005148
1306	0.001932
1318	0.00114
1330	0.0014256
1342	0.0019872
1354	0.00534
1366	0.0053928
1378	0.001824
1390	0.001536
1402	0.0024552
1414	0.0044976
1426	0.0040152
1438	0.0018504
1450	0.0015672
1462	0.0021576
1474	0.0016968
1486	0.0006312
1498	0.0005136
1510	0.0004272
1522	0.0003504
1534	0.000468
1546	0.0008448
1558	0.0014928
1570	0.0021792
1582	0.0021168
1594	0.0019968
1606	0.0046224
1618	0.0036288
1630	0.0014136
1642	0.0010032
1654	0.001356
1666	0.0017232
1678	0.0030384
1690	0.0117528
1702	0.0230304
1714	0.0063456
1726	0.001608
1738	0.0014256
1750	0.0011832
1762	0.0006168
1774	0.0003984
1786	0.000444
1798	0.0004656
1810	0.0004128
1822	0.0004128
1834	0.0003336
1846	0.0002472
1858	0.0002544
1870	0.0002784
1882	0.0002856
1894	0.0003648
1906	0.0002976
1918	0.0002256
1930	0.0002952
1942	0.0005064
1954	0.000192
1966	0.0001104
1978	8.16e-05
1990	4.56e-05
2002	5.04e-05
2014	5.76e-05
2026	7.68e-05
2038	6.72e-05
2050	4.08e-05
2062	1.2e-05
2074	2.64e-05
2086	2.88e-05
2098	3.12e-05
2110	3.12e-05
2122	3.6e-05
2134	1.68e-05
2146	2.64e-05
2158	7.2e-06
2170	2.16e-05
2182	2.16e-05
2194	2.4e-05
2206	2.64e-05
2218	4.32e-05
2230	6e-05
2242	2.64e-05
2254	6.72e-05
2266	5.52e-05
2278	7.92e-05
2290	9.6e-06
2302	7.44e-05
2314	7.68e-05
2326	5.76e-05
2338	5.04e-05
2350	6e-05
2362	7.2e-06
2374	2.88e-05
2386	6e-05
2398	3.12e-05
2410	6e-05
2422	6e-05
2434	5.04e-05
2446	5.28e-05
2458	2.88e-05
2470	8.4e-05
2482	9.36e-05
2494	0.0001032
2506	6.48e-05
2518	0.0001032
2530	8.4e-05
2542	9.6e-05
2554	9.6e-05
2566	9.6e-05
2578	9.84e-05
2590	0.0001368
2602	0.0001008
2614	0.000132
2626	0.0001512
2638	0.000132
2650	0.0001032
2662	7.68e-05
2674	8.16e-05
2686	0.0001104
2698	8.64e-05
2710	0.0001008
2722	7.2e-05
2734	4.08e-05
2746	4.08e-05
2758	6.24e-05
2770	0.0001152
2782	0.000156
2794	0.0002232
2806	0.000336
2818	0.0002832
2830	0.0002208
2842	0.0001992
2854	0.0002424
2866	0.0002616
2878	0.0003072
2890	0.0004632
2902	0.0011208
2914	0.0018408
2926	0.0016224
2938	0.0008688
2950	0.0004488
2962	0.0004896
2974	0.0006648
2986	0.0006072
2998	0.000864
3010	0.0018168
3022	0.0024912
3034	0.0024168
3046	0.002436
3058	0.0032184
3070	0.0048888
3082	0.0035592
3094	0.0016728
3106	0.0007152
3118	0.0003792
3130	0.0002952
3142	0.0001752
3154	0.0002088
3166	0.0002664
3178	0.0001608
3190	0.0001176
3202	0.0001416
3214	0.0001128
3226	3.36e-05
3238	4.32e-05
3250	2.88e-05
3262	4.8e-05
3274	0
3286	7.44e-05
3298	9.36e-05
3310	5.76e-05
3322	5.76e-05
3334	7.92e-05
3346	7.44e-05
3358	9.12e-05
3370	0.0002688
3382	0.0004104
3394	0.0002376
3406	0.0001368
3418	0.0001176
3430	6.48e-05
3442	0
3454	7.44e-05
3466	2.4e-05
3478	0.0001008
3490	4.8e-05
3502	3.84e-05
3514	9.6e-06
3526	7.2e-05
3538	4.32e-05
3550	6e-05
3562	5.52e-05
3574	6.48e-05
3586	0.0001488
3598	5.76e-05
3610	4.32e-05
3622	3.36e-05
3634	2.4e-06
3646	8.4e-05
3658	6.72e-05
3670	4.8e-05
3682	0.0001152
3694	3.6e-05
3706	2.64e-05
3718	2.16e-05
3730	3.84e-05
3742	2.64e-05
3754	6.24e-05
3766	4.08e-05
3778	9.6e-05
3790	8.4e-05
3802	2.64e-05
3814	4.32e-05
3826	7.2e-05
3838	6.24e-05
