Infrared Spectrum: N-(Beta-DIMETHYLAMINOETHYL)-o-PHENYLENEDIAMINE
Formula: C10 H17 N3
CAS: 78156-03-3
State: SOLUTION (7% IN CHCl3)
Class: COBLENTZ
Instrument: PERKIN-ELMER
Sampling: TRANSMISSION
Path length: 0.010 CM
Resolution: 4
Origin: ABBOTT LABORATORIES - WASHBURN
MICROMETERS	TRANSMITTANCE
2.049	0.892
2.08315	0.894
2.11731	0.89
2.15146	0.892
2.18562	0.892
2.21977	0.894
2.25393	0.892
2.28808	0.888
2.32224	0.888
2.35639	0.885
2.39055	0.8731
2.4247	0.876
2.45886	0.887
2.49301	0.887
2.52717	0.883
2.56132	0.89
2.59548	0.89
2.62963	0.89
2.66379	0.892
2.69794	0.895
2.7321	0.897
2.76625	0.912
2.80041	0.8885
2.83456	0.8733
2.86872	0.8326
2.90287	0.6963
2.93703	0.678
2.97118	0.6301
3.00534	0.6807
3.03949	0.7352
3.07365	0.7569
3.1078	0.7639
3.14196	0.776
3.17611	0.781
3.21027	0.7668
3.24442	0.7288
3.27858	0.6927
3.31273	0.4778
3.34689	0.4172
3.38104	0.4028
3.4152	0.4682
3.44935	0.4869
3.48351	0.4412
3.51766	0.4009
3.55182	0.4145
3.58597	0.398
3.62013	0.6255
3.65428	0.7111
3.68844	0.7572
3.72259	0.8053
3.75675	0.8348
3.7909	0.842
3.82506	0.846
3.85921	0.851
3.89337	0.8541
3.92752	0.854
3.96167	0.851
3.99583	0.8422
4.02998	0.839
4.06414	0.842
4.09829	0.8491
4.13245	0.851
4.1666	0.8558
4.20076	0.864
4.23491	0.87
4.26907	0.871
4.30322	0.875
4.33738	0.876
4.37153	0.876
4.40569	0.875
4.43984	0.87
4.474	0.871
4.50815	0.871
4.54231	0.866
4.57646	0.868
4.61062	0.868
4.64477	0.87
4.67893	0.868
4.71308	0.868
4.74724	0.866
4.78139	0.8641
4.81555	0.864
4.8497	0.861
4.88386	0.861
4.91801	0.856
4.95217	0.856
4.98632	0.858
5.02048	0.858
5.05463	0.858
5.08879	0.8541
5.12294	0.856
5.1571	0.854
5.19125	0.8521
5.22541	0.8371
5.25956	0.835
5.29372	0.8466
5.32787	0.8461
5.36203	0.8351
5.39618	0.8368
5.43034	0.844
5.46449	0.842
5.49865	0.8434
5.5328	0.846
5.56696	0.846
5.60111	0.8492
5.63527	0.849
5.66942	0.8428
5.70358	0.839
5.73773	0.8353
5.77188	0.839
5.80604	0.844
5.84019	0.846
5.87435	0.8394
5.9085	0.83
5.94266	0.8158
5.97681	0.7944
6.01097	0.7643
6.04512	0.7145
6.07928	0.6372
6.11343	0.4509
6.14759	0.357
6.18174	0.4444
6.2159	0.3791
6.25005	0.3842
6.28421	0.564
6.31836	0.6631
6.35252	0.7128
6.38667	0.7372
6.42083	0.745
6.45498	0.7434
6.48914	0.7092
6.52329	0.5938
6.55745	0.4274
6.5916	0.2211
6.62576	0.1846
6.65991	0.3309
6.69407	0.4904
6.72822	0.4547
6.76238	0.376
6.79653	0.3592
6.83069	0.3337
6.86484	0.3078
6.899	0.29
6.93315	0.3709
6.96731	0.549
7.00146	0.6369
7.03562	0.6924
7.06977	0.7278
7.10393	0.7429
7.13808	0.7593
7.17224	0.769
7.20639	0.7472
7.24055	0.6996
7.2747	0.7081
7.30886	0.724
7.34301	0.7088
7.37717	0.6927
7.41132	0.6729
7.44548	0.6705
7.47963	0.694
7.51379	0.7177
7.54794	0.7241
7.5821	0.6753
7.61625	0.635
7.6504	0.643
7.68456	0.5911
7.71871	0.4797
7.75287	0.3781
7.78702	0.3631
7.82118	0.3247
7.85533	0.1979
7.88949	0.15
7.92364	0.2603
7.9578	0.3686
7.99195	0.3742
8.02611	0.3765
8.06026	0.4349
8.09442	0.4688
8.12857	0.471
8.16273	0.4769
8.19688	0.4892
8.23104	0.501
8.26519	0.5079
8.29935	0.5389
8.3335	0.5951
8.36766	0.6607
8.40181	0.682
8.43597	0.681
8.47012	0.6621
8.50428	0.6738
8.53843	0.7027
8.57259	0.7081
8.60674	0.6837
8.6409	0.676
8.67505	0.6814
8.70921	0.6252
8.74336	0.577
8.77752	0.6154
8.81167	0.6669
8.84583	0.6827
8.87998	0.6802
8.91414	0.6616
8.94829	0.6429
8.98245	0.635
9.0166	0.648
9.05076	0.6517
9.08491	0.5989
9.11907	0.5883
9.15322	0.6501
9.18738	0.689
9.22153	0.7145
9.25569	0.729
9.28984	0.733
9.324	0.7256
9.35815	0.6986
9.39231	0.6773
9.42646	0.6222
9.46062	0.534
9.49477	0.4321
9.52892	0.418
9.56308	0.4166
9.59723	0.382
9.63139	0.4283
9.66554	0.5198
9.6997	0.6102
9.73385	0.6656
9.76801	0.7008
9.80216	0.7334
9.83632	0.7438
9.87047	0.7571
9.90463	0.7763
9.93878	0.7843
9.97294	0.7935
10.0071	0.8
10.0412	0.801
10.0754	0.803
10.1096	0.803
10.1437	0.798
10.1779	0.801
10.212	0.798
10.2462	0.7909
10.2803	0.7767
10.3145	0.7571
10.3486	0.7036
10.3828	0.6531
10.417	0.635
10.4511	0.6461
10.4853	0.6664
10.5194	0.6854
10.5536	0.702
10.5877	0.7208
10.6219	0.7381
10.656	0.755
10.6902	0.7622
10.7243	0.7639
10.7585	0.752
10.7927	0.7282
10.8268	0.6829
10.861	0.639
10.8951	0.6343
10.9293	0.6521
10.9634	0.652
10.9976	0.6471
11.0317	0.6631
11.0659	0.704
11.1001	0.7374
11.1342	0.748
11.1684	0.755
11.2025	0.7571
11.2367	0.753
11.2708	0.747
11.305	0.7412
11.3391	0.7353
11.3733	0.7291
11.4074	0.726
11.4416	0.7215
11.4758	0.7112
11.5099	0.697
11.5441	0.6876
11.5782	0.6702
11.6124	0.6661
11.6465	0.6598
11.6807	0.6473
11.7148	0.6442
11.749	0.6373
11.7831	0.632
11.8173	0.627
11.8515	0.6333
11.8856	0.6456
11.9198	0.6636
11.9539	0.6747
11.9881	0.678
12.0222	0.6765
12.0564	0.6714
12.0905	0.6644
12.1247	0.661
12.1589	0.6514
12.193	0.6445
12.2272	0.6325
12.2613	0.6226
12.2955	0.618
12.3296	0.6136
12.3638	0.61
12.3979	0.61
12.4321	0.6107
12.4662	0.6126
12.5004	0.615
12.5346	0.617
12.5687	0.622
12.6029	0.629
12.637	0.632
12.6712	0.6346
12.7053	0.6403
12.7395	0.646
12.7736	0.649
12.8078	0.651
12.842	0.6574
12.8761	0.663
12.9103	0.6652
12.9444	0.6757
12.9786	0.682
13.0127	0.6931
13.0469	0.697
13.081	0.699
13.1152	0.7
13.1493	0.7047
13.1835	0.711
13.2177	0.7116
13.2518	0.7131
13.286	0.717
13.3201	0.721
13.3543	0.7223
13.3884	0.721
13.4226	0.723
13.4567	0.7271
13.4909	0.7322
13.525	0.738
13.5592	0.74
13.5934	0.738
13.6275	0.738
13.6617	0.7405
13.6958	0.741
13.73	0.743
13.7641	0.739
13.7983	0.738
13.8324	0.733
13.8666	0.7259
13.9008	0.7177
13.9349	0.7073
13.9691	0.6851
14.0032	0.6638
14.0374	0.6345
14.0715	0.6084
14.1057	0.5851
14.1398	0.5612
14.174	0.5355
14.2081	0.524
14.2423	0.5133
14.2765	0.499
14.3106	0.4932
14.3448	0.488
14.3789	0.4825
14.4131	0.48
14.4472	0.48
14.4814	0.4807
14.5155	0.482
14.5497	0.485
14.5839	0.488
14.618	0.4929
14.6522	0.499
14.6863	0.5
14.7205	0.502
14.7546	0.5078
14.7888	0.512
14.8229	0.5201
14.8571	0.5303
14.8912	0.539
14.9254	0.5488
14.9596	0.5581
14.9937	0.5676
15.0279	0.5685
15.062	0.5584
15.0962	0.5259
15.1303	0.4723
15.1645	0.4255
15.1986	0.4155
15.2328	0.4313
15.2669	0.4526
15.3011	0.4759
15.3353	0.4888
15.3694	0.502
15.4036	0.5095
