Infrared Spectrum: KETONE, 5-METHOXY-4-NITRO-2-THIENYL METHYL
Formula: C7 H7 N O4 S
CAS: 78150-61-5
State: SOLID (PELLET)
Melting point: 157-158
Class: COBLENTZ
Instrument: Not specified, most likely a prism, grating, or hybrid spectrometer.
Sampling: TRANSMISSION
Resolution: 4
Origin: TENNESSEE EASTMAN COMPANY, RESEARCH LABORATORIES
MICROMETERS	TRANSMITTANCE
2.001	0.288
2.04097	0.298
2.08094	0.308
2.12091	0.315
2.16089	0.333
2.20086	0.341
2.24083	0.355
2.2808	0.366
2.32077	0.371
2.36074	0.383
2.40071	0.396
2.44068	0.405
2.48066	0.418
2.52063	0.435
2.5606	0.443
2.60057	0.446
2.64054	0.451
2.68051	0.456
2.72048	0.466
2.76046	0.471
2.80043	0.47
2.8404	0.471
2.88037	0.463
2.92034	0.466
2.96031	0.478
3.00028	0.493
3.04026	0.505
3.08023	0.521
3.1202	0.533
3.16017	0.546
3.20014	0.553
3.24011	0.536
3.28008	0.565
3.32005	0.575
3.36003	0.58
3.4	0.568
3.43997	0.583
3.47994	0.59
3.51991	0.61
3.55988	0.623
3.59985	0.628
3.63983	0.63
3.6798	0.631
3.71977	0.638
3.75974	0.646
3.79971	0.651
3.83968	0.663
3.87965	0.668
3.91963	0.668
3.9596	0.671
3.99957	0.676
4.03954	0.685
4.07951	0.69
4.11948	0.696
4.15945	0.7
4.19942	0.703
4.2394	0.736
4.27937	0.723
4.31934	0.708
4.35931	0.7
4.39928	0.725
4.43925	0.73
4.47922	0.735
4.5192	0.738
4.55917	0.741
4.59914	0.745
4.63911	0.75
4.67908	0.75
4.71905	0.751
4.75902	0.756
4.799	0.76
4.83897	0.763
4.87894	0.765
4.91891	0.766
4.95888	0.771
4.99885	0.78
5.03882	0.778
5.07879	0.781
5.11877	0.783
5.15874	0.785
5.19871	0.788
5.23868	0.786
5.27865	0.788
5.31862	0.79
5.35859	0.786
5.39857	0.793
5.43854	0.788
5.47851	0.8
5.51848	0.8
5.55845	0.8
5.59842	0.785
5.63839	0.795
5.67837	0.785
5.71834	0.778
5.75831	0.751
5.79828	0.755
5.83825	0.746
5.87822	0.763
5.91819	0.741
5.95816	0.723
5.99814	0.458
6.03811	0.568
6.07808	0.65
6.11805	0.69
6.15802	0.691
6.19799	0.7
6.23796	0.713
6.27794	0.711
6.31791	0.741
6.35788	0.728
6.39785	0.6
6.43782	0.251
6.47779	0.385
6.51776	0.171
6.55774	0.393
6.59771	0.623
6.63768	0.721
6.67765	0.743
6.71762	0.741
6.75759	0.776
6.79756	0.76
6.83753	0.755
6.87751	0.71
6.91748	0.716
6.95745	0.701
6.99742	0.676
7.03739	0.601
7.07736	0.7
7.11733	0.718
7.15731	0.57
7.19728	0.321
7.23725	0.49
7.27722	0.535
7.31719	0.61
7.35716	0.648
7.39713	0.683
7.43711	0.565
7.47708	0.475
7.51705	0.62
7.55702	0.673
7.59699	0.708
7.63696	0.741
7.67693	0.746
7.7169	0.703
7.75688	0.45
7.79685	0.3
7.83682	0.496
7.87679	0.481
7.91676	0.483
7.95673	0.45
7.9967	0.613
8.03668	0.673
8.07665	0.735
8.11662	0.78
8.15659	0.793
8.19656	0.815
8.23653	0.823
8.2765	0.823
8.31647	0.815
8.35645	0.818
8.39642	0.791
8.43639	0.766
8.47636	0.773
8.51633	0.795
8.5563	0.801
8.59627	0.741
8.63625	0.68
8.67622	0.755
8.71619	0.803
8.75616	0.816
8.79613	0.826
8.8361	0.83
8.87607	0.831
8.91605	0.833
8.95602	0.836
8.99599	0.84
9.03596	0.838
9.07593	0.841
9.1159	0.841
9.15587	0.841
9.19584	0.843
9.23582	0.846
9.27579	0.846
9.31576	0.845
9.35573	0.845
9.3957	0.843
9.43567	0.84
9.47564	0.84
9.51562	0.833
9.55559	0.796
9.59556	0.73
9.63553	0.771
9.6755	0.803
9.71547	0.81
9.75544	0.81
9.79542	0.81
9.83539	0.813
9.87536	0.821
9.91533	0.828
9.9553	0.83
9.99527	0.818
10.0352	0.736
10.0752	0.69
10.1152	0.658
10.1552	0.703
10.1951	0.783
10.2351	0.82
10.2751	0.835
10.315	0.843
10.355	0.843
10.395	0.841
10.435	0.825
10.4749	0.795
10.5149	0.756
10.5549	0.753
10.5948	0.801
10.6348	0.83
10.6748	0.841
10.7148	0.84
10.7547	0.803
10.7947	0.773
10.8347	0.81
10.8746	0.845
10.9146	0.861
10.9546	0.87
10.9946	0.873
11.0345	0.878
11.0745	0.886
11.1145	0.886
11.1544	0.89
11.1944	0.891
11.2344	0.895
11.2744	0.898
11.3143	0.901
11.3543	0.901
11.3943	0.893
11.4342	0.883
11.4742	0.856
11.5142	0.823
11.5542	0.818
11.5941	0.853
11.6341	0.88
11.6741	0.891
11.714	0.9
11.754	0.901
11.794	0.901
11.834	0.901
11.8739	0.903
11.9139	0.906
11.9539	0.911
11.9938	0.91
12.0338	0.908
12.0738	0.908
12.1138	0.908
12.1537	0.908
12.1937	0.908
12.2337	0.908
12.2736	0.908
12.3136	0.908
12.3536	0.908
12.3936	0.908
12.4335	0.91
12.4735	0.91
12.5135	0.91
12.5534	0.913
12.5934	0.913
12.6334	0.915
12.6734	0.913
12.7133	0.913
12.7533	0.908
12.7933	0.888
12.8332	0.821
12.8732	0.801
12.9132	0.861
12.9532	0.883
12.9931	0.886
13.0331	0.883
13.0731	0.863
13.113	0.806
13.153	0.758
13.193	0.8
13.233	0.858
13.2729	0.89
13.3129	0.901
13.3529	0.91
13.3928	0.92
13.4328	0.925
13.4728	0.926
13.5128	0.931
13.5527	0.933
13.5927	0.935
13.6327	0.94
13.6726	0.94
13.7126	0.945
13.7526	0.945
13.7926	0.945
13.8325	0.945
13.8725	0.94
13.9125	0.936
13.9524	0.941
13.9924	0.948
14.0324	0.956
14.0724	0.96
14.1123	0.961
14.1523	0.965
14.1923	0.963
14.2322	0.963
14.2722	0.961
14.3122	0.961
14.3522	0.96
14.3921	0.96
14.4321	0.963
14.4721	0.966
14.512	0.968
14.552	0.973
14.592	0.975
14.6319	0.98
14.6719	0.981
14.7119	0.981
14.7519	0.983
14.7918	0.983
14.8318	0.985
14.8718	0.985
14.9117	0.985
14.9517	0.978
14.9917	0.968
15.0317	0.971
15.0716	0.978
15.1116	0.981
15.1516	0.981
15.1915	0.981
15.2315	0.981
15.2715	0.978
15.3115	0.978
15.3514	0.971
15.3914	0.961
15.4314	0.96
15.4713	0.955
15.5113	0.951
15.5513	0.948
15.5913	0.945
15.6312	0.94
15.6712	0.933
15.7112	0.921
15.7511	0.906
15.7911	0.891
15.8311	0.885
15.8711	0.871
15.911	0.853
15.951	0.843
15.991	0.84
