Infrared Spectrum: 3,4-Dimethylbenzotrifluoride
Formula: C 9 H 9 F 3
CAS: 78164-31-5
State: gas
Origin: EPA-IR VAPOR PHASE LIBRARY
1/CM	ABSORBANCE
549.8	0.00265
559.445	0.0020387
569.09	0.0017696
578.734	0.00289
588.379	0.00285
598.024	0.00218
607.669	0.00217
617.313	0.00543
626.958	0.00858
636.603	0.00469
646.248	0.0021046
655.893	0.0010283
665.537	0.0013445
675.182	0.0010579
684.827	0.0016992
694.472	0.0019912
704.116	0.00315
713.761	0.00338
723.406	0.00417
733.051	0.00596
742.695	0.00743
752.34	0.0029
761.985	0.0015761
771.63	0.0018516
781.275	0.0018224
790.919	0.0020174
800.564	0.00417
810.209	0.00882
819.854	0.0139
829.498	0.01029
839.143	0.00513
848.788	0.00331
858.433	0.0018158
868.078	0.00397
877.722	0.00753
887.367	0.01589
897.012	0.01495
906.657	0.00573
916.301	0.0032
925.946	0.00348
935.591	0.00261
945.236	0.00302
954.88	0.00353
964.525	0.00285
974.17	0.00483
983.815	0.00658
993.46	0.00951
1003.1	0.00617
1012.75	0.00574
1022.39	0.00517
1032.04	0.00336
1041.68	0.00569
1051.33	0.00438
1060.97	0.00577
1070.62	0.00965
1080.26	0.02496
1089.91	0.03048
1099.55	0.01323
1109.2	0.01382
1118.84	0.03083
1128.49	0.07847
1138.13	0.1413
1147.78	0.12196
1157.42	0.08134
1167.07	0.11057
1176.71	0.08942
1186.36	0.03333
1196	0.01525
1205.64	0.00802
1215.29	0.00991
1224.93	0.01018
1234.58	0.00792
1244.22	0.00601
1253.87	0.00746
1263.51	0.00832
1273.16	0.01545
1282.8	0.03104
1292.45	0.02327
1302.09	0.012
1311.74	0.02387
1321.38	0.097
1331.03	0.16717
1340.67	0.07554
1350.32	0.01606
1359.96	0.00818
1369.61	0.0071
1379.25	0.00738
1388.9	0.00987
1398.54	0.01117
1408.18	0.01364
1417.83	0.01123
1427.47	0.00784
1437.12	0.0079
1446.76	0.00857
1456.41	0.0093
1466.05	0.00823
1475.7	0.00663
1485.34	0.00457
1494.99	0.00356
1504.63	0.0038
1514.28	0.00346
1523.92	0.00293
1533.57	0.00265
1543.21	0.00272
1552.86	0.00251
1562.5	0.00315
1572.15	0.00307
1581.79	0.00342
1591.44	0.00308
1601.08	0.00447
1610.73	0.00556
1620.37	0.00636
1630.01	0.00617
1639.66	0.00532
1649.3	0.00441
1658.95	0.00245
1668.59	0.00215
1678.24	0.0018429
1687.88	0.0018403
1697.53	0.0015389
1707.17	0.0017433
1716.82	0.0017053
1726.46	0.0017423
1736.11	0.0014307
1745.75	0.0020579
1755.4	0.0025
1765.04	0.00305
1774.69	0.00283
1784.33	0.0019813
1793.98	0.0015101
1803.62	0.0014424
1813.27	0.0012394
1822.91	0.0016177
1832.55	0.0017683
1842.2	0.0015584
1851.84	0.0013673
1861.49	0.0014869
1871.13	0.0017866
1880.78	0.0020336
1890.42	0.00225
1900.07	0.00255
1909.71	0.0019641
1919.36	0.0019275
1929	0.0018802
1938.65	0.0013641
1948.29	0.0016529
1957.94	0.0014637
1967.58	0.0015421
1977.23	0.0015757
1986.87	0.0017365
1996.52	0.001544
2006.16	0.0014349
2015.81	0.0020425
2025.45	0.001647
2035.1	0.0014305
2044.74	0.0014332
2054.38	0.001468
2064.03	0.0015263
2073.67	0.0019913
2083.32	0.0014385
2092.96	0.0013415
2102.61	0.0012651
2112.25	0.0015865
2121.9	0.0016329
2131.54	0.00121196
2141.19	0.001503
2150.83	0.001702
2160.48	0.0016439
2170.12	0.0013459
2179.77	0.0014237
2189.41	0.001454
2199.06	0.0015906
2208.7	0.0015664
2218.35	0.0016665
2227.99	0.0019066
2237.64	0.0017045
2247.28	0.0018698
2256.92	0.0017917
2266.57	0.0019032
2276.21	0.0019929
2285.86	0.0018273
2295.5	0.0017258
2305.15	0.0017368
2314.79	0.0019044
2324.44	0.0016713
2334.08	0.0019145
2343.73	0.0018201
2353.37	0.0015
2363.02	0.0017595
2372.66	0.001698
2382.31	0.0014126
2391.95	0.0013179
2401.6	0.001528
2411.24	0.0015006
2420.89	0.0015265
2430.53	0.0016579
2440.18	0.0016215
2449.82	0.0013183
2459.47	0.00117325
2469.11	0.0013952
2478.75	0.0017723
2488.4	0.0018508
2498.04	0.0015709
2507.69	0.0013109
2517.33	0.00111666
2526.98	0.001648
2536.62	0.0013058
2546.27	0.001332
2555.91	0.0016752
2565.56	0.0012935
2575.2	0.0013699
2584.85	0.0015471
2594.49	0.0017117
2604.14	0.0016
2613.78	0.0015536
2623.43	0.0012895
2633.07	0.001373
2642.72	0.0014018
2652.36	0.0016139
2662.01	0.0016592
2671.65	0.0014721
2681.29	0.0015838
2690.94	0.001016
2700.58	0.0010477
2710.23	0.0017881
2719.87	0.000964
2729.52	0.0012756
2739.16	0.0013531
2748.81	0.0022
2758.45	0.0019488
2768.1	0.00095
2777.74	0.0019709
2787.39	0.0013768
2797.03	0.0019287
2806.68	0.0015552
2816.32	0.0018441
2825.97	0.00216
2835.61	0.00218
2845.26	0.00285
2854.9	0.00349
2864.55	0.00514
2874.19	0.0067
2883.84	0.00711
2893.48	0.00698
2903.12	0.00641
2912.77	0.00717
2922.41	0.00996
2932.06	0.0141
2941.7	0.01502
2951.35	0.01102
2960.99	0.00957
2970.64	0.00985
2980.28	0.01001
2989.93	0.00869
2999.57	0.00693
3009.22	0.00537
3018.86	0.00503
3028.51	0.00655
3038.15	0.00722
3047.8	0.0067
3057.44	0.00539
3067.09	0.00448
3076.73	0.00409
3086.38	0.00401
3096.02	0.0029
3105.67	0.00317
3115.31	0.0019241
3124.95	0.0020189
3134.6	0.00215
3144.24	0.0018188
3153.89	0.0011002
3163.53	0.0013748
3173.18	0.0010276
3182.82	0.0010576
3192.47	0.00071
3202.11	0.0010467
3211.76	0.0012965
3221.4	0.000743
3231.05	0.00116259
3240.69	0.0019535
3250.34	0.000425
3259.98	0.0013667
3269.63	0.0013241
3279.27	0.00025
3288.92	0.0012977
3298.56	0.000885
3308.21	0.0012589
3317.85	0.0010771
3327.49	0.0015901
3337.14	0.0016217
3346.78	0.0013878
3356.43	0.0013242
3366.07	0.000715
3375.72	0.0014304
3385.36	0.001299
3395.01	0.0014337
3404.65	0.0010662
3414.3	0.0014858
3423.94	0.0015239
3433.59	0.0010995
3443.23	0.0015051
3452.88	0.000777
3462.52	0.00093
3472.17	0.0012339
3481.81	0.000788
3491.46	0.000879
3501.1	0.000328
3510.75	0.000794
3520.39	0.0010663
3530.04	0.000788
3539.68	0.0016568
3549.32	0.001581
3558.97	0.001007
3568.61	0.0011038
3578.26	0.0020818
3587.9	0.0010889
3597.55	0.000771
3607.19	0.000326
3616.84	0.00114974
3626.48	0.0013494
3636.13	0.00115015
3645.77	0.000372
3655.42	0.00120624
3665.06	0.000782
3674.71	0.000889
3684.35	0.0013968
3694	0.0012534
3703.64	0.000845
3713.29	0.0015685
3722.93	0.0013961
3732.58	0.0010789
3742.22	0.0016153
3751.86	0.00118552
3761.51	0.0015369
3771.15	0.0010891
3780.8	0.0010983
3790.44	0.000575
3800.09	0.000921
3809.73	0.000991
3819.38	0.000954
3829.02	0.0013074
3838.67	0.000487
3848.31	0.000737
3857.96	0.0015794
3867.6	0.000286
3877.25	0.0014387
3886.89	0.000887
3896.54	0.00119133
3906.18	0.0016064
3915.83	0.0018216
3925.47	0.00112692
3935.12	0.000425
3944.76	0.0013117
3954.41	0.001013
3964.05	0.000905
3973.69	0.000865
3983.34	0.0010529
3992.98	0.0016571
