Infrared Spectrum: (4-Acetylphenyl)phenylmethane
Formula: C 15 H 14 O
CAS: 782-92-3
State: gas
Origin: EPA-IR VAPOR PHASE LIBRARY
1/CM	ABSORBANCE
551.7	0.00364
563.274	0.00885
574.848	0.01193
586.421	0.01027
597.995	0.01609
609.569	0.01612
621.143	0.00665
632.717	0.00471
644.291	0.00461
655.864	0.00581
667.438	0.01074
679.012	0.02272
690.586	0.03052
702.16	0.03191
713.734	0.02264
725.307	0.02085
736.881	0.01576
748.455	0.01366
760.029	0.00725
771.603	0.00617
783.177	0.01029
794.75	0.01495
806.324	0.01182
817.898	0.00838
829.472	0.00869
841.046	0.01149
852.619	0.0102
864.193	0.0055
875.767	0.00385
887.341	0.00368
898.915	0.00434
910.489	0.00453
922.062	0.00462
933.636	0.00618
945.21	0.01481
956.784	0.02124
968.358	0.00928
979.932	0.0056
991.505	0.00487
1003.08	0.00638
1014.65	0.01467
1026.23	0.01096
1037.8	0.00553
1049.37	0.00431
1060.95	0.00636
1072.52	0.0091
1084.1	0.00576
1095.67	0.00438
1107.24	0.00555
1118.82	0.00556
1130.39	0.00401
1141.97	0.00364
1153.54	0.00443
1165.11	0.00637
1176.69	0.01616
1188.26	0.02067
1199.83	0.01157
1211.41	0.01048
1222.98	0.01864
1234.56	0.03066
1246.13	0.049
1257.7	0.11224
1269.28	0.07762
1280.85	0.02212
1292.42	0.0126
1304	0.01179
1315.57	0.00902
1327.15	0.00749
1338.72	0.01015
1350.29	0.02242
1361.87	0.04145
1373.44	0.01788
1385.02	0.01009
1396.59	0.01178
1408.16	0.02075
1419.74	0.01771
1431.31	0.01403
1442.88	0.01395
1454.46	0.01164
1466.03	0.00738
1477.61	0.00614
1489.18	0.01296
1500.75	0.01568
1512.33	0.00587
1523.9	0.005
1535.48	0.00514
1547.05	0.00568
1558.62	0.00812
1570.2	0.01255
1581.77	0.01341
1593.34	0.02622
1604.92	0.0478
1616.49	0.02396
1628.07	0.00969
1639.64	0.00741
1651.21	0.00808
1662.79	0.01097
1674.36	0.01518
1685.93	0.0342
1697.51	0.10724
1709.08	0.09862
1720.66	0.0284
1732.23	0.01249
1743.8	0.00903
1755.38	0.00699
1766.95	0.00501
1778.53	0.00431
1790.1	0.00473
1801.67	0.00484
1813.25	0.00354
1824.82	0.00284
1836.39	0.00253
1847.97	0.00262
1859.54	0.00296
1871.12	0.00312
1882.69	0.00318
1894.26	0.0033
1905.84	0.00329
1917.41	0.00341
1928.99	0.00383
1940.56	0.00416
1952.13	0.00376
1963.71	0.00245
1975.28	0.0018
1986.85	0.00165
1998.43	0.00152
2010	0.00157
2021.58	0.00158
2033.15	0.00156
2044.72	0.00136
2056.3	0.00121
2067.87	0.00118
2079.44	0.00115
2091.02	0.00115
2102.59	0.00107
2114.17	0.0009767
2125.74	0.0009401
2137.31	0.0009182
2148.89	0.0009098
2160.46	0.0008916
2172.04	0.0009761
2183.61	0.00103
2195.18	0.00102
2206.76	0.00102
2218.33	0.00101
2229.9	0.0009567
2241.48	0.0009528
2253.05	0.0009649
2264.63	0.0009772
2276.2	0.00103
2287.77	0.00118
2299.35	0.00138
2310.92	0.00152
2322.5	0.00145
2334.07	0.00142
2345.64	0.00133
2357.22	0.00122
2368.79	0.00116
2380.36	0.00114
2391.94	0.0011
2403.51	0.00106
2415.09	0.00111
2426.66	0.00116
2438.23	0.00118
2449.81	0.00107
2461.38	0.00101
2472.96	0.00102
2484.53	0.00104
2496.1	0.00115
2507.68	0.00126
2519.25	0.00136
2530.82	0.00126
2542.4	0.00114
2553.97	0.00112
2565.55	0.00118
2577.12	0.00121
2588.69	0.00133
2600.27	0.00129
2611.84	0.00132
2623.41	0.00132
2634.99	0.00127
2646.56	0.0012
2658.14	0.00112
2669.71	0.00106
2681.28	0.0009828
2692.86	0.00102
2704.43	0.00108
2716.01	0.00109
2727.58	0.00106
2739.15	0.00113
2750.73	0.00125
2762.3	0.00142
2773.87	0.00143
2785.45	0.00146
2797.02	0.00143
2808.6	0.00148
2820.17	0.00191
2831.74	0.00273
2843.32	0.00446
2854.89	0.00563
2866.47	0.00482
2878.04	0.00402
2889.61	0.00436
2901.19	0.00647
2912.76	0.01148
2924.33	0.01571
2935.91	0.01308
2947.48	0.00776
2959.06	0.00559
2970.63	0.00564
2982.2	0.00595
2993.78	0.00709
3005.35	0.01156
3016.92	0.01808
3028.5	0.02852
3040.07	0.02917
3051.65	0.01929
3063.22	0.02298
3074.79	0.02791
3086.37	0.02013
3097.94	0.01387
3109.52	0.00846
3121.09	0.00501
3132.66	0.00288
3144.24	0.00207
3155.81	0.0017
3167.38	0.00152
3178.96	0.00127
3190.53	0.00117
3202.11	0.00114
3213.68	0.0011
3225.25	0.00107
3236.83	0.001
3248.4	0.0009646
3259.98	0.0009917
3271.55	0.00102
3283.12	0.0009634
3294.7	0.0009906
3306.27	0.0009381
3317.84	0.0009781
3329.42	0.0009984
3340.99	0.00101
3352.57	0.00119
3364.14	0.00147
3375.71	0.00229
3387.29	0.00318
3398.86	0.00225
3410.43	0.00146
3422.01	0.00115
3433.58	0.00109
3445.16	0.0011
3456.73	0.001
3468.3	0.00108
3479.88	0.0009787
3491.45	0.00101
3503.03	0.0009159
3514.6	0.0009511
3526.17	0.0008609
3537.75	0.0008685
3549.32	0.0009305
3560.89	0.0009311
3572.47	0.0008937
3584.04	0.0008744
3595.62	0.0009116
3607.19	0.0009422
3618.76	0.001
3630.34	0.00108
3641.91	0.00106
3653.49	0.00113
3665.06	0.00116
3676.63	0.00112
3688.21	0.00104
3699.78	0.00106
3711.35	0.00104
3722.93	0.00108
3734.5	0.00101
3746.08	0.0009304
3757.65	0.0008913
3769.22	0.0008612
3780.8	0.0009394
3792.37	0.0009764
3803.94	0.0009358
3815.52	0.000925
3827.09	0.001
3838.67	0.00109
3850.24	0.00112
3861.81	0.00109
3873.39	0.00106
3884.96	0.00105
3896.54	0.00103
3908.11	0.00106
3919.68	0.00101
3931.26	0.00101
3942.83	0.0009884
3954.4	0.00102
3965.98	0.00103
3977.55	0.00101
3989.13	0.0009873
4000.7	0.00113
