Infrared Spectrum: 2-(4-Fluorophenyl)indole
Formula: C 14 H 10 F N
CAS: 782-17-2
State: gas
Origin: EPA-IR VAPOR PHASE LIBRARY
1/CM	ABSORBANCE
549.8	0.006
559.445	0.00428
569.09	0.0035472
578.734	0.0035038
588.379	0.0041945
598.024	0.00328965
607.669	0.00497
617.313	0.0055
626.958	0.00745
636.603	0.00443
646.248	0.00434
655.893	0.00524
665.537	0.00577
675.182	0.00533
684.827	0.00488
694.472	0.00462
704.116	0.00487
713.761	0.00683
723.406	0.01414
733.051	0.02285
742.695	0.01924
752.34	0.01265
761.985	0.00914
771.63	0.01087
781.275	0.02373
790.919	0.03143
800.564	0.02017
810.209	0.01678
819.854	0.01858
829.498	0.02899
839.143	0.02653
848.788	0.01497
858.433	0.009
868.078	0.00758
877.722	0.00641
887.367	0.00705
897.012	0.00623
906.657	0.00619
916.301	0.00514
925.946	0.00512
935.591	0.0047
945.236	0.00462
954.88	0.00456
964.525	0.00488
974.17	0.00457
983.815	0.00505
993.46	0.00468
1003.1	0.00537
1012.75	0.00855
1022.39	0.00664
1032.04	0.00499
1041.68	0.00544
1051.33	0.00548
1060.97	0.00578
1070.62	0.0048
1080.26	0.00559
1089.91	0.00539
1099.55	0.00566
1109.2	0.002254
1118.84	0.0055
1128.49	0.002521
1138.13	0.0031221
1147.78	0.00841
1157.42	0.02262
1167.07	0.00643
1176.71	0.003093
1186.36	0.00162
1196	0.00165
1205.64	0.002997
1215.29	0.0067
1224.93	0.016
1234.58	0.06746
1244.22	0.05768
1253.87	0.01331
1263.51	0.00663
1273.16	0.00727
1282.8	0.01938
1292.45	0.02941
1302.09	0.01212
1311.74	0.00671
1321.38	0.00608
1331.03	0.00847
1340.67	0.01457
1350.32	0.01165
1359.96	0.01002
1369.61	0.00627
1379.25	0.00603
1388.9	0.00886
1398.54	0.00965
1408.18	0.00984
1417.83	0.01456
1427.47	0.01295
1437.12	0.00889
1446.76	0.01804
1456.41	0.02745
1466.05	0.0113
1475.7	0.01154
1485.34	0.03249
1494.99	0.05142
1504.63	0.05727
1514.28	0.01655
1523.92	0.00896
1533.57	0.00834
1543.21	0.01124
1552.86	0.01797
1562.5	0.01413
1572.15	0.00834
1581.79	0.00814
1591.44	0.00786
1601.08	0.00798
1610.73	0.009
1620.37	0.00696
1630.01	0.00484
1639.66	0.00539
1649.3	0.00574
1658.95	0.00451
1668.59	0.003931
1678.24	0.0036479
1687.88	0.0036798
1697.53	0.0035843
1707.17	0.0038295
1716.82	0.0036255
1726.46	0.0035258
1736.11	0.0034753
1745.75	0.00435
1755.4	0.0048
1765.04	0.0041448
1774.69	0.0036108
1784.33	0.0035646
1793.98	0.0041188
1803.62	0.0033074
1813.27	0.0033249
1822.91	0.00328816
1832.55	0.003965
1842.2	0.00444
1851.84	0.0039727
1861.49	0.0041687
1871.13	0.00506
1880.78	0.00527
1890.42	0.00447
1900.07	0.0041706
1909.71	0.00524
1919.36	0.00452
1929	0.0036373
1938.65	0.0035928
1948.29	0.0034439
1957.94	0.0038121
1967.58	0.0035351
1977.23	0.0039316
1986.87	0.0038007
1996.52	0.0037029
2006.16	0.0036892
2015.81	0.003819
2025.45	0.0040602
2035.1	0.0039346
2044.74	0.0040584
2054.38	0.00421
2064.03	0.0040022
2073.67	0.0041171
2083.32	0.0037392
2092.96	0.0036838
2102.61	0.0037268
2112.25	0.0035903
2121.9	0.0037807
2131.54	0.003954
2141.19	0.0038962
2150.83	0.0040791
2160.48	0.0039148
2170.12	0.0038757
2179.77	0.0037083
2189.41	0.0038236
2199.06	0.003699
2208.7	0.0037862
2218.35	0.0037682
2227.99	0.0037223
2237.64	0.0039522
2247.28	0.0041028
2256.92	0.0040364
2266.57	0.0036971
2276.21	0.003954
2285.86	0.0037989
2295.5	0.0037882
2305.15	0.0038976
2314.79	0.004047
2324.44	0.0040538
2334.08	0.0040822
2343.73	0.0040191
2353.37	0.0041474
2363.02	0.0040983
2372.66	0.0041557
2382.31	0.0041802
2391.95	0.00429
2401.6	0.00424
2411.24	0.0041957
2420.89	0.0041615
2430.53	0.00401
2440.18	0.0039734
2449.82	0.00431
2459.47	0.00446
2469.11	0.00458
2478.75	0.0040401
2488.4	0.0038123
2498.04	0.0040681
2507.69	0.00456
2517.33	0.00432
2526.98	0.00438
2536.62	0.00421
2546.27	0.0042
2555.91	0.00428
2565.56	0.0039813
2575.2	0.00424
2584.85	0.0041287
2594.49	0.00477
2604.14	0.0044
2613.78	0.00432
2623.43	0.00433
2633.07	0.0040885
2642.72	0.00437
2652.36	0.00433
2662.01	0.00438
2671.65	0.0041265
2681.29	0.0040962
2690.94	0.00448
2700.58	0.0040482
2710.23	0.0036769
2719.87	0.0038149
2729.52	0.004197
2739.16	0.0038998
2748.81	0.0038909
2758.45	0.0040434
2768.1	0.003796
2777.74	0.00467
2787.39	0.00424
2797.03	0.00466
2806.68	0.0040339
2816.32	0.0041806
2825.97	0.0034449
2835.61	0.004176
2845.26	0.00451
2854.9	0.00436
2864.55	0.0040175
2874.19	0.00436
2883.84	0.00476
2893.48	0.003904
2903.12	0.00433
2912.77	0.00445
2922.41	0.00454
2932.06	0.0040978
2941.7	0.0040218
2951.35	0.00464
2960.99	0.0046
2970.64	0.00461
2980.28	0.00446
2989.93	0.004073
2999.57	0.00442
3009.22	0.00579
3018.86	0.00707
3028.51	0.00838
3038.15	0.011
3047.8	0.0131
3057.44	0.01536
3067.09	0.0239
3076.73	0.01641
3086.38	0.01109
3096.02	0.00754
3105.67	0.00651
3115.31	0.00603
3124.95	0.00578
3134.6	0.0046
3144.24	0.00426
3153.89	0.0041727
3163.53	0.003733
3173.18	0.0039329
3182.82	0.0039114
3192.47	0.0035415
3202.11	0.00423
3211.76	0.0035134
3221.4	0.0037646
3231.05	0.0038457
3240.69	0.0036508
3250.34	0.0035298
3259.98	0.0038295
3269.63	0.0036889
3279.27	0.0034903
3288.92	0.0035641
3298.56	0.0031546
3308.21	0.0039318
3317.85	0.0034604
3327.49	0.0034426
3337.14	0.0041528
3346.78	0.0038092
3356.43	0.0034185
3366.07	0.002999
3375.72	0.0039672
3385.36	0.0033743
3395.01	0.0035512
3404.65	0.0035928
3414.3	0.0033684
3423.94	0.0041956
3433.59	0.00439
3443.23	0.0038024
3452.88	0.00487
3462.52	0.00459
3472.17	0.00665
3481.81	0.00839
3491.46	0.01302
3501.1	0.01466
3510.75	0.00968
3520.39	0.00524
3530.04	0.0041001
3539.68	0.0036689
3549.32	0.0033248
3558.97	0.0034968
3568.61	0.0033063
3578.26	0.0034564
3587.9	0.00328192
3597.55	0.00328661
3607.19	0.0031065
3616.84	0.0038018
3626.48	0.0035628
3636.13	0.0034074
3645.77	0.0040535
3655.42	0.002673
3665.06	0.0036966
3674.71	0.0038824
3684.35	0.0037061
3694	0.0041789
3703.64	0.0033618
3713.29	0.002838
3722.93	0.0032987
3732.58	0.0035288
3742.22	0.0033896
3751.86	0.00344
3761.51	0.0034532
3771.15	0.00271
3780.8	0.0035144
3790.44	0.0033919
3800.09	0.0036884
3809.73	0.00326165
3819.38	0.0034453
3829.02	0.003022
3838.67	0.0036381
3848.31	0.00324257
3857.96	0.0033309
3867.6	0.00327668
3877.25	0.003824
3886.89	0.0033524
3896.54	0.0036808
3906.18	0.003017
3915.83	0.0031616
3925.47	0.0038263
3935.12	0.0039454
3944.76	0.00446
3954.41	0.0034361
3964.05	0.003472
3973.69	0.00427
3983.34	0.0035801
3992.98	0.0041833
