Infrared Spectrum: 1-(2-Pyridylmethyl)pyrrole
Formula: C 10 H 10 N 2
CAS: 78210-51-2
State: gas
Origin: EPA-IR VAPOR PHASE LIBRARY
1/CM	ABSORBANCE
549.8	0.00203
559.445	0.00244
569.09	0.00295
578.734	0.00299
588.379	0.00455
598.024	0.00634
607.669	0.01705
617.313	0.03067
626.958	0.02933
636.603	0.01628
646.248	0.00966
655.893	0.00999
665.537	0.01069
675.182	0.01292
684.827	0.0199
694.472	0.03195
704.116	0.06398
713.761	0.15157
723.406	0.16501
733.051	0.07915
742.695	0.05829
752.34	0.05365
761.985	0.03327
771.63	0.01875
781.275	0.01415
790.919	0.01203
800.564	0.0081
810.209	0.00812
819.854	0.00601
829.498	0.00583
839.143	0.00473
848.788	0.0042
858.433	0.00283
868.078	0.00308
877.722	0.00393
887.367	0.00309
897.012	0.00351
906.657	0.00299
916.301	0.00333
925.946	0.00344
935.591	0.00418
945.236	0.00468
954.88	0.00892
964.525	0.02255
974.17	0.01881
983.815	0.00917
993.46	0.00899
1003.1	0.00734
1012.75	0.00566
1022.39	0.00626
1032.04	0.00669
1041.68	0.01254
1051.33	0.0164
1060.97	0.02507
1070.62	0.02735
1080.26	0.04611
1089.91	0.07555
1099.55	0.03519
1109.2	0.00611
1118.84	0.00524
1128.49	0.00504
1138.13	0.00692
1147.78	0.00764
1157.42	0.00373
1167.07	0.00382
1176.71	0.00429
1186.36	0.00305
1196	0.0015254
1205.64	0.00337
1215.29	0.0079
1224.93	0.00816
1234.58	0.01254
1244.22	0.01761
1253.87	0.01502
1263.51	0.01904
1273.16	0.04231
1282.8	0.06731
1292.45	0.05352
1302.09	0.02728
1311.74	0.01477
1321.38	0.01259
1331.03	0.01919
1340.67	0.03376
1350.32	0.03699
1359.96	0.02311
1369.61	0.01603
1379.25	0.01287
1388.9	0.01336
1398.54	0.01624
1408.18	0.02016
1417.83	0.0305
1427.47	0.05751
1437.12	0.06461
1446.76	0.03282
1456.41	0.01847
1466.05	0.02701
1475.7	0.03892
1485.34	0.04777
1494.99	0.06948
1504.63	0.04436
1514.28	0.0178
1523.92	0.01888
1533.57	0.02833
1543.21	0.03025
1552.86	0.02575
1562.5	0.02786
1572.15	0.03925
1581.79	0.04965
1591.44	0.0603
1601.08	0.03431
1610.73	0.01269
1620.37	0.00811
1630.01	0.00565
1639.66	0.00397
1649.3	0.00327
1658.95	0.00365
1668.59	0.00459
1678.24	0.00551
1687.88	0.00424
1697.53	0.00392
1707.17	0.00521
1716.82	0.00623
1726.46	0.00418
1736.11	0.00208
1745.75	0.0016496
1755.4	0.0019547
1765.04	0.00215
1774.69	0.00223
1784.33	0.0017763
1793.98	0.0014493
1803.62	0.001474
1813.27	0.0017248
1822.91	0.00203
1832.55	0.00248
1842.2	0.00273
1851.84	0.00279
1861.49	0.00296
1871.13	0.00337
1880.78	0.00239
1890.42	0.00204
1900.07	0.00246
1909.71	0.00282
1919.36	0.00301
1929	0.0033
1938.65	0.00335
1948.29	0.00296
1957.94	0.00314
1967.58	0.00336
1977.23	0.00316
1986.87	0.00211
1996.52	0.0016424
2006.16	0.0015664
2015.81	0.0016531
2025.45	0.0015815
2035.1	0.0016499
2044.74	0.0017461
2054.38	0.0015174
2064.03	0.0014136
2073.67	0.0015825
2083.32	0.0014618
2092.96	0.0013896
2102.61	0.0013666
2112.25	0.0016238
2121.9	0.0014454
2131.54	0.0014892
2141.19	0.0015811
2150.83	0.00214
2160.48	0.0015604
2170.12	0.00214
2179.77	0.0018185
2189.41	0.00244
2199.06	0.00217
2208.7	0.00216
2218.35	0.001747
2227.99	0.00217
2237.64	0.00241
2247.28	0.00269
2256.92	0.00231
2266.57	0.00217
2276.21	0.0016739
2285.86	0.0019464
2295.5	0.00251
2305.15	0.00214
2314.79	0.0019399
2324.44	0.0019571
2334.08	0.0023
2343.73	0.0019423
2353.37	0.00238
2363.02	0.00231
2372.66	0.00226
2382.31	0.00208
2391.95	0.0017612
2401.6	0.0016354
2411.24	0.0015555
2420.89	0.001644
2430.53	0.00214
2440.18	0.0017532
2449.82	0.00212
2459.47	0.00245
2469.11	0.00245
2478.75	0.0025
2488.4	0.00204
2498.04	0.001914
2507.69	0.001867
2517.33	0.0018565
2526.98	0.0018134
2536.62	0.00235
2546.27	0.00256
2555.91	0.0028
2565.56	0.00257
2575.2	0.00312
2584.85	0.00293
2594.49	0.00256
2604.14	0.00202
2613.78	0.00212
2623.43	0.0018534
2633.07	0.0016213
2642.72	0.0016791
2652.36	0.00201
2662.01	0.0018153
2671.65	0.00221
2681.29	0.00227
2690.94	0.00205
2700.58	0.00236
2710.23	0.0018405
2719.87	0.00239
2729.52	0.00204
2739.16	0.002006
2748.81	0.00289
2758.45	0.00331
2768.1	0.00367
2777.74	0.00442
2787.39	0.00426
2797.03	0.00369
2806.68	0.00292
2816.32	0.00243
2825.97	0.003
2835.61	0.00296
2845.26	0.00349
2854.9	0.00486
2864.55	0.00522
2874.19	0.00536
2883.84	0.00535
2893.48	0.00598
2903.12	0.00711
2912.77	0.0097
2922.41	0.01317
2932.06	0.01715
2941.7	0.0188
2951.35	0.01804
2960.99	0.01383
2970.64	0.00931
2980.28	0.00645
2989.93	0.00623
2999.57	0.00828
3009.22	0.01233
3018.86	0.01683
3028.51	0.01352
3038.15	0.01071
3047.8	0.01505
3057.44	0.02188
3067.09	0.02607
3076.73	0.03252
3086.38	0.02475
3096.02	0.01387
3105.67	0.0123
3115.31	0.01523
3124.95	0.01421
3134.6	0.01079
3144.24	0.00761
3153.89	0.00341
3163.53	0.00228
3173.18	0.00245
3182.82	0.0013812
3192.47	0.0015329
3202.11	0.0014726
3211.76	0.0020058
3221.4	0.00105031
3231.05	0.000822
3240.69	0.0009736
3250.34	0.000775
3259.98	0.0011413
3269.63	0.0013166
3279.27	0.0016895
3288.92	0.0014801
3298.56	0.001399
3308.21	0.000816
3317.85	0.0016013
3327.49	0.000612
3337.14	0.00105599
3346.78	0.000648
3356.43	0.000849
3366.07	0.00102947
3375.72	0.000498
3385.36	0.00108213
3395.01	0.000856
3404.65	0.00108218
3414.3	0.000741
3423.94	0.0014697
3433.59	0.00104296
3443.23	0.0011518
3452.88	0.000567
3462.52	0.0009885
3472.17	0.00110052
3481.81	0.0016685
3491.46	0.00106634
3501.1	0.0012341
3510.75	0.0012732
3520.39	0.0009693
3530.04	0.000481
3539.68	0.000887
3549.32	0.00015
3558.97	0.000206
3568.61	0.00105917
3578.26	0.0009407
3587.9	0.000836
3597.55	0.00041
3607.19	0.000758
3616.84	0.000468
3626.48	0.0011453
3636.13	0.000805
3645.77	0.0015601
3655.42	0.000154
3665.06	0.00107724
3674.71	0.00110147
3684.35	0.0009776
3694	0.0009882
3703.64	0.00102628
3713.29	0.0013264
3722.93	0.0012254
3732.58	0.00109264
3742.22	0.001515
3751.86	0.0013214
3761.51	0.0012091
3771.15	0.000779
3780.8	0.00104892
3790.44	0.0018227
3800.09	0.0017315
3809.73	0.0014863
3819.38	0.000751
3829.02	0.00104129
3838.67	0.0016601
3848.31	0.000796
3857.96	0.0009975
3867.6	0.0015485
3877.25	0.0018197
3886.89	0.0018004
3896.54	0.0012027
3906.18	0.0017568
3915.83	0.0013211
3925.47	0.0011207
3935.12	0.0015581
3944.76	0.0013995
3954.41	0.0018425
3964.05	0.0019681
3973.69	0.00313
3983.34	0.00303
3992.98	0.00239
