Infrared Spectrum: PROPYLTHIOPHOSPHONIC ACID, 2,3-DIAMINO-
Formula: C3 H11 N2 O3 S P
CAS: 78219-00-8
State: SOLID (1 mg / 500 mg KBr DISC)
Class: COBLENTZ III
Instrument: PERKIN-ELMER 521 (GRATING)
Sampling: TRANSMISSION
Resolution: 4
Origin: SOUTHERN RESEARCH INSTITUTE
1/CM	TRANSMITTANCE
253.081	0.155
263.644	0.197
274.208	0.246
284.771	0.258
295.335	0.315
305.898	0.349
316.461	0.386
327.025	0.377
337.588	0.319
348.152	0.461
358.715	0.601
369.278	0.667
379.842	0.688
390.405	0.676
400.969	0.555
411.532	0.474
422.096	0.3332
432.659	0.4768
443.222	0.639
453.786	0.663
464.349	0.68
474.913	0.6171
485.476	0.539
496.039	0.493
506.603	0.43
517.166	0.587
527.73	0.638
538.293	0.5141
548.856	0.4219
559.42	0.511
569.983	0.418
580.547	0.1863
591.11	0.1
601.673	0.176
612.237	0.308
622.8	0.551
633.364	0.7069
643.927	0.767
654.491	0.802
665.054	0.816
675.617	0.835
686.181	0.833
696.744	0.7401
707.308	0.84
717.871	0.865
728.434	0.868
738.998	0.873
749.561	0.872
760.125	0.87
770.688	0.868
781.251	0.858
791.815	0.843
802.378	0.819
812.942	0.689
823.505	0.806
834.068	0.817
844.632	0.7701
855.195	0.625
865.759	0.784
876.322	0.778
886.885	0.763
897.449	0.74
908.012	0.717
918.576	0.679
929.139	0.617
939.703	0.468
950.266	0.2532
960.829	0.1299
971.393	0.5379
981.956	0.507
992.52	0.476
1003.08	0.588
1013.65	0.509
1024.21	0.399
1034.77	0.262
1045.34	0.113
1055.9	0.048
1066.46	0.039
1077.03	0.068
1087.59	0.072
1098.15	0.106
1108.72	0.16
1119.28	0.101
1129.84	0.225
1140.41	0.311
1150.97	0.291
1161.53	0.286
1172.1	0.4779
1182.66	0.613
1193.22	0.689
1203.79	0.711
1214.35	0.6701
1224.91	0.6059
1235.48	0.742
1246.04	0.765
1256.6	0.773
1267.17	0.778
1277.73	0.767
1288.29	0.819
1298.86	0.841
1309.42	0.839
1319.99	0.832
1330.55	0.819
1341.11	0.798
1351.68	0.742
1362.24	0.771
1372.8	0.5832
1383.37	0.736
1393.93	0.783
1404.49	0.737
1415.06	0.787
1425.62	0.6761
1436.18	0.7669
1446.75	0.691
1457.31	0.678
1467.87	0.779
1478.44	0.769
1489	0.742
1499.56	0.689
1510.13	0.581
1520.69	0.419
1531.25	0.284
1541.82	0.36
1552.38	0.412
1562.94	0.565
1573.51	0.641
1584.07	0.633
1594.63	0.593
1605.2	0.496
1615.76	0.405
1626.32	0.456
1636.89	0.544
1647.45	0.568
1658.01	0.588
1668.58	0.701
1679.14	0.749
1689.7	0.77
1700.27	0.781
1710.83	0.791
1721.39	0.794
1731.96	0.794
1742.52	0.795
1753.08	0.796
1763.65	0.796
1774.21	0.799
1784.78	0.796
1795.34	0.792
1805.9	0.783
1816.47	0.777
1827.03	0.769
1837.59	0.762
1848.16	0.758
1858.72	0.759
1869.28	0.754
1879.85	0.75
1890.41	0.738
1900.97	0.728
1911.54	0.715
1922.1	0.705
1932.66	0.691
1943.23	0.683
1953.79	0.682
1964.35	0.68
1974.92	0.675
1985.48	0.663
1996.04	0.651
2006.61	0.649
2017.17	0.6341
2027.73	0.6183
2038.3	0.6062
2048.86	0.5875
2059.42	0.5655
2069.99	0.5542
2080.55	0.5344
2091.11	0.5112
2101.68	0.4911
2112.24	0.4702
2122.8	0.45
2133.37	0.4327
2143.93	0.406
2154.49	0.3872
2165.06	0.3694
2175.62	0.3529
2186.18	0.349
2196.75	0.3525
2207.31	0.3694
2217.87	0.3877
2228.44	0.4188
2239	0.4421
2249.57	0.4593
2260.13	0.464
2270.69	0.463
2281.26	0.457
2291.82	0.4518
2302.38	0.4342
2312.95	0.4143
2323.51	0.3939
2334.07	0.3808
2344.64	0.369
2355.2	0.337
2365.76	0.331
2376.33	0.325
2386.89	0.319
2397.45	0.306
2408.02	0.2861
2418.58	0.2741
2429.14	0.2593
2439.71	0.2425
2450.27	0.2244
2460.83	0.2047
2471.4	0.1935
2481.96	0.191
2492.52	0.191
2503.09	0.184
2513.65	0.1744
2524.21	0.1602
2534.78	0.1494
2545.34	0.1415
2555.9	0.134
2566.47	0.133
2577.03	0.129
2587.59	0.126
2598.16	0.124
2608.72	0.12
2619.28	0.1203
2629.85	0.1226
2640.41	0.1343
2650.97	0.141
2661.54	0.1452
2672.1	0.1542
2682.66	0.156
2693.23	0.155
2703.79	0.149
2714.36	0.139
2724.92	0.1381
2735.48	0.1431
2746.05	0.15
2756.61	0.155
2767.17	0.158
2777.74	0.159
2788.3	0.158
2798.86	0.156
2809.43	0.1532
2819.99	0.149
2830.55	0.147
2841.12	0.1498
2851.68	0.1547
2862.24	0.1637
2872.81	0.166
2883.37	0.166
2893.93	0.162
2904.5	0.16
2915.06	0.1584
2925.62	0.1585
2936.19	0.1635
2946.75	0.18
2957.31	0.1849
2967.88	0.1918
2978.44	0.201
2989	0.2097
2999.57	0.218
3010.13	0.2253
3020.69	0.2373
3031.26	0.2495
3041.82	0.2662
3052.38	0.2814
3062.95	0.2992
3073.51	0.3133
3084.07	0.3354
3094.64	0.3561
3105.2	0.3781
3115.76	0.3971
3126.33	0.418
3136.89	0.432
3147.45	0.447
3158.02	0.4667
3168.58	0.4877
3179.15	0.5019
3189.71	0.5227
3200.27	0.5384
3210.84	0.5495
3221.4	0.5637
3231.96	0.572
3242.53	0.579
3253.09	0.589
3263.65	0.5976
3274.22	0.6032
3284.78	0.612
3295.34	0.614
3305.91	0.616
3316.47	0.614
3327.03	0.6125
3337.6	0.6056
3348.16	0.5952
3358.72	0.5829
3369.29	0.5696
3379.85	0.5557
3390.41	0.5454
3400.98	0.538
3411.54	0.536
3422.1	0.536
3432.67	0.539
3443.23	0.5432
3453.79	0.55
3464.36	0.5581
3474.92	0.567
3485.48	0.576
3496.05	0.588
3506.61	0.602
3517.17	0.6199
3527.74	0.6408
3538.3	0.6589
3548.86	0.6757
3559.43	0.697
3569.99	0.7193
3580.55	0.7376
3591.12	0.7556
3601.68	0.7772
3612.24	0.7941
3622.81	0.815
3633.37	0.8316
3643.93	0.841
3654.5	0.846
3665.06	0.846
3675.63	0.8511
3686.19	0.8605
3696.75	0.8685
3707.32	0.8709
3717.88	0.874
3728.44	0.874
3739.01	0.877
3749.57	0.879
3760.13	0.879
3770.7	0.879
3781.26	0.879
3791.82	0.881
3802.39	0.881
3812.95	0.881
3823.51	0.881
3834.08	0.881
3844.64	0.881
3855.2	0.881
3865.77	0.881
3876.33	0.881
3886.89	0.881
3897.46	0.881
3908.02	0.8792
3918.58	0.879
3929.15	0.881
3939.71	0.882
3950.27	0.8818
3960.84	0.883
3971.4	0.881
3981.96	0.882
3992.53	0.882
