Infrared Spectrum: 3-Nitrobenzoyl isothiocyanate
Formula: C 8 H 4 N 2 O 3 S
CAS: 78225-78-2
State: gas
Origin: EPA-IR VAPOR PHASE LIBRARY
1/CM	ABSORBANCE
549.8	0.00032
559.445	0.000569
569.09	0.000573
578.734	0.0008626
588.379	0.0006157
598.024	0.0011551
607.669	0.001113
617.313	0.0013537
626.958	0.003312
636.603	0.006472
646.248	0.012922
655.893	0.007522
665.537	0.004302
675.182	0.008322
684.827	0.015662
694.472	0.024332
704.116	0.032422
713.761	0.037812
723.406	0.027532
733.051	0.015672
742.695	0.010692
752.34	0.008062
761.985	0.003382
771.63	0.001562
781.275	0.001233
790.919	0.001612
800.564	0.002642
810.209	0.004762
819.854	0.005552
829.498	0.009982
839.143	0.021922
848.788	0.017572
858.433	0.006782
868.078	0.002512
877.722	0.002362
887.367	0.003392
897.012	0.005022
906.657	0.010112
916.301	0.017342
925.946	0.016272
935.591	0.011562
945.236	0.008412
954.88	0.006682
964.525	0.006532
974.17	0.006492
983.815	0.005532
993.46	0.004702
1003.1	0.003762
1012.75	0.002372
1022.39	0.002042
1032.04	0.002662
1041.68	0.002272
1051.33	0.003712
1060.97	0.006122
1070.62	0.009212
1080.26	0.011502
1089.91	0.012742
1099.55	0.015182
1109.2	0.023982
1118.84	0.030542
1128.49	0.021712
1138.13	0.009632
1147.78	0.004802
1157.42	0.004282
1167.07	0.005552
1176.71	0.005012
1186.36	0.004572
1196	0.007412
1205.64	0.014992
1215.29	0.033792
1224.93	0.061732
1234.58	0.097082
1244.22	0.106422
1253.87	0.057712
1263.51	0.021292
1273.16	0.012602
1282.8	0.027982
1292.45	0.023972
1302.09	0.009912
1311.74	0.009542
1321.38	0.006342
1331.03	0.007082
1340.67	0.016272
1350.32	0.035582
1359.96	0.025412
1369.61	0.009532
1379.25	0.004292
1388.9	0.002572
1398.54	0.002452
1408.18	0.002672
1417.83	0.003082
1427.47	0.004592
1437.12	0.007622
1446.76	0.004062
1456.41	0.002512
1466.05	0.003332
1475.7	0.005942
1485.34	0.005562
1494.99	0.004702
1504.63	0.006032
1514.28	0.005852
1523.92	0.006472
1533.57	0.010552
1543.21	0.030582
1552.86	0.046222
1562.5	0.019402
1572.15	0.009922
1581.79	0.008062
1591.44	0.008132
1601.08	0.008772
1610.73	0.012682
1620.37	0.011222
1630.01	0.004802
1639.66	0.003102
1649.3	0.002902
1658.95	0.003052
1668.59	0.003202
1678.24	0.004142
1687.88	0.005582
1697.53	0.008582
1707.17	0.018722
1716.82	0.054522
1726.46	0.074992
1736.11	0.042472
1745.75	0.022692
1755.4	0.014992
1765.04	0.007142
1774.69	0.004392
1784.33	0.003532
1793.98	0.003202
1803.62	0.003272
1813.27	0.003512
1822.91	0.003622
1832.55	0.004122
1842.2	0.004962
1851.84	0.006452
1861.49	0.008702
1871.13	0.012052
1880.78	0.017042
1890.42	0.024252
1900.07	0.035282
1909.71	0.050962
1919.36	0.064052
1929	0.075012
1938.65	0.096532
1948.29	0.139092
1957.94	0.167802
1967.58	0.140742
1977.23	0.107902
1986.87	0.101522
1996.52	0.110272
2006.16	0.113402
2015.81	0.091932
2025.45	0.063702
2035.1	0.046202
2044.74	0.035532
2054.38	0.027652
2064.03	0.021182
2073.67	0.017192
2083.32	0.014342
2092.96	0.011382
2102.61	0.008772
2112.25	0.007282
2121.9	0.006252
2131.54	0.005312
2141.19	0.004862
2150.83	0.004652
2160.48	0.004272
2170.12	0.003762
2179.77	0.003512
2189.41	0.003442
2199.06	0.003292
2208.7	0.003022
2218.35	0.002662
2227.99	0.002432
2237.64	0.002362
2247.28	0.002212
2256.92	0.001902
2266.57	0.001622
2276.21	0.001512
2285.86	0.001562
2295.5	0.001452
2305.15	0.001602
2314.79	0.001592
2324.44	0.001512
2334.08	0.0014033
2343.73	0.0012782
2353.37	0.0012342
2363.02	0.0011958
2372.66	0.0010537
2382.31	0.0009566
2391.95	0.0008358
2401.6	0.0008187
2411.24	0.0007045
2420.89	0.0008181
2430.53	0.0009164
2440.18	0.0009678
2449.82	0.0009252
2459.47	0.00099
2469.11	0.0010085
2478.75	0.0009441
2488.4	0.0009308
2498.04	0.0009051
2507.69	0.0010065
2517.33	0.0010364
2526.98	0.0010306
2536.62	0.0009653
2546.27	0.0009875
2555.91	0.0009076
2565.56	0.000894
2575.2	0.0007875
2584.85	0.0009203
2594.49	0.0009172
2604.14	0.0009832
2613.78	0.0010826
2623.43	0.0010116
2633.07	0.0012366
2642.72	0.001512
2652.36	0.0014129
2662.01	0.001452
2671.65	0.001682
2681.29	0.001822
2690.94	0.001792
2700.58	0.001742
2710.23	0.001512
2719.87	0.0011715
2729.52	0.0010595
2739.16	0.0009174
2748.81	0.0008113
2758.45	0.000829
2768.1	0.0008482
2777.74	0.0005931
2787.39	0.0007765
2797.03	0.0007947
2806.68	0.0007529
2816.32	0.0007411
2825.97	0.0007578
2835.61	0.0008678
2845.26	0.0008079
2854.9	0.000946
2864.55	0.001012
2874.19	0.0011663
2883.84	0.0012322
2893.48	0.001582
2903.12	0.0012273
2912.77	0.0009559
2922.41	0.0008195
2932.06	0.0008164
2941.7	0.0009173
2951.35	0.0008891
2960.99	0.0006593
2970.64	0.00049799
2980.28	0.000431588
2989.93	0.00047581
2999.57	0.0004139
3009.22	0.0005037
3018.86	0.00047849
3028.51	0.00042205
3038.15	0.00046556
3047.8	0.0005614
3057.44	0.0005402
3067.09	0.0007311
3076.73	0.001892
3086.38	0.003682
3096.02	0.002812
3105.67	0.0009249
3115.31	0.00042651
3124.95	0.000241
3134.6	0.000182
3144.24	0.000313
3153.89	0.000178
3163.53	0.000248
3173.18	0.000255
3182.82	0.000306
3192.47	0.000219
3202.11	2.9e-05
3211.76	0.000207
3221.4	0.000163
3231.05	0.000193
3240.69	0.000183
3250.34	0.000165
3259.98	0.000198
3269.63	0.000214
3279.27	0.000126
3288.92	0.000188
3298.56	0.00015
3308.21	0.000274
3317.85	5.4e-05
3327.49	0.000201
3337.14	0.000391
3346.78	0.000191
3356.43	0.000167
3366.07	0.00044656
3375.72	0.000312
3385.36	0.00044845
3395.01	0.000245
3404.65	0.0006061
3414.3	0.0008037
3423.94	0.0007492
3433.59	0.0008313
3443.23	0.0007673
3452.88	0.0006354
3462.52	0.0006313
3472.17	0.0005754
3481.81	0.0005357
3491.46	0.00046965
3501.1	0.0003597
3510.75	0.00050604
3520.39	0.000329
3530.04	0.000439244
3539.68	0.0003602
3549.32	7.8e-05
3558.97	0
3568.61	0.0003851
3578.26	0.000209
3587.9	0.0003746
3597.55	0.00044273
3607.19	0.0003366
3616.84	0.000292
3626.48	0.00028
3636.13	0.00019
3645.77	0.000328
3655.42	0.000207
3665.06	0.00047599
3674.71	0.0003621
3684.35	0.000306
3694	0.000331
3703.64	0.000297
3713.29	0.000322
3722.93	0.00051943
3732.58	0.00049953
3742.22	0.0003325
3751.86	0.0005836
3761.51	0.0005632
3771.15	0.00044648
3780.8	0.00052485
3790.44	0.00050252
3800.09	0.00051762
3809.73	0.00048762
3819.38	0.0006936
3829.02	0.0007589
3838.67	0.0008105
3848.31	0.0008941
3857.96	0.0009268
3867.6	0.0009479
3877.25	0.0009773
3886.89	0.0008066
3896.54	0.0008617
3906.18	0.0010072
3915.83	0.0011835
3925.47	0.0010799
3935.12	0.0011282
3944.76	0.0011568
3954.41	0.0011881
3964.05	0.0009447
3973.69	0.0010432
3983.34	0.0007996
3992.98	0.0009306
