Infrared Spectrum: Aniline, 2-chloro-N-isopropyl-
Formula: C9 H12 Cl N
CAS: 78235-07-1
State: LIQUID (NEAT)
Class: COBLENTZ III
Instrument: BECKMAN IR-4 (HYBRID PRISM-GRATING)
Instrument parameters: NaCl PRISM
Sampling: TRANSMISSION
Path length: CAPILLARY
Resolution: 2
Origin: MONSANTO (J. FREEMAN)
1/CM	TRANSMITTANCE
625	0.5621
634	0.487
643	0.4741
652	0.5082
661	0.4821
670	0.5654
679	0.5965
688	0.4689
697	0.5371
706	0.6493
715	0.6598
724	0.5614
733	0.1766
742	0.1297
751	0.5891
760	0.758
769	0.8288
778	0.8586
787	0.8826
796	0.8929
805	0.883
814	0.8573
823	0.8502
832	0.8423
841	0.9045
850	0.8661
859	0.8611
868	0.9307
877	0.9259
886	0.9299
895	0.9406
904	0.9331
913	0.8084
922	0.7806
931	0.8924
940	0.8635
949	0.9031
958	0.9043
967	0.8962
976	0.8294
985	0.8768
994	0.8913
1003	0.8771
1012	0.7926
1021	0.4767
1030	0.2018
1039	0.6866
1048	0.4853
1057	0.8669
1066	0.8785
1075	0.8768
1084	0.8645
1093	0.836
1102	0.7315
1111	0.4765
1120	0.3835
1129	0.7058
1138	0.6823
1147	0.5004
1156	0.4851
1165	0.3712
1174	0.2044
1183	0.4722
1192	0.7085
1201	0.8276
1210	0.8571
1219	0.8651
1228	0.8454
1237	0.6361
1246	0.4263
1255	0.7963
1264	0.7982
1273	0.7174
1282	0.4012
1291	0.6205
1300	0.6562
1309	0.4588
1318	0.2679
1327	0.2471
1336	0.5394
1345	0.7837
1354	0.7529
1363	0.5006
1372	0.6486
1381	0.4322
1390	0.6385
1399	0.7668
1408	0.709
1417	0.5454
1426	0.4111
1435	0.5854
1444	0.4983
1453	0.3266
1462	0.2581
1471	0.4541
1480	0.5202
1489	0.3525
1498	0.1787
1507	0.1403
1516	0.1666
1525	0.393
1534	0.6167
1543	0.7943
1552	0.8027
1561	0.731
1570	0.631
1579	0.4521
1588	0.1989
1597	0.1711
1606	0.3677
1615	0.5621
1624	0.7544
1633	0.8091
1642	0.8106
1651	0.8092
1660	0.8187
1669	0.8498
1678	0.884
1687	0.9096
1696	0.9179
1705	0.9223
1714	0.9299
1723	0.9361
1732	0.9301
1741	0.9196
1750	0.9101
1759	0.9099
1768	0.9201
1777	0.9294
1786	0.9283
1795	0.9329
1804	0.9442
1813	0.9484
1822	0.9403
1831	0.9247
1840	0.9176
1849	0.9227
1858	0.9288
1867	0.9182
1876	0.9039
1885	0.9147
1894	0.9292
1903	0.9266
1912	0.9179
1921	0.9099
1930	0.9238
1939	0.9394
1948	0.9465
1957	0.9473
1966	0.9459
1975	0.9447
1984	0.9461
1993	0.9479
2002	0.95
2011	0.953
2020	0.9539
2029	0.9546
2038	0.9548
2047	0.9544
2056	0.9537
2065	0.9531
2074	0.9521
2083	0.951
2092	0.9499
2101	0.9485
2110	0.9469
2119	0.9451
2128	0.9413
2137	0.9399
2146	0.9399
2155	0.9412
2164	0.9428
2173	0.9437
2182	0.9437
2191	0.943
2200	0.9424
2209	0.942
2218	0.9417
2227	0.9414
2236	0.9406
2245	0.9394
2254	0.938
2263	0.9359
2272	0.9335
2281	0.9311
2290	0.9287
2299	0.9263
2308	0.9239
2317	0.9209
2326	0.918
2335	0.9152
2344	0.9141
2353	0.9145
2362	0.9166
2371	0.9187
2380	0.9208
2389	0.9224
2398	0.9237
2407	0.9248
2416	0.9257
2425	0.9259
2434	0.9258
2443	0.9256
2452	0.9251
2461	0.9246
2470	0.9231
2479	0.9214
2488	0.9197
2497	0.9172
2506	0.9142
2515	0.911
2524	0.9076
2533	0.9046
2542	0.9025
2551	0.8986
2560	0.8968
2569	0.8979
2578	0.8987
2587	0.8989
2596	0.8978
2605	0.8937
2614	0.8877
2623	0.8845
2632	0.8871
2641	0.8908
2650	0.8942
2659	0.898
2668	0.9012
2677	0.9042
2686	0.9068
2695	0.9085
2704	0.9088
2713	0.9081
2722	0.9062
2731	0.9033
2740	0.8997
2749	0.8961
2758	0.8937
2767	0.8927
2776	0.8918
2785	0.8904
2794	0.8869
2803	0.8785
2812	0.8683
2821	0.8564
2830	0.844
2839	0.8321
2848	0.8191
2857	0.8005
2866	0.7796
2875	0.5979
2884	0.5915
2893	0.586
2902	0.5686
2911	0.5273
2920	0.5119
2929	0.5143
2938	0.5158
2947	0.5135
2956	0.4866
2965	0.3333
2974	0.3885
2983	0.5215
2992	0.6536
3001	0.7181
3010	0.7293
3019	0.7372
3028	0.7396
3037	0.7396
3046	0.7335
3055	0.7239
3064	0.7144
3073	0.7048
3082	0.6962
3091	0.7203
3100	0.8121
3109	0.8417
3118	0.8521
3127	0.8582
3136	0.8632
3145	0.8674
3154	0.8705
3163	0.8726
3172	0.874
3181	0.8747
3190	0.8751
3199	0.8755
3208	0.8756
3217	0.8756
3226	0.8755
3235	0.8753
3244	0.8751
3253	0.8749
3262	0.8743
3271	0.8738
3280	0.873
3289	0.8715
3298	0.87
3307	0.8675
3316	0.8646
3325	0.861
3334	0.8552
3343	0.8446
3352	0.7957
3361	0.7436
3370	0.6919
3379	0.6404
3388	0.5892
3397	0.5388
3406	0.523
3415	0.5357
3424	0.5728
3433	0.6102
3442	0.6474
3451	0.6843
3460	0.7211
3469	0.7577
3478	0.7981
3487	0.8384
3496	0.8466
3505	0.8499
3514	0.8528
3523	0.855
3532	0.8569
3541	0.8585
3550	0.859
3559	0.8595
3568	0.8597
3577	0.8598
3586	0.8598
3595	0.8603
3604	0.8609
3613	0.8619
3622	0.8644
3631	0.868
3640	0.8711
3649	0.8741
3658	0.8757
3667	0.877
3676	0.8782
3685	0.8787
3694	0.8792
3703	0.8796
3712	0.8798
3721	0.8798
3730	0.8798
3739	0.8797
3748	0.8796
3757	0.8793
3766	0.8791
3775	0.8789
3784	0.8783
3793	0.8774
3802	0.8766
3811	0.8757
3820	0.875
3829	0.8741
3838	0.8732
3847	0.8723
3856	0.8714
3865	0.8709
3874	0.8704
3883	0.8699
3892	0.8695
3901	0.8689
3910	0.8685
3919	0.8686
3928	0.8687
3937	0.8688
3946	0.869
3955	0.869
3964	0.8692
3973	0.8693
3982	0.8693
3991	0.8691
4000	0.8689
