Infrared Spectrum: 3'-Trifluoromethylmethacrylanilide
Formula: C 11 H 10 F 3 N O
CAS: 783-05-1
State: gas
Origin: EPA-IR VAPOR PHASE LIBRARY
1/CM	ABSORBANCE
549.8	0.007084
559.445	0.006794
569.09	0.008404
578.734	0.009384
588.379	0.007824
598.024	0.004454
607.669	0.003104
617.313	0.002574
626.958	0.002214
636.603	0.002454
646.248	0.003174
655.893	0.009744
665.537	0.015324
675.182	0.005154
684.827	0.008654
694.472	0.023904
704.116	0.015084
713.761	0.003964
723.406	0.002084
733.051	0.002294
742.695	0.002834
752.34	0.005374
761.985	0.003224
771.63	0.004784
781.275	0.014614
790.919	0.026104
800.564	0.016184
810.209	0.005724
819.854	0.002954
829.498	0.002424
839.143	0.002504
848.788	0.003414
858.433	0.005254
868.078	0.009824
877.722	0.013074
887.367	0.013214
897.012	0.015824
906.657	0.020664
916.301	0.022124
925.946	0.015464
935.591	0.010014
945.236	0.009404
954.88	0.007944
964.525	0.005424
974.17	0.004104
983.815	0.003924
993.46	0.005064
1003.1	0.007764
1012.75	0.007234
1022.39	0.004774
1032.04	0.004704
1041.68	0.004924
1051.33	0.007614
1060.97	0.019294
1070.62	0.044844
1080.26	0.032154
1089.91	0.026284
1099.55	0.036854
1109.2	0.025384
1118.84	0.035094
1128.49	0.075514
1138.13	0.176644
1147.78	0.251464
1157.42	0.137304
1167.07	0.096654
1176.71	0.116334
1186.36	0.078554
1196	0.028484
1205.64	0.017384
1215.29	0.020944
1224.93	0.029244
1234.58	0.027484
1244.22	0.020094
1253.87	0.016044
1263.51	0.020504
1273.16	0.023914
1282.8	0.022614
1292.45	0.030544
1302.09	0.052574
1311.74	0.080894
1321.38	0.127394
1331.03	0.279314
1340.67	0.110334
1350.32	0.026044
1359.96	0.014084
1369.61	0.011274
1379.25	0.013224
1388.9	0.012754
1398.54	0.015134
1408.18	0.022124
1417.83	0.037444
1427.47	0.068294
1437.12	0.105154
1446.76	0.056444
1456.41	0.034474
1466.05	0.031334
1475.7	0.040114
1485.34	0.075604
1494.99	0.082104
1504.63	0.067364
1514.28	0.089524
1523.92	0.109424
1533.57	0.073624
1543.21	0.036304
1552.86	0.022504
1562.5	0.016954
1572.15	0.015764
1581.79	0.018184
1591.44	0.023584
1601.08	0.028934
1610.73	0.027104
1620.37	0.025744
1630.01	0.019074
1639.66	0.015694
1649.3	0.010044
1658.95	0.008254
1668.59	0.008804
1678.24	0.011544
1687.88	0.016824
1697.53	0.032384
1707.17	0.077674
1716.82	0.087074
1726.46	0.036204
1736.11	0.016874
1745.75	0.010864
1755.4	0.007884
1765.04	0.005844
1774.69	0.004504
1784.33	0.003474
1793.98	0.002874
1803.62	0.002664
1813.27	0.002664
1822.91	0.002564
1832.55	0.002654
1842.2	0.002404
1851.84	0.002334
1861.49	0.002114
1871.13	0.001974
1880.78	0.002344
1890.42	0.002254
1900.07	0.001724
1909.71	0.001454
1919.36	0.001574
1929	0.001874
1938.65	0.001774
1948.29	0.001624
1957.94	0.0013208
1967.58	0.0009558
1977.23	0.0008571
1986.87	0.0008786
1996.52	0.000894
2006.16	0.0008102
2015.81	0.0008278
2025.45	0.0008753
2035.1	0.0008705
2044.74	0.0009287
2054.38	0.0008406
2064.03	0.0009226
2073.67	0.0010232
2083.32	0.0013306
2092.96	0.0013281
2102.61	0.0011567
2112.25	0.0009529
2121.9	0.0008334
2131.54	0.0006962
2141.19	0.0008904
2150.83	0.0008176
2160.48	0.0007985
2170.12	0.0008958
2179.77	0.0009457
2189.41	0.0008622
2199.06	0.0008779
2208.7	0.0008874
2218.35	0.0008662
2227.99	0.0008889
2237.64	0.0008233
2247.28	0.001015
2256.92	0.0010688
2266.57	0.0012302
2276.21	0.0013325
2285.86	0.0012334
2295.5	0.0010674
2305.15	0.0011055
2314.79	0.0010305
2324.44	0.0010811
2334.08	0.0011388
2343.73	0.0012567
2353.37	0.0010873
2363.02	0.0010129
2372.66	0.0010089
2382.31	0.0010207
2391.95	0.0009955
2401.6	0.0010791
2411.24	0.0009398
2420.89	0.0009187
2430.53	0.0008384
2440.18	0.0008129
2449.82	0.0007119
2459.47	0.0008261
2469.11	0.0008726
2478.75	0.0009111
2488.4	0.0010869
2498.04	0.0009742
2507.69	0.0010346
2517.33	0.0009679
2526.98	0.0008148
2536.62	0.000816
2546.27	0.0008283
2555.91	0.0007901
2565.56	0.0008981
2575.2	0.0007758
2584.85	0.0007583
2594.49	0.0007368
2604.14	0.0007493
2613.78	0.0007425
2623.43	0.0005845
2633.07	0.0007936
2642.72	0.0008552
2652.36	0.0010297
2662.01	0.0010802
2671.65	0.0008504
2681.29	0.0007171
2690.94	0.0005639
2700.58	0.0006339
2710.23	0.0005136
2719.87	0.0006284
2729.52	0.0006172
2739.16	0.0008322
2748.81	0.0007733
2758.45	0.0008531
2768.1	0.0005764
2777.74	0.0005532
2787.39	0.0004894
2797.03	0.0006045
2806.68	0.0006792
2816.32	0.0007432
2825.97	0.0007602
2835.61	0.0011443
2845.26	0.001354
2854.9	0.001814
2864.55	0.002114
2874.19	0.002374
2883.84	0.002594
2893.48	0.002634
2903.12	0.003054
2912.77	0.003524
2922.41	0.004334
2932.06	0.006464
2941.7	0.007114
2951.35	0.005164
2960.99	0.005024
2970.64	0.005874
2980.28	0.008144
2989.93	0.009274
2999.57	0.006204
3009.22	0.004354
3018.86	0.004184
3028.51	0.004444
3038.15	0.004544
3047.8	0.005104
3057.44	0.004964
3067.09	0.005324
3076.73	0.006714
3086.38	0.013454
3096.02	0.007984
3105.67	0.004324
3115.31	0.003064
3124.95	0.002404
3134.6	0.001694
3144.24	0.0013349
3153.89	0.0010464
3163.53	0.000879
3173.18	0.0006934
3182.82	0.0007012
3192.47	0.0005035
3202.11	0.0005473
3211.76	0.0006755
3221.4	0.00041756
3231.05	0.0005223
3240.69	0.0004725
3250.34	0.00037617
3259.98	0.000208
3269.63	0.00044448
3279.27	0.0003148
3288.92	0.0004459
3298.56	0.000213
3308.21	0.0002956
3317.85	0.0004968
3327.49	0.0005479
3337.14	0.0006613
3346.78	0.0005566
3356.43	0.0006164
3366.07	0.0005812
3375.72	0.0004945
3385.36	0.0006838
3395.01	0.0012685
3404.65	0.002034
3414.3	0.002414
3423.94	0.001844
3433.59	0.002374
3443.23	0.003664
3452.88	0.006754
3462.52	0.011214
3472.17	0.008894
3481.81	0.003714
3491.46	0.001824
3501.1	0.0009753
3510.75	0.0007664
3520.39	0.0004827
3530.04	0.0004746
3539.68	0.000469
3549.32	0.0002648
3558.97	0.0004447
3568.61	0.0002631
3578.26	0.0002821
3587.9	0.000177
3597.55	0.0002763
3607.19	0.0003232
3616.84	0.000176
3626.48	0.000239
3636.13	0.00040031
3645.77	0.000219
3655.42	0.000164
3665.06	0.0002662
3674.71	0.0002818
3684.35	0.00042849
3694	0.00036258
3703.64	0.0002972
3713.29	0.0002746
3722.93	0.000249
3732.58	0.00039604
3742.22	0.000225
3751.86	0.00037777
3761.51	0.00021
3771.15	0.000149
3780.8	0.0002995
3790.44	0.000114
3800.09	0.000172
3809.73	0.000243
3819.38	0.00039298
3829.02	0.0003083
3838.67	0.00016
3848.31	0.000406
3857.96	0.000219
3867.6	0
3877.25	0.0002684
3886.89	0.0004585
3896.54	0.000302
3906.18	0.0002983
3915.83	0.000212
3925.47	0.0003347
3935.12	0.0004343
3944.76	0.0005286
3954.41	0.0003521
3964.05	0.0005873
3973.69	0.0005126
3983.34	0.00038307
3992.98	0.0006202
