Infrared Spectrum: Nicotinonitrile, 2-chloro-6-methyl-5-nitro-4-(trifluoromethyl)-
Formula: C8 H3 Cl F3 N3 O2
CAS: 783-95-9
State: SOLID (1 mg / 650 mg KBr DISC)
Class: COBLENTZ III
Instrument: PERKIN-ELMER 221 (GRATING)
Instrument parameters: FILTER AT 980 CM^-^1. GRATING 4000-1428 CM^-^1, NaCl PRISM 1428-650 CM^-^1
Resolution: 2
Origin: SOUTHERN RESEARCH INSTITUTE
1/CM	TRANSMITTANCE
629.896	0.5579
638.917	0.6486
647.939	0.7536
656.96	0.7399
665.982	0.6959
675.003	0.7674
684.025	0.7365
693.046	0.5742
702.067	0.3195
711.089	0.803
720.11	0.8171
729.132	0.8108
738.153	0.7958
747.175	0.7801
756.196	0.7482
765.218	0.6974
774.239	0.5712
783.26	0.2805
792.282	0.5721
801.303	0.8404
810.325	0.8253
819.346	0.7748
828.368	0.6752
837.389	0.8148
846.41	0.8279
855.432	0.822
864.453	0.8051
873.475	0.7595
882.496	0.645
891.518	0.8002
900.539	0.7976
909.561	0.7928
918.582	0.7867
927.603	0.7761
936.625	0.7628
945.646	0.7424
954.668	0.7072
963.689	0.6623
972.711	0.5816
981.732	0.434
990.753	0.641
999.775	0.6951
1008.8	0.6787
1017.82	0.6445
1026.84	0.6514
1035.86	0.6875
1044.88	0.6848
1053.9	0.6727
1062.92	0.6533
1071.95	0.6318
1080.97	0.6104
1089.99	0.5847
1099.01	0.5548
1108.03	0.5152
1117.05	0.4574
1126.08	0.3728
1135.1	0.3964
1144.12	0.3534
1153.14	0.281
1162.16	0.217
1171.18	0.2411
1180.2	0.3069
1189.23	0.2547
1198.25	0.2833
1207.27	0.3742
1216.29	0.3908
1225.31	0.3277
1234.33	0.5283
1243.35	0.6049
1252.38	0.5986
1261.4	0.5221
1270.42	0.3797
1279.44	0.2022
1288.46	0.2686
1297.48	0.4421
1306.5	0.5375
1315.53	0.592
1324.55	0.6037
1333.57	0.4941
1342.59	0.3891
1351.61	0.3112
1360.63	0.3943
1369.65	0.4929
1378.68	0.4155
1387.7	0.3829
1396.72	0.3767
1405.74	0.3752
1414.76	0.5347
1423.78	0.5603
1432.8	0.6317
1441.83	0.6638
1450.85	0.6686
1459.87	0.6852
1468.89	0.6973
1477.91	0.6887
1486.93	0.667
1495.95	0.6367
1504.98	0.5848
1514	0.5001
1523.02	0.4153
1532.04	0.3307
1541.06	0.2716
1550.08	0.2191
1559.1	0.2739
1568.13	0.3907
1577.15	0.3803
1586.17	0.3465
1595.19	0.4596
1604.21	0.5308
1613.23	0.5607
1622.25	0.5758
1631.28	0.6088
1640.3	0.6402
1649.32	0.6714
1658.34	0.6961
1667.36	0.724
1676.38	0.7415
1685.4	0.7561
1694.43	0.7675
1703.45	0.7774
1712.47	0.785
1721.49	0.797
1730.51	0.7999
1739.53	0.8057
1748.55	0.8166
1757.58	0.8214
1766.6	0.8216
1775.62	0.8217
1784.64	0.8223
1793.66	0.8298
1802.68	0.8362
1811.7	0.8392
1820.73	0.8409
1829.75	0.8419
1838.77	0.8428
1847.79	0.8436
1856.81	0.8432
1865.83	0.843
1874.85	0.8438
1883.88	0.8497
1892.9	0.8491
1901.92	0.8493
1910.94	0.8498
1919.96	0.8503
1928.98	0.8509
1938	0.8511
1947.03	0.85
1956.05	0.8507
1965.07	0.8518
1974.09	0.8518
1983.11	0.8498
1992.13	0.8445
2001.15	0.8415
2010.18	0.8453
2019.2	0.8468
2028.22	0.8475
2037.24	0.8474
2046.26	0.8472
2055.28	0.8469
2064.3	0.8474
2073.33	0.848
2082.35	0.8487
2091.37	0.8513
2100.39	0.8553
2109.41	0.8559
2118.43	0.8537
2127.45	0.8526
2136.48	0.8526
2145.5	0.8553
2154.52	0.8598
2163.54	0.8578
2172.56	0.8565
2181.58	0.8552
2190.6	0.8553
2199.63	0.8555
2208.65	0.8567
2217.67	0.8552
2226.69	0.8537
2235.71	0.839
2244.73	0.7349
2253.75	0.8094
2262.78	0.8434
2271.8	0.8483
2280.82	0.851
2289.84	0.8484
2298.86	0.8427
2307.88	0.842
2316.9	0.8518
2325.93	0.8409
2334.95	0.8317
2343.97	0.831
2352.99	0.8324
2362.01	0.8313
2371.03	0.825
2380.05	0.8259
2389.08	0.828
2398.1	0.8334
2407.12	0.8373
2416.14	0.8359
2425.16	0.835
2434.18	0.8365
2443.2	0.8386
2452.23	0.8398
2461.25	0.8395
2470.27	0.8448
2479.29	0.849
2488.31	0.8408
2497.33	0.8462
2506.35	0.8434
2515.38	0.839
2524.4	0.8396
2533.42	0.8396
2542.44	0.8399
2551.46	0.8404
2560.48	0.8406
2569.5	0.8416
2578.53	0.8419
2587.55	0.8452
2596.57	0.8459
2605.59	0.846
2614.61	0.8455
2623.63	0.8437
2632.65	0.8392
2641.68	0.8412
2650.7	0.8432
2659.72	0.8429
2668.74	0.8411
2677.76	0.8378
2686.78	0.8346
2695.81	0.8311
2704.83	0.83
2713.85	0.8327
2722.87	0.8355
2731.89	0.8372
2740.91	0.837
2749.93	0.8355
2758.96	0.8326
2767.98	0.8296
2777	0.8288
2786.02	0.8289
2795.04	0.8296
2804.06	0.8304
2813.08	0.8304
2822.11	0.8299
2831.13	0.8264
2840.15	0.82
2849.17	0.8137
2858.19	0.8105
2867.21	0.8075
2876.23	0.8017
2885.26	0.787
2894.28	0.7585
2903.3	0.754
2912.32	0.7652
2921.34	0.7716
2930.36	0.774
2939.38	0.7782
2948.41	0.7941
2957.43	0.8065
2966.45	0.8167
2975.47	0.8207
2984.49	0.826
2993.51	0.8302
3002.53	0.8328
3011.56	0.8336
3020.58	0.8341
3029.6	0.8339
3038.62	0.8327
3047.64	0.8305
3056.66	0.8313
3065.68	0.8325
3074.71	0.8286
3083.73	0.8277
3092.75	0.8291
3101.77	0.8313
3110.79	0.8301
3119.81	0.8275
3128.83	0.8249
3137.86	0.8259
3146.88	0.8234
3155.9	0.8168
3164.92	0.8153
3173.94	0.8167
3182.96	0.8248
3191.98	0.8225
3201.01	0.8165
3210.03	0.8109
3219.05	0.81
3228.07	0.8065
3237.09	0.803
3246.11	0.7998
3255.13	0.7971
3264.16	0.7958
3273.18	0.792
3282.2	0.7883
3291.22	0.7848
3300.24	0.7827
3309.26	0.7785
3318.28	0.7695
3327.31	0.7584
3336.33	0.7469
3345.35	0.7342
3354.37	0.7236
3363.39	0.7145
3372.41	0.7062
3381.43	0.6936
3390.46	0.6805
3399.48	0.6749
3408.5	0.6697
3417.52	0.6655
3426.54	0.663
3435.56	0.6636
3444.58	0.6657
3453.61	0.6715
3462.63	0.6771
3471.65	0.6851
3480.67	0.6939
3489.69	0.7034
3498.71	0.7121
3507.73	0.7186
3516.76	0.7236
3525.78	0.727
3534.8	0.7298
3543.82	0.7314
3552.84	0.7513
3561.86	0.7599
3570.88	0.7675
3579.91	0.7734
3588.93	0.7795
3597.95	0.7905
3606.97	0.8016
3615.99	0.8099
3625.01	0.8161
3634.03	0.8237
3643.06	0.8329
3652.08	0.8365
3661.1	0.8374
3670.12	0.8398
3679.14	0.8429
3688.16	0.8444
3697.18	0.8484
3706.21	0.8525
3715.23	0.8561
3724.25	0.8567
3733.27	0.8568
3742.29	0.8566
3751.31	0.8563
3760.33	0.8562
3769.36	0.8563
3778.38	0.8565
3787.4	0.8566
3796.42	0.8574
3805.44	0.8633
3814.46	0.8555
3823.48	0.8544
3832.51	0.8534
3841.53	0.853
3850.55	0.8531
3859.57	0.8534
3868.59	0.8539
3877.61	0.8544
3886.63	0.855
3895.66	0.8549
3904.68	0.8545
3913.7	0.8541
3922.72	0.8538
3931.74	0.8542
3940.76	0.8539
3949.78	0.8517
3958.81	0.8493
3967.83	0.8485
3976.85	0.8508
3985.87	0.8552
3994.89	0.8483
4003.91	0.8544
