Infrared Spectrum: N-[2-Amino-4-(trifluoromethyl)phenyl]morpholine
Formula: C 11 H 13 F 3 N 2 O
CAS: 784-57-6
State: gas
Origin: EPA-IR VAPOR PHASE LIBRARY
1/CM	ABSORBANCE
549.8	0.012081
559.445	0.009861
569.09	0.011831
578.734	0.013161
588.379	0.013451
598.024	0.013331
607.669	0.012801
617.313	0.012231
626.958	0.012631
636.603	0.012021
646.248	0.014341
655.893	0.031671
665.537	0.025781
675.182	0.015981
684.827	0.011791
694.472	0.011821
704.116	0.010121
713.761	0.009331
723.406	0.011601
733.051	0.015041
742.695	0.015971
752.34	0.015201
761.985	0.007881
771.63	0.007411
781.275	0.008361
790.919	0.009491
800.564	0.012481
810.209	0.021871
819.854	0.016451
829.498	0.010811
839.143	0.010371
848.788	0.013711
858.433	0.019821
868.078	0.028531
877.722	0.024351
887.367	0.034351
897.012	0.077811
906.657	0.036971
916.301	0.021651
925.946	0.017571
935.591	0.018291
945.236	0.019061
954.88	0.010781
964.525	0.006771
974.17	0.005801
983.815	0.005571
993.46	0.004761
1003.1	0.005201
1012.75	0.006911
1022.39	0.007841
1032.04	0.010281
1041.68	0.013181
1051.33	0.018121
1060.97	0.029011
1070.62	0.033571
1080.26	0.029731
1089.91	0.042011
1099.55	0.051011
1109.2	0.063361
1118.84	0.110941
1128.49	0.159801
1138.13	0.237811
1147.78	0.201421
1157.42	0.100371
1167.07	0.154011
1176.71	0.136351
1186.36	0.062551
1196	0.048601
1205.64	0.086161
1215.29	0.111511
1224.93	0.072871
1234.58	0.037851
1244.22	0.049201
1253.87	0.064351
1263.51	0.046181
1273.16	0.027151
1282.8	0.030951
1292.45	0.040781
1302.09	0.034021
1311.74	0.038311
1321.38	0.087211
1331.03	0.274511
1340.67	0.217071
1350.32	0.058331
1359.96	0.036341
1369.61	0.036421
1379.25	0.023101
1388.9	0.013121
1398.54	0.011221
1408.18	0.012871
1417.83	0.019201
1427.47	0.040101
1437.12	0.074411
1446.76	0.059221
1456.41	0.036921
1466.05	0.017481
1475.7	0.010101
1485.34	0.007611
1494.99	0.009001
1504.63	0.019021
1514.28	0.033661
1523.92	0.017581
1533.57	0.011841
1543.21	0.008581
1552.86	0.008031
1562.5	0.009801
1572.15	0.014071
1581.79	0.021101
1591.44	0.033621
1601.08	0.040391
1610.73	0.045261
1620.37	0.043781
1630.01	0.026191
1639.66	0.014221
1649.3	0.009251
1658.95	0.006191
1668.59	0.005431
1678.24	0.004861
1687.88	0.004181
1697.53	0.003391
1707.17	0.003161
1716.82	0.003591
1726.46	0.004661
1736.11	0.005241
1745.75	0.004701
1755.4	0.003231
1765.04	0.002881
1774.69	0.002511
1784.33	0.002281
1793.98	0.002451
1803.62	0.002211
1813.27	0.002351
1822.91	0.002491
1832.55	0.002441
1842.2	0.002721
1851.84	0.002791
1861.49	0.003141
1871.13	0.003121
1880.78	0.002551
1890.42	0.002331
1900.07	0.002081
1909.71	0.002341
1919.36	0.002241
1929	0.002011
1938.65	0.002301
1948.29	0.002591
1957.94	0.002951
1967.58	0.002991
1977.23	0.002871
1986.87	0.002151
1996.52	0.001831
2006.16	0.002181
2015.81	0.001881
2025.45	0.001801
2035.1	0.002131
2044.74	0.002171
2054.38	0.002101
2064.03	0.002421
2073.67	0.002461
2083.32	0.002301
2092.96	0.002231
2102.61	0.002131
2112.25	0.001771
2121.9	0.001601
2131.54	0.001701
2141.19	0.001971
2150.83	0.001801
2160.48	0.001511
2170.12	0.001531
2179.77	0.001841
2189.41	0.002171
2199.06	0.001721
2208.7	0.002201
2218.35	0.001871
2227.99	0.002141
2237.64	0.002471
2247.28	0.002201
2256.92	0.002571
2266.57	0.002501
2276.21	0.002471
2285.86	0.002341
2295.5	0.001931
2305.15	0.002311
2314.79	0.002181
2324.44	0.001861
2334.08	0.002331
2343.73	0.002141
2353.37	0.001941
2363.02	0.001881
2372.66	0.001851
2382.31	0.0012772
2391.95	0.001801
2401.6	0.001801
2411.24	0.001831
2420.89	0.002001
2430.53	0.002031
2440.18	0.001671
2449.82	0.001591
2459.47	0.001741
2469.11	0.001831
2478.75	0.002101
2488.4	0.001831
2498.04	0.001821
2507.69	0.001811
2517.33	0.001681
2526.98	0.002201
2536.62	0.002181
2546.27	0.002401
2555.91	0.002531
2565.56	0.002421
2575.2	0.002151
2584.85	0.002071
2594.49	0.002021
2604.14	0.002141
2613.78	0.002791
2623.43	0.002621
2633.07	0.002391
2642.72	0.003131
2652.36	0.003081
2662.01	0.003731
2671.65	0.004341
2681.29	0.004891
2690.94	0.005391
2700.58	0.004221
2710.23	0.004371
2719.87	0.004451
2729.52	0.005441
2739.16	0.005971
2748.81	0.005921
2758.45	0.006491
2768.1	0.005741
2777.74	0.005471
2787.39	0.005661
2797.03	0.006271
2806.68	0.008851
2816.32	0.015021
2825.97	0.032241
2835.61	0.049281
2845.26	0.045371
2854.9	0.057281
2864.55	0.047981
2874.19	0.023251
2883.84	0.019041
2893.48	0.022371
2903.12	0.023581
2912.77	0.021591
2922.41	0.017991
2932.06	0.014201
2941.7	0.015041
2951.35	0.025241
2960.99	0.039511
2970.64	0.069501
2980.28	0.036351
2989.93	0.008611
2999.57	0.004481
3009.22	0.003851
3018.86	0.003351
3028.51	0.003631
3038.15	0.004341
3047.8	0.005391
3057.44	0.004821
3067.09	0.004211
3076.73	0.003591
3086.38	0.003411
3096.02	0.003591
3105.67	0.002831
3115.31	0.001851
3124.95	0.0014138
3134.6	0.001881
3144.24	0.001611
3153.89	0.001541
3163.53	0.0010359
3173.18	0.001671
3182.82	0.0010066
3192.47	0.002191
3202.11	0.001871
3211.76	0.0011884
3221.4	0.0014755
3231.05	0.0015002
3240.69	0.001761
3250.34	0.0010343
3259.98	0.0009208
3269.63	0.0007863
3279.27	0.0010469
3288.92	0.0010784
3298.56	0.0008461
3308.21	0.0013985
3317.85	0.001611
3327.49	0.001424
3337.14	0.001701
3346.78	0.001741
3356.43	0.002961
3366.07	0.006201
3375.72	0.012111
3385.36	0.010361
3395.01	0.006011
3404.65	0.004101
3414.3	0.003221
3423.94	0.002601
3433.59	0.002171
3443.23	0.002221
3452.88	0.003411
3462.52	0.005201
3472.17	0.009421
3481.81	0.014101
3491.46	0.011291
3501.1	0.006361
3510.75	0.004611
3520.39	0.003501
3530.04	0.003671
3539.68	0.001931
3549.32	0.0013157
3558.97	0.0013184
3568.61	0.0012327
3578.26	0.0014962
3587.9	0.001136
3597.55	0.0008695
3607.19	0.0008848
3616.84	0.0011709
3626.48	0.0009143
3636.13	0.0014433
3645.77	0.0011853
3655.42	0.000325
3665.06	0.0007521
3674.71	0.0008601
3684.35	0.0010453
3694	0.0013174
3703.64	0.0010844
3713.29	0.0014807
3722.93	0.0011028
3732.58	0.001851
3742.22	0.001751
3751.86	0.000868
3761.51	0.0013833
3771.15	0.0008247
3780.8	2.9e-05
3790.44	0.0011751
3800.09	0.0009753
3809.73	0.001631
3819.38	0.0006939
3829.02	0.001511
3838.67	0.0011074
3848.31	0.0007055
3857.96	0.0012804
3867.6	0.0010793
3877.25	0.001541
3886.89	0.0014114
3896.54	0.0014846
3906.18	0.0008497
3915.83	0.0012271
3925.47	0.001811
3935.12	0.001315
3944.76	0.0011614
3954.41	0.002061
3964.05	0.002001
3973.69	0.002331
3983.34	0.0011398
3992.98	0.001711
