Infrared Spectrum: 9-Fluorenone-2-carboxylic acid
Formula: C 14 H 8 O 3
CAS: 784-50-9
State: gas
Origin: EPA-IR VAPOR PHASE LIBRARY
1/CM	ABSORBANCE
501.5	3.9e-05
513.074	0.000217
524.648	0.0006571
536.222	0.0009452
547.796	0.0008444
559.37	0.0011147
570.944	0.0014885
582.518	0.00217
594.092	0.002
605.666	0.0012448
617.24	0.00205
628.814	0.00236
640.388	0.0013284
651.962	0.00341
663.536	0.00318
675.11	0.0021
686.684	0.0022
698.258	0.0016314
709.832	0.0009159
721.406	0.0015987
732.98	0.00676
744.554	0.00691
756.128	0.00383
767.702	0.0017083
779.276	0.0011382
790.85	0.0009753
802.423	0.0010764
813.997	0.0010537
825.571	0.0013735
837.145	0.0014134
848.719	0.0010019
860.293	0.000671
871.867	0.0006564
883.441	0.000659
895.015	0.000567
906.589	0.000745414
918.163	0.0007974
929.737	0.0012906
941.311	0.00221
952.885	0.00243
964.459	0.0011408
976.033	0.00091
987.607	0.0009691
999.181	0.0008782
1010.76	0.0009407
1022.33	0.000576
1033.9	0.0008952
1045.48	0.0009952
1057.05	0.00215
1068.63	0.00516
1080.2	0.00386
1091.77	0.00423
1103.35	0.00765
1114.92	0.01407
1126.49	0.00755
1138.07	0.00277
1149.64	0.00229
1161.22	0.00335
1172.79	0.00412
1184.36	0.00385
1195.94	0.00418
1207.51	0.00318
1219.09	0.00192
1230.66	0.0019
1242.23	0.00275
1253.81	0.00333
1265.38	0.0019
1276.96	0.00213
1288.53	0.00247
1300.1	0.00437
1311.68	0.00351
1323.25	0.00317
1334.83	0.00271
1346.4	0.00246
1357.97	0.00253
1369.55	0.00193
1381.12	0.0014965
1392.7	0.0014189
1404.27	0.00189
1415.84	0.00332
1427.42	0.00252
1438.99	0.00184
1450.57	0.00262
1462.14	0.0026
1473.71	0.00246
1485.29	0.001613
1496.86	0.001071
1508.44	0.0010252
1520.01	0.0009887
1531.58	0.0010321
1543.16	0.0011242
1554.73	0.001546
1566.31	0.00302
1577.88	0.00352
1589.45	0.00318
1601.03	0.0049
1612.6	0.00411
1624.18	0.00188
1635.75	0.0014521
1647.32	0.0013657
1658.9	0.0012304
1670.47	0.0014015
1682.05	0.0016487
1693.62	0.00201
1705.19	0.00274
1716.77	0.00546
1728.34	0.01777
1739.92	0.01786
1751.49	0.01104
1763.06	0.01644
1774.64	0.00596
1786.21	0.00462
1797.79	0.0033
1809.36	0.00185
1820.93	0.0013653
1832.51	0.0012536
1844.08	0.0011884
1855.66	0.0011422
1867.23	0.0011659
1878.8	0.0011034
1890.38	0.0011299
1901.95	0.001203
1913.53	0.0011798
1925.1	0.0011157
1936.67	0.0011547
1948.25	0.0012145
1959.82	0.001206
1971.4	0.0010629
1982.97	0.001038
1994.54	0.0009481
2006.12	0.000989
2017.69	0.0010029
2029.27	0.0010161
2040.84	0.0009793
2052.41	0.0010074
2063.99	0.0009797
2075.56	0.0010042
2087.14	0.0010033
2098.71	0.0010163
2110.28	0.0009844
2121.86	0.0010241
2133.43	0.0009907
2145.01	0.0010082
2156.58	0.0010111
2168.15	0.0009893
2179.73	0.0009992
2191.3	0.0010316
2202.88	0.0010057
2214.45	0.0010397
2226.02	0.0010473
2237.6	0.0010655
2249.17	0.0011456
2260.74	0.0011175
2272.32	0.0011207
2283.89	0.0011315
2295.47	0.0011311
2307.04	0.0011288
2318.61	0.0012337
2330.19	0.0011572
2341.76	0.0012062
2353.34	0.001177
2364.91	0.001251
2376.48	0.0011765
2388.06	0.0011335
2399.63	0.0011331
2411.21	0.0011517
2422.78	0.001205
2434.35	0.0011354
2445.93	0.0011466
2457.5	0.0011346
2469.08	0.0011532
2480.65	0.0011643
2492.22	0.0011763
2503.8	0.0011823
2515.37	0.0011935
2526.95	0.0011836
2538.52	0.0011886
2550.09	0.0011872
2561.67	0.0012724
2573.24	0.001253
2584.82	0.0011868
2596.39	0.001232
2607.96	0.0012032
2619.54	0.0012021
2631.11	0.0012217
2642.69	0.0012936
2654.26	0.0011894
2665.83	0.0012848
2677.41	0.0012821
2688.98	0.0012889
2700.56	0.0012825
2712.13	0.0012802
2723.7	0.0012483
2735.28	0.001249
2746.85	0.0012848
2758.43	0.0012415
2770	0.0013285
2781.57	0.001346
2793.15	0.0013217
2804.72	0.0012279
2816.3	0.0012874
2827.87	0.0013411
2839.44	0.0013624
2851.02	0.0013961
2862.59	0.0014107
2874.17	0.001439
2885.74	0.0013824
2897.31	0.0012888
2908.89	0.0014217
2920.46	0.0014026
2932.04	0.0014867
2943.61	0.0013877
2955.18	0.0013941
2966.76	0.001353
2978.33	0.001389
2989.91	0.001395
3001.48	0.0014678
3013.05	0.0015285
3024.63	0.0016944
3036.2	0.001699
3047.78	0.00182
3059.35	0.0023
3070.92	0.00304
3082.5	0.00359
3094.07	0.00209
3105.65	0.0015978
3117.22	0.0016169
3128.79	0.001645
3140.37	0.0014748
3151.94	0.0015316
3163.52	0.0015023
3175.09	0.0014241
3186.66	0.001525
3198.24	0.0014506
3209.81	0.0015341
3221.39	0.0013945
3232.96	0.00134
3244.53	0.0013921
3256.11	0.001441
3267.68	0.001429
3279.26	0.0014569
3290.83	0.0014906
3302.4	0.0014279
3313.98	0.0014263
3325.55	0.0014489
3337.13	0.001528
3348.7	0.0013747
3360.27	0.0014308
3371.85	0.0015105
3383.42	0.0015021
3395	0.0013766
3406.57	0.0014819
3418.14	0.001438
3429.72	0.0015115
3441.29	0.0016159
3452.86	0.0018
3464.44	0.0015336
3476.01	0.0014691
3487.59	0.001587
3499.16	0.0015355
3510.73	0.0015987
3522.31	0.0015392
3533.88	0.0016354
3545.46	0.00177
3557.03	0.00303
3568.6	0.00549
3580.18	0.00647
3591.75	0.00242
3603.33	0.0016772
3614.9	0.0016064
3626.47	0.001623
3638.05	0.00165
3649.62	0.0015493
3661.2	0.0014686
3672.77	0.0015839
3684.34	0.0015376
3695.92	0.0015242
3707.49	0.0015333
3719.07	0.0014601
3730.64	0.0014907
3742.21	0.001583
3753.79	0.0016224
3765.36	0.0014751
3776.94	0.001469
3788.51	0.0015249
3800.08	0.0015429
3811.66	0.0015298
3823.23	0.0015954
3834.81	0.0015353
3846.38	0.0015595
3857.95	0.0015186
3869.53	0.001511
3881.1	0.0013777
3892.68	0.0014797
3904.25	0.0016306
3915.82	0.0014984
3927.4	0.0015947
3938.97	0.0015642
3950.55	0.0015677
3962.12	0.0014812
3973.69	0.0015024
3985.27	0.0015548
3996.84	0.00176
