Infrared Spectrum: 4-Amino-3,5-dichlorobenzonitrile
Formula: C 7 H 4 Cl 2 N 2
CAS: 78473-00-4
State: gas
Origin: EPA-IR VAPOR PHASE LIBRARY
1/CM	ABSORBANCE
551.7	0.00804
563.274	0.00564
574.848	0.00537
586.421	0.00594
597.995	0.00965
609.569	0.00915
621.143	0.00603
632.717	0.00581
644.291	0.00554
655.864	0.00606
667.438	0.00729
679.012	0.00908
690.586	0.01179
702.16	0.0182
713.734	0.03005
725.307	0.02812
736.881	0.01879
748.455	0.01525
760.029	0.01343
771.603	0.01507
783.177	0.02214
794.75	0.03688
806.324	0.04138
817.898	0.02309
829.472	0.01284
841.046	0.01026
852.619	0.00915
864.193	0.01163
875.767	0.02582
887.341	0.02171
898.915	0.01233
910.489	0.01203
922.062	0.00861
933.636	0.00614
945.21	0.00519
956.784	0.00509
968.358	0.00488
979.932	0.00463
991.505	0.00441
1003.08	0.0041
1014.65	0.00374
1026.23	0.00367
1037.8	0.00361
1049.37	0.00496
1060.95	0.01562
1072.52	0.03109
1084.1	0.02131
1095.67	0.00923
1107.24	0.00719
1118.82	0.00767
1130.39	0.00554
1141.97	0.00359
1153.54	0.00334
1165.11	0.00508
1176.69	0.00696
1188.26	0.00808
1199.83	0.01592
1211.41	0.02365
1222.98	0.00944
1234.56	0.00645
1246.13	0.00335
1257.7	0.0022
1269.28	0.00293
1280.85	0.00575
1292.42	0.01678
1304	0.02585
1315.57	0.01141
1327.15	0.00432
1338.72	0.00271
1350.29	0.0022
1361.87	0.00242
1373.44	0.00322
1385.02	0.00504
1396.59	0.01152
1408.16	0.01126
1419.74	0.00469
1431.31	0.00591
1442.88	0.01079
1454.46	0.01495
1466.03	0.03973
1477.61	0.08325
1489.18	0.07934
1500.75	0.0302
1512.33	0.0102
1523.9	0.00724
1535.48	0.00961
1547.05	0.02505
1558.62	0.0269
1570.2	0.01345
1581.77	0.01373
1593.34	0.02067
1604.92	0.05459
1616.49	0.10106
1628.07	0.08193
1639.64	0.01988
1651.21	0.00736
1662.79	0.0055
1674.36	0.00516
1685.93	0.00429
1697.51	0.00302
1709.08	0.00262
1720.66	0.00249
1732.23	0.00221
1743.8	0.00269
1755.38	0.00516
1766.95	0.00554
1778.53	0.00289
1790.1	0.00193
1801.67	0.00167
1813.25	0.00164
1824.82	0.00166
1836.39	0.00158
1847.97	0.00153
1859.54	0.00148
1871.12	0.0014
1882.69	0.00127
1894.26	0.00119
1905.84	0.00118
1917.41	0.00116
1928.99	0.0011
1940.56	0.00105
1952.13	0.00109
1963.71	0.00115
1975.28	0.00117
1986.85	0.0012
1998.43	0.00128
2010	0.00138
2021.58	0.00129
2033.15	0.00114
2044.72	0.00106
2056.3	0.0009866
2067.87	0.0009708
2079.44	0.00101
2091.02	0.00105
2102.59	0.00106
2114.17	0.00101
2125.74	0.0009817
2137.31	0.00117
2148.89	0.00127
2160.46	0.00125
2172.04	0.00121
2183.61	0.00134
2195.18	0.00144
2206.76	0.00212
2218.33	0.00548
2229.9	0.01665
2241.48	0.01591
2253.05	0.00342
2264.63	0.00165
2276.2	0.00118
2287.77	0.00112
2299.35	0.00119
2310.92	0.00127
2322.5	0.00117
2334.07	0.00111
2345.64	0.00124
2357.22	0.00126
2368.79	0.00125
2380.36	0.00119
2391.94	0.00117
2403.51	0.00109
2415.09	0.00102
2426.66	0.0009923
2438.23	0.0009301
2449.81	0.0008505
2461.38	0.0008398
2472.96	0.0008789
2484.53	0.0008358
2496.1	0.000821
2507.68	0.0009591
2519.25	0.0013
2530.82	0.002
2542.4	0.00203
2553.97	0.00133
2565.55	0.00119
2577.12	0.00136
2588.69	0.00189
2600.27	0.00262
2611.84	0.00259
2623.41	0.00174
2634.99	0.00134
2646.56	0.00134
2658.14	0.00124
2669.71	0.001
2681.28	0.000885
2692.86	0.0009065
2704.43	0.0008571
2716.01	0.0006973
2727.58	0.0006739
2739.15	0.00065
2750.73	0.0007326
2762.3	0.0008084
2773.87	0.0009405
2785.45	0.0009383
2797.02	0.0007764
2808.6	0.0006604
2820.17	0.0006255
2831.74	0.0007458
2843.32	0.0008207
2854.89	0.0008055
2866.47	0.0007077
2878.04	0.0006775
2889.61	0.0008094
2901.19	0.0009872
2912.76	0.00119
2924.33	0.00114
2935.91	0.0009034
2947.48	0.0007904
2959.06	0.0007227
2970.63	0.0006504
2982.2	0.0006309
2993.78	0.0006382
3005.35	0.0006463
3016.92	0.0007723
3028.5	0.0008135
3040.07	0.0008531
3051.65	0.000882
3063.22	0.0009536
3074.79	0.0011
3086.37	0.00126
3097.94	0.00158
3109.52	0.00198
3121.09	0.00166
3132.66	0.00125
3144.24	0.0011
3155.81	0.00109
3167.38	0.00122
3178.96	0.0015
3190.53	0.00162
3202.11	0.00132
3213.68	0.0009602
3225.25	0.0008068
3236.83	0.0006746
3248.4	0.0007552
3259.98	0.000746
3271.55	0.0006474
3283.12	0.0006816
3294.7	0.0007019
3306.27	0.0007906
3317.84	0.0007324
3329.42	0.0007932
3340.99	0.0008207
3352.57	0.0009967
3364.14	0.00127
3375.71	0.00228
3387.29	0.00517
3398.86	0.01171
3410.43	0.02217
3422.01	0.02635
3433.58	0.02804
3445.16	0.01266
3456.73	0.00428
3468.3	0.00387
3479.88	0.00515
3491.45	0.00825
3503.03	0.01328
3514.6	0.0179
3526.17	0.0164
3537.75	0.0198
3549.32	0.0113
3560.89	0.00307
3572.47	0.00162
3584.04	0.00122
3595.62	0.00116
3607.19	0.00108
3618.76	0.0008938
3630.34	0.0007955
3641.91	0.000599
3653.49	0.000737
3665.06	0.0006384
3676.63	0.0006331
3688.21	0.0006947
3699.78	0.0007589
3711.35	0.000804
3722.93	0.0007764
3734.5	0.0007913
3746.08	0.0007062
3757.65	0.0006765
3769.22	0.0006901
3780.8	0.0006447
3792.37	0.0007409
3803.94	0.0007938
3815.52	0.0008893
3827.09	0.0008747
3838.67	0.0008264
3850.24	0.0008957
3861.81	0.0009577
3873.39	0.0009292
3884.96	0.0009606
3896.54	0.00111
3908.11	0.00107
3919.68	0.00124
3931.26	0.00151
3942.83	0.00134
3954.4	0.00102
3965.98	0.0008954
3977.55	0.0008745
3989.13	0.00082
4000.7	0.0008875
