Infrared Spectrum: 4-Acetylbibenzyl
Formula: C 16 H 16 O
CAS: 785-78-4
State: gas
Origin: EPA-IR VAPOR PHASE LIBRARY
1/CM	ABSORBANCE
551.7	0.00722
563.274	0.00851
574.848	0.01425
586.421	0.01824
597.995	0.0266
609.569	0.01066
621.143	0.00496
632.717	0.00419
644.291	0.00505
655.864	0.00841
667.438	0.00968
679.012	0.01234
690.586	0.02482
702.16	0.02947
713.734	0.016
725.307	0.01269
736.881	0.01773
748.455	0.01647
760.029	0.00911
771.603	0.00611
783.177	0.00614
794.75	0.0075
806.324	0.01455
817.898	0.02597
829.472	0.01494
841.046	0.00928
852.619	0.00579
864.193	0.00483
875.767	0.00358
887.341	0.00324
898.915	0.00349
910.489	0.00388
922.062	0.00569
933.636	0.00895
945.21	0.0181
956.784	0.02006
968.358	0.00894
979.932	0.00609
991.505	0.00536
1003.08	0.00662
1014.65	0.01422
1026.23	0.00965
1037.8	0.00576
1049.37	0.00448
1060.95	0.00639
1072.52	0.01045
1084.1	0.0061
1095.67	0.0044
1107.24	0.00519
1118.82	0.00472
1130.39	0.0041
1141.97	0.00439
1153.54	0.00499
1165.11	0.00649
1176.69	0.01763
1188.26	0.02358
1199.83	0.01119
1211.41	0.01077
1222.98	0.01777
1234.56	0.03074
1246.13	0.04351
1257.7	0.1205
1269.28	0.0742
1280.85	0.02181
1292.42	0.01479
1304	0.01155
1315.57	0.00836
1327.15	0.00841
1338.72	0.01309
1350.29	0.02437
1361.87	0.04324
1373.44	0.01827
1385.02	0.01041
1396.59	0.01203
1408.16	0.02038
1419.74	0.01601
1431.31	0.01268
1442.88	0.01552
1454.46	0.01492
1466.03	0.00851
1477.61	0.00686
1489.18	0.01161
1500.75	0.0151
1512.33	0.00582
1523.9	0.00483
1535.48	0.00503
1547.05	0.00548
1558.62	0.00765
1570.2	0.01094
1581.77	0.01159
1593.34	0.02435
1604.92	0.0483
1616.49	0.02547
1628.07	0.01054
1639.64	0.008
1651.21	0.00848
1662.79	0.01124
1674.36	0.01618
1685.93	0.03503
1697.51	0.11557
1709.08	0.09479
1720.66	0.02794
1732.23	0.01345
1743.8	0.00866
1755.38	0.00679
1766.95	0.00486
1778.53	0.00389
1790.1	0.00469
1801.67	0.00454
1813.25	0.00313
1824.82	0.00246
1836.39	0.00239
1847.97	0.00268
1859.54	0.00298
1871.12	0.00305
1882.69	0.00311
1894.26	0.00313
1905.84	0.00323
1917.41	0.00347
1928.99	0.00377
1940.56	0.00392
1952.13	0.00354
1963.71	0.00216
1975.28	0.00164
1986.85	0.00148
1998.43	0.00138
2010	0.00141
2021.58	0.00151
2033.15	0.00149
2044.72	0.00131
2056.3	0.00115
2067.87	0.00104
2079.44	0.000998
2091.02	0.0009713
2102.59	0.0009158
2114.17	0.0008664
2125.74	0.0008916
2137.31	0.0009227
2148.89	0.0009363
2160.46	0.0009068
2172.04	0.0009345
2183.61	0.0009619
2195.18	0.000972
2206.76	0.000994
2218.33	0.000903
2229.9	0.0008563
2241.48	0.0008827
2253.05	0.0008814
2264.63	0.0009306
2276.2	0.0009985
2287.77	0.00114
2299.35	0.0013
2310.92	0.00141
2322.5	0.00137
2334.07	0.00126
2345.64	0.00114
2357.22	0.00104
2368.79	0.00107
2380.36	0.00109
2391.94	0.00104
2403.51	0.0009991
2415.09	0.0009828
2426.66	0.001
2438.23	0.0009824
2449.81	0.0009947
2461.38	0.0009504
2472.96	0.0009244
2484.53	0.0009369
2496.1	0.00102
2507.68	0.00112
2519.25	0.00125
2530.82	0.00115
2542.4	0.00106
2553.97	0.00113
2565.55	0.00119
2577.12	0.00131
2588.69	0.00145
2600.27	0.00144
2611.84	0.00142
2623.41	0.00135
2634.99	0.00128
2646.56	0.00126
2658.14	0.00128
2669.71	0.00129
2681.28	0.00122
2692.86	0.00111
2704.43	0.00109
2716.01	0.001
2727.58	0.0009437
2739.15	0.0009823
2750.73	0.00109
2762.3	0.00124
2773.87	0.00148
2785.45	0.00172
2797.02	0.00176
2808.6	0.00178
2820.17	0.00214
2831.74	0.00283
2843.32	0.00431
2854.89	0.00844
2866.47	0.01419
2878.04	0.00996
2889.61	0.00725
2901.19	0.00833
2912.76	0.01259
2924.33	0.02421
2935.91	0.03307
2947.48	0.03201
2959.06	0.01782
2970.63	0.00994
2982.2	0.00806
2993.78	0.00877
3005.35	0.01384
3016.92	0.02044
3028.5	0.03467
3040.07	0.03197
3051.65	0.01984
3063.22	0.02438
3074.79	0.02888
3086.37	0.0209
3097.94	0.01415
3109.52	0.00881
3121.09	0.0052
3132.66	0.00291
3144.24	0.00209
3155.81	0.00166
3167.38	0.00145
3178.96	0.00116
3190.53	0.00101
3202.11	0.00097
3213.68	0.0009572
3225.25	0.000873
3236.83	0.0008274
3248.4	0.0008226
3259.98	0.0007959
3271.55	0.0008761
3283.12	0.0008567
3294.7	0.0008481
3306.27	0.0008477
3317.84	0.000873
3329.42	0.0008106
3340.99	0.0009139
3352.57	0.00101
3364.14	0.00133
3375.71	0.00224
3387.29	0.00297
3398.86	0.00201
3410.43	0.00131
3422.01	0.00108
3433.58	0.0009579
3445.16	0.0008574
3456.73	0.0009216
3468.3	0.0008331
3479.88	0.0008448
3491.45	0.0008041
3503.03	0.0007813
3514.6	0.0007595
3526.17	0.0007227
3537.75	0.0007576
3549.32	0.0007975
3560.89	0.0007724
3572.47	0.0007433
3584.04	0.0007378
3595.62	0.0007888
3607.19	0.0008025
3618.76	0.0007929
3630.34	0.0008561
3641.91	0.0008693
3653.49	0.0009898
3665.06	0.001
3676.63	0.0009503
3688.21	0.0009989
3699.78	0.0009572
3711.35	0.0008736
3722.93	0.0008689
3734.5	0.0008522
3746.08	0.0007998
3757.65	0.0007376
3769.22	0.000737
3780.8	0.0008905
3792.37	0.0008497
3803.94	0.0007869
3815.52	0.0008292
3827.09	0.0008974
3838.67	0.0008701
3850.24	0.0009172
3861.81	0.0009589
3873.39	0.000942
3884.96	0.0009219
3896.54	0.0009049
3908.11	0.0008668
3919.68	0.0008974
3931.26	0.000932
3942.83	0.000886
3954.4	0.0008945
3965.98	0.0008818
3977.55	0.0008979
3989.13	0.0008711
4000.7	0.0009523
