Infrared Spectrum: (S)-5-Hydroxymethyl-2[5H]-furanone
Formula: C 5 H 6 O 3
CAS: 78508-96-0
State: gas
Origin: EPA-IR VAPOR PHASE LIBRARY
1/CM	ABSORBANCE
549.8	0.001704
559.445	0.0007789
569.09	0.0011788
578.734	0.0004368
588.379	0.0012338
598.024	0.0011338
607.669	0.001954
617.313	0.001554
626.958	0.0013467
636.603	0.0010012
646.248	0.0014638
655.893	0.002014
665.537	0.002134
675.182	0.001744
684.827	0.002594
694.472	0.002984
704.116	0.003164
713.761	0.002474
723.406	0.0014515
733.051	0.0010596
742.695	0.000778
752.34	0.0014357
761.985	0.0011309
771.63	0.001604
781.275	0.003084
790.919	0.005314
800.564	0.008994
810.209	0.016254
819.854	0.013594
829.498	0.010504
839.143	0.008424
848.788	0.010194
858.433	0.012514
868.078	0.013914
877.722	0.011544
887.367	0.008724
897.012	0.007374
906.657	0.009284
916.301	0.010284
925.946	0.008954
935.591	0.007424
945.236	0.006134
954.88	0.004414
964.525	0.003424
974.17	0.003834
983.815	0.004354
993.46	0.005424
1003.1	0.006164
1012.75	0.008794
1022.39	0.012744
1032.04	0.019004
1041.68	0.026494
1051.33	0.032474
1060.97	0.033764
1070.62	0.030134
1080.26	0.021304
1089.91	0.015994
1099.55	0.016144
1109.2	0.017914
1118.84	0.015974
1128.49	0.018534
1138.13	0.024674
1147.78	0.023734
1157.42	0.015424
1167.07	0.007404
1176.71	0.004184
1186.36	0.003904
1196	0.003884
1205.64	0.003074
1215.29	0.001684
1224.93	0.001814
1234.58	0.002584
1244.22	0.002584
1253.87	0.002904
1263.51	0.003264
1273.16	0.002934
1282.8	0.003274
1292.45	0.004554
1302.09	0.005664
1311.74	0.007644
1321.38	0.008574
1331.03	0.007134
1340.67	0.005754
1350.32	0.005044
1359.96	0.004604
1369.61	0.004754
1379.25	0.005354
1388.9	0.005324
1398.54	0.004554
1408.18	0.002994
1417.83	0.002364
1427.47	0.001934
1437.12	0.001514
1446.76	0.001914
1456.41	0.001894
1466.05	0.002054
1475.7	0.001754
1485.34	0.0013876
1494.99	0.0012054
1504.63	0.0011412
1514.28	0.0010871
1523.92	0.0011645
1533.57	0.0010513
1543.21	0.0010509
1552.86	0.0011322
1562.5	0.0013168
1572.15	0.0011237
1581.79	0.0010332
1591.44	0.001704
1601.08	0.002184
1610.73	0.002564
1620.37	0.001874
1630.01	0.001904
1639.66	0.001704
1649.3	0.001664
1658.95	0.0014381
1668.59	0.0015006
1678.24	0.0015046
1687.88	0.0013245
1697.53	0.0014049
1707.17	0.001574
1716.82	0.002214
1726.46	0.003094
1736.11	0.004334
1745.75	0.006054
1755.4	0.007274
1765.04	0.008304
1774.69	0.012004
1784.33	0.025754
1793.98	0.065374
1803.62	0.118924
1813.27	0.125644
1822.91	0.081374
1832.55	0.025304
1842.2	0.011264
1851.84	0.006574
1861.49	0.004384
1871.13	0.002874
1880.78	0.002674
1890.42	0.002414
1900.07	0.002544
1909.71	0.002774
1919.36	0.003184
1929	0.002654
1938.65	0.002054
1948.29	0.001554
1957.94	0.0013866
1967.58	0.0012107
1977.23	0.0013606
1986.87	0.0011677
1996.52	0.0012341
2006.16	0.0013001
2015.81	0.0011819
2025.45	0.0008235
2035.1	0.001088
2044.74	0.0009469
2054.38	0.0008718
2064.03	0.0010499
2073.67	0.0009945
2083.32	0.0010552
2092.96	0.0008846
2102.61	0.0010878
2112.25	0.0010339
2121.9	0.0007614
2131.54	0.0008886
2141.19	0.0009707
2150.83	0.0009947
2160.48	0.0010648
2170.12	0.0008994
2179.77	0.0012346
2189.41	0.001046
2199.06	0.0011122
2208.7	0.0010612
2218.35	0.0010278
2227.99	0.0009515
2237.64	0.0011027
2247.28	0.0012763
2256.92	0.0010811
2266.57	0.0012568
2276.21	0.0012097
2285.86	0.0011376
2295.5	0.0010258
2305.15	0.0006508
2314.79	0.001085
2324.44	0.0008564
2334.08	0.0009619
2343.73	0.00057144
2353.37	0.0007878
2363.02	0.0007265
2372.66	0.000515639
2382.31	0.0006425
2391.95	0.0008397
2401.6	0.0007661
2411.24	0.0007397
2420.89	0.0007394
2430.53	0.0008548
2440.18	0.0006877
2449.82	0.0008847
2459.47	0.0009766
2469.11	0.0009527
2478.75	0.0008731
2488.4	0.0009865
2498.04	0.0009924
2507.69	0.0008802
2517.33	0.0008223
2526.98	0.0008643
2536.62	0.0008697
2546.27	0.00053554
2555.91	0.0007239
2565.56	0.0009963
2575.2	0.0007448
2584.85	0.0008204
2594.49	0.00057171
2604.14	0.0008656
2613.78	0.0008264
2623.43	0.0008055
2633.07	0.0005294
2642.72	0.0007303
2652.36	0.000676
2662.01	0.000851
2671.65	0.0009238
2681.29	0.0008295
2690.94	0.0006681
2700.58	0.0008814
2710.23	0.0009001
2719.87	0.0010952
2729.52	0.0009353
2739.16	0.0008053
2748.81	0.0008431
2758.45	0.00057816
2768.1	0.0007832
2777.74	0.0009993
2787.39	0.0008587
2797.03	0.0008145
2806.68	0.001046
2816.32	0.000832
2825.97	0.0010531
2835.61	0.0011227
2845.26	0.0011916
2854.9	0.002074
2864.55	0.002744
2874.19	0.004064
2883.84	0.004954
2893.48	0.006014
2903.12	0.006994
2912.77	0.007364
2922.41	0.007604
2932.06	0.008124
2941.7	0.008794
2951.35	0.008374
2960.99	0.006674
2970.64	0.004864
2980.28	0.002424
2989.93	0.0013271
2999.57	0.0007039
3009.22	0.0012721
3018.86	0.0010491
3028.51	0.0007038
3038.15	0.0010253
3047.8	0.0008364
3057.44	0.0004596
3067.09	0.0011078
3076.73	0.0014933
3086.38	0.0004732
3096.02	0.001005
3105.67	0.0004389
3115.31	0.0007501
3124.95	0.00055089
3134.6	0.00033
3144.24	0.000115
3153.89	0.0008633
3163.53	0.000412
3173.18	0.0006414
3182.82	0.0006708
3192.47	0.00058652
3202.11	0.000935
3211.76	0.000394
3221.4	0.0007844
3231.05	0.0004407
3240.69	0.0007563
3250.34	0.0006928
3259.98	0.00060179
3269.63	0.0009384
3279.27	0.0004206
3288.92	0.0008272
3298.56	0.000399
3308.21	0.0004852
3317.85	0.0005778
3327.49	0.0007058
3337.14	0.0004893
3346.78	0.0006153
3356.43	0.0007151
3366.07	0.0008293
3375.72	0.0006897
3385.36	0.0007038
3395.01	0.0007781
3404.65	0.0007255
3414.3	0.00057723
3423.94	0.000784
3433.59	0.0007129
3443.23	0.000309
3452.88	0.0007594
3462.52	0.0009746
3472.17	0.00060304
3481.81	0.000359
3491.46	0.0006316
3501.1	0.0008029
3510.75	0.000707
3520.39	0.0009239
3530.04	0.0010364
3539.68	0.0011889
3549.32	0.0009917
3558.97	0.0014402
3568.61	0.001574
3578.26	0.001524
3587.9	0.001884
3597.55	0.002284
3607.19	0.002734
3616.84	0.002824
3626.48	0.003884
3636.13	0.004444
3645.77	0.006184
3655.42	0.005344
3665.06	0.004854
3674.71	0.004604
3684.35	0.003464
3694	0.002314
3703.64	0.0012589
3713.29	0.0009587
3722.93	0.00060161
3732.58	0.000355
3742.22	0.0008479
3751.86	0.000944
3761.51	0.000794
3771.15	0.0009574
3780.8	0.0007172
3790.44	0.00035
3800.09	0.00059744
3809.73	0.0010622
3819.38	0.0007509
3829.02	0.00054397
3838.67	0.00060407
3848.31	0.0006238
3857.96	0.0007379
3867.6	0.000262
3877.25	0.000520266
3886.89	0.0008642
3896.54	0.0010081
3906.18	0.0007298
3915.83	0.0011139
3925.47	0.00059712
3935.12	0.0007906
3944.76	0.0010513
3954.41	0.0006262
3964.05	0.0006615
3973.69	0.0008446
3983.34	0.001109
3992.98	0.0008122
