Infrared Spectrum: p-PROPIONOTOLUIDIDE, 3-MERCAPTO-
Formula: C10 H13 N O S
CAS: 78580-32-2
State: SOLID (SPLIT MULL), FLUOROLUBE FOR 3800-1330 CM^-^1, NUJOL FOR 1330-400 CM^-^1
Melting point: 89 C
Class: COBLENTZ III
Instrument: BECKMAN IR-9 (GRATING)
Instrument parameters: ORDER CHANGES: 670, 1200, 2000 CM^-^1
Sampling: TRANSMISSION
Resolution: 2
Origin: DOW CHEMICAL COMPANY
1/CM	TRANSMITTANCE
402	0.7198
411	0.6874
420	0.6801
429	0.6819
438	0.6884
447	0.7107
456	0.7412
465	0.7653
474	0.7794
483	0.7817
492	0.7792
501	0.6534
510	0.5687
519	0.6091
528	0.8182
537	0.853
546	0.8615
555	0.8691
564	0.8743
573	0.8763
582	0.8741
591	0.865
600	0.8111
609	0.8645
618	0.8795
627	0.8784
636	0.8703
645	0.8548
654	0.8608
663	0.8297
672	0.7818
681	0.8248
690	0.81
699	0.7525
708	0.7458
717	0.7182
726	0.6206
735	0.6399
744	0.644
753	0.6689
762	0.7145
771	0.6871
780	0.7082
789	0.7621
798	0.7953
807	0.7698
816	0.3612
825	0.4552
834	0.7271
843	0.7956
852	0.8197
861	0.8095
870	0.8411
879	0.8612
888	0.8615
897	0.8583
906	0.8409
915	0.8461
924	0.8271
933	0.7984
942	0.7665
951	0.826
960	0.6671
969	0.786
978	0.8361
987	0.8315
996	0.8101
1005	0.7456
1014	0.8253
1023	0.8011
1032	0.7988
1041	0.7682
1050	0.8156
1059	0.8421
1068	0.8532
1077	0.8568
1086	0.8583
1095	0.8593
1104	0.8504
1113	0.7821
1122	0.7558
1131	0.8417
1140	0.8344
1149	0.7478
1158	0.6805
1167	0.7822
1176	0.7988
1185	0.7468
1194	0.5937
1203	0.793
1212	0.8084
1221	0.8004
1230	0.7725
1239	0.561
1248	0.6764
1257	0.4604
1266	0.6072
1275	0.7475
1284	0.5387
1293	0.581
1302	0.3707
1311	0.2276
1320	0.7162
1329	0.7597
1338	0.7334
1347	0.6798
1356	0.6487
1365	0.4806
1374	0.5733
1383	0.6974
1392	0.6701
1401	0.3582
1410	0.4199
1419	0.4841
1428	0.5924
1437	0.5019
1446	0.5046
1455	0.5048
1464	0.5753
1473	0.6046
1482	0.5932
1491	0.5585
1500	0.3916
1509	0.0876
1518	0.2596
1527	0.2351
1536	0.1298
1545	0.0615
1554	0.3316
1563	0.6558
1572	0.6938
1581	0.6017
1590	0.4804
1599	0.1759
1608	0.0608
1617	0.3559
1626	0.5543
1635	0.5243
1644	0.253
1653	0.0726
1662	0.1368
1671	0.3812
1680	0.6849
1689	0.8196
1698	0.8673
1707	0.8878
1716	0.9107
1725	0.918
1734	0.9184
1743	0.9201
1752	0.9081
1761	0.9056
1770	0.9059
1779	0.9055
1788	0.9009
1797	0.8965
1806	0.8989
1815	0.9046
1824	0.9075
1833	0.9073
1842	0.9063
1851	0.9032
1860	0.8971
1869	0.8956
1878	0.8959
1887	0.8901
1896	0.8745
1905	0.8471
1914	0.8853
1923	0.8954
1932	0.8965
1941	0.8965
1950	0.8966
1959	0.8965
1968	0.8961
1977	0.8951
1986	0.8938
1995	0.892
2004	0.8901
2013	0.889
2022	0.8875
2031	0.8855
2040	0.882
2049	0.8793
2058	0.8758
2067	0.872
2076	0.8681
2085	0.8652
2094	0.8623
2103	0.8597
2112	0.8575
2121	0.8553
2130	0.8531
2139	0.8509
2148	0.8488
2157	0.8466
2166	0.8445
2175	0.8425
2184	0.8406
2193	0.8386
2202	0.8368
2211	0.835
2220	0.833
2229	0.8306
2238	0.8285
2247	0.8265
2256	0.8238
2265	0.821
2274	0.8182
2283	0.8156
2292	0.8137
2301	0.8121
2310	0.8128
2319	0.8169
2328	0.8212
2337	0.8257
2346	0.8296
2355	0.8328
2364	0.8341
2373	0.8301
2382	0.8176
2391	0.8025
2400	0.7998
2409	0.7984
2418	0.7974
2427	0.7955
2436	0.7936
2445	0.7918
2454	0.7904
2463	0.789
2472	0.7881
2481	0.7878
2490	0.7875
2499	0.7865
2508	0.7836
2517	0.7789
2526	0.775
2535	0.7691
2544	0.6896
2553	0.7322
2562	0.7685
2571	0.7583
2580	0.7651
2589	0.7693
2598	0.7682
2607	0.7672
2616	0.7664
2625	0.7635
2634	0.7615
2643	0.7618
2652	0.7618
2661	0.7615
2670	0.7615
2679	0.7611
2688	0.7594
2697	0.7568
2706	0.7536
2715	0.7503
2724	0.7464
2733	0.7424
2742	0.7442
2751	0.7428
2760	0.7388
2769	0.7338
2778	0.7284
2787	0.7217
2796	0.7147
2805	0.7104
2814	0.7132
2823	0.7137
2832	0.708
2841	0.6911
2850	0.6688
2859	0.6519
2868	0.6547
2877	0.6615
2886	0.6615
2895	0.6501
2904	0.6092
2913	0.601
2922	0.576
2931	0.593
2940	0.5985
2949	0.6
2958	0.5991
2967	0.5962
2976	0.599
2985	0.6141
2994	0.6189
3003	0.6152
3012	0.6065
3021	0.5886
3030	0.5518
3039	0.5509
3048	0.5548
3057	0.5106
3066	0.4749
3075	0.4732
3084	0.4921
3093	0.5107
3102	0.508
3111	0.4565
3120	0.3912
3129	0.4034
3138	0.4908
3147	0.5107
3156	0.5132
3165	0.506
3174	0.454
3183	0.3864
3192	0.3808
3201	0.4433
3210	0.4476
3219	0.4462
3228	0.4366
3237	0.358
3246	0.2977
3255	0.2864
3264	0.2954
3273	0.2912
3282	0.255
3291	0.2457
3300	0.2982
3309	0.4096
3318	0.5133
3327	0.5759
3336	0.6365
3345	0.6575
3354	0.6684
3363	0.6768
3372	0.6815
3381	0.6842
3390	0.6868
3399	0.6878
3408	0.6872
3417	0.6867
3426	0.6861
3435	0.6847
3444	0.6833
3453	0.6815
3462	0.6797
3471	0.6778
3480	0.6764
3489	0.6749
3498	0.6736
3507	0.6721
3516	0.6715
3525	0.6708
3534	0.6701
3543	0.6696
3552	0.669
3561	0.6684
3570	0.6667
3579	0.6625
3588	0.6675
3597	0.6694
3606	0.6693
3615	0.6691
3624	0.6688
3633	0.6683
3642	0.6678
3651	0.6674
3660	0.6668
3669	0.6661
3678	0.6654
3687	0.6646
3696	0.6639
3705	0.6621
3714	0.66
3723	0.6581
3732	0.6561
3741	0.6544
3750	0.6528
3759	0.6514
3768	0.6512
3777	0.6511
3786	0.651
