Infrared Spectrum: 2-Methyl-6-hepten-3-ol
Formula: C 8 H 16 O
CAS: 78631-45-5
State: gas
Instrument: HP-GC/MS/IRD
Origin: NIST Mass Spectrometry Data Center
1/CM	ABSORBANCE
550	0.0004128
562	0.000712
574	0.0004496
586	0.0003328
598	0.0001648
610	0.0001648
622	0.000224
634	0.0001904
646	5.76e-05
658	8.64e-05
670	9.44e-05
682	6.72e-05
694	5.92e-05
706	0.000144
718	0.0001472
730	0.0001376
742	0.0002048
754	0.0002272
766	0.0002608
778	0.0003568
790	0.0003312
802	0.0002576
814	0.000344
826	0.0003744
838	0.0004784
850	0.000736
862	0.0012528
874	0.0027264
886	0.0054768
898	0.0053936
910	0.0030704
922	0.0024768
934	0.0022896
946	0.0021584
958	0.0026112
970	0.0033008
982	0.003632
994	0.0032176
1006	0.002728
1018	0.0025104
1030	0.0025008
1042	0.0023936
1054	0.0022592
1066	0.0022896
1078	0.002344
1090	0.0025424
1102	0.0030928
1114	0.0033264
1126	0.0025296
1138	0.0016912
1150	0.0012688
1162	0.0012768
1174	0.0014144
1186	0.0015632
1198	0.0016896
1210	0.0018768
1222	0.0022
1234	0.0023072
1246	0.0022096
1258	0.0020496
1270	0.002048
1282	0.0019744
1294	0.0017472
1306	0.0016256
1318	0.0014496
1330	0.001352
1342	0.001544
1354	0.0020976
1366	0.0029328
1378	0.0037296
1390	0.0032736
1402	0.0022272
1414	0.0016944
1426	0.0018448
1438	0.0026928
1450	0.0036368
1462	0.0034704
1474	0.0022736
1486	0.0012224
1498	0.0006992
1510	0.0005088
1522	0.0004464
1534	0.0003632
1546	0.0003232
1558	0.0003376
1570	0.0003696
1582	0.0003872
1594	0.0004544
1606	0.0005296
1618	0.0007472
1630	0.0012944
1642	0.0021984
1654	0.0021024
1666	0.0009664
1678	0.0004128
1690	0.0002368
1702	0.0001664
1714	0.000136
1726	0.0001232
1738	0.0001088
1750	0.0001264
1762	0.0001488
1774	0.0002992
1786	0.0003872
1798	0.0003152
1810	0.0001984
1822	0.0001424
1834	7.36e-05
1846	8e-05
1858	7.84e-05
1870	6.4e-05
1882	4.96e-05
1894	4e-05
1906	3.36e-05
1918	7.68e-05
1930	4.64e-05
1942	6.72e-05
1954	3.68e-05
1966	1.92e-05
1978	5.92e-05
1990	3.52e-05
2002	4.8e-05
2014	4.64e-05
2026	2.24e-05
2038	3.52e-05
2050	3.84e-05
2062	4.8e-05
2074	5.44e-05
2086	4.16e-05
2098	4.48e-05
2110	4.64e-05
2122	3.52e-05
2134	3.52e-05
2146	5.28e-05
2158	4.64e-05
2170	4e-05
2182	4.48e-05
2194	1.92e-05
2206	6.08e-05
2218	5.6e-05
2230	3.2e-05
2242	3.68e-05
2254	6.08e-05
2266	5.28e-05
2278	4.48e-05
2290	3.36e-05
2302	6.08e-05
2314	6.24e-05
2326	8.16e-05
2338	6.72e-05
2350	8.16e-05
2362	0.0001152
2374	0.0001024
2386	7.2e-05
2398	7.36e-05
2410	9.6e-05
2422	9.28e-05
2434	8.32e-05
2446	0.0001008
2458	7.84e-05
2470	7.04e-05
2482	7.52e-05
2494	0.000112
2506	9.6e-05
2518	9.6e-05
2530	9.44e-05
2542	0.0001072
2554	0.0001264
2566	0.0001408
2578	0.0001488
2590	0.0001696
2602	0.0001712
2614	0.0002272
2626	0.0001952
2638	0.0002304
2650	0.0002608
2662	0.000272
2674	0.0002912
2686	0.0003232
2698	0.000344
2710	0.0003664
2722	0.000376
2734	0.0004944
2746	0.000528
2758	0.0005536
2770	0.0005472
2782	0.0006768
2794	0.0007648
2806	0.000928
2818	0.001248
2830	0.0018448
2842	0.0030704
2854	0.0049504
2866	0.0065392
2878	0.007424
2890	0.007744
2902	0.00792
2914	0.0098848
2926	0.0134016
2938	0.016
2950	0.0143152
2962	0.0119216
2974	0.0127744
2986	0.008616
2998	0.0040912
3010	0.0022528
3022	0.0015728
3034	0.0012432
3046	0.0012192
3058	0.0015264
3070	0.0026656
3082	0.003536
3094	0.0020816
3106	0.0008416
3118	0.0005264
3130	0.0003744
3142	0.0002832
3154	0.0002736
3166	0.00024
3178	0.0001712
3190	0.0001632
3202	0.0001504
3214	0.0001456
3226	0.0001088
3238	9.76e-05
3250	7.84e-05
3262	6.72e-05
3274	0.0001104
3286	8.64e-05
3298	0.000112
3310	0.0001056
3322	0.0001072
3334	2.4e-05
3346	0.0001296
3358	8.16e-05
3370	8.48e-05
3382	0.0001392
3394	0.0001312
3406	0.0001088
3418	0.000176
3430	0.00016
3442	0.0001312
3454	0.000152
3466	9.76e-05
3478	0.0001408
3490	0.0001136
3502	0.0001488
3514	0.000112
3526	0.000152
3538	0.0001216
3550	0.0001264
3562	0.0001472
3574	0.000136
3586	0.0002032
3598	0.0003424
3610	0.0006944
3622	0.0008272
3634	0.0009056
3646	0.00132
3658	0.0014272
3670	0.000912
3682	0.0003888
3694	0.000216
3706	0.0001344
3718	0.0001168
3730	0.0001088
3742	7.52e-05
3754	0.0001504
3766	0.0001472
3778	0.0002064
3790	0.000168
3802	0.0001264
3814	0.0001568
3826	0.000184
3838	0.0001296
