Infrared Spectrum: 4-MORPHOLINO-6-METHYL-1,3,3a,7-TETRAZAINDENE
Formula: C10 H13 N5 O
CAS: 78666-95-2
State: SOLID (KBr PRESSING)
Melting point: 162 C
Class: COBLENTZ
Instrument: Not specified, most likely a prism, grating, or hybrid spectrometer.
Sampling: TRANSMISSION
Resolution: 4
Origin: EASTMAN KODAK COMPANY, RESEARCH LABORATORIES, ROCHESTER, N.Y.
MICROMETERS	TRANSMITTANCE
2.026	0.634
2.06104	0.627
2.09608	0.621
2.13112	0.62
2.16616	0.618
2.2012	0.616
2.23624	0.614
2.27128	0.604
2.30632	0.606
2.34136	0.611
2.3764	0.613
2.41144	0.614
2.44648	0.616
2.48152	0.618
2.51656	0.62
2.5516	0.625
2.58664	0.63
2.62168	0.635
2.65672	0.642
2.69176	0.66
2.7268	0.662
2.76184	0.653
2.79688	0.642
2.83192	0.567
2.86696	0.506
2.902	0.473
2.93704	0.451
2.97208	0.451
3.00712	0.487
3.04216	0.529
3.0772	0.554
3.11224	0.567
3.14728	0.578
3.18232	0.595
3.21736	0.597
3.2524	0.585
3.28744	0.564
3.32248	0.573
3.35752	0.534
3.39256	0.513
3.4276	0.515
3.46264	0.47
3.49769	0.459
3.53273	0.5
3.56777	0.621
3.60281	0.642
3.63785	0.644
3.67289	0.662
3.70793	0.674
3.74297	0.689
3.77801	0.7
3.81305	0.71
3.84809	0.714
3.88313	0.722
3.91817	0.728
3.95321	0.735
3.98825	0.742
4.02329	0.74
4.05833	0.75
4.09337	0.752
4.12841	0.756
4.16345	0.759
4.19849	0.777
4.23353	0.775
4.26857	0.775
4.30361	0.768
4.33865	0.782
4.37369	0.785
4.40873	0.79
4.44377	0.785
4.47881	0.783
4.51385	0.785
4.54889	0.79
4.58393	0.79
4.61897	0.787
4.65401	0.787
4.68905	0.783
4.72409	0.787
4.75913	0.783
4.79417	0.783
4.82921	0.783
4.86425	0.787
4.89929	0.789
4.93433	0.79
4.96937	0.79
5.00441	0.778
5.03945	0.789
5.07449	0.803
5.10953	0.804
5.14457	0.799
5.17961	0.811
5.21465	0.817
5.24969	0.825
5.28473	0.825
5.31977	0.827
5.35481	0.829
5.38985	0.839
5.42489	0.834
5.45993	0.834
5.49497	0.825
5.53001	0.759
5.56505	0.824
5.60009	0.844
5.63513	0.836
5.67017	0.844
5.70521	0.831
5.74025	0.824
5.77529	0.81
5.81033	0.82
5.84537	0.831
5.88041	0.808
5.91545	0.785
5.95049	0.775
5.98553	0.749
6.02057	0.728
6.05561	0.651
6.09065	0.554
6.12569	0.409
6.16073	0.193
6.19577	0.121
6.23081	0.311
6.26585	0.433
6.30089	0.522
6.33593	0.522
6.37097	0.346
6.40602	0.102
6.44106	0.043
6.4761	0.195
6.51114	0.341
6.54618	0.398
6.58122	0.533
6.61626	0.58
6.6513	0.641
6.68634	0.668
6.72138	0.712
6.75642	0.653
6.79146	0.672
6.8265	0.656
6.86154	0.524
6.89658	0.341
6.93162	0.344
6.96666	0.527
7.0017	0.658
7.03674	0.684
7.07178	0.763
7.10682	0.78
7.14186	0.764
7.1769	0.726
7.21194	0.559
7.24698	0.644
7.28202	0.573
7.31706	0.559
7.3521	0.668
7.38714	0.754
7.42218	0.695
7.45722	0.703
7.49226	0.614
7.5273	0.449
7.56234	0.437
7.59738	0.646
7.63242	0.414
7.66746	0.461
7.7025	0.517
7.73754	0.573
7.77258	0.527
7.80762	0.722
7.84266	0.646
7.8777	0.214
7.91274	0.567
7.94778	0.423
7.98282	0.296
8.01786	0.566
8.0529	0.71
8.08794	0.726
8.12298	0.606
8.15802	0.555
8.19306	0.559
8.2281	0.289
8.26314	0.463
8.29818	0.602
8.33322	0.554
8.36826	0.353
8.4033	0.655
8.43834	0.756
8.47338	0.79
8.50842	0.803
8.54346	0.801
8.5785	0.787
8.61354	0.759
8.64858	0.735
8.68362	0.759
8.71866	0.782
8.7537	0.789
8.78874	0.77
8.82378	0.668
8.85882	0.308
8.89386	0.094
8.9289	0.196
8.96394	0.31
8.99898	0.534
9.03402	0.658
9.06906	0.733
9.1041	0.778
9.13914	0.801
9.17418	0.811
9.20922	0.82
9.24426	0.782
9.2793	0.684
9.31435	0.731
9.34939	0.78
9.38443	0.794
9.41947	0.817
9.45451	0.822
9.48955	0.808
9.52459	0.66
9.55963	0.688
9.59467	0.773
9.62971	0.757
9.66475	0.681
9.69979	0.632
9.73483	0.689
9.76987	0.745
9.80491	0.752
9.83995	0.674
9.87499	0.439
9.91003	0.315
9.94507	0.468
9.98011	0.627
10.0151	0.712
10.0502	0.77
10.0852	0.797
10.1203	0.815
10.1553	0.832
10.1903	0.843
10.2254	0.843
10.2604	0.851
10.2955	0.864
10.3305	0.871
10.3655	0.872
10.4006	0.872
10.4356	0.869
10.4707	0.876
10.5057	0.86
10.5407	0.829
10.5758	0.878
10.6108	0.886
10.6459	0.886
10.6809	0.837
10.7159	0.641
10.751	0.761
10.786	0.878
10.8211	0.898
10.8561	0.904
10.8912	0.907
10.9262	0.905
10.9612	0.869
10.9963	0.639
11.0313	0.799
11.0664	0.881
11.1014	0.905
11.1364	0.919
11.1715	0.928
11.2065	0.926
11.2416	0.916
11.2766	0.881
11.3116	0.763
11.3467	0.477
11.3817	0.31
11.4168	0.512
11.4518	0.705
11.4868	0.811
11.5219	0.864
11.5569	0.89
11.592	0.902
11.627	0.911
11.662	0.907
11.6971	0.879
11.7321	0.904
11.7672	0.916
11.8022	0.914
11.8372	0.912
11.8723	0.904
11.9073	0.886
11.9424	0.837
11.9774	0.738
12.0124	0.547
12.0475	0.48
12.0825	0.613
12.1176	0.7
12.1526	0.726
12.1876	0.782
12.2227	0.813
12.2577	0.827
12.2928	0.806
12.3278	0.839
12.3628	0.874
12.3979	0.885
12.4329	0.893
12.468	0.902
12.503	0.907
12.538	0.909
12.5731	0.914
12.6081	0.914
12.6432	0.916
12.6782	0.914
12.7132	0.909
12.7483	0.904
12.7833	0.885
12.8184	0.808
12.8534	0.452
12.8884	0.404
12.9235	0.728
12.9585	0.834
12.9936	0.872
13.0286	0.883
13.0636	0.886
13.0987	0.883
13.1337	0.874
13.1688	0.888
13.2038	0.895
13.2388	0.895
13.2739	0.904
13.3089	0.905
13.344	0.909
13.379	0.912
13.414	0.916
13.4491	0.923
13.4841	0.926
13.5192	0.926
13.5542	0.925
13.5892	0.93
13.6243	0.928
13.6593	0.935
13.6944	0.932
13.7294	0.933
13.7644	0.935
13.7995	0.935
13.8345	0.928
13.8696	0.926
13.9046	0.933
13.9396	0.935
13.9747	0.928
14.0097	0.925
14.0448	0.919
14.0798	0.905
14.1148	0.891
14.1499	0.871
14.1849	0.858
14.22	0.836
14.255	0.813
14.29	0.801
14.3251	0.796
14.3601	0.796
14.3952	0.782
14.4302	0.7
14.4652	0.601
14.5003	0.581
14.5353	0.595
14.5704	0.592
14.6054	0.641
14.6404	0.705
14.6755	0.75
14.7105	0.785
14.7456	0.794
14.7806	0.806
14.8156	0.813
14.8507	0.811
14.8857	0.799
14.9208	0.764
14.9558	0.763
14.9908	0.804
15.0259	0.804
15.0609	0.792
15.096	0.775
15.131	0.763
15.166	0.736
15.2011	0.729
15.2361	0.675
15.2712	0.627
15.3062	0.595
15.3412	0.592
15.3763	0.621
15.4113	0.646
15.4464	0.663
15.4814	0.674
15.5164	0.672
15.5515	0.674
15.5865	0.668
15.6216	0.663
15.6566	0.651
15.6916	0.642
15.7267	0.632
15.7617	0.635
15.7968	0.641
15.8318	0.653
15.8668	0.662
15.9019	0.665
15.9369	0.667
15.972	0.668
