Infrared Spectrum: 4,4'-Diacetylbiphenyl
Formula: C 16 H 14 O 2
CAS: 787-69-9
State: gas
Origin: EPA-IR VAPOR PHASE LIBRARY
1/CM	ABSORBANCE
549.8	0.0005591
559.445	0.0008122
569.09	0.001231
578.734	0.003187
588.379	0.008997
598.024	0.004717
607.669	0.001747
617.313	0.0008493
626.958	0.0008262
636.603	0.0007353
646.248	0.0001928
655.893	0.0003744
665.537	0.0005717
675.182	0.00029678
684.827	0.0005934
694.472	0.0003695
704.116	0.0007
713.761	0.001497
723.406	0.003367
733.051	0.001577
742.695	0.0006874
752.34	0.00033844
761.985	0.0005413
771.63	0.0006336
781.275	0.000589
790.919	0.0008435
800.564	0.001697
810.209	0.004467
819.854	0.006807
829.498	0.004427
839.143	0.002987
848.788	0.002077
858.433	0.001357
868.078	0.0009808
877.722	0.0008235
887.367	0.000922
897.012	0.0006261
906.657	0.0008254
916.301	0.0006491
925.946	0.0006264
935.591	0.001557
945.236	0.004317
954.88	0.006627
964.525	0.003007
974.17	0.001597
983.815	0.001487
993.46	0.001947
1003.1	0.004437
1012.75	0.002537
1022.39	0.001647
1032.04	0.0008109
1041.68	0.0008418
1051.33	0.0004134
1060.97	0.0008354
1070.62	0.001847
1080.26	0.002207
1089.91	0.0006745
1099.55	0.0009518
1109.2	0.001597
1118.84	0.0009484
1128.49	0.0007013
1138.13	0.0004207
1147.78	0.0003886
1157.42	0.000122
1167.07	0.0005938
1176.71	0.001797
1186.36	0.002837
1196	0.001677
1205.64	0.002027
1215.29	0.004207
1224.93	0.007657
1234.58	0.010527
1244.22	0.013987
1253.87	0.027797
1263.51	0.031587
1273.16	0.012867
1282.8	0.005557
1292.45	0.002797
1302.09	0.002197
1311.74	0.002147
1321.38	0.001427
1331.03	0.001447
1340.67	0.002427
1350.32	0.005067
1359.96	0.010847
1369.61	0.006377
1379.25	0.003497
1388.9	0.004237
1398.54	0.004607
1408.18	0.003687
1417.83	0.002997
1427.47	0.002187
1437.12	0.001837
1446.76	0.001547
1456.41	0.001267
1466.05	0.001114
1475.7	0.001034
1485.34	0.0008828
1494.99	0.000894
1504.63	0.0007535
1514.28	0.0008054
1523.92	0.0008847
1533.57	0.0009857
1543.21	0.001477
1552.86	0.002037
1562.5	0.001937
1572.15	0.002017
1581.79	0.002317
1591.44	0.005067
1601.08	0.011867
1610.73	0.006927
1620.37	0.002307
1630.01	0.001567
1639.66	0.001467
1649.3	0.001887
1658.95	0.002347
1668.59	0.002817
1678.24	0.003887
1687.88	0.008117
1697.53	0.025457
1707.17	0.036847
1716.82	0.010267
1726.46	0.003777
1736.11	0.002447
1745.75	0.001807
1755.4	0.001507
1765.04	0.0012027
1774.69	0.0008408
1784.33	0.0007733
1793.98	0.000716
1803.62	0.00083
1813.27	0.0006333
1822.91	0.0005325
1832.55	0.0004982
1842.2	0.000459
1851.84	0.0005135
1861.49	0.0005268
1871.13	0.0005035
1880.78	0.0005454
1890.42	0.0007207
1900.07	0.0007207
1909.71	0.0006873
1919.36	0.0006614
1929	0.0006954
1938.65	0.0005513
1948.29	0.000554
1957.94	0.0004375
1967.58	0.0004809
1977.23	0.0005442
1986.87	0.000553
1996.52	0.000451
2006.16	0.0003633
2015.81	0.00032991
2025.45	0.0004065
2035.1	0.0003587
2044.74	0.0003661
2054.38	0.0003859
2064.03	0.00022
2073.67	0.000362
2083.32	0.00030508
2092.96	0.00035159
2102.61	0.00029023
2112.25	0.000265033
2121.9	0.00032744
2131.54	0.00032057
2141.19	0.000257627
2150.83	0.00033307
2160.48	0.000385
2170.12	0.000438
2179.77	0.00031483
2189.41	0.0002868
2199.06	0.00034808
2208.7	0.0003704
2218.35	0.00034792
2227.99	0.000257278
2237.64	0.0003227
2247.28	0.0003603
2256.92	0.00028459
2266.57	0.0003682
2276.21	0.0004029
2285.86	0.0003576
2295.5	0.0004754
2305.15	0.0004213
2314.79	0.0003797
2324.44	0.00033497
2334.08	0.0004078
2343.73	0.000418
2353.37	0.00033159
2363.02	0.0004023
2372.66	0.000257851
2382.31	0.0003807
2391.95	0.00032363
2401.6	0.0003747
2411.24	0.00029276
2420.89	0.00034238
2430.53	0.0003628
2440.18	0.000358
2449.82	0.00028391
2459.47	0.0004413
2469.11	0.0003792
2478.75	0.00031036
2488.4	0.0001833
2498.04	0.0004051
2507.69	0.0004364
2517.33	0.0004444
2526.98	0.0004309
2536.62	0.0004222
2546.27	0.00033089
2555.91	0.0004042
2565.56	0.00035284
2575.2	0.000260975
2584.85	0.00030283
2594.49	0.00034353
2604.14	0.0004047
2613.78	0.00033965
2623.43	0.00030166
2633.07	0.00016
2642.72	0.0003667
2652.36	0.0003387
2662.01	0.00030492
2671.65	0.0004164
2681.29	0.000262063
2690.94	0.0003618
2700.58	0.0003978
2710.23	0.000433
2719.87	0.0003612
2729.52	0.0002766
2739.16	0.0004429
2748.81	0.0004598
2758.45	0.00035004
2768.1	0.0004293
2777.74	0.0004103
2787.39	0.0003981
2797.03	0.0003658
2806.68	0.0004022
2816.32	0.0004213
2825.97	0.0004473
2835.61	0.0004748
2845.26	0.0005088
2854.9	0.0006507
2864.55	0.0006257
2874.19	0.0006286
2883.84	0.0006561
2893.48	0.0006351
2903.12	0.0005733
2912.77	0.0005103
2922.41	0.0007227
2932.06	0.0008804
2941.7	0.0008529
2951.35	0.0006986
2960.99	0.000898
2970.64	0.001036
2980.28	0.0010476
2989.93	0.001035
2999.57	0.0012331
3009.22	0.001707
3018.86	0.001977
3028.51	0.001697
3038.15	0.002617
3047.8	0.002017
3057.44	0.001857
3067.09	0.001807
3076.73	0.002027
3086.38	0.002317
3096.02	0.001887
3105.67	0.001297
3115.31	0.0009223
3124.95	0.0008257
3134.6	0.0006701
3144.24	0.000432
3153.89	0.0004719
3163.53	0.0004132
3173.18	0.0004545
3182.82	0.0003694
3192.47	0.0004226
3202.11	0.0005165
3211.76	0.0001743
3221.4	0.00032786
3231.05	0.00027549
3240.69	0.0003845
3250.34	0.00036
3259.98	0.0003647
3269.63	0.0002303
3279.27	0.00030821
3288.92	0.00029224
3298.56	0.00030524
3308.21	0.00027302
3317.85	0.0004341
3327.49	0.000242
3337.14	0.0004071
3346.78	0.0001615
3356.43	0.0004232
3366.07	0.0004332
3375.72	0.0005652
3385.36	0.0007907
3395.01	0.000944
3404.65	0.0004796
3414.3	0.0005315
3423.94	0.0004411
3433.59	0.00034256
3443.23	0.0004889
3452.88	0.0002339
3462.52	0.00031916
3472.17	0.0002192
3481.81	0.00031777
3491.46	0.0002125
3501.1	0.00024858
3510.75	0.000193
3520.39	0.0002449
3530.04	0.00033224
3539.68	0.00029235
3549.32	0.0003972
3558.97	0.00033779
3568.61	0.0001897
3578.26	0.000148
3587.9	0.0004171
3597.55	0.0002041
3607.19	0.000201
3616.84	0.00032915
3626.48	0.0001766
3636.13	0.0005015
3645.77	0.0004006
3655.42	0.0002013
3665.06	0.0004987
3674.71	0.0002352
3684.35	0.000351
3694	0.00030048
3703.64	0.00029505
3713.29	0.0003929
3722.93	0.000373
3732.58	0.0002214
3742.22	0.0001943
3751.86	0.0001846
3761.51	0.0002461
3771.15	0.0003689
3780.8	0.00030978
3790.44	0.00030271
3800.09	0.00028409
3809.73	0.00034434
3819.38	0.0003557
3829.02	0.00027148
3838.67	0.0004596
3848.31	0.00029126
3857.96	0.0003279
3867.6	0.0004198
3877.25	0.0002429
3886.89	0.0003815
3896.54	0.00034016
3906.18	0.000125
3915.83	0.00028954
3925.47	0.0002333
3935.12	0.0001956
3944.76	0.0004601
3954.41	0.0001993
3964.05	0.000261133
3973.69	0.0003649
3983.34	0.0005366
3992.98	0.00035601
