Infrared Spectrum: N,N'-Dibenzoyl hydrazine
Formula: C 14 H 12 N 2 O 2
CAS: 787-84-8
State: gas
Origin: EPA-IR VAPOR PHASE LIBRARY
1/CM	ABSORBANCE
549.8	0.004445
559.445	0.002855
569.09	0.002565
578.734	0.002315
588.379	0.002105
598.024	0.002095
607.669	0.001935
617.313	0.001745
626.958	0.001515
636.603	0.001485
646.248	0.001865
655.893	0.002345
665.537	0.003455
675.182	0.005695
684.827	0.008455
694.472	0.015165
704.116	0.018385
713.761	0.012575
723.406	0.007125
733.051	0.004465
742.695	0.003265
752.34	0.002595
761.985	0.002375
771.63	0.002655
781.275	0.002835
790.919	0.002585
800.564	0.002015
810.209	0.001765
819.854	0.0012493
829.498	0.001535
839.143	0.001595
848.788	0.001835
858.433	0.001935
868.078	0.001755
877.722	0.001855
887.367	0.001955
897.012	0.002075
906.657	0.002265
916.301	0.002345
925.946	0.002255
935.591	0.001835
945.236	0.001915
954.88	0.001795
964.525	0.001685
974.17	0.001515
983.815	0.001685
993.46	0.001725
1003.1	0.002065
1012.75	0.002365
1022.39	0.005995
1032.04	0.003965
1041.68	0.002475
1051.33	0.002615
1060.97	0.005235
1070.62	0.005445
1080.26	0.004715
1089.91	0.006565
1099.55	0.004955
1109.2	0.003515
1118.84	0.001715
1128.49	0.001485
1138.13	0.0009848
1147.78	0.0011386
1157.42	0.001415
1167.07	0.001585
1176.71	0.003665
1186.36	0.004425
1196	0.001485
1205.64	0.001825
1215.29	0.003215
1224.93	0.006555
1234.58	0.009955
1244.22	0.011905
1253.87	0.011045
1263.51	0.007505
1273.16	0.005585
1282.8	0.004275
1292.45	0.003925
1302.09	0.003805
1311.74	0.003965
1321.38	0.004035
1331.03	0.004345
1340.67	0.004145
1350.32	0.004095
1359.96	0.004445
1369.61	0.005425
1379.25	0.007715
1388.9	0.012475
1398.54	0.023165
1408.18	0.043835
1417.83	0.053945
1427.47	0.034875
1437.12	0.019475
1446.76	0.019355
1456.41	0.021095
1466.05	0.012535
1475.7	0.008715
1485.34	0.006965
1494.99	0.008875
1504.63	0.008775
1514.28	0.005325
1523.92	0.003925
1533.57	0.003315
1543.21	0.003095
1552.86	0.002975
1562.5	0.003235
1572.15	0.003905
1581.79	0.004515
1591.44	0.003725
1601.08	0.003965
1610.73	0.003605
1620.37	0.003795
1630.01	0.005035
1639.66	0.007615
1649.3	0.012755
1658.95	0.021345
1668.59	0.026475
1678.24	0.023835
1687.88	0.019165
1697.53	0.015295
1707.17	0.012355
1716.82	0.010685
1726.46	0.008905
1736.11	0.006425
1745.75	0.005215
1755.4	0.004825
1765.04	0.003765
1774.69	0.002665
1784.33	0.001645
1793.98	0.001485
1803.62	0.001665
1813.27	0.0012404
1822.91	0.0009115
1832.55	0.0007857
1842.2	0.0006864
1851.84	0.0006864
1861.49	0.000676
1871.13	0.0007545
1880.78	0.0008404
1890.42	0.0009921
1900.07	0.0011621
1909.71	0.0010582
1919.36	0.0007629
1929	0.0007726
1938.65	0.0007116
1948.29	0.0008947
1957.94	0.0010444
1967.58	0.0011269
1977.23	0.0008144
1986.87	0.0005556
1996.52	0.0004903
2006.16	0.0005714
2015.81	0.00043488
2025.45	0.00042228
2035.1	0.0004868
2044.74	0.0003855
2054.38	0.00042432
2064.03	0.000444
2073.67	0.0005489
2083.32	0.00041933
2092.96	0.0004953
2102.61	0.0005055
2112.25	0.0004681
2121.9	0.0004809
2131.54	0.0004948
2141.19	0.0004519
2150.83	0.0005506
2160.48	0.00042375
2170.12	0.0004972
2179.77	0.0005418
2189.41	0.000461
2199.06	0.0003188
2208.7	0.0005229
2218.35	0.0003297
2227.99	0.000350488
2237.64	0.00037972
2247.28	0.0003313
2256.92	0.00036454
2266.57	0.00042081
2276.21	0.0004582
2285.86	0.00039618
2295.5	0.00040782
2305.15	0.00037174
2314.79	0.0005675
2324.44	0.0006405
2334.08	0.0005648
2343.73	0.000673
2353.37	0.0005569
2363.02	0.0006243
2372.66	0.0004613
2382.31	0.000492
2391.95	0.000589
2401.6	0.0004539
2411.24	0.00043488
2420.89	0.0004741
2430.53	0.0004714
2440.18	0.000513
2449.82	0.00042071
2459.47	0.00043246
2469.11	0.0005137
2478.75	0.0004823
2488.4	0.0005198
2498.04	0.0004633
2507.69	0.0005091
2517.33	0.000433
2526.98	0.0004819
2536.62	0.0002829
2546.27	0.0004627
2555.91	0.00040349
2565.56	0.00042919
2575.2	0.00037166
2584.85	0.0004931
2594.49	0.00040668
2604.14	0.00040014
2613.78	0.00043196
2623.43	0.00044172
2633.07	0.00041106
2642.72	0.0004732
2652.36	0.0004478
2662.01	0.000351028
2671.65	0.00037986
2681.29	0.00036075
2690.94	0.00033797
2700.58	0.0003123
2710.23	0.00041929
2719.87	0.0003197
2729.52	0.00039016
2739.16	0.00038251
2748.81	0.000349433
2758.45	0.0005216
2768.1	0.000354618
2777.74	0.0004632
2787.39	0.0002985
2797.03	0.00039908
2806.68	0.00036941
2816.32	0.0002508
2825.97	0.00033957
2835.61	0.0004665
2845.26	0.00039344
2854.9	0.00043417
2864.55	0.00040096
2874.19	0.000353446
2883.84	0.000352643
2893.48	0.0005104
2903.12	0.0004771
2912.77	0.0005695
2922.41	0.0004689
2932.06	0.000476
2941.7	0.0005406
2951.35	0.0003276
2960.99	0.0005229
2970.64	0.0005049
2980.28	0.0005803
2989.93	0.00041277
2999.57	0.0006952
3009.22	0.0009225
3018.86	0.0012064
3028.51	0.002035
3038.15	0.003485
3047.8	0.002645
3057.44	0.003125
3067.09	0.005925
3076.73	0.007575
3086.38	0.004145
3096.02	0.003245
3105.67	0.002315
3115.31	0.001495
3124.95	0.0007233
3134.6	0.0006304
3144.24	0.0004647
3153.89	0.0006125
3163.53	0.0005989
3173.18	0.000233
3182.82	0.0003053
3192.47	0.0003666
3202.11	0.0005334
3211.76	0.000219
3221.4	0.000149
3231.05	0.000353801
3240.69	0.00044123
3250.34	0.000346494
3259.98	0.000281
3269.63	0.0005573
3279.27	0.0003284
3288.92	0.00037804
3298.56	0.0005921
3308.21	0.0004863
3317.85	0.0006592
3327.49	0.0007476
3337.14	0.0009686
3346.78	0.0010682
3356.43	0.001535
3366.07	0.001905
3375.72	0.002095
3385.36	0.003225
3395.01	0.004465
3404.65	0.006195
3414.3	0.007215
3423.94	0.006485
3433.59	0.004635
3443.23	0.003305
3452.88	0.002465
3462.52	0.001705
3472.17	0.0009845
3481.81	0.0007172
3491.46	0.0005811
3501.1	0.0006069
3510.75	0.00040193
3520.39	0.000235
3530.04	0.00035901
3539.68	0.0002488
3549.32	0.000148
3558.97	0.00038299
3568.61	0.0003242
3578.26	0.00034396
3587.9	0.00039324
3597.55	0.000239
3607.19	0.0002949
3616.84	7.9e-05
3626.48	0.000222
3636.13	0.000354638
3645.77	4.1e-05
3655.42	0.00044207
3665.06	0.0004507
3674.71	1.2e-05
3684.35	0.000312
3694	0.00033801
3703.64	0.0003175
3713.29	0.0005597
3722.93	0.000354256
3732.58	0.000217
3742.22	0.00039818
3751.86	0.0004209
3761.51	0.000213
3771.15	0.000157
3780.8	0.00035513
3790.44	0.00033991
3800.09	0.00040592
3809.73	0.000338
3819.38	0.000353042
3829.02	0.000175
3838.67	0.000123
3848.31	0.000346593
3857.96	0.0003073
3867.6	0.000204
3877.25	0.000159
3886.89	0.0002607
3896.54	0.0003277
3906.18	7.5e-05
3915.83	0.000242
3925.47	0.000166
3935.12	0.00034266
3944.76	0.000239
3954.41	0.000148
3964.05	6.2e-05
3973.69	2.7e-05
3983.34	0.000201
3992.98	0.000145
