Infrared Spectrum: ETHYLENE GLYCOL BIS(Alpha-METHYLBENZYL) ETHER
Formula: C18 H22 O2
CAS: 78759-31-6
State: SOLUTION (10% CCl4 FOR 5000-1330, 10% CS2 FOR 1330-625 CM^-^1)
Class: COBLENTZ
Instrument: Not specified, most likely a prism, grating, or hybrid spectrometer.
Sampling: TRANSMISSION
Path length: 0.0117 CM, 0.0110 CM
Resolution: 4
Origin: DOW CHEMICAL COMPANY
MICROMETERS	TRANSMITTANCE
2.027	0.9
2.0681	0.897
2.10919	0.892
2.15029	0.892
2.19139	0.892
2.23249	0.888
2.27358	0.878
2.31468	0.878
2.35578	0.88
2.39687	0.883
2.43797	0.871
2.47907	0.88
2.52016	0.89
2.56126	0.897
2.60236	0.902
2.64346	0.9
2.68455	0.897
2.72565	0.897
2.76675	0.897
2.80784	0.897
2.84894	0.895
2.89004	0.894
2.93113	0.902
2.97223	0.9
3.01333	0.902
3.05443	0.902
3.09552	0.894
3.13662	0.89
3.17772	0.868
3.21881	0.74
3.25991	0.635
3.30101	0.603
3.34211	0.553
3.3832	0.485
3.4243	0.451
3.4654	0.394
3.50649	0.572
3.54759	0.788
3.58869	0.827
3.62978	0.851
3.67088	0.871
3.71198	0.878
3.75308	0.888
3.79417	0.887
3.83527	0.873
3.87637	0.892
3.91746	0.904
3.95856	0.905
3.99966	0.909
4.04075	0.909
4.08185	0.905
4.12295	0.909
4.16405	0.905
4.20514	0.895
4.24624	0.899
4.28734	0.894
4.32843	0.892
4.36953	0.894
4.41063	0.895
4.45173	0.9
4.49282	0.904
4.53392	0.905
4.57502	0.904
4.61611	0.905
4.65721	0.907
4.69831	0.911
4.7394	0.911
4.7805	0.914
4.8216	0.914
4.8627	0.914
4.90379	0.912
4.94489	0.905
4.98599	0.9
5.02708	0.892
5.06818	0.866
5.10928	0.835
5.15037	0.851
5.19147	0.897
5.23257	0.897
5.27367	0.87
5.31476	0.847
5.35586	0.873
5.39696	0.902
5.43805	0.897
5.47915	0.883
5.52025	0.858
5.56135	0.885
5.60244	0.904
5.64354	0.902
5.68464	0.878
5.72573	0.88
5.76683	0.904
5.80793	0.909
5.84902	0.914
5.89012	0.914
5.93122	0.905
5.97232	0.895
6.01341	0.897
6.05451	0.902
6.09561	0.907
6.1367	0.885
6.1778	0.841
6.2189	0.733
6.25999	0.694
6.30109	0.644
6.34219	0.63
6.38329	0.593
6.42438	0.519
6.46548	0.488
6.50658	0.572
6.54767	0.642
6.58877	0.682
6.62987	0.711
6.67097	0.589
6.71206	0.576
6.75316	0.803
6.79426	0.77
6.83535	0.618
6.87645	0.3
6.91755	0.608
6.95864	0.803
6.99974	0.841
7.04084	0.852
7.08194	0.854
7.12303	0.842
7.16413	0.829
7.20523	0.777
7.24632	0.683
7.28742	0.429
7.32852	0.622
7.36961	0.611
7.41071	0.531
7.45181	0.639
7.49291	0.68
7.534	0.55
7.5751	0.54
7.6162	0.577
7.65729	0.538
7.69839	0.577
7.73949	0.601
7.78058	0.505
7.82168	0.596
7.86278	0.741
7.90388	0.772
7.94497	0.77
7.98607	0.736
8.02717	0.707
8.06826	0.709
8.10936	0.757
8.15046	0.762
8.19156	0.728
8.23265	0.598
8.27375	0.439
8.31485	0.482
8.35594	0.695
8.39704	0.731
8.43814	0.741
8.47923	0.716
8.52033	0.699
8.56143	0.699
8.60253	0.675
8.64362	0.625
8.68472	0.581
8.72582	0.536
8.76691	0.487
8.80801	0.408
8.84911	0.29
8.8902	0.179
8.9313	0.117
8.9724	0.088
9.0135	0.058
9.05459	0.044
9.09569	0.041
9.13679	0.047
9.17788	0.073
9.21898	0.116
9.26008	0.174
9.30118	0.244
9.34227	0.27
9.38337	0.254
9.42447	0.304
9.46556	0.471
9.50666	0.61
9.54776	0.663
9.58885	0.695
9.62995	0.702
9.67105	0.627
9.71215	0.49
9.75324	0.478
9.79434	0.605
9.83544	0.594
9.87653	0.511
9.91763	0.473
9.95873	0.569
9.99982	0.617
10.0409	0.582
10.082	0.622
10.1231	0.692
10.1642	0.743
10.2053	0.755
10.2464	0.765
10.2875	0.777
10.3286	0.757
10.3697	0.714
10.4108	0.671
10.4519	0.623
10.493	0.601
10.5341	0.6
10.5752	0.61
10.6163	0.649
10.6574	0.668
10.6985	0.685
10.7396	0.709
10.7807	0.723
10.8218	0.723
10.8629	0.721
10.904	0.723
10.9451	0.721
10.9862	0.651
11.0273	0.63
11.0683	0.716
11.1094	0.764
11.1505	0.779
11.1916	0.784
11.2327	0.788
11.2738	0.777
11.3149	0.743
11.356	0.714
11.3971	0.692
11.4382	0.682
11.4793	0.676
11.5204	0.666
11.5615	0.651
11.6026	0.627
11.6437	0.598
11.6848	0.57
11.7259	0.562
11.767	0.569
11.8081	0.588
11.8492	0.623
11.8903	0.664
11.9314	0.712
11.9725	0.753
12.0136	0.781
12.0547	0.798
12.0958	0.811
12.1369	0.82
12.178	0.825
12.2191	0.83
12.2602	0.837
12.3013	0.839
12.3424	0.842
12.3835	0.842
12.4245	0.842
12.4656	0.842
12.5067	0.842
12.5478	0.841
12.5889	0.837
12.63	0.829
12.6711	0.815
12.7122	0.801
12.7533	0.786
12.7944	0.769
12.8355	0.741
12.8766	0.712
12.9177	0.671
12.9588	0.617
12.9999	0.562
13.041	0.492
13.0821	0.37
13.1232	0.201
13.1643	0.107
13.2054	0.09
13.2465	0.136
13.2876	0.247
13.3287	0.34
13.3698	0.439
13.4109	0.511
13.452	0.56
13.4931	0.593
13.5342	0.623
13.5753	0.654
13.6164	0.676
13.6575	0.685
13.6986	0.695
13.7397	0.699
13.7808	0.702
13.8218	0.702
13.8629	0.69
13.904	0.68
13.9451	0.656
13.9862	0.635
14.0273	0.601
14.0684	0.558
14.1095	0.492
14.1506	0.393
14.1917	0.241
14.2328	0.114
14.2739	0.047
14.315	0.025
14.3561	0.083
14.3972	0.191
14.4383	0.328
14.4794	0.427
14.5205	0.505
14.5616	0.547
14.6027	0.569
14.6438	0.584
14.6849	0.589
14.726	0.593
14.7671	0.594
14.8082	0.594
14.8493	0.589
14.8904	0.582
14.9315	0.579
14.9726	0.574
15.0137	0.57
15.0548	0.564
15.0959	0.55
15.137	0.545
15.1781	0.54
15.2191	0.533
15.2602	0.528
15.3013	0.521
15.3424	0.514
15.3835	0.512
15.4246	0.511
15.4657	0.507
15.5068	0.502
15.5479	0.502
15.589	0.502
15.6301	0.499
15.6712	0.499
15.7123	0.497
15.7534	0.497
15.7945	0.497
15.8356	0.497
15.8767	0.497
