Infrared Spectrum: Salicylidene p-aminoacetophenone
Formula: C 15 H 13 N O 2
CAS: 788-23-8
State: gas
Origin: EPA-IR VAPOR PHASE LIBRARY
1/CM	ABSORBANCE
551.7	0.0037
563.274	0.00392
574.848	0.0089
586.421	0.01067
597.995	0.0111
609.569	0.00931
621.143	0.02781
632.717	0.01835
644.291	0.00494
655.864	0.00324
667.438	0.00308
679.012	0.00357
690.586	0.00449
702.16	0.00597
713.734	0.00864
725.307	0.01243
736.881	0.02053
748.455	0.03766
760.029	0.02714
771.603	0.01114
783.177	0.00717
794.75	0.0058
806.324	0.00686
817.898	0.01104
829.472	0.02028
841.046	0.02833
852.619	0.02057
864.193	0.0096
875.767	0.00525
887.341	0.00492
898.915	0.00923
910.489	0.0361
922.062	0.00791
933.636	0.00746
945.21	0.01543
956.784	0.02085
968.358	0.00964
979.932	0.0082
991.505	0.00557
1003.08	0.00747
1014.65	0.01203
1026.23	0.00688
1037.8	0.00555
1049.37	0.00387
1060.95	0.00374
1072.52	0.0048
1084.1	0.00467
1095.67	0.00668
1107.24	0.00979
1118.82	0.01455
1130.39	0.00903
1141.97	0.02342
1153.54	0.05003
1165.11	0.06779
1176.69	0.06107
1188.26	0.04467
1199.83	0.02846
1211.41	0.02197
1222.98	0.03022
1234.56	0.03193
1246.13	0.04994
1257.7	0.12251
1269.28	0.06276
1280.85	0.05078
1292.42	0.03532
1304	0.01909
1315.57	0.01031
1327.15	0.008
1338.72	0.00973
1350.29	0.02002
1361.87	0.04476
1373.44	0.0261
1385.02	0.01737
1396.59	0.01735
1408.16	0.0242
1419.74	0.01729
1431.31	0.01454
1442.88	0.01462
1454.46	0.01887
1466.03	0.02817
1477.61	0.0365
1489.18	0.03466
1500.75	0.02613
1512.33	0.01741
1523.9	0.01472
1535.48	0.01494
1547.05	0.02144
1558.62	0.04094
1570.2	0.0902
1581.77	0.1065
1593.34	0.13652
1604.92	0.0938
1616.49	0.09847
1628.07	0.11859
1639.64	0.03687
1651.21	0.01889
1662.79	0.01547
1674.36	0.01617
1685.93	0.02916
1697.51	0.08373
1709.08	0.07283
1720.66	0.02111
1732.23	0.0093
1743.8	0.00689
1755.38	0.0062
1766.95	0.00459
1778.53	0.00425
1790.1	0.00407
1801.67	0.00285
1813.25	0.00261
1824.82	0.00268
1836.39	0.00208
1847.97	0.00192
1859.54	0.00232
1871.12	0.00268
1882.69	0.00284
1894.26	0.00301
1905.84	0.00324
1917.41	0.00246
1928.99	0.00275
1940.56	0.00421
1952.13	0.00249
1963.71	0.00192
1975.28	0.00159
1986.85	0.00141
1998.43	0.00141
2010	0.00155
2021.58	0.00171
2033.15	0.00148
2044.72	0.0014
2056.3	0.00157
2067.87	0.00175
2079.44	0.00173
2091.02	0.00148
2102.59	0.00128
2114.17	0.00111
2125.74	0.00111
2137.31	0.00106
2148.89	0.00104
2160.46	0.00105
2172.04	0.00115
2183.61	0.00129
2195.18	0.00141
2206.76	0.00151
2218.33	0.00151
2229.9	0.0015
2241.48	0.00137
2253.05	0.00138
2264.63	0.0017
2276.2	0.00161
2287.77	0.00157
2299.35	0.0018
2310.92	0.00194
2322.5	0.00215
2334.07	0.00232
2345.64	0.00239
2357.22	0.00225
2368.79	0.00214
2380.36	0.00225
2391.94	0.00237
2403.51	0.00248
2415.09	0.00237
2426.66	0.00247
2438.23	0.00267
2449.81	0.00269
2461.38	0.00273
2472.96	0.00271
2484.53	0.00286
2496.1	0.00311
2507.68	0.00357
2519.25	0.00375
2530.82	0.00373
2542.4	0.00392
2553.97	0.00418
2565.55	0.00455
2577.12	0.00465
2588.69	0.00464
2600.27	0.00488
2611.84	0.00508
2623.41	0.00525
2634.99	0.00536
2646.56	0.00536
2658.14	0.00529
2669.71	0.00515
2681.28	0.00509
2692.86	0.00526
2704.43	0.00594
2716.01	0.00652
2727.58	0.00669
2739.15	0.00702
2750.73	0.00748
2762.3	0.00782
2773.87	0.00776
2785.45	0.00747
2797.02	0.00744
2808.6	0.00766
2820.17	0.00797
2831.74	0.00864
2843.32	0.00975
2854.89	0.01069
2866.47	0.01126
2878.04	0.01289
2889.61	0.01497
2901.19	0.0132
2912.76	0.01132
2924.33	0.0114
2935.91	0.01232
2947.48	0.01198
2959.06	0.01182
2970.63	0.01298
2982.2	0.01426
2993.78	0.01567
3005.35	0.01653
3016.92	0.0185
3028.5	0.01765
3040.07	0.0195
3051.65	0.02071
3063.22	0.02235
3074.79	0.0271
3086.37	0.02196
3097.94	0.01833
3109.52	0.01581
3121.09	0.0138
3132.66	0.01276
3144.24	0.01246
3155.81	0.01244
3167.38	0.01254
3178.96	0.01238
3190.53	0.01191
3202.11	0.01134
3213.68	0.01135
3225.25	0.01154
3236.83	0.01139
3248.4	0.0107
3259.98	0.00992
3271.55	0.00934
3283.12	0.00873
3294.7	0.00812
3306.27	0.0076
3317.84	0.00713
3329.42	0.00656
3340.99	0.00603
3352.57	0.00549
3364.14	0.00521
3375.71	0.00531
3387.29	0.00572
3398.86	0.00451
3410.43	0.00355
3422.01	0.00297
3433.58	0.00259
3445.16	0.00225
3456.73	0.00196
3468.3	0.00177
3479.88	0.00147
3491.45	0.00142
3503.03	0.00119
3514.6	0.00105
3526.17	0.0009029
3537.75	0.0008806
3549.32	0.0007735
3560.89	0.0007879
3572.47	0.0006704
3584.04	0.0006535
3595.62	0.000576
3607.19	0.0006051
3618.76	0.0004859
3630.34	0.0006177
3641.91	0.0006014
3653.49	0.000683
3665.06	0.0004757
3676.63	0.0004978
3688.21	0.0004823
3699.78	0.0003509
3711.35	0.000316
3722.93	0.0003283
3734.5	0.0003064
3746.08	0.0003552
3757.65	0.0003692
3769.22	0.0003394
3780.8	0.0003794
3792.37	0.0003645
3803.94	0.0004051
3815.52	0.0002564
3827.09	0.0004005
3838.67	0.0003227
3850.24	0.0004176
3861.81	0.000407
3873.39	0.000467
3884.96	0.0003828
3896.54	0.0003969
3908.11	0.0004201
3919.68	0.0004599
3931.26	0.0005079
3942.83	0.0005438
3954.4	0.0005683
3965.98	0.0006259
3977.55	0.0003892
3989.13	0.0004193
4000.7	0.000346
