Infrared Spectrum: Triphenylsilane
Formula: C 18 H 16 Si
CAS: 789-25-3
State: gas
Instrument: HP-GC/MS/IRD
Origin: NIST Mass Spectrometry Data Center
1/CM	ABSORBANCE
550	0.000225
562	1.5e-05
574	0.000255
586	0.00021
598	0.000255
610	0.00024
622	0.000345
634	0.00033
646	0.00069
658	0.0012975
670	0.0032325
682	0.0063075
694	0.0138825
706	0.013665
718	0.014475
730	0.0216825
742	0.0101775
754	0.004815
766	0.00339
778	0.0029175
790	0.00579
802	0.0342975
814	0.053025
826	0.007665
838	0.002805
850	0.002865
862	0.0027675
874	0.0019875
886	0.00108
898	0.0006825
910	0.0005025
922	0.0003825
934	0.00036
946	0.0003825
958	0.0004425
970	0.0004275
982	0.00036
994	0.00087
1006	0.0005775
1018	0.0003525
1030	0.00075
1042	0.0003675
1054	0.0007125
1066	0.001215
1078	0.001785
1090	0.00381
1102	0.0102
1114	0.0187275
1126	0.00777
1138	0.0019725
1150	0.000975
1162	0.0007275
1174	0.00084
1186	0.0020925
1198	0.0015825
1210	0.000435
1222	0.0003675
1234	0.000465
1246	0.0007125
1258	0.0009075
1270	0.0009
1282	0.0007725
1294	0.00093
1306	0.0008475
1318	0.0010275
1330	0.0010725
1342	0.00066
1354	0.0005175
1366	0.0006
1378	0.0005025
1390	0.0004875
1402	0.0007575
1414	0.0020775
1426	0.00576
1438	0.0035325
1450	0.001125
1462	0.0006375
1474	0.0006
1486	0.00117
1498	0.00045
1510	0.00027
1522	0.0002325
1534	0.000375
1546	0.000495
1558	0.0006
1570	0.00078
1582	0.000795
1594	0.0005775
1606	0.00048
1618	0.000405
1630	0.00036
1642	0.00075
1654	0.0004575
1666	0.00024
1678	0.00021
1690	0.0001725
1702	0.0001425
1714	0.000165
1726	0.0001575
1738	0.000165
1750	0.0002925
1762	0.00039
1774	0.0004275
1786	0.00036
1798	0.0005775
1810	0.0012075
1822	0.00093
1834	0.00048
1846	0.0002775
1858	0.000315
1870	0.00057
1882	0.000915
1894	0.0010425
1906	0.000405
1918	0.0002775
1930	0.0003225
1942	0.0006675
1954	0.0009525
1966	0.00084
1978	0.0002775
1990	0.00012
2002	0.0001125
2014	9e-05
2026	9.75e-05
2038	9.75e-05
2050	0.000135
2062	0.0002475
2074	0.000195
2086	0.0002475
2098	0.00051
2110	0.0014625
2122	0.006915
2134	0.02157
2146	0.00303
2158	0.0005175
2170	0.0002925
2182	0.00024
2194	0.000195
2206	0.000135
2218	0.00015
2230	0.000105
2242	6.75e-05
2254	7.5e-05
2266	7.5e-05
2278	0.000105
2290	0.0001275
2302	0.0001425
2314	0.0002325
2326	8.25e-05
2338	6e-05
2350	9.75e-05
2362	3.75e-05
2374	2.25e-05
2386	6.75e-05
2398	6e-05
2410	3e-05
2422	3.75e-05
2434	2.25e-05
2446	7.5e-06
2458	2.25e-05
2470	0
2482	2.25e-05
2494	1.5e-05
2506	1.5e-05
2518	2.25e-05
2530	3e-05
2542	2.25e-05
2554	4.5e-05
2566	6.75e-05
2578	0.0001125
2590	0.000135
2602	9e-05
2614	0.00012
2626	4.5e-05
2638	5.25e-05
2650	3e-05
2662	6.75e-05
2674	8.25e-05
2686	0.000135
2698	0.0001425
2710	8.25e-05
2722	3.75e-05
2734	7.5e-06
2746	7.5e-06
2758	0
2770	3e-05
2782	3e-05
2794	7.5e-05
2806	0.0001425
2818	0.000165
2830	0.00012
2842	0.00012
2854	0.0001425
2866	9e-05
2878	0.000135
2890	0.000225
2902	0.0003
2914	0.000345
2926	0.00024
2938	0.000225
2950	0.00024
2962	0.0002925
2974	0.0005175
2986	0.0010875
2998	0.0025125
3010	0.004875
3022	0.0051375
3034	0.003405
3046	0.005445
3058	0.01581
3070	0.0122925
3082	0.008325
3094	0.0043425
3106	0.0012975
3118	0.0008025
3130	0.0009225
3142	0.0007425
3154	0.000225
3166	0.0001575
3178	0.0001125
3190	9.75e-05
3202	7.5e-05
3214	7.5e-05
3226	6.75e-05
3238	7.5e-05
3250	7.5e-05
3262	7.5e-05
3274	4.5e-05
3286	6.75e-05
3298	3e-05
3310	5.25e-05
3322	3.75e-05
3334	5.25e-05
3346	2.25e-05
3358	5.25e-05
3370	5.25e-05
3382	3.75e-05
3394	6.75e-05
3406	7.5e-06
3418	6e-05
3430	4.5e-05
3442	3.75e-05
3454	6e-05
3466	6.75e-05
3478	2.25e-05
3490	4.5e-05
3502	6.75e-05
3514	3.75e-05
3526	6.75e-05
3538	8.25e-05
3550	6.75e-05
3562	5.25e-05
3574	4.5e-05
3586	5.25e-05
3598	6.75e-05
3610	6e-05
3622	9e-05
3634	0.0001275
3646	8.25e-05
3658	9e-05
3670	0.00012
3682	0.000135
3694	0.00018
3706	0.000135
3718	0.0001125
3730	0.00015
3742	0.00015
3754	0.000165
3766	9.75e-05
3778	0.00012
3790	9e-05
3802	6e-05
3814	8.25e-05
3826	7.5e-05
3838	8.25e-05
