Infrared Spectrum: 2-Aminochrysene
Formula: C 18 H 13 N
CAS: 789-47-9
State: gas
Origin: EPA-IR VAPOR PHASE LIBRARY
1/CM	ABSORBANCE
549.8	0.0033
559.445	0.00331
569.09	0.00328
578.734	0.00328
588.379	0.00304
598.024	0.00316
607.669	0.00257
617.313	0.00273
626.958	0.00291
636.603	0.00315
646.248	0.00387
655.893	0.00313
665.537	0.00212
675.182	0.00297
684.827	0.00348
694.472	0.00224
704.116	0.002
713.761	0.00273
723.406	0.0024
733.051	0.00328
742.695	0.00915
752.34	0.02256
761.985	0.00881
771.63	0.0029
781.275	0.00239
790.919	0.00238
800.564	0.00416
810.209	0.00713
819.854	0.00313
829.498	0.00204
839.143	0.00317
848.788	0.00275
858.433	0.00288
868.078	0.00245
877.722	0.00219
887.367	0.00198
897.012	0.00171
906.657	0.001392
916.301	0.0010384
925.946	0.0018
935.591	0.00169
945.236	0.0013896
954.88	0.0015189
964.525	0.001093
974.17	0.0011823
983.815	0.00156
993.46	0.0008128
1003.1	0.0010943
1012.75	0.0012555
1022.39	0.0012414
1032.04	0.00251
1041.68	0.00233
1051.33	0.00156
1060.97	0.0008232
1070.62	0.0006756
1080.26	0.0008443
1089.91	0.0007227
1099.55	0.000166
1109.2	0.000145
1118.84	0.000139
1128.49	0.0009833
1138.13	0.00051607
1147.78	0.000321
1157.42	0.000322
1167.07	0.0010644
1176.71	0.0011
1186.36	0.0007065
1196	0.00104
1205.64	0.001261
1215.29	0.0013364
1224.93	0.00264
1234.58	0.00285
1244.22	0.00308
1253.87	0.00278
1263.51	0.00284
1273.16	0.0010177
1282.8	0.0011917
1292.45	0.0012969
1302.09	0.0013768
1311.74	0.00093
1321.38	0.0010568
1331.03	0.0013628
1340.67	0.00152
1350.32	0.0014012
1359.96	0.0014219
1369.61	0.00223
1379.25	0.00377
1388.9	0.00307
1398.54	0.0018
1408.18	0.002
1417.83	0.00287
1427.47	0.00428
1437.12	0.00575
1446.76	0.00489
1456.41	0.00289
1466.05	0.00179
1475.7	0.00232
1485.34	0.00437
1494.99	0.00293
1504.63	0.00213
1514.28	0.00326
1523.92	0.0046
1533.57	0.00256
1543.21	0.0014226
1552.86	0.0013834
1562.5	0.0015199
1572.15	0.00243
1581.79	0.0031
1591.44	0.00553
1601.08	0.00677
1610.73	0.00764
1620.37	0.01119
1630.01	0.01481
1639.66	0.00879
1649.3	0.0037
1658.95	0.00236
1668.59	0.00207
1678.24	0.00202
1687.88	0.0017
1697.53	0.0014377
1707.17	0.0013703
1716.82	0.0013772
1726.46	0.0012125
1736.11	0.001286
1745.75	0.0017
1755.4	0.0012884
1765.04	0.0009292
1774.69	0.0010494
1784.33	0.001202
1793.98	0.0011992
1803.62	0.0012746
1813.27	0.0011214
1822.91	0.0012085
1832.55	0.0010456
1842.2	0.000793
1851.84	0.0009078
1861.49	0.0009388
1871.13	0.0011392
1880.78	0.0012188
1890.42	0.0010986
1900.07	0.0011509
1909.71	0.0011282
1919.36	0.001062
1929	0.0013285
1938.65	0.00154
1948.29	0.0009786
1957.94	0.0008877
1967.58	0.0007365
1977.23	0.0008113
1986.87	0.0008532
1996.52	0.0008074
2006.16	0.0007601
2015.81	0.0007953
2025.45	0.0007367
2035.1	0.0006933
2044.74	0.0006285
2054.38	0.0009011
2064.03	0.0007348
2073.67	0.0009021
2083.32	0.0007655
2092.96	0.0007474
2102.61	0.0007076
2112.25	0.0007282
2121.9	0.0008047
2131.54	0.0007648
2141.19	0.0006579
2150.83	0.0008602
2160.48	0.0006488
2170.12	0.0006512
2179.77	0.0006336
2189.41	0.0006572
2199.06	0.0007395
2208.7	0.0007642
2218.35	0.0007634
2227.99	0.0008193
2237.64	0.0006512
2247.28	0.0007594
2256.92	0.0008015
2266.57	0.0007469
2276.21	0.0007007
2285.86	0.0006683
2295.5	0.0008252
2305.15	0.0007375
2314.79	0.0007692
2324.44	0.0007902
2334.08	0.0008035
2343.73	0.0009194
2353.37	0.0008367
2363.02	0.0008414
2372.66	0.000736
2382.31	0.0007203
2391.95	0.000744
2401.6	0.0006781
2411.24	0.0007883
2420.89	0.0007705
2430.53	0.0007268
2440.18	0.0007505
2449.82	0.0006886
2459.47	0.0009377
2469.11	0.0007414
2478.75	0.0007349
2488.4	0.0008918
2498.04	0.0006943
2507.69	0.0007932
2517.33	0.0006738
2526.98	0.0007016
2536.62	0.0008008
2546.27	0.00059809
2555.91	0.0007607
2565.56	0.0007989
2575.2	0.0007492
2584.85	0.0008431
2594.49	0.0007119
2604.14	0.0006891
2613.78	0.0006818
2623.43	0.0008064
2633.07	0.0009504
2642.72	0.0008344
2652.36	0.0007368
2662.01	0.0007505
2671.65	0.0009198
2681.29	0.000845
2690.94	0.0007795
2700.58	0.0006996
2710.23	0.0007277
2719.87	0.0006561
2729.52	0.000828
2739.16	0.0007131
2748.81	0.0006655
2758.45	0.0007179
2768.1	0.0007324
2777.74	0.00051228
2787.39	0.0007311
2797.03	0.0006952
2806.68	0.0007854
2816.32	0.0006408
2825.97	0.0008217
2835.61	0.0007403
2845.26	0.0008364
2854.9	0.0008321
2864.55	0.0008536
2874.19	0.0007569
2883.84	0.0008264
2893.48	0.0008798
2903.12	0.0008175
2912.77	0.0008947
2922.41	0.0008831
2932.06	0.0009581
2941.7	0.0009398
2951.35	0.0009364
2960.99	0.0011413
2970.64	0.0008765
2980.28	0.0010137
2989.93	0.0010858
2999.57	0.0013985
3009.22	0.00177
3018.86	0.00247
3028.51	0.00322
3038.15	0.00385
3047.8	0.00474
3057.44	0.00654
3067.09	0.00828
3076.73	0.00766
3086.38	0.00637
3096.02	0.00491
3105.67	0.00256
3115.31	0.00172
3124.95	0.0011745
3134.6	0.0006559
3144.24	0.0008545
3153.89	0.0007598
3163.53	0.0007046
3173.18	0.00058577
3182.82	0.0011347
3192.47	0.0007795
3202.11	0.0010396
3211.76	0.0006543
3221.4	0.0007577
3231.05	0.0008859
3240.69	0.0008446
3250.34	0.0006656
3259.98	0.0007872
3269.63	0.00056873
3279.27	0.0006578
3288.92	0.0006465
3298.56	0.00055455
3308.21	0.0006628
3317.85	0.000402
3327.49	0.00058958
3337.14	0.0008622
3346.78	0.00056522
3356.43	0.0006358
3366.07	0.00055582
3375.72	0.000768
3385.36	0.0008718
3395.01	0.001199
3404.65	0.00195
3414.3	0.0010213
3423.94	0.0005061
3433.59	0.0006973
3443.23	0.0007484
3452.88	0.0008034
3462.52	0.0007308
3472.17	0.0008336
3481.81	0.00177
3491.46	0.0014271
3501.1	0.0009362
3510.75	0.0007071
3520.39	0.0009157
3530.04	0.0006764
3539.68	0.0007052
3549.32	0.000467
3558.97	0.0006757
3568.61	0.00061178
3578.26	0.00057935
3587.9	0.0006224
3597.55	0.0004827
3607.19	0.0006673
3616.84	0.000345
3626.48	0.000628
3636.13	0.0006639
3645.77	0.00056728
3655.42	0.0004285
3665.06	0.000468
3674.71	0.00053455
3684.35	0.0007506
3694	0.0007717
3703.64	0.00059408
3713.29	0.000685
3722.93	0.0005447
3732.58	0.00055505
3742.22	0.0004792
3751.86	0.00056918
3761.51	0.0008102
3771.15	0.000657
3780.8	0.00059235
3790.44	0.0004396
3800.09	0.000214
3809.73	0.00059172
3819.38	0.0004423
3829.02	0.0007066
3838.67	0.00056926
3848.31	0.0004891
3857.96	0.000408
3867.6	0.0008146
3877.25	0.00048
3886.89	0.00060329
3896.54	0.00061388
3906.18	0.00056337
3915.83	0.0006914
3925.47	0.00051575
3935.12	0.0007678
3944.76	0.00051281
3954.41	0.0005009
3964.05	0.000298
3973.69	0.00056759
3983.34	0.000831
3992.98	0.00059091
