Infrared Spectrum: o,p'-DDT
Formula: C 14 H 9 Cl 5
CAS: 789-02-6
State: gas
Instrument: HP-GC/MS/IRD
Origin: NIST Mass Spectrometry Data Center
1/CM	ABSORBANCE
550	0.0005713
562	0.0004872
574	0.0005394
586	0.0007105
598	0.0019082
610	0.0076676
622	0.0036076
634	0.0020967
646	0.0022823
658	0.0041325
670	0.0027927
682	0.0037961
694	0.0030885
706	0.0035032
718	0.0038106
730	0.0041615
742	0.0094888
754	0.0109417
766	0.0102631
778	0.029
790	0.0118233
802	0.0041267
814	0.0045559
826	0.0051649
838	0.0070731
850	0.005481
862	0.002871
874	0.0019894
886	0.0022533
898	0.0026651
910	0.0014645
922	0.0012412
934	0.0013079
946	0.0015515
958	0.001276
970	0.0014094
982	0.0015892
994	0.0020155
1006	0.0036511
1018	0.0089929
1030	0.0040339
1042	0.0068498
1054	0.0049184
1066	0.0021837
1078	0.0023693
1090	0.0080504
1102	0.0075226
1114	0.0035583
1126	0.0023925
1138	0.0014819
1150	0.000609
1162	0.0006351
1174	0.0002726
1186	0.000464
1198	0.0001653
1210	0
1222	0.000174
1234	0.0001943
1246	0.0001682
1258	0.0002378
1270	0.0003799
1282	0.000551
1294	0.0004234
1306	0.0004089
1318	0.0004988
1330	0.0006032
1342	0.0005481
1354	0.0005597
1366	0.0005742
1378	0.0006728
1390	0.0008613
1402	0.0015399
1414	0.0022011
1426	0.0019633
1438	0.0037497
1450	0.0032335
1462	0.0033785
1474	0.006235
1486	0.0094772
1498	0.0116435
1510	0.0021228
1522	0.0012731
1534	0.0010469
1546	0.0009367
1558	0.0010295
1570	0.0015283
1582	0.0017748
1594	0.0029
1606	0.0014674
1618	0.0009135
1630	0.0008323
1642	0.0007134
1654	0.0004959
1666	0.0004234
1678	0.0004002
1690	0.0004756
1702	0.0003393
1714	0.0003538
1726	0.0003654
1738	0.0003219
1750	0.0003596
1762	0.0004872
1774	0.0005742
1786	0.000406
1798	0.0004959
1810	0.000406
1822	0.0002929
1834	0.0004031
1846	0.0003074
1858	0.0002146
1870	0.0002755
1882	0.0004756
1894	0.0007424
1906	0.0004785
1918	0.0005829
1930	0.0003335
1942	0.0003828
1954	0.0004031
1966	0.0001827
1978	0.0001595
1990	0.0001218
2002	0.000145
2014	0.0001479
2026	0.0001334
2038	0.0001015
2050	9.57e-05
2062	8.7e-05
2074	0.0001015
2086	8.7e-05
2098	5.22e-05
2110	2.61e-05
2122	4.93e-05
2134	4.06e-05
2146	3.48e-05
2158	2.32e-05
2170	5.51e-05
2182	2.03e-05
2194	3.77e-05
2206	1.45e-05
2218	3.77e-05
2230	4.93e-05
2242	7.54e-05
2254	6.96e-05
2266	8.41e-05
2278	9.28e-05
2290	0.0001073
2302	0.0001015
2314	9.57e-05
2326	0.0001508
2338	0.000145
2350	0.0001102
2362	0.0001015
2374	6.96e-05
2386	7.54e-05
2398	0.0001044
2410	8.41e-05
2422	0.0001189
2434	0.0001421
2446	0.0001131
2458	6.96e-05
2470	0.0001334
2482	0.0001044
2494	0.0001566
2506	0.0001798
2518	0.0002146
2530	0.0001885
2542	0.0001914
2554	0.0002175
2566	0.0001827
2578	0.0002088
2590	0.0002581
2602	0.0002291
2614	0.0002378
2626	0.0002233
2638	0.0002378
2650	0.0002088
2662	0.0002784
2674	0.0002291
2686	0.0002407
2698	0.0002378
2710	0.000232
2722	0.0002523
2734	0.0002465
2746	0.0002262
2758	0.0002726
2770	0.0002842
2782	0.0002842
2794	0.0002871
2806	0.000319
2818	0.0003219
2830	0.0003422
2842	0.000319
2854	0.0002726
2866	0.000319
2878	0.000348
2890	0.0002465
2902	0.0002697
2914	0.0002929
2926	0.0003596
2938	0.0004959
2950	0.0009019
2962	0.0006264
2974	0.0006264
2986	0.0004611
2998	0.0004524
3010	0.0005046
3022	0.0006351
3034	0.0009164
3046	0.0008613
3058	0.0012499
3070	0.0030044
3082	0.0024679
3094	0.0014036
3106	0.0009338
3118	0.000522
3130	0.0004611
3142	0.0005307
3154	0.000348
3166	0.0002929
3178	0.0002523
3190	0.0002465
3202	0.0001653
3214	0.0002204
3226	0.0002639
3238	0.0002088
3250	0.0002059
3262	0.0001624
3274	0.0002407
3286	0.0001769
3298	0.0001566
3310	0.0002204
3322	0.000174
3334	0.0002001
3346	0.0001479
3358	0.0002117
3370	0.000174
3382	0.0002204
3394	7.54e-05
3406	0.0001363
3418	9.57e-05
3430	8.12e-05
3442	0.0001479
3454	9.28e-05
3466	0.0001102
3478	1.16e-05
3490	0.0001218
3502	0.0001276
3514	2.32e-05
3526	3.48e-05
3538	6.38e-05
3550	0
3562	5.51e-05
3574	0.0001334
3586	9.57e-05
3598	0.0001102
3610	0.0001595
3622	0.0001363
3634	0.0001566
3646	8.99e-05
3658	0.0001334
3670	0.0001247
3682	0.0001798
3694	0.000174
3706	0.0001624
3718	0.0002436
3730	0.0002784
3742	0.0001218
3754	0.0002146
3766	0.0002204
3778	0.0002726
3790	0.0002552
3802	0.0001682
3814	0.0001943
3826	0.0002204
3838	0.0002117
