Infrared Spectrum: 9H-Purine, 6-[4-methyl-3-ThiosemiCarbazido]-
Formula: C7 H9 N7 S
CAS: 78958-61-9
State: SOLID (1 mg / 650 mg KBr DISC)
Class: COBLENTZ III
Instrument: PERKIN-ELMER 221 (GRATING)
Instrument parameters: FILTER AT 2490, 980 CM^-^1. GRATING 4000-1428 CM^-^1, NaCl PRISM 1428-650 CM^-^1
Sampling: TRANSMISSION
Resolution: 2
Origin: SOUTHERN RESEARCH INSTITUTE
1/CM	TRANSMITTANCE
652	0.4209
660.031	0.4697
668.063	0.4705
676.094	0.4187
684.126	0.4902
692.157	0.5206
700.189	0.5215
708.22	0.5227
716.252	0.5355
724.283	0.5489
732.315	0.5616
740.346	0.5765
748.378	0.5948
756.409	0.6056
764.441	0.6036
772.472	0.5724
780.504	0.5174
788.535	0.4416
796.567	0.459
804.598	0.5858
812.63	0.6424
820.661	0.6433
828.693	0.6352
836.724	0.6167
844.756	0.5971
852.787	0.5748
860.819	0.5484
868.85	0.5281
876.882	0.5131
884.913	0.5012
892.945	0.3735
900.976	0.4436
909.008	0.5912
917.039	0.6574
925.071	0.6414
933.102	0.5207
941.134	0.4111
949.165	0.6173
957.197	0.7395
965.228	0.7419
973.26	0.7293
981.291	0.7241
989.323	0.6196
997.354	0.69
1005.39	0.6542
1013.42	0.5713
1021.45	0.4541
1029.48	0.3643
1037.51	0.417
1045.54	0.5402
1053.57	0.5598
1061.61	0.5214
1069.64	0.4084
1077.67	0.3707
1085.7	0.5991
1093.73	0.6483
1101.76	0.6453
1109.8	0.6387
1117.83	0.621
1125.86	0.5713
1133.89	0.4863
1141.92	0.3842
1149.95	0.4613
1157.98	0.5464
1166.02	0.4923
1174.05	0.5191
1182.08	0.4128
1190.11	0.5331
1198.14	0.623
1206.17	0.607
1214.2	0.5733
1222.24	0.5583
1230.27	0.4985
1238.3	0.3863
1246.33	0.2033
1254.36	0.3017
1262.39	0.1824
1270.43	0.2299
1278.46	0.3981
1286.49	0.5067
1294.52	0.4995
1302.55	0.2426
1310.58	0.327
1318.61	0.1083
1326.65	0.2805
1334.68	0.3991
1342.71	0.312
1350.74	0.3004
1358.77	0.3953
1366.8	0.4563
1374.83	0.4593
1382.87	0.3982
1390.9	0.1613
1398.93	0.2415
1406.96	0.3361
1414.99	0.3736
1423.02	0.4206
1431.06	0.3378
1439.09	0.3441
1447.12	0.3564
1455.15	0.4165
1463.18	0.3854
1471.21	0.2787
1479.24	0.2579
1487.28	0.2218
1495.31	0.337
1503.34	0.4936
1511.37	0.4779
1519.4	0.4117
1527.43	0.4074
1535.46	0.3658
1543.5	0.2593
1551.53	0.1463
1559.56	0.0763
1567.59	0.0818
1575.62	0.1964
1583.65	0.3006
1591.69	0.2259
1599.72	0.1224
1607.75	0.1097
1615.78	0.052
1623.81	0.0491
1631.84	0.1069
1639.87	0.2868
1647.91	0.422
1655.94	0.4677
1663.97	0.4532
1672	0.4506
1680.03	0.5493
1688.06	0.681
1696.09	0.7487
1704.13	0.7732
1712.16	0.8081
1720.19	0.824
1728.22	0.8333
1736.25	0.8401
1744.28	0.8425
1752.31	0.8403
1760.35	0.8359
1768.38	0.83
1776.41	0.8226
1784.44	0.8123
1792.47	0.7999
1800.5	0.7851
1808.54	0.7795
1816.57	0.7912
1824.6	0.8059
1832.63	0.8166
1840.66	0.8198
1848.69	0.8196
1856.72	0.8193
1864.76	0.8173
1872.79	0.8147
1880.82	0.8119
1888.85	0.8089
1896.88	0.8058
1904.91	0.8023
1912.94	0.7987
1920.98	0.7942
1929.01	0.788
1937.04	0.7732
1945.07	0.6989
1953.1	0.674
1961.13	0.7902
1969.17	0.7958
1977.2	0.7955
1985.23	0.794
1993.26	0.7915
2001.29	0.7883
2009.32	0.7855
2017.35	0.7826
2025.39	0.7795
2033.42	0.7762
2041.45	0.7729
2049.48	0.7697
2057.51	0.7665
2065.54	0.7628
2073.57	0.7591
2081.61	0.7549
2089.64	0.7508
2097.67	0.7467
2105.7	0.7425
2113.73	0.7383
2121.76	0.7339
2129.8	0.7292
2137.83	0.7244
2145.86	0.7196
2153.89	0.7148
2161.92	0.7107
2169.95	0.7067
2177.98	0.7028
2186.02	0.699
2194.05	0.6953
2202.08	0.6917
2210.11	0.6879
2218.14	0.6837
2226.17	0.6795
2234.2	0.6753
2242.24	0.6711
2250.27	0.6668
2258.3	0.6626
2266.33	0.6589
2274.36	0.6566
2282.39	0.6558
2290.43	0.6556
2298.46	0.6544
2306.49	0.6515
2314.52	0.6461
2322.55	0.6391
2330.58	0.6319
2338.61	0.6246
2346.65	0.6176
2354.68	0.6054
2362.71	0.5855
2370.74	0.5844
2378.77	0.5847
2386.8	0.5852
2394.83	0.583
2402.87	0.5773
2410.9	0.5706
2418.93	0.5632
2426.96	0.5557
2434.99	0.5482
2443.02	0.5411
2451.06	0.5338
2459.09	0.5259
2467.12	0.5181
2475.15	0.5105
2483.18	0.503
2491.21	0.4962
2499.24	0.4896
2507.28	0.4825
2515.31	0.4743
2523.34	0.4638
2531.37	0.4442
2539.4	0.4335
2547.43	0.4279
2555.46	0.4252
2563.5	0.432
2571.53	0.4474
2579.56	0.4502
2587.59	0.4424
2595.62	0.4327
2603.65	0.423
2611.69	0.4185
2619.72	0.4148
2627.75	0.4082
2635.78	0.3976
2643.81	0.3868
2651.84	0.3732
2659.87	0.3647
2667.91	0.3622
2675.94	0.3635
2683.97	0.3651
2692	0.3574
2700.03	0.3453
2708.06	0.3343
2716.09	0.3277
2724.13	0.3233
2732.16	0.3222
2740.19	0.3192
2748.22	0.2997
2756.25	0.2817
2764.28	0.2784
2772.31	0.2793
2780.35	0.2806
2788.38	0.2815
2796.41	0.2822
2804.44	0.2826
2812.47	0.2835
2820.5	0.2881
2828.54	0.2958
2836.57	0.3058
2844.6	0.3179
2852.63	0.333
2860.66	0.3398
2868.69	0.3235
2876.72	0.2947
2884.76	0.2661
2892.79	0.2573
2900.82	0.2572
2908.85	0.2532
2916.88	0.2336
2924.91	0.2141
2932.94	0.203
2940.98	0.1998
2949.01	0.2039
2957.04	0.2092
2965.07	0.2166
2973.1	0.224
2981.13	0.2308
2989.17	0.2357
2997.2	0.237
3005.23	0.2366
3013.26	0.235
3021.29	0.2326
3029.32	0.2295
3037.35	0.2254
3045.39	0.2214
3053.42	0.2218
3061.45	0.2222
3069.48	0.2198
3077.51	0.2153
3085.54	0.2099
3093.57	0.2088
3101.61	0.2139
3109.64	0.2243
3117.67	0.2305
3125.7	0.229
3133.73	0.2258
3141.76	0.2213
3149.8	0.2161
3157.83	0.2091
3165.86	0.1997
3173.89	0.1887
3181.92	0.1768
3189.95	0.1627
3197.98	0.1484
3206.02	0.136
3214.05	0.1252
3222.08	0.1156
3230.11	0.1084
3238.14	0.1017
3246.17	0.0961
3254.2	0.0942
3262.24	0.0935
3270.27	0.0946
3278.3	0.0976
3286.33	0.1025
3294.36	0.1138
3302.39	0.1575
3310.43	0.1858
3318.46	0.1827
3326.49	0.1616
3334.52	0.1282
3342.55	0.111
3350.58	0.1214
3358.61	0.1724
3366.65	0.2146
3374.68	0.258
3382.71	0.2728
3390.74	0.2859
3398.77	0.2965
3406.8	0.3061
3414.83	0.3151
3422.87	0.3298
3430.9	0.3572
3438.93	0.3832
3446.96	0.4111
3454.99	0.4315
3463.02	0.4503
3471.06	0.4733
3479.09	0.5
3487.12	0.516
3495.15	0.5396
3503.18	0.5624
3511.21	0.5747
3519.24	0.5854
3527.28	0.5963
3535.31	0.6071
3543.34	0.6185
3551.37	0.63
3559.4	0.6417
3567.43	0.6518
3575.46	0.6615
3583.5	0.6697
3591.53	0.6767
3599.56	0.6822
3607.59	0.6885
3615.62	0.6941
3623.65	0.6965
3631.69	0.6997
3639.72	0.7015
3647.75	0.7027
3655.78	0.7026
3663.81	0.7025
3671.84	0.7022
3679.87	0.7016
3687.91	0.7009
3695.94	0.6998
3703.97	0.6991
3712	0.6986
