Infrared Spectrum: 2,3,5,6-Tetramethylbenzyl alcohol
Formula: C 11 H 16 O
CAS: 78985-13-4
State: gas
Origin: EPA-IR VAPOR PHASE LIBRARY
1/CM	ABSORBANCE
549.9	0.002149
559.547	0.0012355
569.193	0.0011042
578.84	0.0007436
588.486	0.0009728
598.133	0.0010752
607.779	0.0012884
617.426	0.0017021
627.072	0.003409
636.719	0.004049
646.365	0.002509
656.012	0.0016123
665.658	0.001979
675.305	0.003139
684.951	0.002899
694.598	0.0012947
704.245	0.0007886
713.891	0.0008045
723.538	0.0009801
733.184	0.0012936
742.831	0.002159
752.477	0.002999
762.124	0.002359
771.77	0.001254
781.417	0.0012028
791.063	0.0012286
800.71	0.0011605
810.356	0.001127
820.003	0.0013786
829.649	0.0015965
839.296	0.001909
848.943	0.003149
858.589	0.006809
868.236	0.011129
877.882	0.006909
887.529	0.005889
897.175	0.005719
906.822	0.004529
916.468	0.004199
926.115	0.004439
935.761	0.004949
945.408	0.006089
955.054	0.008989
964.701	0.015439
974.347	0.028389
983.994	0.048879
993.64	0.058559
1003.29	0.043989
1012.93	0.032429
1022.58	0.024039
1032.23	0.014059
1041.87	0.009219
1051.52	0.007649
1061.17	0.006919
1070.81	0.006549
1080.46	0.005439
1090.11	0.004059
1099.75	0.003459
1109.4	0.003249
1119.05	0.003259
1128.69	0.003319
1138.34	0.003369
1147.99	0.003799
1157.63	0.004079
1167.28	0.004599
1176.92	0.005109
1186.57	0.005789
1196.22	0.007329
1205.86	0.010479
1215.51	0.012389
1225.16	0.010709
1234.8	0.008249
1244.45	0.007789
1254.1	0.008119
1263.74	0.008699
1273.39	0.009179
1283.04	0.009319
1292.68	0.008079
1302.33	0.006339
1311.98	0.005539
1321.62	0.005339
1331.27	0.005619
1340.92	0.006269
1350.56	0.008079
1360.21	0.011479
1369.86	0.016829
1379.5	0.022629
1389.15	0.024109
1398.79	0.019949
1408.44	0.014139
1418.09	0.010709
1427.73	0.009879
1437.38	0.012549
1447.03	0.017149
1456.67	0.021759
1466.32	0.026989
1475.97	0.026729
1485.61	0.017749
1495.26	0.011159
1504.91	0.008579
1514.55	0.006599
1524.2	0.005309
1533.85	0.004759
1543.49	0.004279
1553.14	0.003919
1562.79	0.003599
1572.43	0.003389
1582.08	0.003219
1591.73	0.003249
1601.37	0.003419
1611.02	0.002939
1620.67	0.002189
1630.31	0.0015942
1639.96	0.001173
1649.6	0.0009564
1659.25	0.0008021
1668.9	0.000844908
1678.54	0.000721
1688.19	0.000794
1697.84	0.0007561
1707.48	0.00088651
1717.13	0.001302
1726.78	0.0017504
1736.42	0.0014824
1746.07	0.0008227
1755.72	0.000605
1765.36	0.000622
1775.01	0.000485
1784.66	0.000472
1794.3	0.000429
1803.95	0.000353
1813.6	0.000316
1823.24	0.000278
1832.89	0.000319
1842.54	0.000269
1852.18	0.000254
1861.83	0.000283
1871.47	0.000352
1881.12	0.000551
1890.77	0.000668
1900.41	0.000556
1910.06	0.000503
1919.71	0.000414
1929.35	0.000476
1939	0.000456
1948.65	0.000556
1958.29	0.000675
1967.94	0.0007531
1977.59	0.000694
1987.23	0.000573
1996.88	0.000508
2006.53	0.000401
2016.17	0.00046
2025.82	0.00042
2035.47	0.000418
2045.11	0.000393
2054.76	0.000434
2064.41	0.000423
2074.05	0.000398
2083.7	0.000321
2093.35	0.00029
2102.99	0.000322
2112.64	0.000351
2122.28	0.00034
2131.93	0.000295
2141.58	0.000291
2151.22	0.000322
2160.87	0.000323
2170.52	0.000405
2180.16	0.000403
2189.81	0.000347
2199.46	0.000388
2209.1	0.000363
2218.75	0.000381
2228.4	0.000361
2238.04	0.000372
2247.69	0.000466
2257.34	0.000394
2266.98	0.000482
2276.63	0.000361
2286.28	0.000442
2295.92	0.000359
2305.57	0.000409
2315.22	0.000352
2324.86	0.000494
2334.51	0.00046
2344.16	0.000498
2353.8	0.0005
2363.45	0.000575
2373.09	0.00066
2382.74	0.000729
2392.39	0.0007
2402.03	0.000713
2411.68	0.0007674
2421.33	0.0008221
2430.97	0.00089305
2440.62	0.00089299
2450.27	0.00087015
2459.91	0.00090596
2469.56	0.00089405
2479.21	0.00089619
2488.85	0.0009392
2498.5	0.00086544
2508.15	0.000723
2517.79	0.0007426
2527.44	0.000673
2537.09	0.000596
2546.73	0.000532
2556.38	0.000717
2566.03	0.000685
2575.67	0.000693
2585.32	0.0007658
2594.96	0.0007518
2604.61	0.0008023
2614.26	0.0007991
2623.9	0.0008259
2633.55	0.0007985
2643.2	0.0009642
2652.84	0.00092953
2662.49	0.0008912
2672.14	0.0010866
2681.78	0.0009811
2691.43	0.0011715
2701.08	0.001198
2710.72	0.0014765
2720.37	0.0018236
2730.02	0.002649
2739.66	0.003539
2749.31	0.003299
2758.96	0.002929
2768.6	0.003109
2778.25	0.003089
2787.9	0.003139
2797.54	0.003389
2807.19	0.003899
2816.84	0.004909
2826.48	0.006029
2836.13	0.008099
2845.77	0.010839
2855.42	0.015909
2865.07	0.024969
2874.71	0.035349
2884.36	0.039069
2894.01	0.037309
2903.65	0.038659
2913.3	0.046659
2922.95	0.062699
2932.59	0.074529
2942.24	0.069919
2951.89	0.059959
2961.53	0.050519
2971.18	0.046509
2980.83	0.042249
2990.47	0.034909
3000.12	0.034169
3009.77	0.035419
3019.41	0.027529
3029.06	0.018939
3038.71	0.015929
3048.35	0.014009
3058	0.011779
3067.64	0.010329
3077.29	0.008559
3086.94	0.006959
3096.58	0.005009
3106.23	0.003909
3115.88	0.003189
3125.52	0.002699
3135.17	0.001999
3144.82	0.0017251
3154.46	0.0015864
3164.11	0.0012428
3173.76	0.0010178
3183.4	0.00087914
3193.05	0.0009507
3202.7	0.000704
3212.34	0.000651
3221.99	0.000421
3231.64	0.0003
3241.28	0.000366
3250.93	0.000269
3260.58	0.000225
3270.22	0.000395
3279.87	0.000469
3289.52	0.000275
3299.16	0.000269
3308.81	0.000348
3318.45	0.000114
3328.1	0.000107
3337.75	0.000264
3347.39	0.000344
3357.04	0.000382
3366.69	0.000515
3376.33	0.000301
3385.98	0.000283
3395.63	0.000275
3405.27	0.000361
3414.92	0.000338
3424.57	0.000464
3434.21	0.00051
3443.86	0.000457
3453.51	0.000584
3463.15	0.000277
3472.8	0.000225
3482.45	0.000478
3492.09	0.000413
3501.74	0.000444
3511.39	0.000514
3521.03	0.000488
3530.68	0.000326
3540.33	0.000551
3549.97	0.00054
3559.62	0.000305
3569.26	0.000592
3578.91	0.000439
3588.56	0.000512
3598.2	0.000592
3607.85	0.000512
3617.5	0.0008036
3627.14	0.0013484
3636.79	0.004539
3646.44	0.010829
3656.08	0.008379
3665.73	0.002989
3675.38	0.0011476
3685.02	0.0007766
3694.67	0.000564
3704.32	0.000522
3713.96	0.000498
3723.61	0.000499
3733.26	0.000661
3742.9	0.000392
3752.55	0.000347
3762.2	0.000414
3771.84	0.000403
3781.49	0.000528
3791.13	0.000469
3800.78	0.000546
3810.43	0.000402
3820.07	0.000453
3829.72	0.000443
3839.37	0.000504
3849.01	0.000436
3858.66	0.000658
3868.31	0.000643
3877.95	0.000573
3887.6	0.00073
3897.25	0.000618
3906.89	0.000671
3916.54	0.000655
3926.19	0.000642
3935.83	0.000641
3945.48	0.000488
3955.13	0.000635
3964.77	0.000545
3974.42	0.000549
3984.07	0.000367
3993.71	0.000393
