Infrared Spectrum: Isobutryl chloride
Formula: C 4 H 7 Cl O
CAS: 79-30-1
State: gas
Origin: EPA-IR VAPOR PHASE LIBRARY
1/CM	ABSORBANCE
501.5	0.008931
513.074	0.009321
524.648	0.006841
536.222	0.007581
547.796	0.021161
559.37	0.035201
570.944	0.032381
582.518	0.015751
594.092	0.008901
605.666	0.007951
617.24	0.008771
628.814	0.015021
640.388	0.023101
651.962	0.025911
663.536	0.024651
675.11	0.055521
686.684	0.079361
698.258	0.067591
709.832	0.021991
721.406	0.009281
732.98	0.006111
744.554	0.004531
756.128	0.003561
767.702	0.003371
779.276	0.003911
790.85	0.005641
802.423	0.010391
813.997	0.026721
825.571	0.073651
837.145	0.132851
848.719	0.142171
860.293	0.090511
871.867	0.039581
883.441	0.025681
895.015	0.025771
906.589	0.037091
918.163	0.081281
929.737	0.176471
941.311	0.257061
952.885	0.233061
964.459	0.122231
976.033	0.048011
987.607	0.022481
999.181	0.013861
1010.76	0.010131
1022.33	0.007481
1033.9	0.005921
1045.48	0.005451
1057.05	0.005631
1068.63	0.006671
1080.2	0.009211
1091.77	0.013361
1103.35	0.016601
1114.92	0.018481
1126.49	0.020561
1138.07	0.020111
1149.64	0.015921
1161.22	0.012981
1172.79	0.012711
1184.36	0.010491
1195.94	0.006031
1207.51	0.002781
1219.09	0.002081
1230.66	0.002051
1242.23	0.002161
1253.81	0.002421
1265.38	0.002461
1276.96	0.003201
1288.53	0.004331
1300.1	0.006271
1311.68	0.008681
1323.25	0.009141
1334.83	0.008241
1346.4	0.007761
1357.97	0.010561
1369.55	0.015511
1381.12	0.021261
1392.7	0.022751
1404.27	0.015971
1415.84	0.008861
1427.42	0.009801
1438.99	0.015701
1450.57	0.026171
1462.14	0.035541
1473.71	0.033411
1485.29	0.022911
1496.86	0.011061
1508.44	0.005691
1520.01	0.003901
1531.58	0.003021
1543.16	0.002411
1554.73	0.001971
1566.31	0.001861
1577.88	0.001961
1589.45	0.002051
1601.03	0.002181
1612.6	0.002291
1624.18	0.002501
1635.75	0.002781
1647.32	0.003021
1658.9	0.003371
1670.47	0.004001
1682.05	0.004671
1693.62	0.005071
1705.19	0.005371
1716.77	0.006771
1728.34	0.011531
1739.92	0.023181
1751.49	0.047271
1763.06	0.086721
1774.64	0.132041
1786.21	0.180031
1797.79	0.246521
1809.36	0.303121
1820.93	0.274181
1832.51	0.161411
1844.08	0.063721
1855.66	0.034501
1867.23	0.028311
1878.8	0.026051
1890.38	0.021901
1901.95	0.015521
1913.53	0.009151
1925.1	0.004881
1936.67	0.002751
1948.25	0.001841
1959.82	0.001451
1971.4	0.0012902
1982.97	0.001249
1994.54	0.0011828
2006.12	0.0012459
2017.69	0.001391
2029.27	0.001501
2040.84	0.001471
2052.41	0.001351
2063.99	0.001381
2075.56	0.001731
2087.14	0.002531
2098.71	0.003641
2110.28	0.004941
2121.86	0.005701
2133.43	0.004991
2145.01	0.003631
2156.58	0.0012424
2168.15	0.000568
2179.73	0.0005241
2191.3	0.0006946
2202.88	0.000996
2214.45	0.001321
2226.02	0.001661
2237.6	0.001831
2249.17	0.001711
2260.74	0.001341
2272.32	0.0009192
2283.89	0.0006677
2295.47	0.0006191
2307.04	0.0007185
2318.61	0.0006463
2330.19	0.0005709
2341.76	0.0004637
2353.34	0.0003649
2364.91	0.0004483
2376.48	0.0004789
2388.06	0.0005104
2399.63	0.0005829
2411.21	0.0005953
2422.78	0.0005564
2434.35	0.0005058
2445.93	0.0004561
2457.5	0.0004306
2469.08	0.0005037
2480.65	0.0005713
2492.22	0.000634
2503.8	0.0005044
2515.37	0.00036328
2526.95	0.000309406
2538.52	0.0004089
2550.09	0.0005804
2561.67	0.0006351
2573.24	0.000608
2584.82	0.0005655
2596.39	0.0005852
2607.96	0.0005975
2619.54	0.0006544
2631.11	0.0006758
2642.69	0.0006812
2654.26	0.000765
2665.83	0.0007408
2677.41	0.0006734
2688.98	0.000513
2700.56	0.000548
2712.13	0.0006736
2723.7	0.0009547
2735.28	0.001441
2746.85	0.001861
2758.43	0.002031
2770	0.002131
2781.57	0.002051
2793.15	0.001981
2804.72	0.002121
2816.3	0.002691
2827.87	0.003271
2839.44	0.003851
2851.02	0.004991
2862.59	0.007911
2874.17	0.016091
2885.74	0.024631
2897.31	0.026481
2908.89	0.024801
2920.46	0.027541
2932.04	0.038851
2943.61	0.051721
2955.18	0.051421
2966.76	0.054431
2978.33	0.081541
2989.91	0.102151
3001.48	0.072221
3013.05	0.031051
3024.63	0.011061
3036.2	0.005561
3047.78	0.003441
3059.35	0.002531
3070.92	0.002121
3082.5	0.001981
3094.07	0.002051
3105.65	0.002101
3117.22	0.002091
3128.79	0.001991
3140.37	0.001831
3151.94	0.001891
3163.52	0.001911
3175.09	0.002011
3186.66	0.002091
3198.24	0.002071
3209.81	0.001811
3221.39	0.0011821
3232.96	0.0006896
3244.53	0.00033682
3256.11	0.0002623
3267.68	0.0002796
3279.26	0.0002383
3290.83	0.0002456
3302.4	0.0002149
3313.98	0.000199
3325.55	0.000137
3337.13	7.8e-05
3348.7	6.7e-05
3360.27	2.4e-05
3371.85	8.2e-05
3383.42	5.9e-05
3395	0.000177
3406.57	0.0002343
3418.14	0.0002162
3429.72	0.0002308
3441.29	0.00017
3452.86	0.00017
3464.44	0.000197
3476.01	0.0002813
3487.59	0.0004582
3499.16	0.0005854
3510.73	0.0007293
3522.31	0.0009886
3533.88	0.001471
3545.46	0.002081
3557.03	0.003181
3568.6	0.004501
3580.18	0.005351
3591.75	0.005251
3603.33	0.004351
3614.9	0.003601
3626.47	0.002781
3638.05	0.001911
3649.62	0.001371
3661.2	0.0010238
3672.77	0.0008966
3684.34	0.000643
3695.92	0.0004601
3707.49	0.0004063
3719.07	0.0002768
3730.64	0.00031279
3742.21	0.0002014
3753.79	0.0002136
3765.36	0.0002703
3776.94	0.00032553
3788.51	0.0002635
3800.08	0.000303096
3811.66	0.00035458
3823.23	0.0004393
3834.81	0.0004651
3846.38	0.0005823
3857.95	0.0005942
3869.53	0.0005154
3881.1	0.0005427
3892.68	0.0005311
3904.25	0.0005366
3915.82	0.0004811
3927.4	0.0004596
3938.97	0.0004176
3950.55	0.0004356
3962.12	0.0003583
3973.69	0.00034695
3985.27	0.00034831
3996.84	0.00034135
