Infrared Spectrum: Propanone, pentabromo-
Formula: C3 H Br5 O
CAS: 79-49-2
State: SOLUTION (10% CCl4 FOR 3800-1340, 10% CS2 FOR 1340-480 CM^-^1)
Class: COBLENTZ III
Instrument: DOW KBr FOREPRISM-GRATING
Instrument parameters: BLAZED AT 3.5, 12.0, 20.0 MICRON AND CHANGED AT 5.0, 7.5, 14.9 MICRON
Sampling: TRANSMISSION
Path length: 0.0105 CM, 0.0110 CM
Resolution: 2
Origin: DOW CHEMICAL COMPANY
1/CM	TRANSMITTANCE
3800	0.9279
3791	0.9289
3782	0.9268
3773	0.9278
3764	0.9269
3755	0.9262
3746	0.9272
3737	0.9285
3728	0.9269
3719	0.9242
3710	0.9253
3701	0.9256
3692	0.9238
3683	0.9221
3674	0.9219
3665	0.9216
3656	0.9212
3647	0.921
3638	0.9208
3629	0.9219
3620	0.9248
3611	0.9257
3602	0.925
3593	0.924
3584	0.9167
3575	0.9191
3566	0.9204
3557	0.9204
3548	0.9215
3539	0.9203
3530	0.9199
3521	0.9172
3512	0.9064
3503	0.894
3494	0.897
3485	0.9048
3476	0.9105
3467	0.9112
3458	0.9115
3449	0.9115
3440	0.9115
3431	0.9116
3422	0.9118
3413	0.9117
3404	0.9116
3395	0.9114
3386	0.9112
3377	0.9109
3368	0.9106
3359	0.9106
3350	0.9106
3341	0.9104
3332	0.9097
3323	0.909
3314	0.9083
3305	0.9091
3296	0.9067
3287	0.906
3278	0.9066
3269	0.9064
3260	0.9056
3251	0.9046
3242	0.9038
3233	0.9028
3224	0.9021
3215	0.902
3206	0.9003
3197	0.9013
3188	0.9014
3179	0.8999
3170	0.8995
3161	0.9
3152	0.9002
3143	0.8979
3134	0.8989
3125	0.8982
3116	0.8974
3107	0.8974
3098	0.8987
3089	0.8992
3080	0.8964
3071	0.899
3062	0.8932
3053	0.8869
3044	0.8743
3035	0.8302
3026	0.8334
3017	0.883
3008	0.8887
2999	0.8892
2990	0.89
2981	0.89
2972	0.8914
2963	0.8921
2954	0.8909
2945	0.8872
2936	0.8875
2927	0.8881
2918	0.8898
2909	0.8918
2900	0.893
2891	0.8932
2882	0.8933
2873	0.8934
2864	0.8939
2855	0.8946
2846	0.8958
2837	0.8962
2828	0.8947
2819	0.8943
2810	0.8855
2801	0.8857
2792	0.8876
2783	0.8887
2774	0.8907
2765	0.8914
2756	0.8908
2747	0.8911
2738	0.8915
2729	0.8911
2720	0.8906
2711	0.8904
2702	0.8903
2693	0.89
2684	0.8898
2675	0.8896
2666	0.8894
2657	0.8906
2648	0.8898
2639	0.8888
2630	0.8888
2621	0.89
2612	0.8898
2603	0.8897
2594	0.8895
2585	0.8893
2576	0.8892
2567	0.8891
2558	0.8887
2549	0.8883
2540	0.888
2531	0.8875
2522	0.8871
2513	0.8866
2504	0.8858
2495	0.8848
2486	0.8839
2477	0.8841
2468	0.8829
2459	0.8812
2450	0.8786
2441	0.878
2432	0.8764
2423	0.8739
2414	0.8694
2405	0.8681
2396	0.8684
2387	0.8711
2378	0.8772
2369	0.8808
2360	0.8854
2351	0.8846
2342	0.8848
2333	0.8838
2324	0.8772
2315	0.8681
2306	0.8591
2297	0.8543
2288	0.8502
2279	0.851
2270	0.8509
2261	0.8507
2252	0.8511
2243	0.8513
2234	0.8518
2225	0.8528
2216	0.8525
2207	0.8526
2198	0.8529
2189	0.8515
2180	0.8518
2171	0.8533
2162	0.8518
2153	0.852
2144	0.8521
2135	0.8518
2126	0.8517
2117	0.8514
2108	0.8512
2099	0.8508
2090	0.8503
2081	0.8499
2072	0.8495
2063	0.849
2054	0.8494
2045	0.847
2036	0.846
2027	0.8458
2018	0.8456
2009	0.845
2000	0.8446
1991	0.8429
1982	0.8418
1973	0.842
1964	0.8557
1955	0.8476
1946	0.8446
1937	0.8438
1928	0.8423
1919	0.8408
1910	0.8386
1901	0.8374
1892	0.8334
1883	0.8298
1874	0.8279
1865	0.826
1856	0.8251
1847	0.8232
1838	0.8228
1829	0.8196
1820	0.8172
1811	0.8173
1802	0.8119
1793	0.8099
1784	0.7951
1775	0.7504
1766	0.3422
1757	0.5855
1748	0.7595
1739	0.7842
1730	0.7876
1721	0.7839
1712	0.7925
1703	0.8058
1694	0.8088
1685	0.81
1676	0.8158
1667	0.8173
1658	0.8181
1649	0.8184
1640	0.8181
1631	0.8171
1622	0.8166
1613	0.8173
1604	0.8055
1595	0.7707
1586	0.7795
1577	0.7838
1568	0.7104
1559	0.706
1550	0.7913
1541	0.8272
1532	0.8234
1523	0.8226
1514	0.8286
1505	0.8283
1496	0.8186
1487	0.8132
1478	0.8213
1469	0.8143
1460	0.8145
1451	0.8156
1442	0.8136
1433	0.812
1424	0.8137
1415	0.8119
1406	0.8122
1397	0.8168
1388	0.8419
1379	0.8071
1370	0.8097
1361	0.8101
1352	0.8056
1343	0.8012
1334	0.8011
1325	0.8031
1316	0.8041
1307	0.8004
1298	0.7942
1289	0.7867
1280	0.7764
1271	0.7664
1262	0.7441
1253	0.6029
1244	0.6328
1235	0.7695
1226	0.7911
1217	0.795
1208	0.7928
1199	0.7896
1190	0.7896
1181	0.7934
1172	0.7859
1163	0.7802
1154	0.7618
1145	0.6935
1136	0.6889
1127	0.7671
1118	0.7905
1109	0.8015
1100	0.8023
1091	0.7977
1082	0.7999
1073	0.7937
1064	0.7772
1055	0.7138
1046	0.2144
1037	0.5295
1028	0.7402
1019	0.775
1010	0.7926
1001	0.7958
992	0.7999
983	0.8038
974	0.8046
965	0.8048
956	0.8036
947	0.8015
938	0.8008
929	0.7951
920	0.7975
911	0.7991
902	0.7971
893	0.7929
884	0.7914
875	0.782
866	0.7687
857	0.7515
848	0.7752
839	0.7696
830	0.7576
821	0.7146
812	0.6299
803	0.5683
794	0.3568
785	0.3503
776	0.3746
767	0.5858
758	0.6922
749	0.7622
740	0.7746
731	0.7788
722	0.7827
713	0.7668
704	0.7358
695	0.7602
686	0.776
677	0.7868
668	0.8046
659	0.7852
650	0.7738
641	0.767
632	0.7661
623	0.7548
614	0.7316
605	0.7153
596	0.6849
587	0.5415
578	0.1809
569	0.2229
560	0.5109
551	0.6168
542	0.7014
533	0.7351
524	0.7518
515	0.764
506	0.7703
497	0.7708
488	0.7727
479	0.7753
470	0.7762
