Infrared Spectrum: DL-Pentoyllactone
Formula: C 6 H 10 O 3
CAS: 79-50-5
State: gas
Origin: EPA-IR VAPOR PHASE LIBRARY
1/CM	ABSORBANCE
549.8	0.00366
559.445	0.00352
569.09	0.00247
578.734	0.00157
588.379	0.000847
598.024	0.0008291
607.669	0.0006216
617.313	0.0006495
626.958	0.0008056
636.603	0.00104
646.248	0.00102
655.893	0.0008267
665.537	0.0006716
675.182	0.0007596
684.827	0.0007383
694.472	0.00109
704.116	0.00159
713.761	0.00204
723.406	0.00178
733.051	0.00128
742.695	0.00105
752.34	0.0006748
761.985	0.0005907
771.63	0.000522
781.275	0.0005994
790.919	0.0008191
800.564	0.0009184
810.209	0.000919
819.854	0.0008169
829.498	0.000453
839.143	0.0005663
848.788	0.0006651
858.433	0.0009744
868.078	0.0014
877.722	0.00197
887.367	0.00218
897.012	0.00257
906.657	0.00274
916.301	0.00262
925.946	0.00196
935.591	0.00202
945.236	0.00224
954.88	0.00248
964.525	0.003
974.17	0.00498
983.815	0.00817
993.46	0.01414
1003.1	0.02827
1012.75	0.04211
1022.39	0.04104
1032.04	0.02397
1041.68	0.01225
1051.33	0.00935
1060.97	0.01145
1070.62	0.01463
1080.26	0.0212
1089.91	0.03717
1099.55	0.06056
1109.2	0.07135
1118.84	0.05661
1128.49	0.03068
1138.13	0.01797
1147.78	0.01559
1157.42	0.01494
1167.07	0.0135
1176.71	0.01155
1186.36	0.01159
1196	0.01321
1205.64	0.01437
1215.29	0.01321
1224.93	0.01393
1234.58	0.01595
1244.22	0.01441
1253.87	0.01004
1263.51	0.00629
1273.16	0.00508
1282.8	0.00553
1292.45	0.00562
1302.09	0.0047
1311.74	0.00363
1321.38	0.00306
1331.03	0.00343
1340.67	0.00454
1350.32	0.00625
1359.96	0.0084
1369.61	0.01013
1379.25	0.01075
1388.9	0.00786
1398.54	0.00649
1408.18	0.00474
1417.83	0.00281
1427.47	0.002
1437.12	0.00253
1446.76	0.0038
1456.41	0.00599
1466.05	0.00785
1475.7	0.00808
1485.34	0.00611
1494.99	0.0033
1504.63	0.00152
1514.28	0.000902
1523.92	0.0007397
1533.57	0.0006184
1543.21	0.0005957
1552.86	0.0005218
1562.5	0.0005675
1572.15	0.0005575
1581.79	0.0005832
1591.44	0.0005464
1601.08	0.0005113
1610.73	0.000517
1620.37	0.0005773
1630.01	0.0006123
1639.66	0.0006892
1649.3	0.0007651
1658.95	0.0008213
1668.59	0.0008448
1678.24	0.000756
1687.88	0.0008745
1697.53	0.00115
1707.17	0.00163
1716.82	0.00225
1726.46	0.0029
1736.11	0.0039
1745.75	0.0054
1755.4	0.00762
1765.04	0.01003
1774.69	0.01374
1784.33	0.02416
1793.98	0.05587
1803.62	0.10424
1813.27	0.13144
1822.91	0.10281
1832.55	0.04716
1842.2	0.01356
1851.84	0.00556
1861.49	0.00357
1871.13	0.00279
1880.78	0.00226
1890.42	0.00201
1900.07	0.00188
1909.71	0.00172
1919.36	0.00137
1929	0.001
1938.65	0.0007749
1948.29	0.0006163
1957.94	0.0005633
1967.58	0.0005402
1977.23	0.000545
1986.87	0.000585
1996.52	0.0005689
2006.16	0.0005645
2015.81	0.0005057
2025.45	0.0005375
2035.1	0.0004986
2044.74	0.000427
2054.38	0.0003816
2064.03	0.0003572
2073.67	0.0003815
2083.32	0.0003664
2092.96	0.0004212
2102.61	0.0003908
2112.25	0.0003877
2121.9	0.0003602
2131.54	0.0003808
2141.19	0.0003617
2150.83	0.0003507
2160.48	0.0004019
2170.12	0.0003723
2179.77	0.000403
2189.41	0.0004032
2199.06	0.0003965
2208.7	0.0004689
2218.35	0.0004585
2227.99	0.0004489
2237.64	0.0005334
2247.28	0.0006394
2256.92	0.0007034
2266.57	0.0007094
2276.21	0.0006804
2285.86	0.0006358
2295.5	0.0005422
2305.15	0.0005222
2314.79	0.0005244
2324.44	0.0004953
2334.08	0.0005322
2343.73	0.0006117
2353.37	0.0005797
2363.02	0.0005211
2372.66	0.0004672
2382.31	0.0004426
2391.95	0.0004097
2401.6	0.0003697
2411.24	0.0003741
2420.89	0.0002992
2430.53	0.0003061
2440.18	0.0003087
2449.82	0.0003943
2459.47	0.0004567
2469.11	0.000439
2478.75	0.000431
2488.4	0.0004535
2498.04	0.000448
2507.69	0.0005158
2517.33	0.0005102
2526.98	0.0004602
2536.62	0.0003998
2546.27	0.0003877
2555.91	0.0003361
2565.56	0.0003132
2575.2	0.00035
2584.85	0.0004103
2594.49	0.0003881
2604.14	0.0003428
2613.78	0.0003683
2623.43	0.0003414
2633.07	0.0004141
2642.72	0.000472
2652.36	0.0005487
2662.01	0.0005839
2671.65	0.0005323
2681.29	0.0006042
2690.94	0.0007366
2700.58	0.0007882
2710.23	0.0008303
2719.87	0.0008062
2729.52	0.0008465
2739.16	0.000952
2748.81	0.000897
2758.45	0.0008358
2768.1	0.0006764
2777.74	0.0007037
2787.39	0.0007518
2797.03	0.0009846
2806.68	0.00125
2816.32	0.0016
2825.97	0.00234
2835.61	0.00402
2845.26	0.00632
2854.9	0.00823
2864.55	0.00894
2874.19	0.00968
2883.84	0.01199
2893.48	0.01556
2903.12	0.01867
2912.77	0.01544
2922.41	0.01174
2932.06	0.01187
2941.7	0.01407
2951.35	0.01662
2960.99	0.0244
2970.64	0.03192
2980.28	0.02908
2989.93	0.02032
2999.57	0.01178
3009.22	0.00478
3018.86	0.00152
3028.51	0.0008096
3038.15	0.0006752
3047.8	0.0006542
3057.44	0.000565
3067.09	0.000542
3076.73	0.0005109
3086.38	0.0006233
3096.02	0.0006221
3105.67	0.0006151
3115.31	0.0006401
3124.95	0.0005355
3134.6	0.0005625
3144.24	0.0004871
3153.89	0.0005972
3163.53	0.0006944
3173.18	0.0006592
3182.82	0.0006994
3192.47	0.0005506
3202.11	0.0005705
3211.76	0.0004267
3221.4	0.0004395
3231.05	0.000348
3240.69	0.0003366
3250.34	0.0003596
3259.98	0.0003592
3269.63	0.0003497
3279.27	0.0003342
3288.92	0.0003269
3298.56	0.0003781
3308.21	0.0004626
3317.85	0.0003508
3327.49	0.000548
3337.14	0.0006303
3346.78	0.000638
3356.43	0.0006106
3366.07	0.0005473
3375.72	0.0005246
3385.36	0.0004174
3395.01	0.0004206
3404.65	0.0004719
3414.3	0.0004119
3423.94	0.0004214
3433.59	0.0003146
3443.23	0.0004123
3452.88	0.0002113
3462.52	0.0002975
3472.17	0.0003385
3481.81	0.0005324
3491.46	0.0004296
3501.1	0.0004532
3510.75	0.000648
3520.39	0.0005147
3530.04	0.0007011
3539.68	0.0008943
3549.32	0.00125
3558.97	0.00219
3568.61	0.00608
3578.26	0.01167
3587.9	0.01503
3597.55	0.01285
3607.19	0.00853
3616.84	0.00552
3626.48	0.00446
3636.13	0.00365
3645.77	0.00261
3655.42	0.00148
3665.06	0.0008602
3674.71	0.0006977
3684.35	0.0006174
3694	0.0004589
3703.64	0.000439
3713.29	0.0003912
3722.93	0.000333
3732.58	0.0002553
3742.22	0.0003348
3751.86	0.0003818
3761.51	0.0004239
3771.15	0.0003458
3780.8	0.0004461
3790.44	0.0005598
3800.09	0.000588
3809.73	0.0006695
3819.38	0.0006716
3829.02	0.0007033
3838.67	0.0008006
3848.31	0.0006177
3857.96	0.0005927
3867.6	0.0006826
3877.25	0.0006027
3886.89	0.0006465
3896.54	0.0006263
3906.18	0.000638
3915.83	0.0005265
3925.47	0.000596
3935.12	0.000441
3944.76	0.0003407
3954.41	0.0004587
3964.05	0.0004457
3973.69	0.0004176
3983.34	0.0003956
3992.98	0.0004951
