Infrared Spectrum: 2,5-Di-t-amyl hydroquinone
Formula: C 16 H 26 O 2
CAS: 79-74-3
State: gas
Origin: EPA-IR VAPOR PHASE LIBRARY
1/CM	ABSORBANCE
501.5	0.00651
513.074	0.00525
524.648	0.00434
536.222	0.0036
547.796	0.00284
559.37	0.00224
570.944	0.00218
582.518	0.00244
594.092	0.00392
605.666	0.00565
617.24	0.00621
628.814	0.00688
640.388	0.00438
651.962	0.00232
663.536	0.00187
675.11	0.00196
686.684	0.0027
698.258	0.00344
709.832	0.0026
721.406	0.00205
732.98	0.0023
744.554	0.00304
756.128	0.00636
767.702	0.01859
779.276	0.02108
790.85	0.02932
802.423	0.02824
813.997	0.01261
825.571	0.01227
837.145	0.02317
848.719	0.02111
860.293	0.01711
871.867	0.01457
883.441	0.01173
895.015	0.00526
906.589	0.00482
918.163	0.00402
929.737	0.00349
941.311	0.00339
952.885	0.00284
964.459	0.00307
976.033	0.00374
987.607	0.0061
999.181	0.01015
1010.76	0.01246
1022.33	0.00793
1033.9	0.00767
1045.48	0.009
1057.05	0.01039
1068.63	0.00848
1080.2	0.00829
1091.77	0.0123
1103.35	0.02616
1114.92	0.04607
1126.49	0.03878
1138.07	0.0472
1149.64	0.10904
1161.22	0.15149
1172.79	0.12679
1184.36	0.0985
1195.94	0.06388
1207.51	0.04804
1219.09	0.04441
1230.66	0.02607
1242.23	0.01893
1253.81	0.01625
1265.38	0.01984
1276.96	0.02713
1288.53	0.0318
1300.1	0.03615
1311.68	0.02993
1323.25	0.01907
1334.83	0.01689
1346.4	0.0166
1357.97	0.02454
1369.55	0.04962
1381.12	0.09522
1392.7	0.10827
1404.27	0.12128
1415.84	0.06071
1427.42	0.03129
1438.99	0.02052
1450.57	0.02286
1462.14	0.03455
1473.71	0.04143
1485.29	0.04376
1496.86	0.04943
1508.44	0.04563
1520.01	0.02266
1531.58	0.00985
1543.16	0.00779
1554.73	0.00592
1566.31	0.00461
1577.88	0.00412
1589.45	0.00399
1601.03	0.00365
1612.6	0.00338
1624.18	0.00321
1635.75	0.0028
1647.32	0.00292
1658.9	0.00483
1670.47	0.00364
1682.05	0.00307
1693.62	0.00315
1705.19	0.00236
1716.77	0.00183
1728.34	0.0018
1739.92	0.00179
1751.49	0.00165
1763.06	0.0014
1774.64	0.00124
1786.21	0.00111
1797.79	0.0009233
1809.36	0.0007989
1820.93	0.0006659
1832.51	0.0005753
1844.08	0.000486
1855.66	0.0004953
1867.23	0.0004543
1878.8	0.0004389
1890.38	0.000415
1901.95	0.0004394
1913.53	0.0004629
1925.1	0.000494
1936.67	0.0004152
1948.25	0.0003978
1959.82	0.000474
1971.4	0.0005033
1982.97	0.0005113
1994.54	0.0005278
2006.12	0.0004402
2017.69	0.0004395
2029.27	0.0005336
2040.84	0.0005505
2052.41	0.0004715
2063.99	0.0004292
2075.56	0.0003404
2087.14	0.0003258
2098.71	0.0003726
2110.28	0.0003332
2121.86	0.0002079
2133.43	0.0001816
2145.01	0.0002222
2156.58	0.0003054
2168.15	0.0002875
2179.73	0.0003116
2191.3	0.000323
2202.88	0.0003548
2214.45	0.0003736
2226.02	0.0003711
2237.6	0.0003035
2249.17	0.0002662
2260.74	0.0002912
2272.32	0.0004285
2283.89	0.0004976
2295.47	0.0006569
2307.04	0.0007414
2318.61	0.0007804
2330.19	0.0008767
2341.76	0.0009629
2353.34	0.0011
2364.91	0.0013
2376.48	0.00162
2388.06	0.00175
2399.63	0.00169
2411.21	0.00154
2422.78	0.00142
2434.35	0.0014
2445.93	0.00142
2457.5	0.00137
2469.08	0.00122
2480.65	0.00106
2492.22	0.0009991
2503.8	0.0009314
2515.37	0.0009163
2526.95	0.0008976
2538.52	0.0008036
2550.09	0.0007513
2561.67	0.0008048
2573.24	0.0008432
2584.82	0.0008991
2596.39	0.00111
2607.96	0.00123
2619.54	0.00136
2631.11	0.00148
2642.69	0.00167
2654.26	0.00181
2665.83	0.00161
2677.41	0.0014
2688.98	0.00141
2700.56	0.00159
2712.13	0.00202
2723.7	0.00269
2735.28	0.00334
2746.85	0.00347
2758.43	0.00348
2770	0.004
2781.57	0.00442
2793.15	0.00486
2804.72	0.00547
2816.3	0.0068
2827.87	0.00891
2839.44	0.01213
2851.02	0.01801
2862.59	0.03482
2874.17	0.07403
2885.74	0.09368
2897.31	0.08131
2908.89	0.08341
2920.46	0.1056
2932.04	0.1146
2943.61	0.12059
2955.18	0.14565
2966.76	0.21863
2978.33	0.19613
2989.91	0.0813
3001.48	0.04065
3013.05	0.02543
3024.63	0.01805
3036.2	0.01805
3047.78	0.01562
3059.35	0.01093
3070.92	0.00831
3082.5	0.00662
3094.07	0.00572
3105.65	0.00523
3117.22	0.00487
3128.79	0.00429
3140.37	0.00359
3151.94	0.00301
3163.52	0.00271
3175.09	0.00257
3186.66	0.00231
3198.24	0.00204
3209.81	0.00178
3221.39	0.00157
3232.96	0.00132
3244.53	0.00123
3256.11	0.00113
3267.68	0.00115
3279.26	0.00114
3290.83	0.00112
3302.4	0.00105
3313.98	0.0009771
3325.55	0.000945
3337.13	0.0008493
3348.7	0.0008581
3360.27	0.00106
3371.85	0.00139
3383.42	0.00152
3395	0.0015
3406.57	0.0015
3418.14	0.00135
3429.72	0.00131
3441.29	0.00128
3452.86	0.00125
3464.44	0.00112
3476.01	0.00114
3487.59	0.00103
3499.16	0.0009267
3510.73	0.0007939
3522.31	0.0006521
3533.88	0.0005896
3545.46	0.0005785
3557.03	0.0005405
3568.6	0.0006569
3580.18	0.0008737
3591.75	0.00134
3603.33	0.00223
3614.9	0.00394
3626.47	0.00989
3638.05	0.04523
3649.62	0.06927
3661.2	0.02977
3672.77	0.02273
3684.34	0.01534
3695.92	0.00903
3707.49	0.00484
3719.07	0.00284
3730.64	0.00194
3742.21	0.00137
3753.79	0.0012
3765.36	0.00103
3776.94	0.00112
3788.51	0.00117
3800.08	0.00125
3811.66	0.00144
3823.23	0.00142
3834.81	0.00138
3846.38	0.00133
3857.95	0.00128
3869.53	0.00136
3881.1	0.00137
3892.68	0.00127
3904.25	0.00118
3915.82	0.00136
3927.4	0.00116
3938.97	0.00083
3950.55	0.0006775
3962.12	0.0006433
3973.69	0.000557
3985.27	0.0005833
3996.84	0.0004953
