Infrared Spectrum: o-Toluenesulfonanilide, 5-amino
Formula: C13 H14 N2 O2 S
CAS: 79-72-1
State: SOLID (SPLIT MULL), FLUOROLUBE FOR 3800-1335 CM^-^1, NUJOL FOR 1335-400 CM^-^1
Melting point: 144 C
Class: COBLENTZ III
Instrument: BECKMAN IR-9 (GRATING)
Instrument parameters: ORDER CHANGES: 670, 1200, 2000 CM^-^1
Sampling: TRANSMISSION
Resolution: 2
Origin: DOW CHEMICAL COMPANY
1/CM	TRANSMITTANCE
402	0.5262
411	0.5212
420	0.5285
429	0.5681
438	0.5666
447	0.5202
456	0.6039
465	0.5787
474	0.5246
483	0.4782
492	0.4166
501	0.3195
510	0.1528
519	0.3744
528	0.3588
537	0.349
546	0.4727
555	0.4716
564	0.4533
573	0.4174
582	0.2907
591	0.385
600	0.0596
609	0.513
618	0.7357
627	0.694
636	0.4636
645	0.6621
654	0.7342
663	0.7621
672	0.7955
681	0.8287
690	0.6588
699	0.146
708	0.4951
717	0.6811
726	0.6694
735	0.7438
744	0.7721
753	0.7169
762	0.1398
771	0.6768
780	0.7881
789	0.8061
798	0.7901
807	0.7395
816	0.5701
825	0.4422
834	0.8011
843	0.85
852	0.852
861	0.84
870	0.6915
879	0.6512
888	0.6057
897	0.464
906	0.6641
915	0.4176
924	0.1983
933	0.4523
942	0.664
951	0.7478
960	0.8183
969	0.7794
978	0.8488
987	0.8547
996	0.8355
1005	0.8315
1014	0.8141
1023	0.7687
1032	0.4585
1041	0.7115
1050	0.5358
1059	0.6357
1068	0.6644
1077	0.5483
1086	0.6618
1095	0.6915
1104	0.6585
1113	0.6071
1122	0.5564
1131	0.3329
1140	0.0833
1149	0.1396
1158	0.2488
1167	0.0128
1176	0.4587
1185	0.5833
1194	0.7761
1203	0.7622
1212	0.7434
1221	0.5822
1230	0.5971
1239	0.7441
1248	0.7476
1257	0.6458
1266	0.4214
1275	0.4258
1284	0.3414
1293	0.4025
1302	0.1373
1311	0.335
1320	0.4242
1329	0.2523
1338	0.3062
1347	0.5945
1356	0.6971
1365	0.7194
1374	0.708
1383	0.6007
1392	0.5628
1401	0.3102
1410	0.51
1419	0.5856
1428	0.6515
1437	0.7257
1446	0.6918
1455	0.5877
1464	0.582
1473	0.5178
1482	0.3852
1491	0.2318
1500	0.0843
1509	0.7033
1518	0.829
1527	0.8649
1536	0.8617
1545	0.8531
1554	0.8248
1563	0.7771
1572	0.7525
1581	0.7293
1590	0.6451
1599	0.4303
1608	0.5707
1617	0.4717
1626	0.3526
1635	0.7556
1644	0.8355
1653	0.8523
1662	0.8653
1671	0.8601
1680	0.8513
1689	0.8505
1698	0.8506
1707	0.8453
1716	0.8356
1725	0.8265
1734	0.8168
1743	0.8051
1752	0.8007
1761	0.8069
1770	0.8119
1779	0.8094
1788	0.8053
1797	0.7997
1806	0.7926
1815	0.7836
1824	0.7791
1833	0.7803
1842	0.7805
1851	0.776
1860	0.7691
1869	0.7614
1878	0.7532
1887	0.7492
1896	0.7489
1905	0.7417
1914	0.7511
1923	0.7551
1932	0.7497
1941	0.7417
1950	0.7375
1959	0.7311
1968	0.726
1977	0.7275
1986	0.7281
1995	0.7175
2004	0.7183
2013	0.7272
2022	0.7265
2031	0.723
2040	0.7168
2049	0.7111
2058	0.7062
2067	0.7011
2076	0.6961
2085	0.6911
2094	0.6865
2103	0.6818
2112	0.6772
2121	0.6718
2130	0.6662
2139	0.661
2148	0.6557
2157	0.6504
2166	0.6456
2175	0.6408
2184	0.6362
2193	0.6314
2202	0.626
2211	0.6205
2220	0.6149
2229	0.6091
2238	0.6033
2247	0.5976
2256	0.593
2265	0.5884
2274	0.5844
2283	0.5803
2292	0.5762
2301	0.5724
2310	0.5689
2319	0.5658
2328	0.5628
2337	0.5614
2346	0.5604
2355	0.5593
2364	0.5604
2373	0.5597
2382	0.5548
2391	0.5467
2400	0.5426
2409	0.5397
2418	0.5376
2427	0.5355
2436	0.5334
2445	0.5308
2454	0.5283
2463	0.5265
2472	0.525
2481	0.5233
2490	0.5215
2499	0.5197
2508	0.5178
2517	0.5157
2526	0.5138
2535	0.5117
2544	0.5096
2553	0.5074
2562	0.5053
2571	0.5032
2580	0.5002
2589	0.497
2598	0.494
2607	0.4908
2616	0.4877
2625	0.4846
2634	0.4815
2643	0.4783
2652	0.4751
2661	0.4717
2670	0.4686
2679	0.4658
2688	0.4631
2697	0.4605
2706	0.4578
2715	0.4553
2724	0.4528
2733	0.4503
2742	0.4469
2751	0.4425
2760	0.4392
2769	0.4362
2778	0.4337
2787	0.4303
2796	0.4269
2805	0.4243
2814	0.4223
2823	0.4209
2832	0.4193
2841	0.4145
2850	0.406
2859	0.3964
2868	0.3859
2877	0.3748
2886	0.3743
2895	0.3764
2904	0.3798
2913	0.38
2922	0.3738
2931	0.3644
2940	0.3558
2949	0.3622
2958	0.367
2967	0.3668
2976	0.3653
2985	0.3634
2994	0.3618
3003	0.3606
3012	0.358
3021	0.3543
3030	0.3493
3039	0.3442
3048	0.3388
3057	0.3325
3066	0.3286
3075	0.327
3084	0.3275
3093	0.3292
3102	0.3297
3111	0.3262
3120	0.3208
3129	0.3157
3138	0.3105
3147	0.3047
3156	0.299
3165	0.2931
3174	0.2863
3183	0.2795
3192	0.2727
3201	0.2653
3210	0.2554
3219	0.2455
3228	0.2334
3237	0.2203
3246	0.2039
3255	0.1866
3264	0.1677
3273	0.142
3282	0.115
3291	0.1011
3300	0.2184
3309	0.2912
3318	0.3149
3327	0.3204
3336	0.3209
3345	0.3188
3354	0.313
3363	0.2891
3372	0.2269
3381	0.2901
3390	0.3193
3399	0.3206
3408	0.3207
3417	0.32
3426	0.3151
3435	0.3038
3444	0.2894
3453	0.2612
3462	0.2476
3471	0.3001
3480	0.302
3489	0.3017
3498	0.3017
3507	0.3011
3516	0.3003
3525	0.2991
3534	0.2973
3543	0.2954
3552	0.2933
3561	0.291
3570	0.2896
3579	0.2881
3588	0.2864
3597	0.2844
3606	0.2824
3615	0.2802
3624	0.2782
3633	0.276
3642	0.274
3651	0.2717
3660	0.2696
3669	0.2674
3678	0.2652
3687	0.2628
3696	0.2602
3705	0.2575
3714	0.2548
3723	0.2524
3732	0.2504
3741	0.2483
3750	0.2463
3759	0.2446
3768	0.2433
3777	0.242
3786	0.241
3795	0.2401
