Infrared Spectrum: 1-(2,6,6-TRIMETHYL-1-CYCLOHEXEN-1-YL)-2-METHYL-1-BUTEN-3-ONE
Formula: C14 H22 O
CAS: 79-89-0
State: LIQUID
Boiling point: 124.5 C AT 9 mmHg
Class: COBLENTZ
Instrument: Not specified, most likely a prism, grating, or hybrid spectrometer.
Sampling: TRANSMISSION
Path length: 0.0025 CM
Resolution: 4
Origin: INFRACORD
MICROMETERS	TRANSMITTANCE
2.512	0.944
2.54741	0.944
2.58282	0.943
2.61823	0.943
2.65365	0.943
2.68906	0.943
2.72447	0.938
2.75988	0.919
2.79529	0.908
2.8307	0.895
2.86611	0.884
2.90152	0.873
2.93694	0.861
2.97235	0.843
3.00776	0.839
3.04317	0.861
3.07858	0.876
3.11399	0.88
3.1494	0.881
3.18482	0.881
3.22023	0.863
3.25564	0.804
3.29105	0.684
3.32646	0.429
3.36187	0.162
3.39728	0.079
3.43269	0.143
3.46811	0.266
3.50352	0.453
3.53893	0.762
3.57434	0.858
3.60975	0.884
3.64516	0.887
3.68057	0.887
3.71599	0.887
3.7514	0.888
3.78681	0.895
3.82222	0.907
3.85763	0.914
3.89304	0.916
3.92845	0.918
3.96386	0.916
3.99928	0.916
4.03469	0.918
4.0701	0.919
4.10551	0.92
4.14092	0.921
4.17633	0.922
4.21174	0.93
4.24716	0.934
4.28257	0.934
4.31798	0.934
4.35339	0.934
4.3888	0.934
4.42421	0.934
4.45962	0.934
4.49503	0.937
4.53045	0.941
4.56586	0.943
4.60127	0.943
4.63668	0.944
4.67209	0.944
4.7075	0.944
4.74291	0.944
4.77833	0.944
4.81374	0.944
4.84915	0.944
4.88456	0.945
4.91997	0.945
4.95538	0.945
4.99079	0.945
5.0262	0.944
5.06162	0.944
5.09703	0.945
5.13244	0.945
5.16785	0.946
5.20326	0.947
5.23867	0.95
5.27408	0.95
5.3095	0.95
5.34491	0.952
5.38032	0.951
5.41573	0.951
5.45114	0.95
5.48655	0.951
5.52196	0.951
5.55737	0.951
5.59279	0.951
5.6282	0.947
5.66361	0.933
5.69902	0.906
5.73443	0.892
5.76984	0.883
5.80525	0.868
5.84067	0.851
5.87608	0.78
5.91149	0.594
5.9469	0.441
5.98231	0.149
6.01772	0.02
6.05313	0.176
6.08854	0.418
6.12396	0.488
6.15937	0.482
6.19478	0.518
6.23019	0.69
6.2656	0.786
6.30101	0.849
6.33642	0.877
6.37184	0.884
6.40725	0.892
6.44266	0.894
6.47807	0.894
6.51348	0.895
6.54889	0.895
6.5843	0.896
6.61971	0.896
6.65513	0.896
6.69054	0.896
6.72595	0.882
6.76136	0.813
6.79677	0.616
6.83218	0.5
6.86759	0.416
6.90301	0.39
6.93842	0.381
6.97383	0.367
7.00924	0.347
7.04465	0.416
7.08006	0.564
7.11547	0.673
7.15088	0.688
7.1863	0.589
7.22171	0.413
7.25712	0.373
7.29253	0.398
7.32794	0.295
7.36335	0.137
7.39876	0.309
7.43418	0.584
7.46959	0.644
7.505	0.625
7.54041	0.769
7.57582	0.826
7.61123	0.844
7.64664	0.844
7.68205	0.843
7.71747	0.826
7.75288	0.734
7.78829	0.634
7.8237	0.628
7.85911	0.648
7.89452	0.647
7.92993	0.59
7.96535	0.403
8.00076	0.135
8.03617	0.073
8.07158	0.19
8.10699	0.405
8.1424	0.661
8.17781	0.753
8.21322	0.762
8.24864	0.741
8.28405	0.692
8.31946	0.673
8.35487	0.736
8.39028	0.742
8.42569	0.731
8.4611	0.78
8.49652	0.769
8.53193	0.741
8.56734	0.793
8.60275	0.849
8.63816	0.864
8.67357	0.865
8.70898	0.852
8.74439	0.837
8.77981	0.839
8.81522	0.845
8.85063	0.846
8.88604	0.848
8.92145	0.845
8.95686	0.839
8.99227	0.779
9.02768	0.704
9.0631	0.542
9.09851	0.406
9.13392	0.544
9.16933	0.679
9.20474	0.784
9.24015	0.816
9.27556	0.836
9.31098	0.841
9.34639	0.844
9.3818	0.841
9.41721	0.832
9.45262	0.833
9.48803	0.837
9.52344	0.83
9.55885	0.754
9.59427	0.699
9.62968	0.642
9.66509	0.565
9.7005	0.571
9.73591	0.672
9.77132	0.753
9.80673	0.779
9.84215	0.782
9.87756	0.768
9.91297	0.705
9.94838	0.666
9.98379	0.589
10.0192	0.451
10.0546	0.447
10.09	0.555
10.1254	0.621
10.1608	0.663
10.1963	0.68
10.2317	0.654
10.2671	0.629
10.3025	0.68
10.3379	0.72
10.3733	0.765
10.4087	0.819
10.4441	0.861
10.4795	0.877
10.515	0.89
10.5504	0.896
10.5858	0.896
10.6212	0.895
10.6566	0.869
10.692	0.837
10.7274	0.784
10.7628	0.754
10.7983	0.748
10.8337	0.778
10.8691	0.835
10.9045	0.851
10.9399	0.862
10.9753	0.862
11.0107	0.856
11.0461	0.826
11.0815	0.758
11.117	0.683
11.1524	0.663
11.1878	0.744
11.2232	0.807
11.2586	0.832
11.294	0.833
11.3294	0.831
11.3648	0.842
11.4002	0.876
11.4357	0.882
11.4711	0.884
11.5065	0.886
11.5419	0.881
11.5773	0.867
11.6127	0.86
11.6481	0.86
11.6835	0.869
11.7189	0.889
11.7544	0.902
11.7898	0.907
11.8252	0.908
11.8606	0.909
11.896	0.911
11.9314	0.912
11.9668	0.914
12.0022	0.915
12.0376	0.919
12.0731	0.924
12.1085	0.932
12.1439	0.935
12.1793	0.935
12.2147	0.935
12.2501	0.931
12.2855	0.928
12.3209	0.928
12.3564	0.928
12.3918	0.928
12.4272	0.928
12.4626	0.928
12.498	0.912
12.5334	0.893
12.5688	0.884
12.6042	0.883
12.6396	0.889
12.6751	0.9
12.7105	0.906
12.7459	0.906
12.7813	0.9
12.8167	0.865
12.8521	0.809
12.8875	0.795
12.9229	0.81
12.9583	0.849
12.9938	0.864
13.0292	0.892
13.0646	0.901
13.1	0.907
13.1354	0.911
13.1708	0.913
13.2062	0.915
13.2416	0.916
13.277	0.916
13.3125	0.918
13.3479	0.918
13.3833	0.918
13.4187	0.918
13.4541	0.918
13.4895	0.918
13.5249	0.918
13.5603	0.919
13.5957	0.918
13.6312	0.916
13.6666	0.903
13.702	0.893
13.7374	0.882
13.7728	0.877
13.8082	0.877
13.8436	0.877
13.879	0.877
13.9144	0.877
13.9499	0.877
13.9853	0.877
14.0207	0.873
14.0561	0.868
14.0915	0.858
14.1269	0.848
14.1623	0.843
14.1977	0.837
14.2332	0.836
14.2686	0.836
14.304	0.835
14.3394	0.835
14.3748	0.835
14.4102	0.835
14.4456	0.835
14.481	0.835
14.5164	0.835
14.5519	0.835
14.5873	0.835
14.6227	0.833
14.6581	0.831
14.6935	0.825
14.7289	0.82
14.7643	0.809
14.7997	0.798
14.8351	0.794
14.8706	0.79
14.906	0.788
14.9414	0.787
14.9768	0.787
15.0122	0.775
