Infrared Spectrum: PHENOL, 4,4'-ISOPROPYLIDENE BIS(2-TERT-BUTYL)-
Formula: C23 H32 O2
CAS: 79-96-9
State: SOLID
Melting point: 100-105 C
Class: COBLENTZ
Instrument: Not specified, most likely a prism, grating, or hybrid spectrometer.
Sampling: TRANSMISSION
Resolution: 4
Origin: TENNESSEE EASTMAN COMPANY, RESEARCH LABORATORIES
MICROMETERS	TRANSMITTANCE
2.034	0.984
2.07488	0.981
2.11575	0.977
2.15663	0.977
2.19751	0.977
2.23838	0.976
2.27926	0.964
2.32014	0.959
2.36101	0.96
2.40189	0.959
2.44276	0.959
2.48364	0.96
2.52452	0.96
2.56539	0.957
2.60627	0.952
2.64715	0.952
2.68802	0.952
2.7289	0.87
2.76978	0.66
2.81065	0.403
2.85153	0.219
2.89241	0.492
2.93328	0.541
2.97416	0.604
3.01504	0.662
3.05591	0.708
3.09679	0.768
3.13766	0.809
3.17854	0.85
3.21942	0.87
3.26029	0.879
3.30117	0.822
3.34205	0.509
3.38292	0.175
3.4238	0.4
3.46468	0.483
3.50555	0.848
3.54643	0.877
3.58731	0.906
3.62818	0.918
3.66906	0.916
3.70994	0.914
3.75081	0.921
3.79169	0.921
3.83256	0.93
3.87344	0.933
3.91432	0.933
3.95519	0.931
3.99607	0.933
4.03695	0.931
4.07782	0.93
4.1187	0.931
4.15958	0.931
4.20045	0.933
4.24133	0.931
4.28221	0.908
4.32308	0.902
4.36396	0.938
4.40483	0.952
4.44571	0.948
4.48659	0.95
4.52746	0.952
4.56834	0.95
4.60922	0.948
4.65009	0.948
4.69097	0.948
4.73185	0.947
4.77272	0.948
4.8136	0.948
4.85448	0.947
4.89535	0.95
4.93623	0.945
4.97711	0.942
5.01798	0.952
5.05886	0.942
5.09973	0.947
5.14061	0.948
5.18149	0.95
5.22236	0.945
5.26324	0.936
5.30412	0.928
5.34499	0.931
5.38587	0.931
5.42675	0.938
5.46762	0.933
5.5085	0.94
5.54938	0.938
5.59025	0.928
5.63113	0.914
5.67201	0.911
5.71288	0.911
5.75376	0.897
5.79463	0.901
5.83551	0.89
5.87639	0.899
5.91726	0.885
5.95814	0.867
5.99902	0.862
6.03989	0.848
6.08077	0.798
6.12165	0.8
6.16252	0.79
6.2034	0.741
6.24428	0.662
6.28515	0.802
6.32603	0.844
6.36691	0.858
6.40778	0.843
6.44866	0.841
6.48953	0.798
6.53041	0.8
6.57129	0.522
6.61216	0.148
6.65304	0.282
6.69392	0.541
6.73479	0.456
6.77567	0.522
6.81655	0.459
6.85742	0.507
6.8983	0.633
6.93918	0.71
6.98005	0.708
7.02093	0.683
7.06181	0.475
7.10268	0.209
7.14356	0.376
7.18443	0.471
7.22531	0.582
7.26619	0.689
7.30706	0.568
7.34794	0.257
7.38882	0.533
7.42969	0.698
7.47057	0.565
7.51145	0.345
7.55232	0.589
7.5932	0.72
7.63408	0.78
7.67495	0.758
7.71583	0.638
7.75671	0.454
7.79758	0.521
7.83846	0.557
7.87933	0.458
7.92021	0.446
7.96109	0.26
8.00196	0.214
8.04284	0.357
8.08372	0.393
8.12459	0.318
8.16547	0.381
8.20635	0.437
8.24722	0.477
8.2881	0.439
8.32898	0.349
8.36985	0.279
8.41073	0.221
8.4516	0.229
8.49248	0.224
8.53336	0.415
8.57423	0.541
8.61511	0.543
8.65599	0.528
8.69686	0.505
8.73774	0.637
8.77862	0.657
8.81949	0.609
8.86037	0.587
8.90125	0.611
8.94212	0.664
8.983	0.73
9.02388	0.734
9.06475	0.689
9.10563	0.698
9.1465	0.672
9.18738	0.301
9.22826	0.223
9.26913	0.57
9.31001	0.715
9.35089	0.773
9.39176	0.797
9.43264	0.812
9.47352	0.819
9.51439	0.824
9.55527	0.831
9.59615	0.834
9.63702	0.833
9.6779	0.833
9.71878	0.831
9.75965	0.81
9.80053	0.797
9.8414	0.817
9.88228	0.838
9.92316	0.839
9.96403	0.836
10.0049	0.855
10.0458	0.865
10.0867	0.87
10.1275	0.873
10.1684	0.873
10.2093	0.873
10.2502	0.873
10.291	0.877
10.3319	0.877
10.3728	0.877
10.4137	0.877
10.4546	0.872
10.4954	0.87
10.5363	0.86
10.5772	0.843
10.6181	0.831
10.6589	0.827
10.6998	0.824
10.7407	0.79
10.7816	0.8
10.8224	0.833
10.8633	0.858
10.9042	0.875
10.9451	0.882
10.9859	0.885
11.0268	0.865
11.0677	0.788
11.1086	0.764
11.1495	0.77
11.1903	0.679
11.2312	0.604
11.2721	0.776
11.313	0.829
11.3538	0.856
11.3947	0.867
11.4356	0.867
11.4765	0.85
11.5173	0.843
11.5582	0.867
11.5991	0.88
11.64	0.882
11.6808	0.884
11.7217	0.88
11.7626	0.873
11.8035	0.86
11.8444	0.836
11.8852	0.809
11.9261	0.775
11.967	0.722
12.0079	0.628
12.0487	0.465
12.0896	0.388
12.1305	0.277
12.1714	0.269
12.2122	0.333
12.2531	0.357
12.294	0.497
12.3349	0.633
12.3757	0.729
12.4166	0.797
12.4575	0.822
12.4984	0.834
12.5393	0.841
12.5801	0.846
12.621	0.85
12.6619	0.85
12.7028	0.848
12.7436	0.826
12.7845	0.771
12.8254	0.683
12.8663	0.667
12.9071	0.698
12.948	0.705
12.9889	0.754
13.0298	0.805
13.0706	0.822
13.1115	0.831
13.1524	0.838
13.1933	0.838
13.2342	0.819
13.275	0.792
13.3159	0.787
13.3568	0.798
13.3977	0.822
13.4385	0.836
13.4794	0.841
13.5203	0.846
13.5612	0.85
13.602	0.85
13.6429	0.848
13.6838	0.843
13.7247	0.831
13.7655	0.819
13.8064	0.797
13.8473	0.798
13.8882	0.81
13.9291	0.829
13.9699	0.838
14.0108	0.838
14.0517	0.838
14.0926	0.838
14.1334	0.838
14.1743	0.838
14.2152	0.836
14.2561	0.829
14.2969	0.829
14.3378	0.824
14.3787	0.822
14.4196	0.822
14.4604	0.819
14.5013	0.816
14.5422	0.814
14.5831	0.809
14.624	0.809
14.6648	0.802
14.7057	0.798
14.7466	0.797
14.7875	0.793
14.8283	0.788
14.8692	0.781
14.9101	0.768
14.951	0.752
14.9918	0.73
15.0327	0.717
15.0736	0.712
15.1145	0.708
15.1553	0.705
15.1962	0.693
15.2371	0.678
15.278	0.652
15.3189	0.623
15.3597	0.589
15.4006	0.555
15.4415	0.529
15.4824	0.521
15.5232	0.522
15.5641	0.528
15.605	0.534
15.6459	0.54
15.6867	0.546
15.7276	0.546
15.7685	0.55
15.8094	0.55
15.8502	0.555
15.8911	0.555
15.932	0.553
15.9729	0.55
