Infrared Spectrum: PHENOL, 4,4'-(2,2-PROPANEDIYL) BIS[2,6-DICHLORO]-
Formula: C15 H12 Cl4 O2
CAS: 79-95-8
State: SOLID (KBr DISC, GROUND WITH CHCl3)
Class: COBLENTZ III
Instrument: PERKIN-ELMER 283
Sampling: TRANSMISSION
Resolution: 4
Origin: PERKIN-ELMER
1/CM	TRANSMITTANCE
200	0.038
209.74	0.04
219.481	0.072
229.221	0.134
238.961	0.251
248.701	0.391
258.442	0.501
268.182	0.595
277.922	0.674
287.663	0.722
297.403	0.737
307.143	0.766
316.883	0.775
326.624	0.81
336.364	0.812
346.104	0.807
355.845	0.797
365.585	0.764
375.325	0.709
385.065	0.78
394.806	0.758
404.546	0.771
414.286	0.753
424.026	0.736
433.767	0.711
443.507	0.709
453.247	0.696
462.988	0.688
472.728	0.722
482.468	0.709
492.208	0.698
501.949	0.692
511.689	0.696
521.429	0.679
531.17	0.674
540.91	0.691
550.65	0.727
560.39	0.746
570.131	0.771
579.871	0.807
589.611	0.713
599.352	0.762
609.092	0.822
618.832	0.859
628.572	0.844
638.313	0.5779
648.053	0.689
657.793	0.883
667.534	0.888
677.274	0.89
687.014	0.877
696.754	0.86
706.495	0.785
716.235	0.56
725.975	0.764
735.715	0.85
745.456	0.788
755.196	0.718
764.936	0.744
774.677	0.6399
784.417	0.431
794.157	0.164
803.897	0.4531
813.638	0.781
823.378	0.842
833.118	0.888
842.859	0.866
852.599	0.691
862.339	0.4351
872.079	0.731
881.82	0.82
891.56	0.7259
901.3	0.875
911.041	0.888
920.781	0.881
930.521	0.852
940.261	0.791
950.002	0.859
959.742	0.866
969.482	0.859
979.223	0.854
988.963	0.846
998.703	0.832
1008.44	0.813
1018.18	0.817
1027.92	0.81
1037.66	0.797
1047.4	0.79
1057.14	0.786
1066.89	0.771
1076.63	0.705
1086.37	0.754
1096.11	0.741
1105.85	0.711
1115.59	0.666
1125.33	0.638
1135.07	0.478
1144.81	0.581
1154.55	0.488
1164.29	0.348
1174.03	0.241
1183.77	0.275
1193.51	0.365
1203.25	0.576
1212.99	0.5829
1222.73	0.319
1232.47	0.428
1242.21	0.388
1251.95	0.2901
1261.69	0.4399
1271.43	0.161
1281.17	0.45
1290.91	0.288
1300.65	0.674
1310.39	0.5519
1320.13	0.412
1329.87	0.565
1339.61	0.5541
1349.35	0.745
1359.09	0.6909
1368.83	0.677
1378.57	0.678
1388.31	0.4489
1398.05	0.293
1407.79	0.6273
1417.54	0.82
1427.28	0.779
1437.02	0.749
1446.76	0.6509
1456.5	0.527
1466.24	0.421
1475.98	0.2849
1485.72	0.06
1495.46	0.4741
1505.2	0.701
1514.94	0.81
1524.68	0.863
1534.42	0.852
1544.16	0.821
1553.9	0.7759
1563.64	0.4339
1573.38	0.6701
1583.12	0.903
1592.86	0.917
1602.6	0.917
1612.34	0.922
1622.08	0.919
1631.82	0.916
1641.56	0.917
1651.3	0.905
1661.04	0.913
1670.78	0.916
1680.52	0.908
1690.26	0.909
1700	0.89
1709.74	0.879
1719.48	0.868
1729.22	0.868
1738.96	0.859
1748.7	0.869
1758.45	0.878
1768.19	0.863
1777.93	0.885
1787.67	0.878
1797.41	0.905
1807.15	0.91
1816.89	0.909
1826.63	0.906
1836.37	0.904
1846.11	0.903
1855.85	0.899
1865.59	0.894
1875.33	0.891
1885.07	0.888
1894.81	0.888
1904.55	0.886
1914.29	0.882
1924.03	0.882
1933.77	0.879
1943.51	0.877
1953.25	0.875
1962.99	0.873
1972.73	0.872
1982.47	0.868
1992.21	0.863
2001.95	0.86
2011.69	0.859
2021.43	0.859
2031.17	0.857
2040.91	0.856
2050.65	0.854
2060.39	0.851
2070.13	0.848
2079.87	0.847
2089.61	0.847
2099.35	0.8461
2109.1	0.844
2118.84	0.843
2128.58	0.841
2138.32	0.841
2148.06	0.839
2157.8	0.838
2167.54	0.837
2177.28	0.834
2187.02	0.8303
2196.76	0.8282
2206.5	0.8264
2216.24	0.8252
2225.98	0.824
2235.72	0.822
2245.46	0.821
2255.2	0.8152
2264.94	0.813
2274.68	0.812
2284.42	0.8112
2294.16	0.807
2303.9	0.8023
2313.64	0.7955
2323.38	0.791
2333.12	0.789
2342.86	0.79
2352.6	0.7883
2362.34	0.788
2372.08	0.788
2381.82	0.788
2391.56	0.788
2401.3	0.788
2411.04	0.788
2420.78	0.7844
2430.52	0.7777
2440.26	0.772
2450.01	0.768
2459.75	0.7648
2469.49	0.762
2479.23	0.7594
2488.97	0.757
2498.71	0.755
2508.45	0.754
2518.19	0.753
2527.93	0.7519
2537.67	0.753
2547.41	0.754
2557.15	0.754
2566.89	0.753
2576.63	0.751
2586.37	0.75
2596.11	0.749
2605.85	0.747
2615.59	0.743
2625.33	0.738
2635.07	0.7355
2644.81	0.732
2654.55	0.729
2664.29	0.728
2674.03	0.7266
2683.77	0.726
2693.51	0.726
2703.25	0.724
2712.99	0.723
2722.73	0.722
2732.47	0.7196
2742.21	0.7176
2751.95	0.715
2761.69	0.7123
2771.43	0.71
2781.17	0.7073
2790.91	0.6967
2800.66	0.693
2810.4	0.6917
2820.14	0.6827
2829.88	0.6724
2839.62	0.6614
2849.36	0.623
2859.1	0.5979
2868.84	0.5861
2878.58	0.6058
2888.32	0.609
2898.06	0.5947
2907.8	0.5715
2917.54	0.5379
2927.28	0.4897
2937.02	0.5471
2946.76	0.5511
2956.5	0.3876
2966.24	0.3572
2975.98	0.5484
2985.72	0.687
2995.46	0.6838
3005.2	0.6778
3014.94	0.6708
3024.68	0.6619
3034.42	0.6579
3044.16	0.6467
3053.9	0.6359
3063.64	0.6258
3073.38	0.6103
3083.12	0.6041
3092.86	0.608
3102.6	0.6038
3112.34	0.5939
3122.08	0.5858
3131.82	0.5688
3141.57	0.563
3151.31	0.559
3161.05	0.5469
3170.79	0.531
3180.53	0.518
3190.27	0.501
3200.01	0.479
3209.75	0.456
3219.49	0.4351
3229.23	0.4131
3238.97	0.3911
3248.71	0.3611
3258.45	0.3372
3268.19	0.3192
3277.93	0.2954
3287.67	0.2751
3297.41	0.2553
3307.15	0.2312
3316.89	0.2242
3326.63	0.2103
3336.37	0.2001
3346.11	0.196
3355.85	0.195
3365.59	0.1997
3375.33	0.2141
3385.07	0.2278
3394.81	0.2473
3404.55	0.2777
3414.29	0.3117
3424.03	0.3642
3433.77	0.4149
3443.51	0.4698
3453.25	0.5259
3462.99	0.5826
3472.73	0.6309
3482.47	0.6738
3492.22	0.7008
3501.96	0.722
3511.7	0.7397
3521.44	0.7475
3531.18	0.7504
3540.92	0.7597
3550.66	0.7674
3560.4	0.771
3570.14	0.771
3579.88	0.771
3589.62	0.771
3599.36	0.7687
3609.1	0.768
3618.84	0.766
3628.58	0.764
3638.32	0.764
3648.06	0.7624
3657.8	0.762
3667.54	0.758
3677.28	0.755
3687.02	0.753
3696.76	0.751
3706.5	0.7504
3716.24	0.75
3725.98	0.7454
3735.72	0.741
3745.46	0.7379
3755.2	0.739
3764.94	0.737
3774.68	0.736
3784.42	0.729
3794.16	0.726
3803.9	0.7225
3813.64	0.72
3823.38	0.718
3833.13	0.717
3842.87	0.717
3852.61	0.7135
3862.35	0.711
3872.09	0.711
3881.83	0.711
3891.57	0.711
3901.31	0.711
3911.05	0.711
3920.79	0.711
3930.53	0.711
3940.27	0.711
3950.01	0.711
3959.75	0.711
3969.49	0.711
3979.23	0.711
3988.97	0.711
3998.71	0.711
