Infrared Spectrum: Camphene
Formula: C 10 H 16
CAS: 79-92-5
State: gas
Instrument: HP-GC/MS/IRD
Origin: NIST Mass Spectrometry Data Center
1/CM	ABSORBANCE
550	0.0001281
562	0.0001491
574	0.0001533
586	0
598	7.56e-05
610	7.14e-05
622	0.0002268
634	0.0003948
646	0.0003192
658	0.000399
670	0.0005775
682	0.0003717
694	0.0001827
706	0.0001428
718	5.67e-05
730	0.0001575
742	0.0003024
754	0.0003171
766	0.0001554
778	8.82e-05
790	0.0001302
802	0.0001953
814	0.0001449
826	1.05e-05
838	9.87e-05
850	0.0002163
862	0.000861
874	0.0029274
886	0.0039816
898	0.0017346
910	0.0003192
922	0.0002142
934	0.0002667
946	0.0002457
958	0.0002478
970	0.0002625
982	0.0001197
994	5.46e-05
1006	2.1e-05
1018	7.35e-05
1030	0.0001638
1042	0.0002436
1054	0.0001428
1066	1.05e-05
1078	0.0001239
1090	0.0004095
1102	0.0007098
1114	0.0006762
1126	0.0003927
1138	0.0003213
1150	0.0005082
1162	0.0005481
1174	0.0002688
1186	0.0002289
1198	0.0003381
1210	0.0002835
1222	0.0001953
1234	0.0001302
1246	0.0001092
1258	0.000189
1270	0.0001953
1282	0.0002163
1294	0.0002814
1306	0.0002835
1318	0.0001806
1330	0.0001533
1342	0.0002289
1354	0.0006321
1366	0.0012285
1378	0.0012789
1390	0.0010353
1402	0.000651
1414	0.0006426
1426	0.0007287
1438	0.0008232
1450	0.0013713
1462	0.0019446
1474	0.0017325
1486	0.00105
1498	0.000525
1510	0.0001932
1522	8.61e-05
1534	9.03e-05
1546	9.66e-05
1558	9.87e-05
1570	0.000126
1582	0.000105
1594	9.87e-05
1606	0.0001281
1618	0.0002856
1630	0.0005103
1642	0.0010101
1654	0.0015225
1666	0.0013524
1678	0.0006909
1690	0.0002646
1702	0.0001071
1714	7.98e-05
1726	8.82e-05
1738	7.35e-05
1750	0.0001134
1762	0.0002436
1774	0.0003255
1786	0.0001638
1798	7.77e-05
1810	5.46e-05
1822	3.36e-05
1834	4.83e-05
1846	5.04e-05
1858	3.99e-05
1870	3.36e-05
1882	2.52e-05
1894	3.78e-05
1906	2.94e-05
1918	3.78e-05
1930	1.89e-05
1942	2.1e-05
1954	1.89e-05
1966	4.2e-05
1978	3.57e-05
1990	3.78e-05
2002	4.62e-05
2014	1.89e-05
2026	3.78e-05
2038	4.2e-06
2050	2.52e-05
2062	2.1e-05
2074	4.41e-05
2086	4.41e-05
2098	3.36e-05
2110	5.04e-05
2122	5.04e-05
2134	6.51e-05
2146	5.46e-05
2158	5.46e-05
2170	4.41e-05
2182	5.46e-05
2194	3.57e-05
2206	1.05e-05
2218	3.15e-05
2230	5.04e-05
2242	4.2e-05
2254	4.41e-05
2266	3.78e-05
2278	3.15e-05
2290	1.05e-05
2302	3.78e-05
2314	2.94e-05
2326	3.78e-05
2338	3.57e-05
2350	2.1e-05
2362	0
2374	1.68e-05
2386	2.31e-05
2398	3.78e-05
2410	3.78e-05
2422	8.4e-06
2434	4.2e-05
2446	4.62e-05
2458	1.89e-05
2470	2.31e-05
2482	4.2e-05
2494	1.47e-05
2506	3.57e-05
2518	3.57e-05
2530	2.52e-05
2542	5.04e-05
2554	4.62e-05
2566	4.83e-05
2578	5.88e-05
2590	4.2e-05
2602	6.51e-05
2614	2.1e-05
2626	5.25e-05
2638	2.52e-05
2650	5.67e-05
2662	5.25e-05
2674	7.14e-05
2686	6.3e-05
2698	5.04e-05
2710	6.93e-05
2722	0.000126
2734	0.0001575
2746	0.0001491
2758	0.0001785
2770	0.0001806
2782	0.000189
2794	0.0001911
2806	0.0001869
2818	0.0002814
2830	0.0003465
2842	0.0005481
2854	0.0011403
2866	0.0031311
2878	0.0057393
2890	0.0062328
2902	0.0053697
2914	0.005607
2926	0.0078813
2938	0.0114765
2950	0.0159894
2962	0.020496
2974	0.0197421
2986	0.013713
2998	0.0058338
3010	0.0016275
3022	0.0007014
3034	0.0005313
3046	0.0006111
3058	0.0012264
3070	0.0020895
3082	0.0014952
3094	0.0004725
3106	0.0002205
3118	0.0002184
3130	0.0001764
3142	0.0001911
3154	0.0001554
3166	0.0001743
3178	0.0001743
3190	0.0001932
3202	0.0001428
3214	0.0001008
3226	7.35e-05
3238	8.82e-05
3250	7.14e-05
3262	5.04e-05
3274	4.41e-05
3286	4.2e-05
3298	3.36e-05
3310	7.56e-05
3322	1.89e-05
3334	0.0001134
3346	5.04e-05
3358	8.82e-05
3370	8.82e-05
3382	6.51e-05
3394	7.98e-05
3406	5.04e-05
3418	0.0001092
3430	7.98e-05
3442	9.03e-05
3454	5.88e-05
3466	8.4e-06
3478	7.35e-05
3490	9.03e-05
3502	4.62e-05
3514	3.15e-05
3526	5.25e-05
3538	6.09e-05
3550	4.41e-05
3562	7.56e-05
3574	4.2e-05
3586	3.36e-05
3598	5.46e-05
3610	3.78e-05
3622	4.62e-05
3634	8.19e-05
3646	9.66e-05
3658	9.24e-05
3670	9.24e-05
3682	6.93e-05
3694	8.61e-05
3706	0.0001134
3718	0.0001134
3730	6.09e-05
3742	7.35e-05
3754	7.14e-05
3766	0.0001029
3778	7.77e-05
3790	7.35e-05
3802	1.05e-05
3814	7.14e-05
3826	3.57e-05
3838	0.0001197
