Infrared Spectrum: PHENOL, 4,4'-(2,2-PROPANEDIYL) BIS[2,6-DIBROMO]-
Formula: C15 H12 Br4 O2
CAS: 79-94-7
Class: COBLENTZ III
Instrument: PERKIN-ELMER 283
Sampling: TRANSMISSION
Path length: FILM DEPOSITED FROM CHCl3, CsI WINDOW
Resolution: 4
Origin: PERKIN-ELMER
1/CM	TRANSMITTANCE
204.088	0.781
213.822	0.854
223.556	0.894
233.29	0.909
243.024	0.918
252.758	0.954
262.492	0.907
272.226	0.969
281.96	0.975
291.694	0.972
301.428	0.969
311.162	0.967
320.896	0.962
330.63	0.956
340.363	0.945
350.097	0.93
359.831	0.922
369.565	0.905
379.299	0.874
389.033	0.832
398.767	0.814
408.501	0.809
418.235	0.752
427.969	0.606
437.703	0.627
447.437	0.815
457.171	0.914
466.905	0.96
476.639	0.972
486.373	0.954
496.107	0.984
505.841	0.988
515.575	0.983
525.309	0.971
535.043	0.886
544.777	0.947
554.511	0.947
564.245	0.941
573.979	0.962
583.713	0.967
593.446	0.963
603.18	0.945
612.914	0.846
622.648	0.947
632.382	0.947
642.116	0.88
651.85	0.943
661.584	0.948
671.318	0.949
681.052	0.939
690.786	0.922
700.52	0.682
710.254	0.7561
719.988	0.905
729.722	0.569
739.456	0.847
749.19	0.846
758.924	0.843
768.658	0.872
778.392	0.827
788.126	0.925
797.86	0.93
807.594	0.925
817.328	0.914
827.062	0.918
836.796	0.913
846.529	0.912
856.263	0.92
865.997	0.7671
875.731	0.851
885.465	0.876
895.199	0.95
904.933	0.95
914.667	0.952
924.401	0.948
934.135	0.932
943.869	0.896
953.603	0.948
963.337	0.943
973.071	0.945
982.805	0.945
992.539	0.944
1002.27	0.943
1012.01	0.936
1021.74	0.938
1031.47	0.927
1041.21	0.926
1050.94	0.921
1060.68	0.901
1070.41	0.921
1080.14	0.912
1089.88	0.903
1099.61	0.882
1109.35	0.874
1119.08	0.809
1128.81	0.63
1138.55	0.676
1148.28	0.809
1158.02	0.716
1167.75	0.651
1177.48	0.695
1187.22	0.789
1196.95	0.704
1206.69	0.814
1216.42	0.779
1226.15	0.727
1235.89	0.682
1245.62	0.549
1255.36	0.774
1265.09	0.4069
1274.82	0.5621
1284.56	0.851
1294.29	0.889
1304.03	0.894
1313.76	0.838
1323.49	0.491
1333.23	0.859
1342.96	0.896
1352.7	0.873
1362.43	0.829
1372.16	0.872
1381.9	0.775
1391.63	0.6
1401.37	0.83
1411.1	0.873
1420.83	0.873
1430.57	0.874
1440.3	0.814
1450.04	0.726
1459.77	0.5259
1469.5	0.201
1479.24	0.6951
1488.97	0.789
1498.7	0.876
1508.44	0.904
1518.17	0.903
1527.91	0.899
1537.64	0.886
1547.37	0.829
1557.11	0.696
1566.84	0.885
1576.58	0.892
1586.31	0.892
1596.04	0.899
1605.78	0.9
1615.51	0.901
1625.25	0.905
1634.98	0.907
1644.71	0.908
1654.45	0.913
1664.18	0.913
1673.92	0.913
1683.65	0.913
1693.38	0.91
1703.12	0.914
1712.85	0.914
1722.59	0.912
1732.32	0.905
1742.05	0.899
1751.79	0.872
1761.52	0.89
1771.26	0.891
1780.99	0.907
1790.72	0.907
1800.46	0.908
1810.19	0.907
1819.93	0.905
1829.66	0.903
1839.39	0.903
1849.13	0.898
1858.86	0.899
1868.6	0.901
1878.33	0.9
1888.06	0.899
1897.8	0.9
1907.53	0.898
1917.27	0.898
1927	0.899
1936.73	0.904
1946.47	0.904
1956.2	0.905
1965.94	0.903
1975.67	0.9
1985.4	0.907
1995.14	0.904
2004.87	0.903
2014.6	0.902
2024.34	0.901
2034.07	0.8985
2043.81	0.898
2053.54	0.9
2063.27	0.898
2073.01	0.899
2082.74	0.904
2092.48	0.9021
2102.21	0.9005
2111.94	0.901
2121.68	0.898
2131.41	0.904
2141.15	0.9026
2150.88	0.9013
2160.61	0.9021
2170.35	0.903
2180.08	0.905
2189.82	0.904
2199.55	0.9
2209.28	0.903
2219.02	0.9034
2228.75	0.9022
2238.49	0.9013
2248.22	0.901
2257.95	0.901
2267.69	0.903
2277.42	0.901
2287.16	0.901
2296.89	0.898
2306.62	0.895
2316.36	0.8902
2326.09	0.8858
2335.83	0.89
2345.56	0.89
2355.29	0.89
2365.03	0.89
2374.76	0.89
2384.5	0.889
2394.23	0.889
2403.96	0.887
2413.7	0.887
2423.43	0.887
2433.17	0.887
2442.9	0.886
2452.63	0.885
2462.37	0.883
2472.1	0.882
2481.84	0.883
2491.57	0.882
2501.3	0.881
2511.04	0.88
2520.77	0.8794
2530.5	0.8777
2540.24	0.877
2549.97	0.877
2559.71	0.876
2569.44	0.872
2579.17	0.87
2588.91	0.873
2598.64	0.8733
2608.38	0.8714
2618.11	0.869
2627.84	0.8687
2637.58	0.868
2647.31	0.87
2657.05	0.8727
2666.78	0.87
2676.51	0.87
2686.25	0.869
2695.98	0.8683
2705.72	0.869
2715.45	0.867
2725.18	0.8647
2734.92	0.863
2744.65	0.863
2754.39	0.863
2764.12	0.863
2773.85	0.8625
2783.59	0.8588
2793.32	0.8592
2803.06	0.859
2812.79	0.858
2822.52	0.856
2832.26	0.855
2841.99	0.8536
2851.73	0.8508
2861.46	0.849
2871.19	0.8346
2880.93	0.8344
2890.66	0.838
2900.4	0.84
2910.13	0.832
2919.86	0.8226
2929.6	0.8141
2939.33	0.8036
2949.07	0.815
2958.8	0.8079
2968.53	0.7465
2978.27	0.6735
2988	0.7363
2997.74	0.8052
3007.47	0.84
3017.2	0.838
3026.94	0.8383
3036.67	0.84
3046.4	0.84
3056.14	0.84
3065.87	0.8357
3075.61	0.8363
3085.34	0.84
3095.07	0.836
3104.81	0.834
3114.54	0.836
3124.28	0.838
3134.01	0.845
3143.74	0.838
3153.48	0.8401
3163.21	0.8448
3172.95	0.8398
3182.68	0.8358
3192.41	0.832
3202.15	0.832
3211.88	0.829
3221.62	0.8268
3231.35	0.8249
3241.08	0.8239
3250.82	0.823
3260.55	0.8209
3270.29	0.819
3280.02	0.818
3289.75	0.819
3299.49	0.818
3309.22	0.816
3318.96	0.8159
3328.69	0.814
3338.42	0.812
3348.16	0.812
3357.89	0.812
3367.63	0.81
3377.36	0.8089
3387.09	0.8049
3396.83	0.7929
3406.56	0.783
3416.3	0.772
3426.03	0.7609
3435.76	0.7439
3445.5	0.6758
3455.23	0.5888
3464.97	0.4105
3474.7	0.2962
3484.43	0.5292
3494.17	0.63
3503.9	0.723
3513.64	0.7619
3523.37	0.7969
3533.1	0.82
3542.84	0.828
3552.57	0.827
3562.3	0.84
3572.04	0.841
3581.77	0.838
3591.51	0.837
3601.24	0.838
3610.97	0.842
3620.71	0.843
3630.44	0.846
3640.18	0.847
3649.91	0.8491
3659.64	0.8509
3669.38	0.852
3679.11	0.8501
3688.85	0.85
3698.58	0.852
3708.31	0.854
3718.05	0.8498
3727.78	0.851
3737.52	0.849
3747.25	0.849
3756.98	0.847
3766.72	0.851
3776.45	0.846
3786.19	0.847
3795.92	0.847
3805.65	0.8432
3815.39	0.846
3825.12	0.8488
3834.86	0.849
3844.59	0.8472
3854.32	0.847
3864.06	0.847
3873.79	0.849
3883.53	0.849
3893.26	0.8473
3902.99	0.847
3912.73	0.8461
3922.46	0.845
3932.2	0.847
3941.93	0.847
3951.66	0.849
3961.4	0.849
3971.13	0.846
3980.87	0.849
3990.6	0.8492
4000.33	0.847
