Infrared Spectrum: 4,4'-Diacetyldiphenylmethane
Formula: C 17 H 16 O 2
CAS: 790-82-9
State: gas
Origin: EPA-IR VAPOR PHASE LIBRARY
1/CM	ABSORBANCE
549.8	0.001893
559.445	0.003363
569.09	0.010843
578.734	0.021553
588.379	0.010783
598.024	0.006323
607.669	0.003633
617.313	0.002363
626.958	0.001653
636.603	0.002063
646.248	0.002293
655.893	0.002873
665.537	0.005723
675.182	0.008573
684.827	0.010263
694.472	0.008493
704.116	0.003293
713.761	0.002053
723.406	0.001563
733.051	0.001653
742.695	0.002133
752.34	0.002253
761.985	0.001613
771.63	0.001923
781.275	0.004173
790.919	0.008693
800.564	0.012843
810.209	0.016113
819.854	0.010713
829.498	0.006433
839.143	0.005683
848.788	0.005373
858.433	0.005273
868.078	0.003503
877.722	0.002353
887.367	0.001893
897.012	0.001663
906.657	0.002143
916.301	0.002563
925.946	0.002983
935.591	0.004893
945.236	0.013283
954.88	0.021523
964.525	0.010203
974.17	0.005193
983.815	0.003493
993.46	0.003103
1003.1	0.004393
1012.75	0.012683
1022.39	0.008533
1032.04	0.002443
1041.68	0.002343
1051.33	0.002193
1060.97	0.003283
1070.62	0.005803
1080.26	0.004873
1089.91	0.002193
1099.55	0.002813
1109.2	0.003913
1118.84	0.004143
1128.49	0.003023
1138.13	0.001983
1147.78	0.002133
1157.42	0.002743
1167.07	0.004793
1176.71	0.014373
1186.36	0.018623
1196	0.010123
1205.64	0.008033
1215.29	0.008813
1224.93	0.017173
1234.58	0.029183
1244.22	0.040843
1253.87	0.099573
1263.51	0.111373
1273.16	0.038753
1282.8	0.016193
1292.45	0.010473
1302.09	0.009343
1311.74	0.006793
1321.38	0.004733
1331.03	0.005203
1340.67	0.008193
1350.32	0.018323
1359.96	0.041243
1369.61	0.022433
1379.25	0.009773
1388.9	0.007713
1398.54	0.010683
1408.18	0.019433
1417.83	0.015293
1427.47	0.010213
1437.12	0.009203
1446.76	0.006693
1456.41	0.003963
1466.05	0.002853
1475.7	0.002353
1485.34	0.002323
1494.99	0.002513
1504.63	0.003223
1514.28	0.002923
1523.92	0.002963
1533.57	0.003233
1543.21	0.003393
1552.86	0.004183
1562.5	0.006703
1572.15	0.009393
1581.79	0.008093
1591.44	0.015873
1601.08	0.037063
1610.73	0.031933
1620.37	0.011263
1630.01	0.005953
1639.66	0.004913
1649.3	0.005343
1658.95	0.006893
1668.59	0.009413
1678.24	0.014713
1687.88	0.032603
1697.53	0.095353
1707.17	0.119113
1716.82	0.039723
1726.46	0.015513
1736.11	0.008413
1745.75	0.006203
1755.4	0.005173
1765.04	0.003503
1774.69	0.002243
1784.33	0.001873
1793.98	0.001973
1803.62	0.002303
1813.27	0.001683
1822.91	0.001313
1832.55	0.0011668
1842.2	0.0011134
1851.84	0.001085
1861.49	0.0011089
1871.13	0.0010711
1880.78	0.001273
1890.42	0.001543
1900.07	0.001713
1909.71	0.001773
1919.36	0.001773
1929	0.001793
1938.65	0.001733
1948.29	0.001513
1957.94	0.001175
1967.58	0.0009982
1977.23	0.0007949
1986.87	0.0007586
1996.52	0.0006371
2006.16	0.0006234
2015.81	0.0007421
2025.45	0.0008554
2035.1	0.0008757
2044.74	0.000651
2054.38	0.0006187
2064.03	0.0006567
2073.67	0.000537
2083.32	0.0006662
2092.96	0.0006349
2102.61	0.0005206
2112.25	0.0005464
2121.9	0.000486
2131.54	0.0004497
2141.19	0.0004402
2150.83	0.0004265
2160.48	0.0004176
2170.12	0.0005347
2179.77	0.0004864
2189.41	0.0006283
2199.06	0.0005818
2208.7	0.0005674
2218.35	0.0006355
2227.99	0.0004588
2237.64	0.0003783
2247.28	0.0005035
2256.92	0.000542
2266.57	0.0005322
2276.21	0.0005341
2285.86	0.0006071
2295.5	0.0007794
2305.15	0.0008031
2314.79	0.0008006
2324.44	0.0006624
2334.08	0.0007256
2343.73	0.0006885
2353.37	0.000507
2363.02	0.000553
2372.66	0.0005091
2382.31	0.0005866
2391.95	0.0005225
2401.6	0.0005296
2411.24	0.0005952
2420.89	0.00059
2430.53	0.0007243
2440.18	0.0006015
2449.82	0.0006511
2459.47	0.0005488
2469.11	0.000498
2478.75	0.0005752
2488.4	0.000618
2498.04	0.0006604
2507.69	0.0007525
2517.33	0.0009552
2526.98	0.0007821
2536.62	0.0007468
2546.27	0.0006475
2555.91	0.0006873
2565.56	0.0006826
2575.2	0.0007447
2584.85	0.0007175
2594.49	0.0006575
2604.14	0.0005843
2613.78	0.0007701
2623.43	0.0007842
2633.07	0.0007448
2642.72	0.0006622
2652.36	0.000505
2662.01	0.0005898
2671.65	0.0005052
2681.29	0.0004897
2690.94	0.0005179
2700.58	0.0006017
2710.23	0.0005984
2719.87	0.000584
2729.52	0.0006346
2739.16	0.0005241
2748.81	0.0006987
2758.45	0.000621
2768.1	0.0006149
2777.74	0.0007365
2787.39	0.0006953
2797.03	0.0007379
2806.68	0.0006923
2816.32	0.000757
2825.97	0.0009367
2835.61	0.001483
2845.26	0.002413
2854.9	0.002893
2864.55	0.002473
2874.19	0.002073
2883.84	0.001663
2893.48	0.002123
2903.12	0.002953
2912.77	0.005163
2922.41	0.007503
2932.06	0.007463
2941.7	0.005413
2951.35	0.003703
2960.99	0.003333
2970.64	0.003803
2980.28	0.004073
2989.93	0.004093
2999.57	0.005203
3009.22	0.007733
3018.86	0.008983
3028.51	0.010523
3038.15	0.011573
3047.8	0.008053
3057.44	0.006813
3067.09	0.006323
3076.73	0.006423
3086.38	0.007103
3096.02	0.005373
3105.67	0.003263
3115.31	0.002653
3124.95	0.001993
3134.6	0.001433
3144.24	0.0008653
3153.89	0.0008342
3163.53	0.0005987
3173.18	0.0005712
3182.82	0.0006553
3192.47	0.0004404
3202.11	0.00027942
3211.76	0.000547
3221.4	0.0004114
3231.05	0.0003352
3240.69	0.0003887
3250.34	0.0004639
3259.98	0.0003224
3269.63	0.0004239
3279.27	0.0004898
3288.92	0.0004017
3298.56	0.0003646
3308.21	0.00027465
3317.85	0.0004638
3327.49	0.0004934
3337.14	0.0006855
3346.78	0.0006436
3356.43	0.0006093
3366.07	0.0007366
3375.72	0.001493
3385.36	0.002453
3395.01	0.002083
3404.65	0.001167
3414.3	0.0008515
3423.94	0.0005821
3433.59	0.0005773
3443.23	0.0004748
3452.88	0.0004909
3462.52	0.000326
3472.17	0.0003358
3481.81	0.0003581
3491.46	0.0002659
3501.1	0.00025021
3510.75	0.0003968
3520.39	8.64e-05
3530.04	0.0003443
3539.68	0.0004167
3549.32	0.0002889
3558.97	0.0004214
3568.61	0.0003854
3578.26	0.00026045
3587.9	0.0003547
3597.55	0.000421
3607.19	0.000188209
3616.84	0.00019416
3626.48	0.0002846
3636.13	0.000326
3645.77	0.000476
3655.42	0.0003477
3665.06	0.0003984
3674.71	0.0003124
3684.35	0.0003083
3694	0.00027463
3703.64	0.0003976
3713.29	0.00026322
3722.93	0.0003482
3732.58	0.000444
3742.22	0.000189183
3751.86	0.0003208
3761.51	0.0005741
3771.15	0.0003307
3780.8	0.0005272
3790.44	0.00047
3800.09	0.0004409
3809.73	0.0003237
3819.38	0.0005504
3829.02	0.00027236
3838.67	0.0003783
3848.31	0.0003884
3857.96	0.0004206
3867.6	0.0003857
3877.25	0.00043
3886.89	0.0003045
3896.54	0.0003633
3906.18	0.0002856
3915.83	0.0002533
3925.47	0.0003257
3935.12	0.0005204
3944.76	0.0005679
3954.41	0.0003722
3964.05	0.0003542
3973.69	0.0005312
3983.34	0.0003916
3992.98	0.0002072
