Infrared Spectrum: ACETAMIDE, N-(p-HYDROXYPHENYL)-, 2,2,2-TRICHLOROETHYL CARBONATE
Formula: C11 H10 Cl3 N O4
CAS: 790-90-9
State: SOLID (OIL MULL)
Class: COBLENTZ III
Instrument: PERKIN-ELMER 21 (GRATING)
Instrument parameters: NaCl PRISM
Sampling: TRANSMISSION
Resolution: 2
Origin: SMITH KLINE & FRENCH LABS.
MICROMETERS	TRANSMITTANCE
2.001	0.418
2.03527	0.42
2.06955	0.422
2.10382	0.431
2.13809	0.436
2.17237	0.443
2.20664	0.452
2.24091	0.453
2.27519	0.448
2.30946	0.447
2.34373	0.46
2.37801	0.455
2.41228	0.473
2.44655	0.475
2.48083	0.473
2.5151	0.475
2.54937	0.496
2.58365	0.501
2.61792	0.502
2.65219	0.509
2.68647	0.522
2.72074	0.533
2.75501	0.526
2.78929	0.534
2.82356	0.555
2.85784	0.562
2.89211	0.583
2.92638	0.584
2.96066	0.584
2.99493	0.584
3.0292	0.433
3.06348	0.361
3.09775	0.364
3.13202	0.392
3.1663	0.41
3.20057	0.403
3.23484	0.404
3.26912	0.388
3.30339	0.391
3.33766	0.389
3.37194	0.201
3.40621	0.086
3.44048	0.066
3.47476	0.066
3.50903	0.097
3.5433	0.189
3.57758	0.469
3.61185	0.579
3.64612	0.618
3.6804	0.63
3.71467	0.632
3.74894	0.641
3.78322	0.64
3.81749	0.643
3.85176	0.666
3.88604	0.671
3.92031	0.678
3.95458	0.68
3.98886	0.683
4.02313	0.699
4.0574	0.701
4.09168	0.722
4.12595	0.726
4.16022	0.732
4.1945	0.738
4.22877	0.743
4.26304	0.75
4.29732	0.75
4.33159	0.751
4.36586	0.761
4.40014	0.76
4.43441	0.761
4.46869	0.764
4.50296	0.762
4.53723	0.776
4.57151	0.778
4.60578	0.778
4.64005	0.788
4.67433	0.793
4.7086	0.792
4.74287	0.79
4.77715	0.793
4.81142	0.799
4.84569	0.8
4.87997	0.808
4.91424	0.808
4.94851	0.8
4.98279	0.806
5.01706	0.832
5.05133	0.83
5.08561	0.828
5.11988	0.827
5.15415	0.839
5.18843	0.839
5.2227	0.842
5.25697	0.843
5.29125	0.83
5.32552	0.801
5.35979	0.83
5.39407	0.831
5.42834	0.826
5.46261	0.811
5.49689	0.786
5.53116	0.777
5.56543	0.728
5.59971	0.619
5.63398	0.441
5.66825	0.228
5.70253	0.316
5.7368	0.61
5.77107	0.68
5.80535	0.738
5.83962	0.755
5.87389	0.745
5.90817	0.619
5.94244	0.42
5.97671	0.359
6.01099	0.234
6.04526	0.317
6.07954	0.495
6.11381	0.524
6.14808	0.507
6.18236	0.364
6.21663	0.441
6.2509	0.553
6.28518	0.651
6.31945	0.649
6.35372	0.52
6.388	0.354
6.42227	0.315
6.45654	0.342
6.49082	0.35
6.52509	0.371
6.55936	0.429
6.59364	0.364
6.62791	0.237
6.66218	0.261
6.69646	0.378
6.73073	0.449
6.765	0.42
6.79928	0.253
6.83355	0.21
6.86782	0.202
6.9021	0.249
6.93637	0.341
6.97064	0.441
7.00492	0.562
7.03919	0.622
7.07346	0.562
7.10774	0.31
7.14201	0.381
7.17628	0.437
7.21056	0.359
7.24483	0.228
7.2791	0.182
7.31338	0.27
7.34765	0.409
7.38192	0.574
7.4162	0.58
7.45047	0.572
7.48474	0.529
7.51902	0.452
7.55329	0.435
7.58756	0.418
7.62184	0.404
7.65611	0.411
7.69039	0.35
7.72466	0.347
7.75893	0.32
7.79321	0.26
7.82748	0.228
7.86175	0.189
7.89603	0.123
7.9303	0.125
7.96457	0.13
7.99885	0.157
8.03312	0.158
8.06739	0.152
8.10167	0.223
8.13594	0.235
8.17021	0.245
8.20449	0.25
8.23876	0.253
8.27303	0.227
8.30731	0.211
8.34158	0.25
8.37585	0.283
8.41013	0.319
8.4444	0.36
8.47867	0.378
8.51295	0.391
8.54722	0.419
8.58149	0.399
8.61577	0.41
8.65004	0.433
8.68431	0.473
8.71859	0.491
8.75286	0.509
8.78713	0.53
8.82141	0.551
8.85568	0.574
8.88995	0.59
8.92423	0.6
8.9585	0.605
8.99277	0.536
9.02705	0.382
9.06132	0.4
9.09559	0.48
9.12987	0.513
9.16414	0.552
9.19841	0.583
9.23269	0.601
9.26696	0.61
9.30124	0.617
9.33551	0.623
9.36978	0.591
9.40406	0.482
9.43833	0.397
9.4726	0.402
9.50688	0.419
9.54115	0.426
9.57542	0.482
9.6097	0.523
9.64397	0.535
9.67824	0.541
9.71252	0.583
9.74679	0.602
9.78106	0.621
9.81534	0.617
9.84961	0.479
9.88388	0.487
9.91816	0.481
9.95243	0.52
9.9867	0.55
10.021	0.568
10.0552	0.575
10.0895	0.58
10.1238	0.581
10.1581	0.59
10.1923	0.594
10.2266	0.602
10.2609	0.621
10.2952	0.611
10.3294	0.561
10.3637	0.57
10.398	0.611
10.4323	0.641
10.4665	0.657
10.5008	0.666
10.5351	0.668
10.5694	0.645
10.6036	0.668
10.6379	0.693
10.6722	0.693
10.7064	0.693
10.7407	0.693
10.775	0.699
10.8093	0.712
10.8435	0.723
10.8778	0.729
10.9121	0.731
10.9464	0.731
10.9806	0.737
11.0149	0.745
11.0492	0.746
11.0835	0.753
11.1177	0.753
11.152	0.753
11.1863	0.754
11.2205	0.75
11.2548	0.744
11.2891	0.75
11.3234	0.75
11.3576	0.753
11.3919	0.756
11.4262	0.755
11.4605	0.75
11.4947	0.727
11.529	0.702
11.5633	0.633
11.5976	0.581
11.6318	0.542
11.6661	0.528
11.7004	0.498
11.7346	0.429
11.7689	0.381
11.8032	0.371
11.8375	0.411
11.8717	0.48
11.906	0.542
11.9403	0.585
11.9746	0.625
12.0088	0.644
12.0431	0.644
12.0774	0.644
12.1117	0.63
12.1459	0.588
12.1802	0.533
12.2145	0.531
12.2487	0.535
12.283	0.517
12.3173	0.508
12.3516	0.536
12.3858	0.525
12.4201	0.495
12.4544	0.464
12.4887	0.481
12.5229	0.539
12.5572	0.608
12.5915	0.633
12.6258	0.65
12.66	0.661
12.6943	0.668
12.7286	0.667
12.7628	0.651
12.7971	0.638
12.8314	0.602
12.8657	0.561
12.8999	0.498
12.9342	0.459
12.9685	0.452
13.0028	0.455
13.037	0.5
13.0713	0.537
13.1056	0.583
13.1399	0.602
13.1741	0.619
13.2084	0.624
13.2427	0.629
13.2769	0.635
13.3112	0.616
13.3455	0.595
13.3798	0.531
13.414	0.44
13.4483	0.381
13.4826	0.38
13.5169	0.411
13.5511	0.448
13.5854	0.47
13.6197	0.485
13.654	0.471
13.6882	0.459
13.7225	0.442
13.7568	0.416
13.7911	0.382
13.8253	0.35
13.8596	0.337
13.8939	0.319
13.9281	0.294
13.9624	0.303
13.9967	0.32
14.031	0.355
14.0652	0.399
14.0995	0.449
14.1338	0.486
14.1681	0.529
14.2023	0.55
14.2366	0.573
14.2709	0.59
14.3052	0.6
14.3394	0.601
14.3737	0.606
14.408	0.599
14.4422	0.601
14.4765	0.61
14.5108	0.621
14.5451	0.639
14.5793	0.649
14.6136	0.666
14.6479	0.668
14.6822	0.678
14.7164	0.683
14.7507	0.677
14.785	0.683
14.8193	0.679
14.8535	0.689
14.8878	0.68
