Infrared Spectrum: 1,2,3,4-Tetramethyl-cyclopentane
Formula: C 9 H 18
CAS: 79042-54-9
State: gas
Instrument: HP-GC/MS/IRD
Origin: NIST Mass Spectrometry Data Center
1/CM	ABSORBANCE
550	0.000205
562	0.0002419
574	0.0003977
586	0.0002624
598	0.0001435
610	0.0001681
622	0.0001353
634	0.0001189
646	0.0001845
658	8.2e-06
670	6.15e-05
682	0.0001025
694	8.2e-05
706	0.0001107
718	0.0001435
730	0.0001312
742	0.0001763
754	0.0001558
766	0.0001107
778	0.0001312
790	0.0001599
802	0.0001066
814	0.0001312
826	9.43e-05
838	0.0001763
850	0.000164
862	0.0001927
874	8.61e-05
886	0.0001271
898	0.0001804
910	0.0002829
922	0.0003034
934	0.0001927
946	0.0002214
958	0.0003239
970	0.0005043
982	0.0005986
994	0.0007298
1006	0.0008241
1018	0.0007134
1030	0.0004059
1042	0.0003034
1054	0.0003198
1066	0.0002911
1078	0.0002542
1090	0.0002583
1102	0.0002911
1114	0.0004182
1126	0.0004141
1138	0.0003813
1150	0.0002952
1162	0.0003239
1174	0.000246
1186	0.0001599
1198	0.0001927
1210	0.000205
1222	0.0002747
1234	0.0003444
1246	0.0003362
1258	0.0003567
1270	0.0003608
1282	0.0004961
1294	0.0006191
1306	0.0005084
1318	0.0004428
1330	0.000697
1342	0.0011521
1354	0.0014104
1366	0.0023821
1378	0.0039688
1390	0.0030709
1402	0.0011357
1414	0.0007298
1426	0.0009512
1438	0.0019516
1450	0.0040754
1462	0.0053669
1474	0.0035465
1486	0.0015252
1498	0.0007052
1510	0.0003731
1522	0.0002296
1534	0.0001927
1546	0.0001558
1558	0.0001558
1570	0.0001558
1582	0.0001763
1594	0.0001886
1606	0.0001968
1618	0.0002091
1630	0.0001968
1642	0.0001968
1654	0.0001886
1666	0.0001804
1678	0.0001599
1690	0.000164
1702	0.0001107
1714	9.84e-05
1726	0.0001107
1738	9.84e-05
1750	0.0001189
1762	8.61e-05
1774	6.15e-05
1786	4.92e-05
1798	7.79e-05
1810	5.74e-05
1822	6.56e-05
1834	4.92e-05
1846	4.51e-05
1858	4.51e-05
1870	5.74e-05
1882	8.2e-05
1894	4.92e-05
1906	5.74e-05
1918	4.92e-05
1930	8.2e-06
1942	3.69e-05
1954	2.87e-05
1966	3.28e-05
1978	3.28e-05
1990	4.92e-05
2002	2.87e-05
2014	0
2026	3.28e-05
2038	3.69e-05
2050	2.05e-05
2062	4.1e-05
2074	2.87e-05
2086	3.28e-05
2098	3.69e-05
2110	4.92e-05
2122	6.15e-05
2134	2.05e-05
2146	2.87e-05
2158	1.23e-05
2170	4.92e-05
2182	4.92e-05
2194	1.64e-05
2206	4.1e-05
2218	2.87e-05
2230	2.46e-05
2242	4.51e-05
2254	3.28e-05
2266	4.1e-05
2278	2.87e-05
2290	4.51e-05
2302	5.74e-05
2314	6.97e-05
2326	7.79e-05
2338	0.0001148
2350	9.84e-05
2362	0.0001148
2374	0.0001066
2386	0.000123
2398	9.84e-05
2410	0.0001353
2422	0.0001517
2434	0.0001189
2446	0.000123
2458	0.0001148
2470	8.61e-05
2482	0.0001025
2494	6.15e-05
2506	0.0001148
2518	0.0001148
2530	0.000123
2542	0.0001763
2554	0.0001886
2566	0.0001968
2578	0.0002173
2590	0.0002665
2602	0.0002501
2614	0.0002829
2626	0.000287
2638	0.0003444
2650	0.0003403
2662	0.0003526
2674	0.0003813
2686	0.0003895
2698	0.0004428
2710	0.0004674
2722	0.0006519
2734	0.000738
2746	0.0006724
2758	0.0005781
2770	0.0004961
2782	0.0005945
2794	0.0007298
2806	0.0009799
2818	0.0013817
2830	0.0019639
2842	0.0029725
2854	0.0056498
2866	0.0119064
2878	0.0189994
2890	0.0186427
2902	0.0165107
2914	0.0182491
2926	0.0215127
2938	0.0244811
2950	0.0321604
2962	0.041
2974	0.0247517
2986	0.0071135
2998	0.0025625
3010	0.0013694
3022	0.0010004
3034	0.0008036
3046	0.0007667
3058	0.0006847
3070	0.0006806
3082	0.0006314
3094	0.0006437
3106	0.0005371
3118	0.0005412
3130	0.0005289
3142	0.0004838
3154	0.0005289
3166	0.0005289
3178	0.0005412
3190	0.0004838
3202	0.0003895
3214	0.0002952
3226	0.0002091
3238	0.0002091
3250	0.0001312
3262	0.0001148
3274	0.0001148
3286	7.79e-05
3298	8.2e-05
3310	0.0001927
3322	0.0001312
3334	8.2e-05
3346	7.79e-05
3358	0.000164
3370	0.0001312
3382	0.0001025
3394	0.0001025
3406	0.0001025
3418	0.0001066
3430	0.0001107
3442	6.56e-05
3454	6.97e-05
3466	0.0001107
3478	6.15e-05
3490	0.0001271
3502	7.38e-05
3514	6.15e-05
3526	4.51e-05
3538	0.0001107
3550	9.43e-05
3562	6.97e-05
3574	0.0001189
3586	9.43e-05
3598	2.87e-05
3610	7.79e-05
3622	6.15e-05
3634	0.0001189
3646	0.0001394
3658	0.0001025
3670	4.92e-05
3682	8.61e-05
3694	8.61e-05
3706	7.38e-05
3718	0.0001271
3730	0.0002009
3742	0.000123
3754	0.0001353
3766	9.02e-05
3778	8.2e-05
3790	9.02e-05
3802	0.0001845
3814	0.0001189
3826	0.0001722
3838	0.0001189
