Infrared Spectrum: 9H-purine, 9-benzyl-2, 6-dichloro-
Formula: C12 H8 Cl2 N4
CAS: 79064-26-9
State: SOLID (1 mg / 650 mg KBr DISC)
Class: COBLENTZ III
Instrument: PERKIN-ELMER 521 (GRATING)
Instrument parameters: FILTERS AT 3130, 2475, 2000, 1150, 700, 410. GRATING CHANGES: 2000, 630 CM^-^1
Sampling: TRANSMISSION
Resolution: 2
Origin: SOUTHERN RESEARCH INSTITUTE
1/CM	TRANSMITTANCE
253	0.3209
263.032	0.3873
273.064	0.4512
283.096	0.5242
293.128	0.6242
303.16	0.6811
313.192	0.7142
323.224	0.7231
333.256	0.7715
343.288	0.8091
353.32	0.8359
363.352	0.8462
373.384	0.8317
383.416	0.8703
393.448	0.8587
403.48	0.8825
413.512	0.906
423.544	0.9054
433.576	0.8985
443.608	0.8538
453.641	0.6707
463.673	0.9266
473.705	0.926
483.737	0.9245
493.769	0.9232
503.801	0.9205
513.833	0.9127
523.865	0.903
533.897	0.8168
543.929	0.7793
553.961	0.9077
563.993	0.9068
574.025	0.8939
584.057	0.8523
594.089	0.8169
604.121	0.8666
614.153	0.7758
624.185	0.4853
634.217	0.8649
644.249	0.4906
654.281	0.8625
664.313	0.8417
674.345	0.522
684.377	0.434
694.409	0.8329
704.441	0.7533
714.473	0.4893
724.505	0.5896
734.537	0.3092
744.569	0.9163
754.601	0.9146
764.633	0.8964
774.665	0.7458
784.697	0.7629
794.729	0.7289
804.761	0.6987
814.793	0.9099
824.825	0.8732
834.857	0.8822
844.89	0.8386
854.922	0.8077
864.954	0.6469
874.986	0.2772
885.018	0.8929
895.05	0.8669
905.082	0.7186
915.114	0.8424
925.146	0.7858
935.178	0.6477
945.21	0.1701
955.242	0.6751
965.274	0.6174
975.306	0.8212
985.338	0.8859
995.37	0.8677
1005.4	0.8459
1015.43	0.7786
1025.47	0.834
1035.5	0.8254
1045.53	0.8137
1055.56	0.7924
1065.59	0.7
1075.63	0.7851
1085.66	0.7598
1095.69	0.7419
1105.72	0.6806
1115.75	0.5872
1125.79	0.293
1135.82	0.4927
1145.85	0.2302
1155.88	0.7986
1165.91	0.7722
1175.95	0.6497
1185.98	0.684
1196.01	0.6326
1206.04	0.4084
1216.07	0.3908
1226.11	0.124
1236.14	0.7952
1246.17	0.7973
1256.2	0.6505
1266.23	0.4512
1276.27	0.6142
1286.3	0.4485
1296.33	0.3091
1306.36	0.7032
1316.39	0.7332
1326.43	0.5582
1336.46	0.1802
1346.49	0.1024
1356.52	0.4693
1366.55	0.5158
1376.59	0.4379
1386.62	0.8528
1396.65	0.7295
1406.68	0.4888
1416.71	0.8469
1426.75	0.763
1436.78	0.4771
1446.81	0.8595
1456.84	0.8425
1466.88	0.8335
1476.91	0.7511
1486.94	0.3634
1496.97	0.4934
1507	0.7138
1517.04	0.7416
1527.07	0.6873
1537.1	0.5837
1547.13	0.3549
1557.16	0.0913
1567.2	0.4207
1577.23	0.3205
1587.26	0.2394
1597.29	0.3219
1607.32	0.6379
1617.36	0.8842
1627.39	0.9366
1637.42	0.959
1647.45	0.9627
1657.48	0.96
1667.52	0.956
1677.55	0.9519
1687.58	0.9472
1697.61	0.947
1707.64	0.9476
1717.68	0.9302
1727.71	0.9307
1737.74	0.9294
1747.77	0.9212
1757.8	0.9111
1767.84	0.9006
1777.87	0.8858
1787.9	0.8648
1797.93	0.8494
1807.96	0.806
1818	0.8184
1828.03	0.8886
1838.06	0.8835
1848.09	0.8753
1858.12	0.8885
1868.16	0.8857
1878.19	0.8853
1888.22	0.8827
1898.25	0.8806
1908.28	0.8777
1918.32	0.8744
1928.35	0.8658
1938.38	0.8481
1948.41	0.8639
1958.44	0.8664
1968.48	0.8645
1978.51	0.8629
1988.54	0.8615
1998.57	0.8543
2008.6	0.8498
2018.64	0.8486
2028.67	0.8472
2038.7	0.8462
2048.73	0.8445
2058.76	0.8419
2068.8	0.8391
2078.83	0.8346
2088.86	0.8312
2098.89	0.8264
2108.92	0.8251
2118.96	0.8236
2128.99	0.8221
2139.02	0.8212
2149.05	0.8198
2159.08	0.818
2169.12	0.816
2179.15	0.8137
2189.18	0.8115
2199.21	0.8093
2209.24	0.807
2219.28	0.8036
2229.31	0.7993
2239.34	0.7978
2249.37	0.7966
2259.41	0.7958
2269.44	0.796
2279.47	0.7932
2289.5	0.7909
2299.53	0.7917
2309.57	0.7947
2319.6	0.7966
2329.63	0.7927
2339.66	0.7872
2349.69	0.7814
2359.73	0.7765
2369.76	0.7727
2379.79	0.7692
2389.82	0.7676
2399.85	0.7662
2409.89	0.7625
2419.92	0.76
2429.95	0.7633
2439.98	0.7637
2450.01	0.7634
2460.05	0.763
2470.08	0.7622
2480.11	0.7608
2490.14	0.7586
2500.17	0.7559
2510.21	0.7524
2520.24	0.7476
2530.27	0.7407
2540.3	0.7364
2550.33	0.7408
2560.37	0.7462
2570.4	0.7498
2580.43	0.7501
2590.46	0.7481
2600.49	0.7461
2610.53	0.7452
2620.56	0.7442
2630.59	0.743
2640.62	0.7412
2650.65	0.7379
2660.69	0.7333
2670.72	0.7258
2680.75	0.7205
2690.78	0.7199
2700.81	0.7185
2710.85	0.7168
2720.88	0.7164
2730.91	0.7166
2740.94	0.7186
2750.97	0.7202
2761.01	0.7199
2771.04	0.718
2781.07	0.716
2791.1	0.7138
2801.13	0.7108
2811.17	0.7074
2821.2	0.7053
2831.23	0.7039
2841.26	0.701
2851.29	0.6955
2861.33	0.6938
2871.36	0.6936
2881.39	0.693
2891.42	0.6914
2901.45	0.6827
2911.49	0.6776
2921.52	0.6725
2931.55	0.6661
2941.58	0.6629
2951.61	0.6572
2961.65	0.6097
2971.68	0.6615
2981.71	0.6435
2991.74	0.621
3001.78	0.6028
3011.81	0.6172
3021.84	0.5578
3031.87	0.6163
3041.9	0.5964
3051.94	0.5546
3061.97	0.4662
3072	0.469
3082.03	0.5684
3092.06	0.6457
3102.1	0.6879
3112.13	0.7047
3122.16	0.7081
3132.19	0.7057
3142.22	0.6936
3152.26	0.6889
3162.29	0.687
3172.32	0.6847
3182.35	0.6827
3192.38	0.6814
3202.42	0.6795
3212.45	0.6772
3222.48	0.6746
3232.51	0.6713
3242.54	0.6682
3252.58	0.6647
3262.61	0.6607
3272.64	0.657
3282.67	0.6535
3292.7	0.65
3302.74	0.6469
3312.77	0.6437
3322.8	0.6405
3332.83	0.6368
3342.86	0.633
3352.9	0.6292
3362.93	0.6254
3372.96	0.6202
3382.99	0.6151
3393.02	0.6104
3403.06	0.6073
3413.09	0.6052
3423.12	0.6048
3433.15	0.6044
3443.18	0.604
3453.22	0.6042
3463.25	0.6044
3473.28	0.6053
3483.31	0.6066
3493.34	0.6082
3503.38	0.6101
3513.41	0.6121
3523.44	0.6141
3533.47	0.6166
3543.5	0.6192
3553.54	0.6211
3563.57	0.6233
3573.6	0.6258
3583.63	0.6287
3593.66	0.632
3603.7	0.6347
3613.73	0.637
3623.76	0.6382
3633.79	0.6387
3643.82	0.6389
3653.86	0.6367
3663.89	0.6349
3673.92	0.6333
3683.95	0.6334
3693.98	0.6353
3704.02	0.6376
3714.05	0.6389
3724.08	0.6395
3734.11	0.6384
3744.14	0.637
3754.18	0.6359
3764.21	0.6349
3774.24	0.634
3784.27	0.633
3794.31	0.6318
3804.34	0.6305
3814.37	0.6291
3824.4	0.6274
3834.43	0.6256
3844.47	0.6234
3854.5	0.6209
3864.53	0.6186
3874.56	0.6169
3884.59	0.6151
3894.63	0.6153
3904.66	0.6163
3914.69	0.6159
3924.72	0.6148
3934.75	0.6138
3944.79	0.6135
3954.82	0.6134
3964.85	0.6134
3974.88	0.6125
3984.91	0.612
3994.95	0.6118
4004.98	0.6107
