Infrared Spectrum: N-t-Butoxycarbonyl-4-piperidone
Formula: C 10 H 17 N O 3
CAS: 79099-07-3
State: gas
Origin: EPA-IR VAPOR PHASE LIBRARY
1/CM	ABSORBANCE
549.8	0.002162
559.445	0.0014385
569.09	0.0014417
578.735	0.0013159
588.38	0.0012214
598.025	0.0012054
607.67	0.0015035
617.315	0.001652
626.96	0.002532
636.605	0.002322
646.251	0.0015657
655.896	0.0010776
665.541	0.0014282
675.186	0.0011686
684.831	0.001416
694.476	0.0013277
704.121	0.0013312
713.766	0.001341
723.411	0.002142
733.056	0.002842
742.701	0.005672
752.346	0.008222
761.991	0.007172
771.636	0.008722
781.281	0.006342
790.926	0.003692
800.571	0.003082
810.216	0.002992
819.861	0.003492
829.507	0.004522
839.152	0.004982
848.797	0.006752
858.442	0.010652
868.087	0.007592
877.732	0.002812
887.377	0.002362
897.022	0.0016095
906.667	0.001862
916.312	0.002392
925.957	0.003242
935.602	0.004612
945.247	0.005852
954.892	0.009252
964.537	0.013552
974.182	0.014252
983.827	0.023642
993.472	0.016692
1003.12	0.007612
1012.76	0.005372
1022.41	0.004092
1032.05	0.004032
1041.7	0.004602
1051.34	0.005832
1060.99	0.006212
1070.63	0.005632
1080.28	0.006502
1089.92	0.009232
1099.57	0.016572
1109.21	0.032652
1118.86	0.041572
1128.5	0.029382
1138.15	0.026472
1147.79	0.041092
1157.44	0.070312
1167.08	0.106472
1176.73	0.116002
1186.37	0.073612
1196.02	0.038352
1205.66	0.031612
1215.31	0.041322
1224.95	0.070272
1234.6	0.091722
1244.24	0.055232
1253.89	0.034112
1263.53	0.035232
1273.18	0.037712
1282.82	0.022672
1292.47	0.017502
1302.11	0.034312
1311.76	0.044592
1321.4	0.020992
1331.05	0.012912
1340.69	0.014262
1350.34	0.019782
1359.98	0.030902
1369.63	0.049922
1379.27	0.049152
1388.92	0.062592
1398.56	0.090012
1408.21	0.087952
1417.85	0.059922
1427.5	0.031892
1437.14	0.019482
1446.79	0.016932
1456.43	0.018742
1466.08	0.020372
1475.73	0.024932
1485.37	0.019032
1495.02	0.011692
1504.66	0.007462
1514.31	0.005252
1523.95	0.004662
1533.6	0.004372
1543.24	0.004202
1552.89	0.003802
1562.53	0.003312
1572.18	0.003002
1581.82	0.002912
1591.47	0.002822
1601.11	0.002902
1610.76	0.003002
1620.4	0.003222
1630.05	0.003512
1639.69	0.004102
1649.34	0.005242
1658.98	0.006822
1668.63	0.008722
1678.27	0.011112
1687.92	0.015232
1697.56	0.028642
1707.21	0.079192
1716.85	0.192522
1726.5	0.176742
1736.14	0.089422
1745.79	0.058742
1755.43	0.023702
1765.08	0.012492
1774.72	0.007622
1784.37	0.005172
1794.01	0.003962
1803.66	0.003142
1813.3	0.002662
1822.95	0.002272
1832.59	0.001932
1842.24	0.001702
1851.88	0.0014276
1861.53	0.0013398
1871.17	0.0012925
1880.82	0.0011847
1890.46	0.0012193
1900.11	0.0012371
1909.75	0.0011897
1919.4	0.0010446
1929.04	0.0010314
1938.69	0.000971
1948.33	0.000954
1957.98	0.0008603
1967.62	0.0009072
1977.27	0.0009579
1986.91	0.0009072
1996.56	0.0009214
2006.2	0.0008926
2015.85	0.0009521
2025.49	0.00096
2035.14	0.0010833
2044.78	0.0010505
2054.43	0.0010905
2064.07	0.0010524
2073.72	0.0009209
2083.36	0.0008318
2093.01	0.0007533
2102.65	0.00070986
2112.3	0.0006107
2121.94	0.0006127
2131.59	0.0005968
2141.23	0.000640034
2150.88	0.000527
2160.52	0.0005817
2170.17	0.00062894
2179.81	0.0005968
2189.46	0.00064831
2199.1	0.0006098
2208.75	0.00064502
2218.39	0.0006015
2228.04	0.00067684
2237.68	0.00068006
2247.33	0.0006029
2256.97	0.0006014
2266.62	0.00071608
2276.26	0.0008756
2285.91	0.0012491
2295.55	0.001822
2305.2	0.002622
2314.84	0.003472
2324.49	0.003962
2334.13	0.003832
2343.78	0.003602
2353.42	0.004052
2363.07	0.005372
2372.72	0.004232
2382.36	0.001822
2392.01	0.0006109
2401.65	0.00046
2411.3	0.0005491
2420.94	0.0005738
2430.59	0.000453
2440.23	0.00047
2449.88	0.000451
2459.52	0.000398
2469.17	0.000402
2478.81	0.000417
2488.46	0.000382
2498.1	0.000412
2507.75	0.000317
2517.39	0.000364
2527.04	0.000441
2536.68	0.000516
2546.33	0.0005679
2555.97	0.000452
2565.62	0.000333
2575.26	0.000308
2584.91	0.000306
2594.55	0.000322
2604.2	0.000425
2613.84	0.000363
2623.49	0.000407
2633.13	0.000426
2642.78	0.0005716
2652.42	0.0005489
2662.07	0.0005688
2671.71	0.000522
2681.36	0.000609
2691	0.0007684
2700.65	0.0007555
2710.29	0.00068886
2719.94	0.0009646
2729.58	0.0011602
2739.23	0.0009789
2748.87	0.0008291
2758.52	0.0008555
2768.16	0.0009471
2777.81	0.0010825
2787.45	0.0012914
2797.1	0.0015812
2806.74	0.001912
2816.39	0.002532
2826.03	0.003462
2835.68	0.004012
2845.32	0.005522
2854.97	0.007712
2864.61	0.011912
2874.26	0.018042
2883.9	0.018072
2893.55	0.014772
2903.19	0.014622
2912.84	0.017752
2922.48	0.020882
2932.13	0.021772
2941.77	0.021942
2951.42	0.019102
2961.06	0.020832
2970.71	0.035002
2980.35	0.047622
2990	0.032532
2999.64	0.011642
3009.29	0.011092
3018.93	0.008792
3028.58	0.004312
3038.22	0.002072
3047.87	0.0013872
3057.51	0.0011503
3067.16	0.0009778
3076.8	0.0007905
3086.45	0.0008759
3096.09	0.0008619
3105.74	0.0007676
3115.38	0.00070099
3125.03	0.0008788
3134.67	0.0007904
3144.32	0.000563
3153.96	0.000474
3163.61	0.000362
3173.25	0.000396
3182.9	0.000457
3192.54	0.000328
3202.19	0.000416
3211.83	0.000508
3221.48	0.00024
3231.12	0.000384
3240.77	0.000307
3250.41	0.000201
3260.06	0.000131
3269.7	0.000158
3279.35	7.2e-05
3289	0.000193
3298.64	0.000115
3308.29	7.6e-05
3317.93	0.000116
3327.58	0.000115
3337.22	0.00012
3346.87	0.000113
3356.51	0.000234
3366.16	0.000219
3375.8	0.000142
3385.45	0.000487
3395.09	0.000515
3404.74	0.00067299
3414.38	0.0011798
3424.03	0.0013445
3433.67	0.0012697
3443.32	0.0011813
3452.96	0.0012668
3462.61	0.0012039
3472.25	0.0008799
3481.9	0.000531
3491.54	0.0005544
3501.19	0.000331
3510.83	0.000174
3520.48	3.9e-05
3530.12	0.000195
3539.77	0.000225
3549.41	0.000173
3559.06	0.000164
3568.7	0.000295
3578.35	0.000223
3587.99	0.000114
3597.64	0.000157
3607.28	8.4e-05
3616.93	8.7e-05
3626.57	0.000106
3636.22	0.000261
3645.86	0.000253
3655.51	0.000114
3665.15	0.000265
3674.8	0.00028
3684.44	0.00026
3694.09	0.0003
3703.73	0.000357
3713.38	0.000259
3723.02	0.000241
3732.67	0.000516
3742.31	0.000302
3751.96	0.000293
3761.6	0.000152
3771.25	0.000156
3780.89	8.2e-05
3790.54	0.000152
3800.18	0.00016
3809.83	0.000281
3819.47	0.000301
3829.12	0.000224
3838.76	0.000358
3848.41	0.000367
3858.05	0.000318
3867.7	0.000218
3877.34	0.000287
3886.99	0.0004
3896.63	0.00027
3906.28	0.000348
3915.92	0.000346
3925.57	0.000192
3935.21	0.000282
3944.86	0.000127
3954.5	0.00038
3964.15	0.000443
3973.79	0.000495
3983.44	0.000314
3993.08	0.000265
