Infrared Spectrum: PHOSPHINE OXIDE, TRIPHENYL-
Formula: C18 H15 O P
CAS: 791-28-6
State: SOLID (KBr PELLET)
Melting point: 154-155 C
Class: COBLENTZ
Instrument: Not specified, most likely a prism, grating, or hybrid spectrometer.
Sampling: TRANSMISSION
Resolution: 4
Origin: TENNESSEE EASTMAN COMPANY, RESEARCH LABORATORIES
MICROMETERS	TRANSMITTANCE
2.013	0.844
2.05266	0.849
2.09232	0.85
2.13198	0.85
2.17164	0.857
2.2113	0.865
2.25096	0.86
2.29062	0.869
2.33028	0.872
2.36994	0.875
2.4096	0.877
2.44926	0.86
2.48892	0.882
2.52858	0.895
2.56823	0.897
2.60789	0.889
2.64755	0.89
2.68721	0.885
2.72687	0.894
2.76653	0.874
2.80619	0.865
2.84585	0.867
2.88551	0.852
2.92517	0.85
2.96483	0.862
3.00449	0.877
3.04415	0.89
3.08381	0.892
3.12347	0.9
3.16313	0.902
3.20279	0.889
3.24245	0.849
3.28211	0.758
3.32177	0.864
3.36143	0.903
3.40109	0.87
3.44075	0.913
3.48041	0.913
3.52007	0.937
3.55973	0.942
3.59939	0.943
3.63904	0.943
3.6787	0.938
3.71836	0.938
3.75802	0.942
3.79768	0.945
3.83734	0.937
3.877	0.942
3.91666	0.942
3.95632	0.947
3.99598	0.948
4.03564	0.95
4.0753	0.956
4.11496	0.955
4.15462	0.951
4.19428	0.963
4.23394	1.011
4.2736	0.95
4.31326	0.925
4.35292	0.942
4.39258	0.95
4.43224	0.947
4.4719	0.95
4.51156	0.95
4.55122	0.951
4.59088	0.955
4.63054	0.955
4.6702	0.95
4.70985	0.951
4.74951	0.951
4.78917	0.958
4.82883	0.955
4.86849	0.95
4.90815	0.95
4.94781	0.935
4.98747	0.93
5.02713	0.91
5.06679	0.915
5.10645	0.943
5.14611	0.933
5.18577	0.915
5.22543	0.902
5.26509	0.9
5.30475	0.948
5.34441	0.928
5.38407	0.923
5.42373	0.894
5.46339	0.908
5.50305	0.918
5.54271	0.937
5.58237	0.917
5.62203	0.922
5.66169	0.932
5.70135	0.927
5.74101	0.93
5.78066	0.937
5.82032	0.907
5.85998	0.927
5.89964	0.874
5.9393	0.854
5.97896	0.88
6.01862	0.917
6.05828	0.874
6.09794	0.905
6.1376	0.91
6.17726	0.874
6.21692	0.892
6.25658	0.759
6.29624	0.887
6.3359	0.89
6.37556	0.927
6.41522	0.927
6.45488	0.889
6.49454	0.928
6.5342	0.905
6.57386	0.928
6.61352	0.894
6.65318	0.903
6.69284	0.693
6.7325	0.882
6.77216	0.892
6.81182	0.899
6.85147	0.846
6.89113	0.46
6.93079	0.359
6.97045	0.841
7.01011	0.884
7.04977	0.895
7.08943	0.877
7.12909	0.855
7.16875	0.88
7.20841	0.899
7.24807	0.908
7.28773	0.912
7.32739	0.918
7.36705	0.925
7.40671	0.927
7.44637	0.905
7.48603	0.855
7.52569	0.875
7.56535	0.857
7.60501	0.731
7.64467	0.842
7.68433	0.889
7.72399	0.905
7.76365	0.887
7.80331	0.867
7.84297	0.877
7.88263	0.885
7.92228	0.897
7.96194	0.917
8.0016	0.922
8.04126	0.913
8.08092	0.907
8.12058	0.908
8.16024	0.895
8.1999	0.872
8.23956	0.826
8.27922	0.652
8.31888	0.389
8.35854	0.117
8.3982	0.071
8.43786	0.178
8.47752	0.587
8.51718	0.658
8.55684	0.71
8.5965	0.748
8.63616	0.798
8.67582	0.802
8.71548	0.791
8.75514	0.764
8.7948	0.639
8.83446	0.367
8.87412	0.094
8.91378	0.167
8.95344	0.346
8.9931	0.572
9.03275	0.706
9.07241	0.683
9.11207	0.683
9.15173	0.802
9.19139	0.831
9.23105	0.829
9.27071	0.675
9.31037	0.706
9.35003	0.822
9.38969	0.867
9.42935	0.887
9.46901	0.889
9.50867	0.894
9.54833	0.897
9.58799	0.894
9.62765	0.884
9.66731	0.827
9.70697	0.789
9.74663	0.857
9.78629	0.869
9.82595	0.86
9.86561	0.844
9.90527	0.826
9.94493	0.791
9.98459	0.67
10.0242	0.73
10.0639	0.854
10.1036	0.857
10.1432	0.839
10.1829	0.855
10.2225	0.877
10.2622	0.86
10.3019	0.89
10.3415	0.903
10.3812	0.905
10.4208	0.905
10.4605	0.905
10.5002	0.907
10.5398	0.903
10.5795	0.905
10.6191	0.902
10.6588	0.897
10.6985	0.889
10.7381	0.86
10.7778	0.831
10.8174	0.839
10.8571	0.894
10.8968	0.903
10.9364	0.915
10.9761	0.922
11.0157	0.923
11.0554	0.932
11.0951	0.928
11.1347	0.927
11.1744	0.923
11.214	0.922
11.2537	0.923
11.2934	0.927
11.333	0.93
11.3727	0.928
11.4123	0.922
11.452	0.917
11.4917	0.892
11.5313	0.812
11.571	0.764
11.6106	0.816
11.6503	0.862
11.6899	0.889
11.7296	0.854
11.7693	0.827
11.8089	0.882
11.8486	0.907
11.8882	0.915
11.9279	0.92
11.9676	0.923
12.0072	0.923
12.0469	0.93
12.0865	0.928
12.1262	0.928
12.1659	0.932
12.2055	0.93
12.2452	0.93
12.2848	0.93
12.3245	0.932
12.3642	0.93
12.4038	0.928
12.4435	0.928
12.4831	0.925
12.5228	0.922
12.5625	0.917
12.6021	0.917
12.6418	0.913
12.6814	0.913
12.7211	0.913
12.7608	0.912
12.8004	0.91
12.8401	0.908
12.8797	0.905
12.9194	0.889
12.9591	0.869
12.9987	0.811
13.0384	0.721
13.078	0.602
13.1177	0.438
13.1574	0.268
13.197	0.283
13.2367	0.399
13.2763	0.382
13.316	0.536
13.3557	0.75
13.3953	0.814
13.435	0.821
13.4746	0.799
13.5143	0.763
13.554	0.682
13.5936	0.554
13.6333	0.39
13.6729	0.231
13.7126	0.127
13.7523	0.087
13.7919	0.074
13.8316	0.105
13.8712	0.25
13.9109	0.445
13.9505	0.597
13.9902	0.665
14.0299	0.697
14.0695	0.683
14.1092	0.629
14.1488	0.514
14.1885	0.375
14.2282	0.246
14.2678	0.16
14.3075	0.12
14.3471	0.139
14.3868	0.259
14.4265	0.447
14.4661	0.637
14.5058	0.759
14.5454	0.826
14.5851	0.862
14.6248	0.887
14.6644	0.907
14.7041	0.915
14.7437	0.927
14.7834	0.935
14.8231	0.947
14.8627	0.956
14.9024	0.96
14.942	0.958
14.9817	0.948
15.0214	0.958
15.061	0.986
15.1007	0.996
15.1403	0.998
15.18	0.998
15.2197	0.993
15.2593	0.985
15.299	0.978
15.3386	0.965
15.3783	0.958
15.418	0.947
15.4576	0.943
15.4973	0.942
15.5369	0.933
15.5766	0.922
15.6163	0.917
15.6559	0.907
15.6956	0.889
15.7352	0.884
15.7749	0.865
15.8146	0.86
15.8542	0.849
15.8939	0.837
15.9335	0.821
15.9732	0.824
