Infrared Spectrum: METHYLTRIPHENYLSILANE
Formula: C19 H18 Si
CAS: 791-29-7
State: SOLUTION (5% IN CCl4 FOR 3800-1274, 2% IN CS2 FOR 1274-600, AND 5% IN CCl4 FOR 600-220 CM^-^1)
Melting point: 69 C
Class: COBLENTZ III
Instrument: PERKIN-ELMER 521 (GRATING)
Instrument parameters: FILTERS AT 3150, 2500, 2000, 1150, 700, 410. GRATING CHANGES: 2000, 630 CM^-^1
Sampling: TRANSMISSION
Path length: 0.011 CM, 0.011 CM, AND 0.020 CM
Resolution: 2
Origin: DOW CORNING CORP.
1/CM	TRANSMITTANCE
229.408	0.837
238.781	0.839
248.154	0.846
257.528	0.844
266.901	0.863
276.274	0.873
285.647	0.864
295.02	0.869
304.394	0.869
313.767	0.868
323.14	0.868
332.513	0.861
341.886	0.824
351.259	0.757
360.633	0.789
370.006	0.844
379.379	0.852
388.752	0.835
398.125	0.83
407.499	0.82
416.872	0.729
426.245	0.555
435.618	0.568
444.991	0.727
454.365	0.784
463.738	0.725
473.111	0.469
482.484	0.206
491.857	0.182
501.231	0.253
510.604	0.429
519.977	0.759
529.35	0.834
538.723	0.803
548.097	0.563
557.47	0.4731
566.843	0.83
576.216	0.837
585.589	0.837
594.962	0.837
604.336	0.838
613.709	0.838
623.082	0.838
632.455	0.838
641.828	0.828
651.202	0.83
660.575	0.792
669.948	0.811
679.321	0.796
688.694	0.776
698.068	0.301
707.441	0.648
716.814	0.672
726.187	0.3521
735.56	0.476
744.934	0.795
754.307	0.848
763.68	0.849
773.053	0.826
782.426	0.689
791.799	0.3631
801.173	0.803
810.546	0.853
819.919	0.861
829.292	0.863
838.665	0.864
848.039	0.87
857.412	0.883
866.785	0.885
876.158	0.899
885.531	0.913
894.905	0.913
904.278	0.909
913.651	0.91
923.024	0.909
932.397	0.908
941.771	0.908
951.144	0.903
960.517	0.898
969.89	0.895
979.263	0.891
988.637	0.887
998.01	0.8489
1007.38	0.883
1016.76	0.882
1026.13	0.871
1035.5	0.878
1044.88	0.878
1054.25	0.88
1063.62	0.873
1073	0.876
1082.37	0.868
1091.74	0.856
1101.11	0.7619
1110.49	0.4927
1119.86	0.6351
1129.23	0.816
1138.61	0.864
1147.98	0.866
1157.35	0.864
1166.73	0.866
1176.1	0.864
1185.47	0.842
1194.85	0.859
1204.22	0.88
1213.59	0.884
1222.97	0.883
1232.34	0.884
1241.71	0.874
1251.09	0.733
1260.46	0.824
1269.83	0.863
1279.21	0.814
1288.58	0.816
1297.95	0.756
1307.33	0.806
1316.7	0.792
1326.07	0.771
1335.44	0.819
1344.82	0.833
1354.19	0.833
1363.56	0.824
1372.94	0.805
1382.31	0.821
1391.68	0.82
1401.06	0.778
1410.43	0.725
1419.8	0.7268
1429.18	0.1243
1438.55	0.804
1447.92	0.828
1457.3	0.831
1466.67	0.826
1476.04	0.803
1485.42	0.655
1494.79	0.841
1504.16	0.844
1513.54	0.847
1522.91	0.842
1532.28	0.839
1541.65	0.838
1551.03	0.84
1560.4	0.846
1569.77	0.826
1579.15	0.818
1588.52	0.738
1597.89	0.84
1607.27	0.846
1616.64	0.834
1626.01	0.85
1635.39	0.846
1644.76	0.835
1654.13	0.833
1663.51	0.844
1672.88	0.853
1682.25	0.85
1691.63	0.854
1701	0.855
1710.37	0.852
1719.75	0.854
1729.12	0.855
1738.49	0.857
1747.87	0.856
1757.24	0.848
1766.61	0.834
1775.98	0.842
1785.36	0.856
1794.73	0.852
1804.1	0.849
1813.48	0.82
1822.85	0.805
1832.22	0.838
1841.6	0.853
1850.97	0.857
1860.34	0.857
1869.72	0.857
1879.09	0.83
1888.46	0.814
1897.84	0.811
1907.21	0.842
1916.58	0.859
1925.96	0.864
1935.33	0.86
1944.7	0.853
1954.08	0.795
1963.45	0.835
1972.82	0.83
1982.19	0.856
1991.57	0.86
2000.94	0.869
2010.31	0.8791
2019.69	0.8826
2029.06	0.8844
2038.43	0.882
2047.81	0.882
2057.18	0.882
2066.55	0.882
2075.93	0.882
2085.3	0.882
2094.67	0.8819
2104.05	0.882
2113.42	0.882
2122.79	0.883
2132.17	0.883
2141.54	0.884
2150.91	0.884
2160.29	0.884
2169.66	0.883
2179.03	0.883
2188.4	0.8834
2197.78	0.8844
2207.15	0.874
2216.52	0.883
2225.9	0.885
2235.27	0.885
2244.64	0.885
2254.02	0.885
2263.39	0.885
2272.76	0.885
2282.14	0.885
2291.51	0.885
2300.88	0.884
2310.26	0.885
2319.63	0.887
2329	0.888
2338.38	0.8892
2347.75	0.892
2357.12	0.8898
2366.5	0.887
2375.87	0.8883
2385.24	0.891
2394.62	0.89
2403.99	0.89
2413.36	0.891
2422.73	0.891
2432.11	0.891
2441.48	0.891
2450.85	0.891
2460.23	0.8887
2469.6	0.8877
2478.97	0.889
2488.35	0.889
2497.72	0.889
2507.09	0.8852
2516.47	0.8868
2525.84	0.889
2535.21	0.89
2544.59	0.89
2553.96	0.888
2563.33	0.8849
2572.71	0.8828
2582.08	0.8802
2591.45	0.8873
2600.83	0.8877
2610.2	0.8827
2619.57	0.889
2628.94	0.89
2638.32	0.89
2647.69	0.8885
2657.06	0.888
2666.44	0.885
2675.81	0.883
2685.18	0.8803
2694.56	0.8818
2703.93	0.888
2713.3	0.891
2722.68	0.8891
2732.05	0.887
2741.42	0.888
2750.8	0.889
2760.17	0.889
2769.54	0.885
2778.92	0.883
2788.29	0.881
2797.66	0.8778
2807.04	0.876
2816.41	0.876
2825.78	0.876
2835.16	0.877
2844.53	0.8775
2853.9	0.878
2863.27	0.877
2872.65	0.8744
2882.02	0.8641
2891.39	0.8556
2900.77	0.8501
2910.14	0.8583
2919.51	0.8644
2928.89	0.8621
2938.26	0.8524
2947.63	0.7972
2957.01	0.7639
2966.38	0.8052
2975.75	0.82
2985.13	0.8085
2994.5	0.7099
3003.87	0.7081
3013.25	0.6673
3022.62	0.6663
3031.99	0.7243
3041.37	0.5886
3050.74	0.5303
3060.11	0.6027
3069.48	0.4565
3078.86	0.729
3088.23	0.7412
3097.6	0.8513
3106.98	0.854
3116.35	0.854
3125.72	0.8409
3135.1	0.8176
3144.47	0.8569
3153.84	0.862
3163.22	0.8659
3172.59	0.868
3181.96	0.8711
3191.34	0.8751
3200.71	0.8783
3210.08	0.8812
3219.46	0.883
3228.83	0.8843
3238.2	0.888
3247.58	0.89
3256.95	0.89
3266.32	0.891
3275.7	0.891
3285.07	0.891
3294.44	0.891
3303.81	0.891
3313.19	0.891
3322.56	0.891
3331.93	0.891
3341.31	0.891
3350.68	0.891
3360.05	0.891
3369.43	0.891
3378.8	0.892
3388.17	0.892
3397.55	0.892
3406.92	0.892
3416.29	0.892
3425.67	0.892
3435.04	0.892
3444.41	0.892
3453.79	0.894
3463.16	0.894
3472.53	0.894
3481.91	0.8944
3491.28	0.895
3500.65	0.8945
3510.02	0.896
3519.4	0.896
3528.77	0.895
3538.14	0.8943
3547.52	0.895
3556.89	0.896
3566.26	0.897
3575.64	0.897
3585.01	0.8989
3594.38	0.898
3603.76	0.895
3613.13	0.895
3622.5	0.895
3631.88	0.895
3641.25	0.8908
3650.62	0.8912
3660	0.892
3669.37	0.888
3678.74	0.887
3688.12	0.8828
3697.49	0.8875
3706.86	0.888
3716.24	0.8875
3725.61	0.894
3734.98	0.8944
3744.35	0.892
3753.73	0.892
3763.1	0.892
3772.47	0.8948
3781.85	0.8977
3791.22	0.897
