Infrared Spectrum: Triphenylsilanol
Formula: C 18 H 16 O Si
CAS: 791-31-1
State: gas
Instrument: HP-GC/MS/IRD
Origin: NIST Mass Spectrometry Data Center
1/CM	ABSORBANCE
550	0.003509
562	0.003421
574	0.002739
586	0.002596
598	0.002464
610	0.002629
622	0.002959
634	0.003069
646	0.003861
658	0.006116
670	0.012155
682	0.024134
694	0.057211
706	0.101596
718	0.072479
730	0.03872
742	0.028512
754	0.018667
766	0.017512
778	0.021791
790	0.031658
802	0.051381
814	0.060126
826	0.041162
838	0.025366
850	0.017171
862	0.013607
874	0.012342
886	0.007634
898	0.002816
910	0.001826
922	0.001452
934	0.00154
946	0.00165
958	0.001485
970	0.001045
982	0.000968
994	0.003718
1006	0.001661
1018	0.00055
1030	0.001694
1042	0.000275
1054	0.001023
1066	0.001716
1078	0.002761
1090	0.008162
1102	0.031251
1114	0.096547
1126	0.045881
1138	0.009812
1150	0.004103
1162	0.002134
1174	0.002145
1186	0.007997
1198	0.004554
1210	0.000935
1222	0.000187
1234	0.000506
1246	0.00154
1258	0.001991
1270	0.001155
1282	0.001199
1294	0.001859
1306	0.001617
1318	0.001298
1330	0.001683
1342	0.001133
1354	0.001023
1366	0.001221
1378	0.000847
1390	0.000715
1402	0.00176
1414	0.006193
1426	0.018722
1438	0.011528
1450	0.002959
1462	0.001133
1474	0.001089
1486	0.002156
1498	0.000671
1510	1.1e-05
1522	3.3e-05
1534	0.000396
1546	0.000935
1558	0.001397
1570	0.002167
1582	0.003157
1594	0.003256
1606	0.0011
1618	0.000957
1630	0.000539
1642	0.00121
1654	0.002189
1666	0.00099
1678	0.000693
1690	0.000473
1702	0.000242
1714	0.000176
1726	7.7e-05
1738	4.4e-05
1750	0.00044
1762	0.000957
1774	0.001177
1786	0.000759
1798	0.001155
1810	0.003608
1822	0.003553
1834	0.001584
1846	0.000682
1858	0.000748
1870	0.001518
1882	0.002838
1894	0.003443
1906	0.001595
1918	0.000682
1930	0.00088
1942	0.001892
1954	0.003179
1966	0.002805
1978	0.000803
1990	0.00033
2002	0.000253
2014	0.000286
2026	0.000275
2038	0.000242
2050	0.000253
2062	0.000242
2074	0.000231
2086	0.000253
2098	0.000297
2110	0.000297
2122	0.000286
2134	0.00033
2146	0.000374
2158	0.000363
2170	0.000319
2182	0.000341
2194	0.000363
2206	0.000462
2218	0.000638
2230	0.000561
2242	0.000484
2254	0.000473
2266	0.000451
2278	0.000451
2290	0.000517
2302	0.000572
2314	0.001067
2326	0.000572
2338	0.000539
2350	0.000671
2362	0.000484
2374	0.000429
2386	0.000429
2398	0.000396
2410	0.000352
2422	0.000308
2434	0.000297
2446	0.000286
2458	0.000297
2470	0.000297
2482	0.000308
2494	0.000352
2506	0.000363
2518	0.000396
2530	0.000407
2542	0.000374
2554	0.000407
2566	0.00044
2578	0.000594
2590	0.000693
2602	0.000539
2614	0.000649
2626	0.00044
2638	0.000374
2650	0.00033
2662	0.000374
2674	0.000473
2686	0.000704
2698	0.000847
2710	0.000671
2722	0.000418
2734	0.000363
2746	0.00033
2758	0.000341
2770	0.000396
2782	0.000451
2794	0.000616
2806	0.000803
2818	0.000902
2830	0.000781
2842	0.000748
2854	0.000814
2866	0.000649
2878	0.000759
2890	0.001166
2902	0.001474
2914	0.001617
2926	0.001265
2938	0.001111
2950	0.001166
2962	0.001496
2974	0.002101
2986	0.00396
2998	0.008536
3010	0.015136
3022	0.017501
3034	0.012848
3046	0.019151
3058	0.054527
3070	0.042009
3082	0.028963
3094	0.015323
3106	0.005093
3118	0.002992
3130	0.003388
3142	0.002948
3154	0.000968
3166	0.000649
3178	0.000495
3190	0.000429
3202	0.000396
3214	0.000341
3226	0.00033
3238	0.000363
3250	0.000319
3262	0.000341
3274	0.000319
3286	0.000374
3298	0.000308
3310	0.000297
3322	0.000352
3334	0.000297
3346	0.000297
3358	0.000363
3370	0.00033
3382	0.000352
3394	0.000341
3406	0.000396
3418	0.00044
3430	0.000396
3442	0.000462
3454	0.000462
3466	0.00055
3478	0.000462
3490	0.000451
3502	0.000495
3514	0.000517
3526	0.00055
3538	0.00055
3550	0.000605
3562	0.000649
3574	0.000671
3586	0.000726
3598	0.00077
3610	0.000693
3622	0.00088
3634	0.000946
3646	0.001001
3658	0.001001
3670	0.001221
3682	0.001859
3694	0.003366
3706	0.010615
3718	0.032186
3730	0.008635
3742	0.002563
3754	0.001562
3766	0.001331
3778	0.001133
3790	0.000935
3802	0.00077
3814	0.000715
3826	0.000682
3838	0.000583
