Infrared Spectrum: 5-CHLORO-2-THIENYL METHYL KETONE THIOSEMICARBAZONE
Formula: C7 H8 Cl N3 S2
CAS: 79155-44-5
State: SOLID (NUJOL OIL MULL)
Class: COBLENTZ
Instrument: Not specified, most likely a prism, grating, or hybrid spectrometer.
Sampling: TRANSMISSION
Resolution: 4
Origin: TENNESSEE EASTMAN COMPANY, RESEARCH LABORATORIES
MICROMETERS	TRANSMITTANCE
2.045	0.511
2.08479	0.515
2.12458	0.516
2.16437	0.526
2.20415	0.538
2.24394	0.543
2.28373	0.55
2.32352	0.551
2.36331	0.558
2.4031	0.566
2.44289	0.573
2.48267	0.585
2.52246	0.605
2.56225	0.611
2.60204	0.615
2.64183	0.623
2.68162	0.643
2.72141	0.648
2.7612	0.655
2.80098	0.658
2.84077	0.665
2.88056	0.68
2.92035	0.655
2.96014	0.496
2.99993	0.675
3.03972	0.665
3.0795	0.555
3.11929	0.39
3.15908	0.451
3.19887	0.408
3.23866	0.463
3.27845	0.54
3.31824	0.543
3.35802	0.5
3.39781	0.153
3.4376	0.091
3.47739	0.236
3.51718	0.256
3.55697	0.653
3.59676	0.688
3.63654	0.706
3.67633	0.711
3.71612	0.715
3.75591	0.721
3.7957	0.726
3.83549	0.728
3.87528	0.74
3.91507	0.748
3.95485	0.761
3.99464	0.768
4.03443	0.776
4.07422	0.78
4.11401	0.785
4.1538	0.791
4.19359	0.791
4.23337	0.8
4.27316	0.835
4.31295	0.835
4.35274	0.83
4.39253	0.828
4.43232	0.83
4.47211	0.831
4.51189	0.833
4.55168	0.833
4.59147	0.835
4.63126	0.836
4.67105	0.84
4.71084	0.84
4.75063	0.841
4.79041	0.843
4.8302	0.845
4.86999	0.853
4.90978	0.856
4.94957	0.86
4.98936	0.868
5.02915	0.871
5.06894	0.871
5.10872	0.873
5.14851	0.878
5.1883	0.88
5.22809	0.881
5.26788	0.885
5.30767	0.891
5.34746	0.9
5.38724	0.9
5.42703	0.91
5.46682	0.911
5.50661	0.911
5.5464	0.92
5.58619	0.923
5.62598	0.926
5.66576	0.935
5.70555	0.935
5.74534	0.935
5.78513	0.921
5.82492	0.931
5.86471	0.938
5.9045	0.946
5.94428	0.948
5.98407	0.943
6.02386	0.943
6.06365	0.951
6.10344	0.956
6.14323	0.96
6.18302	0.938
6.22281	0.72
6.26259	0.298
6.30238	0.638
6.34217	0.693
6.38196	0.81
6.42175	0.84
6.46154	0.826
6.50133	0.773
6.54111	0.836
6.5809	0.586
6.62069	0.32
6.66048	0.405
6.70027	0.596
6.74006	0.65
6.77985	0.448
6.81963	0.256
6.85942	0.31
6.89921	0.325
6.939	0.398
6.97879	0.595
7.01858	0.621
7.05837	0.69
7.09815	0.751
7.13794	0.785
7.17773	0.783
7.21752	0.678
7.25731	0.598
7.2971	0.618
7.33689	0.65
7.37668	0.758
7.41646	0.8
7.45625	0.82
7.49604	0.828
7.53583	0.83
7.57562	0.823
7.61541	0.78
7.6552	0.75
7.69498	0.621
7.73477	0.41
7.77456	0.466
7.81435	0.64
7.85414	0.735
7.89393	0.773
7.93372	0.791
7.9735	0.803
8.01329	0.801
8.05308	0.793
8.09287	0.798
8.13266	0.815
8.17245	0.82
8.21224	0.753
8.25202	0.83
8.29181	0.835
8.3316	0.84
8.37139	0.838
8.41118	0.84
8.45097	0.84
8.49076	0.84
8.53055	0.838
8.57033	0.836
8.61012	0.83
8.64991	0.803
8.6897	0.783
8.72949	0.765
8.76928	0.75
8.80907	0.741
8.84885	0.733
8.88864	0.723
8.92843	0.7
8.96822	0.67
9.00801	0.633
9.0478	0.618
9.08759	0.678
9.12737	0.738
9.16716	0.758
9.20695	0.77
9.24674	0.77
9.28653	0.76
9.32632	0.751
9.36611	0.751
9.40589	0.781
9.44568	0.805
9.48547	0.826
9.52526	0.84
9.56505	0.843
9.60484	0.853
9.64463	0.863
9.68442	0.87
9.7242	0.871
9.76399	0.866
9.80378	0.821
9.84357	0.803
9.88336	0.801
9.92315	0.765
9.96294	0.75
10.0027	0.768
10.0425	0.833
10.0823	0.865
10.1221	0.883
10.1619	0.885
10.2017	0.886
10.2415	0.885
10.2812	0.885
10.321	0.885
10.3608	0.886
10.4006	0.886
10.4404	0.885
10.4802	0.883
10.52	0.881
10.5598	0.88
10.5996	0.88
10.6393	0.878
10.6791	0.878
10.7189	0.88
10.7587	0.886
10.7985	0.896
10.8383	0.905
10.8781	0.913
10.9179	0.923
10.9577	0.93
10.9974	0.938
11.0372	0.943
11.077	0.951
11.1168	0.955
11.1566	0.96
11.1964	0.963
11.2362	0.963
11.276	0.966
11.3157	0.968
11.3555	0.97
11.3953	0.971
11.4351	0.971
11.4749	0.973
11.5147	0.973
11.5545	0.975
11.5943	0.976
11.6341	0.975
11.6738	0.978
11.7136	0.978
11.7534	0.976
11.7932	0.973
11.833	0.903
11.8728	0.72
11.9126	0.651
11.9524	0.771
11.9922	0.851
12.0319	0.9
12.0717	0.921
12.1115	0.943
12.1513	0.953
12.1911	0.961
12.2309	0.963
12.2707	0.968
12.3105	0.97
12.3503	0.971
12.39	0.973
12.4298	0.971
12.4696	0.971
12.5094	0.973
12.5492	0.971
12.589	0.966
12.6288	0.943
12.6686	0.856
12.7084	0.686
12.7481	0.561
12.7879	0.716
12.8277	0.846
12.8675	0.911
12.9073	0.943
12.9471	0.951
12.9869	0.958
13.0267	0.96
13.0664	0.961
13.1062	0.961
13.146	0.961
13.1858	0.961
13.2256	0.961
13.2654	0.961
13.3052	0.961
13.345	0.961
13.3848	0.96
13.4245	0.958
13.4643	0.95
13.5041	0.921
13.5439	0.893
13.5837	0.89
13.6235	0.895
13.6633	0.898
13.7031	0.9
13.7429	0.9
13.7826	0.896
13.8224	0.895
13.8622	0.891
13.902	0.881
13.9418	0.853
13.9816	0.826
14.0214	0.771
14.0612	0.736
14.101	0.738
14.1407	0.771
14.1805	0.803
14.2203	0.825
14.2601	0.835
14.2999	0.836
14.3397	0.836
14.3795	0.835
14.4193	0.836
14.459	0.835
14.4988	0.836
14.5386	0.835
14.5784	0.836
14.6182	0.835
14.658	0.835
14.6978	0.835
14.7376	0.835
14.7774	0.833
14.8171	0.835
14.8569	0.833
14.8967	0.831
14.9365	0.828
14.9763	0.83
15.0161	0.83
15.0559	0.83
15.0957	0.815
15.1355	0.791
15.1752	0.781
15.215	0.773
15.2548	0.771
15.2946	0.766
15.3344	0.766
15.3742	0.766
15.414	0.766
15.4538	0.765
15.4936	0.765
15.5333	0.765
15.5731	0.765
15.6129	0.761
15.6527	0.76
15.6925	0.76
15.7323	0.76
15.7721	0.76
15.8119	0.758
15.8517	0.758
15.8914	0.756
15.9312	0.756
15.971	0.756
16.0108	0.756
