Infrared Spectrum: 9H-Purine-6-thiol, 2-fluoro-9-Beta-D-ribofuranosyl-
Formula: C10 H11 F N4 O4 S
CAS: 792-16-5
State: SOLID (KBr DISC)
Class: COBLENTZ III
Instrument: PERKIN-ELMER 21 (GRATING)
Instrument parameters: FILTER CHANGE ABOUT 1090 CM^-^1
Sampling: TRANSMISSION
Resolution: 2
Origin: SOUTHERN RESEARCH INSTITUTE
1/CM	TRANSMITTANCE
599.98	0.8394
609.022	0.8382
618.065	0.8314
627.107	0.8172
636.15	0.7728
645.192	0.7671
654.234	0.8316
663.277	0.84
672.319	0.8294
681.361	0.8078
690.404	0.7816
699.446	0.7793
708.489	0.7115
717.531	0.7242
726.573	0.7847
735.616	0.7714
744.658	0.7485
753.7	0.7532
762.743	0.776
771.785	0.7655
780.828	0.7148
789.87	0.6379
798.912	0.7191
807.955	0.7838
816.997	0.7942
826.04	0.7982
835.082	0.785
844.124	0.7507
853.167	0.6581
862.209	0.6376
871.251	0.6742
880.294	0.689
889.336	0.6418
898.379	0.5355
907.421	0.4888
916.463	0.5376
925.506	0.7024
934.548	0.7569
943.59	0.746
952.633	0.7469
961.675	0.7406
970.718	0.7001
979.76	0.6468
988.802	0.6441
997.845	0.6243
1006.89	0.5903
1015.93	0.6079
1024.97	0.5972
1034.01	0.5536
1043.06	0.5025
1052.1	0.44
1061.14	0.4377
1070.18	0.4668
1079.23	0.4418
1088.27	0.4462
1097.31	0.3637
1106.35	0.4531
1115.4	0.4532
1124.44	0.459
1133.48	0.494
1142.52	0.5141
1151.57	0.6201
1160.61	0.6864
1169.65	0.7403
1178.69	0.7021
1187.73	0.6101
1196.78	0.5342
1205.82	0.4258
1214.86	0.4226
1223.9	0.5345
1232.95	0.6389
1241.99	0.691
1251.03	0.7063
1260.07	0.7177
1269.12	0.72
1278.16	0.7088
1287.2	0.6727
1296.24	0.6506
1305.29	0.6377
1314.33	0.6267
1323.37	0.5962
1332.41	0.5451
1341.46	0.3919
1350.5	0.4356
1359.54	0.5564
1368.58	0.5553
1377.62	0.4494
1386.67	0.4023
1395.71	0.4052
1404.75	0.4185
1413.79	0.5542
1422.84	0.5563
1431.88	0.5424
1440.92	0.5948
1449.96	0.6817
1459.01	0.7264
1468.05	0.7538
1477.09	0.7471
1486.13	0.5926
1495.18	0.5064
1504.22	0.5596
1513.26	0.7377
1522.3	0.7825
1531.35	0.7843
1540.39	0.7206
1549.43	0.7061
1558.47	0.5145
1567.51	0.4304
1576.56	0.1985
1585.6	0.2051
1594.64	0.3549
1603.68	0.55
1612.73	0.6628
1621.77	0.6987
1630.81	0.7163
1639.85	0.7344
1648.9	0.7533
1657.94	0.7682
1666.98	0.7886
1676.02	0.8334
1685.07	0.847
1694.11	0.8585
1703.15	0.8656
1712.19	0.8723
1721.24	0.8785
1730.28	0.884
1739.32	0.8886
1748.36	0.891
1757.4	0.8931
1766.45	0.8946
1775.49	0.8991
1784.53	0.8973
1793.57	0.9042
1802.62	0.9013
1811.66	0.8991
1820.7	0.8996
1829.74	0.903
1838.79	0.9089
1847.83	0.9124
1856.87	0.912
1865.91	0.9131
1874.96	0.9185
1884	0.916
1893.04	0.9175
1902.08	0.9189
1911.13	0.9174
1920.17	0.9155
1929.21	0.9132
1938.25	0.912
1947.29	0.9108
1956.34	0.9104
1965.38	0.9103
1974.42	0.9111
1983.46	0.9129
1992.51	0.9163
2001.55	0.9171
2010.59	0.9076
2019.63	0.9087
2028.68	0.9109
2037.72	0.9116
2046.76	0.9114
2055.8	0.9108
2064.85	0.9097
2073.89	0.9086
2082.93	0.9075
2091.97	0.9066
2101.02	0.9056
2110.06	0.9044
2119.1	0.903
2128.14	0.9015
2137.18	0.9005
2146.23	0.8992
2155.27	0.8997
2164.31	0.9001
2173.35	0.8997
2182.4	0.8991
2191.44	0.8979
2200.48	0.8968
2209.52	0.8964
2218.57	0.8961
2227.61	0.896
2236.65	0.8951
2245.69	0.8938
2254.74	0.8927
2263.78	0.8902
2272.82	0.8886
2281.86	0.8867
2290.91	0.8847
2299.95	0.8796
2308.99	0.8744
2318.03	0.8693
2327.07	0.8638
2336.12	0.863
2345.16	0.8633
2354.2	0.8657
2363.24	0.8716
2372.29	0.8741
2381.33	0.8731
2390.37	0.8726
2399.41	0.8727
2408.46	0.8733
2417.5	0.8727
2426.54	0.8709
2435.58	0.8688
2444.63	0.8667
2453.67	0.8646
2462.71	0.8616
2471.75	0.8588
2480.8	0.8585
2489.84	0.8583
2498.88	0.8581
2507.92	0.8586
2516.96	0.859
2526.01	0.858
2535.05	0.8546
2544.09	0.8488
2553.13	0.8482
2562.18	0.8452
2571.22	0.837
2580.26	0.8358
2589.3	0.8397
2598.35	0.8413
2607.39	0.8407
2616.43	0.8394
2625.47	0.8374
2634.52	0.8353
2643.56	0.8324
2652.6	0.8296
2661.64	0.827
2670.69	0.8247
2679.73	0.8224
2688.77	0.8229
2697.81	0.8238
2706.85	0.8227
2715.9	0.8145
2724.94	0.8114
2733.98	0.8082
2743.02	0.8061
2752.07	0.7974
2761.11	0.7929
2770.15	0.793
2779.19	0.797
2788.24	0.7893
2797.28	0.7815
2806.32	0.7749
2815.36	0.7685
2824.41	0.7608
2833.45	0.7514
2842.49	0.7416
2851.53	0.7345
2860.58	0.7276
2869.62	0.723
2878.66	0.7146
2887.7	0.706
2896.74	0.6967
2905.79	0.6883
2914.83	0.6925
2923.87	0.7014
2932.91	0.716
2941.96	0.729
2951	0.7444
2960.04	0.7547
2969.08	0.7615
2978.13	0.7626
2987.17	0.7596
2996.21	0.7576
3005.25	0.7573
3014.3	0.7495
3023.34	0.7402
3032.38	0.7322
3041.42	0.7195
3050.47	0.7073
3059.51	0.6949
3068.55	0.6827
3077.59	0.6725
3086.63	0.6597
3095.68	0.6539
3104.72	0.6524
3113.76	0.6501
3122.8	0.6415
3131.85	0.641
3140.89	0.6314
3149.93	0.6169
3158.97	0.603
3168.02	0.5885
3177.06	0.5753
3186.1	0.5636
3195.14	0.553
3204.19	0.5438
3213.23	0.5348
3222.27	0.5259
3231.31	0.5171
3240.36	0.5085
3249.4	0.5
3258.44	0.4913
3267.48	0.4823
3276.52	0.4734
3285.57	0.4641
3294.61	0.4543
3303.65	0.4442
3312.69	0.4338
3321.74	0.4262
3330.78	0.4196
3339.82	0.4121
3348.86	0.4043
3357.91	0.3966
3366.95	0.3898
3375.99	0.3852
3385.03	0.3822
3394.08	0.3827
3403.12	0.3886
3412.16	0.397
3421.2	0.401
3430.25	0.4103
3439.29	0.4315
3448.33	0.4467
3457.37	0.4664
3466.41	0.4893
3475.46	0.5147
3484.5	0.5398
3493.54	0.5655
3502.58	0.5918
3511.63	0.616
3520.67	0.637
3529.71	0.6607
3538.75	0.683
3547.8	0.7035
3556.84	0.7268
3565.88	0.7542
3574.92	0.777
3583.97	0.8148
3593.01	0.8308
3602.05	0.8408
3611.09	0.8476
3620.14	0.8535
3629.18	0.8583
3638.22	0.8676
3647.26	0.8794
3656.3	0.8825
3665.35	0.8858
3674.39	0.892
3683.43	0.8911
3692.47	0.8873
3701.52	0.8843
3710.56	0.8837
3719.6	0.8847
3728.64	0.8862
3737.69	0.8879
3746.73	0.8907
3755.77	0.8952
3764.81	0.8969
3773.86	0.8935
3782.9	0.8913
3791.94	0.891
3800.98	0.8948
3810.03	0.8907
3819.07	0.8806
3828.11	0.8763
3837.15	0.8772
3846.19	0.8785
3855.24	0.8797
3864.28	0.8817
3873.32	0.8836
3882.36	0.8835
3891.41	0.8829
3900.45	0.8861
3909.49	0.8824
3918.53	0.8781
3927.58	0.8788
3936.62	0.8799
3945.66	0.8803
3954.7	0.8803
3963.75	0.8796
3972.79	0.8796
3981.83	0.8818
3990.87	0.8825
3999.92	0.8793
4008.96	0.8768
4018	0.8793
