Infrared Spectrum: (3S)-(-)-3-Acetamidopyrrolidine
Formula: C 6 H 12 N 2 O
CAS: 79286-74-1
State: gas
Origin: EPA-IR VAPOR PHASE LIBRARY
1/CM	ABSORBANCE
549.8	0.009734
559.445	0.008744
569.09	0.009224
578.734	0.007754
588.379	0.007394
598.024	0.006574
607.669	0.005914
617.313	0.004764
626.958	0.004974
636.603	0.004034
646.248	0.004174
655.893	0.004214
665.537	0.003414
675.182	0.003674
684.827	0.003444
694.472	0.004094
704.116	0.003844
713.761	0.004034
723.406	0.004434
733.051	0.005684
742.695	0.006094
752.34	0.006374
761.985	0.007794
771.63	0.008154
781.275	0.009464
790.919	0.009114
800.564	0.008524
810.209	0.009174
819.854	0.008594
829.498	0.007634
839.143	0.007434
848.788	0.006464
858.433	0.005544
868.078	0.005064
877.722	0.005194
887.367	0.004964
897.012	0.004644
906.657	0.004844
916.301	0.004284
925.946	0.004914
935.591	0.004354
945.236	0.004544
954.88	0.005294
964.525	0.005864
974.17	0.006454
983.815	0.005724
993.46	0.004464
1003.1	0.004194
1012.75	0.004304
1022.39	0.003744
1032.04	0.003434
1041.68	0.003024
1051.33	0.003554
1060.97	0.005164
1070.62	0.004954
1080.26	0.009474
1089.91	0.008614
1099.55	0.008154
1109.2	0.006714
1118.84	0.006324
1128.49	0.004084
1138.13	0.003064
1147.78	0.001974
1157.42	0.003584
1167.07	0.003664
1176.71	0.005384
1186.36	0.003794
1196	0.006144
1205.64	0.009524
1215.29	0.010864
1224.93	0.015614
1234.58	0.022394
1244.22	0.027484
1253.87	0.027554
1263.51	0.022234
1273.16	0.017574
1282.8	0.013964
1292.45	0.011454
1302.09	0.009254
1311.74	0.008654
1321.38	0.007634
1331.03	0.006994
1340.67	0.006574
1350.32	0.008744
1359.96	0.014494
1369.61	0.019584
1379.25	0.017524
1388.9	0.012824
1398.54	0.011184
1408.18	0.011354
1417.83	0.012304
1427.47	0.014294
1437.12	0.017524
1446.76	0.021844
1456.41	0.028124
1466.05	0.039014
1475.7	0.055284
1485.34	0.069854
1494.99	0.066974
1504.63	0.046624
1514.28	0.026044
1523.92	0.015784
1533.57	0.010784
1543.21	0.007884
1552.86	0.006234
1562.5	0.005444
1572.15	0.004774
1581.79	0.003904
1591.44	0.003584
1601.08	0.002914
1610.73	0.003234
1620.37	0.003024
1630.01	0.003374
1639.66	0.003424
1649.3	0.004384
1658.95	0.006004
1668.59	0.007954
1678.24	0.011454
1687.88	0.021394
1697.53	0.047384
1707.17	0.084894
1716.82	0.089504
1726.46	0.052164
1736.11	0.022014
1745.75	0.010914
1755.4	0.006444
1765.04	0.004584
1774.69	0.003494
1784.33	0.002674
1793.98	0.002444
1803.62	0.002224
1813.27	0.002174
1822.91	0.001994
1832.55	0.0018697
1842.2	0.0016998
1851.84	0.0017061
1861.49	0.0018241
1871.13	0.0014201
1880.78	0.0014414
1890.42	0.0015455
1900.07	0.0015124
1909.71	0.0014182
1919.36	0.0013695
1929	0.0012228
1938.65	0.0013674
1948.29	0.001501
1957.94	0.0013474
1967.58	0.001328
1977.23	0.0015249
1986.87	0.001348
1996.52	0.0011742
2006.16	0.0013401
2015.81	0.0013523
2025.45	0.0012466
2035.1	0.001229
2044.74	0.0014857
2054.38	0.0012673
2064.03	0.001296
2073.67	0.0011924
2083.32	0.0011931
2092.96	0.0014152
2102.61	0.0012101
2112.25	0.0011624
2121.9	0.0013683
2131.54	0.0014437
2141.19	0.0011865
2150.83	0.00129
2160.48	0.0013959
2170.12	0.0013351
2179.77	0.0014595
2189.41	0.00141
2199.06	0.0014667
2208.7	0.0016293
2218.35	0.0013981
2227.99	0.0014828
2237.64	0.0012842
2247.28	0.0012275
2256.92	0.0013487
2266.57	0.0012474
2276.21	0.0014062
2285.86	0.0014839
2295.5	0.0012802
2305.15	0.0010582
2314.79	0.0013178
2324.44	0.0016421
2334.08	0.001334
2343.73	0.0013431
2353.37	0.001384
2363.02	0.001097
2372.66	0.0013604
2382.31	0.0012835
2391.95	0.0013626
2401.6	0.0011735
2411.24	0.00107
2420.89	0.0014164
2430.53	0.0015426
2440.18	0.0014621
2449.82	0.0014583
2459.47	0.0012647
2469.11	0.0011076
2478.75	0.0014523
2488.4	0.0012268
2498.04	0.0011592
2507.69	0.00128
2517.33	0.0014298
2526.98	0.0012199
2536.62	0.001476
2546.27	0.0014303
2555.91	0.0012886
2565.56	0.0013686
2575.2	0.001447
2584.85	0.0014489
2594.49	0.0017832
2604.14	0.001714
2613.78	0.0015332
2623.43	0.0015539
2633.07	0.0018138
2642.72	0.0018645
2652.36	0.0018427
2662.01	0.002014
2671.65	0.001954
2681.29	0.002104
2690.94	0.0018858
2700.58	0.002274
2710.23	0.001974
2719.87	0.002674
2729.52	0.002914
2739.16	0.002764
2748.81	0.003304
2758.45	0.003164
2768.1	0.003654
2777.74	0.004254
2787.39	0.005544
2797.03	0.007144
2806.68	0.009564
2816.32	0.011624
2825.97	0.014004
2835.61	0.015094
2845.26	0.014964
2854.9	0.014964
2864.55	0.015604
2874.19	0.016324
2883.84	0.016504
2893.48	0.015524
2903.12	0.016204
2912.77	0.016784
2922.41	0.018324
2932.06	0.019964
2941.7	0.020904
2951.35	0.021704
2960.99	0.023464
2970.64	0.025164
2980.28	0.023924
2989.93	0.016994
2999.57	0.011004
3009.22	0.007164
3018.86	0.005474
3028.51	0.004514
3038.15	0.003704
3047.8	0.003044
3057.44	0.002844
3067.09	0.002684
3076.73	0.002364
3086.38	0.001974
3096.02	0.002324
3105.67	0.0016254
3115.31	0.001693
3124.95	0.001259
3134.6	0.0011626
3144.24	0.0011265
3153.89	0.0018536
3163.53	0.000792
3173.18	0.0011281
3182.82	0.0012829
3192.47	0.000707
3202.11	0.0008999
3211.76	0.0008731
3221.4	0.0011581
3231.05	0.001159
3240.69	0.0015284
3250.34	0.0013245
3259.98	0.0010454
3269.63	0.000781
3279.27	0.000581
3288.92	0.001348
3298.56	0.000671
3308.21	0.000723
3317.85	0.0008386
3327.49	0.00073
3337.14	0.0015201
3346.78	0.0016134
3356.43	0.0015978
3366.07	0.0016755
3375.72	0.001534
3385.36	0.0018785
3395.01	0.0018064
3404.65	0.002264
3414.3	0.002534
3423.94	0.002924
3433.59	0.003014
3443.23	0.004434
3452.88	0.006024
3462.52	0.006334
3472.17	0.003984
3481.81	0.002824
3491.46	0.002004
3501.1	0.000794
3510.75	0.0012339
3520.39	0.0013371
3530.04	0.000443
3539.68	0.0012922
3549.32	0.00098526
3558.97	0.0012462
3568.61	0.00082
3578.26	0
3587.9	0.0014996
3597.55	0.000797
3607.19	0.0010635
3616.84	0.0011978
3626.48	0.000396
3636.13	0.0009163
3645.77	0.0010926
3655.42	0.000867
3665.06	0.000739
3674.71	0.00101219
3684.35	0.000612
3694	0.0012846
3703.64	0.0012009
3713.29	0.0008935
3722.93	0.0012371
3732.58	0.0009008
3742.22	0.00053
3751.86	0.0008869
3761.51	0.000515
3771.15	0.0013686
3780.8	0.001205
3790.44	0.0012014
3800.09	0.000293
3809.73	0.0013651
3819.38	0.000666
3829.02	0.0009172
3838.67	0.000143
3848.31	0.0013053
3857.96	0.0013549
3867.6	0.0010371
3877.25	0.000322
3886.89	0.00095935
3896.54	0.0014044
3906.18	0.0011679
3915.83	0.000778
3925.47	0.0010685
3935.12	0.0011354
3944.76	0.0011345
3954.41	0.00095948
3964.05	0.000182
3973.69	0.0014073
3983.34	0.0011052
3992.98	0.0014342
