Infrared Spectrum: 4.4'-Diacetylbibenzyl
Formula: C 18 H 18 O 2
CAS: 793-06-6
State: gas
Origin: EPA-IR VAPOR PHASE LIBRARY
1/CM	ABSORBANCE
549.8	0.0011774
559.445	0.00151
569.09	0.0024
578.734	0.00162
588.379	0.002
598.024	0.00278
607.669	0.00151
617.313	0.00142
626.958	0.0007892
636.603	0.0009284
646.248	0.0011808
655.893	0.0012113
665.537	0.00151
675.182	0.001069
684.827	0.0006114
694.472	0.0005085
704.116	0.0002951
713.761	0.0007223
723.406	0.0005293
733.051	0.0004871
742.695	0.000479
752.34	0.0004717
761.985	0.0005182
771.63	0.00065
781.275	0.0007958
790.919	0.0008154
800.564	0.0011089
810.209	0.00204
819.854	0.00329
829.498	0.00232
839.143	0.0019
848.788	0.00134
858.433	0.0008462
868.078	0.0006741
877.722	0.0005249
887.367	0.0007019
897.012	0.0006824
906.657	0.0007338
916.301	0.0008494
925.946	0.0009458
935.591	0.0010839
945.236	0.0023
954.88	0.0031
964.525	0.00139
974.17	0.0010852
983.815	0.0011004
993.46	0.001116
1003.1	0.0009803
1012.75	0.00162
1022.39	0.00142
1032.04	0.0009628
1041.68	0.0005688
1051.33	0.0006886
1060.97	0.0011939
1070.62	0.00135
1080.26	0.0005055
1089.91	0.0010616
1099.55	0.0012742
1109.2	0.0009938
1118.84	0.0007746
1128.49	0.0010113
1138.13	0.0007353
1147.78	0.0006349
1157.42	0.0008999
1167.07	0.0010628
1176.71	0.00187
1186.36	0.00337
1196	0.00173
1205.64	0.0011879
1215.29	0.0011673
1224.93	0.002
1234.58	0.00396
1244.22	0.00551
1253.87	0.0121
1263.51	0.01587
1273.16	0.00485
1282.8	0.00259
1292.45	0.00192
1302.09	0.0015
1311.74	0.0012509
1321.38	0.0010442
1331.03	0.0011965
1340.67	0.00171
1350.32	0.00282
1359.96	0.00583
1369.61	0.00316
1379.25	0.0016
1388.9	0.00138
1398.54	0.00176
1408.18	0.00281
1417.83	0.00227
1427.47	0.00163
1437.12	0.00155
1446.76	0.00155
1456.41	0.0011219
1466.05	0.0008685
1475.7	0.000789
1485.34	0.0008224
1494.99	0.0007006
1504.63	0.0006816
1514.28	0.0007314
1523.92	0.0007451
1533.57	0.0007321
1543.21	0.0008034
1552.86	0.0009613
1562.5	0.0012699
1572.15	0.0015
1581.79	0.00139
1591.44	0.00204
1601.08	0.00468
1610.73	0.00478
1620.37	0.00189
1630.01	0.0012424
1639.66	0.001133
1649.3	0.0010964
1658.95	0.00139
1668.59	0.00168
1678.24	0.00245
1687.88	0.0047
1697.53	0.01354
1707.17	0.01497
1716.82	0.00491
1726.46	0.00246
1736.11	0.0015
1745.75	0.0012468
1755.4	0.0011211
1765.04	0.0008531
1774.69	0.0007302
1784.33	0.0006889
1793.98	0.000617
1803.62	0.0006974
1813.27	0.0006159
1822.91	0.0005699
1832.55	0.0005979
1842.2	0.0004856
1851.84	0.0005374
1861.49	0.0004819
1871.13	0.0005755
1880.78	0.0005455
1890.42	0.0006235
1900.07	0.0006255
1909.71	0.000675
1919.36	0.000599
1929	0.0007083
1938.65	0.0006089
1948.29	0.0006017
1957.94	0.0006491
1967.58	0.0005434
1977.23	0.0005675
1986.87	0.0004563
1996.52	0.0005314
2006.16	0.000538
2015.81	0.0004837
2025.45	0.0005191
2035.1	0.0004901
2044.74	0.0004631
2054.38	0.0005006
2064.03	0.0004503
2073.67	0.0004878
2083.32	0.0004638
2092.96	0.0004599
2102.61	0.0004332
2112.25	0.0004451
2121.9	0.0005451
2131.54	0.0005143
2141.19	0.0005291
2150.83	0.0004899
2160.48	0.0005362
2170.12	0.0004824
2179.77	0.00039531
2189.41	0.0005637
2199.06	0.0004884
2208.7	0.0004684
2218.35	0.0004877
2227.99	0.0004601
2237.64	0.0005282
2247.28	0.0004703
2256.92	0.000421
2266.57	0.000474
2276.21	0.00041482
2285.86	0.0004899
2295.5	0.0005484
2305.15	0.0005951
2314.79	0.000589
2324.44	0.0005387
2334.08	0.0004973
2343.73	0.00038769
2353.37	0.0004957
2363.02	0.0005798
2372.66	0.0005122
2382.31	0.0004565
2391.95	0.0005469
2401.6	0.0005543
2411.24	0.0005011
2420.89	0.0004541
2430.53	0.0004965
2440.18	0.0004893
2449.82	0.0005206
2459.47	0.000478
2469.11	0.00039788
2478.75	0.0004538
2488.4	0.00041481
2498.04	0.0005247
2507.69	0.0005241
2517.33	0.0005908
2526.98	0.0004877
2536.62	0.0004582
2546.27	0.0004488
2555.91	0.00040379
2565.56	0.0005231
2575.2	0.0004216
2584.85	0.0005484
2594.49	0.0006026
2604.14	0.0005313
2613.78	0.0005769
2623.43	0.0004646
2633.07	0.0004973
2642.72	0.0005851
2652.36	0.00033033
2662.01	0.000438
2671.65	0.0005097
2681.29	0.00037365
2690.94	0.000559
2700.58	0.0004488
2710.23	0.0005185
2719.87	0.00039988
2729.52	0.000466
2739.16	0.0004564
2748.81	0.0004555
2758.45	0.0005394
2768.1	0.0004315
2777.74	0.0004501
2787.39	0.0005834
2797.03	0.0004579
2806.68	0.000492
2816.32	0.000572
2825.97	0.0006794
2835.61	0.000603
2845.26	0.0006856
2854.9	0.0009021
2864.55	0.0011259
2874.19	0.0010681
2883.84	0.0007799
2893.48	0.0005966
2903.12	0.0008598
2912.77	0.0010264
2922.41	0.00159
2932.06	0.00217
2941.7	0.00232
2951.35	0.00222
2960.99	0.00134
2970.64	0.0011767
2980.28	0.000982
2989.93	0.0008335
2999.57	0.0012471
3009.22	0.00142
3018.86	0.00153
3028.51	0.00194
3038.15	0.00208
3047.8	0.00142
3057.44	0.0012672
3067.09	0.0012117
3076.73	0.0011784
3086.38	0.00135
3096.02	0.0008893
3105.67	0.000861
3115.31	0.0005756
3124.95	0.0006738
3134.6	0.0005123
3144.24	0.00034553
3153.89	0.0004212
3163.53	0.0002903
3173.18	0.00031105
3182.82	0.0004664
3192.47	0.0004837
3202.11	0.0004457
3211.76	0.0004913
3221.4	0.00034557
3231.05	0.00033938
3240.69	0.0003882
3250.34	0.00041871
3259.98	0.00031282
3269.63	0.0005121
3279.27	0.000203
3288.92	0.0002452
3298.56	0.0003061
3308.21	0.0004481
3317.85	0.00034662
3327.49	0.0004746
3337.14	0.000139
3346.78	0.0004301
3356.43	0.0003426
3366.07	0.0002904
3375.72	0.0005257
3385.36	0.00074
3395.01	0.0005473
3404.65	0.0004744
3414.3	0.0005909
3423.94	0.0004972
3433.59	0.0002627
3443.23	0.00039421
3452.88	0.00039756
3462.52	0.00041671
3472.17	0.00039705
3481.81	0.00039181
3491.46	0.00037194
3501.1	0.000320915
3510.75	0.0002924
3520.39	0.00041434
3530.04	0.00036709
3539.68	0.00038875
3549.32	0.0003361
3558.97	0.0003093
3568.61	0.0002835
3578.26	0.0002448
3587.9	0.0002267
3597.55	0.0002404
3607.19	0.00032156
3616.84	0.0002212
3626.48	0.0002673
3636.13	0.0002943
3645.77	0.00037744
3655.42	0.0004298
3665.06	0.0002741
3674.71	0.00040011
3684.35	0.0004286
3694	0.0004556
3703.64	0.000193
3713.29	0.00037091
3722.93	0.00033508
3732.58	0.00041072
3742.22	0.0002209
3751.86	0.0002759
3761.51	0.000202
3771.15	8.4e-05
3780.8	0.0002695
3790.44	0.000322972
3800.09	0.00041375
3809.73	0.00034984
3819.38	0.000265
3829.02	0.00031657
3838.67	0.0002806
3848.31	0.00036391
3857.96	0.000326553
3867.6	0.000324578
3877.25	3.2e-05
3886.89	0.000158
3896.54	0.0002582
3906.18	0.0003017
3915.83	0.0004855
3925.47	0
3935.12	0.0002487
3944.76	0.00040724
3954.41	0.00038883
3964.05	0.000319447
3973.69	0.00035891
3983.34	0.00033771
3992.98	0.000174
