Infrared Spectrum: 9-METHYL TRIPTYCENE
Formula: C21 H16
CAS: 793-39-5
State: SOLID (KBr PELLET)
Class: COBLENTZ
Instrument: Not specified, most likely a prism, grating, or hybrid spectrometer.
Sampling: TRANSMISSION
Resolution: 4
1/CM	TRANSMITTANCE
660.28	0.901
669.383	0.898
678.485	0.909
687.588	0.909
696.69	0.911
705.793	0.914
714.895	0.9
723.998	0.853
733.1	0.7141
742.203	0.261
751.305	0.682
760.408	0.94
769.51	0.806
778.613	0.956
787.715	0.956
796.818	0.6961
805.92	0.8017
815.023	0.987
824.125	0.992
833.228	0.978
842.33	0.942
851.433	0.906
860.535	0.965
869.638	0.964
878.74	0.971
887.843	0.967
896.945	0.951
906.048	0.956
915.15	0.939
924.253	0.9039
933.355	0.841
942.458	0.942
951.56	0.936
960.663	0.933
969.765	0.917
978.868	0.92
987.97	0.917
997.073	0.904
1006.18	0.862
1015.28	0.6611
1024.38	0.816
1033.48	0.892
1042.59	0.908
1051.69	0.895
1060.79	0.862
1069.89	0.89
1079	0.866
1088.1	0.842
1097.2	0.866
1106.3	0.85
1115.41	0.809
1124.51	0.613
1133.61	0.886
1142.71	0.827
1151.82	0.831
1160.92	0.85
1170.02	0.817
1179.12	0.736
1188.23	0.7049
1197.33	0.884
1206.43	0.894
1215.53	0.887
1224.64	0.884
1233.74	0.883
1242.84	0.869
1251.94	0.866
1261.05	0.864
1270.15	0.842
1279.25	0.777
1288.35	0.632
1297.46	0.875
1306.56	0.848
1315.66	0.841
1324.76	0.847
1333.87	0.838
1342.97	0.83
1352.07	0.808
1361.17	0.744
1370.28	0.679
1379.38	0.802
1388.48	0.8
1397.58	0.789
1406.69	0.761
1415.79	0.702
1424.89	0.697
1433.99	0.605
1443.1	0.26
1452.2	0.291
1461.3	0.57
1470.4	0.8219
1479.51	0.889
1488.61	0.864
1497.71	0.862
1506.81	0.861
1515.92	0.852
1525.02	0.85
1534.12	0.838
1543.22	0.827
1552.33	0.83
1561.43	0.816
1570.53	0.8
1579.63	0.75
1588.74	0.777
1597.84	0.766
1606.94	0.746
1616.04	0.747
1625.15	0.739
1634.25	0.739
1643.35	0.742
1652.45	0.75
1661.56	0.752
1670.66	0.753
1679.76	0.771
1688.86	0.769
1697.97	0.774
1707.07	0.78
1716.17	0.788
1725.27	0.781
1734.38	0.778
1743.48	0.791
1752.58	0.789
1761.68	0.783
1770.79	0.761
1779.89	0.769
1788.99	0.791
1798.09	0.799
1807.2	0.778
1816.3	0.778
1825.4	0.794
1834.5	0.781
1843.61	0.766
1852.71	0.781
1861.81	0.78
1870.91	0.753
1880.02	0.724
1889.12	0.752
1898.22	0.774
1907.32	0.772
1916.43	0.774
1925.53	0.766
1934.63	0.739
1943.73	0.724
1952.84	0.76
1961.94	0.772
1971.04	0.769
1980.14	0.767
1989.25	0.761
1998.35	0.755
2007.45	0.7504
2016.55	0.749
2025.66	0.747
2034.76	0.7452
2043.86	0.742
2052.96	0.742
2062.07	0.741
2071.17	0.739
2080.27	0.738
2089.37	0.736
2098.48	0.7334
2107.58	0.73
2116.68	0.73
2125.78	0.73
2134.89	0.728
2143.99	0.727
2153.09	0.725
2162.19	0.7218
2171.3	0.7201
2180.4	0.7171
2189.5	0.7132
2198.6	0.7099
2207.71	0.7047
2216.81	0.7006
2225.91	0.695
2235.01	0.6866
2244.12	0.6798
2253.22	0.6665
2262.32	0.6506
2271.42	0.647
2280.53	0.649
2289.63	0.6522
2298.73	0.6586
2307.83	0.6655
2316.94	0.668
2326.04	0.671
2335.14	0.672
2344.24	0.674
2353.35	0.675
2362.45	0.674
2371.55	0.674
2380.65	0.671
2389.76	0.6687
2398.86	0.665
2407.96	0.663
2417.06	0.663
2426.17	0.66
2435.27	0.6594
2444.37	0.658
2453.47	0.6555
2462.58	0.6541
2471.68	0.654
2480.78	0.6533
2489.88	0.652
2498.99	0.6495
2508.09	0.6471
2517.19	0.6457
2526.29	0.64
2535.4	0.6339
2544.5	0.6322
2553.6	0.6301
2562.7	0.629
2571.81	0.6283
2580.91	0.627
2590.01	0.627
2599.11	0.627
2608.22	0.627
2617.32	0.6266
2626.42	0.624
2635.52	0.623
2644.63	0.621
2653.73	0.6184
2662.83	0.6126
2671.93	0.6108
2681.04	0.6092
2690.14	0.607
2699.24	0.6048
2708.34	0.601
2717.45	0.599
2726.55	0.5982
2735.65	0.596
2744.75	0.5925
2753.86	0.59
2762.96	0.5887
2772.06	0.587
2781.16	0.582
2790.27	0.579
2799.37	0.5717
2808.47	0.5631
2817.57	0.555
2826.68	0.5488
2835.78	0.5415
2844.88	0.5356
2853.98	0.531
2863.09	0.529
2872.19	0.5239
2881.29	0.5184
2890.39	0.51
2899.5	0.5013
2908.6	0.4874
2917.7	0.4784
2926.8	0.4617
2935.91	0.4551
2945.01	0.4557
2954.11	0.4664
2963.21	0.483
2972.32	0.5
2981.42	0.4951
2990.52	0.4778
2999.62	0.4571
3008.73	0.4561
3017.83	0.4644
3026.93	0.469
3036.03	0.4613
3045.14	0.4561
3054.24	0.4576
3063.34	0.4741
3072.44	0.4982
3081.55	0.5258
3090.65	0.534
3099.75	0.5289
3108.85	0.5297
3117.96	0.5315
3127.06	0.534
3136.16	0.5311
3145.26	0.5277
3154.37	0.5223
3163.47	0.5189
3172.57	0.5142
3181.67	0.5091
3190.78	0.506
3199.88	0.5036
3208.98	0.501
3218.08	0.5
3227.19	0.4931
3236.29	0.4917
3245.39	0.49
3254.49	0.4849
3263.6	0.4794
3272.7	0.4751
3281.8	0.471
3290.9	0.4692
3300.01	0.4622
3309.11	0.4538
3318.21	0.45
3327.31	0.4416
3336.42	0.437
3345.52	0.4306
3354.62	0.4226
3363.72	0.4188
3372.83	0.4079
3381.93	0.4006
3391.03	0.3981
3400.13	0.3924
3409.24	0.387
3418.34	0.3875
3427.44	0.389
3436.54	0.389
3445.65	0.389
3454.75	0.3889
3463.85	0.3868
3472.95	0.386
3482.06	0.3866
3491.16	0.3887
3500.26	0.3921
3509.36	0.3955
3518.47	0.3989
3527.57	0.4007
3536.67	0.403
3545.77	0.4091
3554.88	0.4143
3563.98	0.4169
3573.08	0.4214
3582.18	0.4257
3591.29	0.429
3600.39	0.4316
3609.49	0.434
3618.59	0.434
3627.7	0.4331
3636.8	0.4331
3645.9	0.434
3655	0.434
3664.11	0.4346
3673.21	0.433
3682.31	0.436
3691.41	0.4354
3700.52	0.436
3709.62	0.437
3718.72	0.436
3727.82	0.4358
3736.93	0.4323
3746.03	0.4299
3755.13	0.4283
3764.23	0.428
3773.34	0.423
3782.44	0.422
3791.54	0.422
3800.64	0.4205
3809.75	0.42
3818.85	0.42
3827.95	0.42
3837.05	0.42
3846.16	0.4215
3855.26	0.4219
3864.36	0.42
3873.46	0.4196
3882.57	0.42
3891.67	0.422
3900.77	0.42
3909.87	0.42
3918.98	0.42
3928.08	0.419
3937.18	0.4174
3946.28	0.417
3955.39	0.419
3964.49	0.419
3973.59	0.417
3982.69	0.415
