Infrared Spectrum: PHOSPHONIC ACID, DI-ISOOCTYL ESTER
Formula: C16 H35 O3 P
CAS: 79373-12-9
State: LIQUID
Class: COBLENTZ
Instrument: PERKIN-ELMER
Sampling: TRANSMISSION
Path length: 0.0015 CM
Resolution: 4
Origin: STANDARD OIL OF OHIO
MICROMETERS	TRANSMITTANCE
2.02	0.952
2.05373	0.952
2.08746	0.952
2.1212	0.957
2.15493	0.957
2.18866	0.959
2.22239	0.957
2.25613	0.947
2.28986	0.933
2.32359	0.931
2.35732	0.935
2.39106	0.938
2.42479	0.94
2.45852	0.942
2.49225	0.948
2.52598	0.952
2.55972	0.954
2.59345	0.959
2.62718	0.96
2.66091	0.962
2.69465	0.96
2.72838	0.957
2.76211	0.947
2.79584	0.926
2.82958	0.899
2.86331	0.862
2.89704	0.856
2.93077	0.901
2.96451	0.923
2.99824	0.938
3.03197	0.948
3.0657	0.95
3.09943	0.947
3.13317	0.94
3.1669	0.94
3.20063	0.94
3.23436	0.935
3.2681	0.908
3.30183	0.831
3.33556	0.444
3.36929	0.1
3.40303	0.083
3.43676	0.148
3.47049	0.204
3.50422	0.579
3.53795	0.795
3.57169	0.873
3.60542	0.901
3.63915	0.908
3.67288	0.908
3.70662	0.923
3.74035	0.935
3.77408	0.936
3.80781	0.938
3.84155	0.938
3.87528	0.945
3.90901	0.95
3.94274	0.954
3.97647	0.952
4.01021	0.942
4.04394	0.913
4.07767	0.846
4.1114	0.761
4.14514	0.788
4.17887	0.838
4.2126	0.863
4.24633	0.902
4.28007	0.933
4.3138	0.948
4.34753	0.952
4.38126	0.952
4.41499	0.954
4.44873	0.957
4.48246	0.959
4.51619	0.962
4.54992	0.962
4.58366	0.962
4.61739	0.962
4.65112	0.962
4.68485	0.962
4.71859	0.962
4.75232	0.96
4.78605	0.96
4.81978	0.96
4.85352	0.962
4.88725	0.964
4.92098	0.964
4.95471	0.965
4.98844	0.965
5.02218	0.965
5.05591	0.964
5.08964	0.964
5.12337	0.962
5.15711	0.96
5.19084	0.959
5.22457	0.959
5.2583	0.955
5.29204	0.954
5.32577	0.952
5.3595	0.952
5.39323	0.952
5.42696	0.952
5.4607	0.95
5.49443	0.95
5.52816	0.948
5.56189	0.948
5.59563	0.948
5.62936	0.948
5.66309	0.947
5.69682	0.942
5.73056	0.94
5.76429	0.94
5.79802	0.94
5.83175	0.943
5.86548	0.948
5.89922	0.952
5.93295	0.952
5.96668	0.952
6.00041	0.948
6.03415	0.942
6.06788	0.94
6.10161	0.936
6.13534	0.936
6.16908	0.945
6.20281	0.95
6.23654	0.952
6.27027	0.957
6.30401	0.957
6.33774	0.957
6.37147	0.957
6.4052	0.959
6.43893	0.957
6.47267	0.954
6.5064	0.952
6.54013	0.948
6.57386	0.945
6.6076	0.938
6.64133	0.925
6.67506	0.89
6.70879	0.797
6.74253	0.601
6.77626	0.417
6.80999	0.332
6.84372	0.356
6.87745	0.57
6.91119	0.696
6.94492	0.752
6.97865	0.792
7.01238	0.836
7.04612	0.867
7.07985	0.868
7.11358	0.848
7.14731	0.705
7.18105	0.568
7.21478	0.512
7.24851	0.594
7.28224	0.625
7.31597	0.684
7.34971	0.804
7.38344	0.834
7.41717	0.848
7.4509	0.85
7.48464	0.851
7.51837	0.851
7.5521	0.841
7.58583	0.824
7.61957	0.792
7.6533	0.747
7.68703	0.7
7.72076	0.604
7.75449	0.49
7.78823	0.342
7.82196	0.201
7.85569	0.139
7.88942	0.11
7.92316	0.086
7.95689	0.109
7.99062	0.155
8.02435	0.272
8.05809	0.413
8.09182	0.546
8.12555	0.621
8.15928	0.683
8.19302	0.717
8.22675	0.749
8.26048	0.781
8.29421	0.802
8.32794	0.822
8.36168	0.839
8.39541	0.851
8.42914	0.855
8.46287	0.855
8.49661	0.843
8.53034	0.819
8.56407	0.802
8.5978	0.788
8.63154	0.77
8.66527	0.763
8.699	0.758
8.73273	0.754
8.76646	0.752
8.8002	0.754
8.83393	0.758
8.86766	0.759
8.90139	0.744
8.93513	0.732
8.96886	0.73
9.00259	0.727
9.03632	0.715
9.07006	0.674
9.10379	0.553
9.13752	0.451
9.17125	0.313
9.20498	0.233
9.23872	0.199
9.27245	0.187
9.30618	0.189
9.33991	0.192
9.37365	0.195
9.40738	0.204
9.44111	0.214
9.47484	0.226
9.50858	0.238
9.54231	0.243
9.57604	0.247
9.60977	0.25
9.64351	0.252
9.67724	0.255
9.71097	0.264
9.7447	0.272
9.77843	0.277
9.81217	0.272
9.8459	0.255
9.87963	0.228
9.91336	0.189
9.9471	0.163
9.98083	0.136
10.0146	0.112
10.0483	0.081
10.082	0.059
10.1158	0.022
10.1495	0.013
10.1832	0.01
10.217	0.008
10.2507	0.006
10.2844	0.005
10.3182	0.006
10.3519	0.01
10.3856	0.022
10.4193	0.042
10.4531	0.097
10.4868	0.155
10.5205	0.214
10.5543	0.301
10.588	0.381
10.6217	0.47
10.6555	0.562
10.6892	0.616
10.7229	0.657
10.7567	0.693
10.7904	0.708
10.8241	0.72
10.8579	0.73
10.8916	0.741
10.9253	0.749
10.9591	0.756
10.9928	0.761
11.0265	0.766
11.0603	0.773
11.094	0.781
11.1277	0.788
11.1615	0.795
11.1952	0.802
11.2289	0.812
11.2627	0.816
11.2964	0.819
11.3301	0.822
11.3639	0.826
11.3976	0.824
11.4313	0.822
11.4651	0.817
11.4988	0.81
11.5325	0.804
11.5662	0.798
11.6	0.795
11.6337	0.79
11.6674	0.785
11.7012	0.781
11.7349	0.78
11.7686	0.78
11.8024	0.781
11.8361	0.788
11.8698	0.79
11.9036	0.788
11.9373	0.788
11.971	0.79
12.0048	0.792
12.0385	0.793
12.0722	0.792
12.106	0.79
12.1397	0.788
12.1734	0.787
12.2072	0.785
12.2409	0.785
12.2746	0.785
12.3084	0.785
12.3421	0.787
12.3758	0.787
12.4096	0.785
12.4433	0.787
12.477	0.788
12.5108	0.788
12.5445	0.788
12.5782	0.792
12.6119	0.793
12.6457	0.795
12.6794	0.798
12.7131	0.8
12.7469	0.8
12.7806	0.798
12.8143	0.8
12.8481	0.8
12.8818	0.8
12.9155	0.798
12.9493	0.797
12.983	0.795
13.0167	0.793
13.0505	0.795
13.0842	0.797
13.1179	0.798
13.1517	0.804
13.1854	0.807
13.2191	0.812
13.2529	0.814
13.2866	0.819
13.3203	0.821
13.3541	0.824
13.3878	0.827
13.4215	0.827
13.4553	0.829
13.489	0.829
13.5227	0.833
13.5565	0.834
13.5902	0.838
13.6239	0.839
13.6577	0.841
13.6914	0.843
13.7251	0.846
13.7588	0.85
13.7926	0.855
13.8263	0.86
13.86	0.865
13.8938	0.875
13.9275	0.879
13.9612	0.884
13.995	0.89
14.0287	0.899
14.0624	0.902
14.0962	0.908
14.1299	0.911
14.1636	0.914
14.1974	0.919
14.2311	0.921
14.2648	0.923
14.2986	0.926
14.3323	0.928
14.366	0.928
14.3998	0.928
14.4335	0.928
14.4672	0.928
14.501	0.93
14.5347	0.93
14.5684	0.93
14.6022	0.928
14.6359	0.928
14.6696	0.93
14.7034	0.93
14.7371	0.928
14.7708	0.928
14.8046	0.928
14.8383	0.928
14.872	0.926
14.9057	0.925
14.9395	0.925
14.9732	0.923
15.0069	0.925
15.0407	0.925
15.0744	0.925
15.1081	0.923
15.1419	0.918
15.1756	0.918
15.2093	0.916
15.2431	0.916
15.2768	0.918
15.3105	0.914
15.3443	0.913
15.378	0.911
