Infrared Spectrum: p-Anisic anhydride
Formula: C 16 H 14 O 5
CAS: 794-94-5
State: gas
Origin: EPA-IR VAPOR PHASE LIBRARY
1/CM	ABSORBANCE
551.7	0.00321
563.274	0.00477
574.848	0.00891
586.421	0.01615
597.995	0.01287
609.569	0.00694
621.143	0.00476
632.717	0.00498
644.291	0.00387
655.864	0.0039
667.438	0.00523
679.012	0.0073
690.586	0.00658
702.16	0.00431
713.734	0.00337
725.307	0.00359
736.881	0.00373
748.455	0.0051
760.029	0.00939
771.603	0.00796
783.177	0.00637
794.75	0.00671
806.324	0.00809
817.898	0.00936
829.472	0.01472
841.046	0.01908
852.619	0.01114
864.193	0.00683
875.767	0.00551
887.341	0.00529
898.915	0.00548
910.489	0.00625
922.062	0.00779
933.636	0.01118
945.21	0.01857
956.784	0.03457
968.358	0.0666
979.932	0.09784
991.505	0.09208
1003.08	0.07806
1014.65	0.06938
1026.23	0.10143
1037.8	0.09252
1049.37	0.07559
1060.95	0.04836
1072.52	0.02346
1084.1	0.01341
1095.67	0.00961
1107.24	0.00883
1118.82	0.0087
1130.39	0.00826
1141.97	0.0128
1153.54	0.04671
1165.11	0.12906
1176.69	0.03756
1188.26	0.02283
1199.83	0.03369
1211.41	0.09282
1222.98	0.11343
1234.56	0.06091
1246.13	0.05275
1257.7	0.08073
1269.28	0.04477
1280.85	0.02659
1292.42	0.02329
1304	0.0259
1315.57	0.01821
1327.15	0.0113
1338.72	0.0069
1350.29	0.00532
1361.87	0.00451
1373.44	0.00406
1385.02	0.0036
1396.59	0.00376
1408.16	0.00556
1419.74	0.00809
1431.31	0.0059
1442.88	0.00905
1454.46	0.00979
1466.03	0.01261
1477.61	0.01054
1489.18	0.01041
1500.75	0.02671
1512.33	0.04467
1523.9	0.01212
1535.48	0.00599
1547.05	0.00537
1558.62	0.00667
1570.2	0.01225
1581.77	0.02484
1593.34	0.04008
1604.92	0.0753
1616.49	0.03828
1628.07	0.01272
1639.64	0.00638
1651.21	0.0048
1662.79	0.00394
1674.36	0.00349
1685.93	0.00348
1697.51	0.00391
1709.08	0.00543
1720.66	0.00917
1732.23	0.02081
1743.8	0.04915
1755.38	0.0237
1766.95	0.0159
1778.53	0.02186
1790.1	0.05205
1801.67	0.06055
1813.25	0.03067
1824.82	0.01238
1836.39	0.00609
1847.97	0.00426
1859.54	0.0036
1871.12	0.00326
1882.69	0.00313
1894.26	0.0031
1905.84	0.00334
1917.41	0.00305
1928.99	0.00272
1940.56	0.00243
1952.13	0.00234
1963.71	0.00226
1975.28	0.00216
1986.85	0.00221
1998.43	0.00217
2010	0.00214
2021.58	0.00217
2033.15	0.00224
2044.72	0.00257
2056.3	0.0028
2067.87	0.00255
2079.44	0.00211
2091.02	0.00176
2102.59	0.00152
2114.17	0.00129
2125.74	0.00111
2137.31	0.0009895
2148.89	0.0008554
2160.46	0.0008253
2172.04	0.0008302
2183.61	0.0008463
2195.18	0.0008703
2206.76	0.0009036
2218.33	0.0008963
2229.9	0.0009439
2241.48	0.0009677
2253.05	0.0009305
2264.63	0.0009405
2276.2	0.00105
2287.77	0.00115
2299.35	0.00117
2310.92	0.00106
2322.5	0.0009896
2334.07	0.0009459
2345.64	0.0008515
2357.22	0.0008072
2368.79	0.0008327
2380.36	0.0009106
2391.94	0.00106
2403.51	0.00114
2415.09	0.00127
2426.66	0.00131
2438.23	0.0012
2449.81	0.00111
2461.38	0.00118
2472.96	0.00122
2484.53	0.00129
2496.1	0.00131
2507.68	0.00141
2519.25	0.00147
2530.82	0.00143
2542.4	0.00164
2553.97	0.00205
2565.55	0.00225
2577.12	0.00195
2588.69	0.00167
2600.27	0.00148
2611.84	0.00146
2623.41	0.00141
2634.99	0.00123
2646.56	0.00111
2658.14	0.0009117
2669.71	0.0008569
2681.28	0.0008481
2692.86	0.0009079
2704.43	0.000911
2716.01	0.00102
2727.58	0.00101
2739.15	0.00108
2750.73	0.00117
2762.3	0.00138
2773.87	0.00142
2785.45	0.00137
2797.02	0.00151
2808.6	0.00184
2820.17	0.00244
2831.74	0.0036
2843.32	0.00745
2854.89	0.00812
2866.47	0.00397
2878.04	0.00323
2889.61	0.00347
2901.19	0.00448
2912.76	0.00654
2924.33	0.00734
2935.91	0.00828
2947.48	0.01205
2959.06	0.01132
2970.63	0.00926
2982.2	0.00577
2993.78	0.00507
3005.35	0.00789
3016.92	0.01115
3028.5	0.00444
3040.07	0.00325
3051.65	0.0033
3063.22	0.00334
3074.79	0.00416
3086.37	0.00471
3097.94	0.00324
3109.52	0.00288
3121.09	0.00205
3132.66	0.00169
3144.24	0.00144
3155.81	0.00144
3167.38	0.00132
3178.96	0.00109
3190.53	0.00108
3202.11	0.00111
3213.68	0.00106
3225.25	0.0009761
3236.83	0.0009468
3248.4	0.0009091
3259.98	0.0008395
3271.55	0.0007958
3283.12	0.0007966
3294.7	0.0008505
3306.27	0.0008498
3317.84	0.0008894
3329.42	0.0008769
3340.99	0.0009928
3352.57	0.0009429
3364.14	0.0008782
3375.71	0.0009064
3387.29	0.0009019
3398.86	0.000947
3410.43	0.0008821
3422.01	0.0009196
3433.58	0.0009122
3445.16	0.0009637
3456.73	0.00108
3468.3	0.00126
3479.88	0.00136
3491.45	0.00128
3503.03	0.00119
3514.6	0.0012
3526.17	0.00119
3537.75	0.00122
3549.32	0.00105
3560.89	0.00121
3572.47	0.00125
3584.04	0.00136
3595.62	0.00127
3607.19	0.00115
3618.76	0.00101
3630.34	0.0009526
3641.91	0.0008825
3653.49	0.0008989
3665.06	0.0009864
3676.63	0.000919
3688.21	0.0009667
3699.78	0.0009286
3711.35	0.0008873
3722.93	0.000873
3734.5	0.00103
3746.08	0.0009583
3757.65	0.0009233
3769.22	0.000927
3780.8	0.0009624
3792.37	0.0008638
3803.94	0.0008685
3815.52	0.0009245
3827.09	0.0009389
3838.67	0.0009242
3850.24	0.001
3861.81	0.00104
3873.39	0.00103
3884.96	0.00104
3896.54	0.00103
3908.11	0.0009724
3919.68	0.0009579
3931.26	0.0009932
3942.83	0.0009645
3954.4	0.00107
3965.98	0.001
3977.55	0.001
3989.13	0.00108
4000.7	0.00103
