Infrared Spectrum: Beta-Alanine, N-benzyl-N-carboxymethyl, diethyl ester
Formula: C16 H23 N O4
CAS: 795-18-6
State: SOLUTION (10% CCl4 FOR 3800-1335, 10% CS2 FOR 1335-400 CM^-^1)
Boiling point: 147 C AT 0.3 mmHg
Class: COBLENTZ III
Instrument: BECKMAN IR-9 (GRATING)
Instrument parameters: ORDER CHANGES: 670, 1200, 2000 CM^-^1
Sampling: TRANSMISSION
Path length: 0.011 CM, 0.011 CM
Resolution: 2
Origin: DOW CHEMICAL COMPANY
1/CM	TRANSMITTANCE
3800	0.9175
3791	0.9193
3782	0.9189
3773	0.9203
3764	0.9196
3755	0.9193
3746	0.9188
3737	0.9191
3728	0.918
3719	0.9153
3710	0.9112
3701	0.9042
3692	0.9007
3683	0.9
3674	0.9023
3665	0.9025
3656	0.9023
3647	0.9014
3638	0.9003
3629	0.899
3620	0.8995
3611	0.899
3602	0.8955
3593	0.8875
3584	0.8838
3575	0.8791
3566	0.8738
3557	0.8694
3548	0.8681
3539	0.8658
3530	0.865
3521	0.8612
3512	0.8579
3503	0.8528
3494	0.8447
3485	0.8334
3476	0.8235
3467	0.8159
3458	0.8144
3449	0.8162
3440	0.823
3431	0.8352
3422	0.8377
3413	0.8386
3404	0.8397
3395	0.8397
3386	0.8397
3377	0.84
3368	0.8404
3359	0.8407
3350	0.841
3341	0.8425
3332	0.8458
3323	0.8518
3314	0.8561
3305	0.8606
3296	0.8625
3287	0.8641
3278	0.8664
3269	0.8677
3260	0.8682
3251	0.8685
3242	0.8692
3233	0.8692
3224	0.8691
3215	0.869
3206	0.8675
3197	0.8678
3188	0.8679
3179	0.8662
3170	0.8652
3161	0.8648
3152	0.8634
3143	0.8603
3134	0.8592
3125	0.8549
3116	0.8345
3107	0.8292
3098	0.8235
3089	0.7215
3080	0.7641
3071	0.6806
3062	0.6709
3053	0.7416
3044	0.7454
3035	0.5562
3026	0.6041
3017	0.6772
3008	0.5507
2999	0.4032
2990	0.2562
2981	0.278
2972	0.4169
2963	0.4453
2954	0.4861
2945	0.4246
2936	0.4171
2927	0.4648
2918	0.4691
2909	0.4552
2900	0.5316
2891	0.5885
2882	0.5869
2873	0.5284
2864	0.5394
2855	0.5368
2846	0.5674
2837	0.5863
2828	0.6041
2819	0.6273
2810	0.6515
2801	0.6868
2792	0.7241
2783	0.7647
2774	0.7958
2765	0.8079
2756	0.8153
2747	0.8196
2738	0.8201
2729	0.8219
2720	0.8284
2711	0.8362
2702	0.8457
2693	0.8542
2684	0.8604
2675	0.866
2666	0.8693
2657	0.8734
2648	0.8759
2639	0.8775
2630	0.8801
2621	0.8824
2612	0.8829
2603	0.8836
2594	0.8859
2585	0.8896
2576	0.8932
2567	0.8965
2558	0.8982
2549	0.8993
2540	0.9006
2531	0.9015
2522	0.9024
2513	0.9034
2504	0.9038
2495	0.9041
2486	0.9046
2477	0.9062
2468	0.9066
2459	0.9069
2450	0.9063
2441	0.9074
2432	0.906
2423	0.9045
2414	0.9031
2405	0.903
2396	0.9015
2387	0.9012
2378	0.8981
2369	0.8934
2360	0.8934
2351	0.8963
2342	0.8962
2333	0.8968
2324	0.9022
2315	0.9039
2306	0.9061
2297	0.9096
2288	0.9103
2279	0.9103
2270	0.9093
2261	0.909
2252	0.9092
2243	0.909
2234	0.9102
2225	0.9115
2216	0.9113
2207	0.9123
2198	0.9134
2189	0.9131
2180	0.9141
2171	0.9167
2162	0.9163
2153	0.9162
2144	0.916
2135	0.9155
2126	0.9132
2117	0.9109
2108	0.9085
2099	0.9063
2090	0.904
2081	0.9017
2072	0.8996
2063	0.8983
2054	0.8985
2045	0.8965
2036	0.897
2027	0.8997
2018	0.9013
2009	0.9019
2000	0.9001
1991	0.8975
1982	0.8957
1973	0.8854
1964	0.8796
1955	0.8706
1946	0.8735
1937	0.8899
1928	0.89
1919	0.8888
1910	0.8828
1901	0.8732
1892	0.8645
1883	0.8586
1874	0.8621
1865	0.8727
1856	0.8727
1847	0.8661
1838	0.8547
1829	0.8397
1820	0.8216
1811	0.7971
1802	0.7942
1793	0.7749
1784	0.7257
1775	0.6392
1766	0.4594
1757	0.0681
1748	0
1739	0.0001
1730	0.0211
1721	0.1867
1712	0.4197
1703	0.5429
1694	0.5967
1685	0.6548
1676	0.6968
1667	0.7287
1658	0.7555
1649	0.7754
1640	0.794
1631	0.802
1622	0.7866
1613	0.7768
1604	0.7204
1595	0.7352
1586	0.7314
1577	0.7433
1568	0.6907
1559	0.6739
1550	0.7309
1541	0.7872
1532	0.7845
1523	0.7907
1514	0.7948
1505	0.7753
1496	0.5064
1487	0.6984
1478	0.5375
1469	0.4713
1460	0.3524
1451	0.3804
1442	0.4961
1433	0.5456
1424	0.5169
1415	0.4775
1406	0.554
1397	0.4729
1388	0.4282
1379	0.3406
1370	0.2125
1361	0.5079
1352	0.4635
1343	0.4388
1334	0.4706
1325	0.4399
1316	0.4437
1307	0.405
1298	0.3668
1289	0.4191
1280	0.4015
1271	0.3334
1262	0.2616
1253	0.1928
1244	0.2033
1235	0.2294
1226	0.2293
1217	0.2093
1208	0.1444
1199	0.0563
1190	0.0087
1181	0.0027
1172	0.0336
1163	0.0752
1154	0.1006
1145	0.1267
1136	0.1828
1127	0.2497
1118	0.2842
1109	0.3389
1100	0.4206
1091	0.4653
1082	0.6376
1073	0.4723
1064	0.572
1055	0.381
1046	0.295
1037	0.2848
1028	0.1027
1019	0.2933
1010	0.532
1001	0.624
992	0.5614
983	0.5592
974	0.6056
965	0.6708
956	0.6937
947	0.7268
938	0.7459
929	0.7764
920	0.7632
911	0.7203
902	0.7667
893	0.817
884	0.8126
875	0.8201
866	0.7432
857	0.6908
848	0.726
839	0.837
830	0.8395
821	0.8179
812	0.809
803	0.7916
794	0.7983
785	0.8113
776	0.8359
767	0.8203
758	0.7464
749	0.6199
740	0.3005
731	0.3428
722	0.5391
713	0.6445
704	0.566
695	0.2198
686	0.7993
677	0.8723
668	0.8874
659	0.8929
650	0.8442
641	0.8682
632	0.8771
623	0.8611
614	0.8143
605	0.8023
596	0.8637
587	0.8634
578	0.8642
569	0.8863
560	0.9048
551	0.8982
542	0.8868
533	0.8781
524	0.8684
515	0.8573
506	0.8458
497	0.8075
488	0.7746
479	0.7552
470	0.737
461	0.72
452	0.6984
443	0.6635
434	0.5935
425	0.4336
416	0.2639
407	0.074
