Infrared Spectrum: 2,4,6-Trifluorobenzoyl chloride
Formula: C 7 H 2 Cl F 3 O
CAS: 79538-29-7
State: gas
Origin: EPA-IR VAPOR PHASE LIBRARY
1/CM	ABSORBANCE
549.8	0.010819
559.445	0.011459
569.09	0.011869
578.734	0.014869
588.379	0.029359
598.024	0.080379
607.669	0.069559
617.313	0.032629
626.958	0.065509
636.603	0.037119
646.248	0.008469
655.893	0.004759
665.537	0.004269
675.182	0.004629
684.827	0.003279
694.472	0.003179
704.116	0.002589
713.761	0.001729
723.406	0.0014377
733.051	0.002369
742.695	0.002289
752.34	0.0012897
761.985	0.002189
771.63	0.002249
781.275	0.003259
790.919	0.004279
800.564	0.005939
810.209	0.008739
819.854	0.010259
829.498	0.022669
839.143	0.065869
848.788	0.125239
858.433	0.177709
868.078	0.220659
877.722	0.128859
887.367	0.053049
897.012	0.031029
906.657	0.017359
916.301	0.011569
925.946	0.009919
935.591	0.010349
945.236	0.009669
954.88	0.007289
964.525	0.005449
974.17	0.004389
983.815	0.006909
993.46	0.033099
1003.1	0.054139
1012.75	0.021569
1022.39	0.010919
1032.04	0.019419
1041.68	0.059269
1051.33	0.104299
1060.97	0.067999
1070.62	0.015539
1080.26	0.010389
1089.91	0.008669
1099.55	0.006229
1109.2	0.011699
1118.84	0.052499
1128.49	0.190079
1138.13	0.143159
1147.78	0.026659
1157.42	0.029359
1167.07	0.055949
1176.71	0.067259
1186.36	0.098729
1196	0.150239
1205.64	0.082889
1215.29	0.019079
1224.93	0.012129
1234.58	0.009059
1244.22	0.006019
1253.87	0.004999
1263.51	0.005349
1273.16	0.006849
1282.8	0.006299
1292.45	0.005929
1302.09	0.005029
1311.74	0.005339
1321.38	0.006259
1331.03	0.006169
1340.67	0.005449
1350.32	0.008569
1359.96	0.019739
1369.61	0.016529
1379.25	0.004239
1388.9	0.003449
1398.54	0.004889
1408.18	0.009719
1417.83	0.022199
1427.47	0.047539
1437.12	0.084599
1446.76	0.106639
1456.41	0.075409
1466.05	0.033079
1475.7	0.021369
1485.34	0.024729
1494.99	0.035869
1504.63	0.023459
1514.28	0.013919
1523.92	0.010409
1533.57	0.009319
1543.21	0.010079
1552.86	0.013299
1562.5	0.018269
1572.15	0.027929
1581.79	0.058229
1591.44	0.125609
1601.08	0.188849
1610.73	0.150889
1620.37	0.119879
1630.01	0.229099
1639.66	0.221359
1649.3	0.073769
1658.95	0.034299
1668.59	0.022969
1678.24	0.017009
1687.88	0.014419
1697.53	0.014849
1707.17	0.019619
1716.82	0.022709
1726.46	0.026659
1736.11	0.025659
1745.75	0.023439
1755.4	0.026499
1765.04	0.036769
1774.69	0.050959
1784.33	0.084159
1793.98	0.174729
1803.62	0.202699
1813.27	0.102279
1822.91	0.039969
1832.55	0.022509
1842.2	0.015779
1851.84	0.009399
1861.49	0.006869
1871.13	0.005759
1880.78	0.003829
1890.42	0.002849
1900.07	0.002319
1909.71	0.002079
1919.36	0.001999
1929	0.001949
1938.65	0.001919
1948.29	0.001739
1957.94	0.001639
1967.58	0.001709
1977.23	0.001669
1986.87	0.001699
1996.52	0.001799
2006.16	0.002249
2015.81	0.001659
2025.45	0.001709
2035.1	0.001789
2044.74	0.001809
2054.38	0.001989
2064.03	0.002019
2073.67	0.001709
2083.32	0.001629
2092.96	0.0012943
2102.61	0.0014333
2112.25	0.001335
2121.9	0.0015894
2131.54	0.002009
2141.19	0.001639
2150.83	0.001639
2160.48	0.002149
2170.12	0.003139
2179.77	0.003089
2189.41	0.002519
2199.06	0.002489
2208.7	0.002659
2218.35	0.002269
2227.99	0.001554
2237.64	0.001689
2247.28	0.0015964
2256.92	0.001699
2266.57	0.0014534
2276.21	0.0012418
2285.86	0.0009887
2295.5	0.0010817
2305.15	0.0011742
2314.79	0.0012044
2324.44	0.0012128
2334.08	0.0013755
2343.73	0.0012928
2353.37	0.002069
2363.02	0.002029
2372.66	0.002189
2382.31	0.002159
2391.95	0.002779
2401.6	0.003149
2411.24	0.002979
2420.89	0.002349
2430.53	0.001759
2440.18	0.0012494
2449.82	0.0010503
2459.47	0.0014693
2469.11	0.002069
2478.75	0.003069
2488.4	0.004489
2498.04	0.003499
2507.69	0.001739
2517.33	0.001769
2526.98	0.001659
2536.62	0.001649
2546.27	0.002059
2555.91	0.001929
2565.56	0.001939
2575.2	0.002169
2584.85	0.002059
2594.49	0.001609
2604.14	0.0015272
2613.78	0.001497
2623.43	0.001789
2633.07	0.0013324
2642.72	0.0013779
2652.36	0.0012169
2662.01	0.0014745
2671.65	0.001849
2681.29	0.0015956
2690.94	0.001365
2700.58	0.0013217
2710.23	0.002039
2719.87	0.002089
2729.52	0.002469
2739.16	0.001839
2748.81	0.002099
2758.45	0.001669
2768.1	0.002009
2777.74	0.001553
2787.39	0.001869
2797.03	0.0015828
2806.68	0.0011521
2816.32	0.0014658
2825.97	0.0013602
2835.61	0.0009498
2845.26	0.0013314
2854.9	0.0009606
2864.55	0.0008691
2874.19	0.0010015
2883.84	0.00070537
2893.48	0.00067673
2903.12	0.0008037
2912.77	0.0013684
2922.41	0.0013849
2932.06	0.0010767
2941.7	0.0010379
2951.35	0.0012715
2960.99	0.0009848
2970.64	0.0012703
2980.28	0.0008243
2989.93	0.0009701
2999.57	0.0010478
3009.22	0.0009815
3018.86	0.00067381
3028.51	0.000303
3038.15	0.000751
3047.8	0.0010627
3057.44	0.0008102
3067.09	0.001909
3076.73	0.002219
3086.38	0.003079
3096.02	0.003089
3105.67	0.005179
3115.31	0.004739
3124.95	0.002389
3134.6	0.0008145
3144.24	0.0011984
3153.89	0.0008977
3163.53	0.0009652
3173.18	0.0010397
3182.82	0.0012405
3192.47	0.0010631
3202.11	0.001226
3211.76	0.0015417
3221.4	0.0011904
3231.05	0.0012215
3240.69	0.0012578
3250.34	0.00125
3259.98	0.0015696
3269.63	0.0009641
3279.27	0.0016006
3288.92	0.0010827
3298.56	0.0013697
3308.21	0.0012713
3317.85	0.0011986
3327.49	0.0010345
3337.14	0.0011885
3346.78	0.00063823
3356.43	0.000807
3366.07	0.0012237
3375.72	0.0007311
3385.36	0.00076
3395.01	0.00068166
3404.65	0.00095
3414.3	0.0012573
3423.94	0.0009329
3433.59	0.000422
3443.23	0.0012455
3452.88	0.0015525
3462.52	0.0012761
3472.17	0.0008152
3481.81	0.0008014
3491.46	0.0014885
3501.1	0.0015921
3510.75	0.002179
3520.39	0.002189
3530.04	0.002329
3539.68	0.002219
3549.32	0.002079
3558.97	0.002109
3568.61	0.002459
3578.26	0.003359
3587.9	0.002759
3597.55	0.002689
3607.19	0.002389
3616.84	0.001829
3626.48	0.0013575
3636.13	0.0010386
3645.77	0.0013167
3655.42	0.0012874
3665.06	0.0013806
3674.71	0
3684.35	0.0013573
3694	0.0007339
3703.64	0.0009398
3713.29	0.0009793
3722.93	0.0010632
3732.58	0.000215
3742.22	0.0005754
3751.86	0.0005708
3761.51	0.0005133
3771.15	0.0011209
3780.8	0.0011933
3790.44	0.0010675
3800.09	0.0007554
3809.73	0.0009293
3819.38	0.0009336
3829.02	0.0010413
3838.67	0.0012743
3848.31	0.0005604
3857.96	0.0005382
3867.6	0.0013349
3877.25	0.000509
3886.89	0.0009502
3896.54	0.0011358
3906.18	0.000333
3915.83	0.001217
3925.47	0.0007247
3935.12	0.0008547
3944.76	0.0011669
3954.41	0.0009352
3964.05	0.0014087
3973.69	0.0012416
3983.34	0.0013586
3992.98	0.0011519
