Infrared Spectrum: 3,5-Difluorobenzyl alcohol
Formula: C 7 H 6 F 2 O
CAS: 79538-20-8
State: gas
Origin: EPA-IR VAPOR PHASE LIBRARY
1/CM	ABSORBANCE
549.8	0.0099
559.445	0.01095
569.09	0.00775
578.734	0.00458
588.379	0.00269
598.024	0.00243
607.669	0.00247
617.313	0.00421
626.958	0.00729
636.603	0.01446
646.248	0.01873
655.893	0.0201
665.537	0.02164
675.182	0.02047
684.827	0.01998
694.472	0.0181
704.116	0.01346
713.761	0.00854
723.406	0.00532
733.051	0.00312
742.695	0.00246
752.34	0.00195
761.985	0.00202
771.63	0.00168
781.275	0.00232
790.919	0.00238
800.564	0.00285
810.209	0.00456
819.854	0.00697
829.498	0.01451
839.143	0.04845
848.788	0.10233
858.433	0.07858
868.078	0.04109
877.722	0.01609
887.367	0.01052
897.012	0.00778
906.657	0.0085
916.301	0.01094
925.946	0.01583
935.591	0.02653
945.236	0.04795
954.88	0.0654
964.525	0.0658
974.17	0.05871
983.815	0.06469
993.46	0.07587
1003.1	0.07144
1012.75	0.05261
1022.39	0.0404
1032.04	0.03928
1041.68	0.04384
1051.33	0.04512
1060.97	0.03933
1070.62	0.02883
1080.26	0.02132
1089.91	0.01889
1099.55	0.02438
1109.2	0.07843
1118.84	0.19019
1128.49	0.19762
1138.13	0.05732
1147.78	0.01691
1157.42	0.01248
1167.07	0.01324
1176.71	0.01397
1186.36	0.01579
1196	0.01503
1205.64	0.01449
1215.29	0.013
1224.93	0.0128
1234.58	0.01293
1244.22	0.01332
1253.87	0.0134
1263.51	0.0138
1273.16	0.01445
1282.8	0.01642
1292.45	0.02266
1302.09	0.04089
1311.74	0.08435
1321.38	0.12008
1331.03	0.09343
1340.67	0.04503
1350.32	0.03138
1359.96	0.03782
1369.61	0.047
1379.25	0.04573
1388.9	0.0351
1398.54	0.02693
1408.18	0.02442
1417.83	0.02864
1427.47	0.05179
1437.12	0.08374
1446.76	0.09912
1456.41	0.10993
1466.05	0.11009
1475.7	0.07073
1485.34	0.03275
1494.99	0.01846
1504.63	0.01744
1514.28	0.01718
1523.92	0.01508
1533.57	0.01227
1543.21	0.01174
1552.86	0.01388
1562.5	0.02075
1572.15	0.04241
1581.79	0.09026
1591.44	0.1426
1601.08	0.15582
1610.73	0.14679
1620.37	0.17567
1630.01	0.14349
1639.66	0.06772
1649.3	0.03028
1658.95	0.01806
1668.59	0.01414
1678.24	0.01292
1687.88	0.01105
1697.53	0.00816
1707.17	0.00557
1716.82	0.00428
1726.46	0.00373
1736.11	0.00335
1745.75	0.0025
1755.4	0.00198
1765.04	0.00172
1774.69	0.00159
1784.33	0.00154
1793.98	0.0011582
1803.62	0.0011144
1813.27	0.0011792
1822.91	0.0011488
1832.55	0.0009268
1842.2	0.00118
1851.84	0.0009479
1861.49	0.0010415
1871.13	0.000937
1880.78	0.0009944
1890.42	0.0008133
1900.07	0.0006356
1909.71	0.0006225
1919.36	0.0008185
1929	0.0008774
1938.65	0.0010485
1948.29	0.0010065
1957.94	0.00143
1967.58	0.00156
1977.23	0.00162
1986.87	0.00145
1996.52	0.00162
2006.16	0.00137
2015.81	0.00127
2025.45	0.0009583
2035.1	0.0010843
2044.74	0.00133
2054.38	0.00159
2064.03	0.00155
2073.67	0.00217
2083.32	0.00237
2092.96	0.00259
2102.61	0.00244
2112.25	0.00233
2121.9	0.00218
2131.54	0.00177
2141.19	0.00149
2150.83	0.0013
2160.48	0.0010996
2170.12	0.0010874
2179.77	0.0011638
2189.41	0.0011427
2199.06	0.0009091
2208.7	0.0005321
2218.35	0.0009778
2227.99	0.0009811
2237.64	0.00144
2247.28	0.00155
2256.92	0.00182
2266.57	0.00182
2276.21	0.0015
2285.86	0.00146
2295.5	0.00143
2305.15	0.00146
2314.79	0.00171
2324.44	0.00153
2334.08	0.00151
2343.73	0.00141
2353.37	0.00131
2363.02	0.00129
2372.66	0.00125
2382.31	0.00126
2391.95	0.00146
2401.6	0.0017
2411.24	0.00212
2420.89	0.0027
2430.53	0.00321
2440.18	0.00376
2449.82	0.00308
2459.47	0.00231
2469.11	0.00158
2478.75	0.00136
2488.4	0.0011597
2498.04	0.0010037
2507.69	0.0010608
2517.33	0.0011655
2526.98	0.001055
2536.62	0.0011444
2546.27	0.00132
2555.91	0.0011462
2565.56	0.00144
2575.2	0.00166
2584.85	0.00164
2594.49	0.00182
2604.14	0.00151
2613.78	0.00125
2623.43	0.0010211
2633.07	0.0010978
2642.72	0.00153
2652.36	0.00128
2662.01	0.0011473
2671.65	0.00142
2681.29	0.00172
2690.94	0.00173
2700.58	0.0016
2710.23	0.00157
2719.87	0.00186
2729.52	0.00174
2739.16	0.00187
2748.81	0.00218
2758.45	0.00231
2768.1	0.00253
2777.74	0.00286
2787.39	0.00357
2797.03	0.00312
2806.68	0.00375
2816.32	0.00421
2825.97	0.00471
2835.61	0.00621
2845.26	0.0081
2854.9	0.01078
2864.55	0.01415
2874.19	0.0191
2883.84	0.02354
2893.48	0.02365
2903.12	0.02155
2912.77	0.02101
2922.41	0.021
2932.06	0.02133
2941.7	0.01983
2951.35	0.01725
2960.99	0.01448
2970.64	0.01051
2980.28	0.00746
2989.93	0.00498
2999.57	0.00331
3009.22	0.0021
3018.86	0.00173
3028.51	0.0010182
3038.15	0.00131
3047.8	0.00202
3057.44	0.00244
3067.09	0.00315
3076.73	0.00299
3086.38	0.00327
3096.02	0.00288
3105.67	0.00253
3115.31	0.00151
3124.95	0.0008965
3134.6	0.0005461
3144.24	0.0007672
3153.89	0.0008
3163.53	0.0007391
3173.18	0.000925
3182.82	0.000898
3192.47	0.0011656
3202.11	0.0011695
3211.76	0.0005527
3221.4	0.0006043
3231.05	0.0009626
3240.69	0.0007371
3250.34	0.0003101
3259.98	0.0009613
3269.63	0.0003302
3279.27	0.0004889
3288.92	0.000681
3298.56	0.0005789
3308.21	0.000575
3317.85	0.0004418
3327.49	0.0007563
3337.14	0.0007959
3346.78	0.0009949
3356.43	0.0003928
3366.07	0.0004927
3375.72	0.0005855
3385.36	0.0010331
3395.01	0.00139
3404.65	0.0008418
3414.3	0.0009729
3423.94	0.0011158
3433.59	0.0012
3443.23	0.0009943
3452.88	0.0011045
3462.52	0.00138
3472.17	0.00121
3481.81	0.00127
3491.46	0.0013
3501.1	0.0007878
3510.75	0.0007459
3520.39	0.00119
3530.04	0.0009259
3539.68	0.0008611
3549.32	0.0008307
3558.97	0.0010956
3568.61	0.00171
3578.26	0.00217
3587.9	0.00178
3597.55	0.00248
3607.19	0.00315
3616.84	0.00405
3626.48	0.00619
3636.13	0.00924
3645.77	0.01511
3655.42	0.0197
3665.06	0.02002
3674.71	0.01598
3684.35	0.01105
3694	0.00751
3703.64	0.00472
3713.29	0.00294
3722.93	0.00219
3732.58	0.00222
3742.22	0.00141
3751.86	0.00134
3761.51	0.0010982
3771.15	0.00145
3780.8	0.0011144
3790.44	0.0014
3800.09	0.00146
3809.73	0.00139
3819.38	0.0006448
3829.02	0.0011033
3838.67	0.00135
3848.31	0.00143
3857.96	0.00162
3867.6	0.0011345
3877.25	0.00152
3886.89	0.00142
3896.54	0.00125
3906.18	0.00157
3915.83	0.00122
3925.47	0.00127
3935.12	0.0016
3944.76	0.0010969
3954.41	0
3964.05	0.0007016
3973.69	0.0005844
3983.34	0.0005741
3992.98	0.00137
