Infrared Spectrum: 2-Fluoro-6-iodobezonitrile
Formula: C 7 H 3 F I N
CAS: 79544-29-9
State: gas
Origin: EPA-IR VAPOR PHASE LIBRARY
1/CM	ABSORBANCE
549.8	0.0014347
559.445	0.00458
569.09	0.00418
578.734	0.00303
588.379	0.00213
598.024	0.001563
607.669	0.0019198
617.313	0.0013935
626.958	0.0021
636.603	0.0024
646.248	0.0018129
655.893	0.0015537
665.537	0.0011968
675.182	0.0013303
684.827	0.0014583
694.472	0.0016963
704.116	0.0036
713.761	0.00753
723.406	0.0097
733.051	0.00469
742.695	0.00232
752.34	0.0037
761.985	0.00799
771.63	0.02113
781.275	0.04515
790.919	0.01648
800.564	0.00388
810.209	0.00279
819.854	0.00231
829.498	0.0027
839.143	0.00353
848.788	0.00605
858.433	0.03019
868.078	0.05276
877.722	0.01678
887.367	0.00686
897.012	0.00373
906.657	0.00256
916.301	0.0018416
925.946	0.0014621
935.591	0.00249
945.236	0.0018533
954.88	0.00273
964.525	0.00248
974.17	0.0019285
983.815	0.0012469
993.46	0.0014916
1003.1	0.0012506
1012.75	0.0017634
1022.39	0.0013174
1032.04	0.0014811
1041.68	0.00196
1051.33	0.00251
1060.97	0.00235
1070.62	0.0015049
1080.26	0.001356
1089.91	0.00225
1099.55	0.000674
1109.2	0.00321
1118.84	0.00229
1128.49	0.00358
1138.13	0.00352
1147.78	0.0024
1157.42	0.00397
1167.07	0.00551
1176.71	0.00416
1186.36	0.00276
1196	0.00338
1205.64	0.00487
1215.29	0.00222
1224.93	0.00345
1234.58	0.00391
1244.22	0.00951
1253.87	0.02876
1263.51	0.04301
1273.16	0.02346
1282.8	0.0069
1292.45	0.00498
1302.09	0.00313
1311.74	0.00216
1321.38	0.0022
1331.03	0.00226
1340.67	0.00223
1350.32	0.00201
1359.96	0.0018645
1369.61	0.00212
1379.25	0.00219
1388.9	0.0019366
1398.54	0.00196
1408.18	0.0024
1417.83	0.00412
1427.47	0.01047
1437.12	0.0264
1446.76	0.05513
1456.41	0.06856
1466.05	0.03296
1475.7	0.00613
1485.34	0.0034
1494.99	0.00422
1504.63	0.00539
1514.28	0.0047
1523.92	0.00376
1533.57	0.00338
1543.21	0.00539
1552.86	0.01619
1562.5	0.04664
1572.15	0.04722
1581.79	0.02145
1591.44	0.02425
1601.08	0.01396
1610.73	0.00423
1620.37	0.00314
1630.01	0.00321
1639.66	0.00278
1649.3	0.00232
1658.95	0.0026
1668.59	0.00263
1678.24	0.00207
1687.88	0.0016716
1697.53	0.0015608
1707.17	0.0012743
1716.82	0.0010832
1726.46	0.0012706
1736.11	0.0014049
1745.75	0.0015804
1755.4	0.0015525
1765.04	0.0018096
1774.69	0.00206
1784.33	0.0017686
1793.98	0.001509
1803.62	0.0011392
1813.27	0.0013322
1822.91	0.0013505
1832.55	0.0015774
1842.2	0.0017094
1851.84	0.00258
1861.49	0.00199
1871.13	0.0012769
1880.78	0.0013121
1890.42	0.0012224
1900.07	0.0012302
1909.71	0.0012292
1919.36	0.0016082
1929	0.00261
1938.65	0.00253
1948.29	0.0017725
1957.94	0.0012578
1967.58	0.0012818
1977.23	0.0011919
1986.87	0.0011314
1996.52	0.0011471
2006.16	0.001311
2015.81	0.0012584
2025.45	0.0013504
2035.1	0.0011687
2044.74	0.0011571
2054.38	0.0011143
2064.03	0.00099972
2073.67	0.00103016
2083.32	0.00104901
2092.96	0.0012401
2102.61	0.001314
2112.25	0.0013671
2121.9	0.0017084
2131.54	0.0016163
2141.19	0.0012305
2150.83	0.0011331
2160.48	0.00103698
2170.12	0.0012601
2179.77	0.0010988
2189.41	0.000955069
2199.06	0.0011276
2208.7	0.0012403
2218.35	0.001382
2227.99	0.0014275
2237.64	0.0017347
2247.28	0.0016004
2256.92	0.0012613
2266.57	0.0011827
2276.21	0.0013895
2285.86	0.0008853
2295.5	0.0011914
2305.15	0.0015194
2314.79	0.001531
2324.44	0.0016171
2334.08	0.0013018
2343.73	0.0011432
2353.37	0.0011937
2363.02	0.00104218
2372.66	0.0011428
2382.31	0.00104538
2391.95	0.00135
2401.6	0.0013486
2411.24	0.0012056
2420.89	0.0012918
2430.53	0.0015102
2440.18	0.0012941
2449.82	0.0013549
2459.47	0.0012789
2469.11	0.0011398
2478.75	0.00100301
2488.4	0.00104846
2498.04	0.0011208
2507.69	0.0013133
2517.33	0.0017868
2526.98	0.0014895
2536.62	0.001441
2546.27	0.0012116
2555.91	0.001095
2565.56	0.0011569
2575.2	0.001305
2584.85	0.0012385
2594.49	0.00100823
2604.14	0.00097347
2613.78	0.00136
2623.43	0.0012115
2633.07	0.001182
2642.72	0.00099218
2652.36	0.00094572
2662.01	0.00063
2671.65	0.00096434
2681.29	0.0011531
2690.94	0.0012542
2700.58	0.0013655
2710.23	0.0014825
2719.87	0.0013764
2729.52	0.0010683
2739.16	0.00104151
2748.81	0.00104695
2758.45	0.00094876
2768.1	0.0008871
2777.74	0.00104795
2787.39	0.00102708
2797.03	0.000771
2806.68	0.00103801
2816.32	0.0011087
2825.97	0.0014011
2835.61	0.0011993
2845.26	0.0008544
2854.9	0.0011678
2864.55	0.0011122
2874.19	0.0008516
2883.84	0.0008583
2893.48	0.000776
2903.12	0.0012019
2912.77	0.0011025
2922.41	0.0009224
2932.06	0.00094012
2941.7	0.0009073
2951.35	0.000738
2960.99	0.0011598
2970.64	0.000804
2980.28	0.00099966
2989.93	0.0011656
2999.57	0.0011147
3009.22	0.0011836
3018.86	0.0014622
3028.51	0.0013224
3038.15	0.0010961
3047.8	0.00104567
3057.44	0.001563
3067.09	0.00312
3076.73	0.00319
3086.38	0.00216
3096.02	0.0017775
3105.67	0.0012671
3115.31	0.0012272
3124.95	0.0015057
3134.6	0.0012791
3144.24	0.0012335
3153.89	0.0011518
3163.53	0.0009387
3173.18	0.0013724
3182.82	0.0012242
3192.47	0.00096928
3202.11	0.0011727
3211.76	0.0011055
3221.4	0.0011791
3231.05	0.0012123
3240.69	0.000816
3250.34	0.00104311
3259.98	0.000734
3269.63	0.000644
3279.27	0.000519
3288.92	0.000694
3298.56	0.0011505
3308.21	0.0010868
3317.85	0.0010651
3327.49	0.000829
3337.14	0.0009062
3346.78	0.000773
3356.43	0.000903
3366.07	0.0012615
3375.72	0.00099074
3385.36	0.0011525
3395.01	0.0015393
3404.65	0.0011109
3414.3	0.00104409
3423.94	0.0013775
3433.59	0.00098743
3443.23	0.000766
3452.88	0.00100028
3462.52	0.0012268
3472.17	0.0010993
3481.81	0.0012689
3491.46	0.0013583
3501.1	0.0009054
3510.75	0.0011155
3520.39	0.00096705
3530.04	0.0011612
3539.68	0.0014538
3549.32	0.00096189
3558.97	0.0011709
3568.61	0.00094606
3578.26	0.0010242
3587.9	0.001248
3597.55	0.0009188
3607.19	0.00102101
3616.84	0.00102429
3626.48	0.0011964
3636.13	0.0010675
3645.77	0.00096613
3655.42	0.0011921
3665.06	0.0009014
3674.71	0.0014326
3684.35	0.0009351
3694	0.0011989
3703.64	0.00104313
3713.29	0.0011782
3722.93	0.0012371
3732.58	0.0012634
3742.22	0.0015331
3751.86	0.0013308
3761.51	0.00097015
3771.15	0.0016649
3780.8	0.00094549
3790.44	0.0013218
3800.09	0.0012729
3809.73	0.0012145
3819.38	0.0011222
3829.02	0.0013582
3838.67	0.0011283
3848.31	0.0014484
3857.96	0.0011206
3867.6	0.0011787
3877.25	0.00099658
3886.89	0.000918
3896.54	0.0010863
3906.18	0.0009298
3915.83	0.00097297
3925.47	0.0014178
3935.12	0.0011851
3944.76	0.0011618
3954.41	0.0012966
3964.05	0.0014319
3973.69	0.00097812
3983.34	0.00097962
3992.98	0.001189
