Infrared Spectrum: 2,4,6-Trimethyl-1,6-heptadien-4-ol
Formula: C 10 H 18 O
CAS: 79604-66-3
State: gas
Instrument: HP-GC/MS/IRD
Origin: NIST Mass Spectrometry Data Center
1/CM	ABSORBANCE
550	0.0009282
562	0.0004454
574	0.000493
586	0.00068
598	0.0007497
610	0.0009299
622	0.0006698
634	0.0004216
646	0.0002363
658	0.0001122
670	0.0001003
682	5.44e-05
694	7.82e-05
706	0.0001224
718	0.0001904
730	0.0001122
742	0.0001615
754	0.0002227
766	0.0005814
778	0.0013515
790	0.0012376
802	0.000663
814	0.0006783
826	0.0008874
838	0.0009945
850	0.0012937
862	0.0019992
874	0.0042432
886	0.0114427
898	0.0158066
910	0.0076976
922	0.0032062
934	0.0027234
946	0.0029121
958	0.0023103
970	0.0012376
982	0.0009537
994	0.0009452
1006	0.0010642
1018	0.001156
1030	0.0011067
1042	0.001139
1054	0.0012257
1066	0.0018377
1078	0.003179
1090	0.0053074
1102	0.0068697
1114	0.006154
1126	0.0044914
1138	0.0034986
1150	0.0028985
1162	0.0023596
1174	0.0021369
1186	0.002142
1198	0.0025908
1210	0.0030362
1222	0.0032997
1234	0.0037672
1246	0.0041684
1258	0.0037247
1270	0.0031807
1282	0.0029274
1294	0.0029189
1306	0.0034357
1318	0.003961
1330	0.0042823
1342	0.0047277
1354	0.004845
1366	0.0059228
1378	0.0090491
1390	0.0061506
1402	0.0030787
1414	0.0027863
1426	0.0035105
1438	0.0048382
1450	0.0060469
1462	0.0054655
1474	0.003264
1486	0.0016864
1498	0.0010319
1510	0.0007497
1522	0.0006222
1534	0.0005661
1546	0.0005678
1558	0.0006443
1570	0.0006613
1582	0.0007038
1594	0.0008721
1606	0.0012257
1618	0.0020621
1630	0.0041939
1642	0.0057936
1654	0.0034816
1666	0.0012971
1678	0.0006273
1690	0.0003553
1702	0.0002533
1714	0.000221
1726	0.0001938
1738	0.0001751
1750	0.0001751
1762	0.0002278
1774	0.0003842
1786	0.0007973
1798	0.0010166
1810	0.0007548
1822	0.0004131
1834	0.0002125
1846	0.0001088
1858	5.78e-05
1870	8.33e-05
1882	6.63e-05
1894	5.1e-05
1906	1.87e-05
1918	1.19e-05
1930	3.4e-05
1942	1.87e-05
1954	2.89e-05
1966	1.36e-05
1978	2.89e-05
1990	1.02e-05
2002	5.44e-05
2014	1.36e-05
2026	3.06e-05
2038	6.12e-05
2050	3.4e-05
2062	5.78e-05
2074	7.31e-05
2086	8.5e-05
2098	6.97e-05
2110	7.65e-05
2122	4.42e-05
2134	6.46e-05
2146	5.61e-05
2158	7.99e-05
2170	3.06e-05
2182	7.65e-05
2194	7.99e-05
2206	7.65e-05
2218	9.52e-05
2230	8.84e-05
2242	9.52e-05
2254	6.97e-05
2266	8.5e-05
2278	5.44e-05
2290	7.14e-05
2302	8.5e-05
2314	5.78e-05
2326	0.0001037
2338	7.48e-05
2350	4.76e-05
2362	7.14e-05
2374	2.89e-05
2386	3.4e-05
2398	4.76e-05
2410	5.44e-05
2422	4.93e-05
2434	1.36e-05
2446	4.08e-05
2458	2.89e-05
2470	6.29e-05
2482	5.1e-05
2494	2.55e-05
2506	4.59e-05
2518	2.21e-05
2530	1.87e-05
2542	1.87e-05
2554	2.72e-05
2566	2.55e-05
2578	4.08e-05
2590	3.23e-05
2602	3.4e-05
2614	5.44e-05
2626	5.95e-05
2638	7.99e-05
2650	6.63e-05
2662	4.59e-05
2674	8.33e-05
2686	9.86e-05
2698	0.0001139
2710	0.0001615
2722	0.0002601
2734	0.0004182
2746	0.0004182
2758	0.0003519
2770	0.0003587
2782	0.0004505
2794	0.000612
2806	0.0008075
2818	0.0012342
2830	0.0018258
2842	0.0027115
2854	0.0036278
2866	0.0045441
2878	0.0054757
2890	0.0066368
2902	0.0085238
2914	0.0113832
2926	0.0142426
2938	0.0150433
2950	0.0129217
2962	0.0124066
2974	0.0164373
2986	0.0150229
2998	0.0084847
3010	0.0040409
3022	0.0025466
3034	0.0019312
3046	0.0019346
3058	0.0027489
3070	0.0060231
3082	0.0084524
3094	0.0034731
3106	0.0014297
3118	0.0008177
3130	0.0004964
3142	0.0003349
3154	0.0001751
3166	0.0001564
3178	0.000119
3190	9.35e-05
3202	0.0001122
3214	0.0001003
3226	4.93e-05
3238	0.0001003
3250	9.18e-05
3262	0.0001054
3274	0.0001241
3286	4.25e-05
3298	4.76e-05
3310	9.18e-05
3322	8.67e-05
3334	7.99e-05
3346	0.0001105
3358	7.99e-05
3370	0.0001054
3382	0.000119
3394	6.63e-05
3406	3.23e-05
3418	9.18e-05
3430	4.25e-05
3442	6.12e-05
3454	5.1e-06
3466	9.01e-05
3478	5.44e-05
3490	6.46e-05
3502	8.33e-05
3514	0.0001003
3526	0.0001496
3538	0.000204
3550	0.0003094
3562	0.0003366
3574	0.0006443
3586	0.0016065
3598	0.0020808
3610	0.0014042
3622	0.0011526
3634	0.0012308
3646	0.0008908
3658	0.000374
3670	0.0002074
3682	9.86e-05
3694	4.93e-05
3706	8.5e-06
3718	1.7e-05
3730	5.27e-05
3742	5.27e-05
3754	7.99e-05
3766	3.4e-06
3778	2.89e-05
3790	0
3802	1.53e-05
3814	3.91e-05
3826	1.02e-05
3838	1.7e-05
