Infrared Spectrum: 1-Cyclohexyl-2-buten-1-ol (c,t)
Formula: C 10 H 18 O
CAS: 79605-62-2
State: gas
Instrument: HP-GC/MS/IRD
Origin: NIST Mass Spectrometry Data Center
1/CM	ABSORBANCE
550	0.0008869
562	0.0005096
574	0.0005194
586	0.0006664
598	0.0003381
610	0.0002254
622	0.0001813
634	0.000392
646	0.0003871
658	0.0004508
670	0.000343
682	0.0002842
694	0.0001225
706	0.0001274
718	4.9e-05
730	2.94e-05
742	3.43e-05
754	0.0001029
766	0.0001225
778	0.0002548
790	0.0002548
802	0.0002548
814	0.0002303
826	0.0002646
838	0.0005537
850	0.0006125
862	0.0007203
874	0.0009408
886	0.0015288
898	0.0015876
910	0.0012789
922	0.0017787
934	0.0024157
946	0.0032977
958	0.0059731
970	0.0072716
982	0.0053949
994	0.0058604
1006	0.0061299
1018	0.0047628
1030	0.0033908
1042	0.002793
1054	0.0029155
1066	0.0032977
1078	0.0032242
1090	0.0028763
1102	0.0025284
1114	0.0022001
1126	0.0017787
1138	0.0015778
1150	0.0013524
1162	0.0012005
1174	0.0013034
1186	0.0014504
1198	0.0017591
1210	0.0021315
1222	0.0022148
1234	0.0023912
1246	0.0025529
1258	0.0026999
1270	0.0025578
1282	0.002156
1294	0.002058
1306	0.0020139
1318	0.0017836
1330	0.0017493
1342	0.0020678
1354	0.0022981
1366	0.0020825
1378	0.0023422
1390	0.0021462
1402	0.0014847
1414	0.0011515
1426	0.0011858
1438	0.0022638
1450	0.0046746
1462	0.0036946
1474	0.00147
1486	0.0007056
1498	0.0005292
1510	0.0004018
1522	0.0002891
1534	0.0002352
1546	0.000196
1558	0.0001764
1570	0.0001519
1582	0.0001323
1594	0.0001274
1606	0.0001372
1618	0.0001568
1630	0.0001813
1642	0.0002499
1654	0.0005047
1666	0.000882
1678	0.0006713
1690	0.0002303
1702	0.0001274
1714	9.31e-05
1726	0.0001323
1738	0.0001568
1750	0.0001715
1762	0.0001764
1774	0.000147
1786	8.33e-05
1798	8.33e-05
1810	8.33e-05
1822	6.37e-05
1834	7.84e-05
1846	8.33e-05
1858	3.92e-05
1870	1.96e-05
1882	1.47e-05
1894	1.47e-05
1906	3.43e-05
1918	0
1930	9.8e-06
1942	1.96e-05
1954	3.43e-05
1966	3.43e-05
1978	4.9e-05
1990	0.0001078
2002	9.8e-05
2014	7.84e-05
2026	4.41e-05
2038	6.86e-05
2050	4.41e-05
2062	3.43e-05
2074	2.94e-05
2086	4.9e-05
2098	4.41e-05
2110	6.86e-05
2122	3.92e-05
2134	5.88e-05
2146	6.37e-05
2158	5.39e-05
2170	3.92e-05
2182	5.39e-05
2194	4.9e-05
2206	3.92e-05
2218	6.37e-05
2230	4.9e-05
2242	4.9e-05
2254	4.9e-05
2266	2.94e-05
2278	5.88e-05
2290	3.43e-05
2302	4.41e-05
2314	3.92e-05
2326	4.9e-05
2338	9.8e-05
2350	0.0001029
2362	0.0001274
2374	0.0001127
2386	0.0001274
2398	0.0001078
2410	9.8e-05
2422	8.82e-05
2434	8.82e-05
2446	6.86e-05
2458	5.88e-05
2470	8.82e-05
2482	0.0001127
2494	0.0001225
2506	8.82e-05
2518	0.0001029
2530	9.31e-05
2542	8.82e-05
2554	0.0001127
2566	0.0001421
2578	0.0001764
2590	0.0002548
2602	0.0002695
2614	0.0002695
2626	0.000294
2638	0.0003283
2650	0.0004802
2662	0.0006272
2674	0.0006174
2686	0.0004753
2698	0.0004361
2710	0.0004263
2722	0.0004214
2734	0.0004802
2746	0.0005439
2758	0.0004998
2770	0.0005243
2782	0.0007154
2794	0.0009898
2806	0.0012152
2818	0.0015729
2830	0.002352
2842	0.0049294
2854	0.01372
2866	0.0202125
2878	0.0132937
2890	0.00931
2902	0.011123
2914	0.0189875
2926	0.038514
2938	0.047089
2950	0.0223293
2962	0.0081144
2974	0.0050372
2986	0.0036848
2998	0.0031066
3010	0.0028567
3022	0.0027244
3034	0.002352
3046	0.001617
3058	0.0011172
3070	0.0008085
3082	0.0006419
3094	0.0005145
3106	0.0003773
3118	0.0003528
3130	0.0003283
3142	0.0003038
3154	0.0002401
3166	0.0002254
3178	0.0001715
3190	0.0001568
3202	0.0001372
3214	0.0001421
3226	9.8e-05
3238	8.82e-05
3250	0.0001029
3262	8.33e-05
3274	8.33e-05
3286	9.8e-05
3298	8.82e-05
3310	9.31e-05
3322	0.0001176
3334	0.0001323
3346	0.0001617
3358	0.0001421
3370	0.0001421
3382	0.0001568
3394	0.0001764
3406	0.000196
3418	0.000196
3430	0.0002744
3442	0.0001617
3454	0.000196
3466	0.0001862
3478	0.0002156
3490	0.0001666
3502	0.000196
3514	0.0001862
3526	0.0001715
3538	0.0002205
3550	0.0001813
3562	0.0001813
3574	0.0001666
3586	0.000196
3598	0.0001911
3610	0.0002646
3622	0.0004557
3634	0.0010094
3646	0.0022834
3658	0.0017101
3670	0.0006125
3682	0.0003479
3694	0.0003283
3706	0.0002401
3718	0.0002548
3730	0.0002058
3742	0.0002401
3754	0.0002254
3766	0.000245
3778	0.0002107
3790	0.0002499
3802	0.0002401
3814	0.0002303
3826	0.0002254
3838	0.0002891
