Infrared Spectrum: 3-Bromo-4-fluorobenzonitrile
Formula: C 7 H 3 Br F N
CAS: 79630-23-2
State: gas
Origin: EPA-IR VAPOR PHASE LIBRARY
1/CM	ABSORBANCE
549.8	0.0016168
559.445	0.004454
569.09	0.004404
578.734	0.004634
588.379	0.008914
598.024	0.004004
607.669	0.0015499
617.313	0.00068974
626.958	0.0014031
636.603	0.0010955
646.248	0.001744
655.893	0.002584
665.537	0.003714
675.182	0.003464
684.827	0.003284
694.472	0.003424
704.116	0.006784
713.761	0.010414
723.406	0.016444
733.051	0.010534
742.695	0.006184
752.34	0.006104
761.985	0.002134
771.63	0.001517
781.275	0.0008063
790.919	0.001674
800.564	0.002724
810.209	0.008344
819.854	0.017804
829.498	0.019684
839.143	0.008444
848.788	0.003724
858.433	0.005034
868.078	0.006384
877.722	0.008804
887.367	0.013114
897.012	0.007724
906.657	0.003024
916.301	0.001864
925.946	0.001884
935.591	0.0008749
945.236	0.0014543
954.88	0.0009007
964.525	0.0008164
974.17	0.0014029
983.815	0.0009477
993.46	0.001644
1003.1	0.000932
1012.75	0.0009484
1022.39	0.001261
1032.04	0.0009003
1041.68	0.006214
1051.33	0.012214
1060.97	0.008244
1070.62	0.001418
1080.26	0.002104
1089.91	0.002214
1099.55	0.0014061
1109.2	0.002954
1118.84	0.003494
1128.49	0.005924
1138.13	0.004124
1147.78	0.003324
1157.42	0.003114
1167.07	0.003294
1176.71	0.002494
1186.36	0.004704
1196	0.007764
1205.64	0.003584
1215.29	0.002264
1224.93	0.0009516
1234.58	0.004644
1244.22	0.016744
1253.87	0.034224
1263.51	0.045044
1273.16	0.032074
1282.8	0.011144
1292.45	0.007034
1302.09	0.003394
1311.74	0.001435
1321.38	0.0012525
1331.03	0.0011481
1340.67	0.0011149
1350.32	0.0011803
1359.96	0.0015193
1369.61	0.003174
1379.25	0.005814
1388.9	0.006604
1398.54	0.003844
1408.18	0.002834
1417.83	0.002434
1427.47	0.0013768
1437.12	0.001704
1446.76	0.002294
1456.41	0.004814
1466.05	0.012224
1475.7	0.024644
1485.34	0.052134
1494.99	0.080884
1504.63	0.035094
1514.28	0.009384
1523.92	0.004244
1533.57	0.003284
1543.21	0.002544
1552.86	0.002864
1562.5	0.004034
1572.15	0.006394
1581.79	0.007834
1591.44	0.009484
1601.08	0.010844
1610.73	0.006074
1620.37	0.002504
1630.01	0.0011769
1639.66	0.001654
1649.3	0.001784
1658.95	0.001576
1668.59	0.0014833
1678.24	0.0010014
1687.88	0.0012809
1697.53	0.0010838
1707.17	0.0012758
1716.82	0.0010638
1726.46	0.0010279
1736.11	0.0010388
1745.75	0.0012083
1755.4	0.0016177
1765.04	0.002554
1774.69	0.002874
1784.33	0.001824
1793.98	0.001061
1803.62	0.0010538
1813.27	0.0009582
1822.91	0.0009727
1832.55	0.0010682
1842.2	0.0010008
1851.84	0.0010919
1861.49	0.0011757
1871.13	0.0013015
1880.78	0.001944
1890.42	0.002434
1900.07	0.002084
1909.71	0.0010497
1919.36	0.0008445
1929	0.0008413
1938.65	0.0009976
1948.29	0.0008388
1957.94	0.000984
1967.58	0.0010567
1977.23	0.0010046
1986.87	0.0009017
1996.52	0.0011927
2006.16	0.001074
2015.81	0.0009361
2025.45	0.000823
2035.1	0.00065507
2044.74	0.0010001
2054.38	0.0007862
2064.03	0.00073038
2073.67	0.00067473
2083.32	0.0008335
2092.96	0.0006126
2102.61	0.0007746
2112.25	0.0009825
2121.9	0.0009354
2131.54	0.0012071
2141.19	0.0007483
2150.83	0.0009142
2160.48	0.000649712
2170.12	0.00068249
2179.77	0.00073117
2189.41	0.000797
2199.06	0.0010898
2208.7	0.0008261
2218.35	0.0013312
2227.99	0.003174
2237.64	0.005714
2247.28	0.003154
2256.92	0.0013835
2266.57	0.0008633
2276.21	0.0008307
2285.86	0.000802
2295.5	0.00071259
2305.15	0.0009868
2314.79	0.001008
2324.44	0.000843
2334.08	0.0007811
2343.73	0.000472
2353.37	0.0008942
2363.02	0.0008904
2372.66	0.0011044
2382.31	0.0011257
2391.95	0.0010371
2401.6	0.0008656
2411.24	0.0010964
2420.89	0.0009357
2430.53	0.00073566
2440.18	0.000544
2449.82	0.0005558
2459.47	0.0010029
2469.11	0.0010957
2478.75	0.00065655
2488.4	0.00067672
2498.04	0.0008409
2507.69	0.0014146
2517.33	0.001974
2526.98	0.001724
2536.62	0.0016251
2546.27	0.001694
2555.91	0.0010366
2565.56	0.000883
2575.2	0.00069691
2584.85	0.0009371
2594.49	0.0006246
2604.14	0.00064496
2613.78	0.0011302
2623.43	0.0007679
2633.07	0.000518
2642.72	0.0011383
2652.36	0.0008954
2662.01	0.001124
2671.65	0.0008441
2681.29	0.0005906
2690.94	0.0005814
2700.58	0.0008538
2710.23	0.0008576
2719.87	0.00067278
2729.52	0.000903
2739.16	0.0007947
2748.81	0.0009147
2758.45	0.00070944
2768.1	0.001104
2777.74	0.0014216
2787.39	0.0009466
2797.03	0.0008586
2806.68	0.0011329
2816.32	0.0008181
2825.97	0.000999
2835.61	0.0011259
2845.26	0.0010386
2854.9	0.00071773
2864.55	0.00079
2874.19	0.0009445
2883.84	0.0008076
2893.48	0.000528
2903.12	0.000426
2912.77	0.0007515
2922.41	0.0007992
2932.06	0.0005687
2941.7	0.000587
2951.35	0.000467
2960.99	0.0005456
2970.64	0.0012026
2980.28	0.0008123
2989.93	0.000184
2999.57	0.000383
3009.22	0.00070667
3018.86	0.00073361
3028.51	0.00074272
3038.15	0.0010383
3047.8	0.0012131
3057.44	0.001341
3067.09	0.0009588
3076.73	0.0012604
3086.38	0.0010372
3096.02	0.0009908
3105.67	0.0012766
3115.31	0.0006055
3124.95	0.00072941
3134.6	0.0010979
3144.24	0.001027
3153.89	0.00068415
3163.53	0.000126
3173.18	0.000528
3182.82	0.000984
3192.47	0.0012303
3202.11	0.0009426
3211.76	0.00054
3221.4	0.0008599
3231.05	0.0009088
3240.69	0.0008719
3250.34	0.000386
3259.98	0.0011151
3269.63	0.0009331
3279.27	0.00066314
3288.92	0.0013413
3298.56	0.0011465
3308.21	0.0009912
3317.85	0.000379
3327.49	0.0009404
3337.14	0.0011936
3346.78	0.0009051
3356.43	0.0008408
3366.07	0.0009635
3375.72	0.00068537
3385.36	0.000473
3395.01	0.0010604
3404.65	0.0011383
3414.3	0.0011491
3423.94	0.00073269
3433.59	0.0011073
3443.23	0.0011655
3452.88	0.0011262
3462.52	0.000753
3472.17	0.001136
3481.81	0.0009708
3491.46	0.000798
3501.1	0.000477
3510.75	0.0008071
3520.39	0.00065688
3530.04	0.001015
3539.68	0.0010027
3549.32	0.000485
3558.97	0.0007664
3568.61	0.000375
3578.26	0.0009413
3587.9	0.0005663
3597.55	0.00073613
3607.19	0.00054
3616.84	0.0009675
3626.48	0.0009785
3636.13	0.00070825
3645.77	0.0011216
3655.42	0.0008644
3665.06	0.00073037
3674.71	0.0011005
3684.35	0.0010536
3694	0.0009361
3703.64	0.0014976
3713.29	0.000491
3722.93	0.0009733
3732.58	0.0009573
3742.22	0.0007214
3751.86	0.0002
3761.51	0.000902
3771.15	0.0013306
3780.8	0.0009212
3790.44	0.0010787
3800.09	0.0006272
3809.73	0.0010946
3819.38	0.0009925
3829.02	0.0011948
3838.67	0.0006279
3848.31	0.0008748
3857.96	0.000207
3867.6	0.000134
3877.25	0.0016196
3886.89	0.000908
3896.54	0.0006596
3906.18	0.0011327
3915.83	0.0006109
3925.47	0.0014621
3935.12	0.0013795
3944.76	0.0008898
3954.41	0.001704
3964.05	0.0011583
3973.69	0.000117
3983.34	0.0013186
3992.98	0.0008675
