Infrared Spectrum: 5-Bromo-2-ethoxybenzaldehyde
Formula: C 9 H 9 Br O 2
CAS: 79636-94-5
State: gas
Origin: EPA-IR VAPOR PHASE LIBRARY
1/CM	ABSORBANCE
549.9	0.0012082
559.547	0.0009544
569.193	0.0008317
578.84	0.000748
588.486	0.0008189
598.133	0.0011763
607.779	0.0013198
617.426	0.00184
627.072	0.00206
636.719	0.00225
646.365	0.00213
656.012	0.0019
665.658	0.00152
675.305	0.0010658
684.951	0.0009028
694.598	0.0010153
704.245	0.0010382
713.891	0.0008173
723.538	0.0008594
733.184	0.0008969
742.831	0.0008315
752.477	0.0008403
762.124	0.0009575
771.77	0.0011279
781.417	0.0011125
791.063	0.00151
800.71	0.00251
810.356	0.00286
820.003	0.0021
829.649	0.0014087
839.296	0.0012522
848.943	0.0014094
858.589	0.00203
868.236	0.00299
877.882	0.00315
887.529	0.00256
897.175	0.00238
906.822	0.00185
916.468	0.0014346
926.115	0.0012729
935.761	0.001077
945.408	0.0009121
955.054	0.0008502
964.701	0.0008714
974.347	0.0009137
983.994	0.001022
993.64	0.0012189
1003.29	0.00148
1012.93	0.00212
1022.58	0.00347
1032.23	0.00507
1041.87	0.00472
1051.52	0.00319
1061.17	0.00213
1070.81	0.00182
1080.46	0.00221
1090.11	0.0027
1099.75	0.00303
1109.4	0.00471
1119.05	0.00773
1128.69	0.00695
1138.34	0.00424
1147.99	0.00351
1157.63	0.00372
1167.28	0.00566
1176.92	0.00658
1186.57	0.00438
1196.22	0.00375
1205.86	0.00504
1215.51	0.00809
1225.16	0.01202
1234.8	0.01373
1244.45	0.01198
1254.1	0.01199
1263.74	0.01474
1273.39	0.00939
1283.04	0.00489
1292.68	0.00372
1302.33	0.00306
1311.98	0.002
1321.62	0.0014406
1331.27	0.0013539
1340.92	0.0013888
1350.56	0.00158
1360.21	0.00241
1369.86	0.00378
1379.5	0.00812
1389.15	0.00971
1398.79	0.00437
1408.44	0.00362
1418.09	0.00239
1427.73	0.00218
1437.38	0.00252
1447.03	0.00319
1456.67	0.00526
1466.32	0.01162
1475.97	0.01377
1485.61	0.00826
1495.26	0.00399
1504.91	0.00196
1514.55	0.00147
1524.2	0.0012183
1533.85	0.0011181
1543.49	0.0010925
1553.14	0.0012561
1562.79	0.00159
1572.43	0.00231
1582.08	0.00391
1591.73	0.00428
1601.37	0.00201
1611.02	0.0014539
1620.67	0.0011799
1630.31	0.0011179
1639.96	0.0010811
1649.6	0.0011723
1659.25	0.0013162
1668.9	0.00164
1678.54	0.00223
1688.19	0.00399
1697.84	0.00951
1707.48	0.01608
1717.13	0.01113
1726.78	0.00589
1736.42	0.00339
1746.07	0.00184
1755.72	0.0014067
1765.36	0.0011718
1775.01	0.0010572
1784.66	0.0009747
1794.3	0.0009768
1803.95	0.0009385
1813.6	0.0008293
1823.24	0.0008084
1832.89	0.0008007
1842.54	0.0008199
1852.18	0.0007474
1861.83	0.0008043
1871.47	0.0008363
1881.12	0.0008203
1890.77	0.0007726
1900.41	0.000772
1910.06	0.0007294
1919.71	0.0006937
1929.35	0.000672
1939	0.0006466
1948.65	0.0006354
1958.29	0.0005964
1967.94	0.0006375
1977.59	0.000646
1987.23	0.0006597
1996.88	0.0006464
2006.53	0.0006582
2016.17	0.0006547
2025.82	0.0006225
2035.47	0.0006545
2045.11	0.0006464
2054.76	0.0006159
2064.41	0.0006121
2074.05	0.0005727
2083.7	0.00053337
2093.35	0.0004568
2102.99	0.0004259
2112.64	0.0004295
2122.28	0.0003937
2131.93	0.0003868
2141.58	0.000418
2151.22	0.0003739
2160.87	0.0004091
2170.52	0.000372
2180.16	0.0003717
2189.81	0.0003912
2199.46	0.0003723
2209.1	0.000352
2218.75	0.000355
2228.4	0.0003747
2238.04	0.000348
2247.69	0.0003716
2257.34	0.0003828
2266.98	0.0003715
2276.63	0.000322
2286.28	0.0003853
2295.92	0.000359
2305.57	0.000323
2315.22	0.000313
2324.86	0.000279
2334.51	0.000254
2344.16	0.000314
2353.8	0.000261
2363.45	0.000253
2373.09	0.000287
2382.74	0.000305
2392.39	0.000287
2402.03	0.000294
2411.68	0.000313
2421.33	0.000293
2430.97	0.000313
2440.62	0.000264
2450.27	0.000326
2459.91	0.000268
2469.56	0.000296
2479.21	0.000304
2488.85	0.000284
2498.5	0.000252
2508.15	0.000319
2517.79	0.00026
2527.44	0.000221
2537.09	0.0002
2546.73	0.000204
2556.38	0.000171
2566.03	0.000213
2575.67	0.000159
2585.32	0.000118
2594.96	0.000165
2604.61	9.9e-05
2614.26	0.000135
2623.9	0.000137
2633.55	0.000132
2643.2	0.000116
2652.84	0.00018
2662.49	0.000104
2672.14	0.000127
2681.78	0.000152
2691.43	0.000222
2701.08	0.0004465
2710.72	0.0006348
2720.37	0.00054182
2730.02	0.000477493
2739.66	0.000786
2749.31	0.001007
2758.96	0.0006444
2768.6	0.000352
2778.25	0.00027
2787.9	0.00029
2797.54	0.000307
2807.19	0.000299
2816.84	0.0003801
2826.48	0.0006004
2836.13	0.0008806
2845.77	0.00154
2855.42	0.00339
2865.07	0.00408
2874.71	0.00204
2884.36	0.0014229
2894.01	0.0013961
2903.65	0.0014084
2913.3	0.0012676
2922.95	0.0013981
2932.59	0.00166
2942.24	0.00207
2951.89	0.00172
2961.53	0.0012286
2971.18	0.001368
2980.83	0.00237
2990.47	0.00316
3000.12	0.00198
3009.77	0.0009746
3019.41	0.00054449
3029.06	0.0003771
3038.71	0.000276
3048.35	0.000159
3058	0.000225
3067.64	0.0004034
3077.29	0.00053262
3086.94	0.00048045
3096.58	0.0004039
3106.23	0.000266
3115.88	0.000115
3125.52	4.7e-05
3135.17	6.4e-05
3144.82	4.5e-05
3154.46	2e-06
3164.11	0.000106
3173.76	0.000185
3183.4	9.7e-05
3193.05	0.000199
3202.7	0.00022
3212.34	0.000189
3221.99	0.000166
3231.64	0.000171
3241.28	0.00031
3250.93	0.000309
3260.58	0.00036
3270.22	0.000348
3279.87	0.00029
3289.52	0.0003854
3299.16	0.0004348
3308.81	0.0004292
3318.45	0.00048951
3328.1	0.00049688
3337.75	0.00051954
3347.39	0.00053773
3357.04	0.0005766
3366.69	0.0006007
3376.33	0.000765
3385.98	0.0008884
3395.63	0.0008412
3405.27	0.0007112
3414.92	0.0007191
3424.57	0.0005718
3434.21	0.0005942
3443.86	0.0006121
3453.51	0.000607
3463.15	0.00049048
3472.8	0.000583
3482.45	0.0007146
3492.09	0.0005794
3501.74	0.0006497
3511.39	0.00056662
3521.03	0.0006256
3530.68	0.0006545
3540.33	0.0005757
3549.97	0.0007378
3559.62	0.0006775
3569.26	0.0006583
3578.91	0.0006818
3588.56	0.0005893
3598.2	0.0005713
3607.85	0.0006448
3617.5	0.0006456
3627.14	0.0006622
3636.79	0.00053964
3646.44	0.00055844
3656.08	0.000431
3665.73	0.00053688
3675.38	0.0005852
3685.02	0.0005821
3694.67	0.000479318
3704.32	0.0005646
3713.96	0.0004475
3723.61	0.00053366
3733.26	0.0004575
3742.9	0.00049604
3752.55	0.0004429
3762.2	0.0004424
3771.84	0.00055026
3781.49	0.0003888
3791.13	0.00050865
3800.78	0.0004404
3810.43	0.000445
3820.07	0.00033
3829.72	0.0003816
3839.37	0.00049955
3849.01	0.0003721
3858.66	0.000472384
3868.31	0.0003733
3877.95	0.00046072
3887.6	0.0004053
3897.25	0.0003847
3906.89	0.00048684
3916.54	0.00046181
3926.19	0.00046018
3935.83	0.00051884
3945.48	0.00052298
3955.13	0.0003768
3964.77	0.0003753
3974.42	0.00037
3984.07	0.00037
3993.71	0.0003857
