Infrared Spectrum: 9-NITRO TRIPTYCENE
Formula: C20 H13 N O2
CAS: 797-67-1
State: SOLID (KBr PELLET)
Class: COBLENTZ
Instrument: Not specified, most likely a prism, grating, or hybrid spectrometer.
Sampling: TRANSMISSION
Resolution: 4
1/CM	TRANSMITTANCE
654.517	0.799
663.614	0.795
672.71	0.788
681.807	0.767
690.904	0.766
700.001	0.764
709.097	0.771
718.194	0.761
727.291	0.733
736.387	0.696
745.484	0.512
754.581	0.104
763.677	0.649
772.774	0.752
781.871	0.777
790.968	0.778
800.064	0.76
809.161	0.45
818.258	0.786
827.354	0.785
836.451	0.781
845.548	0.744
854.645	0.775
863.741	0.771
872.838	0.56
881.935	0.775
891.031	0.78
900.128	0.778
909.225	0.772
918.322	0.763
927.418	0.677
936.515	0.744
945.612	0.75
954.708	0.757
963.805	0.758
972.902	0.75
981.998	0.746
991.095	0.736
1000.19	0.741
1009.29	0.736
1018.39	0.73
1027.48	0.707
1036.58	0.669
1045.68	0.725
1054.77	0.738
1063.87	0.735
1072.97	0.727
1082.06	0.719
1091.16	0.719
1100.26	0.722
1109.35	0.716
1118.45	0.699
1127.55	0.708
1136.64	0.705
1145.74	0.647
1154.84	0.579
1163.93	0.705
1173.03	0.705
1182.13	0.718
1191.22	0.711
1200.32	0.713
1209.42	0.707
1218.51	0.714
1227.61	0.716
1236.71	0.713
1245.8	0.71
1254.9	0.711
1264	0.707
1273.09	0.693
1282.19	0.66
1291.29	0.4919
1300.38	0.69
1309.48	0.658
1318.58	0.643
1327.67	0.652
1336.77	0.658
1345.87	0.59
1354.96	0.52
1364.06	0.5489
1373.16	0.657
1382.25	0.666
1391.35	0.646
1400.45	0.665
1409.54	0.671
1418.64	0.649
1427.74	0.618
1436.83	0.51
1445.93	0.299
1455.03	0.249
1464.12	0.3899
1473.22	0.671
1482.32	0.69
1491.41	0.668
1500.51	0.651
1509.61	0.619
1518.7	0.548
1527.8	0.459
1536.9	0.269
1545.99	0.129
1555.09	0.2669
1564.19	0.51
1573.28	0.613
1582.38	0.663
1591.48	0.691
1600.57	0.699
1609.67	0.686
1618.77	0.688
1627.86	0.677
1636.96	0.691
1646.06	0.688
1655.15	0.694
1664.25	0.699
1673.35	0.697
1682.44	0.696
1691.54	0.702
1700.64	0.707
1709.74	0.705
1718.83	0.708
1727.93	0.707
1737.03	0.707
1746.12	0.708
1755.22	0.708
1764.32	0.71
1773.41	0.71
1782.51	0.704
1791.61	0.699
1800.7	0.704
1809.8	0.704
1818.9	0.707
1827.99	0.71
1837.09	0.708
1846.19	0.705
1855.28	0.702
1864.38	0.705
1873.48	0.705
1882.57	0.691
1891.67	0.69
1900.77	0.69
1909.86	0.697
1918.96	0.7
1928.06	0.707
1937.15	0.704
1946.25	0.693
1955.35	0.677
1964.44	0.7
1973.54	0.707
1982.64	0.705
1991.73	0.702
2000.83	0.7
2009.93	0.6996
2019.02	0.6978
2028.12	0.697
2037.22	0.697
2046.31	0.696
2055.41	0.694
2064.51	0.693
2073.6	0.6938
2082.7	0.693
2091.8	0.691
2100.89	0.6918
2109.99	0.6912
2119.09	0.6908
2128.18	0.691
2137.28	0.691
2146.38	0.691
2155.47	0.69
2164.57	0.688
2173.67	0.688
2182.76	0.6876
2191.86	0.685
2200.96	0.6838
2210.05	0.6803
2219.15	0.679
2228.25	0.677
2237.34	0.6727
2246.44	0.6622
2255.54	0.65
2264.63	0.6409
2273.73	0.6345
2282.83	0.6359
2291.92	0.6406
2301.02	0.6465
2310.12	0.6551
2319.21	0.6587
2328.31	0.6643
2337.41	0.668
2346.5	0.669
2355.6	0.672
2364.7	0.6725
2373.79	0.6731
2382.89	0.671
2391.99	0.669
2401.08	0.6679
2410.18	0.6658
2419.28	0.665
2428.38	0.665
2437.47	0.665
2446.57	0.665
2455.67	0.663
2464.76	0.661
2473.86	0.663
2482.96	0.6613
2492.05	0.663
2501.15	0.66
2510.25	0.66
2519.34	0.661
2528.44	0.6601
2537.54	0.6598
2546.63	0.658
2555.73	0.657
2564.83	0.655
2573.92	0.655
2583.02	0.657
2592.12	0.655
2601.21	0.655
2610.31	0.654
2619.41	0.6511
2628.5	0.649
2637.6	0.647
2646.7	0.648
2655.79	0.6504
2664.89	0.651
2673.99	0.649
2683.08	0.6467
2692.18	0.646
2701.28	0.6476
2710.37	0.6431
2719.47	0.641
2728.57	0.64
2737.66	0.6375
2746.76	0.6394
2755.86	0.6409
2764.95	0.641
2774.05	0.64
2783.15	0.64
2792.24	0.638
2801.34	0.6333
2810.44	0.6299
2819.53	0.6267
2828.63	0.6235
2837.73	0.6196
2846.82	0.6151
2855.92	0.6099
2865.02	0.609
2874.11	0.6111
2883.21	0.618
2892.31	0.619
2901.4	0.619
2910.5	0.619
2919.6	0.6169
2928.69	0.6135
2937.79	0.6101
2946.89	0.61
2955.98	0.6076
2965.08	0.6045
2974.18	0.6013
2983.27	0.5951
2992.37	0.5908
3001.47	0.5877
3010.56	0.5829
3019.66	0.5775
3028.76	0.5731
3037.85	0.5658
3046.95	0.5609
3056.05	0.5538
3065.14	0.551
3074.24	0.5676
3083.34	0.5803
3092.43	0.5874
3101.53	0.5917
3110.63	0.5958
3119.72	0.596
3128.82	0.598
3137.92	0.596
3147.01	0.5954
3156.11	0.595
3165.21	0.593
3174.31	0.593
3183.4	0.593
3192.5	0.593
3201.6	0.593
3210.69	0.591
3219.79	0.591
3228.89	0.591
3237.98	0.5888
3247.08	0.587
3256.18	0.585
3265.27	0.582
3274.37	0.5796
3283.47	0.5752
3292.56	0.573
3301.66	0.568
3310.76	0.5624
3319.85	0.5582
3328.95	0.5536
3338.05	0.5494
3347.14	0.546
3356.24	0.5396
3365.34	0.5362
3374.43	0.5314
3383.53	0.5248
3392.63	0.521
3401.72	0.5178
3410.82	0.5146
3419.92	0.5108
3429.01	0.5092
3438.11	0.507
3447.21	0.507
3456.3	0.507
3465.4	0.5082
3474.5	0.509
3483.59	0.512
3492.69	0.5155
3501.79	0.5193
3510.88	0.5236
3519.98	0.5276
3529.08	0.5321
3538.17	0.5357
3547.27	0.5409
3556.37	0.5449
3565.46	0.5476
3574.56	0.5521
3583.66	0.5562
3592.75	0.5579
3601.85	0.5656
3610.95	0.5697
3620.04	0.5711
3629.14	0.5732
3638.24	0.574
3647.33	0.5753
3656.43	0.576
3665.53	0.577
3674.62	0.577
3683.72	0.5779
3692.82	0.579
3701.91	0.5799
3711.01	0.58
3720.11	0.58
3729.2	0.58
3738.3	0.58
3747.4	0.5791
3756.49	0.5771
3765.59	0.579
3774.69	0.577
3783.78	0.576
3792.88	0.574
3801.98	0.5731
3811.07	0.5745
3820.17	0.575
3829.27	0.574
3838.36	0.573
3847.46	0.573
3856.56	0.5725
3865.65	0.571
3874.75	0.571
3883.85	0.5701
3892.95	0.57
3902.04	0.568
3911.14	0.566
3920.24	0.566
3929.33	0.565
3938.43	0.565
3947.53	0.5627
3956.62	0.561
3965.72	0.56
3974.82	0.559
3983.91	0.559
