Infrared Spectrum: 1,1,1-TRIMETHYL-3,3,3-TRIPHENYLDISILOXANE
Formula: C21 H24 O Si2
CAS: 799-53-1
State: SOLUTION (5% IN CCl4 FOR 3800-1300, 2% IN CS2 FOR 1300-620, AND 5% IN CCl4 FOR 620-250 CM^-^1) VS. SOLVENT
Melting point: 51 C
Boiling point: 349 C
Class: COBLENTZ III
Instrument: PERKIN-ELMER 521 (GRATING)
Instrument parameters: FILTERS AT 3150, 2500, 2000, 1150, 700, 410. GRATING CHANGES: 2000, 630 CM^-^1
Sampling: TRANSMISSION
Path length: 0.011 CM, 0.011 CM, AND 0.020 CM
Resolution: 2
Origin: DOW CORNING CORP.
1/CM	TRANSMITTANCE
210.733	0.81
219.966	0.81
229.198	0.81
238.431	0.81
247.663	0.809
256.896	0.806
266.128	0.792
275.361	0.764
284.593	0.717
293.826	0.678
303.059	0.686
312.291	0.682
321.524	0.717
330.756	0.753
339.989	0.782
349.221	0.817
358.454	0.852
367.686	0.855
376.919	0.85
386.152	0.832
395.384	0.837
404.617	0.852
413.849	0.84
423.082	0.775
432.314	0.665
441.547	0.7
450.779	0.763
460.012	0.759
469.245	0.697
478.477	0.737
487.71	0.755
496.942	0.668
506.175	0.2859
515.407	0.017
524.64	0.4801
533.872	0.738
543.105	0.813
552.338	0.813
561.57	0.774
570.803	0.5919
580.035	0.537
589.268	0.772
598.5	0.846
607.733	0.855
616.965	0.858
626.198	0.849
635.431	0.837
644.663	0.829
653.896	0.832
663.128	0.829
672.361	0.794
681.593	0.791
690.826	0.7
700.058	0.2331
709.291	0.2759
718.524	0.746
727.756	0.81
736.989	0.7009
746.221	0.733
755.454	0.645
764.686	0.829
773.919	0.858
783.151	0.861
792.384	0.86
801.616	0.853
810.849	0.833
820.082	0.787
829.314	0.6759
838.547	0.354
847.779	0.529
857.012	0.518
866.244	0.692
875.477	0.825
884.709	0.877
893.942	0.905
903.175	0.91
912.407	0.913
921.64	0.918
930.872	0.918
940.105	0.919
949.337	0.917
958.57	0.916
967.802	0.909
977.035	0.894
986.268	0.875
995.5	0.837
1004.73	0.849
1013.97	0.802
1023.2	0.666
1032.43	0.741
1041.66	0.605
1050.9	0.459
1060.13	0.394
1069.36	0.393
1078.59	0.448
1087.83	0.577
1097.06	0.743
1106.29	0.5169
1115.52	0.2689
1124.76	0.7371
1133.99	0.84
1143.22	0.858
1152.45	0.87
1161.69	0.879
1170.92	0.877
1180.15	0.86
1189.38	0.836
1198.62	0.88
1207.85	0.88
1217.08	0.878
1226.31	0.871
1235.55	0.856
1244.78	0.7629
1254.01	0.647
1263.24	0.704
1272.48	0.793
1281.71	0.793
1290.94	0.794
1300.17	0.794
1309.41	0.794
1318.64	0.795
1327.87	0.786
1337.1	0.806
1346.34	0.813
1355.57	0.811
1364.8	0.805
1374.03	0.788
1383.27	0.801
1392.5	0.79
1401.73	0.758
1410.97	0.75
1420.2	0.73
1429.43	0.199
1438.66	0.775
1447.9	0.793
1457.13	0.801
1466.36	0.823
1475.59	0.815
1484.83	0.733
1494.06	0.824
1503.29	0.83
1512.52	0.837
1521.76	0.832
1530.99	0.826
1540.22	0.822
1549.45	0.819
1558.69	0.821
1567.92	0.81
1577.15	0.815
1586.38	0.795
1595.62	0.8
1604.85	0.824
1614.08	0.819
1623.31	0.823
1632.55	0.823
1641.78	0.821
1651.01	0.817
1660.24	0.816
1669.48	0.829
1678.71	0.836
1687.94	0.836
1697.17	0.838
1706.41	0.839
1715.64	0.842
1724.87	0.839
1734.1	0.841
1743.34	0.844
1752.57	0.845
1761.8	0.832
1771.03	0.83
1780.27	0.839
1789.5	0.854
1798.73	0.849
1807.96	0.846
1817.2	0.819
1826.43	0.803
1835.66	0.83
1844.9	0.846
1854.13	0.854
1863.36	0.853
1872.59	0.85
1881.83	0.831
1891.06	0.816
1900.29	0.817
1909.52	0.824
1918.76	0.854
1927.99	0.854
1937.22	0.842
1946.45	0.837
1955.69	0.817
1964.92	0.826
1974.15	0.83
1983.38	0.855
1992.62	0.86
2001.85	0.862
2011.08	0.864
2020.31	0.8651
2029.55	0.868
2038.78	0.8682
2048.01	0.869
2057.24	0.87
2066.48	0.871
2075.71	0.872
2084.94	0.872
2094.17	0.873
2103.41	0.873
2112.64	0.875
2121.87	0.876
2131.1	0.877
2140.34	0.877
2149.57	0.877
2158.8	0.8762
2168.03	0.876
2177.27	0.876
2186.5	0.878
2195.73	0.878
2204.96	0.879
2214.2	0.88
2223.43	0.88
2232.66	0.88
2241.9	0.88
2251.13	0.8803
2260.36	0.883
2269.59	0.883
2278.83	0.8822
2288.06	0.881
2297.29	0.883
2306.52	0.884
2315.76	0.885
2324.99	0.886
2334.22	0.8867
2343.45	0.888
2352.69	0.888
2361.92	0.887
2371.15	0.8812
2380.38	0.884
2389.62	0.883
2398.85	0.8811
2408.08	0.884
2417.31	0.885
2426.55	0.885
2435.78	0.884
2445.01	0.8825
2454.24	0.88
2463.48	0.879
2472.71	0.8816
2481.94	0.8855
2491.17	0.881
2500.41	0.88
2509.64	0.881
2518.87	0.88
2528.1	0.878
2537.34	0.879
2546.57	0.88
2555.8	0.88
2565.03	0.8791
2574.27	0.876
2583.5	0.872
2592.73	0.872
2601.96	0.8751
2611.2	0.879
2620.43	0.879
2629.66	0.88
2638.89	0.879
2648.13	0.878
2657.36	0.8766
2666.59	0.875
2675.83	0.872
2685.06	0.8725
2694.29	0.87
2703.52	0.872
2712.76	0.873
2721.99	0.875
2731.22	0.8757
2740.45	0.875
2749.69	0.8747
2758.92	0.873
2768.15	0.8759
2777.38	0.877
2786.62	0.868
2795.85	0.8649
2805.08	0.862
2814.31	0.862
2823.55	0.862
2832.78	0.861
2842.01	0.86
2851.24	0.858
2860.48	0.858
2869.71	0.8566
2878.94	0.851
2888.17	0.8268
2897.41	0.809
2906.64	0.8166
2915.87	0.823
2925.1	0.8213
2934.34	0.8107
2943.57	0.7767
2952.8	0.6687
2962.03	0.5658
2971.27	0.7066
2980.5	0.794
2989.73	0.8048
2998.96	0.7533
3008.2	0.7074
3017.43	0.7072
3026.66	0.7
3035.89	0.7443
3045.13	0.6813
3054.36	0.6075
3063.59	0.6387
3072.82	0.53
3082.06	0.6503
3091.29	0.7706
3100.52	0.8256
3109.76	0.86
3118.99	0.8603
3128.22	0.856
3137.45	0.843
3146.69	0.8685
3155.92	0.8729
3165.15	0.875
3174.38	0.876
3183.62	0.877
3192.85	0.878
3202.08	0.878
3211.31	0.88
3220.55	0.88
3229.78	0.88
3239.01	0.88
3248.24	0.88
3257.48	0.8796
3266.71	0.879
3275.94	0.8795
3285.17	0.881
3294.41	0.881
3303.64	0.881
3312.87	0.881
3322.1	0.881
3331.34	0.881
3340.57	0.881
3349.8	0.881
3359.03	0.8801
3368.27	0.88
3377.5	0.878
3386.73	0.878
3395.96	0.878
3405.2	0.878
3414.43	0.879
3423.66	0.879
3432.89	0.88
3442.13	0.88
3451.36	0.88
3460.59	0.88
3469.82	0.88
3479.06	0.88
3488.29	0.88
3497.52	0.879
3506.75	0.879
3515.99	0.878
3525.22	0.878
3534.45	0.879
3543.69	0.879
3552.92	0.879
3562.15	0.879
3571.38	0.879
3580.62	0.883
3589.85	0.8809
3599.08	0.878
3608.31	0.876
3617.55	0.875
3626.78	0.875
3636.01	0.876
3645.24	0.876
3654.48	0.876
3663.71	0.876
3672.94	0.876
3682.17	0.876
3691.41	0.8737
3700.64	0.873
3709.87	0.873
3719.1	0.873
3728.34	0.873
3737.57	0.873
3746.8	0.873
3756.03	0.873
3765.27	0.873
3774.5	0.875
3783.73	0.875
3792.96	0.876
3802.2	0.876
