Infrared Spectrum: DIANILINE, 4,4'-SULFONYL-
Formula: C12 H12 N2 O2 S
CAS: 80-08-0
State: SOLID (SPLIT MULL)
Melting point: 166 C
Class: COBLENTZ II
Instrument: BECKMAN IR-9 (GRATING)
Instrument parameters: ORDER CHANGES: 670, 1200, 2000 CM^-^1
Sampling: TRANSMISSION
Resolution: 2
Origin: DOW CHEMICAL COMPANY
1/CM	TRANSMITTANCE
397	0.8175
406	0.7328
415	0.6536
424	0.6072
433	0.583
442	0.5828
451	0.5944
460	0.6062
469	0.6186
478	0.6197
487	0.6009
496	0.5781
505	0.5662
514	0.5134
523	0.5425
532	0.4798
541	0.2241
550	0.0794
559	0.1637
568	0.4854
577	0.6545
586	0.6687
595	0.6586
604	0.6578
613	0.6639
622	0.6741
631	0.645
640	0.635
649	0.5382
658	0.6788
667	0.6686
676	0.6371
685	0.5622
694	0.2458
703	0.5395
712	0.6059
721	0.4883
730	0.3166
739	0.3397
748	0.4412
757	0.5266
766	0.5685
775	0.6241
784	0.6739
793	0.709
802	0.7298
811	0.7347
820	0.6728
829	0.2866
838	0.2781
847	0.5775
856	0.7175
865	0.769
874	0.784
883	0.7938
892	0.7987
901	0.8028
910	0.8071
919	0.8068
928	0.8072
937	0.8054
946	0.796
955	0.7735
964	0.7694
973	0.7849
982	0.7953
991	0.7982
1000	0.7889
1009	0.7255
1018	0.764
1027	0.7738
1036	0.769
1045	0.7597
1054	0.7444
1063	0.7135
1072	0.5301
1081	0.6104
1090	0.5974
1099	0.512
1108	0.1709
1117	0.467
1126	0.5848
1135	0.4034
1144	0.0643
1153	0.122
1162	0.6519
1171	0.7634
1180	0.7075
1189	0.7658
1198	0.7908
1207	0.8032
1216	0.7946
1225	0.7826
1234	0.7696
1243	0.7518
1252	0.7208
1261	0.6658
1270	0.4125
1279	0.03
1288	0.3221
1297	0.3128
1306	0.4283
1315	0.6068
1324	0.7394
1333	0.726
1342	0.6668
1351	0.7784
1360	0.8221
1369	0.8352
1378	0.847
1387	0.8558
1396	0.86
1405	0.8616
1414	0.8499
1423	0.8176
1432	0.7131
1441	0.6958
1450	0.8505
1459	0.8611
1468	0.8495
1477	0.8371
1486	0.8032
1495	0.4367
1504	0.4897
1513	0.8189
1522	0.8577
1531	0.8574
1540	0.8468
1549	0.8221
1558	0.7935
1567	0.7448
1576	0.5969
1585	0.3621
1594	0.0674
1603	0.2063
1612	0.6388
1621	0.5975
1630	0.2932
1639	0.2481
1648	0.5217
1657	0.769
1666	0.8602
1675	0.9221
1684	0.9554
1693	0.9652
1702	0.9693
1711	0.9646
1720	0.9613
1729	0.9603
1738	0.9589
1747	0.9512
1756	0.9412
1765	0.9318
1774	0.9253
1783	0.9223
1792	0.9218
1801	0.9224
1810	0.9239
1819	0.9252
1828	0.9218
1837	0.9144
1846	0.9107
1855	0.9091
1864	0.9091
1873	0.9085
1882	0.9062
1891	0.8964
1900	0.8652
1909	0.8647
1918	0.8735
1927	0.8944
1936	0.8974
1945	0.8963
1954	0.8945
1963	0.892
1972	0.8898
1981	0.8868
1990	0.8828
1999	0.8785
2008	0.8858
2017	0.8895
2026	0.8875
2035	0.8847
2044	0.882
2053	0.8797
2062	0.8768
2071	0.873
2080	0.8678
2089	0.8634
2098	0.8599
2107	0.8565
2116	0.8531
2125	0.85
2134	0.8471
2143	0.8434
2152	0.8395
2161	0.8368
2170	0.8347
2179	0.8312
2188	0.8289
2197	0.8258
2206	0.8228
2215	0.8192
2224	0.8148
2233	0.81
2242	0.8039
2251	0.7978
2260	0.7922
2269	0.7867
2278	0.7825
2287	0.7794
2296	0.7761
2305	0.7736
2314	0.7714
2323	0.7692
2332	0.7669
2341	0.7648
2350	0.7634
2359	0.7622
2368	0.7622
2377	0.7625
2386	0.7625
2395	0.7597
2404	0.7555
2413	0.7518
2422	0.7492
2431	0.7491
2440	0.7501
2449	0.7512
2458	0.7524
2467	0.7515
2476	0.7508
2485	0.7491
2494	0.7475
2503	0.7455
2512	0.7434
2521	0.7415
2530	0.7401
2539	0.7385
2548	0.7361
2557	0.7332
2566	0.729
2575	0.7249
2584	0.7208
2593	0.7171
2602	0.7137
2611	0.7105
2620	0.7083
2629	0.7045
2638	0.6967
2647	0.6951
2656	0.6971
2665	0.6907
2674	0.683
2683	0.6815
2692	0.6839
2701	0.684
2710	0.6834
2719	0.6824
2728	0.6815
2737	0.6807
2746	0.6799
2755	0.679
2764	0.6771
2773	0.6754
2782	0.6733
2791	0.6701
2800	0.6672
2809	0.6644
2818	0.6618
2827	0.6592
2836	0.6558
2845	0.6512
2854	0.6464
2863	0.6415
2872	0.6373
2881	0.6345
2890	0.6316
2899	0.6284
2908	0.6253
2917	0.6218
2926	0.6169
2935	0.6131
2944	0.6116
2953	0.6101
2962	0.6088
2971	0.6074
2980	0.6055
2989	0.603
2998	0.5998
3007	0.5945
3016	0.589
3025	0.5796
3034	0.5697
3043	0.5596
3052	0.5596
3061	0.5572
3070	0.5524
3079	0.5619
3088	0.5685
3097	0.5636
3106	0.5619
3115	0.561
3124	0.5597
3133	0.5549
3142	0.5469
3151	0.5383
3160	0.5322
3169	0.5253
3178	0.5175
3187	0.5073
3196	0.4908
3205	0.4694
3214	0.446
3223	0.4223
3232	0.4018
3241	0.3899
3250	0.3864
3259	0.3898
3268	0.4102
3277	0.4264
3286	0.4253
3295	0.4153
3304	0.3936
3313	0.3614
3322	0.3104
3331	0.2579
3340	0.2067
3349	0.1966
3358	0.3017
3367	0.2363
3376	0.1637
3385	0.3462
3394	0.321
3403	0.2784
3412	0.3438
3421	0.4317
3430	0.4731
3439	0.4873
3448	0.4808
3457	0.317
3466	0.2359
3475	0.5344
3484	0.5597
3493	0.5676
3502	0.5718
3511	0.5725
3520	0.5722
3529	0.5712
3538	0.5697
3547	0.5667
3556	0.5624
3565	0.5602
3574	0.5574
3583	0.553
3592	0.5451
3601	0.5414
3610	0.5425
3619	0.5412
3628	0.5395
3637	0.5369
3646	0.5345
3655	0.5324
3664	0.5303
3673	0.5284
3682	0.5266
3691	0.5248
3700	0.5232
3709	0.5216
3718	0.5201
3727	0.5176
3736	0.5151
3745	0.5126
3754	0.5092
3763	0.5057
3772	0.5028
3781	0.5
3790	0.4973
3799	0.4945
