Infrared Spectrum: BENZENE, 1,1'-SULFONYLBIS(4-CHLORO)-
Formula: C12 H8 Cl2 O2 S
CAS: 80-07-9
State: SOLID (SPLIT MULL, FLUOROLUBE FOR 3800-1333 AND NUJOL FOR 1333-450 CM ^-^1)
Class: COBLENTZ III
Instrument: DOW KBr FOREPRISM-GRATING
Instrument parameters: BLAZED AT 3.5, 12.0, 20.0 MICRON, CHANGED AT 5.0, 7.5, 14.9 MICRON
Sampling: TRANSMISSION
Resolution: 4
Origin: DOW CHEMICAL COMPANY
1/CM	TRANSMITTANCE
449.389	0.964
458.115	0.972
466.841	0.956
475.567	0.81
484.293	1.006
493.019	0.869
501.745	0.706
510.471	0.706
519.197	1.05
527.923	1.059
536.649	1.063
545.375	1.059
554.101	1.048
562.827	1.034
571.553	0.937
580.279	0.239
589.005	0.961
597.731	1.016
606.457	1.013
615.183	0.99
623.909	0.794
632.635	0.518
641.361	0.6351
650.087	1.043
658.813	1.051
667.539	1.05
676.265	1.044
684.991	1.035
693.717	1.002
702.443	0.974
711.169	0.986
719.895	0.937
728.621	0.937
737.347	0.927
746.073	0.53
754.8	0.805
763.526	0.545
772.252	0.258
780.978	0.931
789.704	0.998
798.43	0.994
807.156	0.914
815.882	0.929
824.608	0.4499
833.334	0.94
842.06	1
850.786	1.004
859.512	1.006
868.238	1.012
876.964	1.002
885.69	0.994
894.416	0.987
903.142	0.985
911.868	0.98
920.594	0.978
929.32	0.97
938.046	0.961
946.772	0.944
955.498	0.921
964.224	0.948
972.95	0.938
981.676	0.955
990.402	0.953
999.128	0.931
1007.85	0.6356
1016.58	0.937
1025.31	0.957
1034.03	0.949
1042.76	0.933
1051.48	0.912
1060.21	0.8419
1068.94	0.4887
1077.66	0.447
1086.39	0.2819
1095.11	0.5551
1103.84	0.5259
1112.57	0.6921
1121.29	0.933
1130.02	0.91
1138.74	0.81
1147.47	0.5949
1156.2	0.1109
1164.92	0.22
1173.65	0.6661
1182.37	0.823
1191.1	0.891
1199.83	0.908
1208.55	0.919
1217.28	0.926
1226	0.936
1234.73	0.937
1243.46	0.931
1252.18	0.906
1260.91	0.866
1269.63	0.783
1278.36	0.6229
1287.09	0.6681
1295.81	0.877
1304.54	0.835
1313.26	0.738
1321.99	0.485
1330.72	0.182
1339.44	0.861
1348.17	0.91
1356.89	0.952
1365.62	0.975
1374.35	0.967
1383.07	0.941
1391.8	0.8089
1400.52	0.6135
1409.25	0.987
1417.98	0.998
1426.7	1
1435.43	0.997
1444.15	0.975
1452.88	0.927
1461.61	0.906
1470.33	0.8019
1479.06	0.6141
1487.78	1.006
1496.51	1.006
1505.24	1.008
1513.96	1.005
1522.69	0.998
1531.41	0.998
1540.14	0.985
1548.87	0.967
1557.59	0.9119
1566.32	0.814
1575.04	0.711
1583.77	0.5869
1592.5	0.899
1601.22	1.001
1609.95	1.006
1618.67	1.008
1627.4	1.008
1636.13	1.016
1644.85	1.006
1653.58	0.98
1662.31	0.987
1671.03	0.997
1679.76	0.998
1688.48	0.998
1697.21	0.998
1705.94	1
1714.66	0.997
1723.39	0.994
1732.11	0.991
1740.84	0.989
1749.57	0.987
1758.29	0.986
1767.02	0.983
1775.74	0.968
1784.47	0.965
1793.2	0.97
1801.92	0.975
1810.65	0.976
1819.37	0.975
1828.1	0.971
1836.83	0.967
1845.55	0.968
1854.28	0.967
1863	0.97
1871.73	0.97
1880.46	0.968
1889.18	0.968
1897.91	0.964
1906.63	0.955
1915.36	0.915
1924.09	0.938
1932.81	0.963
1941.54	0.965
1950.26	0.965
1958.99	0.965
1967.72	0.96
1976.44	0.957
1985.17	0.957
1993.89	0.96
2002.62	0.9595
2011.35	0.956
2020.07	0.952
2028.8	0.958
2037.52	0.9605
2046.25	0.9525
2054.98	0.953
2063.7	0.95
2072.43	0.9405
2081.15	0.937
2089.88	0.937
2098.61	0.934
2107.33	0.934
2116.06	0.9319
2124.78	0.927
2133.51	0.9239
2142.24	0.922
2150.96	0.9179
2159.69	0.914
2168.41	0.9058
2177.14	0.903
2185.87	0.903
2194.59	0.903
2203.32	0.9013
2212.04	0.8924
2220.77	0.8884
2229.5	0.885
2238.22	0.881
2246.95	0.877
2255.67	0.872
2264.4	0.8662
2273.13	0.8624
2281.85	0.862
2290.58	0.862
2299.3	0.8584
2308.03	0.854
2316.76	0.85
2325.48	0.847
2334.21	0.8466
2342.93	0.8492
2351.66	0.848
2360.39	0.846
2369.11	0.844
2377.84	0.843
2386.56	0.8424
2395.29	0.8445
2404.02	0.8481
2412.74	0.8464
2421.47	0.8447
2430.19	0.843
2438.92	0.84
2447.65	0.84
2456.37	0.838
2465.1	0.8367
2473.82	0.832
2482.55	0.8357
2491.28	0.8373
2500	0.836
2508.73	0.836
2517.45	0.835
2526.18	0.834
2534.91	0.8297
2543.63	0.825
2552.36	0.8203
2561.08	0.816
2569.81	0.813
2578.54	0.814
2587.26	0.816
2595.99	0.817
2604.71	0.8163
2613.44	0.816
2622.17	0.813
2630.89	0.812
2639.62	0.8083
2648.34	0.805
2657.07	0.806
2665.8	0.806
2674.52	0.806
2683.25	0.8043
2691.97	0.804
2700.7	0.804
2709.43	0.801
2718.15	0.7985
2726.88	0.797
2735.6	0.7933
2744.33	0.7933
2753.06	0.791
2761.78	0.791
2770.51	0.791
2779.23	0.787
2787.96	0.786
2796.69	0.785
2805.41	0.785
2814.14	0.7792
2822.86	0.7752
2831.59	0.7717
2840.32	0.7623
2849.04	0.7457
2857.77	0.748
2866.5	0.751
2875.22	0.752
2883.95	0.751
2892.67	0.745
2901.4	0.7376
2910.13	0.7238
2918.85	0.7084
2927.58	0.711
2936.3	0.7188
2945.03	0.725
2953.76	0.726
2962.48	0.727
2971.21	0.7356
2979.93	0.7417
2988.66	0.744
2997.39	0.742
3006.11	0.7402
3014.84	0.7332
3023.56	0.7335
3032.29	0.733
3041.02	0.731
3049.74	0.7291
3058.47	0.7196
3067.19	0.7176
3075.92	0.7171
3084.65	0.6982
3093.37	0.6513
3102.1	0.6699
3110.82	0.722
3119.55	0.718
3128.28	0.717
3137	0.714
3145.73	0.712
3154.45	0.71
3163.18	0.711
3171.91	0.711
3180.63	0.711
3189.36	0.71
3198.08	0.708
3206.81	0.707
3215.54	0.706
3224.26	0.703
3232.99	0.702
3241.71	0.696
3250.44	0.696
3259.17	0.6932
3267.89	0.693
3276.62	0.692
3285.34	0.692
3294.07	0.691
3302.8	0.691
3311.52	0.691
3320.25	0.6871
3328.97	0.682
3337.7	0.6801
3346.43	0.678
3355.15	0.677
3363.88	0.676
3372.6	0.676
3381.33	0.6741
3390.06	0.674
3398.78	0.673
3407.51	0.67
3416.23	0.6661
3424.96	0.6631
3433.69	0.661
3442.41	0.658
3451.14	0.655
3459.86	0.653
3468.59	0.651
3477.32	0.65
3486.04	0.647
3494.77	0.646
3503.49	0.644
3512.22	0.642
3520.95	0.64
3529.67	0.639
3538.4	0.636
3547.12	0.635
3555.85	0.632
3564.58	0.631
3573.3	0.628
3582.03	0.616
3590.75	0.6251
3599.48	0.625
3608.21	0.621
3616.93	0.619
3625.66	0.617
3634.38	0.617
3643.11	0.616
3651.84	0.614
3660.56	0.613
3669.29	0.613
3678.01	0.612
3686.74	0.6119
3695.47	0.6089
3704.19	0.6049
3712.92	0.6039
3721.64	0.602
3730.37	0.601
3739.1	0.5998
3747.82	0.597
3756.55	0.5949
3765.27	0.5939
3774	0.591
3782.73	0.591
