Infrared Spectrum: Ethanol, 1,1-bis(p-chlorophenyl)-
Formula: C14 H12 Cl2 O
CAS: 80-06-8
State: SOLID (COOLED MELT)
Class: COBLENTZ II
Instrument: PERKIN-ELMER 180 (GRATING)
Instrument parameters: GRATINGS: 2000, 1000, 500, 250 CM^-^1; FILTER CHANGE: 2970, 2000, 1485, 1000, 743, 500, 372, 250, 186 CM^-^1.
Sampling: TRANSMISSION
Resolution: 2
Origin: K. K. DEB-NCI FREDERICK CANCER RESEARCH CENTER
1/CM	TRANSMITTANCE
350	0.3618
359	0.4152
368	0.4716
377	0.528
386	0.5879
395	0.636
404	0.6709
413	0.7035
422	0.7327
431	0.7363
440	0.722
449	0.7427
458	0.7489
467	0.7271
476	0.6947
485	0.6522
494	0.661
503	0.6861
512	0.7001
521	0.4782
530	0.4342
539	0.6744
548	0.6222
557	0.575
566	0.6915
575	0.7335
584	0.7245
593	0.6295
602	0.7148
611	0.7562
620	0.7745
629	0.7827
638	0.7905
647	0.8035
656	0.7849
665	0.7971
674	0.8138
683	0.7821
692	0.7658
701	0.8462
710	0.8512
719	0.7788
728	0.6822
737	0.8005
746	0.6236
755	0.8271
764	0.8564
773	0.863
782	0.8516
791	0.8021
800	0.6567
809	0.3019
818	0.2289
827	0.2035
836	0.2532
845	0.4532
854	0.61
863	0.7728
872	0.8224
881	0.8336
890	0.821
899	0.7859
908	0.7067
917	0.4958
926	0.5839
935	0.7276
944	0.7007
953	0.6724
962	0.732
971	0.7964
980	0.8299
989	0.8229
998	0.8008
1007	0.5447
1016	0.1842
1025	0.694
1034	0.6195
1043	0.5735
1052	0.5336
1061	0.4467
1070	0.4375
1079	0.2364
1088	0.0334
1097	0.0344
1106	0.234
1115	0.2912
1124	0.297
1133	0.3708
1142	0.4446
1151	0.5183
1160	0.5725
1169	0.4966
1178	0.4771
1187	0.487
1196	0.5618
1205	0.6305
1214	0.6027
1223	0.5529
1232	0.5724
1241	0.5971
1250	0.617
1259	0.6958
1268	0.7404
1277	0.7113
1286	0.6981
1295	0.7021
1304	0.6662
1313	0.6873
1322	0.6592
1331	0.6318
1340	0.6431
1349	0.557
1358	0.5418
1367	0.5529
1376	0.5285
1385	0.5943
1394	0.4739
1403	0.3149
1412	0.5637
1421	0.7205
1430	0.7668
1439	0.7343
1448	0.6293
1457	0.5501
1466	0.576
1475	0.5312
1484	0.2443
1493	0.1464
1502	0.5802
1511	0.6989
1520	0.8292
1529	0.8727
1538	0.8785
1547	0.8815
1556	0.8845
1565	0.8747
1574	0.7827
1583	0.8235
1592	0.7462
1601	0.739
1610	0.8522
1619	0.8701
1628	0.8674
1637	0.8569
1646	0.8471
1655	0.8453
1664	0.8492
1673	0.8651
1682	0.8852
1691	0.8991
1700	0.9061
1709	0.9096
1718	0.9103
1727	0.9099
1736	0.9087
1745	0.9073
1754	0.9044
1763	0.8999
1772	0.8926
1781	0.8839
1790	0.8891
1799	0.9039
1808	0.911
1817	0.9142
1826	0.9155
1835	0.9143
1844	0.9159
1853	0.9181
1862	0.9157
1871	0.91
1880	0.8985
1889	0.8792
1898	0.8575
1907	0.8345
1916	0.8592
1925	0.8848
1934	0.8972
1943	0.9027
1952	0.9039
1961	0.9024
1970	0.9055
1979	0.9085
1988	0.9106
1997	0.9123
2006	0.9136
2015	0.9141
2024	0.9145
2033	0.9149
2042	0.9153
2051	0.9156
2060	0.916
2069	0.9163
2078	0.9164
2087	0.9165
2096	0.9165
2105	0.9166
2114	0.9167
2123	0.9163
2132	0.9159
2141	0.9154
2150	0.915
2159	0.9145
2168	0.9141
2177	0.9136
2186	0.9131
2195	0.9125
2204	0.9121
2213	0.9115
2222	0.911
2231	0.9105
2240	0.9105
2249	0.9105
2258	0.9105
2267	0.9104
2276	0.9104
2285	0.9103
2294	0.9098
2303	0.9092
2312	0.9112
2321	0.9138
2330	0.9165
2339	0.9167
2348	0.9156
2357	0.9141
2366	0.9123
2375	0.9113
2384	0.9103
2393	0.9097
2402	0.9098
2411	0.9098
2420	0.9099
2429	0.91
2438	0.9098
2447	0.9094
2456	0.9091
2465	0.9085
2474	0.9075
2483	0.9064
2492	0.9049
2501	0.9032
2510	0.9017
2519	0.9001
2528	0.8986
2537	0.897
2546	0.8959
2555	0.8951
2564	0.8943
2573	0.8942
2582	0.8942
2591	0.895
2600	0.8964
2609	0.8984
2618	0.9008
2627	0.9028
2636	0.9042
2645	0.9031
2654	0.8994
2663	0.8955
2672	0.8918
2681	0.8881
2690	0.8838
2699	0.8794
2708	0.8751
2717	0.8711
2726	0.8675
2735	0.8645
2744	0.8632
2753	0.8617
2762	0.86
2771	0.8567
2780	0.8513
2789	0.846
2798	0.8392
2807	0.8304
2816	0.8185
2825	0.8032
2834	0.7814
2843	0.7498
2852	0.6753
2861	0.581
2870	0.4867
2879	0.4895
2888	0.5136
2897	0.5074
2906	0.4958
2915	0.4892
2924	0.4739
2933	0.4643
2942	0.5199
2951	0.508
2960	0.4888
2969	0.4828
2978	0.5143
2987	0.606
2996	0.6977
3005	0.7894
3014	0.8259
3023	0.8268
3032	0.7944
3041	0.7965
3050	0.7971
3059	0.7766
3068	0.7737
3077	0.777
3086	0.7844
3095	0.7979
3104	0.8098
3113	0.8167
3122	0.8183
3131	0.8149
3140	0.8118
3149	0.8041
3158	0.7962
3167	0.7874
3176	0.7781
3185	0.7667
3194	0.7555
3203	0.7389
3212	0.7226
3221	0.7076
3230	0.6934
3239	0.6819
3248	0.6704
3257	0.6575
3266	0.6426
3275	0.6273
3284	0.6099
3293	0.5925
3302	0.5739
3311	0.5553
3320	0.5376
3329	0.5198
3338	0.505
3347	0.4905
3356	0.4765
3365	0.4639
3374	0.4566
3383	0.4506
3392	0.4464
3401	0.4452
3410	0.4458
3419	0.4468
3428	0.4497
3437	0.4563
3446	0.4671
3455	0.4806
3464	0.499
3473	0.5267
3482	0.5521
3491	0.5769
3500	0.6018
3509	0.6266
3518	0.6515
3527	0.6771
3536	0.7028
3545	0.7094
3554	0.7081
3563	0.6971
3572	0.6855
3581	0.682
3590	0.7021
3599	0.748
3608	0.794
3617	0.839
3626	0.8659
3635	0.8765
3644	0.8805
3653	0.8819
3662	0.8839
3671	0.8866
3680	0.8946
3689	0.9002
3698	0.9012
3707	0.9001
3716	0.8987
3725	0.8979
3734	0.9003
3743	0.9031
3752	0.9035
3761	0.9034
3770	0.9022
3779	0.9011
3788	0.901
3797	0.9042
3806	0.9077
