Infrared Spectrum: Benzoic acid, p-(dichlorosulfamoyl)-,
Formula: C7 H5 Cl2 N O4 S
CAS: 80-13-7
State: SOLID (NUJOL MULL)
Class: COBLENTZ III
Instrument: PERKIN-ELMER 21 (GRATING)
Instrument parameters: FILTER AT ABOUT 10 MICRONS
Resolution: 2
Origin: ABBOTT LABORATORIES
1/CM	TRANSMITTANCE
651	0.6134
660	0.6234
669	0.6662
678	0.5989
687	0.6147
696	0.6962
705	0.5427
714	0.255
723	0.5955
732	0.6945
741	0.6895
750	0.557
759	0.4054
768	0.5739
777	0.4929
786	0.5865
795	0.7101
804	0.7281
813	0.7217
822	0.6503
831	0.7418
840	0.7176
849	0.7333
858	0.6836
867	0.7177
876	0.7467
885	0.7102
894	0.6607
903	0.5991
912	0.5189
921	0.479
930	0.5116
939	0.5853
948	0.6499
957	0.6876
966	0.6961
975	0.6639
984	0.7056
993	0.6939
1002	0.6965
1011	0.5376
1020	0.7279
1029	0.7274
1038	0.7257
1047	0.7193
1056	0.7078
1065	0.6837
1074	0.514
1083	0.6309
1092	0.6827
1101	0.663
1110	0.5064
1119	0.4848
1128	0.6296
1137	0.6396
1146	0.5924
1155	0.5005
1164	0.2793
1173	0.0991
1182	0.2961
1191	0.6404
1200	0.6205
1209	0.6207
1218	0.6693
1227	0.6489
1236	0.6114
1245	0.5951
1254	0.5475
1263	0.4922
1272	0.374
1281	0.134
1290	0.1554
1299	0.3332
1308	0.2699
1317	0.5392
1326	0.5749
1335	0.5512
1344	0.5311
1353	0.4048
1362	0.2553
1371	0.0632
1380	0.2961
1389	0.4749
1398	0.4063
1407	0.5106
1416	0.3848
1425	0.2174
1434	0.2695
1443	0.3229
1452	0.2542
1461	0.28
1470	0.5592
1479	0.5971
1488	0.6484
1497	0.7158
1506	0.718
1515	0.7154
1524	0.7111
1533	0.688
1542	0.6767
1551	0.6444
1560	0.603
1569	0.5144
1578	0.6869
1587	0.6965
1596	0.6401
1605	0.6717
1614	0.6572
1623	0.642
1632	0.6077
1641	0.5746
1650	0.5389
1659	0.5049
1668	0.3806
1677	0.2413
1686	0.107
1695	0.1009
1704	0.4249
1713	0.6341
1722	0.6741
1731	0.7228
1740	0.7376
1749	0.7419
1758	0.7377
1767	0.7319
1776	0.7299
1785	0.7309
1794	0.7294
1803	0.7173
1812	0.7165
1821	0.7202
1830	0.7296
1839	0.735
1848	0.7353
1857	0.7345
1866	0.7325
1875	0.7305
1884	0.7283
1893	0.7263
1902	0.7238
1911	0.7208
1920	0.7172
1929	0.7131
1938	0.7052
1947	0.7154
1956	0.7257
1965	0.7225
1974	0.7171
1983	0.7158
1992	0.7192
2001	0.7188
2010	0.7163
2019	0.7135
2028	0.7103
2037	0.7064
2046	0.7016
2055	0.6965
2064	0.693
2073	0.6898
2082	0.687
2091	0.6846
2100	0.6825
2109	0.6806
2118	0.6783
2127	0.676
2136	0.6737
2145	0.6714
2154	0.6691
2163	0.6645
2172	0.6576
2181	0.6521
2190	0.6507
2199	0.6505
2208	0.649
2217	0.646
2226	0.6421
2235	0.6374
2244	0.6317
2253	0.6256
2262	0.6182
2271	0.6109
2280	0.6036
2289	0.5965
2298	0.5888
2307	0.5811
2316	0.5743
2325	0.567
2334	0.5636
2343	0.5634
2352	0.5636
2361	0.5627
2370	0.5545
2379	0.5401
2388	0.5284
2397	0.5179
2406	0.5092
2415	0.5011
2424	0.493
2433	0.4847
2442	0.476
2451	0.4655
2460	0.4552
2469	0.4457
2478	0.4363
2487	0.4261
2496	0.4142
2505	0.3927
2514	0.3851
2523	0.3851
2532	0.3895
2541	0.396
2550	0.404
2559	0.4122
2568	0.4155
2577	0.4141
2586	0.4108
2595	0.4041
2604	0.3969
2613	0.3889
2622	0.3782
2631	0.3755
2640	0.3792
2649	0.3856
2658	0.3933
2667	0.4017
2676	0.4093
2685	0.4146
2694	0.417
2703	0.4174
2712	0.4168
2721	0.4146
2730	0.4111
2739	0.4056
2748	0.3972
2757	0.379
2766	0.362
2775	0.3427
2784	0.3209
2793	0.2995
2802	0.2097
2811	0.1109
2820	0.0872
2829	0.0658
2838	0.0551
2847	0.0498
2856	0.046
2865	0.0433
2874	0.0412
2883	0.0394
2892	0.0378
2901	0.0363
2910	0.0352
2919	0.0359
2928	0.0399
2937	0.0581
2946	0.099
2955	0.1408
2964	0.1823
2973	0.2236
2982	0.2647
2991	0.2841
3000	0.2906
3009	0.3376
3018	0.3485
3027	0.3566
3036	0.3644
3045	0.3712
3054	0.3742
3063	0.3648
3072	0.3549
3081	0.3612
3090	0.3879
3099	0.4137
3108	0.4332
3117	0.4453
3126	0.4604
3135	0.4758
3144	0.4887
3153	0.4973
3162	0.5057
3171	0.513
3180	0.5195
3189	0.5262
3198	0.5335
3207	0.5398
3216	0.5468
3225	0.5543
3234	0.5597
3243	0.5642
3252	0.5678
3261	0.5697
3270	0.571
3279	0.572
3288	0.5723
3297	0.5723
3306	0.5723
3315	0.5722
3324	0.5721
3333	0.572
3342	0.5718
3351	0.5715
3360	0.5713
3369	0.571
3378	0.5708
3387	0.5705
3396	0.5699
3405	0.5693
3414	0.5687
3423	0.5682
3432	0.5675
3441	0.5669
3450	0.5662
3459	0.5656
3468	0.5649
3477	0.5643
3486	0.5636
3495	0.5628
3504	0.562
3513	0.5612
3522	0.5604
3531	0.5596
3540	0.5587
3549	0.5579
3558	0.5567
3567	0.5555
3576	0.5543
3585	0.5531
3594	0.5519
3603	0.5508
3612	0.5495
3621	0.5479
3630	0.5464
3639	0.5449
3648	0.5433
3657	0.5419
3666	0.5403
3675	0.5385
3684	0.5368
3693	0.5351
3702	0.5334
3711	0.5317
3720	0.5301
3729	0.5284
3738	0.5267
3747	0.5251
3756	0.5235
3765	0.5218
3774	0.5202
3783	0.5186
3792	0.517
3801	0.5156
3810	0.5142
3819	0.5128
3828	0.5114
3837	0.51
3846	0.5087
3855	0.5074
3864	0.506
3873	0.5044
3882	0.5026
3891	0.5008
3900	0.499
3909	0.4972
3918	0.4954
3927	0.4937
3936	0.4918
3945	0.4901
3954	0.4884
3963	0.4866
3972	0.4848
3981	0.4831
3990	0.4814
3999	0.4797
