Infrared Spectrum: SILANE, DICHLORO-DIPHENYL-
Formula: C12 H10 Cl2 Si
CAS: 80-10-4
State: SOLUTION (CCl4 FOR 3800-2000, CS2 FOR 2000-450 CM^-^1)
Boiling point: 304 C
Class: COBLENTZ III
Instrument: DOW KBr FOREPRISM-GRATING
Instrument parameters: BLAZED AT 3.5, 12.0, 20.0 MICRON AND CHANGED AT 5.0, 7.5, 14.9 MICRON
Sampling: TRANSMISSION
Path length: 0.011 CM, 0.011 CM
Resolution: 2
Origin: DOW CHEMICAL COMPANY
1/CM	TRANSMITTANCE
3800	0.8721
3791	0.8757
3782	0.8792
3773	0.8813
3764	0.8797
3755	0.8752
3746	0.8795
3737	0.8817
3728	0.8815
3719	0.8811
3710	0.8809
3701	0.8795
3692	0.8746
3683	0.8709
3674	0.8727
3665	0.8754
3656	0.8765
3647	0.876
3638	0.8739
3629	0.8714
3620	0.871
3611	0.8728
3602	0.8747
3593	0.8765
3584	0.8781
3575	0.8795
3566	0.881
3557	0.8823
3548	0.8833
3539	0.8842
3530	0.885
3521	0.8851
3512	0.8852
3503	0.8853
3494	0.8853
3485	0.8852
3476	0.8851
3467	0.885
3458	0.8849
3449	0.8847
3440	0.8845
3431	0.8839
3422	0.8835
3413	0.8833
3404	0.8832
3395	0.8831
3386	0.8833
3377	0.8836
3368	0.884
3359	0.8844
3350	0.8848
3341	0.8846
3332	0.8845
3323	0.8842
3314	0.884
3305	0.8836
3296	0.8832
3287	0.8828
3278	0.8825
3269	0.8821
3260	0.8818
3251	0.8816
3242	0.8814
3233	0.8812
3224	0.8811
3215	0.8808
3206	0.8801
3197	0.8787
3188	0.8771
3179	0.8763
3170	0.8761
3161	0.8753
3152	0.8749
3143	0.8501
3134	0.8348
3125	0.8557
3116	0.8638
3107	0.8556
3098	0.7811
3089	0.7189
3080	0.6594
3071	0.5618
3062	0.5817
3053	0.5188
3044	0.7118
3035	0.7107
3026	0.7384
3017	0.7051
3008	0.7328
2999	0.736
2990	0.8321
2981	0.8499
2972	0.8597
2963	0.8637
2954	0.8661
2945	0.8667
2936	0.8644
2927	0.8607
2918	0.8575
2909	0.8625
2900	0.8678
2891	0.8727
2882	0.8758
2873	0.8785
2864	0.8787
2855	0.8705
2846	0.8707
2837	0.8734
2828	0.8712
2819	0.8736
2810	0.8768
2801	0.8792
2792	0.8804
2783	0.8809
2774	0.881
2765	0.8805
2756	0.8801
2747	0.8803
2738	0.8807
2729	0.8798
2720	0.879
2711	0.8735
2702	0.8647
2693	0.861
2684	0.8735
2675	0.8758
2666	0.8773
2657	0.8789
2648	0.8804
2639	0.8806
2630	0.8807
2621	0.872
2612	0.8737
2603	0.8738
2594	0.8711
2585	0.8705
2576	0.8778
2567	0.877
2558	0.8768
2549	0.8775
2540	0.8764
2531	0.8737
2522	0.8745
2513	0.8759
2504	0.8771
2495	0.8784
2486	0.8788
2477	0.8792
2468	0.8795
2459	0.8795
2450	0.8795
2441	0.8798
2432	0.8792
2423	0.8787
2414	0.8787
2405	0.8787
2396	0.8783
2387	0.8768
2378	0.8751
2369	0.8704
2360	0.865
2351	0.8653
2342	0.8662
2333	0.8666
2324	0.8604
2315	0.8634
2306	0.8666
2297	0.8688
2288	0.8702
2279	0.8706
2270	0.8704
2261	0.8691
2252	0.8685
2243	0.8664
2234	0.8588
2225	0.857
2216	0.8624
2207	0.8658
2198	0.8665
2189	0.8668
2180	0.8671
2171	0.8675
2162	0.8678
2153	0.868
2144	0.8678
2135	0.8678
2126	0.8678
2117	0.868
2108	0.8683
2099	0.8686
2090	0.869
2081	0.8696
2072	0.8702
2063	0.8705
2054	0.8709
2045	0.8716
2036	0.8721
2027	0.872
2018	0.8727
2009	0.8732
2000	0.8723
1991	0.8858
1982	0.8548
1973	0.8136
1964	0.8363
1955	0.7711
1946	0.8485
1937	0.8591
1928	0.8623
1919	0.8597
1910	0.8048
1901	0.8247
1892	0.7718
1883	0.8168
1874	0.8521
1865	0.8598
1856	0.8596
1847	0.8561
1838	0.8292
1829	0.8303
1820	0.75
1811	0.8147
1802	0.8511
1793	0.8615
1784	0.8571
1775	0.8408
1766	0.8271
1757	0.8563
1748	0.8651
1739	0.8677
1730	0.8668
1721	0.8675
1712	0.8651
1703	0.8654
1694	0.8599
1685	0.8582
1676	0.8621
1667	0.8438
1658	0.8083
1649	0.8496
1640	0.8631
1631	0.8628
1622	0.8539
1613	0.8408
1604	0.8578
1595	0.7553
1586	0.7815
1577	0.8586
1568	0.8643
1559	0.8895
1550	0.8905
1541	0.8811
1532	0.8862
1523	0.882
1514	0.8793
1505	0.865
1496	0.8595
1487	0.6489
1478	0.8418
1469	0.8478
1460	0.848
1451	0.8397
1442	0.7969
1433	0.0273
1424	0.6749
1415	0.819
1406	0.8433
1397	0.8471
1388	0.8473
1379	0.7768
1370	0.8512
1361	0.8684
1352	0.8674
1343	0.7745
1334	0.7183
1325	0.8046
1316	0.8169
1307	0.7296
1298	0.7804
1289	0.8283
1280	0.8387
1271	0.8185
1262	0.8075
1253	0.8481
1244	0.8583
1235	0.869
1226	0.8791
1217	0.8746
1208	0.8556
1199	0.8221
1190	0.6538
1181	0.7668
1172	0.8018
1163	0.789
1154	0.7508
1145	0.7285
1136	0.671
1127	0.3828
1118	0.1337
1109	0.0795
1100	0.7248
1091	0.7811
1082	0.8168
1073	0.8236
1064	0.8026
1055	0.8323
1046	0.8455
1037	0.8431
1028	0.7578
1019	0.8358
1010	0.8381
1001	0.7951
992	0.8076
983	0.8275
974	0.8431
965	0.842
956	0.8555
947	0.8507
938	0.8547
929	0.8559
920	0.8381
911	0.834
902	0.848
893	0.8531
884	0.8567
875	0.8548
866	0.8524
857	0.844
848	0.8293
839	0.8384
830	0.8475
821	0.846
812	0.8493
803	0.8492
794	0.8456
785	0.8397
776	0.8255
767	0.822
758	0.8065
749	0.758
740	0.0817
731	0.5615
722	0.236
713	0.3129
704	0.2491
695	0.012
686	0.4345
677	0.6289
668	0.7517
659	0.8024
650	0.8053
641	0.8146
632	0.7872
623	0.3264
614	0.7544
605	0.6728
596	0.586
587	0.3364
578	0.001
569	0.1315
560	0.4935
551	0.5362
542	0.0002
533	0.501
524	0.7078
515	0.7491
506	0.7361
497	0.5924
488	0.1015
479	0.2695
470	0.6183
461	0.658
452	0.6695
