Infrared Spectrum: N-METHYL-N-NITROSO, P-TOLUENE SULFONAMIDE
Formula: C8 H10 N2 O3 S
CAS: 80-11-5
State: SOLID
Melting point: 59-61 C
Class: COBLENTZ
Instrument: Not specified, most likely a prism, grating, or hybrid spectrometer.
Sampling: TRANSMISSION
Resolution: 4
Origin: WYANDOTTE CHEMICALS CORP., WYANDOTTE, MICHIGAN, USA
MICROMETERS	TRANSMITTANCE
2.001	0.972
2.03992	0.962
2.07884	0.957
2.11776	0.953
2.15668	0.941
2.1956	0.936
2.23451	0.941
2.27343	0.944
2.31235	0.941
2.35127	0.933
2.39019	0.944
2.42911	0.949
2.46803	0.943
2.50695	0.944
2.54587	0.962
2.58479	0.951
2.6237	0.961
2.66262	0.949
2.70154	0.925
2.74046	0.901
2.77938	0.87
2.8183	0.86
2.85722	0.846
2.89614	0.843
2.93506	0.818
2.97398	0.771
3.01289	0.747
3.05181	0.781
3.09073	0.799
3.12965	0.783
3.16857	0.76
3.20749	0.697
3.24641	0.642
3.28533	0.64
3.32425	0.58
3.36317	0.585
3.40208	0.627
3.441	0.673
3.47992	0.692
3.51884	0.75
3.55776	0.762
3.59668	0.77
3.6356	0.775
3.67452	0.786
3.71344	0.789
3.75236	0.799
3.79127	0.8
3.83019	0.794
3.86911	0.797
3.90803	0.813
3.94695	0.823
3.98587	0.83
4.02479	0.849
4.06371	0.855
4.10263	0.852
4.14155	0.854
4.18046	0.851
4.21938	0.839
4.2583	0.836
4.29722	0.852
4.33614	0.873
4.37506	0.867
4.41398	0.849
4.4529	0.841
4.49182	0.844
4.53074	0.859
4.56966	0.865
4.60857	0.872
4.64749	0.87
4.68641	0.878
4.72533	0.888
4.76425	0.891
4.80317	0.899
4.84209	0.898
4.88101	0.901
4.91993	0.901
4.95885	0.898
4.99776	0.901
5.03668	0.888
5.0756	0.883
5.11452	0.883
5.15344	0.88
5.19236	0.825
5.23128	0.805
5.2702	0.849
5.30912	0.836
5.34804	0.813
5.38695	0.812
5.42587	0.813
5.46479	0.83
5.50371	0.838
5.54263	0.812
5.58155	0.843
5.62047	0.834
5.65939	0.799
5.69831	0.797
5.73723	0.804
5.77614	0.818
5.81506	0.815
5.85398	0.818
5.8929	0.799
5.93182	0.794
5.97074	0.768
6.00966	0.755
6.04858	0.763
6.0875	0.749
6.12642	0.734
6.16533	0.551
6.20425	0.375
6.24317	0.624
6.28209	0.702
6.32101	0.708
6.35993	0.718
6.39885	0.676
6.43777	0.645
6.47669	0.508
6.51561	0.38
6.55452	0.239
6.59344	0.194
6.63236	0.186
6.67128	0.38
6.7102	0.425
6.74912	0.404
6.78804	0.365
6.82696	0.365
6.86588	0.409
6.9048	0.422
6.94372	0.444
6.98263	0.441
7.02155	0.344
7.06047	0.247
7.09939	0.245
7.13831	0.252
7.17723	0.145
7.21615	0.106
7.25507	0.14
7.29399	0.153
7.33291	0.182
7.37182	0.291
7.41074	0.372
7.44966	0.415
7.48858	0.49
7.5275	0.563
7.56642	0.61
7.60534	0.53
7.64426	0.509
7.68318	0.477
7.7221	0.558
7.76101	0.639
7.79993	0.647
7.83885	0.618
7.87777	0.579
7.91669	0.545
7.95561	0.527
7.99453	0.504
8.03345	0.456
8.07237	0.362
8.11129	0.228
8.1502	0.203
8.18912	0.236
8.22804	0.266
8.26696	0.242
8.30588	0.169
8.3448	0.085
8.38372	0.077
8.42264	0.074
8.46156	0.048
8.50048	0.045
8.53939	0.058
8.57831	0.067
8.61723	0.092
8.65615	0.11
8.69507	0.129
8.73399	0.134
8.77291	0.152
8.81183	0.158
8.85075	0.165
8.88967	0.152
8.92858	0.236
8.9675	0.26
9.00642	0.245
9.04534	0.195
9.08426	0.173
9.12318	0.152
9.1621	0.182
9.20102	0.288
9.23994	0.415
9.27886	0.48
9.31778	0.504
9.35669	0.53
9.39561	0.551
9.43453	0.555
9.47345	0.529
9.51237	0.478
9.55129	0.43
9.59021	0.412
9.62913	0.436
9.66805	0.495
9.70697	0.529
9.74588	0.498
9.7848	0.419
9.82372	0.422
9.86264	0.368
9.90156	0.349
9.94048	0.31
9.9794	0.276
10.0183	0.249
10.0572	0.257
10.0962	0.296
10.1351	0.346
10.174	0.401
10.2129	0.446
10.2518	0.466
10.2908	0.496
10.3297	0.535
10.3686	0.55
10.4075	0.567
10.4464	0.567
10.4853	0.58
10.5243	0.597
10.5632	0.605
10.6021	0.613
10.641	0.613
10.6799	0.603
10.7189	0.587
10.7578	0.569
10.7967	0.546
10.8356	0.524
10.8745	0.491
10.9135	0.482
10.9524	0.462
10.9913	0.443
11.0302	0.423
11.0691	0.396
11.108	0.378
11.147	0.341
11.1859	0.318
11.2248	0.291
11.2637	0.273
11.3026	0.258
11.3416	0.233
11.3805	0.215
11.4194	0.205
11.4583	0.194
11.4972	0.187
11.5362	0.176
11.5751	0.173
11.614	0.169
11.6529	0.165
11.6918	0.163
11.7308	0.168
11.7697	0.171
11.8086	0.179
11.8475	0.19
11.8864	0.2
11.9253	0.21
11.9643	0.207
12.0032	0.208
12.0421	0.221
12.081	0.229
12.1199	0.202
12.1589	0.153
12.1978	0.111
12.2367	0.103
12.2756	0.11
12.3145	0.129
12.3535	0.16
12.3924	0.208
12.4313	0.283
12.4702	0.334
12.5091	0.38
12.5481	0.417
12.587	0.454
12.6259	0.521
12.6648	0.567
12.7037	0.585
12.7426	0.579
12.7816	0.545
12.8205	0.483
12.8594	0.427
12.8983	0.375
12.9372	0.359
12.9762	0.341
13.0151	0.338
13.054	0.344
13.0929	0.38
13.1318	0.444
13.1708	0.506
13.2097	0.576
13.2486	0.652
13.2875	0.707
13.3264	0.754
13.3654	0.783
13.4043	0.804
13.4432	0.822
13.4821	0.833
13.521	0.843
13.5599	0.844
13.5989	0.838
13.6378	0.825
13.6767	0.813
13.7156	0.799
13.7545	0.781
13.7935	0.763
13.8324	0.754
13.8713	0.744
13.9102	0.749
13.9491	0.747
13.9881	0.731
14.027	0.7
14.0659	0.645
14.1048	0.582
14.1437	0.488
14.1827	0.406
14.2216	0.32
14.2605	0.302
14.2994	0.375
14.3383	0.453
14.3772	0.542
14.4162	0.579
14.4551	0.576
14.494	0.532
14.5329	0.496
14.5718	0.444
14.6108	0.415
14.6497	0.364
14.6886	0.351
14.7275	0.331
14.7664	0.32
14.8054	0.304
14.8443	0.284
14.8832	0.273
14.9221	0.254
14.961	0.26
15	0.281
15.0389	0.309
15.0778	0.292
15.1167	0.271
15.1556	0.27
15.1945	0.281
15.2335	0.305
15.2724	0.33
15.3113	0.357
15.3502	0.393
15.3891	0.432
15.4281	0.469
15.467	0.498
15.5059	0.532
15.5448	0.556
15.5837	0.6
15.6227	0.616
15.6616	0.632
15.7005	0.639
15.7394	0.647
15.7783	0.647
15.8173	0.65
15.8562	0.652
15.8951	0.658
15.934	0.663
15.9729	0.661
