Infrared Spectrum: N',n-Butyl-3-amino-4-methoxybenzenesulfon
Formula: C 11 H 18 N 2 O 3 S
CAS: 80-22-8
State: gas
Instrument: HP-GC/MS/IRD
Origin: NIST Mass Spectrometry Data Center
1/CM	ABSORBANCE
550	0.00741
562	0.0102904
574	0.013756
586	0.0274664
598	0.0136724
610	0.0076988
622	0.0118104
634	0.00798
646	0.006992
658	0.0116812
670	0.01235
682	0.0069388
694	0.0047272
706	0.00418
718	0.0046132
730	0.0056088
742	0.0058064
754	0.0074404
766	0.007372
778	0.0079572
790	0.008588
802	0.0090516
814	0.00646
826	0.0056392
838	0.0058368
850	0.0043548
862	0.0040356
874	0.0047272
886	0.0039444
898	0.0022572
910	0.0031844
922	0.0068628
934	0.0032984
946	0.001938
958	0.0019836
970	0.0024852
982	0.001786
994	0.0012768
1006	0.0024168
1018	0.0064676
1030	0.0108452
1042	0.0077976
1054	0.0085272
1066	0.0157168
1078	0.0220628
1090	0.015466
1102	0.0108984
1114	0.0057532
1126	0.0055176
1138	0.0115824
1150	0.0346636
1162	0.076
1174	0.0256804
1186	0.0078432
1198	0.0048944
1210	0.0079572
1222	0.0214472
1234	0.0252092
1246	0.009576
1258	0.0102752
1270	0.0284012
1282	0.0339948
1294	0.0101156
1306	0.005776
1318	0.0065208
1330	0.01102
1342	0.0188328
1354	0.02375
1366	0.0161576
1378	0.009918
1390	0.010716
1402	0.0172368
1414	0.02223
1426	0.017936
1438	0.0109744
1450	0.0101536
1462	0.0094316
1474	0.0115368
1486	0.0138548
1498	0.027246
1510	0.0327104
1522	0.0101232
1534	0.0034656
1546	0.0020672
1558	0.0023028
1570	0.0044308
1582	0.0089452
1594	0.0105564
1606	0.0138168
1618	0.018316
1630	0.0096216
1642	0.0037924
1654	0.0016264
1666	0.0007676
1678	0.0003572
1690	0.000152
1702	0.0001444
1714	0.0002432
1726	0.0002584
1738	0.0002128
1750	0.000114
1762	2.28e-05
1774	0
1786	6.84e-05
1798	4.56e-05
1810	9.88e-05
1822	0.0002432
1834	0.0004408
1846	0.000456
1858	0.0003572
1870	0.0002964
1882	0.0003648
1894	0.0004332
1906	0.0004484
1918	0.0004332
1930	0.0004332
1942	0.0004712
1954	0.000532
1966	0.0006688
1978	0.000912
1990	0.0010564
2002	0.0010032
2014	0.0010184
2026	0.0011552
2038	0.0012616
2050	0.001216
2062	0.001178
2074	0.0011096
2086	0.0011248
2098	0.001102
2110	0.0011172
2122	0.0011248
2134	0.0011856
2146	0.0012312
2158	0.0012616
2170	0.0013224
2182	0.0013224
2194	0.00133
2206	0.0013452
2218	0.001368
2230	0.0014136
2242	0.0014896
2254	0.0016188
2266	0.001558
2278	0.0013984
2290	0.0013224
2302	0.0013072
2314	0.0013148
2326	0.0013376
2338	0.0013224
2350	0.00133
2362	0.0012616
2374	0.001254
2386	0.001254
2398	0.0012616
2410	0.0012692
2422	0.0013148
2434	0.0013376
2446	0.001368
2458	0.0013224
2470	0.0013376
2482	0.0014136
2494	0.0015428
2506	0.001634
2518	0.0016264
2530	0.001596
2542	0.001748
2554	0.0017936
2566	0.0017252
2578	0.0015884
2590	0.0014896
2602	0.0015504
2614	0.00152
2626	0.0016112
2638	0.0016188
2650	0.0016948
2662	0.0017632
2674	0.001748
2686	0.001748
2698	0.0016948
2710	0.0016568
2722	0.0017404
2734	0.0018012
2746	0.001824
2758	0.0018088
2770	0.0019076
2782	0.0019836
2794	0.002166
2806	0.002546
2818	0.0031008
2830	0.0040812
2842	0.0069388
2854	0.0088084
2866	0.0093708
2878	0.0112632
2890	0.0114912
2902	0.0107236
2914	0.013452
2926	0.0176852
2938	0.0227924
2950	0.024358
2962	0.0228608
2974	0.0208544
2986	0.0109288
2998	0.0078128
3010	0.0087324
3022	0.0051148
3034	0.0036708
3046	0.0034428
3058	0.0033516
3070	0.0035264
3082	0.0030704
3094	0.0026828
3106	0.0022952
3118	0.0019836
3130	0.0017632
3142	0.0016948
3154	0.00171
3166	0.001748
3178	0.0018164
3190	0.0018012
3202	0.0017176
3214	0.0015884
3226	0.0015048
3238	0.001406
3250	0.0013528
3262	0.0013072
3274	0.0012616
3286	0.0013148
3298	0.0013224
3310	0.001292
3322	0.0013376
3334	0.0013832
3346	0.0014668
3358	0.0016948
3370	0.0020596
3382	0.0028652
3394	0.0047196
3406	0.008246
3418	0.0107692
3430	0.005624
3442	0.0029868
3454	0.0021584
3466	0.0020748
3478	0.0023256
3490	0.0031692
3502	0.0049476
3514	0.0056468
3526	0.0027588
3538	0.0017328
3550	0.0014972
3562	0.0013452
3574	0.0012844
3586	0.0013376
3598	0.0013452
3610	0.001368
3622	0.001292
3634	0.0013376
3646	0.0013376
3658	0.0012768
3670	0.00133
3682	0.0012996
3694	0.0013224
3706	0.0013604
3718	0.001368
3730	0.0014136
3742	0.0013148
3754	0.001368
3766	0.0013604
3778	0.0013528
3790	0.0014288
3802	0.001444
3814	0.0013832
3826	0.0014592
3838	0.0014364
