Infrared Spectrum: P-CHLOROPHENYL P-CHLOROBENZENESULFONATE
Formula: C12 H8 Cl2 O3 S
CAS: 80-33-1
State: SOLUTION (10% CCl4 FOR 3800-1330, 10% CS2 FOR 1330-450 CM^-^1)
Class: COBLENTZ
Instrument: Not specified, most likely a prism, grating, or hybrid spectrometer.
Sampling: TRANSMISSION
Path length: 0.0114 CM, 0.0108 CM
Resolution: 4
Origin: DOW CHEMICAL COMPANY
1/CM	TRANSMITTANCE
448.513	0.812
457.666	0.794
466.82	0.6611
475.973	0.679
485.126	0.2532
494.28	0.48
503.433	0.6453
512.586	0.8537
521.74	0.934
530.893	0.962
540.046	0.952
549.2	0.8061
558.353	0.773
567.506	0.3543
576.66	0.5349
585.813	0.893
594.966	0.921
604.12	0.7071
613.273	0.281
622.426	0.505
631.58	0.6019
640.733	0.7565
649.887	0.7101
659.04	0.239
668.193	0.76
677.347	0.93
686.5	0.957
695.653	0.957
704.807	0.8841
713.96	0.524
723.113	0.907
732.267	0.8082
741.42	0.061
750.573	0.4338
759.727	0.728
768.88	0.01
778.033	0.1238
787.187	0.8809
796.34	0.907
805.493	0.881
814.647	0.773
823.8	0.5862
832.953	0.0719
842.107	0.035
851.26	0.299
860.413	0.023
869.567	0.021
878.72	0.2869
887.873	0.6309
897.027	0.84
906.18	0.916
915.333	0.953
924.487	0.966
933.64	0.941
942.793	0.932
951.947	0.932
961.1	0.955
970.253	0.969
979.407	0.978
988.56	0.978
997.713	0.969
1006.87	0.9321
1016.02	0.4915
1025.17	0.934
1034.33	0.96
1043.48	0.96
1052.63	0.948
1061.79	0.907
1070.94	0.7621
1080.09	0.631
1089.25	0.008
1098.4	0.06
1107.55	0.5848
1116.71	0.792
1125.86	0.842
1135.01	0.815
1144.17	0.677
1153.32	0.2412
1162.47	0.3969
1171.63	0.3167
1180.78	0.0192
1189.93	0.501
1199.09	0.0213
1208.24	0.101
1217.39	0.767
1226.55	0.767
1235.7	0.8809
1244.85	0.93
1254.01	0.953
1263.16	0.939
1272.31	0.865
1281.47	0.6012
1290.62	0.856
1299.77	0.929
1308.93	0.96
1318.08	0.952
1327.23	0.929
1336.39	0.891
1345.54	0.874
1354.69	0.78
1363.85	0.5598
1373	0.274
1382.15	0.2231
1391.31	0.015
1400.46	0.03
1409.61	0.5495
1418.77	0.881
1427.92	0.895
1437.07	0.879
1446.23	0.898
1455.38	0.872
1464.53	0.872
1473.69	0.6291
1482.84	0.019
1491.99	0.2142
1501.15	0.687
1510.3	0.691
1519.45	0.684
1528.61	0.657
1537.76	0.572
1546.91	0.475
1556.07	0.464
1565.22	0.484
1574.37	0.315
1583.53	0.3909
1592.68	0.3433
1601.83	0.7939
1610.99	0.902
1620.14	0.934
1629.29	0.948
1638.45	0.945
1647.6	0.897
1656.75	0.923
1665.91	0.962
1675.06	0.978
1684.21	0.989
1693.37	0.985
1702.52	0.98
1711.67	0.987
1720.83	0.987
1729.98	0.987
1739.13	0.985
1748.29	0.982
1757.44	0.968
1766.59	0.975
1775.75	0.968
1784.9	0.966
1794.05	0.978
1803.21	0.987
1812.36	0.982
1821.51	0.989
1830.67	0.984
1839.82	0.984
1848.97	0.984
1858.13	0.978
1867.28	0.98
1876.43	0.969
1885.59	0.902
1894.74	0.955
1903.89	0.96
1913.05	0.9
1922.2	0.973
1931.35	0.991
1940.51	0.989
1949.66	0.994
1958.81	0.992
1967.97	0.991
1977.12	0.994
1986.27	0.992
1995.43	0.976
2004.58	0.987
2013.73	0.989
2022.89	0.991
2032.04	0.9941
2041.19	0.9941
2050.35	1.0001
2059.5	1
2068.65	1.003
2077.81	1.0012
2086.96	1.007
2096.11	1.0068
2105.27	1.005
2114.42	1.0047
2123.57	1.005
2132.73	1.007
2141.88	1.007
2151.03	1.0067
2160.19	1.005
2169.34	1.005
2178.49	1.001
2187.65	1
2196.8	1.001
2205.95	1.003
2215.11	1.001
2224.26	1.001
2233.41	1.0007
2242.57	1
2251.72	0.9906
2260.87	0.9808
2270.03	0.9774
2279.18	0.96
2288.33	0.959
2297.49	0.9507
2306.64	0.9607
2315.79	0.957
2324.95	0.9741
2334.1	0.9581
2343.25	0.9674
2352.41	0.9828
2361.56	0.9844
2370.71	0.985
2379.87	0.9882
2389.02	0.985
2398.17	0.985
2407.33	0.9899
2416.48	0.9969
2425.63	0.998
2434.79	1.0005
2443.94	1
2453.09	0.998
2462.25	0.998
2471.4	0.996
2480.55	0.998
2489.71	0.9951
2498.86	0.998
2508.01	1
2517.17	1
2526.32	0.9988
2535.47	0.9928
2544.63	0.9858
2553.78	0.9775
2562.93	0.9537
2572.09	0.9626
2581.24	0.9726
2590.39	0.976
2599.55	0.986
2608.7	0.994
2617.85	0.996
2627.01	0.9913
2636.16	0.991
2645.31	0.992
2654.47	0.9875
2663.62	0.985
2672.77	0.985
2681.93	0.985
2691.08	0.989
2700.23	0.9976
2709.39	0.998
2718.54	0.996
2727.69	0.9956
2736.85	0.994
2746	0.9893
2755.15	0.9841
2764.31	0.982
2773.46	0.97
2782.61	0.9905
2791.77	0.9919
2800.92	0.998
2810.08	0.998
2819.23	0.998
2828.38	0.998
2837.54	0.9921
2846.69	0.985
2855.84	0.978
2865	0.9939
2874.15	0.998
2883.3	0.998
2892.46	1
2901.61	1.001
2910.76	1.001
2919.92	1.001
2929.07	1.001
2938.22	0.9981
2947.38	0.9997
2956.53	0.989
2965.68	0.9888
2974.84	0.991
2983.99	0.994
2993.14	0.996
3002.3	0.9936
3011.45	0.989
3020.6	0.9834
3029.76	0.9758
3038.91	0.9743
3048.06	0.9669
3057.22	0.9704
3066.37	0.9514
3075.52	0.9138
3084.68	0.93
3093.83	0.8909
3102.98	0.8839
3112.14	0.9249
3121.29	0.9598
3130.44	0.9701
3139.6	0.9757
3148.75	0.9753
3157.9	0.9856
3167.06	0.991
3176.21	0.9946
3185.36	1.0003
3194.52	1.0037
3203.67	1.0074
3212.82	1.01
3221.98	1.0113
3231.13	1.012
3240.28	1.015
3249.44	1.017
3258.59	1.019
3267.74	1.019
3276.9	1.021
3286.05	1.021
3295.2	1.023
3304.36	1.023
3313.51	1.023
3322.66	1.023
3331.82	1.023
3340.97	1.023
3350.12	1.023
3359.28	1.024
3368.43	1.024
3377.58	1.024
3386.74	1.024
3395.89	1.024
3405.04	1.0249
3414.2	1.0248
3423.35	1.023
3432.5	1.0236
3441.66	1.024
3450.81	1.023
3459.96	1.019
3469.12	1.019
3478.27	1.019
3487.42	1.021
3496.58	1.021
3505.73	1.019
3514.88	1.0164
3524.04	1.019
3533.19	1.0176
3542.34	1.015
3551.5	1.015
3560.65	1.015
3569.8	1.015
3578.96	1.0124
3588.11	1.01
3597.26	1.0072
3606.42	1.005
3615.57	1.005
3624.72	1.003
3633.88	1.003
3643.03	1.001
3652.18	1.001
3661.34	1
3670.49	0.998
3679.64	0.9998
3688.8	1.001
3697.95	1.001
3707.1	1.001
3716.26	1
3725.41	0.998
3734.56	0.9999
3743.72	1
3752.87	1.0029
3762.02	1.003
3771.18	1.003
3780.33	1.003
