Infrared Spectrum: PYRIDAZINE, SULFAMETHOXY-
Formula: C11 H12 N4 O3 S
CAS: 80-35-3
State: SOLID (1 mg / 200 mg KBr DISC)
Melting point: 182-183 C
Class: COBLENTZ III
Instrument: PERKIN-ELMER 21 (GRATING)
Instrument parameters: FILTER AT ABOUT 10 MICRONS
Sampling: TRANSMISSION
Resolution: 2
1/CM	TRANSMITTANCE
4000	0.9101
3991	0.9103
3982	0.9107
3973	0.9111
3964	0.9116
3955	0.9118
3946	0.9123
3937	0.9128
3928	0.9131
3919	0.9135
3910	0.9139
3901	0.9143
3892	0.9147
3883	0.9151
3874	0.9154
3865	0.9158
3856	0.9163
3847	0.9167
3838	0.9174
3829	0.918
3820	0.9187
3811	0.92
3802	0.9218
3793	0.9235
3784	0.9247
3775	0.926
3766	0.9271
3757	0.9282
3748	0.9289
3739	0.9294
3730	0.9297
3721	0.9299
3712	0.9302
3703	0.9306
3694	0.9306
3685	0.9307
3676	0.9307
3667	0.9301
3658	0.9282
3649	0.9255
3640	0.9164
3631	0.8965
3622	0.8786
3613	0.8621
3604	0.8484
3595	0.8353
3586	0.8228
3577	0.8125
3568	0.8019
3559	0.7911
3550	0.7801
3541	0.7689
3532	0.7533
3523	0.7378
3514	0.7221
3505	0.621
3496	0.4708
3487	0.4523
3478	0.4576
3469	0.4705
3460	0.4835
3451	0.4966
3442	0.5097
3433	0.5219
3424	0.517
3415	0.4097
3406	0.3373
3397	0.3479
3388	0.376
3379	0.4044
3370	0.4329
3361	0.4616
3352	0.4904
3343	0.5193
3334	0.5485
3325	0.5777
3316	0.6001
3307	0.6004
3298	0.599
3289	0.5969
3280	0.5508
3271	0.5365
3262	0.5319
3253	0.5303
3244	0.5297
3235	0.5292
3226	0.5283
3217	0.5215
3208	0.5071
3199	0.4908
3190	0.4872
3181	0.4879
3172	0.4998
3163	0.514
3154	0.5304
3145	0.5485
3136	0.5558
3127	0.559
3118	0.5619
3109	0.5636
3100	0.565
3091	0.566
3082	0.5666
3073	0.5671
3064	0.5674
3055	0.5681
3046	0.5766
3037	0.5912
3028	0.6049
3019	0.615
3010	0.6221
3001	0.6277
2992	0.6303
2983	0.6308
2974	0.63
2965	0.6271
2956	0.6231
2947	0.62
2938	0.6171
2929	0.6146
2920	0.6124
2911	0.6107
2902	0.6102
2893	0.6106
2884	0.6112
2875	0.6124
2866	0.6135
2857	0.6189
2848	0.6392
2839	0.6531
2830	0.6612
2821	0.6661
2812	0.6694
2803	0.6718
2794	0.6738
2785	0.6756
2776	0.6774
2767	0.6795
2758	0.6818
2749	0.6845
2740	0.6883
2731	0.693
2722	0.698
2713	0.7036
2704	0.7115
2695	0.7201
2686	0.728
2677	0.736
2668	0.7437
2659	0.7511
2650	0.7587
2641	0.7661
2632	0.7735
2623	0.7805
2614	0.7875
2605	0.7956
2596	0.8045
2587	0.8135
2578	0.8225
2569	0.8356
2560	0.8494
2551	0.862
2542	0.8646
2533	0.8666
2524	0.8686
2515	0.8703
2506	0.8718
2497	0.8737
2488	0.8768
2479	0.8804
2470	0.8843
2461	0.8882
2452	0.8915
2443	0.8946
2434	0.8977
2425	0.8997
2416	0.9015
2407	0.9025
2398	0.9037
2389	0.9047
2380	0.9055
2371	0.9059
2362	0.906
2353	0.9061
2344	0.9065
2335	0.909
2326	0.9116
2317	0.9144
2308	0.9175
2299	0.9204
2290	0.9231
2281	0.926
2272	0.9287
2263	0.9315
2254	0.9342
2245	0.9371
2236	0.9394
2227	0.9401
2218	0.9415
2209	0.9436
2200	0.947
2191	0.9492
2182	0.9481
2173	0.9473
2164	0.9465
2155	0.9463
2146	0.9461
2137	0.9466
2128	0.9473
2119	0.9484
2110	0.9497
2101	0.9512
2092	0.9533
2083	0.9552
2074	0.9573
2065	0.9616
2056	0.9642
2047	0.9654
2038	0.9654
2029	0.9616
2020	0.9549
2011	0.9542
2002	0.9538
1993	0.9541
1984	0.9538
1975	0.9532
1966	0.9521
1957	0.9517
1948	0.9554
1939	0.9567
1930	0.9547
1921	0.9499
1912	0.9481
1903	0.9475
1894	0.9485
1885	0.9523
1876	0.9575
1867	0.9616
1858	0.9627
1849	0.9625
1840	0.9603
1831	0.9521
1822	0.9534
1813	0.9538
1804	0.9521
1795	0.952
1786	0.9525
1777	0.9525
1768	0.9516
1759	0.9484
1750	0.9442
1741	0.9378
1732	0.9302
1723	0.9224
1714	0.9128
1705	0.9013
1696	0.878
1687	0.8495
1678	0.7975
1669	0.6678
1660	0.5528
1651	0.4255
1642	0.2802
1633	0.2397
1624	0.3694
1615	0.4403
1606	0.1749
1597	0.1492
1588	0.3078
1579	0.2192
1570	0.2839
1561	0.4257
1552	0.5297
1543	0.3898
1534	0.2992
1525	0.4343
1516	0.4978
1507	0.346
1498	0.4814
1489	0.1642
1480	0.111
1471	0.0779
1462	0.3723
1453	0.4775
1444	0.4814
1435	0.501
1426	0.2418
1417	0.2348
1408	0.278
1399	0.3092
1390	0.3812
1381	0.4958
1372	0.6528
1363	0.5603
1354	0.5681
1345	0.4204
1336	0.2992
1327	0.2137
1318	0.265
1309	0.2365
1300	0.1266
1291	0.2847
1282	0.418
1273	0.3514
1264	0.2284
1255	0.3997
1246	0.5173
1237	0.6699
1228	0.7324
1219	0.774
1210	0.8005
1201	0.8183
1192	0.6756
1183	0.5373
1174	0.6578
1165	0.5009
1156	0.075
1147	0.1752
1138	0.1591
1129	0.0907
1120	0.2499
1111	0.3609
1102	0.5327
1093	0.2165
1084	0.1492
1075	0.385
1066	0.6295
1057	0.7222
1048	0.754
1039	0.7625
1030	0.7018
1021	0.5497
1012	0.3362
1003	0.2303
994	0.491
985	0.6795
976	0.736
967	0.748
958	0.6754
949	0.571
940	0.4676
931	0.3599
922	0.3238
913	0.3708
904	0.533
895	0.6333
886	0.6818
877	0.7197
868	0.7351
859	0.6917
850	0.4758
841	0.2838
832	0.2848
823	0.4658
814	0.5129
805	0.5529
796	0.6405
787	0.7175
778	0.7084
769	0.6461
760	0.4987
751	0.4923
742	0.5194
733	0.4233
724	0.3348
715	0.4518
706	0.4841
697	0.535
688	0.5353
679	0.3732
