Infrared Spectrum: BENZENESULFONIC ACID, 4-CHLOROPHENYL ESTER
Formula: C12 H9 Cl O3 S
CAS: 80-38-6
State: SOLUTION (10% IN CCl4 FOR 3800-1333, 10% IN CS2 FOR 1333-400 CM^-^1)
Class: COBLENTZ III
Instrument: DOW KBr FOREPRISM-GRATING
Instrument parameters: BLAZED AT 3.5, 12.0, 20.0 MICRON, CHANGED AT 5.0, 7.5, 14.9 MICRON
Sampling: TRANSMISSION
Path length: 0.011, 0.011 CM
Resolution: 4
Origin: DOW CHEMICAL COMPANY
1/CM	TRANSMITTANCE
451.226	0.778
459.783	0.7
468.34	0.746
476.896	0.818
485.453	0.794
494.01	0.757
502.567	0.42
511.123	0.916
519.68	0.95
528.237	0.949
536.794	0.873
545.35	0.796
553.907	0.838
562.464	0.638
571.021	0.036
579.577	0.053
588.134	0.156
596.691	0.165
605.248	0.864
613.804	0.886
622.361	0.889
630.918	0.613
639.475	0.826
648.031	0.532
656.588	0.72
665.145	0.87
673.702	0.83
682.258	0.5961
690.815	0.5049
699.372	0.782
707.929	0.469
716.486	0.208
725.042	0.71
733.599	0.758
742.156	0.542
750.713	0
759.269	0.09
767.826	0.1279
776.383	0.676
784.94	0.661
793.496	0.778
802.053	0.885
810.61	0.846
819.167	0.813
827.723	0.54
836.28	0.041
844.837	0.269
853.394	0.09
861.95	0.006
870.507	0.1259
879.064	0.384
887.621	0.712
896.177	0.842
904.734	0.913
913.291	0.944
921.848	0.934
930.404	0.918
938.961	0.845
947.518	0.956
956.075	0.96
964.632	0.968
973.188	0.964
981.745	0.962
990.302	0.949
998.859	0.841
1007.42	0.881
1015.97	0.0571
1024.53	0.754
1033.09	0.94
1041.64	0.95
1050.2	0.946
1058.76	0.925
1067.31	0.804
1075.87	0.77
1084.43	0.2401
1092.98	0.092
1101.54	0.604
1110.1	0.801
1118.65	0.852
1127.21	0.865
1135.77	0.778
1144.32	0.608
1152.88	0.166
1161.44	0.3009
1169.99	0.101
1178.55	0.001
1187.11	0.364
1195.66	0.249
1204.22	0.01
1212.78	0.62
1221.33	0.758
1229.89	0.829
1238.45	0.925
1247	0.938
1255.56	0.946
1264.12	0.941
1272.67	0.892
1281.23	0.893
1289.79	0.8
1298.35	0.824
1306.9	0.914
1315.46	0.876
1324.02	0.892
1332.57	0.74
1341.13	0.792
1349.69	0.776
1358.24	0.596
1366.8	0.233
1375.36	0.221
1383.91	0.01
1392.47	0.029
1401.03	0.541
1409.58	0.789
1418.14	0.865
1426.7	0.876
1435.25	0.816
1443.81	0.724
1452.37	0.3381
1460.92	0.866
1469.48	0.797
1478.04	0.25
1486.59	0.009
1495.15	0.49
1503.71	0.693
1512.26	0.688
1520.82	0.67
1529.38	0.638
1537.93	0.557
1546.49	0.49
1555.05	0.506
1563.6	0.594
1572.16	0.637
1580.72	0.594
1589.27	0.565
1597.83	0.792
1606.39	0.872
1614.95	0.912
1623.5	0.932
1632.06	0.948
1640.62	0.94
1649.17	0.932
1657.73	0.957
1666.29	0.964
1674.84	0.953
1683.4	0.964
1691.96	0.973
1700.51	0.976
1709.07	0.98
1717.63	0.976
1726.18	0.972
1734.74	0.976
1743.3	0.972
1751.85	0.96
1760.41	0.941
1768.97	0.954
1777.52	0.976
1786.08	0.98
1794.64	0.972
1803.19	0.946
1811.75	0.926
1820.31	0.968
1828.86	0.968
1837.42	0.976
1845.98	0.976
1854.53	0.966
1863.09	0.973
1871.65	0.96
1880.2	0.92
1888.76	0.89
1897.32	0.912
1905.87	0.957
1914.43	0.954
1922.99	0.965
1931.55	0.98
1940.1	0.982
1948.66	0.981
1957.22	0.968
1965.77	0.948
1974.33	0.97
1982.89	0.953
1991.44	0.966
2000	0.977
2008.56	0.978
2017.11	0.97
2025.67	0.977
2034.23	0.98
2042.78	0.985
2051.34	0.988
2059.9	0.986
2068.45	0.99
2077.01	0.99
2085.57	0.997
2094.12	0.993
2102.68	0.992
2111.24	0.9929
2119.79	0.998
2128.35	0.998
2136.91	0.998
2145.46	0.996
2154.02	0.9941
2162.58	0.9941
2171.13	0.993
2179.69	0.9901
2188.25	0.989
2196.8	0.99
2205.36	0.992
2213.92	0.992
2222.48	0.99
2231.03	0.9881
2239.59	0.9861
2248.15	0.977
2256.7	0.9681
2265.26	0.964
2273.82	0.9541
2282.37	0.9559
2290.93	0.956
2299.49	0.9521
2308.04	0.9518
2316.6	0.9579
2325.16	0.9493
2333.71	0.956
2342.27	0.9489
2350.83	0.9648
2359.38	0.9739
2367.94	0.9771
2376.5	0.9771
2385.05	0.976
2393.61	0.98
2402.17	0.977
2410.72	0.974
2419.28	0.986
2427.84	0.986
2436.39	0.9889
2444.95	0.988
2453.51	0.9859
2462.06	0.986
2470.62	0.9851
2479.18	0.984
2487.73	0.982
2496.29	0.9859
2504.85	0.988
2513.4	0.985
2521.96	0.985
2530.52	0.9841
2539.08	0.9802
2547.63	0.976
2556.19	0.9663
2564.75	0.9596
2573.3	0.969
2581.86	0.9642
2590.42	0.9689
2598.97	0.9779
2607.53	0.978
2616.09	0.9809
2624.64	0.982
2633.2	0.9801
2641.76	0.978
2650.31	0.9849
2658.87	0.982
2667.43	0.9782
2675.98	0.9682
2684.54	0.9718
2693.1	0.9819
2701.65	0.985
2710.21	0.985
2718.77	0.985
2727.32	0.9823
2735.88	0.978
2744.44	0.9811
2752.99	0.9811
2761.55	0.9761
2770.11	0.9681
2778.66	0.9779
2787.22	0.9743
2795.78	0.9819
2804.33	0.9823
2812.89	0.984
2821.45	0.986
2830	0.985
2838.56	0.9803
2847.12	0.9723
2855.68	0.9689
2864.23	0.9797
2872.79	0.98
2881.35	0.982
2889.9	0.9774
2898.46	0.977
2907.02	0.981
2915.57	0.978
2924.13	0.9778
2932.69	0.981
2941.24	0.982
2949.8	0.982
2958.36	0.982
2966.91	0.978
2975.47	0.978
2984.03	0.977
2992.58	0.977
3001.14	0.9705
3009.7	0.9602
3018.25	0.9572
3026.81	0.9543
3035.37	0.9504
3043.92	0.9452
3052.48	0.9299
3061.04	0.8723
3069.59	0.7975
3078.15	0.7943
3086.71	0.9054
3095.26	0.9146
3103.82	0.9149
3112.38	0.9409
3120.93	0.9538
3129.49	0.9636
3138.05	0.9716
3146.6	0.974
3155.16	0.977
3163.72	0.9724
3172.28	0.9728
3180.83	0.9794
3189.39	0.985
3197.95	0.989
3206.5	0.994
3215.06	0.9994
3223.62	0.998
3232.17	1.0018
3240.73	1.0024
3249.29	1.002
3257.84	1.005
3266.4	1.008
3274.96	1.006
3283.51	1.009
3292.07	1.009
3300.63	1.0092
3309.18	1.01
3317.74	1.0082
3326.3	1.009
3334.85	1.009
3343.41	1.009
3351.97	1.009
3360.52	1.0098
3369.08	1.009
3377.64	1.012
3386.19	1.012
3394.75	1.01
3403.31	1.012
3411.86	1.012
3420.42	1.0105
3428.98	1.008
3437.53	1.008
3446.09	1.008
3454.65	1.006
3463.21	1.0053
3471.76	1.0043
3480.32	1.004
3488.88	1.002
3497.43	1.002
3505.99	1.001
3514.55	1.004
3523.1	1.005
3531.66	1.002
3540.22	1.002
3548.77	1.001
3557.33	1.001
3565.89	1.002
3574.44	1.001
3583	1
3591.56	0.997
3600.11	0.994
3608.67	0.99
3617.23	0.99
3625.78	0.993
3634.34	0.99
3642.9	0.989
3651.45	0.99
3660.01	0.99
3668.57	0.9927
3677.12	0.988
3685.68	0.9897
3694.24	0.988
3702.79	0.985
3711.35	0.9857
3719.91	0.9887
3728.46	0.989
3737.02	0.992
3745.58	0.993
3754.13	0.9883
3762.69	0.992
3771.25	0.9906
3779.81	0.9893
3788.36	0.989
3796.92	0.989
