Infrared Spectrum: 4-Toluenesulfonamide, N-cyclohexyl-
Formula: C13 H19 N O2 S
CAS: 80-30-8
State: SOLUTION (10% CCl4 FOR 2.7-7.5, 10% CS2 FOR 7.5-26 MICRON)
Class: COBLENTZ III
Instrument: DOW FOREPRISM-GRATING
Instrument parameters: BLAZED AT 3.5, 12.0, 20.0 MICRON AND CHANGED AT 5.0, 7.5, 14.9 MICRON
Sampling: TRANSMISSION
Path length: 0.011 CM, 0.011 CM
Resolution: 2
Origin: DOW CHEMICAL COMPANY
1/CM	TRANSMITTANCE
392	0.8248
401	0.822
410	0.8186
419	0.8149
428	0.8096
437	0.7997
446	0.7877
455	0.7733
464	0.7672
473	0.7727
482	0.7271
491	0.6779
500	0.7075
509	0.7343
518	0.7416
527	0.736
536	0.6951
545	0.3592
554	0.2672
563	0.3604
572	0.0342
581	0.5459
590	0.693
599	0.7196
608	0.7398
617	0.7451
626	0.7592
635	0.7639
644	0.6724
653	0.4665
662	0.074
671	0.275
680	0.5033
689	0.655
698	0.6902
707	0.6158
716	0.8122
725	0.8509
734	0.8815
743	0.8947
752	0.8768
761	0.8941
770	0.8975
779	0.8904
788	0.8635
797	0.7632
806	0.4959
815	0.2214
824	0.7316
833	0.7001
842	0.8544
851	0.8581
860	0.7708
869	0.6006
878	0.3656
887	0.5295
896	0.6724
905	0.4742
914	0.4753
923	0.5534
932	0.7471
941	0.8518
950	0.8733
959	0.8822
968	0.8644
977	0.7874
986	0.5019
995	0.4824
1004	0.7678
1013	0.7337
1022	0.7262
1031	0.6446
1040	0.7207
1049	0.7339
1058	0.5843
1067	0.2952
1076	0.1468
1085	0.1869
1094	0.1114
1103	0.4924
1112	0.6334
1121	0.7029
1130	0.5241
1139	0.2544
1148	0.0812
1157	0.002
1166	0.1872
1175	0.6559
1184	0.6823
1193	0.8199
1202	0.8522
1211	0.8577
1220	0.8812
1229	0.8631
1238	0.7419
1247	0.8022
1256	0.6718
1265	0.7429
1274	0.7273
1283	0.4441
1292	0.3405
1301	0.2435
1310	0.1947
1319	0.0355
1328	0.0555
1337	0.2042
1346	0.3492
1355	0.4339
1364	0.5177
1373	0.5711
1382	0.6067
1391	0.6141
1400	0.4888
1409	0.4315
1418	0.3372
1427	0.2519
1436	0.2716
1445	0.2897
1454	0.1077
1463	0.4811
1472	0.6481
1481	0.7266
1490	0.6522
1499	0.4293
1508	0.8026
1517	0.8207
1526	0.8313
1535	0.8395
1544	0.847
1553	0.8486
1562	0.8362
1571	0.8244
1580	0.8197
1589	0.7499
1598	0.4939
1607	0.8116
1616	0.8382
1625	0.8433
1634	0.8452
1643	0.8275
1652	0.8238
1661	0.8577
1670	0.8658
1679	0.8691
1688	0.8725
1697	0.875
1706	0.8762
1715	0.8765
1724	0.876
1733	0.8739
1742	0.8716
1751	0.8697
1760	0.8747
1769	0.8786
1778	0.8697
1787	0.8579
1796	0.8537
1805	0.8679
1814	0.8787
1823	0.8806
1832	0.8796
1841	0.8774
1850	0.8752
1859	0.8734
1868	0.8715
1877	0.8694
1886	0.8661
1895	0.8554
1904	0.8176
1913	0.8271
1922	0.8624
1931	0.8755
1940	0.8776
1949	0.8794
1958	0.8807
1967	0.8817
1976	0.8821
1985	0.8822
1994	0.8819
2003	0.8807
2012	0.8801
2021	0.8802
2030	0.8808
2039	0.881
2048	0.8809
2057	0.889
2066	0.8899
2075	0.891
2084	0.8939
2093	0.896
2102	0.8975
2111	0.898
2120	0.8976
2129	0.897
2138	0.8963
2147	0.8955
2156	0.8946
2165	0.8958
2174	0.9037
2183	0.8983
2192	0.8916
2201	0.8906
2210	0.8908
2219	0.8916
2228	0.8891
2237	0.8817
2246	0.8727
2255	0.8698
2264	0.8698
2273	0.8708
2282	0.8727
2291	0.8703
2300	0.8647
2309	0.8635
2318	0.8745
2327	0.8813
2336	0.8809
2345	0.8799
2354	0.8788
2363	0.8776
2372	0.8767
2381	0.8762
2390	0.8759
2399	0.8759
2408	0.876
2417	0.8765
2426	0.8773
2435	0.8783
2444	0.879
2453	0.8777
2462	0.8759
2471	0.8741
2480	0.8737
2489	0.8742
2498	0.8751
2507	0.8767
2516	0.8781
2525	0.8792
2534	0.8799
2543	0.879
2552	0.8761
2561	0.8708
2570	0.8637
2579	0.8558
2588	0.8492
2597	0.8501
2606	0.8543
2615	0.8592
2624	0.8616
2633	0.8584
2642	0.8526
2651	0.8421
2660	0.8304
2669	0.8273
2678	0.8397
2687	0.843
2696	0.8431
2705	0.8465
2714	0.8457
2723	0.8415
2732	0.8381
2741	0.8409
2750	0.8445
2759	0.8449
2768	0.839
2777	0.8292
2786	0.8169
2795	0.8096
2804	0.8082
2813	0.7877
2822	0.7607
2831	0.7161
2840	0.6446
2849	0.3872
2858	0.1488
2867	0.2591
2876	0.4352
2885	0.5572
2894	0.4696
2903	0.367
2912	0.3104
2921	0.1086
2930	0.0475
2939	0.0641
2948	0.2271
2957	0.4007
2966	0.5743
2975	0.6905
2984	0.7027
2993	0.7641
3002	0.7873
3011	0.7821
3020	0.7563
3029	0.7429
3038	0.7432
3047	0.758
3056	0.7527
3065	0.7579
3074	0.8204
3083	0.8422
3092	0.8493
3101	0.8515
3110	0.852
3119	0.8497
3128	0.8451
3137	0.8362
3146	0.8265
3155	0.814
3164	0.7994
3173	0.7815
3182	0.7599
3191	0.7327
3200	0.6889
3209	0.6179
3218	0.5331
3227	0.4478
3236	0.3626
3245	0.2773
3254	0.1923
3263	0.1538
3272	0.1534
3281	0.1739
3290	0.2381
3299	0.3326
3308	0.4271
3317	0.5216
3326	0.6161
3335	0.7147
3344	0.7601
3353	0.7772
3362	0.7761
3371	0.7579
3380	0.7502
3389	0.8008
3398	0.8605
3407	0.8781
3416	0.885
3425	0.8878
3434	0.8859
3443	0.8899
3452	0.89
3461	0.8895
3470	0.8886
3479	0.8877
3488	0.8867
3497	0.8857
3506	0.8848
3515	0.8838
3524	0.8828
3533	0.8813
3542	0.8799
3551	0.8784
3560	0.8767
3569	0.8747
3578	0.8728
3587	0.8711
3596	0.8694
3605	0.8676
3614	0.866
3623	0.8643
3632	0.8627
3641	0.8617
3650	0.8611
3659	0.8604
3668	0.8602
3677	0.86
3686	0.8598
3695	0.8596
3704	0.8593
3713	0.8589
3722	0.8587
3731	0.8585
3740	0.856
3749	0.8586
3758	0.8586
3767	0.8582
3776	0.8574
3785	0.8561
3794	0.8551
