Infrared Spectrum: N-Ethyl-p-toluenesulfonamide
Formula: C 9 H 13 N O 2 S
CAS: 80-39-7
State: gas
Origin: EPA-IR VAPOR PHASE LIBRARY
1/CM	ABSORBANCE
501.5	0.004606
513.074	0.005336
524.648	0.006386
536.222	0.010516
547.796	0.023596
559.37	0.024796
570.944	0.020046
582.518	0.015526
594.092	0.009286
605.666	0.006826
617.24	0.006216
628.814	0.006966
640.388	0.011586
651.962	0.027696
663.536	0.030306
675.11	0.016176
686.684	0.009896
698.258	0.008136
709.832	0.007866
721.406	0.007336
732.98	0.008076
744.554	0.010576
756.128	0.014446
767.702	0.013476
779.276	0.009416
790.85	0.009456
802.423	0.012726
813.997	0.016806
825.571	0.011626
837.145	0.011386
848.719	0.013216
860.293	0.011076
871.867	0.006716
883.441	0.004406
895.015	0.003986
906.589	0.005296
918.163	0.009616
929.737	0.014096
941.311	0.011146
952.885	0.005386
964.459	0.002866
976.033	0.002086
987.607	0.001746
999.181	0.001776
1010.76	0.002916
1022.33	0.004716
1033.9	0.005136
1045.48	0.009116
1057.05	0.013826
1068.63	0.013286
1080.2	0.013946
1091.77	0.026226
1103.35	0.024466
1114.92	0.014516
1126.49	0.010886
1138.07	0.010086
1149.64	0.016566
1161.22	0.057246
1172.79	0.073526
1184.36	0.020266
1195.94	0.007416
1207.51	0.004786
1219.09	0.003626
1230.66	0.002976
1242.23	0.002786
1253.81	0.003116
1265.38	0.004066
1276.96	0.005266
1288.53	0.005626
1300.1	0.006186
1311.68	0.006606
1323.25	0.009036
1334.83	0.017096
1346.4	0.030226
1357.97	0.034906
1369.55	0.023406
1381.12	0.018376
1392.7	0.021606
1404.27	0.028466
1415.84	0.027256
1427.42	0.015556
1438.99	0.008586
1450.57	0.006476
1462.14	0.005596
1473.71	0.004786
1485.29	0.005376
1496.86	0.006786
1508.44	0.003766
1520.01	0.002586
1531.58	0.002116
1543.16	0.001836
1554.73	0.001706
1566.31	0.001836
1577.88	0.002286
1589.45	0.003646
1601.03	0.005116
1612.6	0.003406
1624.18	0.001796
1635.75	0.001496
1647.32	0.001486
1658.9	0.0010893
1670.47	0.0007528
1682.05	0.0006199
1693.62	0.0005465
1705.19	0.0004906
1716.77	0.000467
1728.34	0.0004819
1739.92	0.0005572
1751.49	0.0007192
1763.06	0.0006941
1774.64	0.0005744
1786.21	0.0008074
1797.79	0.0010332
1809.36	0.0005682
1820.93	0.0003819
1832.51	0.0003416
1844.08	0.0003501
1855.66	0.0004093
1867.23	0.0004503
1878.8	0.0005364
1890.38	0.0006973
1901.95	0.0010617
1913.53	0.001246
1925.1	0.0007865
1936.67	0.0004919
1948.25	0.0003772
1959.82	0.0003362
1971.4	0.000317
1982.97	0.0002778
1994.54	0.00021116
2006.12	0.00019676
2017.69	0.00019031
2029.27	0.00017402
2040.84	0.00018763
2052.41	0.00016969
2063.99	0.0001505
2075.56	0.0001653
2087.14	0.0001476
2098.71	0.00019071
2110.28	0.00020951
2121.86	0.00019943
2133.43	0.00016745
2145.01	0.00019231
2156.58	0.00022863
2168.15	0.00021263
2179.73	0.0002821
2191.3	0.0002857
2202.88	0.00025273
2214.45	0.00021842
2226.02	0.00020656
2237.6	0.00024671
2249.17	0.0003538
2260.74	0.0004684
2272.32	0.0004126
2283.89	0.0003456
2295.47	0.0003882
2307.04	0.0003703
2318.61	0.0003434
2330.19	0.0003634
2341.76	0.00027101
2353.34	0.00019088
2364.91	0.00019687
2376.48	0.00019681
2388.06	0.00025665
2399.63	0.0003083
2411.21	0.0003309
2422.78	0.0003328
2434.35	0.0002974
2445.93	0.0003023
2457.5	0.0002786
2469.08	0.0002493
2480.65	0.00025792
2492.22	0.0003096
2503.8	0.0003647
2515.37	0.0003847
2526.95	0.0003424
2538.52	0.0003019
2550.09	0.0002985
2561.67	0.0003156
2573.24	0.0003662
2584.82	0.0003927
2596.39	0.0003875
2607.96	0.0003104
2619.54	0.00024549
2631.11	0.00020817
2642.69	0.000178607
2654.26	0.00018975
2665.83	0.00023294
2677.41	0.0003392
2688.98	0.0004008
2700.56	0.0004405
2712.13	0.0003681
2723.7	0.0003845
2735.28	0.0005163
2746.85	0.0006559
2758.43	0.0006524
2770	0.0005603
2781.57	0.0005715
2793.15	0.0006678
2804.72	0.0007656
2816.3	0.0009218
2827.87	0.0011272
2839.44	0.001456
2851.02	0.002106
2862.59	0.003396
2874.17	0.005686
2885.74	0.007696
2897.31	0.007486
2908.89	0.007136
2920.46	0.008606
2932.04	0.012746
2943.61	0.013716
2955.18	0.010296
2966.76	0.009676
2978.33	0.012546
2989.91	0.011526
3001.48	0.007616
3013.05	0.005876
3024.63	0.005956
3036.2	0.007056
3047.78	0.005916
3059.35	0.004516
3070.92	0.003956
3082.5	0.002616
3094.07	0.001976
3105.65	0.001276
3117.22	0.0008946
3128.79	0.000613
3140.37	0.0004845
3151.94	0.000441
3163.52	0.0003743
3175.09	0.0003331
3186.66	0.0002902
3198.24	0.00025643
3209.81	0.0002117
3221.39	0.00018877
3232.96	0.00016843
3244.53	0.0001646
3256.11	0.0001208
3267.68	0.0001111
3279.26	0.0001207
3290.83	0.0001039
3302.4	0.0001191
3313.98	0.0001357
3325.55	0.00020029
3337.13	0.00023819
3348.7	0.0003735
3360.27	0.0005911
3371.85	0.0009226
3383.42	0.001746
3395	0.003476
3406.57	0.005976
3418.14	0.006556
3429.72	0.003746
3441.29	0.001606
3452.86	0.0007933
3464.44	0.0005391
3476.01	0.0003504
3487.59	0.0002911
3499.16	0.000180163
3510.73	0.00017543
3522.31	0.0001515
3533.88	0.0001227
3545.46	0.0001386
3557.03	8.57e-05
3568.6	7.95e-05
3580.18	9.36e-05
3591.75	9.89e-05
3603.33	4.6e-05
3614.9	3.7e-05
3626.47	7e-05
3638.05	7.5e-05
3649.62	5.7e-05
3661.2	0.0001131
3672.77	9.19e-05
3684.34	0.0001032
3695.92	7.5e-05
3707.49	0.0001377
3719.07	0.0001116
3730.64	9.79e-05
3742.21	4.9e-05
3753.79	9e-06
3765.36	5.8e-05
3776.94	5.5e-05
3788.51	4.6e-05
3800.08	4e-05
3811.66	8e-05
3823.23	7.6e-05
3834.81	6.1e-05
3846.38	0.0001144
3857.95	7.73e-05
3869.53	0.0001055
3881.1	0.0001021
3892.68	0.0001131
3904.25	7.2e-05
3915.82	8.35e-05
3927.4	0.0001312
3938.97	6.5e-05
3950.55	6.6e-05
3962.12	7.5e-05
3973.69	0.0001365
3985.27	0.0001571
3996.84	0.0001578
