Infrared Spectrum: HOMATROPINE METHYL BROMIDE
Formula: C17 H24 Br N O3
CAS: 80-49-9
State: SOLID (1 mg / 200 mg KBr DISC) VS KBr
Melting point: 191-192 C
Class: COBLENTZ III
Instrument: PERKIN-ELMER 21 (GRATING)
Instrument parameters: FILTER AT ABOUT 10 MICRONS
Sampling: TRANSMISSION
Path length: 0.055 CM (THICKNESS)
Resolution: 2
1/CM	TRANSMITTANCE
4000	0.8758
3991	0.8763
3982	0.8768
3973	0.8773
3964	0.8778
3955	0.8784
3946	0.8789
3937	0.8795
3928	0.88
3919	0.8805
3910	0.8811
3901	0.8817
3892	0.8823
3883	0.8828
3874	0.8834
3865	0.884
3856	0.8846
3847	0.8852
3838	0.8858
3829	0.8863
3820	0.887
3811	0.8877
3802	0.8885
3793	0.8893
3784	0.8901
3775	0.8909
3766	0.8917
3757	0.8925
3748	0.8933
3739	0.8941
3730	0.8948
3721	0.8954
3712	0.896
3703	0.8965
3694	0.8971
3685	0.8975
3676	0.8982
3667	0.8988
3658	0.8993
3649	0.8996
3640	0.8999
3631	0.9002
3622	0.9005
3613	0.9008
3604	0.901
3595	0.901
3586	0.901
3577	0.9009
3568	0.9008
3559	0.9007
3550	0.9002
3541	0.8997
3532	0.8987
3523	0.8964
3514	0.8938
3505	0.8892
3496	0.8832
3487	0.8767
3478	0.8653
3469	0.8497
3460	0.8285
3451	0.6937
3442	0.6205
3433	0.547
3424	0.4772
3415	0.4692
3406	0.4681
3397	0.4986
3388	0.5397
3379	0.581
3370	0.6228
3361	0.6439
3352	0.6606
3343	0.6768
3334	0.6911
3325	0.7058
3316	0.7241
3307	0.7371
3298	0.7461
3289	0.7525
3280	0.7568
3271	0.7612
3262	0.7656
3253	0.77
3244	0.7751
3235	0.7805
3226	0.7864
3217	0.7928
3208	0.7994
3199	0.8056
3190	0.811
3181	0.8164
3172	0.822
3163	0.8278
3154	0.8335
3145	0.8389
3136	0.8441
3127	0.8487
3118	0.8533
3109	0.8571
3100	0.8599
3091	0.8616
3082	0.8618
3073	0.8606
3064	0.8452
3055	0.8284
3046	0.8213
3037	0.8185
3028	0.776
3019	0.743
3010	0.75
3001	0.7628
2992	0.7692
2983	0.7585
2974	0.7401
2965	0.7367
2956	0.7321
2947	0.7246
2938	0.7118
2929	0.7228
2920	0.7456
2911	0.7682
2902	0.7735
2893	0.7728
2884	0.7685
2875	0.7681
2866	0.7771
2857	0.7954
2848	0.8139
2839	0.8309
2830	0.8362
2821	0.8404
2812	0.8445
2803	0.8487
2794	0.8528
2785	0.8573
2776	0.8618
2767	0.8663
2758	0.87
2749	0.8735
2740	0.8759
2731	0.8783
2722	0.8793
2713	0.8798
2704	0.8802
2695	0.8807
2686	0.8814
2677	0.8821
2668	0.8831
2659	0.8838
2650	0.8847
2641	0.8863
2632	0.888
2623	0.8896
2614	0.8907
2605	0.8916
2596	0.8925
2587	0.8934
2578	0.8941
2569	0.8945
2560	0.8949
2551	0.8954
2542	0.8962
2533	0.897
2524	0.8978
2515	0.899
2506	0.8999
2497	0.9009
2488	0.9021
2479	0.9035
2470	0.9075
2461	0.9116
2452	0.9154
2443	0.9168
2434	0.9178
2425	0.9175
2416	0.9178
2407	0.9185
2398	0.9193
2389	0.9204
2380	0.9224
2371	0.9245
2362	0.9263
2353	0.9275
2344	0.9283
2335	0.9249
2326	0.9199
2317	0.9208
2308	0.9234
2299	0.9266
2290	0.9289
2281	0.9305
2272	0.9318
2263	0.9318
2254	0.931
2245	0.9307
2236	0.9309
2227	0.9325
2218	0.9347
2209	0.9363
2200	0.9378
2191	0.9389
2182	0.9397
2173	0.9404
2164	0.9412
2155	0.942
2146	0.9427
2137	0.9436
2128	0.9444
2119	0.9453
2110	0.9461
2101	0.9468
2092	0.9475
2083	0.9481
2074	0.9487
2065	0.9489
2056	0.9492
2047	0.9507
2038	0.9521
2029	0.9537
2020	0.9552
2011	0.9566
2002	0.9571
1993	0.9547
1984	0.9511
1975	0.9467
1966	0.9445
1957	0.9439
1948	0.9462
1939	0.9499
1930	0.953
1921	0.9536
1912	0.9525
1903	0.9517
1894	0.9511
1885	0.9512
1876	0.9514
1867	0.9527
1858	0.9527
1849	0.9511
1840	0.9492
1831	0.9488
1822	0.9459
1813	0.9418
1804	0.9427
1795	0.9425
1786	0.9328
1777	0.9102
1768	0.8611
1759	0.7772
1750	0.6236
1741	0.2429
1732	0.309
1723	0.5748
1714	0.6351
1705	0.7105
1696	0.7774
1687	0.8298
1678	0.8623
1669	0.8811
1660	0.893
1651	0.8928
1642	0.8958
1633	0.9002
1624	0.9009
1615	0.9038
1606	0.908
1597	0.9028
1588	0.9067
1579	0.9188
1570	0.9299
1561	0.9355
1552	0.9402
1543	0.9371
1534	0.9347
1525	0.9393
1516	0.9278
1507	0.8751
1498	0.7617
1489	0.7475
1480	0.7443
1471	0.7301
1462	0.7481
1453	0.5993
1444	0.7726
1435	0.7451
1426	0.8215
1417	0.8005
1408	0.749
1399	0.6933
1390	0.7132
1381	0.7595
1372	0.7976
1363	0.8537
1354	0.7232
1345	0.7626
1336	0.693
1327	0.7738
1318	0.8168
1309	0.8335
1300	0.7548
1291	0.7011
1282	0.6746
1273	0.6814
1264	0.6094
1255	0.551
1246	0.5655
1237	0.6712
1228	0.7422
1219	0.7201
1210	0.6129
1201	0.5564
1192	0.4646
1183	0.3129
1174	0.4265
1165	0.5917
1156	0.5106
1147	0.7021
1138	0.7826
1129	0.7532
1120	0.5773
1111	0.6037
1102	0.627
1093	0.6747
1084	0.6948
1075	0.6869
1066	0.5247
1057	0.7165
1048	0.5771
1039	0.6005
1030	0.7724
1021	0.7791
1012	0.7367
1003	0.7201
994	0.6785
985	0.8081
976	0.8392
967	0.8471
958	0.8371
949	0.8783
940	0.6874
931	0.5192
922	0.7125
913	0.7655
904	0.8325
895	0.8651
886	0.8235
877	0.8549
868	0.8875
859	0.8857
850	0.889
841	0.8996
832	0.9128
823	0.899
814	0.8193
805	0.8436
796	0.8864
787	0.9018
778	0.9025
769	0.7661
760	0.8915
751	0.88
742	0.7014
733	0.5308
724	0.7597
715	0.8416
706	0.8158
697	0.5807
688	0.7376
679	0.8132
670	0.8523
661	0.8705
