Infrared Spectrum: p-t-Butyl-.alpha.-methylhydrocinnamaldehyde
Formula: C 14 H 20 O
CAS: 80-54-6
State: gas
Instrument: HP-GC/MS/IRD
Origin: NIST Mass Spectrometry Data Center
1/CM	ABSORBANCE
550	0.0042427
562	0.0096691
574	0.0072884
586	0.0041097
598	0.0021147
610	0.0013965
622	0.0009709
634	0.0007315
646	0.0007581
658	0.0008778
670	0.0009975
682	0.0007315
694	0.0003857
706	0.000133
718	0.0001197
730	0.0004921
742	0.0005719
754	0.0003325
766	0.0009975
778	0.00266
790	0.0055195
802	0.0079135
814	0.010241
826	0.0138453
838	0.0155876
850	0.0107597
862	0.0057589
874	0.0046816
886	0.0049343
898	0.0052269
910	0.0082859
922	0.0121695
934	0.0085652
946	0.0042826
958	0.0024605
970	0.001463
982	0.0008911
994	0.0008113
1006	0.0016492
1018	0.0092568
1030	0.0024605
1042	0.00133
1054	0.0017024
1066	0.0021812
1078	0.0027132
1090	0.0044023
1102	0.0101346
1114	0.0105203
1126	0.006916
1138	0.0040432
1150	0.0023142
1162	0.001729
1174	0.0020615
1186	0.0037506
1198	0.0066234
1210	0.0038836
1222	0.0035511
1234	0.0040698
1246	0.0048279
1258	0.0117572
1270	0.0143507
1282	0.0046683
1294	0.0025669
1306	0.0024206
1318	0.0032452
1330	0.0045885
1342	0.0058653
1354	0.0084322
1366	0.0158669
1378	0.0168112
1390	0.0130606
1402	0.0126882
1414	0.0076209
1426	0.0059451
1438	0.0074214
1450	0.0122892
1462	0.0165585
1474	0.0154014
1486	0.0131271
1498	0.0135128
1510	0.0201495
1522	0.015694
1534	0.0038836
1546	0.0016226
1558	0.0010773
1570	0.000798
1582	0.0007049
1594	0.0007315
1606	0.0009975
1618	0.0013699
1630	0.0015694
1642	0.0019684
1654	0.0027398
1666	0.0036043
1678	0.0046151
1690	0.0067032
1702	0.0112252
1714	0.018088
1726	0.0368809
1738	0.0794675
1750	0.0625898
1762	0.0270921
1774	0.014763
1786	0.008911
1798	0.0050407
1810	0.0032319
1822	0.0021945
1834	0.0015428
1846	0.0011837
1858	0.0009443
1870	0.0009044
1882	0.0012369
1894	0.0019019
1906	0.0016625
1918	0.0007714
1930	0.0004389
1942	0.0002926
1954	0.0002128
1966	0.0001729
1978	0.0001197
1990	0.0001064
2002	6.65e-05
2014	7.98e-05
2026	7.98e-05
2038	9.31e-05
2050	5.32e-05
2062	1.33e-05
2074	2.66e-05
2086	1.33e-05
2098	1.33e-05
2110	2.66e-05
2122	0
2134	0
2146	2.66e-05
2158	1.33e-05
2170	3.99e-05
2182	7.98e-05
2194	9.31e-05
2206	9.31e-05
2218	6.65e-05
2230	1.33e-05
2242	1.33e-05
2254	0
2266	3.99e-05
2278	7.98e-05
2290	0.0001064
2302	0.0001197
2314	0.0001463
2326	0.0001862
2338	9.31e-05
2350	5.32e-05
2362	7.98e-05
2374	0.0001729
2386	0.0003059
2398	0.0002394
2410	0.0001463
2422	0.0001596
2434	0.0001197
2446	0.000133
2458	0.0001064
2470	0.0001197
2482	0.0001064
2494	0.000133
2506	0.0002261
2518	0.0002527
2530	0.0002926
2542	0.000399
2554	0.0005453
2566	0.0007847
2578	0.0009576
2590	0.0011837
2602	0.0014497
2614	0.0019551
2626	0.0026733
2638	0.0036309
2650	0.004788
2662	0.0065436
2674	0.009709
2686	0.0153881
2698	0.021812
2710	0.0211204
2722	0.0153748
2734	0.0119833
2746	0.0100016
2758	0.0093499
2770	0.0098021
2782	0.0109725
2794	0.0146433
2806	0.0168112
2818	0.0130074
2830	0.0110124
2842	0.0116641
2854	0.0168511
2866	0.0268926
2878	0.0358302
2890	0.0348726
2902	0.0360031
2914	0.0462042
2926	0.0503538
2938	0.0528675
2950	0.0618982
2962	0.11152
2974	0.118091
2986	0.0550221
2998	0.0222908
3010	0.0145236
3022	0.0182875
3034	0.0178752
3046	0.0100548
3058	0.0095627
3070	0.0093632
3082	0.0089376
3094	0.0083923
3106	0.0055328
3118	0.003458
3130	0.0028462
3142	0.0021147
3154	0.0016359
3166	0.0015029
3178	0.0014364
3190	0.0013832
3202	0.0011837
3214	0.0010906
3226	0.0010108
3238	0.0008246
3250	0.0007182
3262	0.0006118
3274	0.0005453
3286	0.0005586
3298	0.0004921
3310	0.0004389
3322	0.0003458
3334	0.0003059
3346	0.0002128
3358	0.0001862
3370	0.0002261
3382	0.0002261
3394	0.0003458
3406	0.0003192
3418	0.000532
3430	0.0007581
3442	0.0009975
3454	0.0015162
3466	0.0015827
3478	0.0011305
3490	0.0008246
3502	0.0004788
3514	0.0003591
3526	0.000133
3538	0.000133
3550	6.65e-05
3562	5.32e-05
3574	7.98e-05
3586	1.33e-05
3598	1.33e-05
3610	7.98e-05
3622	0
3634	0.000133
3646	6.65e-05
3658	7.98e-05
3670	0.0001862
3682	0.000133
3694	0.0001463
3706	0.0001596
3718	0.000133
3730	0.0001463
3742	0.000133
3754	0.0001596
3766	0.0001729
3778	0.0001862
3790	0.0001995
3802	0.0002926
3814	0.0003059
3826	0.0002128
3838	0.0002128
