Infrared Spectrum: METHYL Alpha-CHLORO ACRYLATE
Formula: C4 H5 Cl O2
CAS: 80-63-7
State: SOLUTION (10% CCl4 FOR 5000-1330, 10% CS2 FOR 1330-625 CM^-^1)
Class: COBLENTZ
Instrument: Not specified, most likely a prism, grating, or hybrid spectrometer.
Sampling: TRANSMISSION
Path length: 0.0122 CM, 0.0120 CM
Resolution: 4
Origin: DOW CHEMICAL COMPANY
MICROMETERS	TRANSMITTANCE
2.021	0.897
2.06211	0.89
2.10323	0.892
2.14434	0.892
2.18545	0.873
2.22657	0.859
2.26768	0.878
2.30879	0.883
2.34991	0.876
2.39102	0.878
2.43213	0.89
2.47325	0.895
2.51436	0.902
2.55547	0.909
2.59659	0.904
2.6377	0.904
2.67881	0.902
2.71993	0.888
2.76104	0.888
2.80215	0.871
2.84327	0.863
2.88438	0.841
2.92549	0.868
2.96661	0.87
3.00772	0.864
3.04883	0.868
3.08995	0.863
3.13106	0.868
3.17217	0.851
3.21328	0.841
3.2544	0.841
3.29551	0.75
3.33662	0.68
3.37774	0.646
3.41885	0.847
3.45996	0.815
3.50108	0.82
3.54219	0.899
3.5833	0.897
3.62442	0.904
3.66553	0.892
3.70664	0.9
3.74776	0.904
3.78887	0.9
3.82998	0.895
3.8711	0.894
3.91221	0.9
3.95332	0.892
3.99444	0.902
4.03555	0.902
4.07666	0.911
4.11778	0.907
4.15889	0.907
4.2	0.905
4.24112	0.914
4.28223	0.907
4.32334	0.907
4.36446	0.919
4.40557	0.911
4.44668	0.909
4.4878	0.909
4.52891	0.909
4.57002	0.911
4.61114	0.909
4.65225	0.883
4.69336	0.859
4.73448	0.876
4.77559	0.895
4.8167	0.892
4.85782	0.904
4.89893	0.911
4.94004	0.909
4.98116	0.911
5.02227	0.866
5.06338	0.875
5.1045	0.888
5.14561	0.9
5.18672	0.905
5.22784	0.905
5.26895	0.905
5.31006	0.883
5.35118	0.827
5.39229	0.793
5.4334	0.854
5.47452	0.851
5.51563	0.81
5.55674	0.781
5.59785	0.711
5.63897	0.589
5.68008	0.261
5.72119	0.02
5.76231	0.018
5.80342	0.097
5.84453	0.49
5.88565	0.639
5.92676	0.74
5.96787	0.786
6.00899	0.813
6.0501	0.815
6.09121	0.721
6.13233	0.47
6.17344	0.529
6.21455	0.353
6.25567	0.536
6.29678	0.688
6.33789	0.801
6.37901	0.871
6.42012	0.9
6.46123	0.917
6.50235	0.912
6.54346	0.899
6.58457	0.852
6.62569	0.832
6.6668	0.839
6.70791	0.817
6.74903	0.762
6.79014	0.641
6.83125	0.511
6.87237	0.47
6.91348	0.324
6.95459	0.225
6.99571	0.603
7.03682	0.7
7.07793	0.729
7.11905	0.697
7.16016	0.541
7.20127	0.268
7.24239	0.333
7.2835	0.656
7.32461	0.683
7.36573	0.642
7.40684	0.55
7.44795	0.447
7.48907	0.475
7.53018	0.488
7.57129	0.459
7.61241	0.406
7.65352	0.357
7.69463	0.35
7.73575	0.299
7.77686	0.191
7.81797	0.073
7.85908	0.023
7.9002	0.02
7.94131	0.027
7.98242	0.107
8.02354	0.287
8.06465	0.411
8.10576	0.471
8.14688	0.505
8.18799	0.547
8.2291	0.555
8.27022	0.509
8.31133	0.427
8.35244	0.336
8.39356	0.316
8.43467	0.451
8.47578	0.492
8.5169	0.502
8.55801	0.516
8.59912	0.531
8.64024	0.535
8.68135	0.553
8.72246	0.555
8.76358	0.511
8.80469	0.429
8.8458	0.266
8.88692	0.087
8.92803	0.022
8.96914	0.015
9.01026	0.023
9.05137	0.095
9.09248	0.304
9.1336	0.451
9.17471	0.574
9.21582	0.625
9.25694	0.656
9.29805	0.673
9.33916	0.695
9.38028	0.716
9.42139	0.721
9.4625	0.731
9.50362	0.736
9.54473	0.747
9.58584	0.75
9.62696	0.75
9.66807	0.75
9.70918	0.747
9.7503	0.733
9.79141	0.716
9.83252	0.7
9.87364	0.68
9.91475	0.673
9.95586	0.652
9.99698	0.588
10.0381	0.405
10.0792	0.37
10.1203	0.487
10.1614	0.517
10.2025	0.488
10.2437	0.576
10.2848	0.676
10.3259	0.719
10.367	0.729
10.4081	0.733
10.4492	0.726
10.4903	0.712
10.5314	0.692
10.5726	0.666
10.6137	0.618
10.6548	0.545
10.6959	0.444
10.737	0.273
10.7781	0.126
10.8192	0.061
10.8604	0.15
10.9015	0.352
10.9426	0.536
10.9837	0.618
11.0248	0.688
11.0659	0.723
11.107	0.741
11.1481	0.755
11.1893	0.762
11.2304	0.765
11.2715	0.765
11.3126	0.764
11.3537	0.75
11.3948	0.721
11.4359	0.661
11.4771	0.523
11.5182	0.352
11.5593	0.311
11.6004	0.512
11.6415	0.647
11.6826	0.712
11.7237	0.738
11.7648	0.753
11.806	0.755
11.8471	0.733
11.8882	0.692
11.9293	0.687
11.9704	0.709
12.0115	0.729
12.0526	0.74
12.0938	0.731
12.1349	0.719
12.176	0.712
12.2171	0.705
12.2582	0.705
12.2993	0.712
12.3404	0.719
12.3815	0.721
12.4227	0.707
12.4638	0.676
12.5049	0.62
12.546	0.514
12.5871	0.352
12.6282	0.158
12.6693	0.165
12.7105	0.348
12.7516	0.535
12.7927	0.608
12.8338	0.647
12.8749	0.664
12.916	0.67
12.9571	0.671
12.9982	0.671
13.0394	0.651
13.0805	0.618
13.1216	0.545
13.1627	0.454
13.2038	0.314
13.2449	0.194
13.286	0.111
13.3272	0.09
13.3683	0.205
13.4094	0.343
13.4505	0.49
13.4916	0.588
13.5327	0.632
13.5738	0.668
13.6149	0.697
13.6561	0.719
13.6972	0.738
13.7383	0.752
13.7794	0.758
13.8205	0.764
13.8616	0.765
13.9027	0.767
13.9438	0.764
13.985	0.758
14.0261	0.76
14.0672	0.758
14.1083	0.757
14.1494	0.745
14.1905	0.741
14.2316	0.74
14.2728	0.745
14.3139	0.758
14.355	0.767
14.3961	0.774
14.4372	0.777
14.4783	0.777
14.5194	0.772
14.5605	0.767
14.6017	0.748
14.6428	0.721
14.6839	0.68
14.725	0.632
14.7661	0.594
14.8072	0.57
14.8483	0.565
14.8895	0.569
14.9306	0.574
14.9717	0.6
15.0128	0.639
15.0539	0.682
15.095	0.712
15.1361	0.735
15.1772	0.752
15.2184	0.764
15.2595	0.77
15.3006	0.776
15.3417	0.788
15.3828	0.794
15.4239	0.801
15.465	0.805
15.5062	0.81
15.5473	0.817
15.5884	0.822
15.6295	0.823
15.6706	0.825
15.7117	0.829
15.7528	0.83
15.7939	0.83
15.8351	0.83
15.8762	0.83
15.9173	0.83
15.9584	0.83
