Infrared Spectrum: ACETAMIDE, N-(3,4-DIMETHYL-5-ISOXAZOLYL)-N-SULFANILYL-
Formula: C13 H15 N3 O4 S
CAS: 80-74-0
State: SOLID (KBr DISC)
Class: COBLENTZ III
Instrument: PERKIN-ELMER 21 (GRATING)
Instrument parameters: NaCl PRISM
Sampling: TRANSMISSION
Resolution: 2
Origin: SMITH KLINE & FRENCH LABS.
MICROMETERS	TRANSMITTANCE
1.993	0.62
2.02705	0.621
2.0611	0.633
2.09515	0.639
2.1292	0.64
2.16325	0.649
2.19729	0.657
2.23134	0.661
2.26539	0.666
2.29944	0.668
2.33349	0.674
2.36754	0.684
2.40159	0.691
2.43564	0.697
2.46969	0.702
2.50374	0.705
2.53778	0.707
2.57183	0.72
2.60588	0.723
2.63993	0.726
2.67398	0.731
2.70803	0.736
2.74208	0.736
2.77613	0.722
2.81018	0.634
2.84423	0.316
2.87828	0.535
2.91232	0.464
2.94637	0.188
2.98042	0.469
3.01447	0.588
3.04852	0.571
3.08257	0.531
3.11662	0.638
3.15067	0.671
3.18472	0.682
3.21877	0.679
3.25282	0.675
3.28686	0.692
3.32091	0.7
3.35496	0.688
3.38901	0.689
3.42306	0.683
3.45711	0.709
3.49116	0.718
3.52521	0.728
3.55926	0.739
3.59331	0.748
3.62735	0.753
3.6614	0.753
3.69545	0.748
3.7295	0.729
3.76355	0.734
3.7976	0.75
3.83165	0.762
3.8657	0.773
3.89975	0.775
3.9338	0.776
3.96785	0.776
4.00189	0.78
4.03594	0.78
4.06999	0.779
4.10404	0.78
4.13809	0.78
4.17214	0.782
4.20619	0.797
4.24024	0.808
4.27429	0.814
4.30834	0.81
4.34238	0.802
4.37643	0.802
4.41048	0.805
4.44453	0.799
4.47858	0.81
4.51263	0.813
4.54668	0.811
4.58073	0.811
4.61478	0.811
4.64883	0.814
4.68288	0.815
4.71692	0.82
4.75097	0.82
4.78502	0.82
4.81907	0.826
4.85312	0.83
4.88717	0.83
4.92122	0.826
4.95527	0.825
4.98932	0.828
5.02337	0.83
5.05742	0.834
5.09146	0.838
5.12551	0.831
5.15956	0.824
5.19361	0.825
5.22766	0.82
5.26171	0.821
5.29576	0.836
5.32981	0.837
5.36386	0.832
5.39791	0.82
5.43195	0.814
5.466	0.813
5.50005	0.802
5.5341	0.768
5.56815	0.741
5.6022	0.74
5.63625	0.731
5.6703	0.673
5.70435	0.51
5.7384	0.391
5.77245	0.243
5.80649	0.202
5.84054	0.197
5.87459	0.603
5.90864	0.672
5.94269	0.673
5.97674	0.507
6.01079	0.229
6.04484	0.296
6.07889	0.307
6.11294	0.149
6.14698	0.304
6.18103	0.554
6.21508	0.348
6.24913	0.099
6.28318	0.072
6.31723	0.328
6.35128	0.473
6.38533	0.514
6.41938	0.66
6.45343	0.689
6.48748	0.705
6.52152	0.716
6.55557	0.703
6.58962	0.606
6.62367	0.319
6.65772	0.475
6.69177	0.626
6.72582	0.674
6.75987	0.637
6.79392	0.55
6.82797	0.484
6.86202	0.467
6.89606	0.393
6.93011	0.343
6.96416	0.361
6.99821	0.337
7.03226	0.269
7.06631	0.333
7.10036	0.554
7.13441	0.617
7.16846	0.513
7.20251	0.442
7.23655	0.368
7.2706	0.191
7.30465	0.162
7.3387	0.162
7.37275	0.137
7.4068	0.3
7.44085	0.3
7.4749	0.222
7.50895	0.297
7.543	0.47
7.57705	0.571
7.61109	0.601
7.64514	0.442
7.67919	0.486
7.71324	0.542
7.74729	0.529
7.78134	0.638
7.81539	0.689
7.84944	0.712
7.88349	0.702
7.91754	0.632
7.95158	0.519
7.98563	0.365
8.01968	0.2
8.05373	0.157
8.08778	0.168
8.12183	0.182
8.15588	0.185
8.18993	0.317
8.22398	0.486
8.25803	0.572
8.29208	0.593
8.32612	0.554
8.36017	0.427
8.39422	0.182
8.42827	0.341
8.46232	0.421
8.49637	0.205
8.53042	0.083
8.56447	0.05
8.59852	0.037
8.63257	0.033
8.66662	0.042
8.70066	0.092
8.73471	0.2
8.76876	0.206
8.80281	0.202
8.83686	0.29
8.87091	0.379
8.90496	0.449
8.93901	0.493
8.97306	0.516
9.00711	0.544
9.04115	0.574
9.0752	0.592
9.10925	0.559
9.1433	0.398
9.17735	0.141
9.2114	0.07
9.24545	0.276
9.2795	0.425
9.31355	0.481
9.3476	0.523
9.38165	0.535
9.41569	0.555
9.44974	0.574
9.48379	0.582
9.51784	0.593
9.55189	0.597
9.58594	0.571
9.61999	0.509
9.65404	0.497
9.68809	0.538
9.72214	0.542
9.75618	0.508
9.79023	0.421
9.82428	0.3
9.85833	0.291
9.89238	0.371
9.92643	0.441
9.96048	0.501
9.99453	0.532
10.0286	0.552
10.0626	0.554
10.0967	0.543
10.1307	0.549
10.1648	0.572
10.1988	0.591
10.2329	0.601
10.2669	0.599
10.301	0.604
10.335	0.609
10.3691	0.611
10.4031	0.611
10.4372	0.608
10.4712	0.608
10.5053	0.61
10.5393	0.616
10.5734	0.615
10.6074	0.614
10.6415	0.614
10.6755	0.614
10.7096	0.614
10.7436	0.61
10.7777	0.598
10.8117	0.55
10.8458	0.501
10.8798	0.478
10.9139	0.478
10.9479	0.486
10.982	0.51
11.016	0.541
11.05	0.572
11.0841	0.597
11.1181	0.612
11.1522	0.617
11.1862	0.625
11.2203	0.628
11.2543	0.629
11.2884	0.62
11.3224	0.606
11.3565	0.561
11.3905	0.476
11.4246	0.375
11.4586	0.282
11.4927	0.274
11.5267	0.311
11.5608	0.412
11.5948	0.514
11.6289	0.588
11.6629	0.627
11.697	0.655
11.731	0.671
11.7651	0.688
11.7991	0.695
11.8332	0.669
11.8672	0.589
11.9013	0.444
11.9353	0.302
11.9694	0.324
12.0034	0.416
12.0375	0.441
12.0715	0.428
12.1056	0.53
12.1396	0.559
12.1737	0.524
12.2077	0.535
12.2418	0.601
12.2758	0.635
12.3099	0.643
12.3439	0.656
12.378	0.694
12.412	0.717
12.4461	0.725
12.4801	0.731
12.5142	0.736
12.5482	0.746
12.5823	0.751
12.6163	0.754
12.6504	0.763
12.6844	0.763
12.7185	0.768
12.7525	0.77
12.7866	0.774
12.8206	0.776
12.8546	0.781
12.8887	0.783
12.9227	0.786
12.9568	0.791
12.9908	0.794
13.0249	0.8
13.0589	0.807
13.093	0.81
13.127	0.81
13.1611	0.815
13.1951	0.814
13.2292	0.815
13.2632	0.819
13.2973	0.819
13.3313	0.82
13.3654	0.822
13.3994	0.821
13.4335	0.82
13.4675	0.825
13.5016	0.825
13.5356	0.824
13.5697	0.822
13.6037	0.822
13.6378	0.822
13.6718	0.822
13.7059	0.821
13.7399	0.815
13.774	0.807
13.808	0.797
13.8421	0.77
13.8761	0.742
13.9102	0.677
13.9442	0.543
13.9783	0.453
14.0123	0.4
14.0464	0.394
14.0804	0.405
14.1145	0.509
14.1485	0.639
14.1826	0.677
14.2166	0.694
14.2507	0.671
14.2847	0.603
14.3188	0.495
14.3528	0.379
14.3869	0.236
14.4209	0.162
14.455	0.137
14.489	0.125
14.5231	0.121
14.5571	0.14
14.5912	0.154
14.6252	0.182
14.6592	0.242
14.6933	0.331
14.7273	0.422
14.7614	0.501
14.7954	0.566
14.8295	0.62
14.8635	0.656
