Infrared Spectrum: 5Beta-PREGNANE-3Alpha,20Alpha-DIOL
Formula: C21 H36 O2
CAS: 80-92-2
State: SOLID (KBr DISC)
Class: COBLENTZ III
Instrument: BECKMAN IR-7
Sampling: TRANSMISSION
Resolution: 4
Origin: THE WORCESTER FOUNDATION FOR EXPERIMENTAL BIOLOGY, Neal L. McNiven
1/CM	TRANSMITTANCE
599.269	0.448
608.042	0.402
616.815	0.452
625.588	0.502
634.36	0.555
643.133	0.59
651.906	0.6
660.679	0.616
669.452	0.612
678.225	0.579
686.998	0.55
695.771	0.521
704.543	0.511
713.316	0.524
722.089	0.551
730.862	0.581
739.635	0.641
748.408	0.682
757.181	0.723
765.953	0.763
774.726	0.79
783.499	0.796
792.272	0.822
801.045	0.833
809.818	0.803
818.591	0.835
827.363	0.678
836.136	0.835
844.909	0.76
853.682	0.793
862.455	0.827
871.228	0.657
880.001	0.6058
888.774	0.771
897.546	0.5549
906.319	0.774
915.092	0.683
923.865	0.692
932.638	0.8
941.411	0.6101
950.184	0.645
958.956	0.48
967.729	0.76
976.502	0.784
985.275	0.7041
994.048	0.64
1002.82	0.398
1011.59	0.307
1020.37	0.465
1029.14	0.2481
1037.91	0.22
1046.69	0.391
1055.46	0.622
1064.23	0.251
1073	0.451
1081.78	0.285
1090.55	0.404
1099.32	0.452
1108.1	0.508
1116.87	0.6029
1125.64	0.686
1134.41	0.718
1143.19	0.621
1151.96	0.617
1160.73	0.529
1169.51	0.512
1178.28	0.698
1187.05	0.571
1195.82	0.726
1204.6	0.73
1213.37	0.718
1222.14	0.664
1230.92	0.697
1239.69	0.691
1248.46	0.684
1257.23	0.684
1266.01	0.694
1274.78	0.669
1283.55	0.631
1292.33	0.4071
1301.1	0.356
1309.87	0.577
1318.64	0.55
1327.42	0.468
1336.19	0.536
1344.96	0.632
1353.74	0.582
1362.51	0.235
1371.28	0.265
1380.05	0.369
1388.83	0.4931
1397.6	0.672
1406.37	0.605
1415.15	0.453
1423.92	0.545
1432.69	0.401
1441.46	0.278
1450.24	0.248
1459.01	0.355
1467.78	0.417
1476.56	0.708
1485.33	0.802
1494.1	0.837
1502.87	0.854
1511.65	0.872
1520.42	0.877
1529.19	0.882
1537.97	0.88
1546.74	0.876
1555.51	0.874
1564.28	0.873
1573.06	0.867
1581.83	0.874
1590.6	0.878
1599.38	0.88
1608.15	0.88
1616.92	0.875
1625.69	0.876
1634.47	0.876
1643.24	0.877
1652.01	0.88
1660.79	0.881
1669.56	0.882
1678.33	0.883
1687.1	0.885
1695.88	0.881
1704.65	0.873
1713.42	0.861
1722.2	0.863
1730.97	0.863
1739.74	0.87
1748.51	0.885
1757.29	0.909
1766.06	0.917
1774.83	0.921
1783.61	0.925
1792.38	0.927
1801.15	0.929
1809.92	0.931
1818.7	0.932
1827.47	0.933
1836.24	0.934
1845.02	0.936
1853.79	0.937
1862.56	0.938
1871.33	0.939
1880.11	0.938
1888.88	0.936
1897.65	0.934
1906.43	0.933
1915.2	0.933
1923.97	0.933
1932.74	0.933
1941.52	0.933
1950.29	0.934
1959.06	0.935
1967.84	0.936
1976.61	0.937
1985.38	0.938
1994.15	0.938
2002.93	0.933
2011.7	0.931
2020.47	0.93
2029.25	0.928
2038.02	0.926
2046.79	0.924
2055.56	0.923
2064.34	0.922
2073.11	0.92
2081.88	0.919
2090.66	0.917
2099.43	0.9149
2108.2	0.9139
2116.97	0.9129
2125.75	0.912
2134.52	0.9109
2143.29	0.909
2152.07	0.908
2160.84	0.906
2169.61	0.906
2178.38	0.9058
2187.16	0.905
2195.93	0.904
2204.7	0.904
2213.48	0.9038
2222.25	0.903
2231.02	0.901
2239.79	0.901
2248.57	0.901
2257.34	0.9013
2266.11	0.9017
2274.89	0.901
2283.66	0.8997
2292.43	0.898
2301.2	0.8977
2309.98	0.896
2318.75	0.8956
2327.52	0.8946
2336.3	0.8926
2345.07	0.89
2353.84	0.8896
2362.61	0.8876
2371.39	0.8842
2380.16	0.8787
2388.93	0.8746
2397.71	0.873
2406.48	0.872
2415.25	0.8705
2424.02	0.869
2432.8	0.868
2441.57	0.867
2450.34	0.8645
2459.12	0.86
2467.89	0.8519
2476.66	0.8459
2485.44	0.8409
2494.21	0.8384
2502.98	0.837
2511.75	0.8354
2520.53	0.834
2529.3	0.832
2538.07	0.8304
2546.85	0.8284
2555.62	0.8224
2564.39	0.8203
2573.16	0.8183
2581.94	0.8147
2590.71	0.8013
2599.48	0.7936
2608.26	0.7856
2617.03	0.7813
2625.8	0.7776
2634.57	0.7691
2643.35	0.7508
2652.12	0.7285
2660.89	0.7182
2669.67	0.7077
2678.44	0.7032
2687.21	0.6994
2695.98	0.6952
2704.76	0.6958
2713.53	0.7033
2722.3	0.7058
2731.08	0.707
2739.85	0.707
2748.62	0.706
2757.39	0.704
2766.17	0.7021
2774.94	0.6973
2783.71	0.6902
2792.49	0.6726
2801.26	0.6414
2810.03	0.5833
2818.8	0.5452
2827.58	0.4003
2836.35	0.1151
2845.12	0.072
2853.9	0.0969
2862.67	0.1499
2871.44	0.156
2880.21	0.1378
2888.99	0.1118
2897.76	0.0893
2906.53	0.0375
2915.31	0.026
2924.08	0.0333
2932.85	0.0538
2941.62	0.0734
2950.4	0.1072
2959.17	0.1616
2967.94	0.2173
2976.72	0.2833
2985.49	0.3421
2994.26	0.4048
3003.03	0.4592
3011.81	0.4732
3020.58	0.5355
3029.35	0.6091
3038.13	0.6828
3046.9	0.7179
3055.67	0.7413
3064.44	0.7544
3073.22	0.7622
3081.99	0.763
3090.76	0.763
3099.54	0.7595
3108.31	0.7541
3117.08	0.7461
3125.85	0.7348
3134.63	0.7208
3143.4	0.7097
3152.17	0.6973
3160.95	0.6847
3169.72	0.6696
3178.49	0.6488
3187.26	0.6332
3196.04	0.6097
3204.81	0.5799
3213.58	0.5452
3222.36	0.5147
3231.13	0.4843
3239.9	0.4465
3248.67	0.3948
3257.45	0.3477
3266.22	0.311
3274.99	0.2754
3283.77	0.2366
3292.54	0.1965
3301.31	0.1745
3310.08	0.1504
3318.86	0.1288
3327.63	0.1083
3336.4	0.0969
3345.18	0.0894
3353.95	0.0859
3362.72	0.0824
3371.49	0.0774
3380.27	0.0702
3389.04	0.068
3397.81	0.0741
3406.59	0.0943
3415.36	0.1215
3424.13	0.1477
3432.9	0.1806
3441.68	0.222
3450.45	0.2778
3459.22	0.3063
3468	0.3533
3476.77	0.3946
3485.54	0.4456
3494.31	0.5117
3503.09	0.5443
3511.86	0.5819
3520.63	0.6122
3529.41	0.6592
3538.18	0.6834
3546.95	0.7112
3555.72	0.73
3564.5	0.7495
3573.27	0.7734
3582.04	0.794
3590.82	0.8044
3599.59	0.8154
3608.36	0.8275
3617.13	0.835
3625.91	0.8369
3634.68	0.837
3643.45	0.8399
3652.23	0.8448
3661	0.8479
3669.77	0.848
3678.54	0.8509
3687.32	0.856
3696.09	0.858
3704.86	0.86
3713.64	0.861
3722.41	0.864
3731.18	0.867
3739.95	0.869
3748.73	0.87
3757.5	0.871
3766.27	0.87
3775.05	0.872
3783.82	0.872
3792.59	0.8731
3801.36	0.875
3810.14	0.8759
3818.91	0.8751
3827.68	0.8761
3836.46	0.877
3845.23	0.878
3854	0.879
3862.77	0.8772
3871.55	0.878
3880.32	0.878
3889.09	0.878
3897.87	0.8788
3906.64	0.878
3915.41	0.878
3924.18	0.878
3932.96	0.8778
3941.73	0.8772
3950.5	0.878
3959.28	0.878
3968.05	0.877
3976.82	0.877
3985.59	0.877
3994.37	0.877
4003.14	0.877
4011.91	0.876
