Infrared Spectrum: 3-Ethoxy-4-hydroxyphenylacetic acid
Formula: C 10 H 12 O 4
CAS: 80018-50-4
State: gas
Origin: EPA-IR VAPOR PHASE LIBRARY
1/CM	ABSORBANCE
549.8	0.012959
559.445	0.020559
569.09	0.027249
578.734	0.027359
588.379	0.021119
598.024	0.017339
607.669	0.017149
617.313	0.019699
626.958	0.021789
636.603	0.019219
646.248	0.015119
655.893	0.011849
665.537	0.009109
675.182	0.009159
684.827	0.010569
694.472	0.009569
704.116	0.006369
713.761	0.004859
723.406	0.004109
733.051	0.003869
742.695	0.004459
752.34	0.005439
761.985	0.006169
771.63	0.006589
781.275	0.007919
790.919	0.013849
800.564	0.020419
810.209	0.018649
819.854	0.013809
829.498	0.007659
839.143	0.005899
848.788	0.006489
858.433	0.006389
868.078	0.007039
877.722	0.007729
887.367	0.007279
897.012	0.006329
906.657	0.005749
916.301	0.005529
925.946	0.006459
935.591	0.007029
945.236	0.005309
954.88	0.006519
964.525	0.008469
974.17	0.009209
983.815	0.006199
993.46	0.004879
1003.1	0.005629
1012.75	0.008579
1022.39	0.016019
1032.04	0.027599
1041.68	0.031689
1051.33	0.023529
1060.97	0.016359
1070.62	0.017099
1080.26	0.024859
1089.91	0.039069
1099.55	0.062959
1109.2	0.096499
1118.84	0.103179
1128.49	0.082779
1138.13	0.059189
1147.78	0.051299
1157.42	0.040629
1167.07	0.032559
1176.71	0.030379
1186.36	0.035289
1196	0.045749
1205.64	0.045659
1215.29	0.041379
1224.93	0.052009
1234.58	0.064989
1244.22	0.055609
1253.87	0.052249
1263.51	0.093139
1273.16	0.107919
1282.8	0.052729
1292.45	0.032279
1302.09	0.026299
1311.74	0.019349
1321.38	0.016439
1331.03	0.017529
1340.67	0.022519
1350.32	0.030789
1359.96	0.031549
1369.61	0.027579
1379.25	0.025799
1388.9	0.020659
1398.54	0.017129
1408.18	0.013319
1417.83	0.012049
1427.47	0.018089
1437.12	0.028599
1446.76	0.020079
1456.41	0.010359
1466.05	0.008899
1475.7	0.011749
1485.34	0.018099
1494.99	0.029359
1504.63	0.074009
1514.28	0.110349
1523.92	0.054149
1533.57	0.016339
1543.21	0.007989
1552.86	0.005239
1562.5	0.004299
1572.15	0.004179
1581.79	0.005309
1591.44	0.009119
1601.08	0.014589
1610.73	0.014479
1620.37	0.009769
1630.01	0.005039
1639.66	0.003109
1649.3	0.002519
1658.95	0.002399
1668.59	0.002419
1678.24	0.002799
1687.88	0.003199
1697.53	0.003849
1707.17	0.004949
1716.82	0.006949
1726.46	0.010549
1736.11	0.017219
1745.75	0.028649
1755.4	0.043889
1765.04	0.062749
1774.69	0.082439
1784.33	0.079119
1793.98	0.058629
1803.62	0.037179
1813.27	0.018499
1822.91	0.009509
1832.55	0.005589
1842.2	0.003829
1851.84	0.003439
1861.49	0.003209
1871.13	0.002619
1880.78	0.001959
1890.42	0.001809
1900.07	0.001769
1909.71	0.001849
1919.36	0.001769
1929	0.001649
1938.65	0.001479
1948.29	0.001319
1957.94	0.001179
1967.58	0.001219
1977.23	0.001169
1986.87	0.001179
1996.52	0.001199
2006.16	0.001259
2015.81	0.001219
2025.45	0.001269
2035.1	0.001239
2044.74	0.001189
2054.38	0.001129
2064.03	0.001279
2073.67	0.001209
2083.32	0.0010016
2092.96	0.0008399
2102.61	0.0007388
2112.25	0.00077
2121.9	0.0008354
2131.54	0.0006953
2141.19	0.0007734
2150.83	0.0005935
2160.48	0.0007494
2170.12	0.0008144
2179.77	0.0007381
2189.41	0.0007953
2199.06	0.0008582
2208.7	0.0009649
2218.35	0.00083
2227.99	0.0008223
2237.64	0.0007452
2247.28	0.0007727
2256.92	0.000781
2266.57	0.0007861
2276.21	0.0008731
2285.86	0.0010434
2295.5	0.0009177
2305.15	0.001169
2314.79	0.001199
2324.44	0.001409
2334.08	0.001339
2343.73	0.001259
2353.37	0.001329
2363.02	0.001299
2372.66	0.001359
2382.31	0.0010138
2391.95	0.000993
2401.6	0.0010143
2411.24	0.0009356
2420.89	0.0009223
2430.53	0.0008399
2440.18	0.0009355
2449.82	0.0008479
2459.47	0.0010054
2469.11	0.0010636
2478.75	0.001093
2488.4	0.0009392
2498.04	0.0011077
2507.69	0.001149
2517.33	0.001139
2526.98	0.0010173
2536.62	0.0010645
2546.27	0.0009506
2555.91	0.0007661
2565.56	0.0007
2575.2	0.0005769
2584.85	0.0005363
2594.49	0.0005434
2604.14	0.0006091
2613.78	0.0006545
2623.43	0.0006775
2633.07	0.0007163
2642.72	0.0008167
2652.36	0.0006451
2662.01	0.0006134
2671.65	0.0004336
2681.29	0.000628
2690.94	0.0005139
2700.58	0.000593
2710.23	0.000805
2719.87	0.0008353
2729.52	0.0009041
2739.16	0.0008523
2748.81	0.0010332
2758.45	0.0009611
2768.1	0.0009772
2777.74	0.0010764
2787.39	0.0009652
2797.03	0.0010411
2806.68	0.001259
2816.32	0.0011286
2825.97	0.001529
2835.61	0.001809
2845.26	0.002319
2854.9	0.002899
2864.55	0.003759
2874.19	0.005239
2883.84	0.007489
2893.48	0.009179
2903.12	0.010209
2912.77	0.011169
2922.41	0.012419
2932.06	0.014539
2941.7	0.016329
2951.35	0.013959
2960.99	0.011749
2970.64	0.013529
2980.28	0.019239
2989.93	0.022959
2999.57	0.013769
3009.22	0.007439
3018.86	0.005689
3028.51	0.005499
3038.15	0.006209
3047.8	0.006579
3057.44	0.006779
3067.09	0.005859
3076.73	0.004029
3086.38	0.002409
3096.02	0.001469
3105.67	0.001459
3115.31	0.001239
3124.95	0.0009117
3134.6	0.0011057
3144.24	0.0007036
3153.89	0.0003706
3163.53	0.0005994
3173.18	0.0005475
3182.82	0.0006371
3192.47	0.000647
3202.11	0.0006205
3211.76	0.000752
3221.4	0.0006046
3231.05	0.0003537
3240.69	0.000375
3250.34	0.0005754
3259.98	0.0004434
3269.63	0.0004881
3279.27	0.0005052
3288.92	0.000254
3298.56	0.0004602
3308.21	0.0003427
3317.85	0.0004583
3327.49	0.000287
3337.14	0.0003853
3346.78	0.00019184
3356.43	0
3366.07	0.0003009
3375.72	0.00015842
3385.36	6.59e-05
3395.01	0.0002449
3404.65	0.0003058
3414.3	0.00015684
3423.94	6.85e-05
3433.59	0.0003788
3443.23	0.000356
3452.88	0.0003679
3462.52	0.0003119
3472.17	0.0003551
3481.81	0.0006115
3491.46	0.0007637
3501.1	0.0009968
3510.75	0.001339
3520.39	0.001769
3530.04	0.002719
3539.68	0.004379
3549.32	0.008179
3558.97	0.015829
3568.61	0.051249
3578.26	0.079179
3587.9	0.048319
3597.55	0.018669
3607.19	0.006469
3616.84	0.003109
3626.48	0.001769
3636.13	0.001639
3645.77	0.002379
3655.42	0.001969
3665.06	0.0006715
3674.71	0.0005656
3684.35	0.0004495
3694	0.0003894
3703.64	0.0004638
3713.29	0.0005551
3722.93	0.0004862
3732.58	0.0002901
3742.22	0.0003264
3751.86	0.00018802
3761.51	0.0002965
3771.15	0.0002442
3780.8	0.00019792
3790.44	0.0003356
3800.09	0.0002367
3809.73	0.0003368
3819.38	0.00022641
3829.02	0.0003614
3838.67	0.0005387
3848.31	0.0005326
3857.96	0.0003948
3867.6	0.0004669
3877.25	0.0004918
3886.89	0.00018521
3896.54	0.0003904
3906.18	0.00018152
3915.83	0.0002865
3925.47	0.0002567
3935.12	0.0003319
3944.76	0.00021973
3954.41	0.0003288
3964.05	0.0004992
3973.69	0.0002461
3983.34	0.00021863
3992.98	0.0003159
