Infrared Spectrum: VENETIAN RED
Formula: Fe2 O3, Ca S O4
CAS: 8011-97-0
State: SOLID (1 mg / 300 mg CsI DISC)
Class: COBLENTZ
Instrument: Not specified, most likely a grating spectrometer.
Sampling: TRANSMISSION
Resolution: 4
Origin: DESOTO CHEMICAL COATINGS, INC.
1/CM	TRANSMITTANCE
200	0.747
210.635	0.744
221.27	0.744
231.905	0.731
242.541	0.687
253.176	0.582
263.811	0.484
274.446	0.443
285.081	0.428
295.716	0.427
306.352	0.447
316.987	0.477
327.622	0.468
338.257	0.425
348.892	0.407
359.527	0.401
370.163	0.4479
380.798	0.497
391.433	0.594
402.068	0.67
412.703	0.69
423.338	0.708
433.974	0.728
444.609	0.704
455.244	0.644
465.879	0.579
476.514	0.5191
487.149	0.504
497.785	0.66
508.42	0.742
519.055	0.714
529.69	0.5721
540.325	0.431
550.96	0.384
561.596	0.369
572.231	0.355
582.866	0.349
593.501	0.3191
604.136	0.3989
614.771	0.289
625.407	0.56
636.042	0.6779
646.677	0.762
657.312	0.805
667.947	0.814
678.582	0.399
689.218	0.7659
699.853	0.882
710.488	0.903
721.123	0.917
731.758	0.931
742.393	0.935
753.029	0.946
763.664	0.954
774.299	0.959
784.934	0.961
795.569	0.963
806.204	0.966
816.84	0.965
827.475	0.969
838.11	0.969
848.745	0.966
859.38	0.969
870.015	0.969
880.651	0.963
891.286	0.961
901.921	0.966
912.556	0.961
923.191	0.961
933.826	0.959
944.462	0.955
955.097	0.953
965.732	0.949
976.367	0.945
987.002	0.939
997.637	0.929
1008.27	0.919
1018.91	0.902
1029.54	0.898
1040.18	0.883
1050.81	0.85
1061.45	0.81
1072.08	0.734
1082.72	0.626
1093.35	0.444
1103.99	0.291
1114.62	0.189
1125.26	0.17
1135.89	0.2
1146.53	0.172
1157.16	0.133
1167.8	0.156
1178.44	0.216
1189.07	0.343
1199.71	0.511
1210.34	0.639
1220.98	0.6989
1231.61	0.736
1242.25	0.773
1252.88	0.791
1263.52	0.811
1274.15	0.821
1284.79	0.831
1295.42	0.838
1306.06	0.851
1316.69	0.862
1327.33	0.865
1337.96	0.87
1348.6	0.871
1359.23	0.871
1369.87	0.871
1380.5	0.879
1391.14	0.882
1401.77	0.879
1412.41	0.879
1423.04	0.882
1433.68	0.886
1444.31	0.886
1454.95	0.889
1465.58	0.89
1476.22	0.893
1486.85	0.894
1497.49	0.891
1508.13	0.897
1518.76	0.897
1529.4	0.895
1540.03	0.895
1550.67	0.889
1561.3	0.891
1571.94	0.89
1582.57	0.886
1593.21	0.871
1603.84	0.859
1614.48	0.841
1625.11	0.829
1635.75	0.845
1646.38	0.862
1657.02	0.869
1667.65	0.879
1678.29	0.889
1688.92	0.889
1699.56	0.889
1710.19	0.895
1720.83	0.895
1731.46	0.898
1742.1	0.897
1752.73	0.898
1763.37	0.899
1774	0.899
1784.64	0.903
1795.27	0.901
1805.91	0.902
1816.55	0.901
1827.18	0.902
1837.82	0.901
1848.45	0.898
1859.09	0.901
1869.72	0.899
1880.36	0.901
1890.99	0.901
1901.63	0.899
1912.26	0.899
1922.9	0.899
1933.53	0.899
1944.17	0.898
1954.8	0.894
1965.44	0.893
1976.07	0.894
1986.71	0.897
1997.34	0.895
2007.98	0.901
2018.61	0.902
2029.25	0.901
2039.88	0.903
2050.52	0.898
2061.15	0.903
2071.79	0.903
2082.42	0.899
2093.06	0.901
2103.69	0.902
2114.33	0.901
2124.96	0.894
2135.6	0.89
2146.24	0.886
2156.87	0.89
2167.51	0.894
2178.14	0.891
2188.78	0.893
2199.41	0.893
2210.05	0.893
2220.68	0.893
2231.32	0.891
2241.95	0.893
2252.59	0.887
2263.22	0.889
2273.86	0.889
2284.49	0.8899
2295.13	0.89
2305.76	0.889
2316.4	0.886
2327.03	0.89
2337.67	0.89
2348.3	0.887
2358.94	0.883
2369.57	0.8859
2380.21	0.89
2390.84	0.89
2401.48	0.89
2412.11	0.887
2422.75	0.889
2433.38	0.89
2444.02	0.8872
2454.66	0.8871
2465.29	0.887
2475.93	0.887
2486.56	0.886
2497.2	0.885
2507.83	0.885
2518.47	0.885
2529.1	0.885
2539.74	0.8831
2550.37	0.882
2561.01	0.8791
2571.64	0.878
2582.28	0.878
2592.91	0.879
2603.55	0.8791
2614.18	0.879
2624.82	0.878
2635.45	0.877
2646.09	0.875
2656.72	0.875
2667.36	0.877
2677.99	0.875
2688.63	0.8731
2699.26	0.8701
2709.9	0.8661
2720.53	0.87
2731.17	0.869
2741.8	0.866
2752.44	0.8659
2763.07	0.8688
2773.71	0.87
2784.35	0.8691
2794.98	0.866
2805.62	0.863
2816.25	0.863
2826.89	0.862
2837.52	0.861
2848.16	0.859
2858.79	0.8514
2869.43	0.85
2880.06	0.8528
2890.7	0.8531
2901.33	0.85
2911.97	0.847
2922.6	0.8451
2933.24	0.843
2943.87	0.845
2954.51	0.843
2965.14	0.842
2975.78	0.843
2986.41	0.845
2997.05	0.8421
3007.68	0.8411
3018.32	0.841
3028.95	0.8411
3039.59	0.841
3050.22	0.841
3060.86	0.837
3071.49	0.838
3082.13	0.838
3092.76	0.837
3103.4	0.833
3114.04	0.83
3124.67	0.83
3135.31	0.83
3145.94	0.8273
3156.58	0.8224
3167.21	0.819
3177.85	0.817
3188.48	0.813
3199.12	0.8091
3209.75	0.807
3220.39	0.805
3231.02	0.802
3241.66	0.7981
3252.29	0.7953
3262.93	0.793
3273.56	0.79
3284.2	0.789
3294.83	0.7835
3305.47	0.7753
3316.1	0.7702
3326.74	0.7633
3337.37	0.758
3348.01	0.7505
3358.64	0.7396
3369.28	0.7312
3379.91	0.717
3390.55	0.7066
3401.18	0.6876
3411.82	0.6803
3422.46	0.6763
3433.09	0.675
3443.73	0.674
3454.36	0.6758
3465	0.678
3475.63	0.6788
3486.27	0.6798
3496.9	0.68
3507.54	0.6828
3518.17	0.6868
3528.81	0.69
3539.44	0.6936
3550.08	0.6977
3560.71	0.7028
3571.35	0.71
3581.98	0.7255
3592.62	0.7373
3603.25	0.7505
3613.89	0.7548
3624.52	0.7646
3635.16	0.7726
3645.79	0.778
3656.43	0.782
3667.06	0.785
3677.7	0.7886
3688.33	0.789
3698.97	0.787
3709.6	0.786
3720.24	0.785
3730.87	0.786
3741.51	0.789
3752.15	0.787
3762.78	0.786
3773.42	0.783
3784.05	0.7846
3794.69	0.786
3805.32	0.783
3815.96	0.781
3826.59	0.7782
3837.23	0.778
3847.86	0.777
3858.5	0.777
3869.13	0.777
3879.77	0.777
3890.4	0.777
3901.04	0.774
3911.67	0.773
3922.31	0.771
3932.94	0.771
3943.58	0.771
3954.21	0.77
3964.85	0.77
3975.48	0.77
