Infrared Spectrum: URACIL, 1,3-DIETHYL-5-FLUORO-
Formula: C8 H11 F N2 O2
CAS: 80115-67-9
State: SOLID (1 mg / 650 mg KBr DISC)
Class: COBLENTZ III
Instrument: PERKIN-ELMER 221 (GRATING)
Instrument parameters: FILTER CHANGES AT 2490, 980 CM^-^1, GRATING FOR 4000-1428 CM^-^1, NaCl PRISM FOR 1428-650 CM^-^1
Sampling: TRANSMISSION
Resolution: 4
Origin: SOUTHERN RESEARCH INST.
1/CM	TRANSMITTANCE
626.582	0.795
636.158	0.793
645.734	0.787
655.311	0.781
664.887	0.764
674.463	0.703
684.039	0.789
693.616	0.788
703.192	0.784
712.768	0.763
722.344	0.737
731.92	0.697
741.497	0.578
751.073	0.305
760.649	0.576
770.225	0.631
779.801	0.539
789.378	0.707
798.954	0.583
808.53	0.706
818.106	0.774
827.683	0.774
837.259	0.762
846.835	0.745
856.411	0.721
865.987	0.69
875.564	0.634
885.14	0.626
894.716	0.553
904.292	0.398
913.868	0.308
923.445	0.451
933.021	0.706
942.597	0.749
952.173	0.751
961.75	0.744
971.326	0.718
980.902	0.706
990.478	0.691
1000.05	0.642
1009.63	0.59
1019.21	0.582
1028.78	0.699
1038.36	0.689
1047.94	0.633
1057.51	0.55
1067.09	0.394
1076.66	0.548
1086.24	0.48
1095.82	0.546
1105.39	0.501
1114.97	0.636
1124.55	0.692
1134.12	0.665
1143.7	0.624
1153.27	0.507
1162.85	0.409
1172.43	0.594
1182	0.706
1191.58	0.672
1201.15	0.631
1210.73	0.589
1220.31	0.548
1229.88	0.487
1239.46	0.406
1249.04	0.317
1258.61	0.199
1268.19	0.43
1277.76	0.579
1287.34	0.643
1296.92	0.647
1306.49	0.624
1316.07	0.549
1325.65	0.417
1335.22	0.296
1344.8	0.373
1354.37	0.417
1363.95	0.474
1373.53	0.719
1383.1	0.753
1392.68	0.771
1402.26	0.784
1411.83	0.612
1421.41	0.477
1430.98	0.481
1440.56	0.406
1450.14	0.323
1459.71	0.274
1469.29	0.307
1478.87	0.493
1488.44	0.63
1498.02	0.598
1507.59	0.564
1517.17	0.58
1526.75	0.657
1536.32	0.639
1545.9	0.606
1555.47	0.571
1565.05	0.548
1574.63	0.514
1584.2	0.476
1593.78	0.432
1603.36	0.389
1612.93	0.332
1622.51	0.266
1632.08	0.214
1641.66	0.108
1651.24	0.062
1660.81	0.058
1670.39	0.088
1679.97	0.096
1689.54	0.142
1699.12	0.159
1708.69	0.147
1718.27	0.15
1727.85	0.281
1737.42	0.345
1747	0.401
1756.58	0.438
1766.15	0.467
1775.73	0.491
1785.3	0.514
1794.88	0.537
1804.46	0.556
1814.03	0.571
1823.61	0.596
1833.19	0.601
1842.76	0.606
1852.34	0.639
1861.91	0.651
1871.49	0.674
1881.07	0.693
1890.64	0.706
1900.22	0.714
1909.79	0.721
1919.37	0.726
1928.95	0.729
1938.52	0.732
1948.1	0.74
1957.68	0.744
1967.25	0.751
1976.83	0.755
1986.4	0.76
1995.98	0.769
2005.56	0.773
2015.13	0.774
2024.71	0.774
2034.29	0.774
2043.86	0.772
2053.44	0.778
2063.01	0.786
2072.59	0.788
2082.17	0.783
2091.74	0.783
2101.32	0.789
2110.9	0.789
2120.47	0.791
2130.05	0.793
2139.62	0.793
2149.2	0.796
2158.78	0.795
2168.35	0.793
2177.93	0.793
2187.51	0.795
2197.08	0.796
2206.66	0.797
2216.23	0.796
2225.81	0.793
2235.39	0.791
2244.96	0.792
2254.54	0.792
2264.11	0.787
2273.69	0.788
2283.27	0.792
2292.84	0.796
2302.42	0.794
2312	0.792
2321.57	0.784
2331.15	0.779
2340.72	0.778
2350.3	0.779
2359.88	0.781
2369.45	0.785
2379.03	0.793
2388.61	0.794
2398.18	0.793
2407.76	0.779
2417.33	0.773
2426.91	0.77
2436.49	0.77
2446.06	0.77
2455.64	0.77
2465.22	0.773
2474.79	0.785
2484.37	0.793
2493.94	0.78
2503.52	0.766
2513.1	0.764
2522.67	0.763
2532.25	0.763
2541.82	0.774
2551.4	0.779
2560.98	0.781
2570.55	0.781
2580.13	0.779
2589.71	0.778
2599.28	0.783
2608.86	0.782
2618.43	0.78
2628.01	0.78
2637.59	0.783
2647.16	0.785
2656.74	0.782
2666.32	0.777
2675.89	0.773
2685.47	0.772
2695.04	0.771
2704.62	0.77
2714.2	0.769
2723.77	0.768
2733.35	0.766
2742.93	0.766
2752.5	0.764
2762.08	0.763
2771.65	0.761
2781.23	0.76
2790.81	0.755
2800.38	0.747
2809.96	0.738
2819.54	0.736
2829.11	0.735
2838.69	0.733
2848.26	0.733
2857.84	0.731
2867.42	0.727
2876.99	0.682
2886.57	0.679
2896.14	0.682
2905.72	0.678
2915.3	0.665
2924.87	0.646
2934.45	0.609
2944.03	0.608
2953.6	0.62
2963.18	0.604
2972.75	0.511
2982.33	0.462
2991.91	0.496
3001.48	0.552
3011.06	0.555
3020.64	0.56
3030.21	0.58
3039.79	0.587
3049.36	0.583
3058.94	0.559
3068.52	0.503
3078.09	0.425
3087.67	0.473
3097.25	0.63
3106.82	0.68
3116.4	0.691
3125.97	0.695
3135.55	0.697
3145.13	0.703
3154.7	0.714
3164.28	0.724
3173.86	0.726
3183.43	0.727
3193.01	0.727
3202.58	0.727
3212.16	0.726
3221.74	0.726
3231.31	0.726
3240.89	0.725
3250.46	0.724
3260.04	0.722
3269.62	0.718
3279.19	0.715
3288.77	0.707
3298.35	0.706
3307.92	0.705
3317.5	0.702
3327.07	0.688
3336.65	0.649
3346.23	0.633
3355.8	0.649
3365.38	0.657
3374.96	0.658
3384.53	0.656
3394.11	0.653
3403.68	0.65
3413.26	0.652
3422.84	0.657
3432.41	0.661
3441.99	0.665
3451.57	0.671
3461.14	0.676
3470.72	0.677
3480.29	0.684
3489.87	0.691
3499.45	0.693
3509.02	0.696
3518.6	0.698
3528.18	0.702
3537.75	0.704
3547.33	0.707
3556.9	0.712
3566.48	0.717
3576.06	0.722
3585.63	0.729
3595.21	0.733
3604.78	0.737
3614.36	0.746
3623.94	0.749
3633.51	0.754
3643.09	0.757
3652.67	0.759
3662.24	0.761
3671.82	0.761
3681.39	0.761
3690.97	0.761
3700.55	0.76
3710.12	0.759
3719.7	0.759
3729.28	0.758
3738.85	0.758
3748.43	0.759
3758	0.759
3767.58	0.76
3777.16	0.759
3786.73	0.758
3796.31	0.756
3805.89	0.753
3815.46	0.752
3825.04	0.751
3834.61	0.751
3844.19	0.751
3853.77	0.751
3863.34	0.751
3872.92	0.751
3882.5	0.751
3892.07	0.751
3901.65	0.751
3911.22	0.751
3920.8	0.751
3930.38	0.751
3939.95	0.751
3949.53	0.751
3959.1	0.751
3968.68	0.751
3978.26	0.75
3987.83	0.75
3997.41	0.75
4006.99	0.75
