Infrared Spectrum: BENZENE, 1-CHLORO-3,5-BIS(1,1-DIMETHYLETHYL)-
Formula: C14 H21 Cl
CAS: 80438-67-1
State: SOLUTION (10% IN CCl4 FOR 3800-1330, 10% IN CS2 FOR 1330-400 CM^-^1)
Class: COBLENTZ III
Instrument: Not specified, most likely a prism, grating, or hybrid spectrometer.
Sampling: TRANSMISSION
Path length: 0.010, 0.010 CM
Resolution: 4
Origin: DOW CHEMICAL COMPANY
1/CM	TRANSMITTANCE
381.703	0.698
391.167	0.706
400.631	0.739
410.094	0.8379
419.558	0.912
429.022	0.931
438.486	0.955
447.949	0.955
457.413	0.962
466.877	0.962
476.341	0.96
485.804	0.979
495.268	0.979
504.732	0.975
514.196	0.981
523.659	0.983
533.123	0.968
542.587	0.975
552.051	0.938
561.515	0.985
570.978	0.99
580.442	0.996
589.906	1
599.37	1
608.833	0.998
618.297	0.994
627.761	0.988
637.225	0.977
646.688	0.955
656.152	0.946
665.616	0.973
675.08	0.927
684.543	0.925
694.007	0.886
703.471	0.3041
712.935	0.888
722.399	0.942
731.862	0.951
741.326	0.955
750.79	0.959
760.254	0.949
769.717	0.8941
779.181	0.3715
788.645	0.873
798.109	0.944
807.572	0.955
817.036	0.957
826.5	0.949
835.964	0.923
845.428	0.788
854.891	0.105
864.355	0.2343
873.819	0.6928
883.283	0.84
892.746	0.763
902.21	0.903
911.674	0.936
921.138	0.869
930.601	0.875
940.065	0.942
949.529	0.964
958.993	0.975
968.456	0.981
977.92	0.979
987.384	0.975
996.848	0.8899
1006.31	0.96
1015.78	0.951
1025.24	0.944
1034.7	0.959
1044.17	0.968
1053.63	0.973
1063.09	0.977
1072.56	0.977
1082.02	0.973
1091.49	0.966
1100.95	0.951
1110.41	0.884
1119.88	0.808
1129.34	0.929
1138.8	0.8639
1148.27	0.94
1157.73	0.955
1167.2	0.949
1176.66	0.938
1186.12	0.923
1195.59	0.862
1205.05	0.661
1214.51	0.886
1223.98	0.882
1233.44	0.8169
1242.91	0.5032
1252.37	0.4269
1261.83	0.7
1271.3	0.719
1280.76	0.4488
1290.22	0.5369
1299.69	0.842
1309.15	0.851
1318.62	0.914
1328.08	0.92
1337.54	0.916
1347.01	0.907
1356.47	0.804
1365.93	0.148
1375.4	0.8211
1384.86	0.866
1394.33	0.4403
1403.79	0.646
1413.25	0.3319
1422.72	0.6981
1432.18	0.7111
1441.64	0.605
1451.11	0.592
1460.57	0.4919
1470.04	0.447
1479.5	0.146
1488.96	0.769
1498.43	0.814
1507.89	0.778
1517.35	0.698
1526.82	0.678
1536.28	0.579
1545.75	0.49
1555.21	0.447
1564.67	0.3819
1574.14	0.046
1583.6	0.475
1593.06	0.41
1602.53	0.3253
1611.99	0.8021
1621.46	0.933
1630.92	0.959
1640.38	0.985
1649.85	0.99
1659.31	0.985
1668.78	0.983
1678.24	0.983
1687.7	0.983
1697.17	0.986
1706.63	0.986
1716.09	0.983
1725.56	0.972
1735.02	0.923
1744.49	0.944
1753.95	0.955
1763.41	0.951
1772.88	0.957
1782.34	0.972
1791.8	0.983
1801.27	0.988
1810.73	0.988
1820.2	0.986
1829.66	0.986
1839.12	0.986
1848.59	0.986
1858.05	0.986
1867.51	0.988
1876.98	0.99
1886.44	0.99
1895.91	0.986
1905.37	0.994
1914.83	0.996
1924.3	0.996
1933.76	0.998
1943.22	0.996
1952.69	0.996
1962.15	0.988
1971.62	0.983
1981.08	0.975
1990.54	0.968
2000.01	0.957
2009.47	0.949
2018.93	0.946
2028.4	0.942
2037.86	0.9381
2047.33	0.936
2056.79	0.938
2066.25	0.94
2075.72	0.9438
2085.18	0.944
2094.64	0.944
2104.11	0.944
2113.57	0.942
2123.04	0.94
2132.5	0.9364
2141.96	0.938
2151.43	0.94
2160.89	0.94
2170.35	0.94
2179.82	0.94
2189.28	0.94
2198.75	0.94
2208.21	0.94
2217.67	0.938
2227.14	0.936
2236.6	0.934
2246.06	0.9317
2255.53	0.929
2264.99	0.9257
2274.46	0.9188
2283.92	0.9148
2293.38	0.9088
2302.85	0.9111
2312.31	0.9151
2321.77	0.916
2331.24	0.9181
2340.7	0.924
2350.17	0.927
2359.63	0.925
2369.09	0.925
2378.56	0.929
2388.02	0.9299
2397.49	0.933
2406.95	0.934
2416.41	0.934
2425.88	0.938
2435.34	0.942
2444.8	0.942
2454.27	0.942
2463.73	0.942
2473.2	0.944
2482.66	0.947
2492.12	0.949
2501.59	0.9484
2511.05	0.947
2520.51	0.946
2529.98	0.946
2539.44	0.946
2548.91	0.942
2558.37	0.94
2567.83	0.942
2577.3	0.9444
2586.76	0.947
2596.22	0.946
2605.69	0.944
2615.15	0.946
2624.62	0.947
2634.08	0.9487
2643.54	0.9416
2653.01	0.94
2662.47	0.936
2671.93	0.9401
2681.4	0.9419
2690.86	0.94
2700.33	0.936
2709.79	0.9182
2719.25	0.9159
2728.72	0.934
2738.18	0.9311
2747.64	0.921
2757.11	0.944
2766.57	0.947
2776.04	0.9402
2785.5	0.936
2794.96	0.9215
2804.43	0.899
2813.89	0.9047
2823.35	0.8892
2832.82	0.8665
2842.28	0.8389
2851.75	0.7659
2861.21	0.4993
2870.67	0.3114
2880.14	0.3437
2889.6	0.4191
2899.06	0.3962
2908.53	0.2733
2917.99	0.3369
2927.46	0.347
2936.92	0.2793
2946.38	0.1973
2955.85	0.0364
2965.31	0.018
2974.77	0.0363
2984.24	0.1282
2993.7	0.5296
3003.17	0.7569
3012.63	0.8424
3022.09	0.8677
3031.56	0.9068
3041.02	0.9205
3050.48	0.922
3059.95	0.914
3069.41	0.8946
3078.88	0.89
3088.34	0.892
3097.8	0.9158
3107.27	0.9389
3116.73	0.9478
3126.2	0.955
3135.66	0.9558
3145.12	0.957
3154.59	0.957
3164.05	0.9543
3173.51	0.949
3182.98	0.947
3192.44	0.947
3201.91	0.946
3211.37	0.946
3220.83	0.946
3230.3	0.947
3239.76	0.9515
3249.22	0.953
3258.69	0.951
3268.15	0.949
3277.62	0.9514
3287.08	0.9554
3296.54	0.959
3306.01	0.962
3315.47	0.964
3324.93	0.964
3334.4	0.962
3343.86	0.96
3353.33	0.9591
3362.79	0.96
3372.25	0.96
3381.72	0.962
3391.18	0.966
3400.64	0.968
3410.11	0.968
3419.57	0.968
3429.04	0.968
3438.5	0.9641
3447.96	0.964
3457.43	0.9621
3466.89	0.962
3476.35	0.96
3485.82	0.96
3495.28	0.96
3504.75	0.959
3514.21	0.959
3523.67	0.9573
3533.14	0.957
3542.6	0.957
3552.06	0.959
3561.53	0.96
3570.99	0.9592
3580.46	0.9575
3589.92	0.9555
3599.38	0.955
3608.85	0.953
3618.31	0.953
3627.77	0.953
3637.24	0.953
3646.7	0.953
3656.17	0.949
3665.63	0.947
3675.09	0.946
3684.56	0.946
3694.02	0.944
3703.48	0.944
3712.95	0.944
3722.41	0.942
3731.88	0.9409
3741.34	0.94
3750.8	0.938
3760.27	0.938
3769.73	0.936
