Infrared Spectrum: Hexa-2,4-dienal
Formula: C6 H8 O
CAS: 80466-34-8
State: LIQUID (NEAT)
Class: COBLENTZ III
Instrument: BECKMAN IR-4 (HYBRID PRISM-GRATING)
Sampling: TRANSMISSION
Path length: CAPILLARY
Resolution: 2
Origin: UNIVERSITY OF FLORIDA
1/CM	TRANSMITTANCE
667	0.6865
676	0.7105
685	0.7296
694	0.7433
703	0.7602
712	0.7501
721	0.6865
730	0.6897
739	0.7244
748	0.773
757	0.7941
766	0.7834
775	0.7312
784	0.7867
793	0.8272
802	0.8427
811	0.8478
820	0.8517
829	0.8349
838	0.8195
847	0.7618
856	0.656
865	0.7172
874	0.807
883	0.8317
892	0.8266
901	0.8009
910	0.7503
919	0.6154
928	0.5914
937	0.6796
946	0.651
955	0.5833
964	0.6076
973	0.4286
982	0.1319
991	0.1774
1000	0.3987
1009	0.1896
1018	0.2993
1027	0.5481
1036	0.6245
1045	0.7325
1054	0.7507
1063	0.7456
1072	0.6921
1081	0.4004
1090	0.566
1099	0.4719
1108	0.1876
1117	0.0385
1126	0.219
1135	0.5389
1144	0.5118
1153	0.2271
1162	0.0553
1171	0.2285
1180	0.6
1189	0.7107
1198	0.7538
1207	0.7661
1216	0.7309
1225	0.7241
1234	0.7572
1243	0.7953
1252	0.7956
1261	0.7012
1270	0.7413
1279	0.7581
1288	0.692
1297	0.6418
1306	0.6529
1315	0.715
1324	0.7541
1333	0.7928
1342	0.8088
1351	0.8161
1360	0.8084
1369	0.752
1378	0.6376
1387	0.6773
1396	0.6737
1405	0.6978
1414	0.7059
1423	0.6824
1432	0.5892
1441	0.5207
1450	0.4263
1459	0.4737
1468	0.6515
1477	0.746
1486	0.7998
1495	0.8073
1504	0.8089
1513	0.8101
1522	0.8088
1531	0.8057
1540	0.7997
1549	0.7819
1558	0.767
1567	0.7533
1576	0.7151
1585	0.5305
1594	0.462
1603	0.3901
1612	0.4818
1621	0.362
1630	0.1288
1639	0.0289
1648	0.046
1657	0.2243
1666	0.1687
1675	0.0546
1684	0.0262
1693	0.0208
1702	0.2297
1711	0.486
1720	0.5895
1729	0.6777
1738	0.706
1747	0.7399
1756	0.7808
1765	0.8041
1774	0.8182
1783	0.8277
1792	0.8316
1801	0.8315
1810	0.83
1819	0.8285
1828	0.8312
1837	0.8367
1846	0.8399
1855	0.8411
1864	0.8473
1873	0.8522
1882	0.8563
1891	0.856
1900	0.8522
1909	0.8584
1918	0.8643
1927	0.8709
1936	0.8746
1945	0.874
1954	0.8717
1963	0.8679
1972	0.8642
1981	0.8601
1990	0.8596
1999	0.8608
2008	0.8607
2017	0.8578
2026	0.8543
2035	0.8559
2044	0.8602
2053	0.8648
2062	0.8688
2071	0.8719
2080	0.8753
2089	0.8766
2098	0.8771
2107	0.8772
2116	0.8777
2125	0.8791
2134	0.8804
2143	0.8807
2152	0.8799
2161	0.8786
2170	0.8767
2179	0.8744
2188	0.8701
2197	0.8647
2206	0.8568
2215	0.8475
2224	0.8376
2233	0.8267
2242	0.826
2251	0.836
2260	0.8506
2269	0.861
2278	0.8663
2287	0.8676
2296	0.8672
2305	0.8671
2314	0.8669
2323	0.8653
2332	0.8637
2341	0.8617
2350	0.8596
2359	0.8576
2368	0.8556
2377	0.8552
2386	0.8584
2395	0.8625
2404	0.8623
2413	0.8609
2422	0.8594
2431	0.8608
2440	0.8645
2449	0.8701
2458	0.872
2467	0.8726
2476	0.8729
2485	0.8731
2494	0.8732
2503	0.8722
2512	0.8711
2521	0.8697
2530	0.8683
2539	0.8667
2548	0.8649
2557	0.8638
2566	0.8627
2575	0.8618
2584	0.8627
2593	0.8629
2602	0.8606
2611	0.8577
2620	0.8562
2629	0.8557
2638	0.8555
2647	0.8554
2656	0.8499
2665	0.8263
2674	0.8069
2683	0.7872
2692	0.7707
2701	0.7407
2710	0.7106
2719	0.6907
2728	0.6459
2737	0.6014
2746	0.5709
2755	0.5813
2764	0.6212
2773	0.6608
2782	0.7002
2791	0.7078
2800	0.6768
2809	0.6322
2818	0.5879
2827	0.5437
2836	0.5367
2845	0.5499
2854	0.5871
2863	0.6242
2872	0.661
2881	0.6837
2890	0.6873
2899	0.6942
2908	0.6959
2917	0.6714
2926	0.6381
2935	0.6269
2944	0.6246
2953	0.6245
2962	0.6318
2971	0.6398
2980	0.6388
2989	0.6388
2998	0.6397
3007	0.6358
3016	0.6105
3025	0.5864
3034	0.5831
3043	0.6502
3052	0.6952
3061	0.7212
3070	0.7456
3079	0.7602
3088	0.7711
3097	0.7801
3106	0.7875
3115	0.7943
3124	0.8009
3133	0.8077
3142	0.8149
3151	0.8202
3160	0.8234
3169	0.8247
3178	0.8261
3187	0.8273
3196	0.8286
3205	0.8297
3214	0.8309
3223	0.8315
3232	0.8319
3241	0.8323
3250	0.8319
3259	0.8308
3268	0.8263
3277	0.8227
3286	0.8206
3295	0.8211
3304	0.8221
3313	0.8222
3322	0.8152
3331	0.7994
3340	0.7835
3349	0.7701
3358	0.7686
3367	0.7779
3376	0.7907
3385	0.8069
3394	0.8187
3403	0.8242
3412	0.8279
3421	0.8306
3430	0.8327
3439	0.8341
3448	0.8346
3457	0.8346
3466	0.8335
3475	0.8324
3484	0.831
3493	0.8296
3502	0.8284
3511	0.8274
3520	0.8265
3529	0.8255
3538	0.8246
3547	0.8248
3556	0.8255
3565	0.8263
3574	0.8285
3583	0.8307
3592	0.8329
3601	0.8337
3610	0.8341
3619	0.8337
3628	0.8335
3637	0.8337
3646	0.8339
3655	0.8348
3664	0.8357
3673	0.8365
3682	0.8375
3691	0.8386
3700	0.8397
3709	0.8408
3718	0.8419
3727	0.843
3736	0.8441
3745	0.8461
3754	0.8482
3763	0.8503
3772	0.8526
3781	0.8545
3790	0.8561
3799	0.8573
3808	0.858
3817	0.8587
3826	0.8594
3835	0.86
3844	0.8607
3853	0.8614
3862	0.8618
3871	0.8617
3880	0.8616
3889	0.8613
3898	0.8611
3907	0.8608
3916	0.8605
3925	0.8603
3934	0.86
3943	0.8596
3952	0.8591
3961	0.8586
3970	0.8581
3979	0.8576
3988	0.8571
3997	0.8567
