Infrared Spectrum: 3-Chloro-2-Methylbenzenesulphonyl chloride
Formula: C 7 H 6 Cl 2 O 2 S
CAS: 80563-86-6
State: gas
Origin: EPA-IR VAPOR PHASE LIBRARY
1/CM	ABSORBANCE
549.8	0.13829
559.445	0.09135
569.09	0.06133
578.734	0.12587
588.379	0.17303
598.024	0.15874
607.669	0.38549
617.313	0.25769
626.958	0.03835
636.603	0.01493
646.248	0.00849
655.893	0.00628
665.537	0.006
675.182	0.00758
684.827	0.02384
694.472	0.06033
704.116	0.03604
713.761	0.00996
723.406	0.00557
733.051	0.00609
742.695	0.00867
752.34	0.01624
761.985	0.02957
771.63	0.04201
781.275	0.06343
790.919	0.04583
800.564	0.03039
810.209	0.01731
819.854	0.0054
829.498	0.00296
839.143	0.00212
848.788	0.0024
858.433	0.00251
868.078	0.00225
877.722	0.00201
887.367	0.00226
897.012	0.0021
906.657	0.00205
916.301	0.00285
925.946	0.00232
935.591	0.00179
945.236	0.00202
954.88	0.00322
964.525	0.00468
974.17	0.00665
983.815	0.00993
993.46	0.0151
1003.1	0.01861
1012.75	0.01724
1022.39	0.0124
1032.04	0.01101
1041.68	0.00914
1051.33	0.0124
1060.97	0.0233
1070.62	0.06073
1080.26	0.07708
1089.91	0.06415
1099.55	0.02755
1109.2	0.01314
1118.84	0.01172
1128.49	0.01076
1138.13	0.01256
1147.78	0.02337
1157.42	0.05592
1167.07	0.07862
1176.71	0.20226
1186.36	0.32716
1196	0.14705
1205.64	0.0739
1215.29	0.0526
1224.93	0.03294
1234.58	0.01365
1244.22	0.01101
1253.87	0.016
1263.51	0.02202
1273.16	0.01646
1282.8	0.0089
1292.45	0.00707
1302.09	0.00565
1311.74	0.00486
1321.38	0.00514
1331.03	0.00629
1340.67	0.0082
1350.32	0.0121
1359.96	0.02016
1369.61	0.04518
1379.25	0.12542
1388.9	0.24353
1398.54	0.18826
1408.18	0.06887
1417.83	0.04963
1427.47	0.09405
1437.12	0.14243
1446.76	0.08698
1456.41	0.03024
1466.05	0.01804
1475.7	0.01425
1485.34	0.01149
1494.99	0.00845
1504.63	0.0066
1514.28	0.00578
1523.92	0.00525
1533.57	0.00491
1543.21	0.00536
1552.86	0.0084
1562.5	0.01185
1572.15	0.01216
1581.79	0.01088
1591.44	0.00562
1601.08	0.00341
1610.73	0.00327
1620.37	0.00272
1630.01	0.00189
1639.66	0.00191
1649.3	0.00168
1658.95	0.00182
1668.59	0.0018
1678.24	0.00263
1687.88	0.00413
1697.53	0.00668
1707.17	0.00459
1716.82	0.0016
1726.46	0.00157
1736.11	0.00134
1745.75	0.002
1755.4	0.00194
1765.04	0.00159
1774.69	0.00159
1784.33	0.00127
1793.98	0.00122
1803.62	0.0011347
1813.27	0.00178
1822.91	0.00241
1832.55	0.00294
1842.2	0.00207
1851.84	0.00129
1861.49	0.00142
1871.13	0.00223
1880.78	0.00467
1890.42	0.00504
1900.07	0.00188
1909.71	0.00113
1919.36	0.00144
1929	0.00225
1938.65	0.00359
1948.29	0.00378
1957.94	0.0019
1967.58	0.0011332
1977.23	0.0011237
1986.87	0.0010579
1996.52	0.00117
2006.16	0.0009658
2015.81	0.0009188
2025.45	0.0006838
2035.1	0.001113
2044.74	0.0009898
2054.38	0.0010375
2064.03	0.0009546
2073.67	0.0008396
2083.32	0.000989
2092.96	0.0008711
2102.61	0.000906
2112.25	0.0005693
2121.9	0.0008367
2131.54	0.0007916
2141.19	0.0007972
2150.83	0.00117
2160.48	0.001104
2170.12	0.00124
2179.77	0.0011228
2189.41	0.00116
2199.06	0.00119
2208.7	0.00117
2218.35	0.0010001
2227.99	0.0010297
2237.64	0.0011115
2247.28	0.0011212
2256.92	0.00133
2266.57	0.00134
2276.21	0.00147
2285.86	0.00132
2295.5	0.00116
2305.15	0.00155
2314.79	0.00168
2324.44	0.00158
2334.08	0.0010547
2343.73	0.00122
2353.37	0.00152
2363.02	0.00191
2372.66	0.00183
2382.31	0.00145
2391.95	0.00132
2401.6	0.0016
2411.24	0.00123
2420.89	0.00139
2430.53	0.00117
2440.18	0.001032
2449.82	0.001085
2459.47	0.00141
2469.11	0.00149
2478.75	0.00167
2488.4	0.00145
2498.04	0.0015
2507.69	0.00147
2517.33	0.0019
2526.98	0.0019
2536.62	0.00192
2546.27	0.00227
2555.91	0.00236
2565.56	0.00272
2575.2	0.00296
2584.85	0.00239
2594.49	0.00202
2604.14	0.00162
2613.78	0.00125
2623.43	0.0015
2633.07	0.00201
2642.72	0.00179
2652.36	0.00159
2662.01	0.00165
2671.65	0.0010542
2681.29	0.0010459
2690.94	0.0007746
2700.58	0.0008186
2710.23	0.0005212
2719.87	0.0006965
2729.52	0.000508
2739.16	0.0010021
2748.81	0.00133
2758.45	0.00135
2768.1	0.00161
2777.74	0.00177
2787.39	0.00166
2797.03	0.00129
2806.68	0.00116
2816.32	0.0009687
2825.97	0.00139
2835.61	0.00146
2845.26	0.00157
2854.9	0.00182
2864.55	0.00239
2874.19	0.00212
2883.84	0.00203
2893.48	0.00185
2903.12	0.00148
2912.77	0.00171
2922.41	0.00214
2932.06	0.00366
2941.7	0.00484
2951.35	0.00557
2960.99	0.00563
2970.64	0.00512
2980.28	0.00478
2989.93	0.004
2999.57	0.00362
3009.22	0.00311
3018.86	0.00286
3028.51	0.00251
3038.15	0.00287
3047.8	0.00331
3057.44	0.00478
3067.09	0.00687
3076.73	0.0086
3086.38	0.00863
3096.02	0.00931
3105.67	0.00434
3115.31	0.00321
3124.95	0.00255
3134.6	0.00208
3144.24	0.0017
3153.89	0.00176
3163.53	0.00135
3173.18	0.0010066
3182.82	0.0004039
3192.47	0.0012
3202.11	0.0006002
3211.76	0.0010942
3221.4	0.0008075
3231.05	0.0006302
3240.69	0.001032
3250.34	0.0005348
3259.98	0.00129
3269.63	0.0010573
3279.27	0.0010433
3288.92	0.0005716
3298.56	0.0006903
3308.21	0.0006044
3317.85	0.0009332
3327.49	0.0007772
3337.14	0.0006108
3346.78	0.0008768
3356.43	0.000888
3366.07	0.000718
3375.72	0.0010105
3385.36	0.000897
3395.01	0.0007007
3404.65	0.0011044
3414.3	0.0008466
3423.94	0.0005117
3433.59	7.25e-05
3443.23	0.0006639
3452.88	0.0003746
3462.52	0.000529
3472.17	0.0010589
3481.81	0.0006671
3491.46	0.0005719
3501.1	0.0006567
3510.75	0.0005617
3520.39	0.000596
3530.04	0.0009564
3539.68	0.0007129
3549.32	0.0008414
3558.97	0.0009211
3568.61	0.0009423
3578.26	0.0008262
3587.9	0.0010094
3597.55	0.0004068
3607.19	0.0004901
3616.84	0.0007855
3626.48	0.0008572
3636.13	0.0008755
3645.77	0.0005566
3655.42	0.0004319
3665.06	0.0011382
3674.71	0.0007535
3684.35	9.63e-05
3694	0.0007711
3703.64	0.0003577
3713.29	0.0008404
3722.93	0.0010093
3732.58	0.0010903
3742.22	0.0002863
3751.86	0.0004492
3761.51	0.00018266
3771.15	0.0004764
3780.8	0.00121
3790.44	0.0003541
3800.09	0.00116
3809.73	0.0006578
3819.38	0.0007248
3829.02	0.0004005
3838.67	0.00123
3848.31	0.0010327
3857.96	0.0014
3867.6	0.00144
3877.25	0.00193
3886.89	0.000918
3896.54	0.0007291
3906.18	0.0008472
3915.83	0.00119
3925.47	0.0004552
3935.12	0.0006168
3944.76	0.0008344
3954.41	0.0007621
3964.05	0.0005584
3973.69	0.000663
3983.34	0.000849
3992.98	0.0010068
