Infrared Spectrum: 1,3-BUTADIENE, 1,2,3,4-TETRAPHENYL-
Formula: C28 H22
CAS: 806-71-3
State: SOLID (KBr DISC)
Class: COBLENTZ III
Instrument: PERKIN-ELMER 521 (GRATING)
Instrument parameters: FILTERS AT 3150, 2500, 2000, 1150, 700, 410; GRATING CHANGES AT 2000, 630 CM^-^1
Sampling: TRANSMISSION
Resolution: 4
Origin: DOW CORNING CORP.
1/CM	TRANSMITTANCE
216.631	0.818
225.586	0.816
234.541	0.815
243.497	0.809
252.452	0.801
261.407	0.794
270.362	0.808
279.318	0.835
288.273	0.849
297.228	0.863
306.183	0.869
315.139	0.872
324.094	0.884
333.049	0.9
342.004	0.905
350.96	0.919
359.915	0.921
368.87	0.921
377.825	0.919
386.78	0.914
395.736	0.891
404.691	0.856
413.646	0.91
422.601	0.917
431.557	0.916
440.512	0.916
449.467	0.914
458.422	0.905
467.378	0.876
476.333	0.8179
485.288	0.914
494.243	0.926
503.198	0.917
512.154	0.842
521.109	0.8507
530.064	0.912
539.019	0.898
547.975	0.4094
556.93	0.8758
565.885	0.874
574.84	0.623
583.796	0.924
592.751	0.947
601.706	0.942
610.661	0.919
619.617	0.924
628.572	0.947
637.527	0.958
646.482	0.952
655.437	0.938
664.393	0.914
673.348	0.886
682.303	0.7881
691.258	0.528
700.214	0.3659
709.169	0.1019
718.124	0.897
727.079	0.947
736.035	0.947
744.99	0.924
753.945	0.6979
762.9	0.6226
771.856	0.5666
780.811	0.928
789.766	0.6097
798.721	0.954
807.676	0.961
816.632	0.966
825.587	0.972
834.542	0.959
843.497	0.834
852.453	0.952
861.408	0.712
870.363	0.4931
879.318	0.938
888.274	0.8339
897.229	0.961
906.184	0.963
915.139	0.921
924.094	0.71
933.05	0.4531
942.005	0.954
950.96	0.956
959.915	0.951
968.871	0.951
977.826	0.923
986.781	0.855
995.736	0.935
1004.69	0.839
1013.65	0.897
1022.6	0.797
1031.56	0.6709
1040.51	0.886
1049.47	0.89
1058.42	0.876
1067.38	0.8181
1076.33	0.689
1085.29	0.851
1094.24	0.865
1103.2	0.862
1112.15	0.872
1121.11	0.881
1130.06	0.89
1139.02	0.888
1147.98	0.876
1156.93	0.856
1165.89	0.874
1174.84	0.8531
1183.8	0.856
1192.75	0.876
1201.71	0.874
1210.66	0.872
1219.62	0.884
1228.57	0.886
1237.53	0.884
1246.48	0.881
1255.44	0.872
1264.39	0.87
1273.35	0.869
1282.3	0.877
1291.26	0.877
1300.21	0.877
1309.17	0.87
1318.12	0.869
1327.08	0.863
1336.04	0.855
1344.99	0.802
1353.95	0.619
1362.9	0.813
1371.86	0.839
1380.81	0.834
1389.77	0.813
1398.72	0.828
1407.68	0.844
1416.63	0.848
1425.59	0.844
1434.54	0.788
1443.5	0.26
1452.45	0.815
1461.41	0.834
1470.36	0.821
1479.32	0.799
1488.27	0.5301
1497.23	0.5531
1506.18	0.8279
1515.14	0.842
1524.1	0.837
1533.05	0.83
1542.01	0.82
1550.96	0.806
1559.92	0.79
1568.87	0.767
1577.83	0.773
1586.78	0.75
1595.74	0.6191
1604.69	0.65
1613.65	0.762
1622.6	0.76
1631.56	0.757
1640.51	0.759
1649.47	0.762
1658.42	0.766
1667.38	0.771
1676.33	0.771
1685.29	0.785
1694.24	0.792
1703.2	0.795
1712.16	0.788
1721.11	0.785
1730.07	0.781
1739.02	0.78
1747.98	0.769
1756.93	0.738
1765.89	0.78
1774.84	0.773
1783.8	0.785
1792.75	0.78
1801.71	0.78
1810.66	0.778
1819.62	0.781
1828.57	0.78
1837.53	0.776
1846.48	0.785
1855.44	0.787
1864.39	0.785
1873.35	0.776
1882.3	0.762
1891.26	0.759
1900.21	0.757
1909.17	0.767
1918.13	0.773
1927.08	0.771
1936.04	0.766
1944.99	0.731
1953.95	0.727
1962.9	0.734
1971.86	0.755
1980.81	0.767
1989.77	0.773
1998.72	0.776
2007.68	0.78
2016.63	0.781
2025.59	0.781
2034.54	0.78
2043.5	0.778
2052.45	0.775
2061.41	0.773
2070.36	0.772
2079.32	0.771
2088.27	0.767
2097.23	0.766
2106.19	0.762
2115.14	0.762
2124.1	0.759
2133.05	0.759
2142.01	0.757
2150.96	0.755
2159.92	0.753
2168.87	0.743
2177.83	0.741
2186.78	0.739
2195.74	0.738
2204.69	0.7338
2213.65	0.729
2222.6	0.7289
2231.56	0.724
2240.51	0.722
2249.47	0.72
2258.42	0.7199
2267.38	0.719
2276.33	0.7149
2285.29	0.71
2294.25	0.708
2303.2	0.708
2312.16	0.706
2321.11	0.703
2330.07	0.703
2339.02	0.703
2347.98	0.7008
2356.93	0.698
2365.89	0.698
2374.84	0.6948
2383.8	0.6919
2392.75	0.6878
2401.71	0.682
2410.66	0.6788
2419.62	0.6779
2428.57	0.6738
2437.53	0.671
2446.48	0.67
2455.44	0.6698
2464.39	0.6667
2473.35	0.6675
2482.31	0.6598
2491.26	0.657
2500.22	0.6547
2509.17	0.6537
2518.13	0.6507
2527.08	0.649
2536.04	0.6457
2544.99	0.642
2553.95	0.64
2562.9	0.635
2571.86	0.6337
2580.81	0.631
2589.77	0.63
2598.72	0.6277
2607.68	0.6247
2616.63	0.6232
2625.59	0.623
2634.54	0.621
2643.5	0.617
2652.45	0.614
2661.41	0.6127
2670.37	0.6098
2679.32	0.605
2688.28	0.6046
2697.23	0.602
2706.19	0.598
2715.14	0.598
2724.1	0.5942
2733.05	0.589
2742.01	0.588
2750.96	0.584
2759.92	0.584
2768.87	0.5826
2777.83	0.577
2786.78	0.574
2795.74	0.5716
2804.69	0.5686
2813.65	0.567
2822.6	0.5615
2831.56	0.5595
2840.51	0.5439
2849.47	0.5273
2858.42	0.523
2867.38	0.527
2876.34	0.527
2885.29	0.5245
2894.25	0.5165
2903.2	0.505
2912.16	0.494
2921.11	0.4717
2930.07	0.4641
2939.02	0.4823
2947.98	0.49
2956.93	0.49
2965.89	0.488
2974.84	0.488
2983.8	0.488
2992.75	0.4819
3001.71	0.4681
3010.66	0.4525
3019.62	0.394
3028.57	0.3674
3037.53	0.3815
3046.48	0.3942
3055.44	0.303
3064.4	0.3118
3073.35	0.404
3082.31	0.3821
3091.26	0.4333
3100.22	0.4537
3109.17	0.4784
3118.13	0.486
3127.08	0.4725
3136.04	0.4614
3144.99	0.4572
3153.95	0.455
3162.9	0.4522
3171.86	0.4474
3180.81	0.4433
3189.77	0.4387
3198.72	0.4324
3207.68	0.4283
3216.63	0.424
3225.59	0.418
3234.54	0.417
3243.5	0.413
3252.46	0.408
3261.41	0.4037
3270.37	0.3973
3279.32	0.3933
3288.28	0.3891
3297.23	0.3843
3306.19	0.378
3315.14	0.3723
3324.1	0.3663
3333.05	0.361
3342.01	0.3561
3350.96	0.3483
3359.92	0.3421
3368.87	0.3356
3377.83	0.3293
3386.78	0.3232
3395.74	0.3192
3404.69	0.315
3413.65	0.312
3422.6	0.3092
3431.56	0.307
3440.52	0.305
3449.47	0.303
3458.43	0.3038
3467.38	0.305
3476.34	0.305
3485.29	0.307
3494.25	0.308
3503.2	0.308
3512.16	0.31
3521.11	0.312
3530.07	0.315
3539.02	0.3169
3547.98	0.319
3556.93	0.3238
3565.89	0.3284
3574.84	0.331
3583.8	0.3354
3592.75	0.338
3601.71	0.34
3610.66	0.3449
3619.62	0.347
3628.58	0.349
3637.53	0.35
3646.49	0.3539
3655.44	0.357
3664.4	0.359
3673.35	0.359
3682.31	0.359
3691.26	0.359
3700.22	0.359
3709.17	0.357
3718.13	0.356
3727.08	0.354
3736.04	0.352
3744.99	0.349
3753.95	0.349
3762.9	0.347
3771.86	0.347
3780.81	0.347
