Infrared Spectrum: DI-(P-BROMOPHENACYL) SUCCINATE
Formula: C20 H16 Br2 O6
CAS: 806-98-4
State: SOLID (OIL MULL)
Class: COBLENTZ
Instrument: Not specified, most likely a grating spectrometer.
Sampling: TRANSMISSION
Resolution: 4
Origin: ABBOTT LABORATORIES
MICROMETERS	TRANSMITTANCE
1.987	0.512
2.02069	0.517
2.05438	0.528
2.08807	0.532
2.12176	0.533
2.15546	0.54
2.18915	0.553
2.22284	0.557
2.25653	0.558
2.29022	0.538
2.32391	0.538
2.3576	0.543
2.39129	0.552
2.42498	0.56
2.45868	0.565
2.49237	0.583
2.52606	0.596
2.55975	0.601
2.59344	0.606
2.62713	0.618
2.66082	0.624
2.69451	0.638
2.7282	0.642
2.7619	0.647
2.79559	0.647
2.82928	0.646
2.86297	0.646
2.89666	0.642
2.93035	0.633
2.96404	0.646
2.99773	0.652
3.03142	0.652
3.06512	0.652
3.09881	0.649
3.1325	0.642
3.16619	0.634
3.19988	0.609
3.23357	0.595
3.26726	0.54
3.30095	0.404
3.33464	0.163
3.36833	0.085
3.40203	0.066
3.43572	0.051
3.46941	0.033
3.5031	0.072
3.53679	0.512
3.57048	0.647
3.60417	0.699
3.63786	0.697
3.67155	0.69
3.70525	0.697
3.73894	0.705
3.77263	0.717
3.80632	0.725
3.84001	0.738
3.8737	0.753
3.90739	0.773
3.94108	0.795
3.97477	0.806
4.00847	0.809
4.04216	0.816
4.07585	0.813
4.10954	0.814
4.14323	0.821
4.17692	0.819
4.21061	0.824
4.2443	0.828
4.27799	0.831
4.31169	0.829
4.34538	0.831
4.37907	0.838
4.41276	0.847
4.44645	0.852
4.48014	0.859
4.51383	0.856
4.54752	0.857
4.58121	0.867
4.61491	0.869
4.6486	0.876
4.68229	0.885
4.71598	0.889
4.74967	0.885
4.78336	0.889
4.81705	0.876
4.85074	0.864
4.88443	0.877
4.91813	0.884
4.95182	0.894
4.98551	0.899
5.0192	0.9
5.05289	0.905
5.08658	0.91
5.12027	0.9
5.15396	0.902
5.18765	0.871
5.22135	0.897
5.25504	0.897
5.28873	0.902
5.32242	0.915
5.35611	0.914
5.3898	0.912
5.42349	0.905
5.45718	0.902
5.49087	0.887
5.52457	0.869
5.55826	0.813
5.59195	0.742
5.62564	0.628
5.65933	0.378
5.69302	0.122
5.72671	0.128
5.7604	0.079
5.79409	0.309
5.82778	0.322
5.86148	0.102
5.89517	0.072
5.92886	0.352
5.96255	0.542
5.99624	0.547
6.02993	0.672
6.06362	0.723
6.09731	0.757
6.131	0.796
6.1647	0.811
6.19839	0.821
6.23208	0.74
6.26577	0.395
6.29946	0.191
6.33315	0.57
6.36684	0.601
6.40053	0.685
6.43422	0.775
6.46792	0.798
6.50161	0.811
6.5353	0.824
6.56899	0.826
6.60268	0.829
6.63637	0.821
6.67006	0.803
6.70375	0.679
6.73744	0.522
6.77114	0.527
6.80483	0.343
6.83852	0.158
6.87221	0.145
6.9059	0.181
6.93959	0.297
6.97328	0.406
7.00697	0.304
7.04066	0.133
7.07436	0.519
7.10805	0.631
7.14174	0.396
7.17543	0.368
7.20912	0.497
7.24281	0.312
7.2765	0.15
7.31019	0.315
7.34388	0.439
7.37758	0.557
7.41127	0.55
7.44496	0.504
7.47865	0.426
7.51234	0.319
7.54603	0.168
7.57972	0.087
7.61341	0.104
7.6471	0.297
7.6808	0.269
7.71449	0.438
7.74818	0.423
7.78187	0.528
7.81556	0.555
7.84925	0.537
7.88294	0.54
7.91663	0.595
7.95032	0.682
7.98402	0.705
8.01771	0.629
8.0514	0.419
8.08509	0.452
8.11878	0.451
8.15247	0.461
8.18616	0.581
8.21985	0.664
8.25354	0.743
8.28723	0.778
8.32093	0.795
8.35462	0.795
8.38831	0.778
8.422	0.735
8.45569	0.614
8.48938	0.421
8.52307	0.203
8.55676	0.204
8.59045	0.125
8.62415	0.061
8.65784	0.029
8.69153	0.036
8.72522	0.085
8.75891	0.214
8.7926	0.332
8.82629	0.467
8.85998	0.54
8.89367	0.596
8.92737	0.633
8.96106	0.662
8.99475	0.682
9.02844	0.704
9.06213	0.685
9.09582	0.662
9.12951	0.717
9.1632	0.735
9.19689	0.738
9.23059	0.705
9.26428	0.654
9.29797	0.48
9.33166	0.267
9.36535	0.338
9.39904	0.466
9.43273	0.593
9.46642	0.677
9.50011	0.732
9.53381	0.763
9.5675	0.785
9.60119	0.796
9.63488	0.801
9.66857	0.814
9.70226	0.819
9.73595	0.821
9.76964	0.829
9.80333	0.823
9.83703	0.798
9.87072	0.57
9.90441	0.393
9.9381	0.609
9.97179	0.738
10.0055	0.77
10.0392	0.793
10.0729	0.793
10.1066	0.771
10.1402	0.722
10.1739	0.634
10.2076	0.408
10.2413	0.138
10.275	0.165
10.3087	0.309
10.3424	0.447
10.3761	0.558
10.4098	0.613
10.4435	0.657
10.4772	0.667
10.5108	0.667
10.5445	0.702
10.5782	0.735
10.6119	0.761
10.6456	0.768
10.6793	0.781
10.713	0.791
10.7467	0.795
10.7804	0.8
10.8141	0.804
10.8478	0.809
10.8814	0.809
10.9151	0.814
10.9488	0.821
10.9825	0.826
11.0162	0.829
11.0499	0.826
11.0836	0.831
11.1173	0.834
11.151	0.838
11.1847	0.834
11.2184	0.829
11.2521	0.831
11.2857	0.841
11.3194	0.844
11.3531	0.851
11.3868	0.852
11.4205	0.842
11.4542	0.814
11.4879	0.689
11.5216	0.466
11.5553	0.596
11.589	0.75
11.6227	0.809
11.6563	0.833
11.69	0.841
11.7237	0.842
11.7574	0.844
11.7911	0.831
11.8248	0.826
11.8585	0.778
11.8922	0.628
11.9259	0.585
11.9596	0.611
11.9933	0.614
12.0269	0.614
12.0606	0.588
12.0943	0.446
12.128	0.244
12.1617	0.158
12.1954	0.107
12.2291	0.046
12.2628	0.028
12.2965	0.104
12.3302	0.267
12.3639	0.418
12.3975	0.48
12.4312	0.523
12.4649	0.49
12.4986	0.461
12.5323	0.509
12.566	0.633
12.5997	0.712
12.6334	0.758
12.6671	0.788
12.7008	0.803
12.7345	0.813
12.7682	0.814
12.8018	0.823
12.8355	0.823
12.8692	0.828
12.9029	0.829
12.9366	0.831
12.9703	0.833
13.004	0.831
13.0377	0.834
13.0714	0.839
13.1051	0.839
13.1388	0.839
13.1724	0.836
13.2061	0.841
13.2398	0.841
13.2735	0.833
13.3072	0.836
13.3409	0.839
13.3746	0.833
13.4083	0.828
13.442	0.818
13.4757	0.813
13.5094	0.806
13.543	0.798
13.5767	0.788
13.6104	0.78
13.6441	0.775
13.6778	0.77
13.7115	0.758
13.7452	0.747
13.7789	0.737
13.8126	0.709
13.8463	0.685
13.88	0.628
13.9136	0.474
13.9473	0.482
13.981	0.576
14.0147	0.689
14.0484	0.74
14.0821	0.781
14.1158	0.795
14.1495	0.788
14.1832	0.796
14.2169	0.818
14.2506	0.838
14.2842	0.847
14.3179	0.851
14.3516	0.852
14.3853	0.852
14.419	0.857
14.4527	0.857
14.4864	0.856
14.5201	0.854
14.5538	0.852
14.5875	0.852
14.6212	0.847
14.6549	0.852
14.6885	0.846
14.7222	0.839
14.7559	0.846
14.7896	0.836
14.8233	0.838
14.857	0.838
14.8907	0.834
14.9244	0.831
14.9581	0.829
14.9918	0.821
15.0255	0.811
15.0591	0.793
15.0928	0.781
15.1265	0.745
15.1602	0.68
15.1939	0.591
15.2276	0.548
15.2613	0.514
15.295	0.54
15.3287	0.6
15.3624	0.649
15.3961	0.7
15.4297	0.737
