Infrared Spectrum: 9H-PURINE, 2-AMINO-6-METHYL-9-Beta-D-RIBOFURANOSYL-
Formula: C11 H15 N5 O4
CAS: 80681-62-5
State: SOLID (1 mg / 650 mg KBr DISC)
Class: COBLENTZ III
Instrument: PERKIN-ELMER 521 (GRATING)
Instrument parameters: FILTER CHANGE AT 3150, 2500, 2000, 1150, 700, 410 CM^-^1, GRATING CHANGES AT 2000, 630 CM^-^1
Sampling: TRANSMISSION
Resolution: 4
Origin: SOUTHERN RESEARCH INSTITUTE
1/CM	TRANSMITTANCE
263.636	0.414
272.727	0.445
281.818	0.467
290.909	0.492
300	0.521
309.091	0.528
318.181	0.535
327.272	0.536
336.363	0.537
345.454	0.538
354.545	0.542
363.636	0.546
372.727	0.545
381.818	0.54
390.909	0.537
400	0.539
409.091	0.547
418.182	0.55
427.272	0.547
436.363	0.54
445.454	0.536
454.545	0.538
463.636	0.542
472.727	0.542
481.818	0.541
490.909	0.533
500	0.509
509.091	0.504
518.182	0.524
527.272	0.509
536.363	0.497
545.454	0.491
554.545	0.494
563.636	0.504
572.727	0.509
581.818	0.513
590.909	0.517
600	0.515
609.091	0.51
618.182	0.501
627.272	0.453
636.363	0.454
645.454	0.49
654.545	0.523
663.636	0.548
672.727	0.552
681.818	0.55
690.909	0.536
700	0.538
709.091	0.554
718.182	0.558
727.273	0.537
736.363	0.543
745.454	0.567
754.545	0.592
763.636	0.605
772.727	0.603
781.818	0.54
790.909	0.5
800	0.6
809.091	0.62
818.182	0.621
827.273	0.618
836.363	0.6
845.454	0.561
854.545	0.534
863.636	0.539
872.727	0.572
881.818	0.579
890.909	0.541
900	0.568
909.091	0.6
918.182	0.613
927.273	0.6
936.364	0.578
945.454	0.561
954.545	0.581
963.636	0.568
972.727	0.543
981.818	0.555
990.909	0.557
1000	0.528
1009.09	0.499
1018.18	0.448
1027.27	0.404
1036.36	0.367
1045.45	0.363
1054.55	0.383
1063.64	0.4
1072.73	0.354
1081.82	0.314
1090.91	0.355
1100	0.38
1109.09	0.385
1118.18	0.389
1127.27	0.402
1136.36	0.505
1145.45	0.622
1154.55	0.626
1163.64	0.598
1172.73	0.544
1181.82	0.507
1190.91	0.501
1200	0.475
1209.09	0.438
1218.18	0.413
1227.27	0.442
1236.36	0.493
1245.45	0.522
1254.55	0.553
1263.64	0.541
1272.73	0.526
1281.82	0.517
1290.91	0.527
1300	0.536
1309.09	0.511
1318.18	0.478
1327.27	0.478
1336.36	0.492
1345.45	0.491
1354.55	0.483
1363.64	0.453
1372.73	0.448
1381.82	0.436
1390.91	0.386
1400	0.327
1409.09	0.313
1418.18	0.414
1427.27	0.422
1436.36	0.404
1445.45	0.404
1454.55	0.44
1463.64	0.445
1472.73	0.363
1481.82	0.361
1490.91	0.501
1500	0.526
1509.09	0.427
1518.18	0.39
1527.27	0.512
1536.36	0.6
1545.45	0.601
1554.55	0.588
1563.64	0.548
1572.73	0.481
1581.82	0.281
1590.91	0.154
1600	0.121
1609.09	0.145
1618.18	0.228
1627.27	0.26
1636.36	0.392
1645.45	0.463
1654.55	0.56
1663.64	0.609
1672.73	0.646
1681.82	0.666
1690.91	0.681
1700	0.693
1709.09	0.7
1718.18	0.709
1727.27	0.715
1736.36	0.718
1745.45	0.722
1754.55	0.728
1763.64	0.733
1772.73	0.736
1781.82	0.738
1790.91	0.741
1800	0.743
1809.09	0.744
1818.18	0.745
1827.27	0.745
1836.36	0.746
1845.45	0.746
1854.55	0.747
1863.64	0.747
1872.73	0.747
1881.82	0.747
1890.91	0.747
1900	0.746
1909.09	0.746
1918.18	0.745
1927.27	0.745
1936.36	0.744
1945.45	0.743
1954.55	0.742
1963.64	0.741
1972.73	0.741
1981.82	0.741
1990.91	0.74
2000	0.739
2009.09	0.739
2018.18	0.737
2027.27	0.736
2036.36	0.736
2045.45	0.735
2054.55	0.735
2063.64	0.735
2072.73	0.734
2081.82	0.734
2090.91	0.734
2100	0.732
2109.09	0.732
2118.18	0.732
2127.27	0.732
2136.36	0.732
2145.45	0.731
2154.55	0.73
2163.64	0.73
2172.73	0.729
2181.82	0.729
2190.91	0.729
2200	0.729
2209.09	0.729
2218.18	0.728
2227.27	0.728
2236.36	0.728
2245.45	0.728
2254.55	0.728
2263.64	0.728
2272.73	0.727
2281.82	0.727
2290.91	0.727
2300	0.727
2309.09	0.727
2318.18	0.725
2327.27	0.722
2336.36	0.718
2345.45	0.716
2354.55	0.713
2363.64	0.71
2372.73	0.708
2381.82	0.704
2390.91	0.701
2400	0.7
2409.09	0.698
2418.18	0.696
2427.27	0.696
2436.36	0.695
2445.45	0.693
2454.55	0.69
2463.64	0.689
2472.73	0.687
2481.82	0.685
2490.91	0.683
2500	0.678
2509.09	0.674
2518.18	0.672
2527.27	0.668
2536.36	0.659
2545.46	0.656
2554.55	0.654
2563.64	0.651
2572.73	0.648
2581.82	0.644
2590.91	0.639
2600	0.633
2609.09	0.627
2618.18	0.623
2627.27	0.619
2636.36	0.613
2645.46	0.607
2654.55	0.602
2663.64	0.598
2672.73	0.593
2681.82	0.589
2690.91	0.582
2700	0.576
2709.09	0.572
2718.18	0.568
2727.27	0.566
2736.36	0.563
2745.46	0.561
2754.55	0.559
2763.64	0.556
2772.73	0.554
2781.82	0.55
2790.91	0.548
2800	0.539
2809.09	0.529
2818.18	0.527
2827.27	0.523
2836.36	0.512
2845.46	0.495
2854.55	0.49
2863.64	0.486
2872.73	0.483
2881.82	0.477
2890.91	0.472
2900	0.462
2909.09	0.456
2918.18	0.459
2927.27	0.464
2936.36	0.476
2945.46	0.483
2954.55	0.49
2963.64	0.5
2972.73	0.502
2981.82	0.491
2990.91	0.484
3000	0.476
3009.09	0.461
3018.18	0.453
3027.27	0.442
3036.36	0.43
3045.46	0.416
3054.55	0.39
3063.64	0.381
3072.73	0.371
3081.82	0.35
3090.91	0.339
3100	0.33
3109.09	0.325
3118.18	0.323
3127.27	0.321
3136.36	0.319
3145.46	0.308
3154.55	0.3
3163.64	0.288
3172.73	0.276
3181.82	0.263
3190.91	0.261
3200	0.264
3209.09	0.268
3218.18	0.272
3227.27	0.276
3236.36	0.279
3245.46	0.279
3254.55	0.274
3263.64	0.269
3272.73	0.264
3281.82	0.259
3290.91	0.248
3300	0.228
3309.09	0.223
3318.18	0.223
3327.27	0.225
3336.36	0.227
3345.46	0.229
3354.55	0.231
3363.64	0.233
3372.73	0.236
3381.82	0.239
3390.91	0.244
3400	0.246
3409.09	0.25
3418.18	0.255
3427.27	0.263
3436.36	0.266
3445.46	0.275
3454.55	0.281
3463.64	0.294
3472.73	0.303
3481.82	0.33
3490.91	0.351
3500	0.387
3509.09	0.409
3518.18	0.444
3527.27	0.465
3536.36	0.485
3545.46	0.51
3554.55	0.521
3563.64	0.552
3572.73	0.577
3581.82	0.597
3590.91	0.623
3600	0.646
3609.09	0.662
3618.18	0.683
3627.27	0.697
3636.36	0.709
3645.46	0.717
3654.55	0.724
3663.64	0.728
3672.73	0.732
3681.82	0.735
3690.91	0.736
3700	0.739
3709.09	0.739
3718.18	0.74
3727.27	0.741
3736.36	0.742
3745.46	0.742
3754.55	0.742
3763.64	0.741
3772.73	0.74
3781.82	0.74
3790.91	0.738
3800	0.738
3809.09	0.738
