Infrared Spectrum: Alpha,Alpha'-DIACETYL-4,4'-DIFLUORO-GLUTARANILIDE
Formula: C21 H20 F2 N2 O4
CAS: 807-75-0
State: SOLID (KBr PRESSING)
Melting point: 221 C (DECOMPOSE)
Class: COBLENTZ
Instrument: Not specified, most likely a prism, grating, or hybrid spectrometer.
Sampling: TRANSMISSION
Resolution: 4
Origin: EASTMAN KODAK COMPANY, RESEARCH LABORATORIES, ROCHESTER, N.Y.
MICROMETERS	TRANSMITTANCE
2.1	0.819
2.14	0.82
2.18	0.822
2.22	0.825
2.26	0.825
2.3	0.832
2.34	0.828
2.38	0.815
2.42	0.824
2.46	0.835
2.5	0.835
2.54	0.843
2.58	0.828
2.62	0.837
2.66	0.82
2.7	0.825
2.74	0.802
2.78	0.776
2.82	0.697
2.86	0.677
2.9	0.654
2.94	0.629
2.98	0.56
3.02	0.356
3.06	0.291
3.1	0.379
3.14	0.506
3.18	0.628
3.22	0.661
3.26	0.636
3.3	0.651
3.34	0.717
3.38	0.74
3.42	0.722
3.46	0.787
3.5	0.782
3.54	0.819
3.58	0.8
3.62	0.815
3.66	0.828
3.7	0.838
3.74	0.851
3.78	0.838
3.82	0.853
3.86	0.86
3.9	0.842
3.94	0.838
3.98	0.85
4.02	0.861
4.06	0.851
4.1	0.855
4.14	0.848
4.17999	0.866
4.21999	0.868
4.25999	0.871
4.29999	0.86
4.33999	0.858
4.37999	0.866
4.41999	0.853
4.45999	0.863
4.49999	0.868
4.53999	0.86
4.57999	0.861
4.61999	0.851
4.65999	0.86
4.69999	0.866
4.73999	0.865
4.77999	0.863
4.81999	0.863
4.85999	0.871
4.89999	0.856
4.93999	0.86
4.97999	0.871
5.01999	0.85
5.05999	0.855
5.09999	0.858
5.13999	0.86
5.17999	0.851
5.21999	0.863
5.25999	0.855
5.29999	0.833
5.33999	0.828
5.37999	0.847
5.41999	0.851
5.45999	0.843
5.49999	0.851
5.53999	0.85
5.57999	0.83
5.61999	0.819
5.65999	0.802
5.69999	0.769
5.73999	0.726
5.77999	0.547
5.81999	0.131
5.85999	0.067
5.89999	0.266
5.93999	0.414
5.97999	0.347
6.01999	0.208
6.05999	0.074
6.09999	0.136
6.13999	0.393
6.17999	0.513
6.21999	0.383
6.25999	0.583
6.29999	0.7
6.33999	0.68
6.37999	0.532
6.41999	0.305
6.45999	0.159
6.49999	0.111
6.53999	0.141
6.57999	0.154
6.61999	0.101
6.65999	0.067
6.69999	0.363
6.73999	0.554
6.77999	0.634
6.81999	0.664
6.85999	0.664
6.89999	0.628
6.93999	0.633
6.97999	0.58
7.01999	0.506
7.05999	0.463
7.09999	0.43
7.13999	0.282
7.17999	0.534
7.21999	0.651
7.25999	0.623
7.29999	0.592
7.33999	0.478
7.37999	0.343
7.41999	0.379
7.45999	0.465
7.49999	0.541
7.53999	0.575
7.57999	0.582
7.61999	0.585
7.65999	0.523
7.69999	0.472
7.73999	0.472
7.77999	0.516
7.81999	0.546
7.85999	0.59
7.89999	0.601
7.93999	0.618
7.97999	0.6
8.01999	0.549
8.05999	0.508
8.09999	0.406
8.13999	0.309
8.17999	0.195
8.21999	0.18
8.25999	0.182
8.29999	0.231
8.33998	0.412
8.37998	0.557
8.41998	0.633
8.45998	0.68
8.49998	0.687
8.53998	0.69
8.57998	0.562
8.61998	0.422
8.65998	0.307
8.69998	0.289
8.73998	0.453
8.77998	0.606
8.81998	0.703
8.85998	0.745
8.89998	0.781
8.93998	0.773
8.97998	0.796
9.01998	0.791
9.05998	0.777
9.09998	0.679
9.13998	0.682
9.17998	0.75
9.21998	0.786
9.25998	0.791
9.29998	0.81
9.33998	0.82
9.37998	0.8
9.41998	0.824
9.45998	0.822
9.49998	0.82
9.53998	0.809
9.57998	0.743
9.61998	0.679
9.65998	0.736
9.69998	0.774
9.73998	0.794
9.77998	0.804
9.81998	0.763
9.85998	0.697
9.89998	0.741
9.93998	0.782
9.97998	0.787
10.02	0.804
10.06	0.814
10.1	0.824
10.14	0.817
10.18	0.837
10.22	0.822
10.26	0.81
10.3	0.787
10.34	0.784
10.38	0.761
10.42	0.777
10.46	0.761
10.5	0.745
10.54	0.731
10.58	0.741
10.62	0.731
10.66	0.764
10.7	0.789
10.74	0.792
10.78	0.8
10.82	0.825
10.86	0.819
10.9	0.807
10.94	0.786
10.98	0.791
11.02	0.799
11.06	0.807
11.1	0.802
11.14	0.815
11.18	0.8
11.22	0.787
11.26	0.792
11.3	0.812
11.34	0.828
11.38	0.828
11.42	0.824
11.46	0.802
11.5	0.804
11.54	0.8
11.58	0.791
11.62	0.771
11.66	0.72
11.7	0.682
11.74	0.7
11.78	0.689
11.82	0.649
11.86	0.55
11.9	0.47
11.94	0.356
11.98	0.266
12.02	0.192
12.06	0.175
12.1	0.233
12.14	0.427
12.18	0.555
12.22	0.651
12.26	0.68
12.3	0.699
12.34	0.702
12.38	0.718
12.42	0.746
12.46	0.759
12.5	0.792
12.54	0.802
12.58	0.782
12.62	0.799
12.66	0.771
12.7	0.789
12.74	0.723
12.78	0.674
12.82	0.621
12.86	0.623
12.9	0.639
12.94	0.69
12.98	0.751
13.02	0.761
13.06	0.768
13.1	0.779
13.14	0.779
13.18	0.764
13.22	0.754
13.26	0.741
13.3	0.758
13.34	0.763
13.38	0.74
13.42	0.748
13.46	0.74
13.5	0.733
13.54	0.725
13.58	0.723
13.62	0.717
13.66	0.718
13.7	0.722
13.74	0.718
13.78	0.722
13.82	0.733
13.86	0.741
13.9	0.759
13.94	0.768
13.98	0.761
14.02	0.754
14.06	0.763
14.1	0.773
14.14	0.769
14.18	0.748
14.22	0.717
14.26	0.723
14.3	0.738
14.34	0.717
14.38	0.738
14.42	0.733
14.46	0.722
14.5	0.731
14.54	0.726
14.58	0.717
14.62	0.717
14.66	0.72
14.7	0.726
14.74	0.722
14.78	0.712
14.82	0.72
14.86	0.713
14.9	0.718
14.94	0.712
14.98	0.73
15.02	0.73
15.06	0.718
15.1	0.731
15.14	0.73
15.18	0.72
15.22	0.733
15.26	0.722
15.3	0.733
15.34	0.743
15.38	0.738
15.42	0.743
15.46	0.754
15.5	0.754
15.54	0.731
15.58	0.736
15.62	0.735
15.66	0.74
15.7	0.74
15.74	0.731
15.78	0.718
15.82	0.723
15.86	0.726
15.9	0.723
