Infrared Spectrum: CYCLODECYLAMINE, N-METHYL-
Formula: C11 H23 N
CAS: 80789-66-8
State: SOLUTION (10% CCl4 FOR 3800-1335, 10% CS2 FOR 1335-420 CM^-^1)
Class: COBLENTZ III
Instrument: DOW KBr FOREPRISM-GRATING
Instrument parameters: BLAZED AT 3.5, 12.0, 20.0 MICRON AND CHANGED AT 5.0, 7.5, 14.9 MICRON
Sampling: TRANSMISSION
Path length: 0.011 CM, 0.011 CM
Resolution: 2
Origin: DOW CHEMICAL COMPANY
1/CM	TRANSMITTANCE
380	0.9537
389	0.9518
398	0.9475
407	0.9446
416	0.9343
425	0.9183
434	0.9023
443	0.8811
452	0.8539
461	0.7915
470	0.8054
479	0.8668
488	0.8739
497	0.8511
506	0.8367
515	0.8192
524	0.8683
533	0.885
542	0.8818
551	0.8807
560	0.8938
569	0.8914
578	0.8871
587	0.8682
596	0.8894
605	0.8803
614	0.8115
623	0.8121
632	0.8202
641	0.8695
650	0.8693
659	0.863
668	0.8595
677	0.8958
686	0.8575
695	0.8051
704	0.7953
713	0.8443
722	0.7767
731	0.6238
740	0.7617
749	0.8606
758	0.8468
767	0.8254
776	0.8099
785	0.7672
794	0.8531
803	0.8393
812	0.8331
821	0.8455
830	0.847
839	0.8313
848	0.8264
857	0.803
866	0.7915
875	0.7715
884	0.7631
893	0.7447
902	0.7275
911	0.6715
920	0.6418
929	0.6488
938	0.5734
947	0.4936
956	0.2411
965	0.2373
974	0.2991
983	0.4458
992	0.6157
1001	0.6196
1010	0.5996
1019	0.5738
1028	0.5995
1037	0.6069
1046	0.5692
1055	0.4127
1064	0.499
1073	0.3114
1082	0.175
1091	0.3964
1100	0.5559
1109	0.6139
1118	0.6541
1127	0.6857
1136	0.6417
1145	0.6295
1154	0.5907
1163	0.6055
1172	0.5557
1181	0.4385
1190	0.5887
1199	0.6024
1208	0.5698
1217	0.4465
1226	0.4277
1235	0.3272
1244	0.4099
1253	0.3764
1262	0.4638
1271	0.2618
1280	0.2618
1289	0.4126
1298	0.37
1307	0.2223
1316	0.2332
1325	0.4302
1334	0.4682
1343	0.6002
1352	0.5367
1361	0.5364
1370	0.5187
1379	0.6561
1388	0.7245
1397	0.7534
1406	0.7546
1415	0.7372
1424	0.6678
1433	0.565
1442	0.2608
1451	0.2484
1460	0.4246
1469	0.398
1478	0.1776
1487	0.2717
1496	0.6701
1505	0.7538
1514	0.785
1523	0.808
1532	0.8282
1541	0.8471
1550	0.8544
1559	0.849
1568	0.8382
1577	0.8281
1586	0.8161
1595	0.8045
1604	0.7935
1613	0.7836
1622	0.778
1631	0.7782
1640	0.7842
1649	0.791
1658	0.7991
1667	0.804
1676	0.8092
1685	0.8155
1694	0.8149
1703	0.8125
1712	0.8218
1721	0.8134
1730	0.7953
1739	0.8115
1748	0.8386
1757	0.8502
1766	0.8555
1775	0.8582
1784	0.861
1793	0.8645
1802	0.8662
1811	0.868
1820	0.8692
1829	0.87
1838	0.8702
1847	0.8703
1856	0.8704
1865	0.8706
1874	0.871
1883	0.8715
1892	0.8724
1901	0.8737
1910	0.874
1919	0.8743
1928	0.8739
1937	0.8714
1946	0.8698
1955	0.8686
1964	0.8691
1973	0.8685
1982	0.8677
1991	0.8664
2000	0.8532
2009	0.8596
2018	0.8599
2027	0.8598
2036	0.8596
2045	0.8592
2054	0.8591
2063	0.8594
2072	0.8597
2081	0.8596
2090	0.8594
2099	0.8593
2108	0.8591
2117	0.8589
2126	0.8587
2135	0.8585
2144	0.8583
2153	0.8578
2162	0.8568
2171	0.856
2180	0.8552
2189	0.8543
2198	0.8535
2207	0.8525
2216	0.8514
2225	0.8504
2234	0.8494
2243	0.849
2252	0.851
2261	0.8587
2270	0.8525
2279	0.8513
2288	0.8557
2297	0.8593
2306	0.8536
2315	0.8628
2324	0.8814
2333	0.8825
2342	0.8717
2351	0.8588
2360	0.8534
2369	0.8487
2378	0.8448
2387	0.8407
2396	0.8366
2405	0.8332
2414	0.8313
2423	0.8299
2432	0.8287
2441	0.8275
2450	0.8268
2459	0.8262
2468	0.8255
2477	0.8248
2486	0.8245
2495	0.8202
2504	0.8151
2513	0.81
2522	0.8051
2531	0.8
2540	0.7948
2549	0.7892
2558	0.7834
2567	0.7785
2576	0.7742
2585	0.77
2594	0.7671
2603	0.7631
2612	0.7568
2621	0.7453
2630	0.7288
2639	0.718
2648	0.714
2657	0.6975
2666	0.6662
2675	0.65
2684	0.6478
2693	0.6721
2702	0.6804
2711	0.6803
2720	0.6794
2729	0.6751
2738	0.6575
2747	0.6275
2756	0.5729
2765	0.4378
2774	0.2993
2783	0.2488
2792	0.3721
2801	0.4762
2810	0.4755
2819	0.44
2828	0.3692
2837	0.0642
2846	0.0527
2855	0.0494
2864	0.0413
2873	0.0618
2882	0.0601
2891	0.017
2900	0.0155
2909	0.0154
2918	0.0154
2927	0.0156
2936	0.0165
2945	0.0366
2954	0.0746
2963	0.0774
2972	0.0983
2981	0.1685
2990	0.226
2999	0.4605
3008	0.634
3017	0.7083
3026	0.7404
3035	0.754
3044	0.7665
3053	0.7776
3062	0.7862
3071	0.7891
3080	0.7917
3089	0.7925
3098	0.7933
3107	0.7925
3116	0.7918
3125	0.7901
3134	0.7884
3143	0.7862
3152	0.7838
3161	0.7821
3170	0.7817
3179	0.7824
3188	0.7841
3197	0.7865
3206	0.7895
3215	0.7911
3224	0.7908
3233	0.7886
3242	0.7858
3251	0.7822
3260	0.7793
3269	0.7768
3278	0.775
3287	0.7735
3296	0.7726
3305	0.7728
3314	0.7732
3323	0.7724
3332	0.7708
3341	0.7721
3350	0.7758
3359	0.7797
3368	0.7831
3377	0.788
3386	0.7935
3395	0.7978
3404	0.8015
3413	0.8055
3422	0.8094
3431	0.8133
3440	0.8172
3449	0.8211
3458	0.8249
3467	0.8288
3476	0.8325
3485	0.8371
3494	0.8417
3503	0.846
3512	0.8493
3521	0.8518
3530	0.8544
3539	0.8568
3548	0.8592
3557	0.8615
3566	0.8651
3575	0.8662
3584	0.8643
3593	0.8675
3602	0.8728
3611	0.8683
3620	0.8673
3629	0.8657
3638	0.8635
3647	0.8617
3656	0.8587
3665	0.8406
3674	0.8254
3683	0.8549
3692	0.8657
3701	0.8721
3710	0.8762
3719	0.878
3728	0.878
3737	0.8781
3746	0.8781
3755	0.878
3764	0.8782
3773	0.8785
3782	0.8784
3791	0.8775
3800	0.877
