Infrared Spectrum: 11-DEOXYCORTICOSTERONE, PIVALATE
Formula: C26 H38 O4
CAS: 808-48-0
State: SOLUTION (CS2 FOR 2-15 microns, AND C2Cl4 FOR 5-7.2 microns)
Class: COBLENTZ III
Instrument: PERKIN-ELMER 21 (GRATING)
Instrument parameters: FILTER AT ABOUT 10 MICRONS
Sampling: TRANSMISSION
Resolution: 2
1/CM	TRANSMITTANCE
3937.01	0.9904
3928.18	0.9907
3919.35	0.991
3910.52	0.9913
3901.69	0.9916
3892.86	0.9918
3884.04	0.9921
3875.21	0.9921
3866.38	0.992
3857.55	0.9918
3848.72	0.9918
3839.89	0.9918
3831.06	0.9917
3822.23	0.9916
3813.4	0.9915
3804.57	0.9915
3795.74	0.9917
3786.92	0.992
3778.09	0.9923
3769.26	0.9925
3760.43	0.9928
3751.6	0.9932
3742.77	0.9935
3733.94	0.9938
3725.11	0.9942
3716.28	0.9945
3707.45	0.9948
3698.62	0.9951
3689.8	0.9955
3680.97	0.9958
3672.14	0.9961
3663.31	0.9963
3654.48	0.9966
3645.65	0.9967
3636.82	0.9968
3627.99	0.9971
3619.16	0.9973
3610.33	0.9975
3601.5	0.9977
3592.68	0.9978
3583.85	0.998
3575.02	0.9983
3566.19	0.9984
3557.36	0.9986
3548.53	0.9987
3539.7	0.9987
3530.87	0.9987
3522.04	0.9987
3513.21	0.9987
3504.38	0.9987
3495.56	0.9985
3486.73	0.9977
3477.9	0.9968
3469.07	0.9962
3460.24	0.9955
3451.41	0.9952
3442.58	0.995
3433.75	0.9948
3424.92	0.9945
3416.09	0.9944
3407.26	0.9942
3398.44	0.994
3389.61	0.9937
3380.78	0.9935
3371.95	0.9933
3363.12	0.9931
3354.29	0.9928
3345.46	0.9925
3336.63	0.9925
3327.8	0.9927
3318.97	0.9928
3310.14	0.9931
3301.32	0.9934
3292.49	0.9936
3283.66	0.9939
3274.83	0.9944
3266	0.995
3257.17	0.9955
3248.34	0.996
3239.51	0.9966
3230.68	0.9968
3221.85	0.997
3213.02	0.997
3204.2	0.997
3195.37	0.997
3186.54	0.9968
3177.71	0.9968
3168.88	0.9968
3160.05	0.9968
3151.22	0.9968
3142.39	0.9968
3133.56	0.9965
3124.73	0.9959
3115.9	0.9953
3107.08	0.9947
3098.25	0.9941
3089.42	0.9933
3080.59	0.9914
3071.76	0.9875
3062.93	0.9768
3054.1	0.9476
3045.27	0.9359
3036.44	0.9283
3027.61	0.9212
3018.78	0.9124
3009.96	0.8406
3001.13	0.7147
2992.3	0.557
2983.47	0.3985
2974.64	0.2657
2965.81	0.2418
2956.98	0.2245
2948.15	0.2165
2939.32	0.2149
2930.49	0.2193
2921.66	0.24
2912.84	0.2868
2904.01	0.3345
2895.18	0.3824
2886.35	0.4162
2877.52	0.4373
2868.69	0.4575
2859.86	0.483
2851.03	0.5209
2842.2	0.6019
2833.37	0.6846
2824.54	0.7544
2815.71	0.8151
2806.89	0.8531
2798.06	0.8755
2789.23	0.8921
2780.4	0.908
2771.57	0.9218
2762.74	0.9333
2753.91	0.9418
2745.08	0.9478
2736.25	0.9536
2727.42	0.9573
2718.59	0.9601
2709.77	0.9624
2700.94	0.9655
2692.11	0.9695
2683.28	0.9706
2674.45	0.9717
2665.62	0.9725
2656.79	0.9734
2647.96	0.9744
2639.13	0.9758
2630.3	0.9771
2621.47	0.9788
2612.65	0.981
2603.82	0.9841
2594.99	0.9889
2586.16	0.9915
2577.33	0.9905
2568.5	0.9896
2559.67	0.9893
2550.84	0.991
2542.01	0.9927
2533.18	0.9944
2524.35	0.9961
2515.53	0.9977
2506.7	0.9993
2497.87	1.0005
2489.04	1.0002
2480.21	0.9999
2471.38	0.9996
2462.55	0.9995
2453.72	0.9995
2444.89	0.9996
2436.06	0.9997
2427.23	0.9997
2418.41	1
2409.58	1.0006
2400.75	1.0012
2391.92	1.0018
2383.09	1.0024
2374.26	1.003
2365.43	1.0036
2356.6	1.004
2347.77	1.0041
2338.94	1.0043
2330.11	1.0044
2321.29	1.0047
2312.46	1.0052
2303.63	1.0057
2294.8	1.0062
2285.97	1.0068
2277.14	1.0071
2268.31	1.0078
2259.48	1.0083
2250.65	1.0087
2241.82	1.0087
2232.99	1.0086
2224.17	1.0086
2215.34	1.0085
2206.51	1.0083
2197.68	1.0082
2188.85	1.0073
2180.02	1.0062
2171.19	1.0035
2162.36	1.0009
2153.53	0.999
2144.7	1.0009
2135.87	1.0027
2127.05	1.0047
2118.22	1.0059
2109.39	1.0067
2100.56	1.0075
2091.73	1.0075
2082.9	1.0075
2074.07	1.0073
2065.24	1.006
2056.41	1.0045
2047.58	1.0023
2038.75	0.9998
2029.93	0.9972
2021.1	0.9956
2012.27	0.9953
2003.44	0.9959
1994.61	0.9974
1985.78	0.9991
1976.95	0.9999
1968.12	1.0006
1959.29	1.0012
1950.46	1.0017
1941.63	1.0015
1932.81	1.0011
1923.98	1.0008
1915.15	0.9999
1906.32	0.9983
1897.49	0.9962
1888.66	0.9939
1879.83	0.9927
1871	0.9928
1862.17	0.9935
1853.34	0.9937
1844.51	0.9932
1835.69	0.9927
1826.86	0.9928
1818.03	0.9804
1809.2	0.9696
1800.37	0.9593
1791.54	0.9377
1782.71	0.9121
1773.88	0.8508
1765.05	0.7787
1756.22	0.6321
1747.39	0.1384
1738.57	0.1545
1729.74	0.0701
1720.91	0.357
1712.08	0.5691
1703.25	0.5748
1694.42	0.3497
1685.59	0.086
1676.76	0.1897
1667.93	0.4617
1659.1	0.6283
1650.27	0.7067
1641.45	0.7658
1632.62	0.7529
1623.79	0.5846
1614.96	0.7057
1606.13	0.8789
1597.3	0.9119
1588.47	0.9206
1579.64	0.9273
1570.81	0.933
1561.98	0.938
1553.15	0.9442
1544.33	0.9494
1535.5	0.9498
1526.67	0.9471
1517.84	0.9444
1509.01	0.9407
1500.18	0.9292
1491.35	0.8335
1482.52	0.3951
1473.69	0.5786
1464.86	0.558
1456.03	0.5117
1447.21	0.6094
1438.38	0.5955
1429.55	0.7006
1420.72	0.5943
1411.89	0.6104
1403.06	0.7215
1394.23	0.5767
1385.4	0.6122
1376.57	0.5918
1367.74	0.533
1358.91	0.5989
1350.09	0.6491
1341.26	0.7213
1332.43	0.6476
1323.6	0.7297
1314.77	0.8383
1305.94	0.8286
1297.11	0.767
1288.28	0.5697
1279.45	0.4104
1270.62	0.4892
1261.79	0.5939
1252.97	0.7511
1244.14	0.7065
1235.31	0.6163
1226.48	0.4582
1217.65	0.6758
1208.82	0.6863
1199.99	0.6756
1191.16	0.6455
1182.33	0.5566
1173.5	0.5678
1164.67	0.4115
1155.85	0.0872
1147.02	0.1152
1138.19	0.4207
1129.36	0.4734
1120.53	0.5561
1111.7	0.5233
1102.87	0.4124
1094.04	0.4724
1085.21	0.6649
1076.38	0.8245
1067.55	0.8371
1058.73	0.8229
1049.9	0.7071
1041.07	0.7678
1032.24	0.7692
1023.41	0.7976
1014.58	0.823
1005.75	0.802
996.921	0.854
988.092	0.8417
979.263	0.8357
970.434	0.8381
961.605	0.8546
952.776	0.7749
943.947	0.7808
935.118	0.804
926.289	0.8948
917.46	0.8795
908.631	0.8055
899.801	0.8379
890.972	0.8975
882.143	0.9079
873.314	0.89
864.485	0.6861
855.656	0.7078
846.827	0.8773
837.998	0.9138
829.169	0.9141
820.34	0.9353
811.51	0.9365
802.681	0.9223
793.852	0.8366
785.023	0.8791
776.194	0.7888
767.365	0.7786
758.536	0.933
749.707	0.9212
740.878	0.8824
732.049	0.9139
723.22	0.9403
714.39	0.9487
705.561	0.9483
696.732	0.9389
687.903	0.9095
679.074	0.8453
