Infrared Spectrum: SACCHARIN
Formula: C7 H5 N O3 S
CAS: 81-07-2
State: SOLID (1 MG / 200 mg KBr DISC)
Melting point: 229 C
Class: COBLENTZ III
Instrument: PERKIN-ELMER 21 (GRATING)
Instrument parameters: FILTER AT ABOUT 10 MICRONS
Sampling: TRANSMISSION
Resolution: 2
1/CM	TRANSMITTANCE
4000	0.6153
3991	0.616
3982	0.6167
3973	0.6174
3964	0.6181
3955	0.6188
3946	0.6195
3937	0.6203
3928	0.621
3919	0.6218
3910	0.6225
3901	0.6233
3892	0.6241
3883	0.6249
3874	0.6257
3865	0.6265
3856	0.6274
3847	0.6282
3838	0.629
3829	0.6298
3820	0.6307
3811	0.6315
3802	0.6324
3793	0.6332
3784	0.6342
3775	0.6351
3766	0.636
3757	0.6369
3748	0.6379
3739	0.6388
3730	0.6398
3721	0.6408
3712	0.6415
3703	0.6425
3694	0.6435
3685	0.6441
3676	0.6448
3667	0.6454
3658	0.6458
3649	0.6458
3640	0.646
3631	0.6436
3622	0.6406
3613	0.6364
3604	0.632
3595	0.6276
3586	0.6234
3577	0.6191
3568	0.6148
3559	0.6101
3550	0.6046
3541	0.599
3532	0.5934
3523	0.5877
3514	0.5818
3505	0.576
3496	0.5703
3487	0.5656
3478	0.5609
3469	0.5562
3460	0.5516
3451	0.5471
3442	0.5433
3433	0.5408
3424	0.5386
3415	0.5372
3406	0.5362
3397	0.536
3388	0.5391
3379	0.5492
3370	0.5597
3361	0.5679
3352	0.5737
3343	0.5791
3334	0.5843
3325	0.5885
3316	0.592
3307	0.5938
3298	0.5941
3289	0.5928
3280	0.5882
3271	0.5819
3262	0.5722
3253	0.5586
3244	0.5415
3235	0.5281
3226	0.5142
3217	0.4958
3208	0.4781
3199	0.4612
3190	0.4412
3181	0.4267
3172	0.4154
3163	0.4009
3154	0.3879
3145	0.3596
3136	0.3287
3127	0.2975
3118	0.2662
3109	0.2347
3100	0.2114
3091	0.2097
3082	0.2177
3073	0.2404
3064	0.2632
3055	0.2861
3046	0.3027
3037	0.3009
3028	0.29
3019	0.2772
3010	0.2643
3001	0.2514
2992	0.2383
2983	0.2252
2974	0.2148
2965	0.2124
2956	0.2132
2947	0.2182
2938	0.2296
2929	0.2601
2920	0.284
2911	0.308
2902	0.3322
2893	0.3566
2884	0.3809
2875	0.4052
2866	0.4253
2857	0.441
2848	0.4512
2839	0.461
2830	0.4685
2821	0.4739
2812	0.4784
2803	0.4809
2794	0.4815
2785	0.4798
2776	0.4739
2767	0.4635
2758	0.4512
2749	0.4414
2740	0.4303
2731	0.4197
2722	0.4126
2713	0.4071
2704	0.404
2695	0.4029
2686	0.4029
2677	0.407
2668	0.4279
2659	0.4855
2650	0.509
2641	0.5285
2632	0.5424
2623	0.5531
2614	0.5578
2605	0.5595
2596	0.5616
2587	0.568
2578	0.5762
2569	0.5891
2560	0.5978
2551	0.6066
2542	0.6154
2533	0.6248
2524	0.6344
2515	0.6384
2506	0.6412
2497	0.6465
2488	0.6515
2479	0.6565
2470	0.6635
2461	0.6728
2452	0.6807
2443	0.6871
2434	0.6921
2425	0.6962
2416	0.6997
2407	0.7012
2398	0.7012
2389	0.7014
2380	0.7039
2371	0.7078
2362	0.7118
2353	0.7148
2344	0.7171
2335	0.7194
2326	0.7218
2317	0.7237
2308	0.7249
2299	0.7261
2290	0.7272
2281	0.7286
2272	0.73
2263	0.7315
2254	0.7332
2245	0.7347
2236	0.7361
2227	0.7372
2218	0.7383
2209	0.7411
2200	0.7475
2191	0.7558
2182	0.7584
2173	0.7588
2164	0.7591
2155	0.7593
2146	0.7594
2137	0.76
2128	0.7611
2119	0.7625
2110	0.7636
2101	0.7646
2092	0.7656
2083	0.7665
2074	0.7675
2065	0.7685
2056	0.7693
2047	0.7697
2038	0.77
2029	0.77
2020	0.761
2011	0.7549
2002	0.7572
1993	0.7638
1984	0.7665
1975	0.7587
1966	0.7632
1957	0.7711
1948	0.7757
1939	0.7744
1930	0.7762
1921	0.7796
1912	0.7828
1903	0.7786
1894	0.7776
1885	0.7735
1876	0.7642
1867	0.7318
1858	0.7405
1849	0.7615
1840	0.7725
1831	0.7738
1822	0.7701
1813	0.768
1804	0.7665
1795	0.763
1786	0.7471
1777	0.7006
1768	0.6421
1759	0.5477
1750	0.3389
1741	0.126
1732	0.0434
1723	0.0484
1714	0.1844
1705	0.3816
1696	0.5159
1687	0.5757
1678	0.6094
1669	0.6137
1660	0.6167
1651	0.6254
1642	0.6421
1633	0.6481
1624	0.6657
1615	0.6845
1606	0.6644
1597	0.4084
1588	0.5931
1579	0.6701
1570	0.7215
1561	0.7386
1552	0.7398
1543	0.7418
1534	0.7454
1525	0.7453
1516	0.7476
1507	0.7501
1498	0.7432
1489	0.7304
1480	0.7075
1471	0.5649
1462	0.3304
1453	0.607
1444	0.6961
1435	0.6921
1426	0.6737
1417	0.6612
1408	0.671
1399	0.6532
1390	0.6368
1381	0.5903
1372	0.5175
1363	0.3546
1354	0.1607
1345	0.0485
1336	0.0413
1327	0.1519
1318	0.2208
1309	0.3259
1300	0.2004
1291	0.2483
1282	0.4359
1273	0.5456
1264	0.5331
1255	0.2388
1246	0.4459
1237	0.5493
1228	0.611
1219	0.6242
1210	0.6251
1201	0.5716
1192	0.4952
1183	0.0804
1174	0.0652
1165	0.2618
1156	0.398
1147	0.5296
1138	0.2076
1129	0.5312
1120	0.2004
1111	0.5068
1102	0.6208
1093	0.6653
1084	0.6761
1075	0.6994
1066	0.7049
1057	0.6139
1048	0.6939
1039	0.7242
1030	0.7361
1021	0.7521
1012	0.6624
1003	0.7399
994	0.7714
985	0.783
976	0.7607
967	0.7418
958	0.7494
949	0.7585
940	0.7688
931	0.7678
922	0.7669
913	0.7193
904	0.5056
895	0.5062
886	0.6733
877	0.7455
868	0.7695
859	0.7801
850	0.7771
841	0.7821
832	0.7771
823	0.7764
814	0.785
805	0.7785
796	0.6507
787	0.7257
778	0.6667
769	0.6224
760	0.1733
751	0.5477
742	0.5809
733	0.5362
724	0.4859
715	0.4467
706	0.3978
697	0.4606
688	0.5217
