Infrared Spectrum: o-Sulfobenzoic anhydride
Formula: C 7 H 4 O 4 S
CAS: 81-08-3
State: gas
Origin: EPA-IR VAPOR PHASE LIBRARY
1/CM	ABSORBANCE
549.8	0.0009698
559.445	0.0005903
569.09	0.0009935
578.734	0.004426
588.379	0.006926
598.024	0.004026
607.669	0.001936
617.313	0.0012381
626.958	0.0006245
636.603	0.0006483
646.248	0.0006327
655.893	0.0008999
665.537	0.002646
675.182	0.002526
684.827	0.001566
694.472	0.001616
704.116	0.0013028
713.761	0.0004903
723.406	0.0006422
733.051	0.001406
742.695	0.004186
752.34	0.009076
761.985	0.006786
771.63	0.002566
781.275	0.002276
790.919	0.003406
800.564	0.008266
810.209	0.011756
819.854	0.009386
829.498	0.004966
839.143	0.003216
848.788	0.002186
858.433	0.001546
868.078	0.0009912
877.722	0.0008391
887.367	0.0008462
897.012	0.0005922
906.657	0.000354
916.301	0.0006062
925.946	0.0005277
935.591	0.0006993
945.236	0.0008691
954.88	0.0008937
964.525	0.0011279
974.17	0.002176
983.815	0.004226
993.46	0.009206
1003.1	0.010126
1012.75	0.006326
1022.39	0.005586
1032.04	0.004576
1041.68	0.002346
1051.33	0.001456
1060.97	0.002006
1070.62	0.001786
1080.26	0.0007449
1089.91	0.0004769
1099.55	0.0003328
1109.2	0.000262
1118.84	0.0009064
1128.49	0.0009658
1138.13	0.0011268
1147.78	0.0009676
1157.42	0.0011347
1167.07	0.001486
1176.71	0.0011
1186.36	0.002406
1196	0.006576
1205.64	0.019146
1215.29	0.027866
1224.93	0.015166
1234.58	0.002736
1244.22	0.0007171
1253.87	0.0006586
1263.51	0.0007617
1273.16	0.0012193
1282.8	0.0012761
1292.45	0.0009701
1302.09	0.0009126
1311.74	0.0009773
1321.38	0.0011345
1331.03	0.0009931
1340.67	0.0008128
1350.32	0.000653
1359.96	0.0006727
1369.61	0.0007779
1379.25	0.001466
1388.9	0.004256
1398.54	0.012136
1408.18	0.023166
1417.83	0.010926
1427.47	0.002336
1437.12	0.0008169
1446.76	0.0011607
1456.41	0.001776
1466.05	0.001686
1475.7	0.000978
1485.34	0.0006919
1494.99	0.0009043
1504.63	0.0007643
1514.28	0.0007251
1523.92	0.0006858
1533.57	0.0005742
1543.21	0.000598
1552.86	0.0007247
1562.5	0.0007234
1572.15	0.0005767
1581.79	0.0005354
1591.44	0.000819
1601.08	0.0009121
1610.73	0.0006925
1620.37	0.0006957
1630.01	0.0005624
1639.66	0.00042615
1649.3	0.000407
1658.95	0.00036031
1668.59	0.00038809
1678.24	0.0003337
1687.88	0.000262
1697.53	0.0002812
1707.17	0.000224
1716.82	0.000175
1726.46	0.000142
1736.11	0.00018
1745.75	0.0002837
1755.4	0.0002962
1765.04	0.00041134
1774.69	0.0007667
1784.33	0.0010876
1793.98	0.001946
1803.62	0.003446
1813.27	0.006856
1822.91	0.010966
1832.55	0.017656
1842.2	0.023566
1851.84	0.016656
1861.49	0.004276
1871.13	0.001506
1880.78	0.0009388
1890.42	0.0008401
1900.07	0.000663
1909.71	0.0006186
1919.36	0.0005264
1929	0.000567
1938.65	0.0005967
1948.29	0.0006109
1957.94	0.0006622
1967.58	0.00046452
1977.23	0.000556
1986.87	0.0005386
1996.52	0.00045822
2006.16	0.00036228
2015.81	0.00038669
2025.45	0.0003885
2035.1	0.00044026
2044.74	0.00041689
2054.38	0.00041495
2064.03	0.0003228
2073.67	0.000205
2083.32	0.00025
2092.96	0.0002704
2102.61	0.0003062
2112.25	0.0003089
2121.9	0.0003207
2131.54	0.00035616
2141.19	0.000219
2150.83	0.000265
2160.48	0.000259
2170.12	0.0002764
2179.77	0.0003368
2189.41	0.00040932
2199.06	0.000255
2208.7	0.000305
2218.35	0.0003249
2227.99	0.000365979
2237.64	0.000157
2247.28	0.0003245
2256.92	0.000257
2266.57	0.00035828
2276.21	0.000253
2285.86	0.0002882
2295.5	0.0002763
2305.15	0.000242
2314.79	0.00037946
2324.44	0.000367579
2334.08	0.0003377
2343.73	0.000262
2353.37	0.000253
2363.02	0.0002702
2372.66	0.000231
2382.31	0.000158
2391.95	0.000268
2401.6	0.0003813
2411.24	0.0003143
2420.89	0.00039436
2430.53	0.00036188
2440.18	0.000175
2449.82	0.000241
2459.47	0.0002757
2469.11	0.0003194
2478.75	0.0003455
2488.4	0.000212
2498.04	0.0003383
2507.69	0.00045657
2517.33	0.0003526
2526.98	0.0005154
2536.62	0.00041093
2546.27	0.000225
2555.91	0.00038363
2565.56	0.000264
2575.2	0.000176
2584.85	0.0003458
2594.49	0.0003165
2604.14	0.00039551
2613.78	0.00041827
2623.43	0.0002972
2633.07	0.000192
2642.72	0.0004382
2652.36	0.00039856
2662.01	0.00041979
2671.65	0.000212
2681.29	0.00042388
2690.94	0.0003017
2700.58	0.000372056
2710.23	0.0003437
2719.87	0.000242
2729.52	0.0002851
2739.16	0.0003289
2748.81	0.00044531
2758.45	0.0002786
2768.1	0.000192
2777.74	0.0002964
2787.39	0.00024
2797.03	0.00043564
2806.68	0.000299
2816.32	0.0004699
2825.97	0.000208
2835.61	0.0003013
2845.26	0.00040023
2854.9	0.000144
2864.55	0.0003179
2874.19	0.0003365
2883.84	0.00038446
2893.48	0.00039434
2903.12	0.0004823
2912.77	0.000214
2922.41	0.0005234
2932.06	0.000373516
2941.7	0.00043258
2951.35	0.000199
2960.99	0.0003563
2970.64	0.0003324
2980.28	0.00039781
2989.93	0.00042385
2999.57	0.000249
3009.22	0.00053
3018.86	0.0004638
3028.51	0.00042986
3038.15	0.0005684
3047.8	0.0005015
3057.44	0.00043303
3067.09	0.0004615
3076.73	0.0007585
3086.38	0.0010031
3096.02	0.0008914
3105.67	0.0002729
3115.31	0.0005519
3124.95	0.00038601
3134.6	0.00038553
3144.24	0.0003403
3153.89	0.000222
3163.53	0.000353
3173.18	0.0007994
3182.82	0.0003042
3192.47	0.000519
3202.11	0.0003523
3211.76	0.0005098
3221.4	0.0004822
3231.05	0.000123
3240.69	0.00040664
3250.34	0.00045906
3259.98	0.0003386
3269.63	0.0003855
3279.27	0.000252
3288.92	0.0003371
3298.56	0.00042946
3308.21	0.000241
3317.85	0.00074
3327.49	0.0004842
3337.14	0.0003511
3346.78	0.00040895
3356.43	0.00041754
3366.07	0.0003501
3375.72	0.000618
3385.36	0.0002917
3395.01	0.0006219
3404.65	0.0005824
3414.3	0.0002702
3423.94	0.0003558
3433.59	0.000264
3443.23	0.00047
3452.88	0.0003262
3462.52	0.0006066
3472.17	0.00045734
3481.81	0.00035892
3491.46	0.0003625
3501.1	0.00038059
3510.75	0.0005375
3520.39	0.0005133
3530.04	0.0004964
3539.68	0.0005319
3549.32	0.0006108
3558.97	0.000217
3568.61	0.00042196
3578.26	0.0004867
3587.9	0.00044152
3597.55	0.0002913
3607.19	0.0005224
3616.84	0.000709
3626.48	0.0007926
3636.13	0.0005674
3645.77	0.0005558
3655.42	0.0009415
3665.06	0.0006245
3674.71	0.0006393
3684.35	0.0005038
3694	0.0006635
3703.64	0.000308
3713.29	0.0003167
3722.93	0.0004242
3732.58	0.0005987
3742.22	0.000213
3751.86	0.000533
3761.51	0.000429
3771.15	0.000607
3780.8	0.00040904
3790.44	0.0005296
3800.09	0.0007095
3809.73	0.00038675
3819.38	0.0005375
3829.02	0.00045047
3838.67	0.000370145
3848.31	0.0005496
3857.96	0.000263
3867.6	0.0003422
3877.25	0.0005643
3886.89	0.00023
3896.54	0.000244
3906.18	0.0003326
3915.83	0.00038092
3925.47	0.0007306
3935.12	0.0005406
3944.76	0.0005318
3954.41	0.0004973
3964.05	0.00014
3973.69	0.00041448
3983.34	0.000212
3992.98	0.00036021
