Infrared Spectrum: 2-NAPHTHYLAMINE-1-SULFONIC ACID
Formula: C10 H9 N O3 S
CAS: 81-16-3
State: SOLID (MINERAL OIL MULL)
Class: COBLENTZ
Instrument: Not specified, most likely a prism, grating, or hybrid spectrometer.
Sampling: TRANSMISSION
Resolution: 4
Origin: DOW CHEMICAL COMPANY
MICROMETERS	TRANSMITTANCE
2.027	0.665
2.06708	0.676
2.10715	0.679
2.14723	0.683
2.1873	0.688
2.22738	0.688
2.26745	0.684
2.30753	0.684
2.3476	0.693
2.38768	0.701
2.42775	0.711
2.46783	0.723
2.50791	0.729
2.54798	0.736
2.58806	0.741
2.62813	0.744
2.66821	0.749
2.70828	0.749
2.74836	0.746
2.78843	0.739
2.82851	0.733
2.86858	0.726
2.90866	0.719
2.94873	0.719
2.98881	0.721
3.02889	0.711
3.06896	0.669
3.10904	0.611
3.14911	0.532
3.18919	0.494
3.22926	0.474
3.26934	0.454
3.30941	0.426
3.34949	0.26
3.38956	0.051
3.42964	0.134
3.46972	0.174
3.50979	0.399
3.54987	0.562
3.58994	0.6
3.63002	0.621
3.67009	0.636
3.71017	0.646
3.75024	0.646
3.79032	0.635
3.83039	0.62
3.87047	0.666
3.91055	0.706
3.95062	0.731
3.9907	0.747
4.03077	0.762
4.07085	0.771
4.11092	0.779
4.151	0.787
4.19107	0.787
4.23115	0.787
4.27122	0.787
4.3113	0.791
4.35138	0.8
4.39145	0.8
4.43153	0.802
4.4716	0.804
4.51168	0.805
4.55175	0.805
4.59183	0.809
4.6319	0.809
4.67198	0.809
4.71205	0.812
4.75213	0.822
4.7922	0.827
4.83228	0.827
4.87236	0.827
4.91243	0.827
4.95251	0.825
4.99258	0.827
5.03266	0.827
5.07273	0.827
5.11281	0.827
5.15288	0.824
5.19296	0.819
5.23303	0.825
5.27311	0.83
5.31319	0.83
5.35326	0.83
5.39334	0.83
5.43341	0.829
5.47349	0.829
5.51356	0.832
5.55364	0.834
5.59371	0.834
5.63379	0.83
5.67386	0.83
5.71394	0.834
5.75402	0.834
5.79409	0.83
5.83417	0.83
5.87424	0.83
5.91432	0.829
5.95439	0.824
5.99447	0.817
6.03454	0.804
6.07462	0.791
6.11469	0.762
6.15477	0.733
6.19485	0.689
6.23492	0.693
6.275	0.729
6.31507	0.734
6.35515	0.698
6.39522	0.671
6.4353	0.658
6.47537	0.665
6.51545	0.679
6.55552	0.651
6.5956	0.555
6.63567	0.49
6.67575	0.628
6.71583	0.689
6.7559	0.621
6.79598	0.441
6.83605	0.459
6.87613	0.573
6.9162	0.62
6.95628	0.684
6.99635	0.772
7.03643	0.794
7.0765	0.804
7.11658	0.796
7.15666	0.744
7.19673	0.669
7.23681	0.606
7.27688	0.646
7.31696	0.699
7.35703	0.741
7.39711	0.731
7.43718	0.668
7.47726	0.721
7.51733	0.784
7.55741	0.789
7.59749	0.782
7.63756	0.787
7.67764	0.791
7.71771	0.799
7.75779	0.789
7.79786	0.771
7.83794	0.752
7.87801	0.721
7.91809	0.666
7.95816	0.57
7.99824	0.439
8.03832	0.436
8.07839	0.515
8.11847	0.533
8.15854	0.485
8.19862	0.359
8.23869	0.293
8.27877	0.247
8.31884	0.195
8.35892	0.182
8.39899	0.175
8.43907	0.208
8.47914	0.281
8.51922	0.3
8.5593	0.349
8.59937	0.411
8.63945	0.454
8.67952	0.489
8.7196	0.51
8.75967	0.522
8.79975	0.517
8.83982	0.519
8.8799	0.568
8.91997	0.613
8.96005	0.641
9.00013	0.656
9.0402	0.665
9.08028	0.684
9.12035	0.698
9.16043	0.711
9.2005	0.723
9.24058	0.729
9.28065	0.731
9.32073	0.731
9.3608	0.731
9.40088	0.728
9.44096	0.684
9.48103	0.543
9.52111	0.26
9.56118	0.17
9.60126	0.328
9.64133	0.495
9.68141	0.61
9.72148	0.694
9.76156	0.729
9.80163	0.744
9.84171	0.756
9.88178	0.762
9.92186	0.769
9.96194	0.772
10.002	0.766
10.0421	0.736
10.0822	0.709
10.1222	0.698
10.1623	0.709
10.2024	0.756
10.2425	0.787
10.2825	0.794
10.3226	0.796
10.3627	0.787
10.4028	0.784
10.4428	0.797
10.4829	0.799
10.523	0.8
10.5631	0.8
10.6031	0.8
10.6432	0.8
10.6833	0.804
10.7234	0.805
10.7634	0.807
10.8035	0.809
10.8436	0.81
10.8837	0.807
10.9237	0.802
10.9638	0.802
11.0039	0.805
11.044	0.81
11.084	0.812
11.1241	0.812
11.1642	0.817
11.2043	0.817
11.2443	0.819
11.2844	0.82
11.3245	0.82
11.3646	0.82
11.4047	0.82
11.4447	0.819
11.4848	0.809
11.5249	0.779
11.565	0.751
11.605	0.772
11.6451	0.802
11.6852	0.81
11.7253	0.815
11.7653	0.815
11.8054	0.814
11.8455	0.809
11.8856	0.8
11.9256	0.8
11.9657	0.799
12.0058	0.774
12.0459	0.703
12.0859	0.66
12.126	0.681
12.1661	0.736
12.2062	0.742
12.2462	0.721
12.2863	0.598
12.3264	0.499
12.3665	0.62
12.4065	0.724
12.4466	0.767
12.4867	0.786
12.5268	0.796
12.5668	0.797
12.6069	0.799
12.647	0.799
12.6871	0.797
12.7271	0.794
12.7672	0.782
12.8073	0.762
12.8474	0.713
12.8874	0.623
12.9275	0.583
12.9676	0.663
13.0077	0.739
13.0477	0.757
13.0878	0.761
13.1279	0.762
13.168	0.762
13.208	0.754
13.2481	0.736
13.2882	0.703
13.3283	0.648
13.3683	0.565
13.4084	0.54
13.4485	0.578
13.4886	0.646
13.5286	0.688
13.5687	0.699
13.6088	0.706
13.6489	0.711
13.689	0.708
13.729	0.698
13.7691	0.678
13.8092	0.658
13.8493	0.636
13.8893	0.635
13.9294	0.655
13.9695	0.666
14.0096	0.669
14.0496	0.671
14.0897	0.671
14.1298	0.666
14.1699	0.658
14.2099	0.653
14.25	0.64
14.2901	0.63
14.3302	0.616
14.3702	0.601
14.4103	0.585
14.4504	0.56
14.4905	0.525
14.5305	0.487
14.5706	0.442
14.6107	0.393
14.6508	0.339
14.6908	0.296
14.7309	0.248
14.771	0.23
14.8111	0.228
14.8511	0.245
14.8912	0.288
14.9313	0.333
14.9714	0.404
15.0114	0.454
15.0515	0.477
15.0916	0.48
15.1317	0.48
15.1717	0.48
15.2118	0.479
15.2519	0.474
15.292	0.467
15.332	0.461
15.3721	0.452
15.4122	0.446
15.4523	0.442
15.4923	0.437
15.5324	0.431
15.5725	0.419
15.6126	0.416
15.6526	0.404
15.6927	0.396
15.7328	0.386
15.7729	0.379
15.8129	0.371
15.853	0.358
15.8931	0.59
