Infrared Spectrum: Benzenesulfonanilide, 2-amino-N-ethyl-,
Formula: C14 H16 N2 O2 S
CAS: 81-10-7
State: SOLID (SPLIT MULL), FLUOROLUBE FOR 3800-1335 CM^-^1, NUJOL FOR 1335-400 CM^-^1
Class: COBLENTZ III
Instrument: BECKMAN IR-9 (GRATING)
Instrument parameters: ORDER CHANGES: 670, 1200, 2000 CM^-^1
Sampling: TRANSMISSION
Resolution: 2
Origin: DOW CHEMICAL COMPANY
1/CM	TRANSMITTANCE
401	0.5468
410	0.5631
419	0.5819
428	0.6104
437	0.7196
446	0.7306
455	0.5364
464	0.761
473	0.7782
482	0.6994
491	0.7754
500	0.641
509	0.6969
518	0.7706
527	0.793
536	0.7196
545	0.3329
554	0.5654
563	0.606
572	0.4642
581	0.4802
590	0.4397
599	0.0552
608	0.7056
617	0.6031
626	0.6661
635	0.1427
644	0.7628
653	0.8362
662	0.8136
671	0.7356
680	0.7962
689	0.7768
698	0.4022
707	0.4352
716	0.0469
725	0.6014
734	0.6555
743	0.7531
752	0.4976
761	0.264
770	0.5617
779	0.8242
788	0.7968
797	0.4887
806	0.7296
815	0.8558
824	0.6736
833	0.7951
842	0.5037
851	0.7921
860	0.8804
869	0.8815
878	0.7635
887	0.3044
896	0.5737
905	0.7951
914	0.7199
923	0.7212
932	0.6836
941	0.8511
950	0.7617
959	0.3097
968	0.6646
977	0.8325
986	0.8452
995	0.8295
1004	0.7544
1013	0.8396
1022	0.7068
1031	0.7808
1040	0.7893
1049	0.6824
1058	0.4407
1067	0.2956
1076	0.4078
1085	0.6228
1094	0.3723
1103	0.646
1112	0.7287
1121	0.7249
1130	0.6175
1139	0.3405
1148	0.3084
1157	0.1277
1166	0.1082
1175	0.0133
1184	0.3083
1193	0.5448
1202	0.5643
1211	0.4936
1220	0.1016
1229	0.0404
1238	0.349
1247	0.6165
1256	0.6811
1265	0.632
1274	0.4542
1283	0.4226
1292	0.1927
1301	0.2812
1310	0.3286
1319	0.3621
1328	0.1292
1337	0.055
1346	0.0213
1355	0.4293
1364	0.2173
1373	0.7148
1382	0.5821
1391	0.6733
1400	0.6921
1409	0.6607
1418	0.5208
1427	0.241
1436	0.4194
1445	0.6034
1454	0.4359
1463	0.5435
1472	0.2461
1481	0.0905
1490	0.041
1499	0.0257
1508	0.2345
1517	0.6753
1526	0.818
1535	0.8361
1544	0.8167
1553	0.7661
1562	0.6711
1571	0.2649
1580	0.2716
1589	0.1875
1598	0.1801
1607	0.4312
1616	0.0793
1625	0.2856
1634	0.6344
1643	0.7711
1652	0.8039
1661	0.8468
1670	0.8607
1679	0.8692
1688	0.8775
1697	0.8806
1706	0.874
1715	0.8515
1724	0.8409
1733	0.8615
1742	0.86
1751	0.8388
1760	0.8026
1769	0.8341
1778	0.8371
1787	0.8265
1796	0.7855
1805	0.7942
1814	0.8214
1823	0.8283
1832	0.8212
1841	0.8175
1850	0.7962
1859	0.7651
1868	0.7818
1877	0.7411
1886	0.7645
1895	0.7893
1904	0.7924
1913	0.7926
1922	0.7918
1931	0.7761
1940	0.7635
1949	0.718
1958	0.7391
1967	0.754
1976	0.7554
1985	0.7476
1994	0.7451
2003	0.7424
2012	0.7482
2021	0.7506
2030	0.7522
2039	0.7497
2048	0.7411
2057	0.739
2066	0.7375
2075	0.7368
2084	0.7364
2093	0.7344
2102	0.7298
2111	0.7238
2120	0.7175
2129	0.7108
2138	0.7043
2147	0.6974
2156	0.691
2165	0.6848
2174	0.6793
2183	0.6738
2192	0.6685
2201	0.6634
2210	0.6582
2219	0.6503
2228	0.6382
2237	0.6277
2246	0.6195
2255	0.6126
2264	0.6074
2273	0.6022
2282	0.5965
2291	0.5904
2300	0.5842
2309	0.5778
2318	0.5709
2327	0.5638
2336	0.5594
2345	0.5573
2354	0.5569
2363	0.5573
2372	0.5593
2381	0.5614
2390	0.5637
2399	0.5619
2408	0.5597
2417	0.5551
2426	0.55
2435	0.5554
2444	0.5601
2453	0.5632
2462	0.5633
2471	0.5625
2480	0.5605
2489	0.5593
2498	0.5582
2507	0.5581
2516	0.5583
2525	0.5584
2534	0.5582
2543	0.5577
2552	0.5572
2561	0.5558
2570	0.5543
2579	0.5508
2588	0.547
2597	0.5425
2606	0.538
2615	0.5333
2624	0.5286
2633	0.5239
2642	0.519
2651	0.5142
2660	0.5118
2669	0.5108
2678	0.5112
2687	0.5112
2696	0.5101
2705	0.5076
2714	0.5051
2723	0.5022
2732	0.4992
2741	0.4955
2750	0.4918
2759	0.4886
2768	0.4855
2777	0.4823
2786	0.4789
2795	0.4754
2804	0.4718
2813	0.4676
2822	0.4634
2831	0.4547
2840	0.4398
2849	0.4184
2858	0.3938
2867	0.368
2876	0.3332
2885	0.258
2894	0.3712
2903	0.3803
2912	0.3773
2921	0.3568
2930	0.3305
2939	0.2852
2948	0.2959
2957	0.3493
2966	0.3529
2975	0.3272
2984	0.2628
2993	0.2556
3002	0.3871
3011	0.3988
3020	0.3966
3029	0.3879
3038	0.3773
3047	0.372
3056	0.3662
3065	0.3284
3074	0.2938
3083	0.32
3092	0.3312
3101	0.355
3110	0.3755
3119	0.3789
3128	0.3779
3137	0.375
3146	0.3712
3155	0.3671
3164	0.363
3173	0.3584
3182	0.3532
3191	0.3499
3200	0.3454
3209	0.35
3218	0.355
3227	0.3586
3236	0.3597
3245	0.3584
3254	0.3553
3263	0.3503
3272	0.3457
3281	0.3412
3290	0.3372
3299	0.3326
3308	0.327
3317	0.321
3326	0.315
3335	0.3084
3344	0.2965
3353	0.282
3362	0.2606
3371	0.2251
3380	0.0945
3389	0.0695
3398	0.2653
3407	0.3214
3416	0.328
3425	0.3262
3434	0.3208
3443	0.3132
3452	0.3032
3461	0.2882
3470	0.2664
3479	0.2389
3488	0.1775
3497	0.0714
3506	0.2173
3515	0.3096
3524	0.3282
3533	0.3337
3542	0.3344
3551	0.3338
3560	0.3328
3569	0.3316
3578	0.3306
3587	0.3292
3596	0.3276
3605	0.3259
3614	0.3242
3623	0.3223
3632	0.3204
3641	0.3181
3650	0.3159
3659	0.3135
3668	0.3113
3677	0.3092
3686	0.3071
3695	0.3049
3704	0.3028
3713	0.301
3722	0.2995
3731	0.298
3740	0.2964
3749	0.2948
3758	0.2927
3767	0.2905
3776	0.2884
3785	0.2861
3794	0.284
