Infrared Spectrum: 5-t-BUTYL-2,4,6-TRINITRO-M-XYLENE
Formula: C12 H15 N3 O6
CAS: 81-15-2
State: SOLID (MINERAL OIL MULL)
Melting point: 105-107 C
Class: COBLENTZ
Instrument: Not specified, most likely a prism, grating, or hybrid spectrometer.
Sampling: TRANSMISSION
Resolution: 4
Origin: WYANDOTTE CHEMICALS CORP., WYANDOTTE, MICHIGAN, USA
MICROMETERS	TRANSMITTANCE
2.033	0.642
2.07281	0.642
2.11262	0.64
2.15243	0.64
2.19225	0.635
2.23206	0.633
2.27187	0.647
2.31168	0.653
2.35149	0.657
2.3913	0.66
2.43111	0.667
2.47092	0.67
2.51074	0.673
2.55055	0.678
2.59036	0.688
2.63017	0.68
2.66998	0.68
2.70979	0.675
2.7496	0.673
2.78941	0.665
2.82923	0.65
2.86904	0.648
2.90885	0.642
2.94866	0.637
2.98847	0.637
3.02828	0.642
3.06809	0.652
3.10791	0.655
3.14772	0.662
3.18753	0.67
3.22734	0.672
3.26715	0.645
3.30696	0.46
3.34677	0.191
3.38658	0.094
3.4264	0.101
3.46621	0.204
3.50602	0.222
3.54583	0.585
3.58564	0.773
3.62545	0.816
3.66526	0.787
3.70508	0.772
3.74489	0.815
3.7847	0.825
3.82451	0.831
3.86432	0.833
3.90413	0.846
3.94394	0.841
3.98375	0.855
4.02357	0.856
4.06338	0.856
4.10319	0.86
4.143	0.858
4.18281	0.845
4.22262	0.846
4.26243	0.851
4.30224	0.84
4.34206	0.851
4.38187	0.873
4.42168	0.885
4.46149	0.881
4.5013	0.888
4.54111	0.895
4.58092	0.891
4.62074	0.896
4.66055	0.898
4.70036	0.9
4.74017	0.898
4.77998	0.901
4.81979	0.905
4.8596	0.91
4.89941	0.905
4.93923	0.905
4.97904	0.908
5.01885	0.901
5.05866	0.898
5.09847	0.9
5.13828	0.901
5.17809	0.903
5.2179	0.903
5.25772	0.906
5.29753	0.908
5.33734	0.9
5.37715	0.898
5.41696	0.898
5.45677	0.896
5.49658	0.891
5.5364	0.885
5.57621	0.873
5.61602	0.866
5.65583	0.856
5.69564	0.851
5.73545	0.841
5.77526	0.805
5.81507	0.801
5.85489	0.777
5.8947	0.763
5.93451	0.727
5.97432	0.678
6.01413	0.64
6.05394	0.612
6.09375	0.565
6.13357	0.5
6.17338	0.454
6.21319	0.359
6.253	0.256
6.29281	0.202
6.33262	0.169
6.37243	0.131
6.41224	0.058
6.45206	0.039
6.49187	0.049
6.53168	0.076
6.57149	0.101
6.6113	0.161
6.65111	0.252
6.69092	0.331
6.73073	0.276
6.77055	0.076
6.81036	0.141
6.85017	0.168
6.88998	0.212
6.92979	0.282
6.9696	0.379
7.00941	0.452
7.04923	0.459
7.08904	0.397
7.12885	0.232
7.16866	0.169
7.20847	0.221
7.24828	0.244
7.28809	0.202
7.3279	0.063
7.36772	0.038
7.40753	0.078
7.44734	0.254
7.48715	0.439
7.52696	0.582
7.56677	0.632
7.60658	0.685
7.64639	0.712
7.68621	0.743
7.72602	0.762
7.76583	0.772
7.80564	0.722
7.84545	0.652
7.88526	0.732
7.92507	0.757
7.96489	0.757
8.0047	0.797
8.04451	0.811
8.08432	0.823
8.12413	0.825
8.16394	0.825
8.20375	0.775
8.24356	0.6
8.28338	0.432
8.32319	0.382
8.363	0.487
8.40281	0.628
8.44262	0.667
8.48243	0.768
8.52224	0.798
8.56206	0.738
8.60187	0.668
8.64168	0.801
8.68149	0.84
8.7213	0.861
8.76111	0.876
8.80092	0.895
8.84073	0.898
8.88055	0.898
8.92036	0.896
8.96017	0.896
8.99998	0.901
9.03979	0.901
9.0796	0.9
9.11941	0.893
9.15922	0.888
9.19904	0.885
9.23885	0.871
9.27866	0.858
9.31847	0.841
9.35828	0.831
9.39809	0.835
9.4379	0.848
9.47772	0.853
9.51753	0.846
9.55734	0.831
9.59715	0.811
9.63696	0.783
9.67677	0.755
9.71658	0.765
9.75639	0.82
9.79621	0.855
9.83602	0.871
9.87583	0.886
9.91564	0.886
9.95545	0.893
9.99526	0.898
10.0351	0.908
10.0749	0.913
10.1147	0.91
10.1545	0.911
10.1943	0.916
10.2341	0.906
10.2739	0.9
10.3138	0.891
10.3536	0.868
10.3934	0.806
10.4332	0.655
10.473	0.652
10.5128	0.745
10.5526	0.805
10.5924	0.835
10.6322	0.871
10.6721	0.886
10.7119	0.89
10.7517	0.87
10.7915	0.816
10.8313	0.838
10.8711	0.851
10.9109	0.871
10.9507	0.893
10.9905	0.91
11.0304	0.918
11.0702	0.923
11.11	0.915
11.1498	0.911
11.1896	0.906
11.2294	0.886
11.2692	0.816
11.309	0.514
11.3488	0.291
11.3887	0.56
11.4285	0.765
11.4683	0.826
11.5081	0.821
11.5479	0.653
11.5877	0.564
11.6275	0.72
11.6673	0.828
11.7071	0.875
11.747	0.893
11.7868	0.905
11.8266	0.91
11.8664	0.915
11.9062	0.923
11.946	0.925
11.9858	0.93
12.0256	0.933
12.0655	0.936
12.1053	0.938
12.1451	0.94
12.1849	0.94
12.2247	0.805
12.2645	0.855
12.3043	0.911
12.3441	0.866
12.3839	0.792
12.4238	0.873
12.4636	0.916
12.5034	0.931
12.5432	0.938
12.583	0.938
12.6228	0.933
12.6626	0.916
12.7024	0.87
12.7422	0.6
12.7821	0.402
12.8219	0.594
12.8617	0.667
12.9015	0.697
12.9413	0.815
12.9811	0.861
13.0209	0.89
13.0607	0.898
13.1005	0.9
13.1404	0.905
13.1802	0.9
13.22	0.89
13.2598	0.875
13.2996	0.856
13.3394	0.815
13.3792	0.735
13.419	0.589
13.4588	0.484
13.4987	0.49
13.5385	0.55
13.5783	0.579
13.6181	0.603
13.6579	0.635
13.6977	0.672
13.7375	0.705
13.7773	0.737
13.8171	0.763
13.857	0.782
13.8968	0.798
13.9366	0.82
13.9764	0.845
14.0162	0.863
14.056	0.871
14.0958	0.87
14.1356	0.873
14.1755	0.871
14.2153	0.87
14.2551	0.868
14.2949	0.866
14.3347	0.866
14.3745	0.86
14.4143	0.833
14.4541	0.778
14.4939	0.733
14.5338	0.735
14.5736	0.767
14.6134	0.813
14.6532	0.83
14.693	0.845
14.7328	0.851
14.7726	0.858
14.8124	0.856
14.8522	0.858
14.8921	0.855
14.9319	0.855
14.9717	0.846
15.0115	0.828
15.0513	0.797
15.0911	0.782
15.1309	0.793
15.1707	0.801
15.2105	0.801
15.2504	0.79
15.2902	0.777
15.33	0.76
15.3698	0.745
15.4096	0.725
15.4494	0.715
15.4892	0.692
15.529	0.66
15.5688	0.637
15.6087	0.615
15.6485	0.595
15.6883	0.582
15.7281	0.582
15.7679	0.597
15.8077	0.622
15.8475	0.638
15.8873	0.657
15.9271	0.668
15.967	0.672
