Infrared Spectrum: CHOLIC ACID
Formula: C24 H40 O5
CAS: 81-25-4
State: SOLID
Melting point: 200-201 C
Class: COBLENTZ
Instrument: Not specified, most likely a prism, grating, or hybrid spectrometer.
Sampling: TRANSMISSION
Resolution: 4
Origin: WYANDOTTE CHEMICALS CORP., WYANDOTTE, MICHIGAN, USA
MICROMETERS	TRANSMITTANCE
2.019	0.937
2.05609	0.956
2.09317	0.984
2.13026	0.987
2.16734	0.95
2.20443	0.875
2.24152	0.849
2.2786	0.866
2.31569	0.877
2.35277	0.902
2.38986	0.917
2.42694	0.939
2.46403	0.945
2.50112	0.962
2.5382	0.984
2.57529	0.995
2.61237	1.001
2.64946	1.007
2.68655	1.007
2.72363	1.004
2.76072	0.919
2.7978	0.555
2.83489	0.241
2.87198	0.462
2.90906	0.452
2.94615	0.28
2.98323	0.151
3.02032	0.041
3.0574	0.063
3.09449	0.06
3.13158	0.046
3.16866	0.041
3.20575	0.074
3.24283	0.086
3.27992	0.083
3.31701	0.031
3.35409	0.027
3.39118	0.017
3.42826	0.029
3.46535	0.024
3.50244	0.018
3.53952	0.052
3.57661	0.122
3.61369	0.181
3.65078	0.21
3.68787	0.229
3.72495	0.26
3.76204	0.28
3.79912	0.28
3.83621	0.336
3.87329	0.386
3.91038	0.415
3.94747	0.444
3.98455	0.471
4.02164	0.514
4.05872	0.551
4.09581	0.607
4.1329	0.644
4.16998	0.671
4.20707	0.71
4.24415	0.714
4.28124	0.724
4.31833	0.745
4.35541	0.792
4.3925	0.813
4.42958	0.823
4.46667	0.837
4.50375	0.852
4.54084	0.866
4.57793	0.875
4.61501	0.875
4.6521	0.874
4.68918	0.871
4.72627	0.889
4.76336	0.905
4.80044	0.91
4.83753	0.903
4.87461	0.908
4.9117	0.897
4.94879	0.896
4.98587	0.893
5.02296	0.889
5.06004	0.877
5.09713	0.879
5.13421	0.879
5.1713	0.869
5.20839	0.86
5.24547	0.855
5.28256	0.823
5.31964	0.82
5.35673	0.8
5.39382	0.789
5.4309	0.781
5.46799	0.792
5.50507	0.772
5.54216	0.764
5.57925	0.784
5.61633	0.747
5.65342	0.748
5.6905	0.637
5.72759	0.462
5.76468	0.206
5.80176	0.048
5.83885	0.048
5.87593	0.207
5.91302	0.32
5.9501	0.424
5.98719	0.582
6.02428	0.665
6.06136	0.73
6.09845	0.767
6.13553	0.778
6.17262	0.795
6.20971	0.813
6.24679	0.812
6.28388	0.813
6.32096	0.804
6.35805	0.781
6.39514	0.786
6.43222	0.751
6.46931	0.748
6.50639	0.702
6.54348	0.657
6.58056	0.589
6.61765	0.451
6.65474	0.337
6.69182	0.297
6.72891	0.155
6.76599	0.026
6.80308	0.029
6.84017	0.027
6.87725	0.032
6.91434	0.046
6.95142	0.147
6.98851	0.277
7.0256	0.336
7.06268	0.231
7.09977	0.119
7.13685	0.117
7.17394	0.125
7.21102	0.038
7.24811	0.023
7.2852	0.031
7.32228	0.08
7.35937	0.159
7.39645	0.263
7.43354	0.192
7.47063	0.083
7.50771	0.083
7.5448	0.209
7.58188	0.215
7.61897	0.224
7.65606	0.212
7.69314	0.186
7.73023	0.105
7.76731	0.089
7.8044	0.189
7.84148	0.212
7.87857	0.172
7.91566	0.106
7.95274	0.038
7.98983	0.04
8.02691	0.037
8.064	0.038
8.10109	0.062
8.13817	0.106
8.17526	0.195
8.21234	0.28
8.24943	0.364
8.28652	0.403
8.3236	0.327
8.36069	0.311
8.39777	0.427
8.43486	0.418
8.47195	0.39
8.50903	0.302
8.54612	0.353
8.5832	0.345
8.62029	0.389
8.65737	0.313
8.69446	0.407
8.73155	0.463
8.76863	0.465
8.80572	0.511
8.8428	0.41
8.87989	0.286
8.91698	0.306
8.95406	0.392
8.99115	0.398
9.02823	0.223
9.06532	0.046
9.10241	0.029
9.13949	0.032
9.17658	0.066
9.21366	0.057
9.25075	0.041
9.28783	0.155
9.32492	0.217
9.36201	0.308
9.39909	0.403
9.43618	0.365
9.47326	0.212
9.51035	0.055
9.54744	0.034
9.58452	0.069
9.62161	0.097
9.65869	0.119
9.69578	0.217
9.73287	0.297
9.76995	0.252
9.80704	0.156
9.84412	0.181
9.88121	0.299
9.91829	0.285
9.95538	0.172
9.99247	0.2
10.0296	0.251
10.0666	0.251
10.1037	0.184
10.1408	0.116
10.1779	0.091
10.215	0.151
10.2521	0.213
10.2892	0.246
10.3262	0.251
10.3633	0.244
10.4004	0.268
10.4375	0.28
10.4746	0.262
10.5117	0.246
10.5488	0.235
10.5858	0.227
10.6229	0.336
10.66	0.381
10.6971	0.282
10.7342	0.227
10.7713	0.224
10.8084	0.204
10.8454	0.231
10.8825	0.213
10.9196	0.117
10.9567	0.082
10.9938	0.2
11.0309	0.285
11.068	0.274
11.105	0.241
11.1421	0.336
11.1792	0.446
11.2163	0.5
11.2534	0.53
11.2905	0.55
11.3276	0.561
11.3646	0.548
11.4017	0.527
11.4388	0.565
11.4759	0.59
11.513	0.61
11.5501	0.61
11.5872	0.582
11.6242	0.462
11.6613	0.289
11.6984	0.358
11.7355	0.474
11.7726	0.548
11.8097	0.576
11.8468	0.548
11.8838	0.53
11.9209	0.564
11.958	0.57
11.9951	0.525
12.0322	0.469
12.0693	0.511
12.1064	0.576
12.1434	0.61
12.1805	0.634
12.2176	0.637
12.2547	0.618
12.2918	0.6
12.3289	0.61
12.366	0.64
12.403	0.648
12.4401	0.638
12.4772	0.624
12.5143	0.6
12.5514	0.547
12.5885	0.475
12.6256	0.499
12.6627	0.534
12.6997	0.525
12.7368	0.499
12.7739	0.469
12.811	0.438
12.8481	0.421
12.8852	0.431
12.9223	0.452
12.9593	0.471
12.9964	0.482
13.0335	0.489
13.0706	0.499
13.1077	0.51
13.1448	0.513
13.1819	0.522
13.2189	0.537
13.256	0.533
13.2931	0.541
13.3302	0.544
13.3673	0.541
13.4044	0.545
13.4415	0.544
13.4785	0.53
13.5156	0.53
13.5527	0.514
13.5898	0.51
13.6269	0.499
13.664	0.491
13.7011	0.482
13.7381	0.493
13.7752	0.511
13.8123	0.514
13.8494	0.519
13.8865	0.525
13.9236	0.556
13.9607	0.578
13.9977	0.601
14.0348	0.617
14.0719	0.638
14.109	0.648
14.1461	0.652
14.1832	0.66
14.2203	0.669
14.2573	0.669
14.2944	0.675
14.3315	0.675
14.3686	0.669
14.4057	0.671
14.4428	0.671
14.4799	0.669
14.5169	0.66
14.554	0.641
14.5911	0.626
14.6282	0.586
14.6653	0.52
14.7024	0.44
14.7395	0.372
14.7765	0.368
14.8136	0.42
14.8507	0.488
14.8878	0.541
14.9249	0.578
14.962	0.589
14.9991	0.592
15.0361	0.551
15.0732	0.525
15.1103	0.513
15.1474	0.53
15.1845	0.57
15.2216	0.589
15.2587	0.609
15.2957	0.603
15.3328	0.601
15.3699	0.604
15.407	0.601
15.4441	0.6
15.4812	0.592
15.5183	0.579
15.5554	0.57
15.5924	0.572
15.6295	0.568
15.6666	0.567
15.7037	0.565
15.7408	0.55
15.7779	0.556
15.815	0.545
15.852	0.527
15.8891	0.517
15.9262	0.502
15.9633	0.493
