Infrared Spectrum: 1,4,5,8-NAPHTHALENE, TETRACARBOXYLIC 1,8:4,5-DIANHYDRIDE
Formula: C14 H4 O6
CAS: 81-30-1
State: SOLID (SPLIT MULL)
Melting point: 320 C
Class: COBLENTZ
Instrument: DOW KBr FOREPRISM-GRATING
Instrument parameters: BLAZED AT 3.5, 12.0, 20.0 MICRON AND CHANGED AT 5.0, 7.5, 14.9 MICRON
Sampling: TRANSMISSION
Resolution: 2
Origin: DOW CHEMICAL COMPANY
1/CM	TRANSMITTANCE
382	0.6778
391	0.6893
400	0.7021
409	0.7194
418	0.7455
427	0.7592
436	0.7625
445	0.8043
454	0.8642
463	0.9407
472	0.9612
481	0.984
490	0.9895
499	0.9914
508	0.9816
517	0.9841
526	0.9831
535	0.9287
544	0.6201
553	0.9853
562	0.9965
571	0.9941
580	0.9752
589	0.9382
598	0.9546
607	0.954
616	0.9282
625	0.9095
634	0.9075
643	0.8928
652	0.8547
661	0.929
670	0.8998
679	0.8515
688	0.8393
697	0.4512
706	0.8218
715	0.7611
724	0.6997
733	0.6907
742	0.6262
751	0.4866
760	0.2823
769	0.5421
778	0.599
787	0.8541
796	0.7711
805	0.6926
814	0.602
823	0.6601
832	0.6424
841	0.7648
850	0.7042
859	0.6669
868	0.6262
877	0.6305
886	0.6359
895	0.7007
904	0.6925
913	0.6785
922	0.6639
931	0.6385
940	0.5785
949	0.6705
958	0.6521
967	0.631
976	0.6231
985	0.606
994	0.5929
1003	0.5548
1012	0.5033
1021	0.4333
1030	0.2079
1039	0.142
1048	0.3509
1057	0.5899
1066	0.5682
1075	0.4652
1084	0.6371
1093	0.6033
1102	0.6034
1111	0.5618
1120	0.2069
1129	0.2242
1138	0.5394
1147	0.4191
1156	0.1746
1165	0.2174
1174	0.4228
1183	0.5896
1192	0.5762
1201	0.5326
1210	0.5871
1219	0.5115
1228	0.2206
1237	0.2678
1246	0.3679
1255	0.4649
1264	0.5343
1273	0.5396
1282	0.4235
1291	0.1434
1300	0.2076
1309	0.4481
1318	0.6422
1327	0.6368
1336	0.6235
1345	0.6399
1354	0.7168
1363	0.7218
1372	0.6551
1381	0.5524
1390	0.5768
1399	0.6554
1408	0.8088
1417	0.7731
1426	0.7151
1435	0.568
1444	0.6611
1453	0.8153
1462	0.8625
1471	0.8659
1480	0.8817
1489	0.8487
1498	0.8632
1507	0.8338
1516	0.5696
1525	0.8721
1534	0.8737
1543	0.8538
1552	0.8271
1561	0.7961
1570	0.7075
1579	0.4627
1588	0.6053
1597	0.5669
1606	0.7208
1615	0.738
1624	0.7384
1633	0.7301
1642	0.7174
1651	0.7005
1660	0.6675
1669	0.6262
1678	0.5875
1687	0.5253
1696	0.4535
1705	0.3755
1714	0.3453
1723	0.1916
1732	0.1527
1741	0.1808
1750	0.2097
1759	0.1313
1768	0.0516
1777	0.0354
1786	0.0676
1795	0.3214
1804	0.7
1813	0.73
1822	0.7758
1831	0.8708
1840	0.9047
1849	0.9161
1858	0.8994
1867	0.9563
1876	0.9801
1885	0.9823
1894	0.9916
1903	0.9899
1912	0.9911
1921	0.9865
1930	0.9798
1939	0.9744
1948	0.9718
1957	0.9721
1966	0.9775
1975	0.9609
1984	0.9858
1993	0.963
2002	0.9425
2011	0.9438
2020	0.9449
2029	0.9454
2038	0.9452
2047	0.9445
2056	0.9428
2065	0.9404
2074	0.9378
2083	0.9352
2092	0.9321
2101	0.9292
2110	0.9265
2119	0.9245
2128	0.9235
2137	0.923
2146	0.9216
2155	0.92
2164	0.9174
2173	0.9148
2182	0.9118
2191	0.9086
2200	0.9054
2209	0.9011
2218	0.8967
2227	0.8918
2236	0.8867
2245	0.8815
2254	0.8767
2263	0.872
2272	0.8689
2281	0.8664
2290	0.8639
2299	0.8613
2308	0.8586
2317	0.8587
2326	0.8662
2335	0.8661
2344	0.864
2353	0.8621
2362	0.8602
2371	0.858
2380	0.8562
2389	0.8539
2398	0.8512
2407	0.8492
2416	0.8475
2425	0.8456
2434	0.8433
2443	0.8409
2452	0.8386
2461	0.8371
2470	0.8358
2479	0.8346
2488	0.8339
2497	0.8349
2506	0.8393
2515	0.8435
2524	0.8404
2533	0.8366
2542	0.8333
2551	0.8301
2560	0.827
2569	0.8238
2578	0.8214
2587	0.8192
2596	0.8171
2605	0.815
2614	0.814
2623	0.8149
2632	0.8172
2641	0.819
2650	0.8192
2659	0.8178
2668	0.8167
2677	0.8143
2686	0.8118
2695	0.8093
2704	0.8061
2713	0.8024
2722	0.7975
2731	0.7926
2740	0.7875
2749	0.7824
2758	0.778
2767	0.7755
2776	0.7732
2785	0.7707
2794	0.7676
2803	0.7632
2812	0.7571
2821	0.7487
2830	0.7404
2839	0.7325
2848	0.7254
2857	0.7186
2866	0.7125
2875	0.7065
2884	0.6999
2893	0.6922
2902	0.6847
2911	0.6767
2920	0.6688
2929	0.6615
2938	0.6541
2947	0.6469
2956	0.6388
2965	0.6324
2974	0.6292
2983	0.6274
2992	0.625
3001	0.6202
3010	0.611
3019	0.5955
3028	0.571
3037	0.5528
3046	0.556
3055	0.5383
3064	0.5157
3073	0.4881
3082	0.439
3091	0.441
3100	0.5535
3109	0.5551
3118	0.5453
3127	0.567
3136	0.5773
3145	0.5853
3154	0.592
3163	0.5988
3172	0.606
3181	0.6144
3190	0.6227
3199	0.6309
3208	0.6389
3217	0.6468
3226	0.6545
3235	0.6617
3244	0.6671
3253	0.6725
3262	0.6775
3271	0.6811
3280	0.6835
3289	0.6847
3298	0.6851
3307	0.6848
3316	0.6837
3325	0.6825
3334	0.6814
3343	0.6801
3352	0.6784
3361	0.6765
3370	0.6748
3379	0.6731
3388	0.6715
3397	0.6698
3406	0.6683
3415	0.6667
3424	0.6653
3433	0.6638
3442	0.6617
3451	0.6593
3460	0.6571
3469	0.6548
3478	0.6521
3487	0.6494
3496	0.6468
3505	0.6445
3514	0.644
3523	0.6455
3532	0.6474
3541	0.649
3550	0.649
3559	0.6475
3568	0.6474
3577	0.6474
3586	0.6474
3595	0.6467
3604	0.6461
3613	0.6455
3622	0.645
3631	0.6443
3640	0.6435
3649	0.6426
3658	0.6418
3667	0.6411
3676	0.6405
3685	0.6396
3694	0.6387
3703	0.6377
3712	0.6362
3721	0.6347
3730	0.6333
3739	0.6312
3748	0.6293
3757	0.6269
3766	0.6242
3775	0.6214
3784	0.6185
3793	0.6175
