Infrared Spectrum: 1-AMINO-2, 4-DIBROMOANTHRAQUINONE
Formula: C14 H7 Br2 N O2
CAS: 81-49-2
State: SOLID (KBr PELLET)
Class: COBLENTZ
Instrument: Not specified, most likely a prism, grating, or hybrid spectrometer.
Sampling: TRANSMISSION
Resolution: 4
Origin: CORN PRODUCTS COMPANY
MICROMETERS	TRANSMITTANCE
2.034	0.519
2.06782	0.519
2.10164	0.528
2.13545	0.529
2.16927	0.533
2.20309	0.54
2.23691	0.545
2.27073	0.546
2.30455	0.55
2.33836	0.555
2.37218	0.558
2.406	0.565
2.43982	0.57
2.47364	0.574
2.50746	0.577
2.54127	0.582
2.57509	0.586
2.60891	0.587
2.64273	0.591
2.67655	0.592
2.71037	0.592
2.74418	0.591
2.778	0.587
2.81182	0.56
2.84564	0.516
2.87946	0.487
2.91328	0.436
2.94709	0.335
2.98091	0.325
3.01473	0.422
3.04855	0.461
3.08237	0.461
3.11619	0.463
3.15	0.524
3.18382	0.551
3.21764	0.572
3.25146	0.58
3.28528	0.58
3.3191	0.58
3.35291	0.591
3.38673	0.596
3.42055	0.606
3.45437	0.611
3.48819	0.614
3.52201	0.616
3.55582	0.621
3.58964	0.626
3.62346	0.63
3.65728	0.633
3.6911	0.635
3.72492	0.638
3.75873	0.638
3.79255	0.64
3.82637	0.642
3.86019	0.643
3.89401	0.647
3.92783	0.65
3.96164	0.652
3.99546	0.655
4.02928	0.657
4.0631	0.657
4.09692	0.659
4.13074	0.66
4.16455	0.662
4.19837	0.664
4.23219	0.664
4.26601	0.666
4.29983	0.666
4.33365	0.666
4.36746	0.666
4.40128	0.667
4.4351	0.669
4.46892	0.671
4.50274	0.672
4.53656	0.674
4.57037	0.674
4.60419	0.676
4.63801	0.678
4.67183	0.681
4.70565	0.678
4.73947	0.678
4.77328	0.678
4.8071	0.678
4.84092	0.679
4.87474	0.681
4.90856	0.681
4.94238	0.681
4.97619	0.683
5.01001	0.684
5.04383	0.681
5.07765	0.681
5.11147	0.684
5.14529	0.686
5.1791	0.688
5.21292	0.691
5.24674	0.693
5.28056	0.695
5.31438	0.696
5.3482	0.696
5.38201	0.693
5.41583	0.695
5.44965	0.7
5.48347	0.701
5.51729	0.701
5.55111	0.701
5.58492	0.7
5.61874	0.681
5.65256	0.684
5.68638	0.688
5.7202	0.689
5.75402	0.686
5.78783	0.683
5.82165	0.679
5.85547	0.678
5.88929	0.674
5.92311	0.643
5.95693	0.521
5.99074	0.257
6.02456	0.371
6.05838	0.524
6.0922	0.473
6.12602	0.436
6.15983	0.475
6.19365	0.495
6.22747	0.422
6.26129	0.221
6.29511	0.137
6.32893	0.136
6.36274	0.4
6.39656	0.507
6.43038	0.557
6.4642	0.591
6.49802	0.524
6.53184	0.471
6.56565	0.321
6.59947	0.265
6.63329	0.315
6.66711	0.56
6.70093	0.603
6.73475	0.611
6.76856	0.62
6.80238	0.63
6.8362	0.643
6.87002	0.647
6.90384	0.652
6.93766	0.66
6.97147	0.66
7.00529	0.642
7.03911	0.647
7.07293	0.65
7.10675	0.642
7.14057	0.635
7.17438	0.596
7.2082	0.463
7.24202	0.339
7.27584	0.349
7.30966	0.517
7.34348	0.591
7.37729	0.63
7.41111	0.64
7.44493	0.637
7.47875	0.591
7.51257	0.494
7.54639	0.449
7.5802	0.548
7.61402	0.586
7.64784	0.591
7.68166	0.567
7.71548	0.536
7.7493	0.465
7.78311	0.262
7.81693	0.178
7.85075	0.17
7.88457	0.177
7.91839	0.185
7.95221	0.214
7.98602	0.275
8.01984	0.359
8.05366	0.371
8.08748	0.39
8.1213	0.444
8.15512	0.522
8.18893	0.565
8.22275	0.597
8.25657	0.609
8.29039	0.613
8.32421	0.616
8.35803	0.618
8.39184	0.611
8.42566	0.611
8.45948	0.609
8.4933	0.603
8.52712	0.584
8.56094	0.555
8.59475	0.507
8.62857	0.5
8.66239	0.533
8.69621	0.55
8.73003	0.548
8.76385	0.482
8.79766	0.361
8.83148	0.339
8.8653	0.39
8.89912	0.446
8.93294	0.492
8.96676	0.517
9.00057	0.529
9.03439	0.533
9.06821	0.531
9.10203	0.526
9.13585	0.546
9.16967	0.568
9.20348	0.579
9.2373	0.589
9.27112	0.594
9.30494	0.599
9.33876	0.604
9.37258	0.606
9.40639	0.606
9.44021	0.604
9.47403	0.601
9.50785	0.592
9.54167	0.577
9.57549	0.558
9.6093	0.551
9.64312	0.579
9.67694	0.604
9.71076	0.606
9.74458	0.575
9.7784	0.529
9.81221	0.485
9.84603	0.456
9.87985	0.429
9.91367	0.434
9.94749	0.475
9.9813	0.534
10.0151	0.575
10.0489	0.587
10.0828	0.596
10.1166	0.609
10.1504	0.613
10.1842	0.616
10.218	0.618
10.2519	0.616
10.2857	0.618
10.3195	0.618
10.3533	0.618
10.3871	0.618
10.4209	0.62
10.4548	0.625
10.4886	0.635
10.5224	0.638
10.5562	0.637
10.59	0.626
10.6239	0.623
10.6577	0.626
10.6915	0.637
10.7253	0.64
10.7591	0.645
10.7929	0.652
10.8268	0.655
10.8606	0.659
10.8944	0.662
10.9282	0.667
10.962	0.672
10.9959	0.674
11.0297	0.678
11.0635	0.676
11.0973	0.674
11.1311	0.654
11.1649	0.575
11.1988	0.572
11.2326	0.563
11.2664	0.586
11.3002	0.625
11.334	0.65
11.3679	0.664
11.4017	0.672
11.4355	0.681
11.4693	0.686
11.5031	0.691
11.5369	0.695
11.5708	0.7
11.6046	0.701
11.6384	0.698
11.6722	0.696
11.706	0.698
11.7399	0.701
11.7737	0.7
11.8075	0.7
11.8413	0.696
11.8751	0.695
11.9089	0.696
11.9428	0.698
11.9766	0.7
12.0104	0.703
12.0442	0.7
12.078	0.7
12.1119	0.701
12.1457	0.7
12.1795	0.698
12.2133	0.698
12.2471	0.689
12.281	0.684
12.3148	0.688
12.3486	0.691
12.3824	0.693
12.4162	0.667
12.45	0.599
12.4839	0.55
12.5177	0.577
12.5515	0.577
12.5853	0.591
12.6191	0.649
12.653	0.672
12.6868	0.688
12.7206	0.691
12.7544	0.696
12.7882	0.698
12.822	0.7
12.8559	0.701
12.8897	0.701
12.9235	0.703
12.9573	0.703
12.9911	0.703
13.025	0.701
13.0588	0.701
13.0926	0.701
13.1264	0.701
13.1602	0.701
13.194	0.703
13.2279	0.7
13.2617	0.7
13.2955	0.696
13.3293	0.693
13.3631	0.684
13.397	0.676
13.4308	0.654
13.4646	0.609
13.4984	0.531
13.5322	0.419
13.566	0.335
13.5999	0.361
13.6337	0.505
13.6675	0.606
13.7013	0.637
13.7351	0.655
13.769	0.654
13.8028	0.635
13.8366	0.545
13.8704	0.357
13.9042	0.279
13.938	0.356
13.9719	0.371
14.0057	0.362
14.0395	0.442
14.0733	0.546
14.1071	0.604
14.141	0.621
14.1748	0.62
14.2086	0.577
14.2424	0.536
14.2762	0.524
14.31	0.565
14.3439	0.596
14.3777	0.621
14.4115	0.63
14.4453	0.638
14.4791	0.647
14.513	0.652
14.5468	0.659
14.5806	0.666
14.6144	0.674
14.6482	0.678
14.6821	0.681
14.7159	0.679
14.7497	0.679
14.7835	0.678
14.8173	0.679
14.8511	0.678
14.885	0.678
14.9188	0.676
14.9526	0.674
14.9864	0.672
15.0202	0.672
15.0541	0.671
15.0879	0.659
15.1217	0.64
15.1555	0.621
15.1893	0.618
15.2231	0.625
15.257	0.633
15.2908	0.652
15.3246	0.662
15.3584	0.669
15.3922	0.672
15.4261	0.676
15.4599	0.676
