Infrared Spectrum: 1-BENZOYLAMINO-4-CHLORO-ANTHRAQUINONE
Formula: C21 H12 Cl N O3
CAS: 81-45-8
State: SOLID (1.0% IN KBr PELLET)
Class: COBLENTZ
Instrument: Not specified, most likely a prism, grating, or hybrid spectrometer.
Sampling: TRANSMISSION
Path length: 0.0355 CM THICK
Resolution: 4
Origin: ANDERSON PHYSICAL LABORATORY
1/CM	TRANSMITTANCE
673.832	0.74
682.243	0.729
690.654	0.6081
699.066	0.2882
707.477	0.1519
715.888	0.7829
724.299	0.431
732.711	0.7159
741.122	0.605
749.533	0.62
757.944	0.785
766.356	0.891
774.767	0.917
783.178	0.913
791.589	0.888
800.001	0.714
808.412	0.5349
816.823	0.5821
825.234	0.786
833.646	0.883
842.057	0.808
850.468	0.6042
858.879	0.6609
867.291	0.897
875.702	0.864
884.113	0.6859
892.524	0.883
900.936	0.828
909.347	0.844
917.758	0.874
926.169	0.713
934.581	0.85
942.992	0.888
951.403	0.886
959.814	0.871
968.226	0.85
976.637	0.802
985.048	0.74
993.459	0.732
1001.87	0.582
1010.28	0.2289
1018.69	0.6607
1027.1	0.861
1035.52	0.774
1043.93	0.774
1052.34	0.7649
1060.75	0.813
1069.16	0.774
1077.57	0.728
1085.98	0.71
1094.39	0.728
1102.81	0.685
1111.22	0.694
1119.63	0.679
1128.04	0.626
1136.45	0.508
1144.86	0.446
1153.27	0.559
1161.68	0.491
1170.1	0.279
1178.51	0.408
1186.92	0.5469
1195.33	0.4681
1203.74	0.574
1212.15	0.504
1220.56	0.441
1228.97	0.379
1237.39	0.252
1245.8	0.128
1254.21	0.062
1262.62	0.05
1271.03	0.104
1279.44	0.3289
1287.85	0.511
1296.26	0.608
1304.68	0.562
1313.09	0.522
1321.5	0.519
1329.91	0.2669
1338.32	0.15
1346.73	0.3221
1355.14	0.6279
1363.55	0.705
1371.97	0.623
1380.38	0.323
1388.79	0.538
1397.2	0.67
1405.61	0.653
1414.02	0.62
1422.43	0.577
1430.84	0.567
1439.26	0.647
1447.67	0.568
1456.08	0.474
1464.49	0.397
1472.9	0.308
1481.31	0.235
1489.72	0.137
1498.13	0.101
1506.55	0.252
1514.96	0.1999
1523.37	0.126
1531.78	0.307
1540.19	0.526
1548.6	0.611
1557.01	0.659
1565.42	0.607
1573.84	0.4159
1582.25	0.2099
1590.66	0.1
1599.07	0.3081
1607.48	0.383
1615.89	0.5
1624.3	0.559
1632.71	0.52
1641.13	0.323
1649.54	0.473
1657.95	0.547
1666.36	0.4879
1674.77	0.1889
1683.18	0.155
1691.59	0.4009
1700	0.677
1708.42	0.882
1716.83	0.938
1725.24	0.964
1733.65	0.958
1742.06	0.953
1750.47	0.952
1758.88	0.953
1767.29	0.95
1775.71	0.941
1784.12	0.937
1792.53	0.94
1800.94	0.931
1809.35	0.92
1817.76	0.913
1826.17	0.904
1834.58	0.905
1843	0.91
1851.41	0.908
1859.82	0.9
1868.23	0.889
1876.64	0.885
1885.05	0.886
1893.46	0.879
1901.87	0.864
1910.29	0.861
1918.7	0.862
1927.11	0.861
1935.52	0.853
1943.93	0.849
1952.34	0.835
1960.75	0.82
1969.16	0.816
1977.58	0.816
1985.99	0.811
1994.4	0.814
2002.81	0.817
2011.22	0.813
2019.63	0.8107
2028.04	0.81
2036.45	0.8138
2044.87	0.816
2053.28	0.8167
2061.69	0.8135
2070.1	0.8115
2078.51	0.8069
2086.92	0.805
2095.33	0.8005
2103.74	0.7942
2112.16	0.7889
2120.57	0.7857
2128.98	0.7839
2137.39	0.7772
2145.8	0.7708
2154.21	0.7647
2162.62	0.7614
2171.03	0.761
2179.45	0.7608
2187.86	0.7573
2196.27	0.755
2204.68	0.7522
2213.09	0.7497
2221.5	0.746
2229.91	0.741
2238.32	0.7383
2246.74	0.737
2255.15	0.7359
2263.56	0.7291
2271.97	0.7251
2280.38	0.7229
2288.79	0.72
2297.2	0.72
2305.61	0.7172
2314.03	0.7134
2322.44	0.7076
2330.85	0.7043
2339.26	0.7022
2347.67	0.7008
2356.08	0.6976
2364.49	0.695
2372.9	0.694
2381.32	0.6918
2389.73	0.6901
2398.14	0.6883
2406.55	0.6832
2414.96	0.6798
2423.37	0.6751
2431.78	0.6716
2440.19	0.67
2448.61	0.668
2457.02	0.668
2465.43	0.6648
2473.84	0.662
2482.25	0.659
2490.66	0.6555
2499.07	0.652
2507.48	0.647
2515.9	0.6425
2524.31	0.6405
2532.72	0.6385
2541.13	0.635
2549.54	0.634
2557.95	0.6324
2566.36	0.6294
2574.77	0.626
2583.19	0.625
2591.6	0.6239
2600.01	0.6206
2608.42	0.619
2616.83	0.617
2625.24	0.6164
2633.65	0.6119
2642.06	0.6019
2650.48	0.598
2658.89	0.598
2667.3	0.597
2675.71	0.595
2684.12	0.595
2692.53	0.595
2700.94	0.5923
2709.35	0.5908
2717.77	0.5873
2726.18	0.5838
2734.59	0.583
2743	0.5818
2751.41	0.5782
2759.82	0.576
2768.23	0.576
2776.64	0.576
2785.06	0.574
2793.47	0.5734
2801.88	0.5682
2810.29	0.5667
2818.7	0.564
2827.11	0.5613
2835.52	0.5562
2843.93	0.555
2852.35	0.5508
2860.76	0.5463
2869.17	0.5413
2877.58	0.535
2885.99	0.535
2894.4	0.5343
2902.81	0.5281
2911.22	0.5276
2919.64	0.5241
2928.05	0.523
2936.46	0.522
2944.87	0.52
2953.28	0.5195
2961.69	0.5146
2970.1	0.51
2978.51	0.5035
2986.93	0.501
2995.34	0.5003
3003.75	0.497
3012.16	0.4947
3020.57	0.4885
3028.98	0.4807
3037.39	0.476
3045.8	0.4692
3054.22	0.4583
3062.63	0.4522
3071.04	0.4489
3079.45	0.4432
3087.86	0.4389
3096.27	0.4372
3104.68	0.4339
3113.09	0.4274
3121.51	0.4239
3129.92	0.4204
3138.33	0.4094
3146.74	0.3977
3155.15	0.395
3163.56	0.3923
3171.97	0.3908
3180.38	0.388
3188.8	0.3868
3197.21	0.385
3205.62	0.3851
3214.03	0.3944
3222.44	0.3976
3230.85	0.4061
3239.26	0.4164
3247.67	0.42
3256.09	0.422
3264.5	0.4247
3272.91	0.4268
3281.32	0.4344
3289.73	0.437
3298.14	0.438
3306.55	0.44
3314.96	0.44
3323.38	0.44
3331.79	0.44
3340.2	0.4397
3348.61	0.438
3357.02	0.4357
3365.43	0.434
3373.84	0.432
3382.25	0.4288
3390.67	0.423
3399.08	0.422
3407.49	0.4186
3415.9	0.4151
3424.31	0.414
3432.72	0.413
3441.13	0.4108
3449.54	0.4091
3457.96	0.4073
3466.37	0.407
3474.78	0.407
3483.19	0.407
3491.6	0.407
3500.01	0.408
3508.42	0.408
3516.83	0.41
3525.25	0.4108
3533.66	0.413
3542.07	0.4133
3550.48	0.414
3558.89	0.414
3567.3	0.414
3575.71	0.4146
3584.12	0.4176
3592.54	0.4198
3600.95	0.422
3609.36	0.423
3617.77	0.4241
3626.18	0.425
3634.59	0.425
3643	0.4244
3651.41	0.423
3659.83	0.425
3668.24	0.425
3676.65	0.426
3685.06	0.4272
3693.47	0.428
3701.88	0.428
3710.29	0.428
3718.7	0.426
3727.12	0.426
3735.53	0.4248
3743.94	0.423
3752.35	0.422
3760.76	0.4174
3769.17	0.416
3777.58	0.416
3785.99	0.414
3794.41	0.413
3802.82	0.41
3811.23	0.4092
3819.64	0.408
3828.05	0.407
3836.46	0.405
3844.87	0.4046
3853.28	0.404
3861.7	0.402
3870.11	0.4018
3878.52	0.401
3886.93	0.4003
3895.34	0.4
3903.75	0.4
3912.16	0.4
3920.57	0.398
3928.99	0.3951
3937.4	0.3948
3945.81	0.394
3954.22	0.3913
3962.63	0.391
3971.04	0.388
3979.45	0.388
