Infrared Spectrum: 1-AMINO-4-BENZAMIDOANTHRAQUINONE
Formula: C21 H14 N2 O3
CAS: 81-46-9
State: SOLID (KBr PELLET)
Class: COBLENTZ
Instrument: Not specified, most likely a prism, grating, or hybrid spectrometer.
Sampling: TRANSMISSION
Resolution: 4
Origin: CORN PRODUCTS COMPANY
MICROMETERS	TRANSMITTANCE
2.02	0.327
2.05382	0.332
2.08764	0.339
2.12146	0.347
2.15528	0.354
2.1891	0.358
2.22291	0.364
2.25673	0.373
2.29055	0.38
2.32437	0.386
2.35819	0.395
2.39201	0.4
2.42583	0.405
2.45965	0.41
2.49347	0.415
2.52729	0.42
2.56111	0.429
2.59493	0.434
2.62874	0.437
2.66256	0.442
2.69638	0.449
2.7302	0.452
2.76402	0.442
2.79784	0.395
2.83166	0.334
2.86548	0.283
2.8993	0.238
2.93312	0.168
2.96694	0.133
3.00076	0.189
3.03457	0.236
3.06839	0.197
3.10221	0.255
3.13603	0.309
3.16985	0.327
3.20367	0.347
3.23749	0.351
3.27131	0.369
3.30513	0.373
3.33895	0.395
3.37277	0.425
3.40659	0.464
3.4404	0.476
3.47422	0.486
3.50804	0.498
3.54186	0.506
3.57568	0.511
3.6095	0.516
3.64332	0.52
3.67714	0.521
3.71096	0.523
3.74478	0.527
3.7786	0.528
3.81242	0.53
3.84623	0.53
3.88005	0.535
3.91387	0.538
3.94769	0.548
3.98151	0.554
4.01533	0.557
4.04915	0.559
4.08297	0.564
4.11679	0.565
4.15061	0.567
4.18443	0.567
4.21825	0.572
4.25206	0.567
4.28588	0.567
4.3197	0.57
4.35352	0.574
4.38734	0.577
4.42116	0.579
4.45498	0.587
4.4888	0.591
4.52262	0.591
4.55644	0.591
4.59026	0.592
4.62408	0.594
4.65789	0.596
4.69171	0.596
4.72553	0.597
4.75935	0.597
4.79317	0.601
4.82699	0.601
4.86081	0.604
4.89463	0.608
4.92845	0.608
4.96227	0.609
4.99609	0.609
5.02991	0.604
5.06372	0.604
5.09754	0.601
5.13136	0.601
5.16518	0.604
5.199	0.613
5.23282	0.616
5.26664	0.618
5.30046	0.623
5.33428	0.628
5.3681	0.63
5.40192	0.638
5.43574	0.638
5.46955	0.636
5.50337	0.63
5.53719	0.628
5.57101	0.628
5.60483	0.626
5.63865	0.619
5.67247	0.619
5.70629	0.619
5.74011	0.616
5.77393	0.599
5.80775	0.587
5.84157	0.576
5.87538	0.535
5.9092	0.388
5.94302	0.143
5.97684	0.079
6.01066	0.158
6.04448	0.199
6.0783	0.177
6.11212	0.084
6.14594	0.064
6.17976	0.059
6.21358	0.033
6.24739	0.035
6.28121	0.032
6.31503	0.01
6.34885	0.008
6.38267	0.02
6.41649	0.059
6.45031	0.079
6.48413	0.07
6.51795	0.057
6.55177	0.059
6.58559	0.059
6.61941	0.048
6.65322	0.043
6.68704	0.043
6.72086	0.043
6.75468	0.099
6.7885	0.158
6.82232	0.216
6.85614	0.229
6.88996	0.209
6.92378	0.212
6.9576	0.277
6.99142	0.344
7.02524	0.383
7.05905	0.38
7.09287	0.253
7.12669	0.233
7.16051	0.29
7.19433	0.246
7.22815	0.069
7.26197	0.069
7.29579	0.179
7.32961	0.317
7.36343	0.371
7.39725	0.375
7.43107	0.334
7.46488	0.319
7.4987	0.342
7.53252	0.359
7.56634	0.349
7.60016	0.337
7.63398	0.337
7.6678	0.266
7.70162	0.165
7.73544	0.109
7.76926	0.05
7.80308	0.015
7.8369	0.001
7.87071	0.001
7.90453	0.011
7.93835	0.011
7.97217	0.008
8.00599	0.006
8.03981	0.021
8.07363	0.059
8.10745	0.133
8.14127	0.199
8.17509	0.292
8.20891	0.342
8.24273	0.386
8.27654	0.412
8.31036	0.429
8.34418	0.442
8.378	0.442
8.41182	0.356
8.44564	0.241
8.47946	0.158
8.51328	0.135
8.5471	0.141
8.58092	0.201
8.61474	0.277
8.64856	0.314
8.68237	0.368
8.71619	0.408
8.75001	0.44
8.78383	0.466
8.81765	0.469
8.85147	0.467
8.88529	0.466
8.91911	0.466
8.95293	0.467
8.98675	0.469
9.02057	0.461
9.05439	0.451
9.0882	0.417
9.12202	0.396
9.15584	0.39
9.18966	0.391
9.22348	0.415
9.2573	0.427
9.29112	0.423
9.32494	0.418
9.35876	0.415
9.39258	0.427
9.4264	0.445
9.46022	0.451
9.49403	0.445
9.52785	0.43
9.56167	0.43
9.59549	0.476
9.62931	0.516
9.66313	0.516
9.69695	0.484
9.73077	0.405
9.76459	0.298
9.79841	0.226
9.83223	0.226
9.86605	0.302
9.89986	0.369
9.93368	0.42
9.9675	0.425
10.0013	0.423
10.0351	0.466
10.069	0.491
10.1028	0.508
10.1366	0.513
10.1704	0.521
10.2042	0.525
10.2381	0.527
10.2719	0.525
10.3057	0.527
10.3395	0.533
10.3733	0.547
10.4072	0.555
10.441	0.56
10.4748	0.564
10.5086	0.567
10.5424	0.567
10.5762	0.569
10.6101	0.569
10.6439	0.57
10.6777	0.567
10.7115	0.562
10.7453	0.559
10.7792	0.554
10.813	0.55
10.8468	0.555
10.8806	0.557
10.9144	0.552
10.9483	0.547
10.9821	0.542
11.0159	0.53
11.0497	0.518
11.0835	0.53
11.1174	0.552
11.1512	0.562
11.185	0.567
11.2188	0.55
11.2526	0.5
11.2864	0.478
11.3203	0.471
11.3541	0.488
11.3879	0.513
11.4217	0.528
11.4555	0.532
11.4894	0.518
11.5232	0.503
11.557	0.505
11.5908	0.518
11.6246	0.537
11.6585	0.538
11.6923	0.537
11.7261	0.52
11.7599	0.501
11.7937	0.486
11.8276	0.462
11.8614	0.447
11.8952	0.434
11.929	0.418
11.9628	0.39
11.9967	0.336
12.0305	0.32
12.0643	0.376
12.0981	0.432
12.1319	0.486
12.1657	0.511
12.1996	0.527
12.2334	0.545
12.2672	0.55
12.301	0.55
12.3348	0.548
12.3687	0.542
12.4025	0.516
12.4363	0.476
12.4701	0.449
12.5039	0.427
12.5378	0.395
12.5716	0.363
12.6054	0.373
12.6392	0.435
12.673	0.494
12.7069	0.515
12.7407	0.523
12.7745	0.527
12.8083	0.525
12.8421	0.52
12.876	0.515
12.9098	0.508
12.9436	0.5
12.9774	0.494
13.0112	0.486
13.045	0.478
13.0789	0.467
13.1127	0.461
13.1465	0.456
13.1803	0.447
13.2141	0.442
13.248	0.435
13.2818	0.429
13.3156	0.427
13.3494	0.425
13.3832	0.423
13.4171	0.422
13.4509	0.417
13.4847	0.41
13.5185	0.39
13.5523	0.358
13.5862	0.332
13.62	0.298
13.6538	0.275
13.6876	0.244
13.7214	0.221
13.7552	0.214
13.7891	0.214
13.8229	0.263
13.8567	0.309
13.8905	0.339
13.9243	0.359
13.9582	0.344
13.992	0.288
14.0258	0.258
14.0596	0.246
14.0934	0.221
14.1273	0.182
14.1611	0.138
14.1949	0.114
14.2287	0.072
14.2625	0.059
14.2964	0.059
14.3302	0.067
14.364	0.101
14.3978	0.167
14.4316	0.238
14.4655	0.302
14.4993	0.344
14.5331	0.376
14.5669	0.403
14.6007	0.423
14.6345	0.432
14.6684	0.44
14.7022	0.451
14.736	0.459
14.7698	0.461
14.8036	0.449
14.8375	0.415
14.8713	0.4
14.9051	0.415
14.9389	0.43
14.9727	0.445
15.0066	0.466
15.0404	0.481
15.0742	0.489
15.108	0.491
15.1418	0.498
15.1757	0.503
15.2095	0.506
15.2433	0.508
15.2771	0.498
15.3109	0.469
15.3447	0.461
15.3786	0.469
15.4124	0.496
15.4462	0.52
15.48	0.52
15.5138	0.52
