Infrared Spectrum: 1-AMINO-4-BROMO-2-METHYLANTHRAQUINONE
Formula: C15 H10 Br N O2
CAS: 81-50-5
State: SOLID (KBr PELLET)
Class: COBLENTZ
Instrument: Not specified, most likely a prism, grating, or hybrid spectrometer.
Sampling: TRANSMISSION
Resolution: 4
Origin: CORN PRODUCTS COMPANY
MICROMETERS	TRANSMITTANCE
2.014	0.513
2.04782	0.523
2.08163	0.53
2.11545	0.54
2.14927	0.552
2.18308	0.567
2.2169	0.574
2.25072	0.588
2.28453	0.598
2.31835	0.608
2.35217	0.618
2.38598	0.622
2.4198	0.635
2.45361	0.64
2.48743	0.654
2.52125	0.661
2.55506	0.672
2.58888	0.681
2.6227	0.681
2.65651	0.688
2.69033	0.694
2.72415	0.7
2.75796	0.71
2.79178	0.696
2.8256	0.669
2.85941	0.644
2.89323	0.616
2.92705	0.488
2.96086	0.376
2.99468	0.554
3.0285	0.605
3.06231	0.632
3.09613	0.62
3.12995	0.65
3.16376	0.696
3.19758	0.718
3.23139	0.74
3.26521	0.759
3.29903	0.762
3.33284	0.766
3.36666	0.771
3.40048	0.777
3.43429	0.781
3.46811	0.783
3.50193	0.796
3.53574	0.805
3.56956	0.806
3.60338	0.811
3.63719	0.815
3.67101	0.82
3.70483	0.823
3.73864	0.828
3.77246	0.833
3.80628	0.838
3.84009	0.842
3.87391	0.844
3.90772	0.845
3.94154	0.847
3.97536	0.85
4.00917	0.854
4.04299	0.861
4.07681	0.862
4.11062	0.864
4.14444	0.866
4.17826	0.867
4.21207	0.869
4.24589	0.874
4.27971	0.876
4.31352	0.877
4.34734	0.879
4.38116	0.879
4.41497	0.879
4.44879	0.879
4.48261	0.879
4.51642	0.879
4.55024	0.888
4.58406	0.888
4.61787	0.888
4.65169	0.888
4.6855	0.888
4.71932	0.889
4.75314	0.889
4.78695	0.891
4.82077	0.891
4.85459	0.891
4.8884	0.893
4.92222	0.894
4.95604	0.894
4.98985	0.896
5.02367	0.896
5.05749	0.896
5.0913	0.896
5.12512	0.896
5.15894	0.9
5.19275	0.903
5.22657	0.903
5.26039	0.903
5.2942	0.903
5.32802	0.903
5.36184	0.906
5.39565	0.906
5.42947	0.906
5.46328	0.908
5.4971	0.908
5.53092	0.908
5.56473	0.906
5.59855	0.898
5.63237	0.896
5.66618	0.898
5.7	0.896
5.73382	0.896
5.76763	0.891
5.80145	0.886
5.83527	0.874
5.86908	0.871
5.9029	0.847
5.93672	0.796
5.97053	0.637
6.00435	0.471
6.03817	0.581
6.07198	0.667
6.1058	0.589
6.13961	0.581
6.17343	0.516
6.20725	0.286
6.24106	0.33
6.27488	0.433
6.3087	0.555
6.34251	0.696
6.37633	0.71
6.41015	0.576
6.44396	0.31
6.47778	0.367
6.5116	0.545
6.54541	0.701
6.57923	0.744
6.61305	0.801
6.64686	0.832
6.68068	0.845
6.7145	0.852
6.74831	0.854
6.78213	0.854
6.81595	0.845
6.84976	0.796
6.88358	0.779
6.91739	0.781
6.95121	0.789
6.98503	0.798
7.01884	0.816
7.05266	0.823
7.08648	0.793
7.12029	0.694
7.15411	0.65
7.18793	0.623
7.22174	0.679
7.25556	0.593
7.28938	0.611
7.32319	0.779
7.35701	0.816
7.39083	0.82
7.42464	0.813
7.45846	0.789
7.49228	0.733
7.52609	0.733
7.55991	0.747
7.59373	0.759
7.62754	0.764
7.66136	0.735
7.69517	0.666
7.72899	0.52
7.76281	0.428
7.79662	0.379
7.83044	0.349
7.86426	0.311
7.89807	0.294
7.93189	0.381
7.96571	0.501
7.99952	0.574
8.03334	0.606
8.06716	0.694
8.10097	0.747
8.13479	0.772
8.16861	0.801
8.20242	0.816
8.23624	0.806
8.27006	0.732
8.30387	0.686
8.33769	0.759
8.37151	0.808
8.40532	0.818
8.43914	0.816
8.47295	0.762
8.50677	0.769
8.54059	0.783
8.5744	0.789
8.60822	0.793
8.64204	0.81
8.67585	0.823
8.70967	0.842
8.74349	0.842
8.7773	0.84
8.81112	0.833
8.84494	0.82
8.87875	0.815
8.91257	0.811
8.94639	0.81
8.9802	0.808
9.01402	0.808
9.04784	0.803
9.08165	0.801
9.11547	0.81
9.14928	0.811
9.1831	0.813
9.21692	0.818
9.25073	0.82
9.28455	0.823
9.31837	0.825
9.35218	0.823
9.386	0.822
9.41982	0.815
9.45363	0.82
9.48745	0.823
9.52127	0.827
9.55508	0.827
9.5889	0.83
9.62272	0.832
9.65653	0.835
9.69035	0.832
9.72417	0.813
9.75798	0.801
9.7918	0.803
9.82562	0.811
9.85943	0.808
9.89325	0.786
9.92706	0.749
9.96088	0.733
9.9947	0.764
10.0285	0.796
10.0623	0.808
10.0961	0.816
10.13	0.823
10.1638	0.816
10.1976	0.801
10.2314	0.767
10.2652	0.75
10.299	0.762
10.3329	0.784
10.3667	0.81
10.4005	0.825
10.4343	0.828
10.4681	0.84
10.5019	0.849
10.5358	0.855
10.5696	0.859
10.6034	0.861
10.6372	0.864
10.671	0.867
10.7048	0.867
10.7387	0.869
10.7725	0.872
10.8063	0.874
10.8401	0.877
10.8739	0.883
10.9077	0.883
10.9416	0.886
10.9754	0.888
11.0092	0.886
11.043	0.886
11.0768	0.879
11.1106	0.805
11.1445	0.761
11.1783	0.761
11.2121	0.772
11.2459	0.803
11.2797	0.84
11.3135	0.855
11.3474	0.866
11.3812	0.877
11.415	0.884
11.4488	0.888
11.4826	0.891
11.5164	0.903
11.5503	0.903
11.5841	0.901
11.6179	0.906
11.6517	0.903
11.6855	0.903
11.7193	0.906
11.7532	0.906
11.787	0.905
11.8208	0.903
11.8546	0.901
11.8884	0.901
11.9222	0.9
11.9561	0.903
11.9899	0.906
12.0237	0.903
12.0575	0.901
12.0913	0.906
12.1251	0.908
12.159	0.903
12.1928	0.901
12.2266	0.901
12.2604	0.896
12.2942	0.891
12.328	0.889
12.3619	0.891
12.3957	0.891
12.4295	0.883
12.4633	0.859
12.4971	0.85
12.5309	0.82
12.5648	0.815
12.5986	0.81
12.6324	0.757
12.6662	0.735
12.7	0.764
12.7338	0.8
12.7677	0.83
12.8015	0.849
12.8353	0.855
12.8691	0.867
12.9029	0.872
12.9367	0.876
12.9706	0.879
13.0044	0.886
13.0382	0.889
13.072	0.888
13.1058	0.888
13.1396	0.888
13.1735	0.888
13.2073	0.881
13.2411	0.876
13.2749	0.869
13.3087	0.847
13.3425	0.816
13.3763	0.725
13.4102	0.637
13.444	0.606
13.4778	0.655
13.5116	0.781
13.5454	0.822
13.5792	0.842
13.6131	0.861
13.6469	0.867
13.6807	0.867
13.7145	0.855
13.7483	0.82
13.7821	0.762
13.816	0.664
13.8498	0.588
13.8836	0.537
13.9174	0.537
13.9512	0.566
13.985	0.62
14.0189	0.701
14.0527	0.742
14.0865	0.786
14.1203	0.82
14.1541	0.838
14.1879	0.852
14.2218	0.861
14.2556	0.864
14.2894	0.866
14.3232	0.874
14.357	0.876
14.3908	0.876
14.4247	0.876
14.4585	0.879
14.4923	0.879
14.5261	0.879
14.5599	0.877
14.5937	0.877
14.6276	0.877
14.6614	0.877
14.6952	0.877
14.729	0.874
14.7628	0.874
14.7966	0.872
14.8305	0.867
14.8643	0.869
14.8981	0.866
14.9319	0.847
14.9657	0.845
14.9995	0.867
15.0334	0.855
15.0672	0.827
15.101	0.818
15.1348	0.818
15.1686	0.83
15.2024	0.835
15.2363	0.842
15.2701	0.847
15.3039	0.85
15.3377	0.855
15.3715	0.859
15.4053	0.857
15.4392	0.859
15.473	0.862
