Infrared Spectrum: Anthraquinone, 1,8-dihydroxy-4,5-dinitro-,
Formula: C14 H6 N2 O8
CAS: 81-55-0
State: SOLID (SPLIT MULL), FLUOROLUBE FOR 3800-1335 CM^-^1, NUJOL FOR 1335-400 CM^-^1
Melting point: 296 C
Class: COBLENTZ III
Instrument: BECKMAN IR-9 (GRATING)
Instrument parameters: ORDER CHANGES: 670, 1200, 2000 CM^-^1
Sampling: TRANSMISSION
Resolution: 2
Origin: DOW CHEMICAL COMPANY
1/CM	TRANSMITTANCE
3804	0.5262
3795	0.5267
3786	0.5272
3777	0.5281
3768	0.5295
3759	0.5307
3750	0.5322
3741	0.5336
3732	0.5351
3723	0.5373
3714	0.5397
3705	0.5425
3696	0.5454
3687	0.5472
3678	0.5449
3669	0.5425
3660	0.5414
3651	0.5406
3642	0.54
3633	0.5394
3624	0.5393
3615	0.5391
3606	0.5402
3597	0.5441
3588	0.5385
3579	0.5443
3570	0.5476
3561	0.5475
3552	0.5471
3543	0.5465
3534	0.546
3525	0.5456
3516	0.5456
3507	0.5457
3498	0.5458
3489	0.5458
3480	0.546
3471	0.5465
3462	0.547
3453	0.5475
3444	0.548
3435	0.5482
3426	0.5476
3417	0.547
3408	0.5467
3399	0.5462
3390	0.5445
3381	0.5421
3372	0.5377
3363	0.5326
3354	0.5337
3345	0.5404
3336	0.5446
3327	0.5452
3318	0.5454
3309	0.544
3300	0.5426
3291	0.5402
3282	0.5379
3273	0.5348
3264	0.5314
3255	0.5278
3246	0.5239
3237	0.5196
3228	0.5132
3219	0.5054
3210	0.4967
3201	0.4873
3192	0.4776
3183	0.4675
3174	0.4576
3165	0.4479
3156	0.4387
3147	0.431
3138	0.4273
3129	0.4382
3120	0.4487
3111	0.4514
3102	0.4222
3093	0.3825
3084	0.4172
3075	0.419
3066	0.4574
3057	0.4868
3048	0.5115
3039	0.5426
3030	0.5653
3021	0.5722
3012	0.576
3003	0.5825
2994	0.5917
2985	0.6008
2976	0.6068
2967	0.6119
2958	0.6158
2949	0.618
2940	0.6185
2931	0.619
2922	0.6184
2913	0.6172
2904	0.6162
2895	0.6167
2886	0.6266
2877	0.6372
2868	0.6469
2859	0.6553
2850	0.6622
2841	0.6693
2832	0.6745
2823	0.6787
2814	0.6822
2805	0.6853
2796	0.6883
2787	0.6903
2778	0.6903
2769	0.6878
2760	0.6851
2751	0.6818
2742	0.6787
2733	0.6794
2724	0.6839
2715	0.6918
2706	0.6997
2697	0.7071
2688	0.7141
2679	0.7168
2670	0.7167
2661	0.7149
2652	0.7137
2643	0.7138
2634	0.7153
2625	0.7169
2616	0.7192
2607	0.7237
2598	0.7306
2589	0.7371
2580	0.7419
2571	0.7441
2562	0.7424
2553	0.7438
2544	0.7483
2535	0.753
2526	0.7569
2517	0.7604
2508	0.7638
2499	0.7671
2490	0.7683
2481	0.7676
2472	0.7678
2463	0.7675
2454	0.7701
2445	0.7731
2436	0.7775
2427	0.7804
2418	0.7808
2409	0.7801
2400	0.7796
2391	0.781
2382	0.7838
2373	0.7872
2364	0.788
2355	0.7874
2346	0.7878
2337	0.7881
2328	0.7889
2319	0.7905
2310	0.7919
2301	0.7924
2292	0.7935
2283	0.7956
2274	0.8003
2265	0.8047
2256	0.8082
2247	0.8119
2238	0.8158
2229	0.8195
2220	0.8228
2211	0.8238
2202	0.8246
2193	0.8254
2184	0.8268
2175	0.8297
2166	0.8347
2157	0.8375
2148	0.8401
2139	0.8423
2130	0.8447
2121	0.8471
2112	0.8495
2103	0.8516
2094	0.854
2085	0.8571
2076	0.8611
2067	0.8633
2058	0.8654
2049	0.8673
2040	0.8692
2031	0.8711
2022	0.8728
2013	0.8744
2004	0.8738
1995	0.8725
1986	0.8718
1977	0.8706
1968	0.8666
1959	0.8404
1950	0.8535
1941	0.8373
1932	0.8708
1923	0.8784
1914	0.881
1905	0.8825
1896	0.8828
1887	0.8798
1878	0.8818
1869	0.8825
1860	0.8821
1851	0.8808
1842	0.8793
1833	0.8778
1824	0.8763
1815	0.8846
1806	0.8868
1797	0.8812
1788	0.8766
1779	0.8735
1770	0.8797
1761	0.8794
1752	0.8781
1743	0.8752
1734	0.8662
1725	0.8451
1716	0.8302
1707	0.7958
1698	0.6168
1689	0.2808
1680	0.4459
1671	0.781
1662	0.7874
1653	0.7137
1644	0.5097
1635	0.2533
1626	0.026
1617	0.292
1608	0.4309
1599	0.2212
1590	0.3826
1581	0.5975
1572	0.5255
1563	0.3334
1554	0.1728
1545	0.0236
1536	0.0988
1527	0.2502
1518	0.6046
1509	0.6678
1500	0.7068
1491	0.7006
1482	0.6016
1473	0.412
1464	0.212
1455	0.1025
1446	0.1421
1437	0.1883
1428	0.3826
1419	0.4662
1410	0.5014
1401	0.4476
1392	0.3912
1383	0.3448
1374	0.191
1365	0.0194
1356	0.0846
1347	0.3203
1338	0.4212
1329	0.4949
1320	0.5591
1311	0.5689
1302	0.5229
1293	0.4206
1284	0.2512
1275	0.1629
1266	0.0804
1257	0.0255
1248	0.0792
1239	0.2223
1230	0.3897
1221	0.4709
1212	0.4756
1203	0.442
1194	0.2426
1185	0.0956
1176	0.206
1167	0.4101
1158	0.3962
1149	0.3742
1140	0.6685
1131	0.7211
1122	0.7336
1113	0.7133
1104	0.4933
1095	0.4012
1086	0.6922
1077	0.7249
1068	0.7447
1059	0.7575
1050	0.7588
1041	0.7639
1032	0.7742
1023	0.786
1014	0.7968
1005	0.8046
996	0.8081
987	0.7417
978	0.7868
969	0.7958
960	0.8282
951	0.8383
942	0.8432
933	0.801
924	0.7593
915	0.8267
906	0.8575
897	0.8574
888	0.8609
879	0.8661
870	0.8627
861	0.7301
852	0.3071
843	0.4895
834	0.6346
825	0.8482
816	0.8404
807	0.7657
798	0.2661
789	0.6332
780	0.6682
771	0.4768
762	0.6495
753	0.7285
744	0.6141
735	0.565
726	0.4801
717	0.4129
708	0.5377
699	0.5972
690	0.5534
681	0.4417
672	0.4054
663	0.6891
654	0.7632
645	0.7971
636	0.8133
627	0.8047
618	0.8175
609	0.7875
600	0.648
591	0.7476
582	0.7857
573	0.8511
564	0.8568
555	0.8602
546	0.8621
537	0.859
528	0.8549
519	0.8499
510	0.8424
501	0.8255
492	0.8083
483	0.7562
474	0.7456
465	0.7282
456	0.6003
447	0.6225
438	0.6377
429	0.6019
420	0.6003
411	0.6058
402	0.6088
