Infrared Spectrum: ANTHRAQUINONE, 1-AMINO-2,4-DIHYDROXY-
Formula: C14 H9 N O4
CAS: 81-51-6
State: SOLID (SPLIT MULL), FLUOROLUBE FOR 3800-1335 CM^-^1, NUJOL FOR 1335-450 CM^-^1
Melting point: 316 C DECOMP.
Class: COBLENTZ III
Instrument: DOW KBr FOREPRISM-GRATING
Instrument parameters: BLAZED AT 3.5, 12.0, 20.0 MICRON AND CHANGED AT 5.0, 7.5, 14.9 MICRON
Sampling: TRANSMISSION
Resolution: 2
Origin: DOW CHEMICAL COMPANY
1/CM	TRANSMITTANCE
452	0.6865
461	0.7021
470	0.7104
479	0.7358
488	0.759
497	0.7765
506	0.7785
515	0.7843
524	0.8067
533	0.8256
542	0.7985
551	0.8271
560	0.8534
569	0.876
578	0.8783
587	0.8791
596	0.852
605	0.7562
614	0.8585
623	0.8868
632	0.8883
641	0.8566
650	0.8628
659	0.8786
668	0.8543
677	0.8019
686	0.7515
695	0.7526
704	0.8021
713	0.7748
722	0.6507
731	0.7519
740	0.8172
749	0.6956
758	0.7734
767	0.7892
776	0.7851
785	0.7198
794	0.7695
803	0.8172
812	0.8001
821	0.821
830	0.7833
839	0.6389
848	0.5865
857	0.7675
866	0.781
875	0.7764
884	0.7533
893	0.7448
902	0.7558
911	0.7472
920	0.7325
929	0.7155
938	0.693
947	0.6387
956	0.5796
965	0.6857
974	0.7458
983	0.7591
992	0.7555
1001	0.7324
1010	0.6831
1019	0.7375
1028	0.7489
1037	0.7543
1046	0.748
1055	0.7388
1064	0.7294
1073	0.7219
1082	0.7258
1091	0.708
1100	0.72
1109	0.7238
1118	0.7158
1127	0.7022
1136	0.6847
1145	0.6685
1154	0.6276
1163	0.5772
1172	0.5953
1181	0.6152
1190	0.5592
1199	0.491
1208	0.4266
1217	0.3868
1226	0.409
1235	0.4582
1244	0.4629
1253	0.4324
1262	0.3684
1271	0.3044
1280	0.2372
1289	0.1615
1298	0.1283
1307	0.2608
1316	0.4116
1325	0.4653
1334	0.4396
1343	0.3084
1352	0.34
1361	0.4312
1370	0.4646
1379	0.448
1388	0.4021
1397	0.3709
1406	0.3609
1415	0.3599
1424	0.3388
1433	0.2773
1442	0.2233
1451	0.1618
1460	0.1365
1469	0.1376
1478	0.1967
1487	0.222
1496	0.2728
1505	0.2582
1514	0.228
1523	0.1886
1532	0.1481
1541	0.1666
1550	0.1856
1559	0.1508
1568	0.1087
1577	0.1107
1586	0.1781
1595	0.3155
1604	0.3649
1613	0.3514
1622	0.4166
1631	0.5158
1640	0.5739
1649	0.6742
1658	0.7483
1667	0.7789
1676	0.8019
1685	0.8142
1694	0.8211
1703	0.8258
1712	0.8324
1721	0.8371
1730	0.8405
1739	0.8424
1748	0.8404
1757	0.8377
1766	0.834
1775	0.8305
1784	0.827
1793	0.8274
1802	0.8294
1811	0.8305
1820	0.8325
1829	0.832
1838	0.8339
1847	0.8299
1856	0.8223
1865	0.8145
1874	0.8187
1883	0.8235
1892	0.8237
1901	0.8239
1910	0.8224
1919	0.8204
1928	0.8162
1937	0.8075
1946	0.8085
1955	0.809
1964	0.7982
1973	0.8004
1982	0.8018
1991	0.7954
2000	0.8008
2009	0.8105
2018	0.8115
2027	0.8089
2036	0.8061
2045	0.8035
2054	0.8001
2063	0.7961
2072	0.7917
2081	0.7871
2090	0.7822
2099	0.7774
2108	0.7725
2117	0.7676
2126	0.7622
2135	0.7568
2144	0.7515
2153	0.7461
2162	0.7408
2171	0.7357
2180	0.7301
2189	0.7239
2198	0.7176
2207	0.7114
2216	0.7051
2225	0.6988
2234	0.6925
2243	0.6861
2252	0.6798
2261	0.6735
2270	0.6672
2279	0.6611
2288	0.6549
2297	0.6487
2306	0.6425
2315	0.636
2324	0.6297
2333	0.6233
2342	0.6174
2351	0.612
2360	0.6065
2369	0.6014
2378	0.5966
2387	0.5916
2396	0.5868
2405	0.5822
2414	0.5777
2423	0.5731
2432	0.5684
2441	0.5633
2450	0.5582
2459	0.553
2468	0.5475
2477	0.5419
2486	0.5362
2495	0.5331
2504	0.5316
2513	0.5278
2522	0.5219
2531	0.5168
2540	0.5132
2549	0.5095
2558	0.5049
2567	0.5007
2576	0.4973
2585	0.4934
2594	0.4887
2603	0.4844
2612	0.4809
2621	0.4774
2630	0.4733
2639	0.469
2648	0.4658
2657	0.4635
2666	0.4634
2675	0.4635
2684	0.4635
2693	0.4635
2702	0.4635
2711	0.4636
2720	0.4594
2729	0.4544
2738	0.4576
2747	0.4618
2756	0.4622
2765	0.4608
2774	0.4577
2783	0.4539
2792	0.4496
2801	0.4454
2810	0.4412
2819	0.4369
2828	0.432
2837	0.427
2846	0.4186
2855	0.4142
2864	0.4118
2873	0.4079
2882	0.4034
2891	0.3984
2900	0.3929
2909	0.3868
2918	0.3799
2927	0.378
2936	0.3773
2945	0.377
2954	0.3764
2963	0.3745
2972	0.3709
2981	0.3654
2990	0.3596
2999	0.3532
3008	0.3475
3017	0.3423
3026	0.3371
3035	0.3314
3044	0.3259
3053	0.3203
3062	0.3155
3071	0.311
3080	0.3065
3089	0.3024
3098	0.2984
3107	0.2944
3116	0.2904
3125	0.2863
3134	0.2819
3143	0.2774
3152	0.2735
3161	0.2698
3170	0.2678
3179	0.2664
3188	0.2654
3197	0.2638
3206	0.2607
3215	0.2581
3224	0.2588
3233	0.2519
3242	0.2503
3251	0.2511
3260	0.2544
3269	0.261
3278	0.2704
3287	0.2813
3296	0.2902
3305	0.2962
3314	0.3014
3323	0.3067
3332	0.3088
3341	0.3067
3350	0.2997
3359	0.2874
3368	0.2727
3377	0.2558
3386	0.2303
3395	0.2043
3404	0.202
3413	0.2337
3422	0.2896
3431	0.3424
3440	0.3812
3449	0.4077
3458	0.4319
3467	0.456
3476	0.4717
3485	0.4805
3494	0.489
3503	0.4949
3512	0.4972
3521	0.4976
3530	0.4972
3539	0.496
3548	0.4937
3557	0.4909
3566	0.4851
3575	0.485
3584	0.4869
3593	0.4794
3602	0.4773
3611	0.4771
3620	0.4766
3629	0.4762
3638	0.4758
3647	0.4748
3656	0.4733
3665	0.471
3674	0.4685
3683	0.4658
3692	0.4634
3701	0.4612
3710	0.459
3719	0.4558
3728	0.4528
3737	0.4496
3746	0.4464
3755	0.4432
3764	0.4401
3773	0.437
3782	0.4339
