Infrared Spectrum: 1,4-Diamino-2,3-dihydroanthraquinone
Formula: C 14 H 12 N 2 O 2
CAS: 81-63-0
State: gas
Origin: EPA-IR VAPOR PHASE LIBRARY
1/CM	ABSORBANCE
501.5	0.00152
513.074	0.00316
524.648	0.01135
536.222	0.01077
547.796	0.00303
559.37	0.00129
570.944	0.00166
582.518	0.00285
594.092	0.00463
605.666	0.00342
617.24	0.00131
628.814	0.00147
640.388	0.0034
651.962	0.00576
663.536	0.00398
675.11	0.00443
686.684	0.00679
698.258	0.00429
709.832	0.00321
721.406	0.00346
732.98	0.00459
744.554	0.00688
756.128	0.01199
767.702	0.02509
779.276	0.03038
790.85	0.01485
802.423	0.01601
813.997	0.02247
825.571	0.0209
837.145	0.00899
848.719	0.00452
860.293	0.00306
871.867	0.00312
883.441	0.00211
895.015	0.00195
906.589	0.00223
918.163	0.00292
929.737	0.00603
941.311	0.01038
952.885	0.00642
964.459	0.00523
976.033	0.00742
987.607	0.0118
999.181	0.00908
1010.76	0.01037
1022.33	0.00897
1033.9	0.00842
1045.48	0.0033
1057.05	0.00342
1068.63	0.00686
1080.2	0.01739
1091.77	0.0245
1103.35	0.0145
1114.92	0.0066
1126.49	0.00773
1138.07	0.01388
1149.64	0.03529
1161.22	0.03787
1172.79	0.02305
1184.36	0.0531
1195.94	0.04295
1207.51	0.01914
1219.09	0.01931
1230.66	0.02105
1242.23	0.02608
1253.81	0.04342
1265.38	0.03
1276.96	0.03541
1288.53	0.0445
1300.1	0.04432
1311.68	0.0533
1323.25	0.07095
1334.83	0.05765
1346.4	0.03785
1357.97	0.03141
1369.55	0.03571
1381.12	0.06851
1392.7	0.12522
1404.27	0.07881
1415.84	0.04352
1427.42	0.03843
1438.99	0.03094
1450.57	0.03391
1462.14	0.03944
1473.71	0.03196
1485.29	0.02034
1496.86	0.03076
1508.44	0.03878
1520.01	0.01237
1531.58	0.00749
1543.16	0.00721
1554.73	0.01004
1566.31	0.01539
1577.88	0.03081
1589.45	0.03908
1601.03	0.02606
1612.6	0.02679
1624.18	0.03411
1635.75	0.05211
1647.32	0.10918
1658.9	0.11775
1670.47	0.04688
1682.05	0.02075
1693.62	0.01213
1705.19	0.00894
1716.77	0.00777
1728.34	0.00663
1739.92	0.00606
1751.49	0.00538
1763.06	0.00468
1774.64	0.00421
1786.21	0.00377
1797.79	0.00333
1809.36	0.00287
1820.93	0.00279
1832.51	0.0031
1844.08	0.00293
1855.66	0.00271
1867.23	0.00217
1878.8	0.00178
1890.38	0.00161
1901.95	0.00156
1913.53	0.00173
1925.1	0.00215
1936.67	0.00208
1948.25	0.00226
1959.82	0.00206
1971.4	0.00221
1982.97	0.00158
1994.54	0.00143
2006.12	0.00129
2017.69	0.00118
2029.27	0.00127
2040.84	0.00124
2052.41	0.00113
2063.99	0.00111
2075.56	0.00112
2087.14	0.00112
2098.71	0.00113
2110.28	0.00124
2121.86	0.00133
2133.43	0.00137
2145.01	0.00139
2156.58	0.00143
2168.15	0.00132
2179.73	0.00125
2191.3	0.00119
2202.88	0.00118
2214.45	0.00116
2226.02	0.00122
2237.6	0.00132
2249.17	0.00133
2260.74	0.00133
2272.32	0.0014
2283.89	0.00155
2295.47	0.00163
2307.04	0.00177
2318.61	0.00178
2330.19	0.00163
2341.76	0.00156
2353.34	0.00147
2364.91	0.00148
2376.48	0.00158
2388.06	0.00169
2399.63	0.00178
2411.21	0.00186
2422.78	0.0019
2434.35	0.00196
2445.93	0.00206
2457.5	0.0021
2469.08	0.00214
2480.65	0.00222
2492.22	0.00232
2503.8	0.00246
2515.37	0.00265
2526.95	0.00269
2538.52	0.00272
2550.09	0.00282
2561.67	0.00296
2573.24	0.00297
2584.82	0.00307
2596.39	0.00321
2607.96	0.0034
2619.54	0.00364
2631.11	0.0036
2642.69	0.0037
2654.26	0.00395
2665.83	0.00418
2677.41	0.00439
2688.98	0.00464
2700.56	0.00481
2712.13	0.00493
2723.7	0.00476
2735.28	0.00482
2746.85	0.00497
2758.43	0.00503
2770	0.0048
2781.57	0.00471
2793.15	0.00464
2804.72	0.00479
2816.3	0.00522
2827.87	0.0058
2839.44	0.00634
2851.02	0.00577
2862.59	0.00531
2874.17	0.0052
2885.74	0.00543
2897.31	0.0062
2908.89	0.00858
2920.46	0.0085
2932.04	0.00669
2943.61	0.00636
2955.18	0.00663
2966.76	0.00878
2978.33	0.01387
2989.91	0.00986
3001.48	0.00764
3013.05	0.00739
3024.63	0.00752
3036.2	0.00797
3047.78	0.00885
3059.35	0.01016
3070.92	0.01264
3082.5	0.01552
3094.07	0.01132
3105.65	0.00775
3117.22	0.0071
3128.79	0.0068
3140.37	0.00667
3151.94	0.00643
3163.52	0.00621
3175.09	0.00615
3186.66	0.00601
3198.24	0.0057
3209.81	0.00533
3221.39	0.00505
3232.96	0.0049
3244.53	0.00468
3256.11	0.00462
3267.68	0.00469
3279.26	0.00489
3290.83	0.0051
3302.4	0.00489
3313.98	0.00434
3325.55	0.00377
3337.13	0.00335
3348.7	0.00309
3360.27	0.00281
3371.85	0.00268
3383.42	0.00258
3395	0.00245
3406.57	0.00228
3418.14	0.00218
3429.72	0.00211
3441.29	0.00199
3452.86	0.00194
3464.44	0.00178
3476.01	0.00172
3487.59	0.00159
3499.16	0.0016
3510.73	0.0015
3522.31	0.00141
3533.88	0.0013
3545.46	0.00122
3557.03	0.00119
3568.6	0.00113
3580.18	0.00112
3591.75	0.001
3603.33	0.00101
3614.9	0.0009394
3626.47	0.0009059
3638.05	0.0009552
3649.62	0.0008789
3661.2	0.00088
3672.77	0.0008322
3684.34	0.000799
3695.92	0.0008624
3707.49	0.0008602
3719.07	0.0008393
3730.64	0.0008657
3742.21	0.0009139
3753.79	0.0007807
3765.36	0.0008514
3776.94	0.0008265
3788.51	0.0008068
3800.08	0.0008348
3811.66	0.0008188
3823.23	0.0007825
3834.81	0.0008022
3846.38	0.0007927
3857.95	0.0008498
3869.53	0.0008105
3881.1	0.0008622
3892.68	0.000917
3904.25	0.0008454
3915.82	0.0008581
3927.4	0.0009252
3938.97	0.0009862
3950.55	0.0009175
3962.12	0.0009441
3973.69	0.0009367
3985.27	0.0009253
3996.84	0.0009105
