Infrared Spectrum: 1, 2, 5, 8-TETRAHYDROXYANTHRAQUINONE
Formula: C14 H8 O6
CAS: 81-61-8
State: SOLID (KBr PELLET)
Class: COBLENTZ
Instrument: Not specified, most likely a prism, grating, or hybrid spectrometer.
Sampling: TRANSMISSION
Resolution: 4
Origin: CORN PRODUCTS COMPANY
MICROMETERS	TRANSMITTANCE
2.027	0.791
2.06078	0.794
2.09457	0.796
2.12835	0.801
2.16214	0.799
2.19592	0.796
2.2297	0.797
2.26349	0.801
2.29727	0.803
2.33106	0.804
2.36484	0.806
2.39862	0.808
2.43241	0.808
2.46619	0.806
2.49998	0.804
2.53376	0.801
2.56754	0.803
2.60133	0.803
2.63511	0.799
2.6689	0.803
2.70268	0.803
2.73646	0.78
2.77025	0.687
2.80403	0.534
2.83782	0.424
2.8716	0.359
2.90538	0.324
2.93917	0.308
2.97295	0.325
3.00674	0.393
3.04052	0.46
3.0743	0.502
3.10809	0.524
3.14187	0.543
3.17566	0.556
3.20944	0.57
3.24322	0.578
3.27701	0.58
3.31079	0.595
3.34458	0.628
3.37836	0.638
3.41214	0.662
3.44593	0.692
3.47971	0.713
3.5135	0.719
3.54728	0.728
3.58106	0.731
3.61485	0.74
3.64863	0.741
3.68242	0.743
3.7162	0.75
3.74998	0.753
3.78377	0.757
3.81755	0.762
3.85134	0.767
3.88512	0.772
3.9189	0.78
3.95269	0.784
3.98647	0.787
4.02026	0.789
4.05404	0.794
4.08782	0.796
4.12161	0.799
4.15539	0.803
4.18918	0.804
4.22296	0.806
4.25674	0.808
4.29053	0.809
4.32431	0.811
4.3581	0.814
4.39188	0.816
4.42566	0.818
4.45945	0.818
4.49323	0.818
4.52702	0.818
4.5608	0.818
4.59458	0.818
4.62837	0.816
4.66215	0.813
4.69594	0.808
4.72972	0.809
4.7635	0.811
4.79729	0.806
4.83107	0.804
4.86486	0.803
4.89864	0.803
4.93242	0.804
4.96621	0.806
4.99999	0.806
5.03378	0.808
5.06756	0.808
5.10134	0.809
5.13513	0.809
5.16891	0.809
5.2027	0.809
5.23648	0.813
5.27026	0.814
5.30405	0.816
5.33783	0.818
5.37162	0.82
5.4054	0.82
5.43918	0.821
5.47297	0.821
5.50675	0.821
5.54054	0.82
5.57432	0.818
5.6081	0.814
5.64189	0.811
5.67567	0.809
5.70946	0.804
5.74324	0.801
5.77702	0.796
5.81081	0.791
5.84459	0.787
5.87838	0.779
5.91216	0.772
5.94594	0.752
5.97973	0.724
6.01351	0.685
6.0473	0.634
6.08108	0.567
6.11486	0.516
6.14865	0.426
6.18243	0.334
6.21622	0.314
6.25	0.387
6.28378	0.475
6.31757	0.427
6.35135	0.453
6.38514	0.512
6.41892	0.602
6.4527	0.66
6.48649	0.684
6.52027	0.701
6.55406	0.704
6.58784	0.699
6.62162	0.684
6.65541	0.655
6.68919	0.616
6.72298	0.56
6.75676	0.466
6.79054	0.376
6.82433	0.266
6.85811	0.227
6.8919	0.256
6.92568	0.32
6.95946	0.39
6.99325	0.453
7.02703	0.502
7.06082	0.521
7.0946	0.516
7.12838	0.488
7.16217	0.524
7.19595	0.568
7.22974	0.595
7.26352	0.619
7.2973	0.629
7.33109	0.633
7.36487	0.619
7.39866	0.606
7.43244	0.565
7.46622	0.514
7.50001	0.463
7.53379	0.419
7.56758	0.4
7.60136	0.397
7.63514	0.368
7.66893	0.332
7.70271	0.312
7.73649	0.28
7.77028	0.247
7.80406	0.213
7.83785	0.196
7.87163	0.202
7.90541	0.22
7.9392	0.249
7.97298	0.263
8.00677	0.283
8.04055	0.29
8.07433	0.29
8.10812	0.285
8.1419	0.297
8.17569	0.319
8.20947	0.351
8.24325	0.37
8.27704	0.398
8.31082	0.419
8.34461	0.446
8.37839	0.47
8.41217	0.505
8.44596	0.531
8.47974	0.546
8.51353	0.558
8.54731	0.546
8.58109	0.505
8.61488	0.478
8.64866	0.487
8.68245	0.517
8.71623	0.568
8.75001	0.633
8.7838	0.662
8.81758	0.684
8.85137	0.689
8.88515	0.696
8.91893	0.718
8.95272	0.719
8.9865	0.721
9.02029	0.719
9.05407	0.697
9.08785	0.667
9.12164	0.64
9.15542	0.624
9.18921	0.655
9.22299	0.702
9.25677	0.724
9.29056	0.733
9.32434	0.741
9.35813	0.743
9.39191	0.747
9.42569	0.747
9.45948	0.748
9.49326	0.75
9.52705	0.748
9.56083	0.743
9.59461	0.723
9.6284	0.691
9.66218	0.68
9.69597	0.699
9.72975	0.721
9.76353	0.748
9.79732	0.757
9.8311	0.76
9.86489	0.765
9.89867	0.767
9.93245	0.769
9.96624	0.769
10	0.767
10.0338	0.767
10.0676	0.765
10.1014	0.764
10.1352	0.745
10.1689	0.699
10.2027	0.704
10.2365	0.731
10.2703	0.752
10.3041	0.765
10.3379	0.76
10.3716	0.767
10.4054	0.767
10.4392	0.767
10.473	0.767
10.5068	0.767
10.5406	0.765
10.5744	0.753
10.6081	0.714
10.6419	0.706
10.6757	0.736
10.7095	0.747
10.7433	0.769
10.7771	0.772
10.8108	0.767
10.8446	0.769
10.8784	0.77
10.9122	0.767
10.946	0.769
10.9798	0.774
11.0135	0.769
11.0473	0.769
11.0811	0.774
11.1149	0.767
11.1487	0.765
11.1825	0.769
11.2162	0.767
11.25	0.764
11.2838	0.769
11.3176	0.764
11.3514	0.757
11.3852	0.758
11.419	0.76
11.4527	0.748
11.4865	0.75
11.5203	0.745
11.5541	0.736
11.5879	0.726
11.6217	0.721
11.6554	0.702
11.6892	0.692
11.723	0.685
11.7568	0.682
11.7906	0.655
11.8244	0.631
11.8581	0.612
11.8919	0.628
11.9257	0.643
11.9595	0.65
11.9933	0.66
12.0271	0.667
12.0608	0.67
12.0946	0.675
12.1284	0.674
12.1622	0.665
12.196	0.662
12.2298	0.662
12.2636	0.653
12.2973	0.631
12.3311	0.602
12.3649	0.578
12.3987	0.57
12.4325	0.572
12.4663	0.594
12.5	0.609
12.5338	0.607
12.5676	0.602
12.6014	0.607
12.6352	0.597
12.669	0.589
12.7027	0.578
12.7365	0.575
12.7703	0.577
12.8041	0.568
12.8379	0.555
12.8717	0.561
12.9054	0.553
12.9392	0.543
12.973	0.528
13.0068	0.522
13.0406	0.524
13.0744	0.531
13.1082	0.58
13.1419	0.609
13.1757	0.619
13.2095	0.609
13.2433	0.601
13.2771	0.614
13.3109	0.65
13.3446	0.672
13.3784	0.665
13.4122	0.651
13.446	0.646
13.4798	0.646
13.5136	0.641
13.5473	0.621
13.5811	0.606
13.6149	0.585
13.6487	0.575
13.6825	0.572
13.7163	0.575
13.75	0.582
13.7838	0.594
13.8176	0.609
13.8514	0.606
13.8852	0.599
13.919	0.595
13.9527	0.597
13.9865	0.606
14.0203	0.607
14.0541	0.602
14.0879	0.602
14.1217	0.614
14.1555	0.624
14.1892	0.624
14.223	0.621
14.2568	0.612
14.2906	0.606
14.3244	0.597
14.3582	0.577
14.3919	0.561
14.4257	0.56
14.4595	0.567
14.4933	0.585
14.5271	0.59
14.5609	0.592
14.5946	0.597
14.6284	0.601
14.6622	0.616
14.696	0.624
14.7298	0.621
14.7636	0.619
14.7973	0.621
14.8311	0.628
14.8649	0.634
14.8987	0.641
14.9325	0.634
14.9663	0.626
15.0001	0.636
15.0338	0.64
15.0676	0.645
15.1014	0.643
15.1352	0.638
15.169	0.633
15.2028	0.634
15.2365	0.641
15.2703	0.641
15.3041	0.636
15.3379	0.629
15.3717	0.631
15.4055	0.638
15.4392	0.634
15.473	0.626
