Infrared Spectrum: 1-AMINO-2-METHOXY-4-p-TOLYLSULFONAMIDO-ANTHRAQUINONE
Formula: C22 H18 N2 O5 S
CAS: 81-68-5
State: SOLID (KBr PELLET)
Class: COBLENTZ
Instrument: Not specified, most likely a prism, grating, or hybrid spectrometer.
Sampling: TRANSMISSION
Resolution: 4
Origin: CORN PRODUCTS COMPANY
MICROMETERS	TRANSMITTANCE
2.02	0.712
2.05385	0.712
2.08769	0.712
2.12154	0.714
2.15539	0.719
2.18923	0.727
2.22308	0.729
2.25693	0.736
2.29077	0.739
2.32462	0.739
2.35847	0.743
2.39231	0.743
2.42616	0.744
2.46001	0.748
2.49385	0.75
2.5277	0.753
2.56155	0.755
2.59539	0.756
2.62924	0.756
2.66309	0.758
2.69693	0.76
2.73078	0.761
2.76463	0.743
2.79847	0.683
2.83232	0.568
2.86617	0.496
2.90001	0.408
2.93386	0.357
2.96771	0.369
3.00155	0.423
3.0354	0.484
3.06925	0.511
3.10309	0.574
3.13694	0.617
3.17079	0.653
3.20463	0.675
3.23848	0.692
3.27233	0.697
3.30618	0.698
3.34002	0.7
3.37387	0.704
3.40772	0.705
3.44156	0.704
3.47541	0.707
3.50926	0.712
3.5431	0.722
3.57695	0.734
3.6108	0.748
3.64464	0.753
3.67849	0.761
3.71234	0.765
3.74618	0.768
3.78003	0.77
3.81388	0.77
3.84772	0.77
3.88157	0.773
3.91542	0.773
3.94926	0.777
3.98311	0.782
4.01696	0.782
4.0508	0.782
4.08465	0.785
4.1185	0.789
4.15234	0.789
4.18619	0.789
4.22004	0.79
4.25388	0.792
4.28773	0.79
4.32158	0.789
4.35542	0.787
4.38927	0.789
4.42312	0.79
4.45696	0.794
4.49081	0.797
4.52466	0.797
4.5585	0.797
4.59235	0.797
4.6262	0.797
4.66004	0.794
4.69389	0.79
4.72774	0.792
4.76158	0.792
4.79543	0.792
4.82928	0.79
4.86312	0.79
4.89697	0.79
4.93082	0.789
4.96466	0.787
4.99851	0.787
5.03236	0.789
5.0662	0.789
5.10005	0.789
5.1339	0.789
5.16774	0.787
5.20159	0.787
5.23544	0.79
5.26928	0.792
5.30313	0.792
5.33698	0.794
5.37082	0.795
5.40467	0.795
5.43852	0.797
5.47236	0.799
5.50621	0.799
5.54006	0.799
5.5739	0.797
5.60775	0.795
5.6416	0.792
5.67545	0.789
5.70929	0.787
5.74314	0.784
5.77699	0.778
5.81083	0.773
5.84468	0.772
5.87853	0.751
5.91237	0.734
5.94622	0.722
5.98007	0.698
6.01391	0.649
6.04776	0.613
6.08161	0.5
6.11545	0.399
6.1493	0.331
6.18315	0.335
6.21699	0.438
6.25084	0.414
6.28469	0.287
6.31853	0.372
6.35238	0.391
6.38623	0.396
6.42007	0.421
6.45392	0.335
6.48777	0.282
6.52161	0.251
6.55546	0.255
6.58931	0.37
6.62315	0.486
6.657	0.574
6.69085	0.588
6.72469	0.586
6.75854	0.544
6.79239	0.508
6.82623	0.372
6.86008	0.343
6.89393	0.301
6.92777	0.314
6.96162	0.375
6.99547	0.408
7.02931	0.454
7.06316	0.491
7.09701	0.494
7.13085	0.489
7.1647	0.413
7.19855	0.316
7.23239	0.263
7.26624	0.273
7.30009	0.348
7.33393	0.392
7.36778	0.397
7.40163	0.363
7.43547	0.301
7.46932	0.372
7.50317	0.477
7.53701	0.537
7.57086	0.562
7.60471	0.571
7.63855	0.573
7.6724	0.554
7.70625	0.489
7.74009	0.374
7.77394	0.261
7.80779	0.183
7.84163	0.158
7.87548	0.144
7.90933	0.142
7.94317	0.137
7.97702	0.151
8.01087	0.202
8.04472	0.248
8.07856	0.258
8.11241	0.261
8.14626	0.265
8.1801	0.287
8.21395	0.289
8.2478	0.278
8.28164	0.304
8.31549	0.404
8.34934	0.464
8.38318	0.539
8.41703	0.557
8.45088	0.552
8.48472	0.559
8.51857	0.583
8.55242	0.559
8.58626	0.413
8.62011	0.304
8.65396	0.29
8.6878	0.355
8.72165	0.428
8.7555	0.476
8.78934	0.479
8.82319	0.454
8.85704	0.433
8.89088	0.399
8.92473	0.36
8.95858	0.363
8.99242	0.42
9.02627	0.494
9.06012	0.542
9.09396	0.552
9.12781	0.53
9.16166	0.399
9.1955	0.301
9.22935	0.258
9.2632	0.236
9.29704	0.258
9.33089	0.35
9.36474	0.45
9.39858	0.517
9.43243	0.556
9.46628	0.588
9.50012	0.605
9.53397	0.62
9.56782	0.629
9.60166	0.634
9.63551	0.634
9.66936	0.63
9.7032	0.63
9.73705	0.634
9.7709	0.634
9.80474	0.629
9.83859	0.63
9.87244	0.637
9.90628	0.636
9.94013	0.627
9.97398	0.625
10.0078	0.627
10.0417	0.63
10.0755	0.63
10.1094	0.634
10.1432	0.637
10.1771	0.632
10.2109	0.608
10.2448	0.583
10.2786	0.544
10.3124	0.517
10.3463	0.494
10.3801	0.482
10.414	0.481
10.4478	0.481
10.4817	0.5
10.5155	0.54
10.5494	0.586
10.5832	0.61
10.6171	0.639
10.6509	0.656
10.6848	0.67
10.7186	0.676
10.7525	0.678
10.7863	0.678
10.8201	0.678
10.854	0.675
10.8878	0.668
10.9217	0.659
10.9555	0.651
10.9894	0.641
11.0232	0.637
11.0571	0.639
11.0909	0.642
11.1248	0.656
11.1586	0.678
11.1925	0.683
11.2263	0.688
11.2602	0.687
11.294	0.676
11.3278	0.663
11.3617	0.636
11.3955	0.619
11.4294	0.595
11.4632	0.568
11.4971	0.549
11.5309	0.517
11.5648	0.494
11.5986	0.476
11.6325	0.464
11.6663	0.457
11.7002	0.46
11.734	0.474
11.7679	0.498
11.8017	0.511
11.8355	0.523
11.8694	0.544
11.9032	0.554
11.9371	0.562
11.9709	0.585
12.0048	0.598
12.0386	0.615
12.0725	0.632
12.1063	0.634
12.1402	0.63
12.174	0.605
12.2079	0.578
12.2417	0.544
12.2756	0.523
12.3094	0.517
12.3432	0.525
12.3771	0.551
12.4109	0.579
12.4448	0.595
12.4786	0.603
12.5125	0.605
12.5463	0.619
12.5802	0.63
12.614	0.647
12.6479	0.666
12.6817	0.676
12.7156	0.681
12.7494	0.688
12.7833	0.69
12.8171	0.688
12.8509	0.688
12.8848	0.685
12.9186	0.68
12.9525	0.681
12.9863	0.678
13.0202	0.671
13.054	0.67
13.0879	0.67
13.1217	0.663
13.1556	0.658
13.1894	0.653
13.2233	0.636
13.2571	0.607
13.291	0.586
13.3248	0.551
13.3586	0.537
13.3925	0.547
13.4263	0.585
13.4602	0.598
13.494	0.602
13.5279	0.602
13.5617	0.588
13.5956	0.556
13.6294	0.525
13.6633	0.508
13.6971	0.484
13.731	0.464
13.7648	0.46
13.7987	0.465
13.8325	0.462
13.8663	0.457
13.9002	0.496
13.934	0.554
13.9679	0.579
14.0017	0.6
14.0356	0.613
14.0694	0.62
14.1033	0.619
14.1371	0.617
14.171	0.615
14.2048	0.608
14.2387	0.591
14.2725	0.585
14.3064	0.593
14.3402	0.6
14.3741	0.605
14.4079	0.605
14.4417	0.605
14.4756	0.6
14.5094	0.591
14.5433	0.588
14.5771	0.591
14.611	0.595
14.6448	0.598
14.6787	0.607
14.7125	0.617
14.7464	0.622
14.7802	0.622
14.8141	0.62
14.8479	0.619
14.8818	0.612
14.9156	0.598
14.9494	0.578
14.9833	0.556
15.0171	0.527
15.051	0.498
15.0848	0.482
15.1187	0.471
15.1525	0.46
15.1864	0.44
15.2202	0.414
15.2541	0.404
15.2879	0.411
15.3218	0.44
15.3556	0.479
15.3895	0.515
15.4233	0.545
15.4571	0.574
15.491	0.586
