Infrared Spectrum: Warfarin
Formula: C 19 H 16 O 4
CAS: 81-81-2
State: gas
Instrument: HP-GC/MS/IRD
Origin: NIST Mass Spectrometry Data Center
1/CM	ABSORBANCE
550	0.0006438
562	0.0001776
574	0.000185
586	0.000333
598	0.0005809
610	0.0002553
622	0.0002109
634	3.7e-05
646	0.0001184
658	0.0003589
670	0.0004033
682	0.0007696
694	0.0033559
706	0.0013542
718	0.0010175
730	0.0010582
742	0.0024457
754	0.0079439
766	0.0019351
778	0.0006142
790	0.0003626
802	0.0002738
814	0.0001258
826	0.0002516
838	0.0013801
850	0.0023051
862	0.0011877
874	0.0004403
886	0.0005291
898	0.0017279
910	0.0008843
922	0.0003404
934	0.0004329
946	0.0007659
958	0.0013616
970	0.0051726
982	0.005476
994	0.0011285
1006	0.0016724
1018	0.0067007
1030	0.0054168
1042	0.0013098
1054	0.0005254
1066	0.0007252
1078	0.0011174
1090	0.0009842
1102	0.0026048
1114	0.0007992
1126	0.0006882
1138	0.0022866
1150	0.0035113
1162	0.0040404
1174	0.008473
1186	0.0068783
1198	0.0092796
1210	0.005254
1222	0.0034521
1234	0.001332
1246	0.0011877
1258	0.0013135
1270	0.0030895
1282	0.0027787
1294	0.0046176
1306	0.0036186
1318	0.0042883
1330	0.0019425
1342	0.0012432
1354	0.0013357
1366	0.0034669
1378	0.0102453
1390	0.0056943
1402	0.0019092
1414	0.0008954
1426	0.0008362
1438	0.001073
1450	0.0026418
1462	0.0021719
1474	0.0007659
1486	0.0025456
1498	0.0025012
1510	0.0008177
1522	0.0003145
1534	0.0002405
1546	0.0001998
1558	0.0002553
1570	0.0005143
1582	0.000962
1594	0.0016983
1606	0.0035039
1618	0.0029711
1630	0.0061531
1642	0.0067932
1654	0.0018278
1666	0.001073
1678	0.0012802
1690	0.0023569
1702	0.0040256
1714	0.0028416
1726	0.0027676
1738	0.0058053
1750	0.0277426
1762	0.0241795
1774	0.0052318
1786	0.0022977
1798	0.0013838
1810	0.0008177
1822	0.0005661
1834	0.0004551
1846	0.0003626
1858	0.0004144
1870	0.0003737
1882	0.0003552
1894	0.0002479
1906	0.0002923
1918	0.0003515
1930	0.0003626
1942	0.0005587
1954	0.0004958
1966	0.0001961
1978	0.000111
1990	0.0001221
2002	0.0001295
2014	6.66e-05
2026	2.96e-05
2038	5.18e-05
2050	5.18e-05
2062	2.59e-05
2074	3.7e-06
2086	5.55e-05
2098	4.81e-05
2110	6.29e-05
2122	1.85e-05
2134	3.33e-05
2146	5.18e-05
2158	6.29e-05
2170	6.29e-05
2182	3.7e-05
2194	5.18e-05
2206	2.96e-05
2218	2.22e-05
2230	8.51e-05
2242	9.62e-05
2254	4.44e-05
2266	4.07e-05
2278	4.44e-05
2290	7.4e-05
2302	6.29e-05
2314	4.81e-05
2326	5.55e-05
2338	8.88e-05
2350	8.14e-05
2362	6.66e-05
2374	2.96e-05
2386	1.85e-05
2398	5.18e-05
2410	6.29e-05
2422	4.44e-05
2434	4.44e-05
2446	7.4e-05
2458	0.0001295
2470	0.0001517
2482	0.0001443
2494	6.29e-05
2506	4.44e-05
2518	5.55e-05
2530	7.03e-05
2542	4.44e-05
2554	5.92e-05
2566	1.11e-05
2578	7.03e-05
2590	7.4e-05
2602	5.92e-05
2614	2.96e-05
2626	4.07e-05
2638	1.48e-05
2650	3.7e-05
2662	4.44e-05
2674	1.85e-05
2686	0
2698	2.59e-05
2710	7.4e-06
2722	1.11e-05
2734	2.22e-05
2746	5.55e-05
2758	7.03e-05
2770	7.4e-05
2782	4.44e-05
2794	1.11e-05
2806	8.88e-05
2818	9.25e-05
2830	0.000148
2842	0.000111
2854	0.0001961
2866	0.0003589
2878	0.0003626
2890	0.0004736
2902	0.0007474
2914	0.0004773
2926	0.0006475
2938	0.0013098
2950	0.0004107
2962	0.0007511
2974	0.000555
2986	0.0003293
2998	0.0008177
3010	0.0007955
3022	0.000962
3034	0.0018056
3046	0.0013912
3058	0.0017168
3070	0.0033485
3082	0.0024938
3094	0.0016206
3106	0.0006068
3118	0.0003367
3130	0.0001887
3142	0.0001443
3154	0.0001332
3166	0.000148
3178	7.03e-05
3190	7.03e-05
3202	5.55e-05
3214	6.66e-05
3226	9.62e-05
3238	9.99e-05
3250	5.55e-05
3262	0.0001221
3274	5.92e-05
3286	7.4e-06
3298	5.18e-05
3310	6.29e-05
3322	2.96e-05
3334	2.59e-05
3346	8.51e-05
3358	7.4e-05
3370	5.92e-05
3382	0.0001147
3394	0.0001147
3406	0.0001073
3418	0.0001591
3430	8.14e-05
3442	0.0001554
3454	0.0001628
3466	0.0002849
3478	0.0003256
3490	0.000555
3502	0.0004181
3514	0.0002812
3526	0.0002701
3538	0.0001702
3550	0.0001628
3562	0.0001258
3574	0.0001998
3586	0.000148
3598	0.0002035
3610	0.0001369
3622	0.0001813
3634	0.0001628
3646	0.0002035
3658	0.000111
3670	7.4e-05
3682	0.0001443
3694	0.0001406
3706	0.0002257
3718	0.0002035
3730	0.0001739
3742	0.0001702
3754	0.0002442
3766	0.0001813
3778	0.0001554
3790	0.0002146
3802	0.0001887
3814	0.0001665
3826	0.0001628
3838	0.000185
