Infrared Spectrum: 1,8-Naphthalic anhydride
Formula: C 12 H 6 O 3
CAS: 81-84-5
State: gas
Origin: EPA-IR VAPOR PHASE LIBRARY
1/CM	ABSORBANCE
549.8	0.0009039
559.445	0.0003271
569.09	0.0004776
578.734	0.0003875
588.379	0.0005327
598.024	0.0005212
607.669	0.000403
617.313	0.00029185
626.958	0.000289
636.603	0.00020488
646.248	0.0004067
655.893	0.0004153
665.537	0.0011035
675.182	0.001957
684.827	0.0009052
694.472	0.0005734
704.116	0.0003309
713.761	0.0007144
723.406	0.001547
733.051	0.0009027
742.695	0.0005336
752.34	0.0006819
761.985	0.003397
771.63	0.012227
781.275	0.012627
790.919	0.004747
800.564	0.001667
810.209	0.0009201
819.854	0.0009783
829.498	0.001697
839.143	0.003797
848.788	0.002777
858.433	0.0008267
868.078	0.0004664
877.722	0.0003762
887.367	0.0004907
897.012	0.0006765
906.657	0.0006769
916.301	0.0007272
925.946	0.0008504
935.591	0.0010677
945.236	0.0011919
954.88	0.001587
964.525	0.001967
974.17	0.002517
983.815	0.003607
993.46	0.008157
1003.1	0.018187
1012.75	0.036137
1022.39	0.042727
1032.04	0.017827
1041.68	0.002837
1051.33	0.001647
1060.97	0.003217
1070.62	0.004187
1080.26	0.001627
1089.91	0.001307
1099.55	0.002007
1109.2	0.003767
1118.84	0.010667
1128.49	0.017907
1138.13	0.009757
1147.78	0.003577
1157.42	0.010387
1167.07	0.010187
1176.71	0.004297
1186.36	0.006607
1196	0.003267
1205.64	0.002847
1215.29	0.005587
1224.93	0.006757
1234.58	0.004327
1244.22	0.001967
1253.87	0.001347
1263.51	0.0012028
1273.16	0.001637
1282.8	0.004687
1292.45	0.016417
1302.09	0.023717
1311.74	0.010477
1321.38	0.003657
1331.03	0.002027
1340.67	0.001367
1350.32	0.001267
1359.96	0.001257
1369.61	0.001437
1379.25	0.001517
1388.9	0.0011462
1398.54	0.001447
1408.18	0.002007
1417.83	0.001597
1427.47	0.002197
1437.12	0.002557
1446.76	0.002497
1456.41	0.002207
1466.05	0.001557
1475.7	0.0007533
1485.34	0.0006343
1494.99	0.0007689
1504.63	0.001557
1514.28	0.002227
1523.92	0.0010828
1533.57	0.0005155
1543.21	0.0005833
1552.86	0.0009493
1562.5	0.001927
1572.15	0.003307
1581.79	0.005667
1591.44	0.007077
1601.08	0.005417
1610.73	0.002197
1620.37	0.0007911
1630.01	0.000754
1639.66	0.0007085
1649.3	0.0009232
1658.95	0.001387
1668.59	0.001337
1678.24	0.001457
1687.88	0.001777
1697.53	0.002197
1707.17	0.002357
1716.82	0.001937
1726.46	0.002867
1736.11	0.004857
1745.75	0.008247
1755.4	0.036307
1765.04	0.060027
1774.69	0.026777
1784.33	0.024877
1793.98	0.047407
1803.62	0.041437
1813.27	0.017927
1822.91	0.005027
1832.55	0.003027
1842.2	0.002457
1851.84	0.002287
1861.49	0.002307
1871.13	0.001427
1880.78	0.000919
1890.42	0.000861
1900.07	0.0009376
1909.71	0.001072
1919.36	0.0010512
1929	0.0008527
1938.65	0.0008616
1948.29	0.001257
1957.94	0.001387
1967.58	0.0010333
1977.23	0.0006713
1986.87	0.0004707
1996.52	0.0003941
2006.16	0.0004388
2015.81	0.0003573
2025.45	0.0004089
2035.1	0.0003879
2044.74	0.0003549
2054.38	0.0004312
2064.03	0.0004197
2073.67	0.0003707
2083.32	0.0004738
2092.96	0.000501
2102.61	0.0003703
2112.25	0.0004168
2121.9	0.0005518
2131.54	0.0006501
2141.19	0.0008118
2150.83	0.000784
2160.48	0.0004893
2170.12	0.0003878
2179.77	0.0004382
2189.41	0.0004991
2199.06	0.0004706
2208.7	0.0004231
2218.35	0.000326
2227.99	0.0003973
2237.64	0.0004207
2247.28	0.0004695
2256.92	0.00049
2266.57	0.0004269
2276.21	0.0004414
2285.86	0.0004118
2295.5	0.000462
2305.15	0.0004132
2314.79	0.0004981
2324.44	0.0004257
2334.08	0.0004569
2343.73	0.0004686
2353.37	0.0004918
2363.02	0.0004314
2372.66	0.0004322
2382.31	0.0004369
2391.95	0.0003626
2401.6	0.0003491
2411.24	0.0003315
2420.89	0.0004315
2430.53	0.0003579
2440.18	0.0004221
2449.82	0.0003786
2459.47	0.0003962
2469.11	0.0003473
2478.75	0.0003684
2488.4	0.0003452
2498.04	0.0003611
2507.69	0.0002947
2517.33	0.0004147
2526.98	0.0003426
2536.62	0.0003071
2546.27	0.0003391
2555.91	0.0003822
2565.56	0.0003563
2575.2	0.00030375
2584.85	0.00023043
2594.49	0.0004325
2604.14	0.0003249
2613.78	0.0003839
2623.43	0.0003402
2633.07	0.0004292
2642.72	0.00023743
2652.36	0.0003558
2662.01	0.00028348
2671.65	0.0003088
2681.29	0.00029629
2690.94	0.00029088
2700.58	0.000372
2710.23	0.0002832
2719.87	0.00025304
2729.52	0.000209519
2739.16	0.00026701
2748.81	0.00027956
2758.45	0.00030215
2768.1	0.00029415
2777.74	0.00030217
2787.39	0.00020546
2797.03	0.00025834
2806.68	0.00027341
2816.32	0.00023607
2825.97	0.00019811
2835.61	0.000384
2845.26	0.00030087
2854.9	0.00026907
2864.55	0.000212057
2874.19	0.0002695
2883.84	0.00027921
2893.48	0.0003581
2903.12	0.00027192
2912.77	0.0001871
2922.41	0.00027829
2932.06	0.0001815
2941.7	0.00030467
2951.35	0.00024274
2960.99	0.0003242
2970.64	0.0003278
2980.28	0.0004854
2989.93	0.0004047
2999.57	0.0003989
3009.22	0.0005096
3018.86	0.0004878
3028.51	0.0004484
3038.15	0.0004445
3047.8	0.0008816
3057.44	0.001867
3067.09	0.003237
3076.73	0.002937
3086.38	0.001427
3096.02	0.0007725
3105.67	0.0006323
3115.31	0.0004762
3124.95	0.00025121
3134.6	0.0001729
3144.24	0.00026121
3153.89	0.00024513
3163.53	0.00029054
3173.18	0.00028388
3182.82	0.0003091
3192.47	0.0002706
3202.11	0.0001823
3211.76	0.0001783
3221.4	0.0003801
3231.05	0.0001086
3240.69	0.0001861
3250.34	0.0001591
3259.98	0.00023613
3269.63	0.0001377
3279.27	0.0001819
3288.92	0.000215527
3298.56	0.00024015
3308.21	1.1e-05
3317.85	0.00028803
3327.49	0.00026758
3337.14	0.00027497
3346.78	0.00022
3356.43	0.00022418
3366.07	1.6e-05
3375.72	0.0001438
3385.36	0.0003425
3395.01	0.0001549
3404.65	0.00029882
3414.3	0.00020523
3423.94	0.0004046
3433.59	0.00025692
3443.23	0.0001778
3452.88	0.0003288
3462.52	0.0003582
3472.17	0.0004136
3481.81	0.00027919
3491.46	0.0001673
3501.1	0.0005263
3510.75	0.0008064
3520.39	0.0010399
3530.04	0.0009352
3539.68	0.001217
3549.32	0.0010825
3558.97	0.0007048
3568.61	0.0004784
3578.26	0.0005867
3587.9	0.0006114
3597.55	0.0006046
3607.19	0.0005058
3616.84	0.0003694
3626.48	0.0004053
3636.13	0.00025774
3645.77	0.000156
3655.42	0.000352
3665.06	0.0002407
3674.71	0.0003085
3684.35	0.0001674
3694	7e-05
3703.64	0.00022248
3713.29	0.0002545
3722.93	0.0003364
3732.58	0.0001857
3742.22	0.0003882
3751.86	0.00029584
3761.51	0.00026309
3771.15	0.0001423
3780.8	0.00026298
3790.44	0.000421
3800.09	0.0003262
3809.73	0.00029273
3819.38	0.0001856
3829.02	0.00029772
3838.67	0.00030309
3848.31	0.00030607
3857.96	0.0005168
3867.6	0.0004466
3877.25	0.0003463
3886.89	0.0004729
3896.54	0.0004053
3906.18	0.00025184
3915.83	0.0001766
3925.47	0.0002417
3935.12	0.00026926
3944.76	0.00026993
3954.41	0.00029781
3964.05	0.0004511
3973.69	0.00029412
3983.34	0.0004079
3992.98	0.0003645
