Infrared Spectrum: Benzyl alcohol, o-[bis(p-hydroxy phenyl)methyl]-
Formula: C20 H18 O3
CAS: 81-92-5
State: SOLID (SPLIT MULL), FLUOROLUBE FOR 3800-1340 CM^-^1, NUJOL FOR 1340-400 CM^-^1
Melting point: 201 C
Class: COBLENTZ III
Instrument: DOW KBr FOREPRISM-GRATING
Instrument parameters: BLAZED AT 3.5, 12.0, 20.0 MICRON AND CHANGED AT 5.0, 7.5, 14.9 MICRON
Sampling: TRANSMISSION
Resolution: 2
Origin: DOW CHEMICAL COMPANY
1/CM	TRANSMITTANCE
382	0.7948
391	0.7981
400	0.8025
409	0.8082
418	0.8111
427	0.8071
436	0.7957
445	0.7925
454	0.8273
463	0.8336
472	0.8595
481	0.8716
490	0.8613
499	0.8495
508	0.8078
517	0.7853
526	0.8583
535	0.8605
544	0.8587
553	0.8387
562	0.7207
571	0.7524
580	0.5338
589	0.8615
598	0.8624
607	0.8675
616	0.8624
625	0.7374
634	0.8341
643	0.8118
652	0.8431
661	0.8311
670	0.8101
679	0.8094
688	0.8132
697	0.8048
706	0.7804
715	0.7315
724	0.5648
733	0.6911
742	0.6268
751	0.4527
760	0.6172
769	0.6994
778	0.7511
787	0.7588
796	0.5929
805	0.6736
814	0.6283
823	0.5342
832	0.5362
841	0.6875
850	0.5354
859	0.8171
868	0.7992
877	0.7861
886	0.7976
895	0.794
904	0.7984
913	0.8062
922	0.813
931	0.8147
940	0.8237
949	0.8233
958	0.8316
967	0.8359
976	0.8296
985	0.7844
994	0.8094
1003	0.7999
1012	0.6811
1021	0.6191
1030	0.2224
1039	0.7214
1048	0.7561
1057	0.8096
1066	0.8117
1075	0.8174
1084	0.7969
1093	0.6386
1102	0.7308
1111	0.8103
1120	0.8167
1129	0.7956
1138	0.7862
1147	0.7895
1156	0.7521
1165	0.6758
1174	0.3013
1183	0.7298
1192	0.7437
1201	0.6986
1210	0.6127
1219	0.4902
1228	0.4374
1237	0.236
1246	0.1781
1255	0.1541
1264	0.5093
1273	0.6944
1282	0.7105
1291	0.7317
1300	0.7444
1309	0.7297
1318	0.7381
1327	0.7183
1336	0.5856
1345	0.5457
1354	0.5536
1363	0.5431
1372	0.5436
1381	0.7184
1390	0.7384
1399	0.7262
1408	0.6754
1417	0.635
1426	0.6582
1435	0.603
1444	0.3686
1453	0.2948
1462	0.5089
1471	0.6369
1480	0.6288
1489	0.6175
1498	0.5898
1507	0.2709
1516	0.1766
1525	0.8208
1534	0.8841
1543	0.8764
1552	0.8756
1561	0.8677
1570	0.844
1579	0.8345
1588	0.7798
1597	0.5302
1606	0.7067
1615	0.5035
1624	0.8917
1633	0.8997
1642	0.8907
1651	0.8818
1660	0.8747
1669	0.8647
1678	0.8405
1687	0.8457
1696	0.8282
1705	0.8556
1714	0.8632
1723	0.8657
1732	0.8715
1741	0.877
1750	0.874
1759	0.869
1768	0.8708
1777	0.8697
1786	0.8659
1795	0.8633
1804	0.8602
1813	0.8587
1822	0.8621
1831	0.8684
1840	0.8654
1849	0.8595
1858	0.8578
1867	0.8554
1876	0.8466
1885	0.8012
1894	0.8209
1903	0.8618
1912	0.8637
1921	0.8595
1930	0.8555
1939	0.8664
1948	0.8635
1957	0.8531
1966	0.85
1975	0.8544
1984	0.8542
1993	0.8542
2002	0.7815
2011	0.7784
2020	0.7751
2029	0.7722
2038	0.7694
2047	0.7674
2056	0.7651
2065	0.7644
2074	0.7644
2083	0.7646
2092	0.7646
2101	0.7621
2110	0.7606
2119	0.759
2128	0.7574
2137	0.7558
2146	0.7535
2155	0.7506
2164	0.7478
2173	0.7449
2182	0.7408
2191	0.7365
2200	0.7322
2209	0.7278
2218	0.7231
2227	0.7184
2236	0.7138
2245	0.7095
2254	0.7064
2263	0.7032
2272	0.7011
2281	0.6991
2290	0.6972
2299	0.6957
2308	0.6941
2317	0.6918
2326	0.6892
2335	0.6862
2344	0.6834
2353	0.6797
2362	0.6758
2371	0.6715
2380	0.6668
2389	0.6621
2398	0.6574
2407	0.6526
2416	0.6468
2425	0.6384
2434	0.6305
2443	0.622
2452	0.6134
2461	0.6086
2470	0.6058
2479	0.6043
2488	0.6036
2497	0.6043
2506	0.6044
2515	0.6035
2524	0.6036
2533	0.5932
2542	0.5809
2551	0.5662
2560	0.5486
2569	0.5341
2578	0.524
2587	0.5227
2596	0.5229
2605	0.5239
2614	0.5256
2623	0.5272
2632	0.5278
2641	0.524
2650	0.5074
2659	0.4853
2668	0.4825
2677	0.4887
2686	0.494
2695	0.4995
2704	0.5054
2713	0.5105
2722	0.5125
2731	0.5134
2740	0.5121
2749	0.505
2758	0.4915
2767	0.4687
2776	0.4444
2785	0.4384
2794	0.4415
2803	0.4512
2812	0.4662
2821	0.466
2830	0.4592
2839	0.445
2848	0.4267
2857	0.408
2866	0.3894
2875	0.3844
2884	0.4126
2893	0.4082
2902	0.4012
2911	0.3918
2920	0.3739
2929	0.3608
2938	0.3539
2947	0.3588
2956	0.364
2965	0.3618
2974	0.3564
2983	0.3475
2992	0.3375
3001	0.328
3010	0.3223
3019	0.3234
3028	0.325
3037	0.3275
3046	0.3366
3055	0.3394
3064	0.342
3073	0.3428
3082	0.3405
3091	0.3349
3100	0.328
3109	0.3212
3118	0.3153
3127	0.3096
3136	0.3058
3145	0.305
3154	0.307
3163	0.3133
3172	0.3249
3181	0.3395
3190	0.3559
3199	0.3718
3208	0.3855
3217	0.3954
3226	0.4041
3235	0.4112
3244	0.4162
3253	0.4184
3262	0.4183
3271	0.4148
3280	0.4073
3289	0.3976
3298	0.386
3307	0.3714
3316	0.3534
3325	0.3332
3334	0.3049
3343	0.2775
3352	0.2755
3361	0.2824
3370	0.3107
3379	0.3414
3388	0.3723
3397	0.4098
3406	0.443
3415	0.4728
3424	0.5091
3433	0.542
3442	0.5744
3451	0.6032
3460	0.6205
3469	0.6338
3478	0.6436
3487	0.651
3496	0.6558
3505	0.6582
3514	0.6601
3523	0.6612
3532	0.6624
3541	0.6634
3550	0.6635
3559	0.6631
3568	0.6626
3577	0.6622
3586	0.6618
3595	0.6608
3604	0.6597
3613	0.6585
3622	0.6562
3631	0.6537
3640	0.6511
3649	0.6478
3658	0.6446
3667	0.6419
3676	0.6398
3685	0.6378
3694	0.6366
3703	0.6352
3712	0.6337
3721	0.6317
3730	0.6298
3739	0.6276
3748	0.6256
3757	0.6233
3766	0.6205
3775	0.6177
3784	0.6149
3793	0.6121
3802	0.6092
