Infrared Spectrum: 3-Bromobenzanthrone
Formula: C 17 H 9 Br O
CAS: 81-96-9
State: gas
Instrument: HP-GC/MS/IRD
Origin: NIST Mass Spectrometry Data Center
1/CM	ABSORBANCE
550	0.000414
562	0.0003956
574	0.0001909
586	0.0002254
598	0.0003887
610	0.0003013
622	0.0004738
634	9.2e-05
646	0.0002438
658	0.0008832
670	0.001242
682	0.0016675
694	0.0029555
706	0.0009131
718	0.0001955
730	0.0003197
742	0.0015364
754	0.0010603
766	0.0036685
778	0.0107847
790	0.0040227
802	0.0006831
814	0.0005106
826	0.0009959
838	0.0020263
850	0.0004462
862	0.0001426
874	0.0002139
886	0.0005037
898	0.0005566
910	0.0001403
922	0.0001771
934	0.00092
946	0.0014996
958	0.0002484
970	3.91e-05
982	0.0001081
994	0.0002024
1006	0.000437
1018	0.0010695
1030	0.0050945
1042	0.0065182
1054	0.0011707
1066	0.0014007
1078	0.0027071
1090	0.0014996
1102	0.0007843
1114	0.0007567
1126	0.000529
1138	0.0003795
1150	0.0004692
1162	0.0005865
1174	0.0008556
1186	0.0013478
1198	0.0015456
1210	0.0020263
1222	0.0012627
1234	0.0013202
1246	0.0017158
1258	0.0023943
1270	0.0052624
1282	0.0040618
1294	0.0066401
1306	0.0053636
1318	0.0093311
1330	0.0029808
1342	0.0016146
1354	0.0010258
1366	0.0015433
1378	0.0050531
1390	0.0032798
1402	0.0010235
1414	0.0005405
1426	0.0003542
1438	0.0006118
1450	0.0025093
1462	0.0027784
1474	0.0010005
1486	0.0010051
1498	0.0012926
1510	0.0007843
1522	0.0003404
1534	0.0004439
1546	0.0011776
1558	0.0038663
1570	0.0069161
1582	0.0037398
1594	0.0039123
1606	0.0040871
1618	0.0024518
1630	0.0012512
1642	0.0014766
1654	0.0028566
1666	0.0093679
1678	0.0212681
1690	0.0028704
1702	0.0010465
1714	0.0009223
1726	0.0008487
1738	0.0005175
1750	0.0004324
1762	0.0003565
1774	0.0002553
1786	0.0001932
1798	0.0002001
1810	0.000184
1822	0.0002553
1834	0.0002829
1846	0.0002668
1858	0.0006463
1870	0.0004738
1882	0.0002185
1894	0.0001472
1906	0.0002507
1918	0.0003404
1930	0.0002231
1942	0.0003082
1954	0.0003312
1966	0.000437
1978	0.0001426
1990	0.0001012
2002	6.44e-05
2014	5.06e-05
2026	5.75e-05
2038	9.66e-05
2050	7.59e-05
2062	5.52e-05
2074	5.29e-05
2086	4.6e-05
2098	5.98e-05
2110	6.9e-05
2122	6.44e-05
2134	6.9e-05
2146	4.83e-05
2158	4.6e-05
2170	6.44e-05
2182	6.9e-05
2194	4.6e-05
2206	5.29e-05
2218	3.91e-05
2230	5.75e-05
2242	4.83e-05
2254	7.82e-05
2266	8.74e-05
2278	7.36e-05
2290	6.9e-05
2302	6.44e-05
2314	9.2e-05
2326	6.67e-05
2338	8.28e-05
2350	9.89e-05
2362	0.0001081
2374	8.97e-05
2386	7.59e-05
2398	7.59e-05
2410	8.97e-05
2422	6.67e-05
2434	3.91e-05
2446	4.83e-05
2458	6.44e-05
2470	5.98e-05
2482	9.2e-05
2494	8.74e-05
2506	4.83e-05
2518	6.21e-05
2530	8.97e-05
2542	0.000115
2554	5.98e-05
2566	7.36e-05
2578	7.36e-05
2590	0.0001058
2602	8.51e-05
2614	0.0001058
2626	9.43e-05
2638	4.6e-05
2650	5.06e-05
2662	3.45e-05
2674	3.45e-05
2686	4.83e-05
2698	4.37e-05
2710	3.45e-05
2722	5.29e-05
2734	3.45e-05
2746	2.76e-05
2758	3.45e-05
2770	6.67e-05
2782	5.29e-05
2794	3.45e-05
2806	4.6e-06
2818	3.91e-05
2830	2.3e-05
2842	4.37e-05
2854	3.68e-05
2866	5.29e-05
2878	8.74e-05
2890	9.2e-05
2902	0.0001035
2914	5.75e-05
2926	3.22e-05
2938	3.68e-05
2950	0.0001081
2962	9.43e-05
2974	8.05e-05
2986	9.66e-05
2998	0.0001909
3010	0.0002691
3022	0.0003933
3034	0.0008188
3046	0.0010557
3058	0.00138
3070	0.0028244
3082	0.003082
3094	0.0015755
3106	0.0008119
3118	0.0003657
3130	0.0002852
3142	0.0001955
3154	0.000138
3166	7.82e-05
3178	6.67e-05
3190	8.05e-05
3202	4.6e-05
3214	0.0001311
3226	0.0001012
3238	8.28e-05
3250	8.74e-05
3262	0.0001633
3274	0.000115
3286	0.000115
3298	8.28e-05
3310	0.0001196
3322	0.0002162
3334	0.0003358
3346	0.0002576
3358	0.0001449
3370	0.0001242
3382	0.000138
3394	8.05e-05
3406	0.0001058
3418	9.89e-05
3430	3.91e-05
3442	5.06e-05
3454	7.59e-05
3466	9.66e-05
3478	0.0001242
3490	9.43e-05
3502	8.51e-05
3514	0.0001127
3526	0.000138
3538	0.0001196
3550	5.06e-05
3562	0.0001357
3574	0.0001518
3586	0.0001633
3598	0.0001012
3610	5.98e-05
3622	7.36e-05
3634	7.36e-05
3646	8.51e-05
3658	6.21e-05
3670	0.0001403
3682	4.37e-05
3694	5.29e-05
3706	0.0001035
3718	6.9e-05
3730	0.0001035
3742	0.0001242
3754	0.0001242
3766	4.6e-05
3778	8.28e-05
3790	8.74e-05
3802	9.66e-05
3814	7.59e-05
3826	0.0001196
3838	9.89e-05
