Infrared Spectrum: ACETAMIDE, N-[1,1-BIS(p-CHLOROPHENYL)-2,2,2-TRICHLOROETHYL]-
Formula: C16 H12 Cl5 N O
CAS: 81012-95-5
State: SOLID (SPLIT MULL), FLUOROLUBE FOR 3800-1330 CM^-^1, NUJOL FOR 1330-400 CM^-^1
Melting point: 212 C
Class: COBLENTZ III
Instrument: DOW KBr FOREPRISM-GRATING
Instrument parameters: BLAZED AT 3.5, 12.0, 20.0 MICRON AND CHANGED AT 5.0, 7.5, 14.9 MICRON
Sampling: TRANSMISSION
Resolution: 2
Origin: DOW CHEMICAL COMPANY
1/CM	TRANSMITTANCE
455	0.6904
464	0.6719
473	0.6205
482	0.7362
491	0.7332
500	0.7048
509	0.4726
518	0.6932
527	0.6561
536	0.5457
545	0.5266
554	0.2382
563	0.6778
572	0.7401
581	0.7608
590	0.7767
599	0.7886
608	0.7781
617	0.7078
626	0.768
635	0.7524
644	0.7921
653	0.7943
662	0.7795
671	0.7932
680	0.7656
689	0.5712
698	0.7905
707	0.7811
716	0.7284
725	0.6706
734	0.5887
743	0.7258
752	0.6672
761	0.2789
770	0.4857
779	0.1481
788	0.7507
797	0.7133
806	0.4186
815	0.4185
824	0.5386
833	0.6467
842	0.8018
851	0.8042
860	0.8018
869	0.7967
878	0.7874
887	0.7554
896	0.6351
905	0.7945
914	0.791
923	0.7848
932	0.7762
941	0.7511
950	0.7743
959	0.7685
968	0.7504
977	0.7224
986	0.7211
995	0.7381
1004	0.6564
1013	0.3791
1022	0.7367
1031	0.7365
1040	0.7521
1049	0.7541
1058	0.7371
1067	0.7086
1076	0.6286
1085	0.5998
1094	0.329
1103	0.3177
1112	0.7476
1121	0.6565
1130	0.7526
1139	0.7444
1148	0.7514
1157	0.7542
1166	0.7525
1175	0.7488
1184	0.7408
1193	0.7475
1202	0.7475
1211	0.7465
1220	0.7326
1229	0.7091
1238	0.6733
1247	0.6072
1256	0.2914
1265	0.4266
1274	0.6421
1283	0.6875
1292	0.7121
1301	0.7065
1310	0.7028
1319	0.6976
1328	0.6725
1337	0.6115
1346	0.5917
1355	0.6225
1364	0.6074
1373	0.5629
1382	0.6881
1391	0.6661
1400	0.591
1409	0.6365
1418	0.6898
1427	0.6671
1436	0.6461
1445	0.6216
1454	0.5943
1463	0.5168
1472	0.3497
1481	0.249
1490	0.2364
1499	0.5154
1508	0.5649
1517	0.5574
1526	0.7187
1535	0.8247
1544	0.8364
1553	0.8186
1562	0.8112
1571	0.7821
1580	0.7122
1589	0.7524
1598	0.8316
1607	0.8277
1616	0.8068
1625	0.7792
1634	0.7517
1643	0.7211
1652	0.6749
1661	0.6435
1670	0.5756
1679	0.4059
1688	0.1279
1697	0.4318
1706	0.8857
1715	0.9738
1724	0.9571
1733	0.9381
1742	0.9202
1751	0.9063
1760	0.8903
1769	0.8718
1778	0.8536
1787	0.8501
1796	0.8483
1805	0.8377
1814	0.8332
1823	0.8318
1832	0.8275
1841	0.8245
1850	0.8178
1859	0.8126
1868	0.8068
1877	0.7987
1886	0.8
1895	0.7867
1904	0.7795
1913	0.7968
1922	0.7915
1931	0.7888
1940	0.7857
1949	0.7845
1958	0.7843
1967	0.7801
1976	0.7761
1985	0.7728
1994	0.7868
2003	0.7905
2012	0.7868
2021	0.7834
2030	0.781
2039	0.7785
2048	0.775
2057	0.7711
2066	0.7675
2075	0.7634
2084	0.7591
2093	0.7548
2102	0.7508
2111	0.7467
2120	0.7428
2129	0.7384
2138	0.7341
2147	0.7297
2156	0.7254
2165	0.7211
2174	0.7175
2183	0.7141
2192	0.7101
2201	0.7058
2210	0.7015
2219	0.6972
2228	0.6928
2237	0.6878
2246	0.6821
2255	0.6764
2264	0.6706
2273	0.665
2282	0.6604
2291	0.6571
2300	0.6542
2309	0.6518
2318	0.649
2327	0.6474
2336	0.6465
2345	0.6458
2354	0.6451
2363	0.6448
2372	0.6443
2381	0.6438
2390	0.643
2399	0.6421
2408	0.6412
2417	0.6405
2426	0.6394
2435	0.6373
2444	0.6334
2453	0.6328
2462	0.6325
2471	0.6316
2480	0.6298
2489	0.6286
2498	0.6276
2507	0.6262
2516	0.625
2525	0.6233
2534	0.6217
2543	0.62
2552	0.6176
2561	0.6151
2570	0.6125
2579	0.61
2588	0.6072
2597	0.6043
2606	0.6017
2615	0.5992
2624	0.5968
2633	0.5943
2642	0.5917
2651	0.589
2660	0.5864
2669	0.5836
2678	0.5797
2687	0.5817
2696	0.5819
2705	0.5798
2714	0.5769
2723	0.5738
2732	0.5708
2741	0.5683
2750	0.566
2759	0.5636
2768	0.5612
2777	0.5589
2786	0.5566
2795	0.5543
2804	0.552
2813	0.5496
2822	0.5473
2831	0.5452
2840	0.5431
2849	0.541
2858	0.539
2867	0.5366
2876	0.5335
2885	0.5304
2894	0.5273
2903	0.5242
2912	0.5212
2921	0.5184
2930	0.5155
2939	0.5123
2948	0.5091
2957	0.5058
2966	0.5031
2975	0.501
2984	0.499
2993	0.4969
3002	0.4948
3011	0.492
3020	0.4876
3029	0.4817
3038	0.4784
3047	0.481
3056	0.481
3065	0.4752
3074	0.4772
3083	0.481
3092	0.482
3101	0.4828
3110	0.4828
3119	0.4821
3128	0.4807
3137	0.4789
3146	0.4771
3155	0.4751
3164	0.473
3173	0.4701
3182	0.4673
3191	0.4645
3200	0.4619
3209	0.4593
3218	0.4568
3227	0.4542
3236	0.4516
3245	0.4487
3254	0.4454
3263	0.4421
3272	0.4388
3281	0.4355
3290	0.4322
3299	0.4288
3308	0.4242
3317	0.4196
3326	0.4141
3335	0.4078
3344	0.401
3353	0.3938
3362	0.3864
3371	0.378
3380	0.3694
3389	0.3578
3398	0.3457
3407	0.3327
3416	0.3645
3425	0.4278
3434	0.428
3443	0.4262
3452	0.4248
3461	0.4203
3470	0.414
3479	0.4092
3488	0.4053
3497	0.4032
3506	0.4012
3515	0.399
3524	0.3968
3533	0.3946
3542	0.3924
3551	0.3902
3560	0.3882
3569	0.3864
3578	0.3844
3587	0.382
3596	0.3798
3605	0.3774
3614	0.3752
3623	0.3732
3632	0.3714
3641	0.3695
3650	0.3676
3659	0.3659
3668	0.3647
3677	0.3636
3686	0.3625
3695	0.3609
3704	0.359
3713	0.357
3722	0.3552
3731	0.3534
3740	0.3518
3749	0.3502
3758	0.3488
3767	0.3476
3776	0.3466
3785	0.3459
3794	0.3455
