Infrared Spectrum: 3-Bromo-4-hydroxy-5-methoxyphenylacetonitrile
Formula: C 9 H 8 Br N O 2
CAS: 81038-44-0
State: gas
Origin: EPA-IR VAPOR PHASE LIBRARY
1/CM	ABSORBANCE
549.8	0.0023791
559.445	0.0025091
569.09	0.0028191
578.734	0.0026791
588.379	0.0029491
598.024	0.0025891
607.669	0.0018191
617.313	0.0018091
626.958	0.0020591
636.603	0.0024291
646.248	0.0029591
655.893	0.0026691
665.537	0.0021091
675.182	0.0018391
684.827	0.0012791
694.472	0.0011591
704.116	0.0010691
713.761	0.0012291
723.406	0.0017791
733.051	0.0027191
742.695	0.0021391
752.34	0.0017491
761.985	0.0016791
771.63	0.0044091
781.275	0.0094891
790.919	0.0066591
800.564	0.0038491
810.209	0.0051191
819.854	0.0117291
829.498	0.0156991
839.143	0.0104491
848.788	0.0062991
858.433	0.0034291
868.078	0.0023091
877.722	0.0020591
887.367	0.0016591
897.012	0.0019791
906.657	0.0022891
916.301	0.0026591
925.946	0.0030991
935.591	0.0028891
945.236	0.0025591
954.88	0.0034091
964.525	0.0029691
974.17	0.0022891
983.815	0.0019591
993.46	0.0022991
1003.1	0.0028391
1012.75	0.0037891
1022.39	0.0067291
1032.04	0.0161591
1041.68	0.0303091
1051.33	0.0332491
1060.97	0.0170491
1070.62	0.0060491
1080.26	0.0039291
1089.91	0.0033191
1099.55	0.0033791
1109.2	0.0038191
1118.84	0.0057391
1128.49	0.0105691
1138.13	0.0145791
1147.78	0.0113091
1157.42	0.0087691
1167.07	0.0139391
1176.71	0.0229891
1186.36	0.0236991
1196	0.0165191
1205.64	0.0094691
1215.29	0.0091691
1224.93	0.0148091
1234.58	0.0276091
1244.22	0.0306891
1253.87	0.0261391
1263.51	0.0234091
1273.16	0.0335391
1282.8	0.0423791
1292.45	0.0296391
1302.09	0.0258391
1311.74	0.0164991
1321.38	0.0093691
1331.03	0.0112291
1340.67	0.0116191
1350.32	0.0119491
1359.96	0.0120291
1369.61	0.0082391
1379.25	0.0045991
1388.9	0.0040191
1398.54	0.0055291
1408.18	0.0108991
1417.83	0.0231691
1427.47	0.0308691
1437.12	0.0181591
1446.76	0.0106791
1456.41	0.0139691
1466.05	0.0183191
1475.7	0.0231391
1485.34	0.0390391
1494.99	0.0566291
1504.63	0.0365191
1514.28	0.0111391
1523.92	0.0048191
1533.57	0.0030991
1543.21	0.0025591
1552.86	0.0028991
1562.5	0.0043991
1572.15	0.0081091
1581.79	0.0132791
1591.44	0.0157391
1601.08	0.0131891
1610.73	0.0080591
1620.37	0.0032491
1630.01	0.0017891
1639.66	0.0014591
1649.3	0.0014591
1658.95	0.0012691
1668.59	0.0011591
1678.24	0.0012791
1687.88	0.0012791
1697.53	0.0010691
1707.17	0.0011191
1716.82	0.0009144
1726.46	0.0008179
1736.11	0.000612
1745.75	0.0006363
1755.4	0.0006668
1765.04	0.0005653
1774.69	0.0005672
1784.33	0.0005713
1793.98	0.0005306
1803.62	0.0004832
1813.27	0.0004036
1822.91	0.0004569
1832.55	0.0004454
1842.2	0.0004663
1851.84	0.0003806
1861.49	0.0004302
1871.13	0.0004165
1880.78	0.0004393
1890.42	0.0004126
1900.07	0.0005125
1909.71	0.0004567
1919.36	0.0004054
1929	0.0003889
1938.65	0.0004232
1948.29	0.0005146
1957.94	0.0005007
1967.58	0.0005621
1977.23	0.0005382
1986.87	0.0005118
1996.52	0.0005989
2006.16	0.0007037
2015.81	0.0006051
2025.45	0.0005525
2035.1	0.0005002
2044.74	0.0004754
2054.38	0.0005704
2064.03	0.0006183
2073.67	0.0007093
2083.32	0.0006947
2092.96	0.0006317
2102.61	0.0007524
2112.25	0.0005688
2121.9	0.000496
2131.54	0.0004369
2141.19	0.000344
2150.83	0.0004137
2160.48	0.0003873
2170.12	0.0003644
2179.77	0.0004234
2189.41	0.0003646
2199.06	0.0005058
2208.7	0.0004349
2218.35	0.0003685
2227.99	0.0003896
2237.64	0.0004259
2247.28	0.0006867
2256.92	0.000842
2266.57	0.0005476
2276.21	0.000511
2285.86	0.0003434
2295.5	0.0004208
2305.15	0.0003998
2314.79	0.0004883
2324.44	0.0004476
2334.08	0.0004152
2343.73	0.0004419
2353.37	0.0002739
2363.02	0.000271
2372.66	0.0003202
2382.31	0.0004623
2391.95	0.0003668
2401.6	0.0003145
2411.24	0.0003817
2420.89	0.0003688
2430.53	0.0003392
2440.18	0.0004296
2449.82	0.0004213
2459.47	0.0004848
2469.11	0.0005338
2478.75	0.0006212
2488.4	0.0006746
2498.04	0.0005676
2507.69	0.0005654
2517.33	0.0005577
2526.98	0.0005621
2536.62	0.0005285
2546.27	0.0005938
2555.91	0.0005663
2565.56	0.0005653
2575.2	0.0004726
2584.85	0.0003954
2594.49	0.000482
2604.14	0.0005301
2613.78	0.0004204
2623.43	0.0004858
2633.07	0.0004999
2642.72	0.000324
2652.36	0.0004935
2662.01	0.0003641
2671.65	0.0003055
2681.29	0.0003494
2690.94	0.0003589
2700.58	0.0003207
2710.23	0.0004746
2719.87	0.0005066
2729.52	0.0004769
2739.16	0.0004361
2748.81	0.0003177
2758.45	0.0004097
2768.1	0.0005272
2777.74	0.0005762
2787.39	0.0005281
2797.03	0.0006157
2806.68	0.0008176
2816.32	0.0010491
2825.97	0.0015091
2835.61	0.0025191
2845.26	0.0038391
2854.9	0.0042691
2864.55	0.0031791
2874.19	0.0025991
2883.84	0.0027091
2893.48	0.0026391
2903.12	0.0026591
2912.77	0.0034491
2922.41	0.0048791
2932.06	0.0056491
2941.7	0.0072391
2951.35	0.0095891
2960.99	0.0077591
2970.64	0.0063991
2980.28	0.0048691
2989.93	0.0033291
2999.57	0.0036991
3009.22	0.0052391
3018.86	0.0058891
3028.51	0.0030391
3038.15	0.0017391
3047.8	0.0016491
3057.44	0.0015491
3067.09	0.0013891
3076.73	0.0012291
3086.38	0.0008727
3096.02	0.0007374
3105.67	0.0007177
3115.31	0.0006628
3124.95	0.0004785
3134.6	0.0004513
3144.24	0.0004217
3153.89	0.0005205
3163.53	0.0006833
3173.18	0.0005439
3182.82	0.0006077
3192.47	0.0004355
3202.11	0.0005725
3211.76	0.0003677
3221.4	0.0004096
3231.05	0.0003716
3240.69	0.0005495
3250.34	0.0002635
3259.98	0.0003462
3269.63	0.0002442
3279.27	0.0002734
3288.92	0.0002321
3298.56	0.0002656
3308.21	0.0004468
3317.85	0.0002676
3327.49	0.0003568
3337.14	0.0003065
3346.78	0.0002256
3356.43	0.0003056
3366.07	0.000199
3375.72	0.0003422
3385.36	0.0002903
3395.01	0.0001557
3404.65	0.0003458
3414.3	0.0002052
3423.94	0.0001417
3433.59	0.0003695
3443.23	0.0002175
3452.88	0.0003786
3462.52	0.0004292
3472.17	0.0005176
3481.81	0.0005206
3491.46	0.000375
3501.1	0.0007081
3510.75	0.0005808
3520.39	0.0007653
3530.04	0.0022891
3539.68	0.0069391
3549.32	0.0143091
3558.97	0.0151091
3568.61	0.0234391
3578.26	0.0247191
3587.9	0.0109691
3597.55	0.0029191
3607.19	0.0012891
3616.84	0.0007836
3626.48	0.0006096
3636.13	0.0006918
3645.77	0.0004484
3655.42	0.000468
3665.06	0.0003011
3674.71	0.0002181
3684.35	0.0003642
3694	0.0004408
3703.64	0.0004358
3713.29	0.0004312
3722.93	0.0003424
3732.58	0.0001682
3742.22	0.0002539
3751.86	0.0003806
3761.51	0.000426
3771.15	0.0003291
3780.8	0.0001961
3790.44	0.0005034
3800.09	0.0003425
3809.73	0.0003559
3819.38	0.0005324
3829.02	0.0004055
3838.67	0.000547
3848.31	0.0006165
3857.96	0.0005135
3867.6	0.0005149
3877.25	0.0005772
3886.89	0.0004056
3896.54	0.000605
3906.18	0.0005783
3915.83	0.0003891
3925.47	0.000462
3935.12	0.0002832
3944.76	0.0004724
3954.41	0.0004909
3964.05	0.0005119
3973.69	0.0005073
3983.34	0.0003293
3992.98	0.0006254
