Infrared Spectrum: .alpha.-Chloro-4'-fluoropropiophenone
Formula: C 9 H 8 Cl F O
CAS: 81112-09-6
State: gas
Origin: EPA-IR VAPOR PHASE LIBRARY
1/CM	ABSORBANCE
549.8	0.00308
559.445	0.00349
569.09	0.00827
578.734	0.01202
588.379	0.01529
598.024	0.01691
607.669	0.02018
617.313	0.0161
626.958	0.00947
636.603	0.00611
646.248	0.00379
655.893	0.00296
665.537	0.00273
675.182	0.00286
684.827	0.00297
694.472	0.00294
704.116	0.00343
713.761	0.00486
723.406	0.0075
733.051	0.00728
742.695	0.00457
752.34	0.00481
761.985	0.00831
771.63	0.00761
781.275	0.00364
790.919	0.00262
800.564	0.00461
810.209	0.00859
819.854	0.00927
829.498	0.01729
839.143	0.03037
848.788	0.03516
858.433	0.01602
868.078	0.00524
877.722	0.00361
887.367	0.00269
897.012	0.00192
906.657	0.00204
916.301	0.00254
925.946	0.00448
935.591	0.01065
945.236	0.02712
954.88	0.03587
964.525	0.01725
974.17	0.00898
983.815	0.00813
993.46	0.01144
1003.1	0.01539
1012.75	0.01299
1022.39	0.00545
1032.04	0.00294
1041.68	0.00311
1051.33	0.00406
1060.97	0.00637
1070.62	0.00547
1080.26	0.00441
1089.91	0.0062
1099.55	0.00744
1109.2	0.00591
1118.84	0.00343
1128.49	0.00311
1138.13	0.00392
1147.78	0.01088
1157.42	0.05589
1167.07	0.03595
1176.71	0.01109
1186.36	0.02394
1196	0.04422
1205.64	0.03697
1215.29	0.03305
1224.93	0.04674
1234.58	0.1027
1244.22	0.12897
1253.87	0.04757
1263.51	0.02504
1273.16	0.02003
1282.8	0.01226
1292.45	0.01071
1302.09	0.00999
1311.74	0.01011
1321.38	0.01557
1331.03	0.0258
1340.67	0.02478
1350.32	0.01255
1359.96	0.00727
1369.61	0.00669
1379.25	0.01072
1388.9	0.00935
1398.54	0.00784
1408.18	0.01253
1417.83	0.00881
1427.47	0.00588
1437.12	0.00699
1446.76	0.01137
1456.41	0.01116
1466.05	0.00648
1475.7	0.00472
1485.34	0.00625
1494.99	0.01561
1504.63	0.04212
1514.28	0.0346
1523.92	0.00911
1533.57	0.00465
1543.21	0.0047
1552.86	0.00553
1562.5	0.00663
1572.15	0.01058
1581.79	0.02471
1591.44	0.06068
1601.08	0.08609
1610.73	0.04652
1620.37	0.01686
1630.01	0.00716
1639.66	0.0047
1649.3	0.00529
1658.95	0.00616
1668.59	0.00731
1678.24	0.01164
1687.88	0.02518
1697.53	0.05179
1707.17	0.08086
1716.82	0.06005
1726.46	0.01983
1736.11	0.00772
1745.75	0.0048
1755.4	0.00328
1765.04	0.00263
1774.69	0.0025
1784.33	0.00172
1793.98	0.00136
1803.62	0.00126
1813.27	0.00105
1822.91	0.00105
1832.55	0.0009305
1842.2	0.0008774
1851.84	0.0008548
1861.49	0.0009139
1871.13	0.0012
1880.78	0.00153
1890.42	0.00158
1900.07	0.00163
1909.71	0.00158
1919.36	0.00135
1929	0.00125
1938.65	0.0009137
1948.29	0.0007002
1957.94	0.0007154
1967.58	0.0007843
1977.23	0.0007561
1986.87	0.0008715
1996.52	0.0007665
2006.16	0.0004847
2015.81	0.0004348
2025.45	0.0005744
2035.1	0.0005639
2044.74	0.0005842
2054.38	0.0009183
2064.03	0.0009549
2073.67	0.0009032
2083.32	0.0006126
2092.96	0.0003402
2102.61	0.0003009
2112.25	0.0002808
2121.9	0.0002571
2131.54	0.0001501
2141.19	0.0001715
2150.83	0.0001224
2160.48	0.0001714
2170.12	0.0002935
2179.77	0.0001467
2189.41	0.0001471
2199.06	0.0001942
2208.7	0.0001305
2218.35	0.0001891
2227.99	0.0002506
2237.64	0.0003317
2247.28	0.0003453
2256.92	0.0004464
2266.57	0.0005115
2276.21	0.0003782
2285.86	0.0002114
2295.5	0.0002584
2305.15	0.0002779
2314.79	0.0003747
2324.44	0.0003954
2334.08	0.000391
2343.73	0.0004277
2353.37	0.0003029
2363.02	0.0003531
2372.66	0.0004231
2382.31	0.0005702
2391.95	0.0008441
2401.6	0.00102
2411.24	0.0008613
2420.89	0.0009588
2430.53	0.00106
2440.18	0.0008758
2449.82	0.000789
2459.47	0.000773
2469.11	0.00099
2478.75	0.00111
2488.4	0.0007791
2498.04	0.0005144
2507.69	0.0003153
2517.33	0.0005085
2526.98	0.0004892
2536.62	0.0004687
2546.27	0.0005535
2555.91	0.0007159
2565.56	0.0008745
2575.2	0.00113
2584.85	0.00119
2594.49	0.00103
2604.14	0.0007158
2613.78	0.00033
2623.43	0.0003136
2633.07	0.000254
2642.72	0.0001018
2652.36	0.0002368
2662.01	0.0002581
2671.65	0.0001891
2681.29	0.0002851
2690.94	0.0002451
2700.58	0.0003104
2710.23	0.0001587
2719.87	0.0002643
2729.52	0.0001799
2739.16	0.0003252
2748.81	0.0005002
2758.45	0.0003671
2768.1	0.0002278
2777.74	0.0002964
2787.39	0.0003403
2797.03	0.000463
2806.68	0.0004694
2816.32	0.0003889
2825.97	0.0003307
2835.61	0.0005352
2845.26	0.0003539
2854.9	0.0007857
2864.55	0.00117
2874.19	0.00177
2883.84	0.00208
2893.48	0.0015
2903.12	0.00156
2912.77	0.00147
2922.41	0.00191
2932.06	0.00417
2941.7	0.0083
2951.35	0.00642
2960.99	0.00469
2970.64	0.00516
2980.28	0.00699
2989.93	0.01086
2999.57	0.00895
3009.22	0.00681
3018.86	0.00405
3028.51	0.0019
3038.15	0.00134
3047.8	0.0017
3057.44	0.00233
3067.09	0.00297
3076.73	0.00363
3086.38	0.0037
3096.02	0.00194
3105.67	0.0016
3115.31	0.0015
3124.95	0.0008537
3134.6	0.0006175
3144.24	0.000606
3153.89	0.0003366
3163.53	0.0004288
3173.18	0.0003914
3182.82	0.0005057
3192.47	0.0006223
3202.11	0.0004151
3211.76	0.0004855
3221.4	0.000433
3231.05	0.0001912
3240.69	0.000255
3250.34	0.0001525
3259.98	0.0004492
3269.63	0.0001974
3279.27	0.0004314
3288.92	0.0002919
3298.56	0.0003312
3308.21	0.0003512
3317.85	0.0003748
3327.49	0.0003049
3337.14	0.0003457
3346.78	0.000293
3356.43	0.0005548
3366.07	0.0005727
3375.72	0.0007159
3385.36	0.00128
3395.01	0.00155
3404.65	0.00148
3414.3	0.000934
3423.94	0.0006319
3433.59	0.0004775
3443.23	0.0004396
3452.88	0.0003169
3462.52	0.0001223
3472.17	0.0002314
3481.81	0.0003963
3491.46	0.0004819
3501.1	0.0002469
3510.75	0.0003436
3520.39	0.0003164
3530.04	0.0003006
3539.68	0.0002105
3549.32	0.000256
3558.97	0.0002551
3568.61	0.0005814
3578.26	0.0002692
3587.9	0.0003575
3597.55	0.0004598
3607.19	0.0003014
3616.84	0.0004164
3626.48	0.0003251
3636.13	0.000294
3645.77	0.0003437
3655.42	0.0002184
3665.06	0.0002662
3674.71	0.0002851
3684.35	0.0006119
3694	0.0004624
3703.64	0.0003719
3713.29	0.0005217
3722.93	0.0002849
3732.58	0.0003684
3742.22	0.0004195
3751.86	0.0003436
3761.51	0.0003466
3771.15	0.0004398
3780.8	0.0002457
3790.44	0.000211
3800.09	0.0002826
3809.73	0.0003257
3819.38	0.00028
3829.02	0.0002745
3838.67	2.393e-05
3848.31	0.0001157
3857.96	0.0004034
3867.6	0.0002399
3877.25	0.0003556
3886.89	0.000349
3896.54	0.0004572
3906.18	0.0003297
3915.83	0.00039
3925.47	0.0002322
3935.12	0.0004281
3944.76	0.000234
3954.41	0.0003559
3964.05	0.0005295
3973.69	0.0001627
3983.34	0.0004127
3992.98	0.0002657
