Infrared Spectrum: 2,4-Difluorophenylacetic acid
Formula: C 8 H 6 F 2 O 2
CAS: 81228-09-3
State: gas
Origin: EPA-IR VAPOR PHASE LIBRARY
1/CM	ABSORBANCE
549.8	0.0034347
559.445	0.0034047
569.09	0.0020947
578.735	0.0016047
588.38	0.0015247
598.025	0.0018147
607.67	0.0019147
617.315	0.0025647
626.96	0.0025647
636.605	0.0020047
646.251	0.0016547
655.896	0.0008452
665.541	0.0009784
675.186	0.0008322
684.831	0.0005716
694.476	0.0005572
704.121	0.0005207
713.766	0.0004895
723.411	0.0003689
733.056	0.0004856
742.701	0.0004236
752.346	9.392e-05
761.991	9.004e-05
771.636	0.000136
781.281	0.0004373
790.926	0.0010547
800.571	0.001028
810.216	0.0005936
819.861	0.000456
829.507	0.0004688
839.152	0.0014147
848.797	0.0030447
858.442	0.0025847
868.087	0.0009797
877.732	0.0003585
887.377	0.0002942
897.022	0.0001729
906.667	0.0002668
916.312	0.0004523
925.957	0.0003765
935.602	0.0005336
945.247	0.0004128
954.892	0.0008046
964.537	0.0026747
974.182	0.0038047
983.827	0.0015147
993.472	0.0003995
1003.12	0.0001611
1012.76	0.0001258
1022.41	0.0001976
1032.05	0.0002043
1041.7	0.0004073
1051.34	0.0005538
1060.99	0.0009253
1070.63	0.0013147
1080.28	0.0021647
1089.92	0.0040347
1099.57	0.0066847
1109.21	0.0107347
1118.86	0.0128447
1128.5	0.0102547
1138.15	0.0099847
1147.79	0.0073247
1157.44	0.0031047
1167.08	0.0023447
1176.73	0.0021047
1186.37	0.0018747
1196.02	0.0016147
1205.66	0.0015547
1215.31	0.0013547
1224.95	0.0012647
1234.6	0.0012147
1244.24	0.0013247
1253.89	0.0018247
1263.53	0.0022347
1273.18	0.0031847
1282.82	0.0047447
1292.47	0.0037147
1302.11	0.0019647
1311.76	0.0010947
1321.4	0.0008585
1331.05	0.000978
1340.69	0.0011547
1350.34	0.0015447
1359.98	0.0017947
1369.63	0.0017947
1379.27	0.0014147
1388.92	0.0009458
1398.56	0.0009013
1408.21	0.0009805
1417.85	0.0014247
1427.5	0.0020547
1437.14	0.0019047
1446.79	0.0013247
1456.43	0.0011847
1466.08	0.0011247
1475.73	0.0007374
1485.37	0.0010347
1495.02	0.0028847
1504.66	0.0085547
1514.31	0.0083647
1523.95	0.0023047
1533.6	0.0010187
1543.24	0.0006766
1552.89	0.0005953
1562.53	0.0005454
1572.18	0.000745
1581.82	0.0013147
1591.47	0.0024947
1601.11	0.0037247
1610.76	0.0041847
1620.4	0.0040547
1630.05	0.0030347
1639.69	0.0017147
1649.34	0.0009902
1658.98	0.0005302
1668.63	0.0003664
1678.27	0.0003725
1687.92	0.0004204
1697.56	0.0005005
1707.21	0.0006029
1716.85	0.0007032
1726.5	0.0009973
1736.14	0.0015947
1745.79	0.0025147
1755.43	0.0039347
1765.08	0.0059147
1774.72	0.0090347
1784.37	0.0112247
1794.01	0.0086447
1803.66	0.0048547
1813.3	0.0025847
1822.95	0.0014547
1832.59	0.0007773
1842.24	0.0005191
1851.88	0.0003783
1861.53	0.0002649
1871.17	0.0003313
1880.82	0.0003003
1890.46	0.0001772
1900.11	0.00011072
1909.75	0.0001447
1919.4	0.0001557
1929.04	0.00013183
1938.69	0.0001145
1948.33	0.0001898
1957.98	7.755e-05
1967.62	9.091e-05
1977.27	0.00012372
1986.91	0.00012696
1996.56	0.0001736
2006.2	0.0001379
2015.85	0.0001464
2025.49	0.0001587
2035.14	0.0001498
2044.78	0.00010207
2054.43	0.0001734
2064.07	0.00011392
2073.72	0.0001408
2083.36	5.554e-05
2093.01	0.00011929
2102.65	0.00010109
2112.3	0.00011364
2121.94	0.0001505
2131.59	0.000177
2141.23	0.0001461
2150.88	9.943e-05
2160.52	8.883e-05
2170.17	0.00011981
2179.81	0.00010696
2189.46	0.00012051
2199.1	0.0001595
2208.75	0.0001536
2218.39	0.00011841
2228.04	0.0002072
2237.68	0.0002143
2247.33	0.0002119
2256.97	0.0001883
2266.62	0.0001379
2276.26	0.0001491
2285.91	0.0001494
2295.55	0.0001877
2305.2	0.0001717
2314.84	0.0001745
2324.49	0.0002823
2334.13	0.000223
2343.78	0.0002205
2353.42	0.000217
2363.07	0.0002294
2372.72	0.0002811
2382.36	0.0002493
2392.01	0.0001736
2401.65	0.0002463
2411.3	0.0001762
2420.94	0.0002729
2430.59	0.0003267
2440.23	0.0002563
2449.88	0.000213
2459.52	0.0002168
2469.17	0.0001586
2478.81	0.0002545
2488.46	0.0002255
2498.1	0.0001448
2507.75	0.0001747
2517.39	0.0002484
2527.04	0.0001407
2536.68	0.0002181
2546.33	0.000271
2555.97	0.0002149
2565.62	0.0002202
2575.26	0.0002513
2584.91	0.000206
2594.55	0.0002117
2604.2	0.0002131
2613.84	0.0001789
2623.49	0.0002843
2633.13	0.0002579
2642.78	0.0001997
2652.42	0.0001631
2662.07	0.0002065
2671.71	0.0001864
2681.36	0.0002117
2691	0.0002715
2700.65	0.0002249
2710.29	0.0002313
2719.94	0.0002107
2729.58	0.0002176
2739.23	0.0003171
2748.87	0.00011936
2758.52	0.0002229
2768.16	0.0002
2777.81	0.0002446
2787.45	0.0002157
2797.1	0.0002615
2806.74	0.0001634
2816.39	0.0002147
2826.03	0.0002838
2835.68	0.0002694
2845.32	0.0002706
2854.97	0.0002311
2864.61	0.0002159
2874.26	0.0002842
2883.9	0.0002239
2893.55	0.0002989
2903.19	0.0003888
2912.84	0.0003061
2922.48	0.0003605
2932.13	0.0005335
2941.77	0.0005969
2951.42	0.0004995
2961.06	0.0003959
2970.71	0.0004358
2980.35	0.0002906
2990	0.0003141
2999.64	0.0003074
3009.29	0.0004521
3018.93	0.0003056
3028.58	0.0003527
3038.22	0.0004111
3047.87	0.0004841
3057.51	0.0003819
3067.16	0.0003179
3076.8	0.0004691
3086.45	0.0005868
3096.09	0.000379
3105.74	0.000285
3115.38	0.0002315
3125.03	0.0003281
3134.67	0.0002852
3144.32	0.0002316
3153.96	0.000229
3163.61	0.0003623
3173.25	0.0002817
3182.9	0.0002773
3192.54	0.000218
3202.19	0.0001365
3211.83	0.00013016
3221.48	0.0002513
3231.12	0.00011713
3240.77	0.00013073
3250.41	0.0003027
3260.06	0.000292
3269.7	0.0001357
3279.35	0.0003858
3289	0.0002747
3298.64	0.0003216
3308.29	0.0003874
3317.93	0.0001754
3327.58	0.0001847
3337.22	0.0004262
3346.87	0.0002762
3356.51	0.0003208
3366.16	0.0002959
3375.8	0.0002879
3385.45	0.0002049
3395.09	0.0003071
3404.74	0.0002776
3414.38	0.0002096
3424.03	0.0004109
3433.67	0.000142
3443.32	0.0003179
3452.96	0.0002741
3462.61	0.0002088
3472.25	0.0003748
3481.9	0.0003672
3491.54	0.0004865
3501.19	0.000453
3510.83	0.0004452
3520.48	0.0004264
3530.12	0.0004359
3539.77	0.0005189
3549.41	0.0009214
3559.06	0.0013347
3568.7	0.0043147
3578.35	0.0049847
3587.99	0.0020447
3597.64	0.000815
3607.28	0.0004967
3616.93	0.0005152
3626.57	0.0004641
3636.22	0.0003553
3645.86	0.0005508
3655.51	0.0003826
3665.15	0.000416
3674.8	0.0001851
3684.44	0.0004101
3694.09	0.0004106
3703.73	0.0003603
3713.38	0.0005639
3723.02	0.0005069
3732.67	0.0004864
3742.31	0.0004152
3751.96	0.0004102
3761.6	0.0004857
3771.25	0.0004419
3780.89	0.0002693
3790.54	0.0004961
3800.18	0.0004044
3809.83	0.0004903
3819.47	0.0003836
3829.12	0.0003552
3838.76	0.0005341
3848.41	0.0004204
3858.05	0.0005226
3867.7	0.0003321
3877.34	0.000521
3886.99	0.0004817
3896.63	0.0003914
3906.28	0.0004013
3915.92	0.000546
3925.57	0.0003784
3935.21	0.0005155
3944.86	0.0005284
3954.5	0.0005224
3964.15	0.0006385
3973.79	0.0005953
3983.44	0.0005896
3993.08	0.0004378
