Infrared Spectrum: 4-Methyl-4-hepten-3-ol
Formula: C 8 H 16 O
CAS: 81280-12-8
State: gas
Instrument: HP-GC/MS/IRD
Origin: NIST Mass Spectrometry Data Center
1/CM	ABSORBANCE
550	0.0003636
562	0.000279
574	0.0001332
586	0.0001152
598	0.0002754
610	0.000324
622	0.0002448
634	0.0001764
646	5.4e-05
658	0.0001476
670	0.0001224
682	4.5e-05
694	1.8e-06
706	7.74e-05
718	0.0001224
730	0.0001872
742	0.000252
754	0.000387
766	0.000423
778	0.0004302
790	0.0005832
802	0.0004716
814	0.0006264
826	0.0007398
838	0.001197
850	0.0019134
862	0.0020934
874	0.001611
886	0.0010494
898	0.0005886
910	0.0007002
922	0.000765
934	0.0010638
946	0.0018054
958	0.0032328
970	0.0040626
982	0.0042714
994	0.004707
1006	0.0045018
1018	0.0032058
1030	0.0028242
1042	0.0028422
1054	0.0026046
1066	0.0023922
1078	0.0025038
1090	0.0028602
1102	0.0029286
1114	0.002142
1126	0.0015408
1138	0.0009918
1150	0.0007218
1162	0.000756
1174	0.0010134
1186	0.0012654
1198	0.0014148
1210	0.0017136
1222	0.002025
1234	0.0021924
1246	0.0018918
1258	0.0017172
1270	0.0016758
1282	0.0018432
1294	0.002151
1306	0.002268
1318	0.0020664
1330	0.0020898
1342	0.0020664
1354	0.0019512
1366	0.0022896
1378	0.0028422
1390	0.0027342
1402	0.0019386
1414	0.0013698
1426	0.0013104
1438	0.0016326
1450	0.0022518
1462	0.0026982
1474	0.0021402
1486	0.0011808
1498	0.0007488
1510	0.0005958
1522	0.0004608
1534	0.000369
1546	0.0003528
1558	0.0003852
1570	0.000252
1582	0.0002214
1594	0.0002268
1606	0.0001908
1618	0.0001746
1630	0.0001944
1642	0.000207
1654	0.0002808
1666	0.000288
1678	0.0002034
1690	0.0001494
1702	0.0001746
1714	0.0001854
1726	9.9e-05
1738	8.64e-05
1750	8.1e-05
1762	5.04e-05
1774	7.02e-05
1786	4.86e-05
1798	4.68e-05
1810	3.06e-05
1822	3.6e-05
1834	2.88e-05
1846	2.16e-05
1858	3.06e-05
1870	3.6e-05
1882	2.16e-05
1894	5.58e-05
1906	5.76e-05
1918	5.94e-05
1930	4.86e-05
1942	5.4e-05
1954	1.44e-05
1966	4.32e-05
1978	5.58e-05
1990	1.62e-05
2002	3.42e-05
2014	3.96e-05
2026	1.8e-05
2038	5.58e-05
2050	4.14e-05
2062	1.8e-05
2074	3.96e-05
2086	3.6e-05
2098	3.6e-05
2110	1.8e-05
2122	4.14e-05
2134	2.16e-05
2146	2.16e-05
2158	4.86e-05
2170	5.4e-06
2182	3.6e-05
2194	1.26e-05
2206	2.7e-05
2218	2.88e-05
2230	1.8e-05
2242	2.16e-05
2254	4.86e-05
2266	2.88e-05
2278	4.86e-05
2290	7.92e-05
2302	7.74e-05
2314	6.48e-05
2326	7.02e-05
2338	8.1e-05
2350	6.12e-05
2362	8.28e-05
2374	8.1e-05
2386	8.64e-05
2398	7.38e-05
2410	0.0001008
2422	0.000126
2434	0.000117
2446	8.28e-05
2458	5.76e-05
2470	7.38e-05
2482	5.04e-05
2494	8.46e-05
2506	6.84e-05
2518	6.84e-05
2530	9.18e-05
2542	0.0001062
2554	0.0001296
2566	0.0001872
2578	0.000162
2590	0.0001278
2602	0.0001296
2614	0.0001656
2626	0.0002016
2638	0.0001602
2650	0.0001692
2662	0.0001908
2674	0.0001944
2686	0.000234
2698	0.0002412
2710	0.0002898
2722	0.0003672
2734	0.0004374
2746	0.0005634
2758	0.0005832
2770	0.000549
2782	0.0006048
2794	0.00072
2806	0.0008622
2818	0.0011232
2830	0.0016758
2842	0.0026676
2854	0.0042534
2866	0.006624
2878	0.0091836
2890	0.0094896
2902	0.0076284
2914	0.007776
2926	0.0099054
2938	0.0129726
2950	0.0130518
2962	0.014877
2974	0.0178632
2986	0.0113832
2998	0.006066
3010	0.0036522
3022	0.0025992
3034	0.0019386
3046	0.0014994
3058	0.0013032
3070	0.00099
3082	0.000747
3094	0.0006444
3106	0.0004968
3118	0.00045
3130	0.0004266
3142	0.000387
3154	0.0003708
3166	0.0002466
3178	0.0002538
3190	0.000243
3202	0.0001674
3214	0.0001206
3226	5.76e-05
3238	0.000162
3250	8.46e-05
3262	3.42e-05
3274	2.34e-05
3286	5.94e-05
3298	6.12e-05
3310	0.0001188
3322	5.4e-05
3334	7.92e-05
3346	8.1e-05
3358	8.64e-05
3370	0.000126
3382	5.94e-05
3394	7.92e-05
3406	0.0001206
3418	0.000117
3430	7.2e-05
3442	7.92e-05
3454	7.74e-05
3466	0.000108
3478	0.0001476
3490	0.000144
3502	0.0001008
3514	7.92e-05
3526	0.000108
3538	6.3e-05
3550	5.94e-05
3562	3.24e-05
3574	0.0001386
3586	0.000135
3598	0.0001062
3610	0.0001836
3622	0.0003636
3634	0.0009432
3646	0.0016128
3658	0.001359
3670	0.000504
3682	0.0002016
3694	0.0001674
3706	0.0001368
3718	0.000153
3730	9.18e-05
3742	9.36e-05
3754	0.0001278
3766	0.0001566
3778	9.18e-05
3790	0.0002034
3802	0.0001728
3814	0.0001548
3826	0.0001098
3838	7.2e-05
