Infrared Spectrum: PHOSPHOROCHLORIDIC ACID, DIMETHYL ESTER
Formula: C2 H6 Cl O3 P
CAS: 813-77-4
State: SOLUTION (10% IN CCl4 FOR 3800-1330, 10% IN CS2 FOR 1330-400 CM^-^1)
Class: COBLENTZ III
Instrument: DOW KBr FOREPRISM-GRATING
Instrument parameters: BLAZED AT 3.5, 12.0, 20.0 MICRON, CHANGED AT 5.0, 7.5, 14.9 MICRON
Sampling: TRANSMISSION
Path length: 0.011, 0.011 CM
Resolution: 4
Origin: DOW CHEMICAL COMPANY
1/CM	TRANSMITTANCE
380.98	0.267
389.731	0.27
398.483	0.303
407.234	0.412
415.986	0.495
424.737	0.411
433.489	0.307
442.24	0.795
450.992	0.837
459.743	0.834
468.495	0.759
477.246	0.547
485.998	0.633
494.749	0.733
503.5	0.81
512.252	0.806
521.003	0.766
529.755	0.661
538.506	0.449
547.258	0.131
556.009	0.012
564.761	0.051
573.512	0.2
582.264	0.329
591.015	0.297
599.767	0.245
608.518	0.446
617.269	0.755
626.021	0.878
634.772	0.913
643.524	0.931
652.275	0.946
661.027	0.961
669.778	0.976
678.53	0.986
687.281	0.993
696.033	0.989
704.784	0.978
713.536	0.961
722.287	0.95
731.038	0.934
739.79	0.893
748.541	0.827
757.293	0.546
766.044	0.107
774.796	0.05
783.547	0.148
792.299	0.132
801.05	0.321
809.802	0.661
818.553	0.678
827.305	0.647
836.056	0.448
844.807	0.096
853.559	0.162
862.31	0.445
871.062	0.689
879.813	0.795
888.565	0.853
897.316	0.886
906.068	0.9
914.819	0.919
923.571	0.915
932.322	0.904
941.074	0.882
949.825	0.851
958.576	0.819
967.328	0.777
976.079	0.729
984.831	0.662
993.582	0.61
1002.33	0.521
1011.09	0.315
1019.84	0.099
1028.59	0.008
1037.34	0.006
1046.09	0.006
1054.84	0.009
1063.59	0.01
1072.35	0.025
1081.1	0.185
1089.85	0.379
1098.6	0.498
1107.35	0.564
1116.1	0.601
1124.85	0.635
1133.61	0.653
1142.36	0.659
1151.11	0.646
1159.86	0.605
1168.61	0.521
1177.36	0.334
1186.11	0.166
1194.87	0.348
1203.62	0.467
1212.37	0.614
1221.12	0.65
1229.87	0.665
1238.62	0.668
1247.37	0.653
1256.13	0.617
1264.88	0.528
1273.63	0.386
1282.38	0.12
1291.13	0.015
1299.88	0.015
1308.63	0.013
1317.39	0.137
1326.14	0.289
1334.89	0.602
1343.64	0.765
1352.39	0.829
1361.14	0.851
1369.9	0.859
1378.65	0.856
1387.4	0.849
1396.15	0.826
1404.9	0.819
1413.65	0.853
1422.4	0.838
1431.16	0.797
1439.91	0.692
1448.66	0.321
1457.41	0.338
1466.16	0.434
1474.91	0.636
1483.66	0.722
1492.42	0.74
1501.17	0.718
1509.92	0.688
1518.67	0.651
1527.42	0.61
1536.17	0.539
1544.92	0.471
1553.68	0.472
1562.43	0.547
1571.18	0.616
1579.93	0.646
1588.68	0.677
1597.43	0.765
1606.18	0.841
1614.94	0.879
1623.69	0.908
1632.44	0.927
1641.19	0.939
1649.94	0.945
1658.69	0.949
1667.44	0.953
1676.2	0.956
1684.95	0.954
1693.7	0.953
1702.45	0.954
1711.2	0.956
1719.95	0.954
1728.71	0.954
1737.46	0.954
1746.21	0.956
1754.96	0.954
1763.71	0.95
1772.46	0.948
1781.21	0.941
1789.97	0.931
1798.72	0.911
1807.47	0.882
1816.22	0.863
1824.97	0.863
1833.72	0.868
1842.47	0.887
1851.23	0.909
1859.98	0.919
1868.73	0.92
1877.48	0.916
1886.23	0.909
1894.98	0.898
1903.73	0.885
1912.49	0.872
1921.24	0.881
1929.99	0.911
1938.74	0.928
1947.49	0.937
1956.24	0.939
1964.99	0.938
1973.75	0.939
1982.5	0.938
1991.25	0.942
2000	0.948
2008.75	0.949
2017.5	0.948
2026.25	0.948
2035.01	0.948
2043.76	0.948
2052.51	0.946
2061.26	0.946
2070.01	0.946
2078.76	0.949
2087.52	0.95
2096.27	0.953
2105.02	0.956
2113.77	0.956
2122.52	0.956
2131.27	0.956
2140.02	0.954
2148.78	0.956
2157.53	0.956
2166.28	0.9571
2175.03	0.959
2183.78	0.959
2192.53	0.957
2201.28	0.956
2210.04	0.953
2218.79	0.9491
2227.54	0.95
2236.29	0.949
2245.04	0.9459
2253.79	0.943
2262.54	0.941
2271.3	0.9389
2280.05	0.934
2288.8	0.931
2297.55	0.93
2306.3	0.9331
2315.05	0.9383
2323.8	0.942
2332.56	0.9433
2341.31	0.9437
2350.06	0.9539
2358.81	0.9531
2367.56	0.9529
2376.31	0.9478
2385.06	0.946
2393.82	0.948
2402.57	0.948
2411.32	0.948
2420.07	0.948
2428.82	0.948
2437.57	0.948
2446.32	0.946
2455.08	0.9447
2463.83	0.942
2472.58	0.942
2481.33	0.942
2490.08	0.9422
2498.83	0.943
2507.59	0.943
2516.34	0.943
2525.09	0.945
2533.84	0.945
2542.59	0.942
2551.34	0.9418
2560.09	0.939
2568.85	0.939
2577.6	0.938
2586.35	0.937
2595.1	0.9348
2603.85	0.9342
2612.6	0.935
2621.35	0.935
2630.11	0.937
2638.86	0.9412
2647.61	0.949
2656.36	0.95
2665.11	0.9504
2673.86	0.952
2682.61	0.953
2691.37	0.953
2700.12	0.952
2708.87	0.9522
2717.62	0.95
2726.37	0.95
2735.12	0.949
2743.87	0.949
2752.63	0.948
2761.38	0.948
2770.13	0.948
2778.88	0.9475
2787.63	0.943
2796.38	0.942
2805.13	0.9387
2813.89	0.9337
2822.64	0.9267
2831.39	0.9157
2840.14	0.895
2848.89	0.8259
2857.64	0.441
2866.4	0.8353
2875.15	0.8906
2883.9	0.8914
2892.65	0.8811
2901.4	0.8495
2910.15	0.845
2918.9	0.866
2927.66	0.8591
2936.41	0.8355
2945.16	0.754
2953.91	0.3559
2962.66	0.2018
2971.41	0.6511
2980.16	0.7937
2988.92	0.7811
2997.67	0.721
3006.42	0.6637
3015.17	0.6837
3023.92	0.6883
3032.67	0.7282
3041.42	0.8025
3050.18	0.8554
3058.93	0.879
3067.68	0.8907
3076.43	0.9004
3085.18	0.9074
3093.93	0.913
3102.68	0.9207
3111.44	0.9274
3120.19	0.9344
3128.94	0.9397
3137.69	0.943
3146.44	0.949
3155.19	0.95
3163.94	0.954
3172.7	0.9548
3181.45	0.957
3190.2	0.9578
3198.95	0.9596
3207.7	0.959
3216.45	0.96
3225.21	0.961
3233.96	0.963
3242.71	0.964
3251.46	0.964
3260.21	0.964
3268.96	0.964
3277.71	0.967
3286.47	0.967
3295.22	0.967
3303.97	0.9674
3312.72	0.968
3321.47	0.969
3330.22	0.969
3338.97	0.969
3347.73	0.971
3356.48	0.972
3365.23	0.971
3373.98	0.971
3382.73	0.9715
3391.48	0.971
3400.23	0.971
3408.99	0.9699
3417.74	0.9701
3426.49	0.969
3435.24	0.969
3443.99	0.9715
3452.74	0.969
3461.49	0.968
3470.25	0.968
3479	0.968
3487.75	0.9675
3496.5	0.967
3505.25	0.966
3514	0.965
3522.75	0.965
3531.51	0.968
3540.26	0.971
3549.01	0.9715
3557.76	0.976
3566.51	0.976
3575.26	0.9645
3584.01	0.9716
3592.77	0.976
3601.52	0.9699
3610.27	0.9755
3619.02	0.9755
3627.77	0.9785
3636.52	0.978
3645.28	0.978
3654.03	0.978
3662.78	0.979
3671.53	0.976
3680.28	0.975
3689.03	0.976
3697.78	0.9796
3706.54	0.979
3715.29	0.982
3724.04	0.979
3732.79	0.98
3741.54	0.98
3750.29	0.98
3759.04	0.9826
3767.8	0.983
3776.55	0.983
3785.3	0.982
3794.05	0.983
