Infrared Spectrum: PHOSPHOROCHLORIDIC ACID, DIETHYL ESTER
Formula: C4 H10 Cl O3 P
CAS: 814-49-3
Class: COBLENTZ
Instrument: Not specified, most likely a prism, grating, or hybrid spectrometer.
Sampling: TRANSMISSION
Path length: SMEAR
Resolution: 4
Origin: TENNESSEE EASTMAN COMPANY, RESEARCH LABORATORIES
MICROMETERS	TRANSMITTANCE
2.013	1.001
2.05288	1.001
2.09275	1.001
2.13263	1.001
2.17251	0.998
2.21239	0.988
2.25226	0.98
2.29214	0.976
2.33202	0.976
2.37189	0.978
2.41177	0.978
2.45165	0.976
2.49153	0.973
2.5314	0.985
2.57128	0.986
2.61116	1.001
2.65104	1.004
2.69091	1.011
2.73079	1.008
2.77067	0.981
2.81054	0.961
2.85042	0.96
2.8903	0.958
2.93018	0.956
2.97005	0.953
3.00993	0.96
3.04981	0.953
3.08968	0.955
3.12956	0.953
3.16944	0.953
3.20932	0.951
3.24919	0.95
3.28907	0.906
3.32895	0.635
3.36883	0.82
3.4087	0.793
3.44858	0.9
3.48846	0.928
3.52833	0.936
3.56821	0.948
3.60809	0.948
3.64797	0.953
3.68784	0.953
3.72772	0.958
3.7676	0.96
3.80747	0.96
3.84735	0.96
3.88723	0.96
3.92711	0.958
3.96698	0.96
4.00686	0.96
4.04674	0.96
4.08661	0.961
4.12649	0.966
4.16637	0.965
4.20625	0.961
4.24612	0.985
4.286	1.016
4.32588	1.016
4.36576	0.956
4.40563	0.96
4.44551	0.963
4.48539	0.963
4.52526	0.961
4.56514	0.961
4.60502	0.965
4.6449	0.96
4.68477	0.965
4.72465	0.965
4.76453	0.966
4.8044	0.965
4.84428	0.961
4.88416	0.961
4.92404	0.965
4.96391	0.953
5.00379	0.965
5.04367	0.958
5.08355	0.958
5.12342	0.953
5.1633	0.96
5.20318	0.96
5.24305	0.956
5.28293	0.953
5.32281	0.943
5.36269	0.94
5.40256	0.931
5.44244	0.931
5.48232	0.933
5.52219	0.936
5.56207	0.926
5.60195	0.938
5.64183	0.941
5.6817	0.943
5.72158	0.968
5.76146	0.953
5.80133	0.943
5.84121	0.958
5.88109	0.966
5.92097	0.961
5.96084	0.96
6.00072	0.961
6.0406	0.963
6.08048	0.948
6.12035	0.946
6.16023	0.951
6.20011	0.948
6.23998	0.951
6.27986	0.946
6.31974	0.951
6.35962	0.96
6.39949	0.958
6.43937	0.966
6.47925	0.97
6.51912	0.965
6.559	0.963
6.59888	0.968
6.63876	0.955
6.67863	0.91
6.71851	0.785
6.75839	0.831
6.79826	0.871
6.83814	0.855
6.87802	0.77
6.9179	0.82
6.95777	0.885
6.99765	0.906
7.03753	0.906
7.07741	0.861
7.11728	0.768
7.15716	0.722
7.19704	0.828
7.23691	0.83
7.27679	0.727
7.31667	0.833
7.35655	0.885
7.39642	0.901
7.4363	0.901
7.47618	0.881
7.51605	0.808
7.55593	0.695
7.59581	0.505
7.63569	0.352
7.67556	0.279
7.71544	0.262
7.75532	0.262
7.7952	0.274
7.83507	0.425
7.87495	0.603
7.91483	0.707
7.9547	0.753
7.99458	0.795
8.03446	0.825
8.07434	0.836
8.11421	0.845
8.15409	0.855
8.19397	0.86
8.23384	0.863
8.27372	0.863
8.3136	0.84
8.35348	0.83
8.39335	0.826
8.43323	0.801
8.47311	0.745
8.51298	0.643
8.55286	0.577
8.59274	0.628
8.63262	0.703
8.67249	0.737
8.71237	0.752
8.75225	0.762
8.79213	0.765
8.832	0.763
8.87188	0.753
8.91176	0.732
8.95163	0.702
8.99151	0.647
9.03139	0.589
9.07127	0.58
9.11114	0.61
9.15102	0.62
9.1909	0.603
9.23077	0.564
9.27065	0.499
9.31053	0.417
9.35041	0.332
9.39028	0.267
9.43016	0.216
9.47004	0.186
9.50992	0.166
9.54979	0.151
9.58967	0.131
9.62955	0.121
9.66942	0.104
9.7093	0.094
9.74918	0.098
9.78906	0.101
9.82893	0.123
9.86881	0.206
9.90869	0.301
9.94856	0.386
9.98844	0.442
10.0283	0.465
10.0682	0.454
10.1081	0.437
10.148	0.452
10.1878	0.49
10.2277	0.527
10.2676	0.537
10.3075	0.537
10.3473	0.537
10.3872	0.544
10.4271	0.554
10.467	0.56
10.5068	0.575
10.5467	0.597
10.5866	0.628
10.6265	0.665
10.6664	0.71
10.7062	0.742
10.7461	0.773
10.786	0.793
10.8259	0.81
10.8657	0.821
10.9056	0.833
10.9455	0.846
10.9854	0.853
11.0252	0.866
11.0651	0.871
11.105	0.878
11.1449	0.885
11.1848	0.89
11.2246	0.895
11.2645	0.896
11.3044	0.9
11.3443	0.901
11.3841	0.903
11.424	0.903
11.4639	0.906
11.5038	0.908
11.5437	0.908
11.5835	0.908
11.6234	0.91
11.6633	0.911
11.7032	0.913
11.743	0.913
11.7829	0.911
11.8228	0.911
11.8627	0.91
11.9025	0.905
11.9424	0.9
11.9823	0.88
12.0222	0.863
12.0621	0.846
12.1019	0.831
12.1418	0.818
12.1817	0.797
12.2216	0.755
12.2614	0.727
12.3013	0.707
12.3412	0.695
12.3811	0.682
12.421	0.672
12.4608	0.665
12.5007	0.663
12.5406	0.667
12.5805	0.675
12.6203	0.688
12.6602	0.697
12.7001	0.702
12.74	0.703
12.7798	0.702
12.8197	0.695
12.8596	0.675
12.8995	0.663
12.9394	0.642
12.9792	0.622
13.0191	0.6
13.059	0.58
13.0989	0.564
13.1387	0.562
13.1786	0.562
13.2185	0.564
13.2584	0.574
13.2982	0.589
13.3381	0.603
13.378	0.627
13.4179	0.655
13.4578	0.677
13.4976	0.7
13.5375	0.737
13.5774	0.745
13.6173	0.772
13.6571	0.785
13.697	0.798
13.7369	0.806
13.7768	0.811
13.8167	0.816
13.8565	0.82
13.8964	0.82
13.9363	0.82
13.9762	0.82
14.016	0.82
14.0559	0.82
14.0958	0.818
14.1357	0.816
14.1755	0.815
14.2154	0.811
14.2553	0.808
14.2952	0.801
14.3351	0.798
14.3749	0.797
14.4148	0.792
14.4547	0.79
14.4946	0.783
14.5344	0.778
14.5743	0.775
14.6142	0.768
14.6541	0.763
14.694	0.76
14.7338	0.752
14.7737	0.745
14.8136	0.743
14.8535	0.738
14.8933	0.732
14.9332	0.73
14.9731	0.73
15.013	0.73
15.0528	0.727
15.0927	0.722
15.1326	0.717
15.1725	0.713
15.2124	0.712
15.2522	0.705
15.2921	0.703
15.332	0.702
15.3719	0.7
15.4117	0.698
15.4516	0.697
15.4915	0.695
15.5314	0.693
15.5713	0.69
15.6111	0.69
15.651	0.69
15.6909	0.692
15.7308	0.69
15.7706	0.688
15.8105	0.687
15.8504	0.687
15.8903	0.687
15.9301	0.687
15.97	0.687
16.0099	0.687
