Infrared Spectrum: ACRYLYL CHLORIDE
Formula: C3 H3 Cl O
CAS: 814-68-6
State: SOLUTION (10% IN CCl4 FOR 4000-1310 CM^-^1, 10% IN CS2 FOR 1310-600 CM^-^1) VS. SOLVENT
Class: COBLENTZ III
Instrument: BECKMAN IR-7 (GRATING)
Instrument parameters: GRATING CHANGES AT 3000, 2200, 1150 CM^-^1
Sampling: TRANSMISSION
Path length: 0.011 CM, 0.010 CM
Resolution: 4
Origin: WESTERN REGIONAL RES. USDA
1/CM	TRANSMITTANCE
597.403	0.312
605.845	0.251
614.286	0.3129
622.728	0.492
631.169	0.579
639.611	0.629
648.052	0.657
656.494	0.664
664.936	0.667
673.377	0.5512
681.819	0.519
690.26	0.533
698.702	0.39
707.143	0.1369
715.585	0.45
724.026	0.61
732.468	0.602
740.91	0.437
749.351	0.524
757.793	0.448
766.234	0.677
774.676	0.748
783.117	0.768
791.559	0.771
800.001	0.767
808.442	0.757
816.884	0.755
825.325	0.759
833.767	0.771
842.208	0.775
850.65	0.761
859.091	0.723
867.533	0.656
875.975	0.676
884.416	0.649
892.858	0.623
901.299	0.58
909.741	0.576
918.182	0.435
926.624	0.079
935.066	0.049
943.507	0.211
951.949	0.166
960.39	0.01
968.832	0
977.273	0.028
985.715	0.1939
994.157	0.412
1002.6	0.543
1011.04	0.625
1019.48	0.675
1027.92	0.696
1036.36	0.678
1044.81	0.526
1053.25	0.622
1061.69	0.674
1070.13	0.686
1078.57	0.627
1087.01	0.725
1095.46	0.731
1103.9	0.73
1112.34	0.707
1120.78	0.65
1129.22	0.5151
1137.66	0.016
1146.1	0.088
1154.55	0.3989
1162.99	0.568
1171.43	0.633
1179.87	0.67
1188.31	0.719
1196.75	0.727
1205.2	0.746
1213.64	0.761
1222.08	0.757
1230.52	0.774
1238.96	0.752
1247.4	0.741
1255.85	0.781
1264.29	0.778
1272.73	0.764
1281.17	0.693
1289.61	0.707
1298.05	0.67
1306.49	0.733
1314.94	0.797
1323.38	0.822
1331.82	0.822
1340.26	0.811
1348.7	0.748
1357.14	0.802
1365.59	0.799
1374.03	0.783
1382.47	0.717
1390.91	0.07
1399.35	0.228
1407.79	0.459
1416.23	0.56
1424.68	0.638
1433.12	0.661
1441.56	0.665
1450	0.729
1458.44	0.775
1466.88	0.813
1475.33	0.827
1483.77	0.836
1492.21	0.848
1500.65	0.851
1509.09	0.838
1517.53	0.843
1525.98	0.86
1534.42	0.864
1542.86	0.866
1551.3	0.875
1559.74	0.877
1568.18	0.869
1576.62	0.864
1585.07	0.856
1593.51	0.838
1601.95	0.828
1610.39	0.71
1618.83	0.543
1627.27	0.665
1635.72	0.768
1644.16	0.724
1652.6	0.804
1661.04	0.813
1669.48	0.793
1677.92	0.754
1686.36	0.75
1694.81	0.737
1703.25	0.6051
1711.69	0.428
1720.13	0.484
1728.57	0.471
1737.01	0.401
1745.46	0.1841
1753.9	0.009
1762.34	0
1770.78	0
1779.22	0.007
1787.66	0.072
1796.11	0.169
1804.55	0.243
1812.99	0.413
1821.43	0.549
1829.87	0.645
1838.31	0.719
1846.75	0.757
1855.2	0.777
1863.64	0.773
1872.08	0.743
1880.52	0.738
1888.96	0.793
1897.4	0.824
1905.85	0.838
1914.29	0.843
1922.73	0.84
1931.17	0.831
1939.61	0.809
1948.05	0.772
1956.49	0.743
1964.94	0.772
1973.38	0.828
1981.82	0.858
1990.26	0.869
1998.7	0.873
2007.14	0.8748
2015.59	0.875
2024.03	0.875
2032.47	0.876
2040.91	0.877
2049.35	0.877
2057.79	0.876
2066.24	0.875
2074.68	0.8746
2083.12	0.873
2091.56	0.871
2100	0.8706
2108.44	0.87
2116.88	0.87
2125.33	0.87
2133.77	0.871
2142.21	0.872
2150.65	0.873
2159.09	0.873
2167.53	0.874
2175.98	0.875
2184.42	0.875
2192.86	0.877
2201.3	0.877
2209.74	0.878
2218.18	0.879
2226.62	0.8804
2235.07	0.881
2243.51	0.882
2251.95	0.883
2260.39	0.882
2268.83	0.882
2277.27	0.8807
2285.72	0.88
2294.16	0.878
2302.6	0.877
2311.04	0.877
2319.48	0.878
2327.92	0.879
2336.37	0.88
2344.81	0.88
2353.25	0.8787
2361.69	0.878
2370.13	0.878
2378.57	0.877
2387.01	0.875
2395.46	0.876
2403.9	0.8793
2412.34	0.882
2420.78	0.882
2429.22	0.883
2437.66	0.883
2446.11	0.882
2454.55	0.882
2462.99	0.881
2471.43	0.8801
2479.87	0.88
2488.31	0.88
2496.75	0.88
2505.2	0.8788
2513.64	0.878
2522.08	0.877
2530.52	0.8728
2538.96	0.8699
2547.4	0.8671
2555.85	0.8638
2564.29	0.86
2572.73	0.858
2581.17	0.857
2589.61	0.857
2598.05	0.858
2606.5	0.8602
2614.94	0.862
2623.38	0.863
2631.82	0.863
2640.26	0.8625
2648.7	0.8612
2657.14	0.858
2665.59	0.8555
2674.03	0.8512
2682.47	0.8477
2690.91	0.8425
2699.35	0.841
2707.79	0.8421
2716.24	0.8479
2724.68	0.85
2733.12	0.851
2741.56	0.851
2750	0.8502
2758.44	0.848
2766.89	0.8484
2775.33	0.8508
2783.77	0.851
2792.21	0.8516
2800.65	0.851
2809.09	0.85
2817.53	0.849
2825.98	0.8483
2834.42	0.848
2842.86	0.8476
2851.3	0.8463
2859.74	0.8439
2868.18	0.8382
2876.63	0.8333
2885.07	0.8289
2893.51	0.8236
2901.95	0.8213
2910.39	0.82
2918.83	0.8186
2927.27	0.817
2935.72	0.815
2944.16	0.813
2952.6	0.812
2961.04	0.811
2969.48	0.81
2977.92	0.806
2986.37	0.801
2994.81	0.7984
3003.25	0.796
3011.69	0.795
3020.13	0.7963
3028.57	0.8003
3037.02	0.8059
3045.46	0.808
3053.9	0.809
3062.34	0.81
3070.78	0.811
3079.22	0.8136
3087.66	0.8159
3096.11	0.817
3104.55	0.817
3112.99	0.8161
3121.43	0.8175
3129.87	0.8216
3138.31	0.8259
3146.76	0.8312
3155.2	0.836
3163.64	0.8389
3172.08	0.8422
3180.52	0.8466
3188.96	0.8509
3197.4	0.8554
3205.85	0.8585
3214.29	0.86
3222.73	0.8602
3231.17	0.8635
3239.61	0.866
3248.05	0.8692
3256.5	0.8715
3264.94	0.873
3273.38	0.875
3281.82	0.8765
3290.26	0.8778
3298.7	0.8792
3307.15	0.8815
3315.59	0.8828
3324.03	0.8852
3332.47	0.886
3340.91	0.887
3349.35	0.887
3357.79	0.887
3366.24	0.886
3374.68	0.8829
3383.12	0.88
3391.56	0.8818
3400	0.8882
3408.44	0.8914
3416.89	0.893
3425.33	0.894
3433.77	0.894
3442.21	0.8932
3450.65	0.893
3459.09	0.8926
3467.53	0.8895
3475.98	0.8777
3484.42	0.8611
3492.86	0.8383
3501.3	0.8259
3509.74	0.8268
3518.18	0.8317
3526.63	0.8401
3535.07	0.8499
3543.51	0.8591
3551.95	0.8692
3560.39	0.8805
3568.83	0.8904
3577.28	0.894
3585.72	0.8926
3594.16	0.8903
3602.6	0.889
3611.04	0.889
3619.48	0.889
3627.92	0.891
3636.37	0.8923
3644.81	0.893
3653.25	0.893
3661.69	0.893
3670.13	0.894
3678.57	0.895
3687.02	0.895
3695.46	0.895
3703.9	0.895
3712.34	0.895
3720.78	0.895
3729.22	0.895
3737.66	0.8947
3746.11	0.8934
3754.55	0.893
3762.99	0.893
3771.43	0.893
3779.87	0.893
3788.31	0.893
3796.76	0.894
3805.2	0.894
3813.64	0.895
3822.08	0.8946
3830.52	0.895
3838.96	0.895
3847.41	0.896
3855.85	0.896
3864.29	0.896
3872.73	0.895
3881.17	0.895
3889.61	0.895
3898.05	0.895
3906.5	0.895
3914.94	0.896
3923.38	0.896
3931.82	0.896
3940.26	0.895
3948.7	0.895
3957.15	0.895
3965.59	0.894
