Infrared Spectrum: 2-Cyanophenyl isothiocyanate
Formula: C 8 H 4 N 2 S
CAS: 81431-98-3
State: gas
Origin: EPA-IR VAPOR PHASE LIBRARY
1/CM	ABSORBANCE
549.8	0.005006
559.445	0.007616
569.09	0.007576
578.734	0.006316
588.379	0.005626
598.024	0.005156
607.669	0.004756
617.313	0.003626
626.958	0.002956
636.603	0.002026
646.248	0.001656
655.893	0.001516
665.537	0.002816
675.182	0.006916
684.827	0.005986
694.472	0.001756
704.116	0.001876
713.761	0.002826
723.406	0.002736
733.051	0.003806
742.695	0.018606
752.34	0.046786
761.985	0.039496
771.63	0.019166
781.275	0.006646
790.919	0.002566
800.564	0.002516
810.209	0.0012662
819.854	0.0006497
829.498	0.0007234
839.143	0.0007023
848.788	0.0009528
858.433	0.001155
868.078	0.0011098
877.722	0.0011917
887.367	0.001516
897.012	0.001696
906.657	0.002526
916.301	0.004066
925.946	0.006936
935.591	0.011196
945.236	0.016296
954.88	0.017006
964.525	0.012046
974.17	0.005626
983.815	0.002846
993.46	0.001736
1003.1	0.0012308
1012.75	0.0009502
1022.39	0.0012721
1032.04	0.0014268
1041.68	0.0011851
1051.33	0.0003948
1060.97	0.0007341
1070.62	0.0008263
1080.26	4.7e-05
1089.91	0.0007884
1099.55	0.001756
1109.2	0.002426
1118.84	0.0009761
1128.49	0.0006486
1138.13	0.0005405
1147.78	0.0008429
1157.42	0.002516
1167.07	0.002476
1176.71	0.001079
1186.36	0.0011249
1196	0.00092
1205.64	0.0013926
1215.29	0.001626
1224.93	0.002206
1234.58	0.002776
1244.22	0.003746
1253.87	0.006616
1263.51	0.007546
1273.16	0.007936
1282.8	0.007616
1292.45	0.004906
1302.09	0.002436
1311.74	0.001786
1321.38	0.0014123
1331.03	0.0013093
1340.67	0.0012555
1350.32	0.0010879
1359.96	0.0008871
1369.61	0.0007487
1379.25	0.0006391
1388.9	0.00066
1398.54	0.0008276
1408.18	0.0013592
1417.83	0.002456
1427.47	0.003896
1437.12	0.010006
1446.76	0.018016
1456.41	0.011576
1466.05	0.006746
1475.7	0.021366
1485.34	0.043026
1494.99	0.025566
1504.63	0.005496
1514.28	0.003216
1523.92	0.002516
1533.57	0.002596
1543.21	0.002936
1552.86	0.004686
1562.5	0.011906
1572.15	0.019356
1581.79	0.018786
1591.44	0.023746
1601.08	0.019016
1610.73	0.010286
1620.37	0.007116
1630.01	0.004946
1639.66	0.002976
1649.3	0.002056
1658.95	0.001636
1668.59	0.0014422
1678.24	0.001459
1687.88	0.001766
1697.53	0.002426
1707.17	0.002426
1716.82	0.002016
1726.46	0.002366
1736.11	0.002076
1745.75	0.001476
1755.4	0.0014219
1765.04	0.0014141
1774.69	0.001486
1784.33	0.001646
1793.98	0.001926
1803.62	0.002546
1813.27	0.002916
1822.91	0.002766
1832.55	0.003186
1842.2	0.004236
1851.84	0.005016
1861.49	0.005856
1871.13	0.006966
1880.78	0.008526
1890.42	0.011036
1900.07	0.013016
1909.71	0.014926
1919.36	0.019716
1929	0.025536
1938.65	0.031556
1948.29	0.040846
1957.94	0.055216
1967.58	0.073376
1977.23	0.098526
1986.87	0.130476
1996.52	0.164306
2006.16	0.207826
2015.81	0.280336
2025.45	0.376856
2035.1	0.373366
2044.74	0.258076
2054.38	0.168326
2064.03	0.132656
2073.67	0.136476
2083.32	0.154246
2092.96	0.153936
2102.61	0.127506
2112.25	0.091746
2121.9	0.064146
2131.54	0.049276
2141.19	0.038326
2150.83	0.028706
2160.48	0.023266
2170.12	0.019886
2179.77	0.016876
2189.41	0.014596
2199.06	0.012976
2208.7	0.011726
2218.35	0.010176
2227.99	0.009206
2237.64	0.008236
2247.28	0.006156
2256.92	0.004186
2266.57	0.003066
2276.21	0.002256
2285.86	0.001686
2295.5	0.0014584
2305.15	0.0012617
2314.79	0.0014206
2324.44	0.001636
2334.08	0.001616
2343.73	0.001736
2353.37	0.002146
2363.02	0.002226
2372.66	0.002126
2382.31	0.002016
2391.95	0.002116
2401.6	0.002236
2411.24	0.002596
2420.89	0.002736
2430.53	0.002586
2440.18	0.002256
2449.82	0.001916
2459.47	0.001946
2469.11	0.002086
2478.75	0.002396
2488.4	0.002746
2498.04	0.003266
2507.69	0.003696
2517.33	0.003636
2526.98	0.003706
2536.62	0.004316
2546.27	0.004696
2555.91	0.004116
2565.56	0.003556
2575.2	0.003446
2584.85	0.003326
2594.49	0.003446
2604.14	0.003116
2613.78	0.002426
2623.43	0.001906
2633.07	0.001816
2642.72	0.001816
2652.36	0.001726
2662.01	0.001716
2671.65	0.001826
2681.29	0.001946
2690.94	0.002226
2700.58	0.002936
2710.23	0.003476
2719.87	0.003396
2729.52	0.002786
2739.16	0.002376
2748.81	0.002306
2758.45	0.001966
2768.1	0.002116
2777.74	0.002026
2787.39	0.001906
2797.03	0.001846
2806.68	0.001516
2816.32	0.0012704
2825.97	0.0010232
2835.61	0.0009211
2845.26	0.0008923
2854.9	0.0008918
2864.55	0.0009121
2874.19	0.0008148
2883.84	0.0008567
2893.48	0.0007812
2903.12	0.0008079
2912.77	0.0009641
2922.41	0.0008449
2932.06	0.0009751
2941.7	0.0009722
2951.35	0.0011626
2960.99	0.0014683
2970.64	0.001836
2980.28	0.001726
2989.93	0.001886
2999.57	0.001606
3009.22	0.0011702
3018.86	0.0013029
3028.51	0.001616
3038.15	0.002126
3047.8	0.002036
3057.44	0.002166
3067.09	0.003416
3076.73	0.006046
3086.38	0.006756
3096.02	0.003126
3105.67	0.001506
3115.31	0.0008528
3124.95	0.0008046
3134.6	0.0008218
3144.24	0.0006777
3153.89	0.0004403
3163.53	0.0004188
3173.18	0.000225
3182.82	0.000294
3192.47	0.000183
3202.11	0.000359
3211.76	0.000361
3221.4	0.000171
3231.05	0.000202
3240.69	0.000186
3250.34	5e-06
3259.98	0
3269.63	0.000205
3279.27	0.000145
3288.92	0.000107
3298.56	0.000257
3308.21	0.000285
3317.85	0.000223
3327.49	0.000363
3337.14	0.000184
3346.78	0.000283
3356.43	0.000364
3366.07	0.000283
3375.72	0.000413
3385.36	0.0003995
3395.01	0.0003971
3404.65	0.00035
3414.3	0.000287
3423.94	0.00052268
3433.59	0.0003879
3443.23	0.0003841
3452.88	0.000181
3462.52	0.000252
3472.17	0.0003878
3481.81	0.0003839
3491.46	0.000353
3501.1	0.00022
3510.75	0.00052775
3520.39	0.000312
3530.04	0.00036
3539.68	0.000373
3549.32	9.8e-05
3558.97	0.000371
3568.61	0.000302
3578.26	0.000324
3587.9	0.0004356
3597.55	0.0004107
3607.19	0.000351
3616.84	0.000362
3626.48	0.0004407
3636.13	0.0004294
3645.77	0.000319
3655.42	0.000314
3665.06	0.000301
3674.71	0.000261
3684.35	0.000357
3694	0.000315
3703.64	0.0004479
3713.29	0.0004032
3722.93	0.0004373
3732.58	0.000368
3742.22	0.000225
3751.86	0.0004248
3761.51	0.0004056
3771.15	0.0006299
3780.8	0.000306
3790.44	0.00046636
3800.09	0.00054195
3809.73	0.0003983
3819.38	0.00038
3829.02	0.0004657
3838.67	0.0007322
3848.31	0.0006595
3857.96	0.0008563
3867.6	0.000784
3877.25	0.0006398
3886.89	0.00056454
3896.54	0.0008407
3906.18	0.0006782
3915.83	0.0007422
3925.47	0.0009074
3935.12	0.0010153
3944.76	0.0009836
3954.41	0.0009661
3964.05	0.0014495
3973.69	0.0012181
3983.34	0.0013635
3992.98	0.001526
