Infrared Spectrum: 2-(4-Methylphenylthio)phenyl isothiocyanate
Formula: C 14 H 11 N S 2
CAS: 81431-97-2
State: gas
Origin: EPA-IR VAPOR PHASE LIBRARY
1/CM	ABSORBANCE
549.8	0.013882
559.445	0.012972
569.09	0.010182
578.734	0.008332
588.379	0.006972
598.024	0.005622
607.669	0.004222
617.313	0.003422
626.958	0.003762
636.603	0.003242
646.248	0.004142
655.893	0.008062
665.537	0.007062
675.182	0.003412
684.827	0.003692
694.472	0.006462
704.116	0.009822
713.761	0.016512
723.406	0.021322
733.051	0.021352
742.695	0.047492
752.34	0.082672
761.985	0.018912
771.63	0.007372
781.275	0.008352
790.919	0.014922
800.564	0.034612
810.209	0.032592
819.854	0.010962
829.498	0.005552
839.143	0.003722
848.788	0.003252
858.433	0.003232
868.078	0.002452
877.722	0.002192
887.367	0.003022
897.012	0.004442
906.657	0.006372
916.301	0.008702
925.946	0.015852
935.591	0.033052
945.236	0.039122
954.88	0.020062
964.525	0.009412
974.17	0.005672
983.815	0.004362
993.46	0.003732
1003.1	0.005132
1012.75	0.016772
1022.39	0.015812
1032.04	0.012302
1041.68	0.007922
1051.33	0.005712
1060.97	0.009872
1070.62	0.015232
1080.26	0.006322
1089.91	0.008782
1099.55	0.005702
1109.2	0.004752
1118.84	0.004772
1128.49	0.004592
1138.13	0.002642
1147.78	0.002062
1157.42	0.002212
1167.07	0.002482
1176.71	0.004922
1186.36	0.007192
1196	0.003492
1205.64	0.006362
1215.29	0.005602
1224.93	0.005282
1234.58	0.004562
1244.22	0.004802
1253.87	0.005252
1263.51	0.008112
1273.16	0.010952
1282.8	0.008472
1292.45	0.005432
1302.09	0.004372
1311.74	0.002942
1321.38	0.002262
1331.03	0.002142
1340.67	0.002132
1350.32	0.002242
1359.96	0.002472
1369.61	0.003002
1379.25	0.004272
1388.9	0.005912
1398.54	0.008392
1408.18	0.008732
1417.83	0.008902
1427.47	0.013422
1437.12	0.025292
1446.76	0.021052
1456.41	0.036622
1466.05	0.067312
1475.7	0.037232
1485.34	0.037752
1494.99	0.047432
1504.63	0.018902
1514.28	0.008622
1523.92	0.005712
1533.57	0.005192
1543.21	0.006342
1552.86	0.010452
1562.5	0.020452
1572.15	0.031262
1581.79	0.036922
1591.44	0.015732
1601.08	0.009112
1610.73	0.007142
1620.37	0.005902
1630.01	0.005182
1639.66	0.004242
1649.3	0.003272
1658.95	0.002712
1668.59	0.002492
1678.24	0.002962
1687.88	0.003572
1697.53	0.003272
1707.17	0.003102
1716.82	0.003292
1726.46	0.003132
1736.11	0.002712
1745.75	0.002872
1755.4	0.002962
1765.04	0.003162
1774.69	0.004002
1784.33	0.004542
1793.98	0.004542
1803.62	0.004152
1813.27	0.003982
1822.91	0.004352
1832.55	0.004612
1842.2	0.004682
1851.84	0.005422
1861.49	0.006702
1871.13	0.008582
1880.78	0.010862
1890.42	0.011472
1900.07	0.011992
1909.71	0.012792
1919.36	0.013952
1929	0.017532
1938.65	0.023832
1948.29	0.030712
1957.94	0.039622
1967.58	0.053502
1977.23	0.072372
1986.87	0.096862
1996.52	0.128282
2006.16	0.165562
2015.81	0.210022
2025.45	0.268182
2035.1	0.338722
2044.74	0.400952
2054.38	0.413762
2064.03	0.361692
2073.67	0.295552
2083.32	0.253392
2092.96	0.236552
2102.61	0.229802
2112.25	0.210212
2121.9	0.169872
2131.54	0.126452
2141.19	0.092932
2150.83	0.069042
2160.48	0.053262
2170.12	0.044762
2179.77	0.040532
2189.41	0.033912
2199.06	0.025572
2208.7	0.020872
2218.35	0.017192
2227.99	0.012422
2237.64	0.008362
2247.28	0.005942
2256.92	0.004552
2266.57	0.003782
2276.21	0.003512
2285.86	0.003522
2295.5	0.003702
2305.15	0.003892
2314.79	0.003492
2324.44	0.003162
2334.08	0.003012
2343.73	0.002932
2353.37	0.002612
2363.02	0.002402
2372.66	0.002332
2382.31	0.002372
2391.95	0.002722
2401.6	0.002812
2411.24	0.002862
2420.89	0.002842
2430.53	0.002672
2440.18	0.002952
2449.82	0.003162
2459.47	0.003642
2469.11	0.003962
2478.75	0.004262
2488.4	0.004252
2498.04	0.004502
2507.69	0.004832
2517.33	0.005042
2526.98	0.004952
2536.62	0.005002
2546.27	0.005322
2555.91	0.005422
2565.56	0.005572
2575.2	0.005812
2584.85	0.005682
2594.49	0.005082
2604.14	0.004252
2613.78	0.003272
2623.43	0.002482
2633.07	0.001932
2642.72	0.001922
2652.36	0.001792
2662.01	0.001832
2671.65	0.001852
2681.29	0.002022
2690.94	0.002112
2700.58	0.002452
2710.23	0.002752
2719.87	0.003122
2729.52	0.003272
2739.16	0.003712
2748.81	0.003812
2758.45	0.003672
2768.1	0.003802
2777.74	0.003672
2787.39	0.003252
2797.03	0.002912
2806.68	0.002402
2816.32	0.002212
2825.97	0.002362
2835.61	0.002732
2845.26	0.003242
2854.9	0.004702
2864.55	0.007222
2874.19	0.010222
2883.84	0.010502
2893.48	0.009082
2903.12	0.008332
2912.77	0.009582
2922.41	0.014302
2932.06	0.022702
2941.7	0.017682
2951.35	0.009762
2960.99	0.007962
2970.64	0.007972
2980.28	0.008742
2989.93	0.009532
2999.57	0.010942
3009.22	0.013402
3018.86	0.019022
3028.51	0.024182
3038.15	0.016992
3047.8	0.015242
3057.44	0.018532
3067.09	0.029892
3076.73	0.030122
3086.38	0.014472
3096.02	0.007062
3105.67	0.004732
3115.31	0.003602
3124.95	0.003202
3134.6	0.002202
3144.24	0.0011951
3153.89	0.000708
3163.53	0.0006391
3173.18	0.00052766
3182.82	0.0004042
3192.47	0.00044995
3202.11	0.000276
3211.76	0.0003437
3221.4	0.000267
3231.05	0.000208
3240.69	0.000193
3250.34	3e-05
3259.98	0.000117
3269.63	0.000176
3279.27	0.0003432
3288.92	0.000157
3298.56	0.000103
3308.21	0.000163
3317.85	0.000401
3327.49	0.000103
3337.14	0.0003419
3346.78	0.000245
3356.43	0.000364
3366.07	0.000315
3375.72	0.000248
3385.36	0.000302
3395.01	0.000318
3404.65	0.000271
3414.3	0.000202
3423.94	0.000305
3433.59	0.000324
3443.23	0.00029
3452.88	0.000272
3462.52	0.000301
3472.17	0.000235
3481.81	0.0003901
3491.46	0.000181
3501.1	0.000192
3510.75	0.00042854
3520.39	0.000182
3530.04	0.000145
3539.68	0.000236
3549.32	0.0003505
3558.97	0.000281
3568.61	0.000119
3578.26	9.6e-05
3587.9	0.000244
3597.55	0.000299
3607.19	0.000223
3616.84	0.000164
3626.48	0.000237
3636.13	0.000312
3645.77	0.000209
3655.42	0.0003328
3665.06	0.00049898
3674.71	0.000559
3684.35	0.00052784
3694	0.0003341
3703.64	0.0003886
3713.29	0.000591
3722.93	0.00044819
3732.58	0.00047805
3742.22	0.0005574
3751.86	0.0003574
3761.51	0.000316
3771.15	0.000579
3780.8	0.0005451
3790.44	0.000555
3800.09	0.0007877
3809.73	0.00049801
3819.38	0.000403
3829.02	0.0007867
3838.67	0.0005791
3848.31	0.00052929
3857.96	0.0007044
3867.6	0.0007848
3877.25	0.0007435
3886.89	0.0006546
3896.54	0.0007972
3906.18	0.0007562
3915.83	0.0008433
3925.47	0.0008305
3935.12	0.0009484
3944.76	0.0008998
3954.41	0.0012461
3964.05	0.0012422
3973.69	0.0012685
3983.34	0.001452
3992.98	0.001582
