Infrared Spectrum: Alpha-(2-BROMOETHYL)-Gamma-HYDROXY BUTYRIC ACID LACTONE
Formula: C6 H9 Br O2
CAS: 81478-17-3
State: SOLUTION (10% CCl4 FOR 5000-1330, 10% CS2 FOR 1330-625 CM^-^1)
Class: COBLENTZ
Instrument: Not specified, most likely a prism, grating, or hybrid spectrometer.
Sampling: TRANSMISSION
Path length: 0.0121 CM, 0.0116 CM
Resolution: 4
Origin: DOW CHEMICAL COMPANY
MICROMETERS	TRANSMITTANCE
2.027	0.843
2.06808	0.848
2.10916	0.85
2.15023	0.85
2.19131	0.847
2.23239	0.838
2.27347	0.831
2.31454	0.838
2.35562	0.838
2.3967	0.841
2.43778	0.85
2.47885	0.853
2.51993	0.859
2.56101	0.859
2.60209	0.852
2.64317	0.869
2.68424	0.865
2.72532	0.864
2.7664	0.852
2.80748	0.853
2.84855	0.817
2.88963	0.833
2.93071	0.841
2.97179	0.838
3.01286	0.838
3.05394	0.841
3.09502	0.84
3.1361	0.843
3.17718	0.848
3.21825	0.852
3.25933	0.859
3.30041	0.847
3.34149	0.769
3.38256	0.568
3.42364	0.621
3.46472	0.577
3.5058	0.785
3.54687	0.85
3.58795	0.876
3.62903	0.878
3.67011	0.879
3.71119	0.881
3.75226	0.886
3.79334	0.886
3.83442	0.888
3.8755	0.888
3.91657	0.886
3.95765	0.884
3.99873	0.884
4.03981	0.884
4.08088	0.883
4.12196	0.883
4.16304	0.886
4.20412	0.878
4.2452	0.869
4.28627	0.876
4.32735	0.869
4.36843	0.857
4.40951	0.865
4.45058	0.881
4.49166	0.888
4.53274	0.89
4.57382	0.891
4.61489	0.891
4.65597	0.891
4.69705	0.888
4.73813	0.891
4.77921	0.891
4.82028	0.886
4.86136	0.89
4.90244	0.883
4.94352	0.888
4.98459	0.89
5.02567	0.886
5.06675	0.883
5.10783	0.89
5.1489	0.888
5.18998	0.888
5.23106	0.884
5.27214	0.879
5.31322	0.862
5.35429	0.841
5.39537	0.821
5.43645	0.797
5.47753	0.756
5.5186	0.683
5.55968	0.513
5.60076	0.269
5.64184	0.039
5.68291	0.041
5.72399	0.225
5.76507	0.515
5.80615	0.689
5.84723	0.745
5.8883	0.798
5.92938	0.817
5.97046	0.826
6.01154	0.845
6.05261	0.853
6.09369	0.855
6.13477	0.86
6.17585	0.852
6.21692	0.816
6.258	0.761
6.29908	0.685
6.34016	0.634
6.38124	0.611
6.42231	0.573
6.46339	0.517
6.50447	0.493
6.54555	0.546
6.58662	0.592
6.6277	0.646
6.66878	0.706
6.70986	0.75
6.75094	0.738
6.79201	0.752
6.83309	0.8
6.87417	0.711
6.91525	0.639
6.95632	0.635
6.9974	0.582
7.03848	0.781
7.07956	0.841
7.12063	0.84
7.16171	0.826
7.20279	0.8
7.24387	0.616
7.28495	0.352
7.32602	0.446
7.3671	0.757
7.40818	0.812
7.44926	0.821
7.49033	0.798
7.53141	0.8
7.57249	0.804
7.61357	0.786
7.65464	0.745
7.69572	0.731
7.7368	0.8
7.77788	0.795
7.81896	0.706
7.86003	0.599
7.90111	0.58
7.94219	0.565
7.98327	0.46
8.02434	0.656
8.06542	0.754
8.1065	0.721
8.14758	0.635
8.18865	0.517
8.22973	0.46
8.27081	0.405
8.31189	0.335
8.35297	0.235
8.39404	0.295
8.43512	0.371
8.4762	0.309
8.51728	0.185
8.55835	0.144
8.59943	0.213
8.64051	0.25
8.68159	0.214
8.72266	0.154
8.76374	0.104
8.80482	0.103
8.8459	0.269
8.88698	0.439
8.92805	0.556
8.96913	0.608
9.01021	0.613
9.05129	0.601
9.09236	0.628
9.13344	0.701
9.17452	0.735
9.2156	0.745
9.25667	0.759
9.29775	0.778
9.33883	0.778
9.37991	0.771
9.42099	0.771
9.46206	0.773
9.50314	0.752
9.54422	0.73
9.5853	0.687
9.62637	0.589
9.66745	0.422
9.70853	0.226
9.74961	0.085
9.79068	0.099
9.83176	0.264
9.87284	0.417
9.91392	0.505
9.955	0.553
9.99607	0.587
10.0372	0.634
10.0782	0.661
10.1193	0.687
10.1604	0.745
10.2015	0.773
10.2425	0.783
10.2836	0.783
10.3247	0.752
10.3658	0.699
10.4068	0.666
10.4479	0.711
10.489	0.728
10.5301	0.692
10.5712	0.651
10.6122	0.639
10.6533	0.632
10.6944	0.64
10.7355	0.699
10.7765	0.723
10.8176	0.754
10.8587	0.762
10.8998	0.759
10.9409	0.742
10.9819	0.743
11.023	0.756
11.0641	0.78
11.1052	0.798
11.1462	0.79
11.1873	0.761
11.2284	0.738
11.2695	0.743
11.3106	0.762
11.3516	0.769
11.3927	0.769
11.4338	0.761
11.4749	0.747
11.5159	0.733
11.557	0.725
11.5981	0.725
11.6392	0.719
11.6803	0.713
11.7213	0.713
11.7624	0.719
11.8035	0.743
11.8446	0.774
11.8856	0.8
11.9267	0.812
11.9678	0.816
12.0089	0.816
12.05	0.814
12.091	0.824
12.1321	0.847
12.1732	0.86
12.2143	0.874
12.2553	0.881
12.2964	0.884
12.3375	0.884
12.3786	0.884
12.4197	0.884
12.4607	0.883
12.5018	0.879
12.5429	0.872
12.584	0.864
12.625	0.86
12.6661	0.859
12.7072	0.855
12.7483	0.853
12.7894	0.853
12.8304	0.85
12.8715	0.843
12.9126	0.833
12.9537	0.819
12.9947	0.807
13.0358	0.79
13.0769	0.776
13.118	0.771
13.1591	0.771
13.2001	0.78
13.2412	0.776
13.2823	0.752
13.3234	0.743
13.3644	0.752
13.4055	0.776
13.4466	0.798
13.4877	0.807
13.5288	0.809
13.5698	0.809
13.6109	0.805
13.652	0.8
13.6931	0.793
13.7341	0.785
13.7752	0.774
13.8163	0.768
13.8574	0.761
13.8985	0.752
13.9395	0.742
13.9806	0.73
14.0217	0.711
14.0628	0.687
14.1038	0.646
14.1449	0.599
14.186	0.548
14.2271	0.517
14.2682	0.525
14.3092	0.579
14.3503	0.625
14.3914	0.649
14.4325	0.659
14.4735	0.664
14.5146	0.666
14.5557	0.661
14.5968	0.651
14.6379	0.644
14.6789	0.634
14.72	0.621
14.7611	0.608
14.8022	0.596
14.8432	0.58
14.8843	0.565
14.9254	0.549
14.9665	0.532
15.0076	0.513
15.0486	0.489
15.0897	0.47
15.1308	0.458
15.1719	0.455
15.2129	0.45
15.254	0.441
15.2951	0.438
15.3362	0.436
15.3773	0.434
15.4183	0.432
15.4594	0.432
15.5005	0.432
15.5416	0.434
15.5826	0.438
15.6237	0.438
15.6648	0.439
15.7059	0.439
15.747	0.439
15.788	0.438
15.8291	0.434
15.8702	0.431
15.9113	0.429
