Infrared Spectrum: 2-Chloro-4-trifluoromethylpyridine
Formula: C 6 H 3 Cl F 3 N
CAS: 81565-18-6
State: gas
Origin: EPA-IR VAPOR PHASE LIBRARY
1/CM	ABSORBANCE
549.8	0.0014985
559.445	0.00076
569.09	0.001536
578.734	0.0021136
588.379	0.001285
598.024	0.001052
607.669	0.001262
617.313	0.001003
626.958	0.001457
636.603	0.0021323
646.248	0.00374
655.893	0.00811
665.537	0.0096
675.182	0.00314
684.827	0.0017643
694.472	0.0019763
704.116	0.001187
713.761	0.002405
723.406	0.00854
733.051	0.01388
742.695	0.00628
752.34	0.00163966
761.985	0.0017868
771.63	0.00157931
781.275	0.001347
790.919	0.0020881
800.564	0.0024972
810.209	0.00683
819.854	0.01811
829.498	0.01559
839.143	0.01115
848.788	0.00893
858.433	0.00504
868.078	0.00306
877.722	0.00451
887.367	0.00619
897.012	0.00456
906.657	0.003
916.301	0.0022172
925.946	0.00272
935.591	0.001345
945.236	0.00165678
954.88	0.0016813
964.525	0.0022531
974.17	0.0019957
983.815	0.0024812
993.46	0.00265
1003.1	0.0020833
1012.75	0.0019662
1022.39	0.0023304
1032.04	0.0022688
1041.68	0.0019866
1051.33	0.00361
1060.97	0.00303
1070.62	0.00679
1080.26	0.01576
1089.91	0.01419
1099.55	0.01073
1109.2	0.00845
1118.84	0.00668
1128.49	0.01066
1138.13	0.0194
1147.78	0.03069
1157.42	0.06996
1167.07	0.08858
1176.71	0.0725
1186.36	0.03934
1196	0.01223
1205.64	0.0037
1215.29	0.00537
1224.93	0.00845
1234.58	0.01296
1244.22	0.00721
1253.87	0.00548
1263.51	0.00591
1273.16	0.01143
1282.8	0.01214
1292.45	0.00964
1302.09	0.01163
1311.74	0.03958
1321.38	0.10296
1331.03	0.09179
1340.67	0.01863
1350.32	0.00594
1359.96	0.01229
1369.61	0.03572
1379.25	0.03885
1388.9	0.01364
1398.54	0.00578
1408.18	0.00393
1417.83	0.00331
1427.47	0.00268
1437.12	0.002076
1446.76	0.00288
1456.41	0.00466
1466.05	0.00628
1475.7	0.0055
1485.34	0.00305
1494.99	0.0022054
1504.63	0.0022115
1514.28	0.0017495
1523.92	0.0022541
1533.57	0.0024401
1543.21	0.00417
1552.86	0.0079
1562.5	0.01143
1572.15	0.00834
1581.79	0.00464
1591.44	0.00634
1601.08	0.00665
1610.73	0.00359
1620.37	0.0023264
1630.01	0.001396
1639.66	0.0015149
1649.3	0.001201
1658.95	0.00158358
1668.59	0.0018955
1678.24	0.0020527
1687.88	0.00159807
1697.53	0.00160892
1707.17	0.00157718
1716.82	0.00163355
1726.46	0.001274
1736.11	0.001402
1745.75	0.001343
1755.4	0.0018407
1765.04	0.001969
1774.69	0.0019195
1784.33	0.0015305
1793.98	0.0018153
1803.62	0.0019477
1813.27	0.0018169
1822.91	0.00163743
1832.55	0.001418
1842.2	0.001324
1851.84	0.001336
1861.49	0.00156561
1871.13	0.001306
1880.78	0.0016808
1890.42	0.0017225
1900.07	0.001837
1909.71	0.0017414
1919.36	0.0021242
1929	0.0020794
1938.65	0.0020159
1948.29	0.001867
1957.94	0.0019113
1967.58	0.0016763
1977.23	0.0018097
1986.87	0.0020473
1996.52	0.00161778
2006.16	0.001848
2015.81	0.00159028
2025.45	0.001406
2035.1	0.0014946
2044.74	0.0016897
2054.38	0.001536
2064.03	0.0017638
2073.67	0.0018575
2083.32	0.0015176
2092.96	0.0018609
2102.61	0.0016843
2112.25	0.0014933
2121.9	0.0015179
2131.54	0.0017035
2141.19	0.001726
2150.83	0.0019004
2160.48	0.0017526
2170.12	0.0015429
2179.77	0.00163107
2189.41	0.0018839
2199.06	0.0016845
2208.7	0.0017908
2218.35	0.0018229
2227.99	0.001827
2237.64	0.0018399
2247.28	0.0018611
2256.92	0.0017287
2266.57	0.0015441
2276.21	0.001354
2285.86	0.0017251
2295.5	0.0018366
2305.15	0.0018929
2314.79	0.00164688
2324.44	0.0018116
2334.08	0.00165206
2343.73	0.0017803
2353.37	0.0019287
2363.02	0.0018313
2372.66	0.0018053
2382.31	0.0016985
2391.95	0.0017828
2401.6	0.0018284
2411.24	0.002013
2420.89	0.0019046
2430.53	0.0016714
2440.18	0.001712
2449.82	0.0016622
2459.47	0.001819
2469.11	0.0017423
2478.75	0.001833
2488.4	0.0017018
2498.04	0.0016924
2507.69	0.0015009
2517.33	0.0019564
2526.98	0.00155837
2536.62	0.0018532
2546.27	0.0019077
2555.91	0.00165937
2565.56	0.0015388
2575.2	0.0018205
2584.85	0.0014763
2594.49	0.0015323
2604.14	0.0015695
2613.78	0.001979
2623.43	0.0021177
2633.07	0.00163158
2642.72	0.001972
2652.36	0.001521
2662.01	0.0017131
2671.65	0.0019492
2681.29	0.00157606
2690.94	0.0018475
2700.58	0.0014742
2710.23	0.00161949
2719.87	0.0017629
2729.52	0.001843
2739.16	0.0019902
2748.81	0.00161408
2758.45	0.0018626
2768.1	0.001323
2777.74	0.001362
2787.39	0.0016233
2797.03	0.000992
2806.68	0.00159083
2816.32	0.00158638
2825.97	0.002016
2835.61	0.00164385
2845.26	0.001381
2854.9	0.001148
2864.55	0.0016208
2874.19	0.001404
2883.84	0.001397
2893.48	0.0019316
2903.12	0.0017627
2912.77	0.002011
2922.41	0.0016857
2932.06	0.0023447
2941.7	0.001434
2951.35	0.0017376
2960.99	0.0017303
2970.64	0.00096
2980.28	0.0019513
2989.93	0.0022443
2999.57	0.0019978
3009.22	0.00164839
3018.86	0.0018566
3028.51	0.0020416
3038.15	0.0024422
3047.8	0.002159
3057.44	0.00256
3067.09	0.00304
3076.73	0.00346
3086.38	0.00339
3096.02	0.0026
3105.67	0.00164637
3115.31	0.0021837
3124.95	0.0017538
3134.6	0.00156038
3144.24	0.0017322
3153.89	0.001419
3163.53	0.001267
3173.18	0.0017052
3182.82	0.0018115
3192.47	0.00155747
3202.11	0.001427
3211.76	0.0016483
3221.4	0.0016802
3231.05	0.0015498
3240.69	0.001476
3250.34	0.0021519
3259.98	0.0020173
3269.63	0.0015334
3279.27	0.001438
3288.92	0.0017029
3298.56	0.0021898
3308.21	0.0019519
3317.85	0.001397
3327.49	0.00071
3337.14	0.00142
3346.78	0.0018868
3356.43	0.00155592
3366.07	0.00138
3375.72	0.001371
3385.36	0.001108
3395.01	0.00161484
3404.65	0.0020072
3414.3	0.001237
3423.94	0.0015174
3433.59	0.001785
3443.23	0.001297
3452.88	0.001332
3462.52	0.0018842
3472.17	0.001346
3481.81	0.001296
3491.46	0.001446
3501.1	0.0018487
3510.75	0.001024
3520.39	0.00143
3530.04	0.001177
3539.68	0.001427
3549.32	0.001205
3558.97	0.00161429
3568.61	0.0018132
3578.26	0.001149
3587.9	0.001338
3597.55	0.0018912
3607.19	0.000865
3616.84	0.001314
3626.48	0.001264
3636.13	0.00159158
3645.77	0.001294
3655.42	0.0017318
3665.06	0.001446
3674.71	0.0018643
3684.35	0.0018281
3694	0.0017579
3703.64	0.0018213
3713.29	0.00161917
3722.93	0.0019858
3732.58	0.001297
3742.22	0.0017932
3751.86	0.001534
3761.51	0.001235
3771.15	0.001146
3780.8	0.0021176
3790.44	0.00155377
3800.09	0.001274
3809.73	0.0020617
3819.38	0.001292
3829.02	0.00084
3838.67	0.0014618
3848.31	0.0019975
3857.96	0.0016652
3867.6	0.001861
3877.25	0.001402
3886.89	0.001451
3896.54	0.0015234
3906.18	0.0019705
3915.83	0.001288
3925.47	0.00165985
3935.12	0.0020857
3944.76	0.001248
3954.41	0.0018121
3964.05	0.0017319
3973.69	0.0016669
3983.34	0.000854
3992.98	0.001381
