Infrared Spectrum: Alpha-HYDROXY-ISOBUTYRIC ACID, n-BUTYL ESTER
Formula: C8 H16 O3
CAS: 816-50-2
State: LIQUID
Class: COBLENTZ
Instrument: Not specified, most likely a prism, grating, or hybrid spectrometer.
Sampling: TRANSMISSION
Path length: 0.003 CM
Resolution: 4
Origin: WYANDOTTE CHEMICALS CORP., WYANDOTTE, MICHIGAN, USA
MICROMETERS	TRANSMITTANCE
2.007	0.994
2.04791	0.996
2.08883	0.996
2.12974	0.994
2.17066	0.981
2.21157	0.961
2.25248	0.967
2.2934	0.967
2.33431	0.964
2.37523	0.964
2.41614	0.967
2.45705	0.964
2.49797	0.961
2.53888	0.962
2.5798	0.967
2.62071	0.976
2.66163	0.971
2.70254	0.957
2.74345	0.851
2.78437	0.505
2.82528	0.236
2.8662	0.236
2.90711	0.289
2.94802	0.406
2.98894	0.554
3.02985	0.725
3.07077	0.829
3.11168	0.849
3.15259	0.862
3.19351	0.868
3.23442	0.846
3.27534	0.795
3.31625	0.35
3.35716	0.042
3.39808	0.164
3.43899	0.299
3.47991	0.336
3.52082	0.698
3.56174	0.805
3.60265	0.832
3.64356	0.844
3.68448	0.871
3.72539	0.898
3.76631	0.913
3.80722	0.917
3.84813	0.915
3.88905	0.917
3.92996	0.913
3.97088	0.908
4.01179	0.906
4.0527	0.913
4.09362	0.91
4.13453	0.91
4.17545	0.903
4.21636	0.91
4.25727	0.917
4.29819	0.928
4.3391	0.932
4.38002	0.925
4.42093	0.915
4.46185	0.92
4.50276	0.928
4.54367	0.932
4.58459	0.927
4.6255	0.927
4.66642	0.925
4.70733	0.922
4.74824	0.92
4.78916	0.92
4.83007	0.922
4.87099	0.92
4.9119	0.92
4.95281	0.927
4.99373	0.927
5.03464	0.912
5.07556	0.913
5.11647	0.915
5.15738	0.913
5.1983	0.913
5.23921	0.91
5.28013	0.908
5.32104	0.903
5.36196	0.901
5.40287	0.891
5.44378	0.881
5.4847	0.873
5.52561	0.844
5.56653	0.808
5.60744	0.739
5.64835	0.609
5.68927	0.372
5.73018	0.049
5.7711	0.037
5.81201	0.089
5.85292	0.335
5.89384	0.548
5.93475	0.658
5.97567	0.746
6.01658	0.785
6.05749	0.808
6.09841	0.827
6.13932	0.83
6.18024	0.832
6.22115	0.835
6.26207	0.832
6.30298	0.83
6.34389	0.827
6.38481	0.818
6.42572	0.802
6.46664	0.732
6.50755	0.756
6.54846	0.78
6.58938	0.768
6.63029	0.736
6.67121	0.654
6.71212	0.436
6.75303	0.189
6.79395	0.123
6.83486	0.275
6.87578	0.402
6.91669	0.456
6.9576	0.56
6.99852	0.612
7.03943	0.59
7.08035	0.534
7.12126	0.451
7.16218	0.314
7.20309	0.253
7.244	0.235
7.28492	0.269
7.32583	0.241
7.36675	0.377
7.40766	0.467
7.44857	0.517
7.48949	0.565
7.5304	0.534
7.57132	0.514
7.61223	0.417
7.65314	0.358
7.69406	0.301
7.73497	0.196
7.77589	0.091
7.8168	0.042
7.85771	0.037
7.89863	0.037
7.93954	0.052
7.98046	0.098
8.02137	0.175
8.06229	0.226
8.1032	0.257
8.14411	0.274
8.18503	0.265
8.22594	0.191
8.26686	0.104
8.30777	0.054
8.34868	0.038
8.3896	0.033
8.43051	0.032
8.47143	0.032
8.51234	0.032
8.55325	0.032
8.59417	0.032
8.63508	0.032
8.676	0.032
8.71691	0.033
8.75782	0.035
8.79874	0.045
8.83965	0.074
8.88057	0.101
8.92148	0.164
8.9624	0.296
9.00331	0.419
9.04422	0.553
9.08514	0.598
9.12605	0.627
9.16697	0.644
9.20788	0.658
9.24879	0.658
9.28971	0.597
9.33062	0.529
9.37154	0.494
9.41245	0.445
9.45336	0.521
9.49428	0.663
9.53519	0.717
9.57611	0.73
9.61702	0.715
9.65793	0.681
9.69885	0.639
9.73976	0.593
9.78068	0.526
9.82159	0.519
9.86251	0.556
9.90342	0.576
9.94433	0.561
9.98525	0.553
10.0262	0.521
10.0671	0.492
10.108	0.409
10.1489	0.257
10.1898	0.16
10.2307	0.137
10.2716	0.194
10.3126	0.287
10.3535	0.323
10.3944	0.346
10.4353	0.372
10.4762	0.426
10.5171	0.456
10.558	0.448
10.599	0.416
10.6399	0.389
10.6808	0.39
10.7217	0.446
10.7626	0.522
10.8035	0.605
10.8444	0.659
10.8854	0.68
10.9263	0.663
10.9672	0.654
11.0081	0.637
11.049	0.629
11.0899	0.644
11.1308	0.664
11.1718	0.668
11.2127	0.644
11.2536	0.615
11.2945	0.634
11.3354	0.681
11.3763	0.712
11.4172	0.734
11.4582	0.747
11.4991	0.754
11.54	0.761
11.5809	0.766
11.6218	0.766
11.6627	0.764
11.7036	0.759
11.7446	0.741
11.7855	0.712
11.8264	0.661
11.8673	0.626
11.9082	0.619
11.9491	0.642
11.99	0.664
12.031	0.681
12.0719	0.678
12.1128	0.663
12.1537	0.637
12.1946	0.619
12.2355	0.617
12.2764	0.636
12.3174	0.663
12.3583	0.683
12.3992	0.697
12.4401	0.693
12.481	0.675
12.5219	0.644
12.5628	0.58
12.6037	0.541
12.6447	0.565
12.6856	0.627
12.7265	0.666
12.7674	0.675
12.8083	0.664
12.8492	0.648
12.8901	0.627
12.9311	0.565
12.972	0.467
13.0129	0.406
13.0538	0.46
13.0947	0.568
13.1356	0.649
13.1765	0.686
13.2175	0.702
13.2584	0.705
13.2993	0.705
13.3402	0.705
13.3811	0.7
13.422	0.69
13.4629	0.673
13.5039	0.653
13.5448	0.639
13.5857	0.649
13.6266	0.681
13.6675	0.719
13.7084	0.742
13.7493	0.754
13.7903	0.763
13.8312	0.768
13.8721	0.769
13.913	0.773
13.9539	0.774
13.9948	0.774
14.0357	0.774
14.0767	0.773
14.1176	0.773
14.1585	0.773
14.1994	0.769
14.2403	0.769
14.2812	0.769
14.3221	0.768
14.3631	0.768
14.404	0.761
14.4449	0.754
14.4858	0.759
14.5267	0.749
14.5676	0.749
14.6085	0.749
14.6495	0.749
14.6904	0.746
14.7313	0.742
14.7722	0.739
14.8131	0.739
14.854	0.734
14.8949	0.727
14.9359	0.725
14.9768	0.717
15.0177	0.702
15.0586	0.698
15.0995	0.7
15.1404	0.708
15.1813	0.707
15.2223	0.707
15.2632	0.697
15.3041	0.695
15.345	0.686
15.3859	0.686
15.4268	0.683
15.4677	0.678
15.5086	0.673
15.5496	0.664
15.5905	0.668
15.6314	0.664
15.6723	0.658
15.7132	0.658
15.7541	0.653
15.795	0.649
15.836	0.649
15.8769	0.649
15.9178	0.644
15.9587	0.644
