Infrared Spectrum: 3-Ethyl-2-pentene
Formula: C 7 H 14
CAS: 816-79-5
State: gas
Instrument: HP-GC/MS/IRD
Origin: NIST Mass Spectrometry Data Center
1/CM	ABSORBANCE
550	0.0011414
562	0.0008008
574	0.0009464
586	0.0009048
598	0.0006656
610	0.0007488
622	0.00052
634	0.0005434
646	0.0004602
658	0.000338
670	0.0001846
682	3.9e-05
694	0.0001898
706	0.0002444
718	0.0002522
730	0.0002028
742	0.0003614
754	0.0004576
766	0.0003588
778	0.0005798
790	0.0008346
802	0.0012116
814	0.001885
826	0.002249
838	0.0016198
850	0.00078
862	0.0004498
874	0.0003224
886	0.0002756
898	0.0004212
910	0.0007852
922	0.001378
934	0.0016276
946	0.001313
958	0.0008606
970	0.0005044
982	0.0003692
994	0.0004576
1006	0.000494
1018	0.0006422
1030	0.0008008
1042	0.0007384
1054	0.0007332
1066	0.0008138
1078	0.0008372
1090	0.0007722
1102	0.0006942
1114	0.000715
1126	0.000598
1138	0.000364
1150	0.0003614
1162	0.000351
1174	0.000364
1186	0.0004472
1198	0.0004602
1210	0.0003718
1222	0.0003614
1234	0.0003094
1246	0.0004472
1258	0.0006552
1270	0.0006734
1282	0.0006734
1294	0.0007956
1306	0.0010374
1318	0.0010426
1330	0.000858
1342	0.0007904
1354	0.0009568
1366	0.001443
1378	0.0020202
1390	0.0018798
1402	0.0013182
1414	0.0010712
1426	0.0013208
1438	0.0019734
1450	0.0030498
1462	0.0037986
1474	0.0032396
1486	0.00195
1498	0.0010764
1510	0.0008164
1522	0.0006838
1534	0.000676
1546	0.0005954
1558	0.0003848
1570	0.0003666
1582	0.0003692
1594	0.0003952
1606	0.0003822
1618	0.0003588
1630	0.0003978
1642	0.0003926
1654	0.0003848
1666	0.000377
1678	0.000221
1690	0.0001846
1702	8.58e-05
1714	0.0001066
1726	0.0001092
1738	8.06e-05
1750	0.0001144
1762	0.0001508
1774	0.0001118
1786	0.0001274
1798	0.00013
1810	0.0002028
1822	0.0001976
1834	0.0002392
1846	0.0002392
1858	0.000234
1870	0.000234
1882	0.0001716
1894	0.0001326
1906	0.000117
1918	9.36e-05
1930	0.0001404
1942	8.32e-05
1954	6.76e-05
1966	7.8e-05
1978	6.24e-05
1990	6.5e-05
2002	5.98e-05
2014	9.62e-05
2026	8.58e-05
2038	7.8e-05
2050	8.06e-05
2062	7.8e-05
2074	6.76e-05
2086	8.58e-05
2098	7.28e-05
2110	7.8e-05
2122	2.08e-05
2134	2.08e-05
2146	2.86e-05
2158	5.72e-05
2170	0.000104
2182	2.86e-05
2194	4.68e-05
2206	1.04e-05
2218	0
2230	7.8e-05
2242	3.38e-05
2254	8.32e-05
2266	2.86e-05
2278	3.12e-05
2290	4.42e-05
2302	3.12e-05
2314	6.76e-05
2326	6.24e-05
2338	1.56e-05
2350	0
2362	0
2374	7.28e-05
2386	5.98e-05
2398	5.72e-05
2410	5.2e-05
2422	8.32e-05
2434	5.72e-05
2446	3.38e-05
2458	5.2e-05
2470	4.42e-05
2482	3.9e-05
2494	2.6e-05
2506	3.9e-05
2518	2.6e-05
2530	4.94e-05
2542	2.86e-05
2554	4.68e-05
2566	8.06e-05
2578	6.24e-05
2590	4.16e-05
2602	3.38e-05
2614	3.38e-05
2626	8.84e-05
2638	8.06e-05
2650	9.62e-05
2662	9.1e-05
2674	0.00013
2686	9.62e-05
2698	0.0001716
2710	0.0002106
2722	0.0003614
2734	0.0004628
2746	0.0005512
2758	0.0005486
2770	0.000611
2782	0.0006994
2794	0.0008086
2806	0.0010348
2818	0.0014924
2830	0.0021606
2842	0.0035646
2854	0.0057564
2866	0.0092404
2878	0.012285
2890	0.0130858
2902	0.012168
2914	0.013091
2926	0.0164918
2938	0.0189358
2950	0.0186056
2962	0.0228358
2974	0.0258336
2986	0.0175344
2998	0.0085488
3010	0.005629
3022	0.0047996
3034	0.004199
3046	0.0033696
3058	0.0023868
3070	0.001625
3082	0.0011206
3094	0.0009698
3106	0.0007592
3118	0.0006604
3130	0.000572
3142	0.0004732
3154	0.0005018
3166	0.0005096
3178	0.0003796
3190	0.0002808
3202	0.000247
3214	0.0001794
3226	0.0001092
3238	0.0001534
3250	0.0001352
3262	0.0001898
3274	0.0001014
3286	0.0001352
3298	0.0001222
3310	8.32e-05
3322	1.56e-05
3334	0.0001612
3346	0.0001664
3358	0.000156
3370	0.0001534
3382	0.000143
3394	0.0001118
3406	0.0001066
3418	0.000208
3430	0.0001638
3442	0.0001066
3454	0.0001378
3466	0.0001716
3478	0.00013
3490	0.0001508
3502	0.0001274
3514	0.0001248
3526	0.0001976
3538	0.000221
3550	0.0002444
3562	0.0002418
3574	9.88e-05
3586	0.0001586
3598	0.0001742
3610	0.000156
3622	0.0001612
3634	0.0001716
3646	0.0001846
3658	0.000104
3670	0.0001768
3682	0.0002314
3694	0.0001612
3706	0.0001534
3718	0.0002288
3730	0.0001534
3742	0.0001248
3754	0.0001482
3766	7.28e-05
3778	0.0001898
3790	0.0002054
3802	0.0001846
3814	0.000156
3826	0.0002002
3838	0.0002184
